
     RDKit          3D

 73 78  0  0  0  0  0  0  0  0999 V2000
   -7.6796    0.1656   -4.5383 C   0  0  0  0  0  0  0  0  0  0  0  0
   -7.5425    0.3023   -3.0514 C   0  0  0  0  0  0  0  0  0  0  0  0
   -8.6691    0.4275   -2.2394 C   0  0  0  0  0  0  0  0  0  0  0  0
   -8.5249    0.5721   -0.8611 C   0  0  0  0  0  0  0  0  0  0  0  0
   -7.2509    0.6125   -0.2704 C   0  0  0  0  0  0  0  0  0  0  0  0
   -7.1531    0.7879    1.2219 C   0  0  0  0  0  0  0  0  0  0  0  0
   -6.0964    0.4922   -1.0752 C   0  0  0  0  0  0  0  0  0  0  0  0
   -4.8254    0.4940   -0.4859 N   0  0  0  0  0  0  0  0  0  0  0  0
   -3.7429    1.2121   -1.1742 C   0  0  0  0  0  0  0  0  0  0  0  0
   -2.4764    1.2146   -0.2941 C   0  0  0  0  0  0  0  0  0  0  0  0
   -2.0307   -0.1436    0.0586 N   0  0  0  0  0  0  0  0  0  0  0  0
   -0.7296   -0.4938    0.3924 C   0  0  0  0  0  0  0  0  0  0  0  0
   -0.3688   -1.6719    0.3596 O   0  0  0  0  0  0  0  0  0  0  0  0
    0.2106    0.6173    0.8743 C   0  0  0  0  0  0  0  0  0  0  0  0
   -0.1866    1.1069    2.2679 C   0  0  0  0  0  0  0  0  0  0  0  0
    0.0370    0.0392    3.3404 C   0  0  0  0  0  0  0  0  0  0  0  0
    1.2439   -0.8676    3.0770 C   0  0  0  0  0  0  0  0  0  0  0  0
    2.1968   -0.2001    2.1919 N   0  0  0  0  0  0  0  0  0  0  0  0
    3.4866   -0.7730    2.1768 C   0  0  0  0  0  0  0  0  0  0  0  0
    3.7883   -1.7679    3.0695 N   0  0  0  0  0  0  0  0  0  0  0  0
    5.0209   -2.3146    3.0797 C   0  0  0  0  0  0  0  0  0  0  0  0
    6.0757   -2.0033    2.3093 N   0  0  0  0  0  0  0  0  0  0  0  0
    5.7649   -1.0137    1.4565 C   0  0  0  0  0  0  0  0  0  0  0  0
    4.5460   -0.3649    1.3190 C   0  0  0  0  0  0  0  0  0  0  0  0
    4.6376    0.5998    0.3271 N   0  0  0  0  0  0  0  0  0  0  0  0
    5.8790    0.5489   -0.1155 C   0  0  0  0  0  0  0  0  0  0  0  0
    6.5938   -0.4226    0.5427 N   0  0  0  0  0  0  0  0  0  0  0  0
    7.9838   -0.7539    0.3173 C   0  0  0  0  0  0  0  0  0  0  0  0
    8.2638   -1.2215   -1.1089 C   0  0  0  0  0  0  0  0  0  0  0  0
    8.3040   -0.0866   -2.1350 C   0  0  0  0  0  0  0  0  0  0  0  0
    6.9661    0.6168   -2.3763 C   0  0  0  0  0  0  0  0  0  0  0  0
    6.4628    1.4161   -1.1769 C   0  0  0  0  0  0  0  0  0  0  0  0
    1.6897    0.1762    0.8573 C   0  0  0  0  0  0  0  0  0  0  0  0
   -3.0025   -1.2159   -0.1902 C   0  0  0  0  0  0  0  0  0  0  0  0
   -4.4516   -0.8009    0.1299 C   0  0  0  0  0  0  0  0  0  0  0  0
   -6.2695    0.3469   -2.4629 C   0  0  0  0  0  0  0  0  0  0  0  0
   -7.5144    1.1348   -5.0203 H   0  0  0  0  0  0  0  0  0  0  0  0
   -6.9541   -0.5564   -4.9277 H   0  0  0  0  0  0  0  0  0  0  0  0
   -8.6766   -0.1958   -4.8124 H   0  0  0  0  0  0  0  0  0  0  0  0
   -9.6673    0.4096   -2.6717 H   0  0  0  0  0  0  0  0  0  0  0  0
   -9.4159    0.6642   -0.2446 H   0  0  0  0  0  0  0  0  0  0  0  0
   -8.1034    1.1295    1.6477 H   0  0  0  0  0  0  0  0  0  0  0  0
   -6.4020    1.5428    1.4765 H   0  0  0  0  0  0  0  0  0  0  0  0
   -6.8934   -0.1635    1.6963 H   0  0  0  0  0  0  0  0  0  0  0  0
   -3.5021    0.7367   -2.1321 H   0  0  0  0  0  0  0  0  0  0  0  0
   -4.0435    2.2468   -1.3729 H   0  0  0  0  0  0  0  0  0  0  0  0
   -2.6804    1.7440    0.6420 H   0  0  0  0  0  0  0  0  0  0  0  0
   -1.6753    1.7377   -0.8224 H   0  0  0  0  0  0  0  0  0  0  0  0
    0.1318    1.4442    0.1614 H   0  0  0  0  0  0  0  0  0  0  0  0
    0.4262    1.9838    2.5134 H   0  0  0  0  0  0  0  0  0  0  0  0
   -1.2259    1.4440    2.3107 H   0  0  0  0  0  0  0  0  0  0  0  0
   -0.8579   -0.5876    3.4389 H   0  0  0  0  0  0  0  0  0  0  0  0
    0.1567    0.5422    4.3081 H   0  0  0  0  0  0  0  0  0  0  0  0
    1.6826   -1.1030    4.0546 H   0  0  0  0  0  0  0  0  0  0  0  0
    0.9174   -1.8174    2.6354 H   0  0  0  0  0  0  0  0  0  0  0  0
    5.1779   -3.1059    3.8070 H   0  0  0  0  0  0  0  0  0  0  0  0
    8.2594   -1.5510    1.0162 H   0  0  0  0  0  0  0  0  0  0  0  0
    8.5798    0.1278    0.5791 H   0  0  0  0  0  0  0  0  0  0  0  0
    9.2459   -1.7115   -1.1186 H   0  0  0  0  0  0  0  0  0  0  0  0
    7.5310   -1.9772   -1.4178 H   0  0  0  0  0  0  0  0  0  0  0  0
    8.6433   -0.5061   -3.0908 H   0  0  0  0  0  0  0  0  0  0  0  0
    9.0590    0.6512   -1.8382 H   0  0  0  0  0  0  0  0  0  0  0  0
    7.1068    1.3139   -3.2116 H   0  0  0  0  0  0  0  0  0  0  0  0
    6.2139   -0.1135   -2.6990 H   0  0  0  0  0  0  0  0  0  0  0  0
    5.6849    2.1082   -1.5195 H   0  0  0  0  0  0  0  0  0  0  0  0
    7.2650    2.0331   -0.7572 H   0  0  0  0  0  0  0  0  0  0  0  0
    1.8544   -0.6273    0.1297 H   0  0  0  0  0  0  0  0  0  0  0  0
    2.2557    1.0491    0.5137 H   0  0  0  0  0  0  0  0  0  0  0  0
   -2.9136   -1.4889   -1.2484 H   0  0  0  0  0  0  0  0  0  0  0  0
   -2.7413   -2.1020    0.3974 H   0  0  0  0  0  0  0  0  0  0  0  0
   -5.1227   -1.6116   -0.1813 H   0  0  0  0  0  0  0  0  0  0  0  0
   -4.5491   -0.6923    1.2165 H   0  0  0  0  0  0  0  0  0  0  0  0
   -5.4035    0.2344   -3.1096 H   0  0  0  0  0  0  0  0  0  0  0  0
  1  2  1  0
  2  3  2  0
  3  4  1  0
  4  5  2  0
  5  6  1  0
  5  7  1  0
  7  8  1  0
  8  9  1  0
  9 10  1  0
 10 11  1  0
 11 12  1  0
 12 13  2  0
 12 14  1  0
 14 15  1  0
 15 16  1  0
 16 17  1  0
 17 18  1  0
 18 19  1  0
 19 20  2  0
 20 21  1  0
 21 22  2  0
 22 23  1  0
 23 24  2  0
 24 25  1  0
 25 26  2  0
 26 27  1  0
 27 28  1  0
 28 29  1  0
 29 30  1  0
 30 31  1  0
 31 32  1  0
 18 33  1  0
 11 34  1  0
 34 35  1  0
  7 36  2  0
 36  2  1  0
 35  8  1  0
 33 14  1  0
 24 19  1  0
 32 26  1  0
 27 23  1  0
  1 37  1  0
  1 38  1  0
  1 39  1  0
  3 40  1  0
  4 41  1  0
  6 42  1  0
  6 43  1  0
  6 44  1  0
  9 45  1  0
  9 46  1  0
 10 47  1  0
 10 48  1  0
 14 49  1  0
 15 50  1  0
 15 51  1  0
 16 52  1  0
 16 53  1  0
 17 54  1  0
 17 55  1  0
 21 56  1  0
 28 57  1  0
 28 58  1  0
 29 59  1  0
 29 60  1  0
 30 61  1  0
 30 62  1  0
 31 63  1  0
 31 64  1  0
 32 65  1  0
 32 66  1  0
 33 67  1  0
 33 68  1  0
 34 69  1  0
 34 70  1  0
 35 71  1  0
 35 72  1  0
 36 73  1  0
M  END
$$$$
