
     RDKit          3D

 44 47  0  0  0  0  0  0  0  0999 V2000
    2.5275    1.4387   -1.4955 C   0  0  0  0  0  0  0  0  0  0  0  0
    2.9663    0.5893   -0.2924 C   0  0  0  0  0  0  0  0  0  0  0  0
    4.3147   -0.0665   -0.6493 C   0  0  0  0  0  0  0  0  0  0  0  0
    1.9456   -0.5268    0.0144 C   0  0  0  0  0  0  0  0  0  0  0  0
    0.9311   -0.1269    1.0969 C   0  0  0  0  0  0  0  0  0  0  0  0
   -0.1171    0.9213    0.7090 C   0  0  0  0  0  0  0  0  0  0  0  0
   -1.0045    0.4114   -0.4304 C   0  0  0  0  0  0  0  0  0  0  0  0
   -2.1753    1.3561   -0.6224 C   0  0  0  0  0  0  0  0  0  0  0  0
   -3.2732    1.5597    0.1946 C   0  0  0  0  0  0  0  0  0  0  0  0
   -4.1645    2.5414   -0.3252 C   0  0  0  0  0  0  0  0  0  0  0  0
   -3.7191    3.0611   -1.5190 C   0  0  0  0  0  0  0  0  0  0  0  0
   -2.2353    2.3689   -2.0074 S   0  0  0  0  0  0  0  0  0  0  0  0
   -1.4143   -1.0263   -0.1717 C   0  0  0  0  0  0  0  0  0  0  0  0
   -2.4178   -1.6453   -0.9414 C   0  0  0  0  0  0  0  0  0  0  0  0
   -2.7876   -2.9669   -0.6905 C   0  0  0  0  0  0  0  0  0  0  0  0
   -4.0314   -3.6957   -1.6352 Cl  0  0  0  0  0  0  0  0  0  0  0  0
   -2.1519   -3.6877    0.3192 C   0  0  0  0  0  0  0  0  0  0  0  0
   -2.4817   -4.9835    0.6063 O   0  0  0  0  0  0  0  0  0  0  0  0
   -1.1402   -3.1011    1.0692 C   0  0  0  0  0  0  0  0  0  0  0  0
   -0.7592   -1.7828    0.8099 C   0  0  0  0  0  0  0  0  0  0  0  0
    0.2665   -1.3049    1.5794 O   0  0  0  0  0  0  0  0  0  0  0  0
    1.6880    0.3557    2.2324 N   0  0  0  0  0  0  0  0  0  0  0  0
    2.6798    1.2648    2.1067 C   0  0  0  0  0  0  0  0  0  0  0  0
    3.2600    2.1055    3.4120 S   0  0  0  0  0  0  0  0  0  0  0  0
    3.1748    1.4678    0.8614 N   0  0  0  0  0  0  0  0  0  0  0  0
    3.2897    2.1861   -1.7467 H   0  0  0  0  0  0  0  0  0  0  0  0
    2.3655    0.8174   -2.3833 H   0  0  0  0  0  0  0  0  0  0  0  0
    1.6048    1.9899   -1.2998 H   0  0  0  0  0  0  0  0  0  0  0  0
    4.7088   -0.6459    0.1939 H   0  0  0  0  0  0  0  0  0  0  0  0
    4.2147   -0.7402   -1.5076 H   0  0  0  0  0  0  0  0  0  0  0  0
    5.0698    0.6884   -0.8984 H   0  0  0  0  0  0  0  0  0  0  0  0
    2.4835   -1.4098    0.3933 H   0  0  0  0  0  0  0  0  0  0  0  0
    1.4626   -0.8864   -0.9015 H   0  0  0  0  0  0  0  0  0  0  0  0
   -0.7418    1.1219    1.5935 H   0  0  0  0  0  0  0  0  0  0  0  0
    0.3312    1.8866    0.4506 H   0  0  0  0  0  0  0  0  0  0  0  0
   -0.4075    0.3933   -1.3523 H   0  0  0  0  0  0  0  0  0  0  0  0
   -3.4326    1.0259    1.1248 H   0  0  0  0  0  0  0  0  0  0  0  0
   -5.0851    2.8520    0.1538 H   0  0  0  0  0  0  0  0  0  0  0  0
   -4.1932    3.8177   -2.1292 H   0  0  0  0  0  0  0  0  0  0  0  0
   -2.9207   -1.0926   -1.7329 H   0  0  0  0  0  0  0  0  0  0  0  0
   -3.2017   -5.2406    0.0002 H   0  0  0  0  0  0  0  0  0  0  0  0
   -0.6394   -3.6727    1.8459 H   0  0  0  0  0  0  0  0  0  0  0  0
    1.2797    0.2378    3.1501 H   0  0  0  0  0  0  0  0  0  0  0  0
    3.9306    2.1441    0.8144 H   0  0  0  0  0  0  0  0  0  0  0  0
  1  2  1  0
  2  3  1  0
  2  4  1  0
  4  5  1  0
  5  6  1  0
  6  7  1  0
  7  8  1  0
  8  9  2  0
  9 10  1  0
 10 11  2  0
 11 12  1  0
  7 13  1  0
 13 14  2  0
 14 15  1  0
 15 16  1  0
 15 17  2  0
 17 18  1  0
 17 19  1  0
 19 20  2  0
 20 21  1  0
  5 22  1  0
 22 23  1  0
 23 24  2  0
 23 25  1  0
 25  2  1  0
 21  5  1  0
 12  8  1  0
 20 13  1  0
  1 26  1  0
  1 27  1  0
  1 28  1  0
  3 29  1  0
  3 30  1  0
  3 31  1  0
  4 32  1  0
  4 33  1  0
  6 34  1  0
  6 35  1  0
  7 36  1  0
  9 37  1  0
 10 38  1  0
 11 39  1  0
 14 40  1  0
 18 41  1  0
 19 42  1  0
 22 43  1  0
 25 44  1  0
M  END
$$$$
