
     RDKit          3D

 51 54  0  0  0  0  0  0  0  0999 V2000
    4.8163    0.4423    0.7929 C   0  0  0  0  0  0  0  0  0  0  0  0
    3.6746    1.1985    1.4454 C   0  0  0  0  0  0  0  0  0  0  0  0
    2.8404    0.2473    2.1300 O   0  0  0  0  0  0  0  0  0  0  0  0
    1.5334    0.6678    2.1089 C   0  0  0  0  0  0  0  0  0  0  0  0
    0.6778   -0.0059    1.2299 C   0  0  0  0  0  0  0  0  0  0  0  0
   -0.6751    0.3519    1.1420 C   0  0  0  0  0  0  0  0  0  0  0  0
   -1.6336   -0.3311    0.1659 C   0  0  0  0  0  0  0  0  0  0  0  0
   -1.6370   -1.8551    0.3356 C   0  0  0  0  0  0  0  0  0  0  0  0
   -3.0160   -2.4864    0.2528 C   0  0  0  0  0  0  0  0  0  0  0  0
   -4.0460   -1.8232    0.1782 O   0  0  0  0  0  0  0  0  0  0  0  0
   -3.0449   -4.0079    0.3651 C   0  0  0  0  0  0  0  0  0  0  0  0
   -2.0345   -4.6601   -0.5848 C   0  0  0  0  0  0  0  0  0  0  0  0
   -0.6271   -4.0674   -0.4472 C   0  0  0  0  0  0  0  0  0  0  0  0
   -0.7703   -2.5775   -0.6796 C   0  0  0  0  0  0  0  0  0  0  0  0
   -0.2781   -2.0614   -1.7626 N   0  0  0  0  0  0  0  0  0  0  0  0
   -0.5983   -0.7777   -2.0547 C   0  0  0  0  0  0  0  0  0  0  0  0
   -0.3809   -0.0976   -3.1566 N   0  0  0  0  0  0  0  0  0  0  0  0
   -0.9743    1.1398   -2.9353 C   0  0  0  0  0  0  0  0  0  0  0  0
   -0.9701    2.2297   -3.9305 C   0  0  0  0  0  0  0  0  0  0  0  0
   -1.4847    3.3338   -3.7614 O   0  0  0  0  0  0  0  0  0  0  0  0
   -0.3188    1.8691   -5.0846 O   0  0  0  0  0  0  0  0  0  0  0  0
   -0.2781    2.8835   -6.0871 C   0  0  0  0  0  0  0  0  0  0  0  0
   -1.5539    1.2419   -1.7211 N   0  0  0  0  0  0  0  0  0  0  0  0
   -1.2750    0.0393   -1.1921 N   0  0  0  0  0  0  0  0  0  0  0  0
   -1.1378    1.3951    1.9630 C   0  0  0  0  0  0  0  0  0  0  0  0
   -0.2785    2.0536    2.8569 C   0  0  0  0  0  0  0  0  0  0  0  0
    1.0655    1.6900    2.9470 C   0  0  0  0  0  0  0  0  0  0  0  0
    1.9821    2.2581    3.7909 O   0  0  0  0  0  0  0  0  0  0  0  0
    1.5131    3.2615    4.6900 C   0  0  0  0  0  0  0  0  0  0  0  0
    4.4295   -0.3331    0.1117 H   0  0  0  0  0  0  0  0  0  0  0  0
    5.4783    1.1173    0.2230 H   0  0  0  0  0  0  0  0  0  0  0  0
    5.4143   -0.0736    1.5553 H   0  0  0  0  0  0  0  0  0  0  0  0
    4.0798    1.9172    2.1673 H   0  0  0  0  0  0  0  0  0  0  0  0
    3.1233    1.7436    0.6683 H   0  0  0  0  0  0  0  0  0  0  0  0
    1.1037   -0.7853    0.6022 H   0  0  0  0  0  0  0  0  0  0  0  0
   -2.6392    0.0779    0.3300 H   0  0  0  0  0  0  0  0  0  0  0  0
   -1.2749   -2.1184    1.3378 H   0  0  0  0  0  0  0  0  0  0  0  0
   -2.8151   -4.2725    1.4039 H   0  0  0  0  0  0  0  0  0  0  0  0
   -4.0579   -4.3666    0.1394 H   0  0  0  0  0  0  0  0  0  0  0  0
   -2.3813   -4.5201   -1.6144 H   0  0  0  0  0  0  0  0  0  0  0  0
   -1.9993   -5.7405   -0.3970 H   0  0  0  0  0  0  0  0  0  0  0  0
    0.0567   -4.5083   -1.1825 H   0  0  0  0  0  0  0  0  0  0  0  0
   -0.2194   -4.2418    0.5543 H   0  0  0  0  0  0  0  0  0  0  0  0
    0.1838    2.4500   -6.9793 H   0  0  0  0  0  0  0  0  0  0  0  0
    0.3334    3.7269   -5.7524 H   0  0  0  0  0  0  0  0  0  0  0  0
   -1.2884    3.2131   -6.3485 H   0  0  0  0  0  0  0  0  0  0  0  0
   -2.1754    1.7215    1.9066 H   0  0  0  0  0  0  0  0  0  0  0  0
   -0.6948    2.8535    3.4619 H   0  0  0  0  0  0  0  0  0  0  0  0
    2.3575    3.5739    5.3153 H   0  0  0  0  0  0  0  0  0  0  0  0
    0.7346    2.8672    5.3558 H   0  0  0  0  0  0  0  0  0  0  0  0
    1.1605    4.1467    4.1447 H   0  0  0  0  0  0  0  0  0  0  0  0
  1  2  1  0
  2  3  1  0
  3  4  1  0
  4  5  2  0
  5  6  1  0
  6  7  1  0
  7  8  1  0
  8  9  1  0
  9 10  2  0
  9 11  1  0
 11 12  1  0
 12 13  1  0
 13 14  1  0
 14 15  2  0
 15 16  1  0
 16 17  2  0
 17 18  1  0
 18 19  1  0
 19 20  2  0
 19 21  1  0
 21 22  1  0
 18 23  2  0
 23 24  1  0
  6 25  2  0
 25 26  1  0
 26 27  2  0
 27 28  1  0
 28 29  1  0
 27  4  1  0
 24  7  1  0
 14  8  1  0
 24 16  1  0
  1 30  1  0
  1 31  1  0
  1 32  1  0
  2 33  1  0
  2 34  1  0
  5 35  1  0
  7 36  1  0
  8 37  1  0
 11 38  1  0
 11 39  1  0
 12 40  1  0
 12 41  1  0
 13 42  1  0
 13 43  1  0
 22 44  1  0
 22 45  1  0
 22 46  1  0
 25 47  1  0
 26 48  1  0
 29 49  1  0
 29 50  1  0
 29 51  1  0
M  END
$$$$
