
     RDKit          3D

 56 61  0  0  0  0  0  0  0  0999 V2000
    5.6300   -3.4674    0.1286 C   0  0  0  0  0  0  0  0  0  0  0  0
    4.7995   -2.5070   -0.5133 O   0  0  0  0  0  0  0  0  0  0  0  0
    3.7342   -2.0363    0.2037 C   0  0  0  0  0  0  0  0  0  0  0  0
    3.3998   -2.3920    1.5086 C   0  0  0  0  0  0  0  0  0  0  0  0
    2.2768   -1.8313    2.1202 C   0  0  0  0  0  0  0  0  0  0  0  0
    1.4836   -0.9123    1.4327 C   0  0  0  0  0  0  0  0  0  0  0  0
    1.8014   -0.5357    0.1169 C   0  0  0  0  0  0  0  0  0  0  0  0
    0.9553    0.4639   -0.6698 C   0  0  0  0  0  0  0  0  0  0  0  0
   -0.2766   -0.2912   -1.0274 C   0  0  0  0  0  0  0  0  0  0  0  0
   -0.5583   -1.3768   -1.8738 C   0  0  0  0  0  0  0  0  0  0  0  0
    0.3741   -2.1703   -2.7111 C   0  0  0  0  0  0  0  0  0  0  0  0
   -1.8610   -1.6758   -1.8640 N   0  0  0  0  0  0  0  0  0  0  0  0
   -2.4409   -0.7796   -1.0051 N   0  0  0  0  0  0  0  0  0  0  0  0
   -3.8491   -0.8471   -0.7616 C   0  0  0  0  0  0  0  0  0  0  0  0
   -4.4970    0.0357    0.1144 C   0  0  0  0  0  0  0  0  0  0  0  0
   -5.8781   -0.0613    0.3290 C   0  0  0  0  0  0  0  0  0  0  0  0
   -6.6182   -1.0465   -0.3344 C   0  0  0  0  0  0  0  0  0  0  0  0
   -8.0652   -1.1482   -0.1094 N   0  0  0  0  0  4  0  0  0  0  0  0
   -8.5862   -0.3438    0.6765 O   0  0  0  0  0  0  0  0  0  0  0  0
   -8.6832   -2.0334   -0.7187 O   0  0  0  0  0  1  0  0  0  0  0  0
   -5.9873   -1.9358   -1.2103 C   0  0  0  0  0  0  0  0  0  0  0  0
   -4.6081   -1.8335   -1.4201 C   0  0  0  0  0  0  0  0  0  0  0  0
   -1.4857    0.0974   -0.4990 C   0  0  0  0  0  0  0  0  0  0  0  0
   -1.6899    1.1403    0.3439 N   0  0  0  0  0  0  0  0  0  0  0  0
   -0.6362    1.8750    0.6022 C   0  0  0  0  0  0  0  0  0  0  0  0
   -0.9130    3.0701    1.5462 C   0  0  0  0  0  0  0  0  0  0  0  0
   -2.0014    3.2401    2.0781 O   0  0  0  0  0  0  0  0  0  0  0  0
    0.1351    3.9275    1.7477 N   0  0  0  0  0  0  0  0  0  0  0  0
    1.3999    3.7599    1.1778 C   0  0  0  0  0  0  0  0  0  0  0  0
    2.3675    4.7336    1.4544 C   0  0  0  0  0  0  0  0  0  0  0  0
    3.6426    4.6197    0.9129 C   0  0  0  0  0  0  0  0  0  0  0  0
    3.9451    3.5365    0.0978 C   0  0  0  0  0  0  0  0  0  0  0  0
    2.9747    2.5639   -0.1751 C   0  0  0  0  0  0  0  0  0  0  0  0
    1.6779    2.6425    0.3606 C   0  0  0  0  0  0  0  0  0  0  0  0
    0.6721    1.6848    0.1173 N   0  0  0  0  0  0  0  0  0  0  0  0
    2.9368   -1.1142   -0.4814 C   0  0  0  0  0  0  0  0  0  0  0  0
    6.1089   -3.0434    1.0173 H   0  0  0  0  0  0  0  0  0  0  0  0
    5.0675   -4.3738    0.3757 H   0  0  0  0  0  0  0  0  0  0  0  0
    6.4209   -3.7476   -0.5739 H   0  0  0  0  0  0  0  0  0  0  0  0
    3.9883   -3.1030    2.0787 H   0  0  0  0  0  0  0  0  0  0  0  0
    2.0158   -2.1143    3.1375 H   0  0  0  0  0  0  0  0  0  0  0  0
    0.6096   -0.4975    1.9319 H   0  0  0  0  0  0  0  0  0  0  0  0
    1.4493    0.7431   -1.6096 H   0  0  0  0  0  0  0  0  0  0  0  0
    0.8596   -2.9446   -2.1090 H   0  0  0  0  0  0  0  0  0  0  0  0
    1.1482   -1.5301   -3.1454 H   0  0  0  0  0  0  0  0  0  0  0  0
   -0.1519   -2.6606   -3.5371 H   0  0  0  0  0  0  0  0  0  0  0  0
   -3.9641    0.8143    0.6532 H   0  0  0  0  0  0  0  0  0  0  0  0
   -6.3524    0.6386    1.0148 H   0  0  0  0  0  0  0  0  0  0  0  0
   -6.5453   -2.7088   -1.7346 H   0  0  0  0  0  0  0  0  0  0  0  0
   -4.1354   -2.5361   -2.1059 H   0  0  0  0  0  0  0  0  0  0  0  0
   -0.0590    4.7157    2.3497 H   0  0  0  0  0  0  0  0  0  0  0  0
    2.1370    5.5850    2.0893 H   0  0  0  0  0  0  0  0  0  0  0  0
    4.3973    5.3729    1.1248 H   0  0  0  0  0  0  0  0  0  0  0  0
    4.9409    3.4412   -0.3301 H   0  0  0  0  0  0  0  0  0  0  0  0
    3.2798    1.7485   -0.8220 H   0  0  0  0  0  0  0  0  0  0  0  0
    3.2139   -0.8514   -1.5007 H   0  0  0  0  0  0  0  0  0  0  0  0
  1  2  1  0
  2  3  1  0
  3  4  2  0
  4  5  1  0
  5  6  2  0
  6  7  1  0
  7  8  1  0
  8  9  1  0
  9 10  1  0
 10 11  1  0
 10 12  2  0
 12 13  1  0
 13 14  1  0
 14 15  2  0
 15 16  1  0
 16 17  2  0
 17 18  1  0
 18 19  2  0
 18 20  1  0
 17 21  1  0
 21 22  2  0
 13 23  1  0
 23 24  1  0
 24 25  2  0
 25 26  1  0
 26 27  2  0
 26 28  1  0
 28 29  1  0
 29 30  2  0
 30 31  1  0
 31 32  2  0
 32 33  1  0
 33 34  2  0
 34 35  1  0
  7 36  2  0
 36  3  1  0
 35  8  1  0
 23  9  2  0
 35 25  1  0
 22 14  1  0
 34 29  1  0
  1 37  1  0
  1 38  1  0
  1 39  1  0
  4 40  1  0
  5 41  1  0
  6 42  1  0
  8 43  1  0
 11 44  1  0
 11 45  1  0
 11 46  1  0
 15 47  1  0
 16 48  1  0
 21 49  1  0
 22 50  1  0
 28 51  1  0
 30 52  1  0
 31 53  1  0
 32 54  1  0
 33 55  1  0
 36 56  1  0
M  CHG  2  18   1  20  -1
M  END
$$$$
