
     RDKit          3D

 43 45  0  0  0  0  0  0  0  0999 V2000
    6.5641   -2.3140    0.2798 C   0  0  0  0  0  0  0  0  0  0  0  0
    5.7476   -1.0842    0.0095 C   0  0  0  0  0  0  0  0  0  0  0  0
    6.3659    0.0941   -0.4158 C   0  0  0  0  0  0  0  0  0  0  0  0
    5.6031    1.2271   -0.6975 C   0  0  0  0  0  0  0  0  0  0  0  0
    4.2078    1.1982   -0.5671 C   0  0  0  0  0  0  0  0  0  0  0  0
    3.4045    2.4313   -0.8772 C   0  0  0  0  0  0  0  0  0  0  0  0
    3.5764    0.0117   -0.1537 C   0  0  0  0  0  0  0  0  0  0  0  0
    2.2100    0.0724   -0.0638 O   0  0  0  0  0  0  0  0  0  0  0  0
    1.5271   -1.0905    0.3980 C   0  0  0  0  0  0  0  0  0  0  0  0
    0.0857   -0.7524    0.4510 C   0  0  0  0  0  0  0  0  0  0  0  0
   -0.6330    0.4018    0.6394 C   0  0  0  0  0  0  0  0  0  0  0  0
   -1.9970    0.0038    0.5790 C   0  0  0  0  0  0  0  0  0  0  0  0
   -3.1556    0.8933    0.7657 C   0  0  0  0  0  0  0  0  0  0  0  0
   -2.9960    1.9760    1.3352 O   0  0  0  0  0  0  0  0  0  0  0  0
   -4.4280    0.5267    0.3025 N   0  0  0  0  0  0  0  0  0  0  0  0
   -4.7435   -0.7040   -0.4255 C   0  0  0  0  0  0  0  0  0  0  0  0
   -5.9982   -0.5470   -1.2822 C   0  0  0  0  0  0  0  0  0  0  0  0
   -7.1199   -0.0732   -0.5104 N   0  0  0  0  0  0  0  0  0  0  0  0
   -6.9756    0.9473    0.3919 C   0  0  0  0  0  0  0  0  0  0  0  0
   -7.9692    1.5366    0.8122 O   0  0  0  0  0  0  0  0  0  0  0  0
   -5.5540    1.2833    0.8651 C   0  0  0  0  0  0  0  0  0  0  0  0
   -2.0779   -1.3270    0.4060 N   0  0  0  0  0  0  0  0  0  0  0  0
   -0.7810   -1.7893    0.3109 O   0  0  0  0  0  0  0  0  0  0  0  0
    4.3496   -1.1216    0.1253 C   0  0  0  0  0  0  0  0  0  0  0  0
    6.6339   -2.9233   -0.6266 H   0  0  0  0  0  0  0  0  0  0  0  0
    7.5753   -2.0495    0.6065 H   0  0  0  0  0  0  0  0  0  0  0  0
    6.1126   -2.9136    1.0773 H   0  0  0  0  0  0  0  0  0  0  0  0
    7.4466    0.1392   -0.5308 H   0  0  0  0  0  0  0  0  0  0  0  0
    6.1063    2.1350   -1.0226 H   0  0  0  0  0  0  0  0  0  0  0  0
    2.7213    2.2384   -1.7106 H   0  0  0  0  0  0  0  0  0  0  0  0
    2.8289    2.7402    0.0015 H   0  0  0  0  0  0  0  0  0  0  0  0
    4.0486    3.2699   -1.1620 H   0  0  0  0  0  0  0  0  0  0  0  0
    1.6851   -1.9226   -0.2978 H   0  0  0  0  0  0  0  0  0  0  0  0
    1.8654   -1.3629    1.4044 H   0  0  0  0  0  0  0  0  0  0  0  0
   -0.2427    1.3971    0.7975 H   0  0  0  0  0  0  0  0  0  0  0  0
   -4.8844   -1.4961    0.3187 H   0  0  0  0  0  0  0  0  0  0  0  0
   -3.9186   -0.9745   -1.0887 H   0  0  0  0  0  0  0  0  0  0  0  0
   -6.2790   -1.5006   -1.7391 H   0  0  0  0  0  0  0  0  0  0  0  0
   -5.8239    0.1837   -2.0803 H   0  0  0  0  0  0  0  0  0  0  0  0
   -8.0632   -0.1854   -0.8630 H   0  0  0  0  0  0  0  0  0  0  0  0
   -5.3837    2.3469    0.6613 H   0  0  0  0  0  0  0  0  0  0  0  0
   -5.5331    1.1333    1.9515 H   0  0  0  0  0  0  0  0  0  0  0  0
    3.8920   -2.0555    0.4358 H   0  0  0  0  0  0  0  0  0  0  0  0
  1  2  1  0
  2  3  2  0
  3  4  1  0
  4  5  2  0
  5  6  1  0
  5  7  1  0
  7  8  1  0
  8  9  1  0
  9 10  1  0
 10 11  2  0
 11 12  1  0
 12 13  1  0
 13 14  2  0
 13 15  1  0
 15 16  1  0
 16 17  1  0
 17 18  1  0
 18 19  1  0
 19 20  2  0
 19 21  1  0
 12 22  2  0
 22 23  1  0
  7 24  2  0
 24  2  1  0
 23 10  1  0
 21 15  1  0
  1 25  1  0
  1 26  1  0
  1 27  1  0
  3 28  1  0
  4 29  1  0
  6 30  1  0
  6 31  1  0
  6 32  1  0
  9 33  1  0
  9 34  1  0
 11 35  1  0
 16 36  1  0
 16 37  1  0
 17 38  1  0
 17 39  1  0
 18 40  1  0
 21 41  1  0
 21 42  1  0
 24 43  1  0
M  END
$$$$
