
     RDKit          3D

 34 36  0  0  0  0  0  0  0  0999 V2000
   -2.6764   -2.8841   -2.4645 O   0  0  0  0  0  0  0  0  0  0  0  0
   -2.3531   -1.9455   -1.7465 C   0  0  0  0  0  0  0  0  0  0  0  0
   -3.3177   -1.1172   -1.1850 O   0  0  0  0  0  0  0  0  0  0  0  0
   -2.9603   -0.0186   -0.3816 C   0  0  0  0  0  0  0  0  0  0  0  0
   -4.0142    0.7635    0.0938 C   0  0  0  0  0  0  0  0  0  0  0  0
   -3.7356    1.8785    0.8780 C   0  0  0  0  0  0  0  0  0  0  0  0
   -2.4128    2.2021    1.1738 C   0  0  0  0  0  0  0  0  0  0  0  0
   -1.3674    1.4069    0.6900 C   0  0  0  0  0  0  0  0  0  0  0  0
   -1.6249    0.2714   -0.0931 C   0  0  0  0  0  0  0  0  0  0  0  0
   -0.5520   -0.6020   -0.6274 C   0  0  0  0  0  0  0  0  0  0  0  0
    0.7611   -0.2653   -0.2590 N   0  0  0  0  0  0  0  0  0  0  0  0
    1.3409   -0.8574    0.9687 C   0  0  0  0  0  0  0  0  0  0  0  0
    2.8417   -0.5967    1.0910 C   0  0  0  0  0  0  0  0  0  0  0  0
    3.1893    0.8404    0.7237 C   0  0  0  0  0  0  0  0  0  0  0  0
    2.6581    1.2298   -0.6581 C   0  0  0  0  0  0  0  0  0  0  0  0
    1.7402    0.1720   -1.2676 C   0  0  0  0  0  0  0  0  0  0  0  0
   -0.9737   -1.6140   -1.4075 C   0  0  0  0  0  0  0  0  0  0  0  0
    0.0082   -2.5001   -1.9426 N   0  0  0  0  0  4  0  0  0  0  0  0
    0.4607   -2.2294   -3.0645 O   0  0  0  0  0  0  0  0  0  0  0  0
    0.3470   -3.4629   -1.2395 O   0  0  0  0  0  1  0  0  0  0  0  0
   -5.0421    0.5080   -0.1489 H   0  0  0  0  0  0  0  0  0  0  0  0
   -4.5461    2.4981    1.2539 H   0  0  0  0  0  0  0  0  0  0  0  0
   -2.1902    3.0770    1.7804 H   0  0  0  0  0  0  0  0  0  0  0  0
   -0.3457    1.6921    0.9312 H   0  0  0  0  0  0  0  0  0  0  0  0
    1.1627   -1.9387    0.9923 H   0  0  0  0  0  0  0  0  0  0  0  0
    0.8307   -0.4266    1.8384 H   0  0  0  0  0  0  0  0  0  0  0  0
    3.3900   -1.2819    0.4321 H   0  0  0  0  0  0  0  0  0  0  0  0
    3.1733   -0.8168    2.1120 H   0  0  0  0  0  0  0  0  0  0  0  0
    4.2751    0.9846    0.7599 H   0  0  0  0  0  0  0  0  0  0  0  0
    2.7630    1.5171    1.4750 H   0  0  0  0  0  0  0  0  0  0  0  0
    2.1168    2.1803   -0.5706 H   0  0  0  0  0  0  0  0  0  0  0  0
    3.4954    1.4158   -1.3410 H   0  0  0  0  0  0  0  0  0  0  0  0
    1.2327    0.6037   -2.1389 H   0  0  0  0  0  0  0  0  0  0  0  0
    2.3254   -0.6841   -1.6239 H   0  0  0  0  0  0  0  0  0  0  0  0
  1  2  2  0
  2  3  1  0
  3  4  1  0
  4  5  2  0
  5  6  1  0
  6  7  2  0
  7  8  1  0
  8  9  2  0
  9 10  1  0
 10 11  1  0
 11 12  1  0
 12 13  1  0
 13 14  1  0
 14 15  1  0
 15 16  1  0
 10 17  2  0
 17 18  1  0
 18 19  2  0
 18 20  1  0
 17  2  1  0
  9  4  1  0
 16 11  1  0
  5 21  1  0
  6 22  1  0
  7 23  1  0
  8 24  1  0
 12 25  1  0
 12 26  1  0
 13 27  1  0
 13 28  1  0
 14 29  1  0
 14 30  1  0
 15 31  1  0
 15 32  1  0
 16 33  1  0
 16 34  1  0
M  CHG  2  18   1  20  -1
M  END
$$$$
