
     RDKit          3D

 38 40  0  0  0  0  0  0  0  0999 V2000
   -0.1404   -4.0269   -3.9487 N   0  0  0  0  0  0  0  0  0  0  0  0
    0.0897   -3.2638   -3.1048 C   0  0  0  0  0  0  0  0  0  0  0  0
    0.4472   -2.3170   -2.1020 C   0  0  0  0  0  0  0  0  0  0  0  0
    1.7451   -2.1517   -1.7738 C   0  0  0  0  0  0  0  0  0  0  0  0
    2.2741   -1.2785   -0.7205 C   0  0  0  0  0  0  0  0  0  0  0  0
    1.9184   -1.4623    0.6260 C   0  0  0  0  0  0  0  0  0  0  0  0
    2.4057   -0.6014    1.6151 C   0  0  0  0  0  0  0  0  0  0  0  0
    3.2571    0.4334    1.2509 C   0  0  0  0  0  0  0  0  0  0  0  0
    3.7620    1.3129    2.1669 O   0  0  0  0  0  0  0  0  0  0  0  0
    3.6260    0.6043   -0.0806 C   0  0  0  0  0  0  0  0  0  0  0  0
    4.4641    1.6238   -0.4308 O   0  0  0  0  0  0  0  0  0  0  0  0
    3.1488   -0.2444   -1.0698 C   0  0  0  0  0  0  0  0  0  0  0  0
   -0.6791   -1.5990   -1.4277 C   0  0  0  0  0  0  0  0  0  0  0  0
   -1.6774   -2.2262   -1.0953 O   0  0  0  0  0  0  0  0  0  0  0  0
   -0.4957   -0.2336   -1.3344 N   0  0  0  0  0  0  0  0  0  0  0  0
   -1.3638    0.7196   -0.7436 C   0  0  0  0  0  0  0  0  0  0  0  0
   -1.3508    1.9760   -1.3692 C   0  0  0  0  0  0  0  0  0  0  0  0
   -2.1941    2.9902   -0.9377 C   0  0  0  0  0  0  0  0  0  0  0  0
   -3.0426    2.7618    0.1404 C   0  0  0  0  0  0  0  0  0  0  0  0
   -3.0463    1.5592    0.8274 C   0  0  0  0  0  0  0  0  0  0  0  0
   -3.8672    1.4727    1.8886 N   0  0  0  0  0  0  0  0  0  0  0  0
   -3.8520    0.3409    2.6185 C   0  0  0  0  0  0  0  0  0  0  0  0
   -3.0193   -0.7210    2.3528 C   0  0  0  0  0  0  0  0  0  0  0  0
   -2.1726   -0.6220    1.2529 C   0  0  0  0  0  0  0  0  0  0  0  0
   -2.1814    0.5156    0.4116 C   0  0  0  0  0  0  0  0  0  0  0  0
    2.5128   -2.7096   -2.3113 H   0  0  0  0  0  0  0  0  0  0  0  0
    1.2536   -2.2737    0.9176 H   0  0  0  0  0  0  0  0  0  0  0  0
    2.1098   -0.7547    2.6482 H   0  0  0  0  0  0  0  0  0  0  0  0
    3.3954    1.0888    3.0401 H   0  0  0  0  0  0  0  0  0  0  0  0
    4.6722    2.0733    0.4135 H   0  0  0  0  0  0  0  0  0  0  0  0
    3.4570   -0.0843   -2.0994 H   0  0  0  0  0  0  0  0  0  0  0  0
    0.2286    0.1543   -1.9281 H   0  0  0  0  0  0  0  0  0  0  0  0
   -0.7135    2.1684   -2.2292 H   0  0  0  0  0  0  0  0  0  0  0  0
   -2.2026    3.9527   -1.4421 H   0  0  0  0  0  0  0  0  0  0  0  0
   -3.7080    3.5562    0.4723 H   0  0  0  0  0  0  0  0  0  0  0  0
   -4.5421    0.3194    3.4566 H   0  0  0  0  0  0  0  0  0  0  0  0
   -3.0242   -1.6060    2.9779 H   0  0  0  0  0  0  0  0  0  0  0  0
   -1.4944   -1.4476    1.0718 H   0  0  0  0  0  0  0  0  0  0  0  0
  1  2  3  0
  2  3  1  0
  3  4  2  3
  4  5  1  0
  5  6  2  0
  6  7  1  0
  7  8  2  0
  8  9  1  0
  8 10  1  0
 10 11  1  0
 10 12  2  0
  3 13  1  0
 13 14  2  0
 13 15  1  0
 15 16  1  0
 16 17  2  0
 17 18  1  0
 18 19  2  0
 19 20  1  0
 20 21  2  0
 21 22  1  0
 22 23  2  0
 23 24  1  0
 24 25  2  0
 12  5  1  0
 25 16  1  0
 25 20  1  0
  4 26  1  0
  6 27  1  0
  7 28  1  0
  9 29  1  0
 11 30  1  0
 12 31  1  0
 15 32  1  0
 17 33  1  0
 18 34  1  0
 19 35  1  0
 22 36  1  0
 23 37  1  0
 24 38  1  0
M  END
$$$$
