
     RDKit          3D

 69 72  0  0  0  0  0  0  0  0999 V2000
  -10.8739    3.0959    1.2639 C   0  0  0  0  0  0  0  0  0  0  0  0
   -9.5747    2.5162    0.7887 C   0  0  0  0  0  0  0  0  0  0  0  0
   -9.5230    1.2209    0.2643 C   0  0  0  0  0  0  0  0  0  0  0  0
   -8.3066    0.6626   -0.1485 C   0  0  0  0  0  0  0  0  0  0  0  0
   -7.1198    1.3963   -0.0456 C   0  0  0  0  0  0  0  0  0  0  0  0
   -5.8535    0.8649   -0.4428 N   0  0  0  0  0  0  0  0  0  0  0  0
   -4.7225    1.4520    0.0357 N   0  0  0  0  0  0  0  0  0  0  0  0
   -3.7324    0.6219   -0.3001 C   0  0  0  0  0  0  0  0  0  0  0  0
   -2.3261    0.7622    0.0557 C   0  0  0  0  0  0  0  0  0  0  0  0
   -1.8861    1.6689    0.7601 O   0  0  0  0  0  0  0  0  0  0  0  0
   -1.5228   -0.2584   -0.4945 N   0  0  0  0  0  0  0  0  0  0  0  0
   -0.0952   -0.2780   -0.1928 C   0  0  0  0  0  0  0  0  0  0  0  0
    0.1865   -0.9766    1.1397 C   0  0  0  0  0  0  0  0  0  0  0  0
    1.6465   -0.8413    1.5648 C   0  0  0  0  0  0  0  0  0  0  0  0
    2.6016   -1.6406    0.6998 C   0  0  0  0  0  0  0  0  0  0  0  0
    2.2418   -2.4890   -0.1081 O   0  0  0  0  0  0  0  0  0  0  0  0
    3.9206   -1.3370    0.9395 N   0  0  0  0  0  0  0  0  0  0  0  0
    4.9827   -1.8918    0.1207 C   0  0  0  0  0  0  0  0  0  0  0  0
    6.3654   -1.4680    0.6480 C   0  0  0  0  0  0  0  0  0  0  0  0
    6.4403   -0.0109    0.9247 N   0  0  0  0  0  0  0  0  0  0  0  0
    7.5976    0.2867    1.7942 C   0  0  0  0  0  0  0  0  0  0  0  0
    8.9946    0.0572    1.1562 C   0  0  0  0  0  0  0  0  0  0  0  0
    9.0088    0.1400   -0.3162 N   0  0  0  0  0  0  0  0  0  0  0  0
   10.3459    0.4245   -0.8232 C   0  0  0  0  0  0  0  0  0  0  0  0
    8.0228    1.1223   -0.7810 C   0  0  0  0  0  0  0  0  0  0  0  0
    6.5763    0.7738   -0.3291 C   0  0  0  0  0  0  0  0  0  0  0  0
   -1.9934   -1.3252   -1.2658 N   0  0  0  0  0  0  0  0  0  0  0  0
   -3.2566   -1.4345   -1.5663 C   0  0  0  0  0  0  0  0  0  0  0  0
   -3.6925   -2.6034   -2.4036 C   0  0  0  0  0  0  0  0  0  0  0  0
   -4.1854   -0.4384   -1.0918 C   0  0  0  0  0  0  0  0  0  0  0  0
   -5.5404   -0.2176   -1.2740 C   0  0  0  0  0  0  0  0  0  0  0  0
   -6.5013   -0.8949   -2.1822 C   0  0  0  0  0  0  0  0  0  0  0  0
   -7.1689    2.6815    0.5194 C   0  0  0  0  0  0  0  0  0  0  0  0
   -8.3852    3.2359    0.9293 C   0  0  0  0  0  0  0  0  0  0  0  0
  -10.8864    4.1831    1.1334 H   0  0  0  0  0  0  0  0  0  0  0  0
  -11.0220    2.8637    2.3230 H   0  0  0  0  0  0  0  0  0  0  0  0
  -11.7157    2.6905    0.6921 H   0  0  0  0  0  0  0  0  0  0  0  0
  -10.4322    0.6272    0.1865 H   0  0  0  0  0  0  0  0  0  0  0  0
   -8.3270   -0.3639   -0.4942 H   0  0  0  0  0  0  0  0  0  0  0  0
    0.4247   -0.7734   -1.0200 H   0  0  0  0  0  0  0  0  0  0  0  0
    0.2649    0.7567   -0.1563 H   0  0  0  0  0  0  0  0  0  0  0  0
   -0.4417   -0.5353    1.9235 H   0  0  0  0  0  0  0  0  0  0  0  0
   -0.1004   -2.0332    1.0713 H   0  0  0  0  0  0  0  0  0  0  0  0
    1.7538   -1.2116    2.5917 H   0  0  0  0  0  0  0  0  0  0  0  0
    1.9442    0.2138    1.5563 H   0  0  0  0  0  0  0  0  0  0  0  0
    4.1537   -0.4648    1.4040 H   0  0  0  0  0  0  0  0  0  0  0  0
    4.8235   -1.5529   -0.9085 H   0  0  0  0  0  0  0  0  0  0  0  0
    4.8918   -2.9838    0.1248 H   0  0  0  0  0  0  0  0  0  0  0  0
    7.1432   -1.8085   -0.0448 H   0  0  0  0  0  0  0  0  0  0  0  0
    6.5187   -2.0086    1.5917 H   0  0  0  0  0  0  0  0  0  0  0  0
    7.5222    1.3436    2.0849 H   0  0  0  0  0  0  0  0  0  0  0  0
    7.5240   -0.2743    2.7342 H   0  0  0  0  0  0  0  0  0  0  0  0
    9.3515   -0.9407    1.4375 H   0  0  0  0  0  0  0  0  0  0  0  0
    9.6849    0.7867    1.5997 H   0  0  0  0  0  0  0  0  0  0  0  0
   10.3547    0.3988   -1.9182 H   0  0  0  0  0  0  0  0  0  0  0  0
   11.0553   -0.3381   -0.4837 H   0  0  0  0  0  0  0  0  0  0  0  0
   10.7126    1.4054   -0.4997 H   0  0  0  0  0  0  0  0  0  0  0  0
    8.2839    2.1207   -0.4041 H   0  0  0  0  0  0  0  0  0  0  0  0
    8.0326    1.1793   -1.8764 H   0  0  0  0  0  0  0  0  0  0  0  0
    6.0582    0.2762   -1.1566 H   0  0  0  0  0  0  0  0  0  0  0  0
    6.0393    1.7194   -0.1821 H   0  0  0  0  0  0  0  0  0  0  0  0
   -4.5752   -3.0770   -1.9656 H   0  0  0  0  0  0  0  0  0  0  0  0
   -3.9211   -2.2602   -3.4165 H   0  0  0  0  0  0  0  0  0  0  0  0
   -2.8922   -3.3472   -2.4624 H   0  0  0  0  0  0  0  0  0  0  0  0
   -7.2830   -0.2155   -2.5341 H   0  0  0  0  0  0  0  0  0  0  0  0
   -5.9976   -1.2519   -3.0853 H   0  0  0  0  0  0  0  0  0  0  0  0
   -6.9594   -1.7583   -1.6903 H   0  0  0  0  0  0  0  0  0  0  0  0
   -6.2626    3.2735    0.6426 H   0  0  0  0  0  0  0  0  0  0  0  0
   -8.3918    4.2336    1.3629 H   0  0  0  0  0  0  0  0  0  0  0  0
  1  2  1  0
  2  3  2  0
  3  4  1  0
  4  5  2  0
  5  6  1  0
  6  7  1  0
  7  8  2  0
  8  9  1  0
  9 10  2  0
  9 11  1  0
 11 12  1  0
 12 13  1  0
 13 14  1  0
 14 15  1  0
 15 16  2  0
 15 17  1  0
 17 18  1  0
 18 19  1  0
 19 20  1  0
 20 21  1  0
 21 22  1  0
 22 23  1  0
 23 24  1  0
 23 25  1  0
 25 26  1  0
 11 27  1  0
 27 28  2  0
 28 29  1  0
 28 30  1  0
 30 31  2  0
 31 32  1  0
  5 33  1  0
 33 34  2  0
 34  2  1  0
 31  6  1  0
 30  8  1  0
 26 20  1  0
  1 35  1  0
  1 36  1  0
  1 37  1  0
  3 38  1  0
  4 39  1  0
 12 40  1  0
 12 41  1  0
 13 42  1  0
 13 43  1  0
 14 44  1  0
 14 45  1  0
 17 46  1  0
 18 47  1  0
 18 48  1  0
 19 49  1  0
 19 50  1  0
 21 51  1  0
 21 52  1  0
 22 53  1  0
 22 54  1  0
 24 55  1  0
 24 56  1  0
 24 57  1  0
 25 58  1  0
 25 59  1  0
 26 60  1  0
 26 61  1  0
 29 62  1  0
 29 63  1  0
 29 64  1  0
 32 65  1  0
 32 66  1  0
 32 67  1  0
 33 68  1  0
 34 69  1  0
M  END
$$$$
