
     RDKit          3D

 61 64  0  0  0  0  0  0  0  0999 V2000
   -9.3439    2.7848    0.1379 C   0  0  0  0  0  0  0  0  0  0  0  0
   -8.3336    1.7754    0.1392 O   0  0  0  0  0  0  0  0  0  0  0  0
   -7.6413    1.6890   -1.0245 C   0  0  0  0  0  0  0  0  0  0  0  0
   -7.8207    2.3813   -2.0146 O   0  0  0  0  0  0  0  0  0  0  0  0
   -6.6057    0.6229   -0.9438 C   0  0  0  0  0  0  0  0  0  0  0  0
   -5.7768    0.4202   -2.0540 C   0  0  0  0  0  0  0  0  0  0  0  0
   -4.7859   -0.5652   -2.0265 C   0  0  0  0  0  0  0  0  0  0  0  0
   -4.6026   -1.3631   -0.8881 C   0  0  0  0  0  0  0  0  0  0  0  0
   -3.5281   -2.4314   -0.8546 C   0  0  0  0  0  0  0  0  0  0  0  0
   -2.1811   -2.0027   -0.4616 N   0  0  0  0  0  0  0  0  0  0  0  0
   -2.0647   -1.5988    0.9428 C   0  0  0  0  0  0  0  0  0  0  0  0
   -0.7638   -0.8480    1.2420 C   0  0  0  0  0  0  0  0  0  0  0  0
    0.3629   -1.3098    0.3200 C   0  0  0  0  0  0  0  0  0  0  0  0
    1.5307   -0.5528    0.6609 O   0  0  0  0  0  0  0  0  0  0  0  0
    2.7645   -1.0991    0.4467 C   0  0  0  0  0  0  0  0  0  0  0  0
    3.0401   -2.2812   -0.2427 C   0  0  0  0  0  0  0  0  0  0  0  0
    4.3583   -2.7312   -0.3773 C   0  0  0  0  0  0  0  0  0  0  0  0
    5.4093   -1.9937    0.1643 C   0  0  0  0  0  0  0  0  0  0  0  0
    5.1404   -0.7944    0.8269 C   0  0  0  0  0  0  0  0  0  0  0  0
    6.2703   -0.0369    1.4104 C   0  0  0  0  0  0  0  0  0  0  0  0
    7.0702   -0.6406    2.1218 O   0  0  0  0  0  0  0  0  0  0  0  0
    6.3904    1.3081    1.1141 N   0  0  0  0  0  0  0  0  0  0  0  0
    7.4851    2.0851    1.6671 C   0  0  0  0  0  0  0  0  0  0  0  0
    7.2330    3.4998    1.1698 C   0  0  0  0  0  0  0  0  0  0  0  0
    6.5766    3.2639   -0.1846 C   0  0  0  0  0  0  0  0  0  0  0  0
    5.6911    2.0509    0.0733 C   0  0  0  0  0  0  0  0  0  0  0  0
    3.8211   -0.3588    0.9835 C   0  0  0  0  0  0  0  0  0  0  0  0
   -0.0269   -1.0605   -1.1452 C   0  0  0  0  0  0  0  0  0  0  0  0
   -1.5426   -1.0632   -1.3737 C   0  0  0  0  0  0  0  0  0  0  0  0
   -5.4438   -1.1626    0.2166 C   0  0  0  0  0  0  0  0  0  0  0  0
   -6.4357   -0.1770    0.1924 C   0  0  0  0  0  0  0  0  0  0  0  0
   -8.9005    3.7723   -0.0223 H   0  0  0  0  0  0  0  0  0  0  0  0
   -9.8290    2.7789    1.1178 H   0  0  0  0  0  0  0  0  0  0  0  0
  -10.0991    2.5699   -0.6243 H   0  0  0  0  0  0  0  0  0  0  0  0
   -5.8986    1.0298   -2.9476 H   0  0  0  0  0  0  0  0  0  0  0  0
   -4.1576   -0.7067   -2.9035 H   0  0  0  0  0  0  0  0  0  0  0  0
   -3.8518   -3.2426   -0.1882 H   0  0  0  0  0  0  0  0  0  0  0  0
   -3.4778   -2.9059   -1.8441 H   0  0  0  0  0  0  0  0  0  0  0  0
   -2.1063   -2.5014    1.5641 H   0  0  0  0  0  0  0  0  0  0  0  0
   -2.8896   -0.9529    1.2610 H   0  0  0  0  0  0  0  0  0  0  0  0
   -0.4796   -0.9855    2.2925 H   0  0  0  0  0  0  0  0  0  0  0  0
   -0.9161    0.2329    1.1161 H   0  0  0  0  0  0  0  0  0  0  0  0
    0.5161   -2.3797    0.5121 H   0  0  0  0  0  0  0  0  0  0  0  0
    2.2548   -2.8847   -0.6848 H   0  0  0  0  0  0  0  0  0  0  0  0
    4.5634   -3.6620   -0.9008 H   0  0  0  0  0  0  0  0  0  0  0  0
    6.4329   -2.3502    0.0738 H   0  0  0  0  0  0  0  0  0  0  0  0
    8.4244    1.6839    1.2701 H   0  0  0  0  0  0  0  0  0  0  0  0
    7.4997    2.0099    2.7584 H   0  0  0  0  0  0  0  0  0  0  0  0
    6.5320    4.0153    1.8370 H   0  0  0  0  0  0  0  0  0  0  0  0
    8.1482    4.0941    1.1054 H   0  0  0  0  0  0  0  0  0  0  0  0
    7.3433    3.0173   -0.9291 H   0  0  0  0  0  0  0  0  0  0  0  0
    6.0129    4.1286   -0.5453 H   0  0  0  0  0  0  0  0  0  0  0  0
    4.7207    2.3631    0.4720 H   0  0  0  0  0  0  0  0  0  0  0  0
    5.5417    1.4424   -0.8228 H   0  0  0  0  0  0  0  0  0  0  0  0
    3.6072    0.5467    1.5447 H   0  0  0  0  0  0  0  0  0  0  0  0
    0.4315   -1.8405   -1.7659 H   0  0  0  0  0  0  0  0  0  0  0  0
    0.3894   -0.1108   -1.5036 H   0  0  0  0  0  0  0  0  0  0  0  0
   -1.7215   -1.3412   -2.4194 H   0  0  0  0  0  0  0  0  0  0  0  0
   -1.9415   -0.0497   -1.2388 H   0  0  0  0  0  0  0  0  0  0  0  0
   -5.3291   -1.7747    1.1092 H   0  0  0  0  0  0  0  0  0  0  0  0
   -7.0670   -0.0465    1.0677 H   0  0  0  0  0  0  0  0  0  0  0  0
  1  2  1  0
  2  3  1  0
  3  4  2  0
  3  5  1  0
  5  6  2  0
  6  7  1  0
  7  8  2  0
  8  9  1  0
  9 10  1  0
 10 11  1  0
 11 12  1  0
 12 13  1  0
 13 14  1  0
 14 15  1  0
 15 16  2  0
 16 17  1  0
 17 18  2  0
 18 19  1  0
 19 20  1  0
 20 21  2  0
 20 22  1  0
 22 23  1  0
 23 24  1  0
 24 25  1  0
 25 26  1  0
 19 27  2  0
 13 28  1  0
 28 29  1  0
  8 30  1  0
 30 31  2  0
 31  5  1  0
 29 10  1  0
 27 15  1  0
 26 22  1  0
  1 32  1  0
  1 33  1  0
  1 34  1  0
  6 35  1  0
  7 36  1  0
  9 37  1  0
  9 38  1  0
 11 39  1  0
 11 40  1  0
 12 41  1  0
 12 42  1  0
 13 43  1  0
 16 44  1  0
 17 45  1  0
 18 46  1  0
 23 47  1  0
 23 48  1  0
 24 49  1  0
 24 50  1  0
 25 51  1  0
 25 52  1  0
 26 53  1  0
 26 54  1  0
 27 55  1  0
 28 56  1  0
 28 57  1  0
 29 58  1  0
 29 59  1  0
 30 60  1  0
 31 61  1  0
M  END
$$$$
