
     RDKit          3D

 33 36  0  0  0  0  0  0  0  0999 V2000
    0.3893   -1.5052   -1.0882 O   0  0  0  0  0  0  0  0  0  0  0  0
    0.9149   -0.4245   -0.8919 C   0  0  0  0  0  0  0  0  0  0  0  0
    0.4208    0.8343   -1.5617 C   0  0  0  0  0  0  0  0  0  0  0  0
   -0.8127    1.2483   -1.5115 N   0  0  0  0  0  0  0  0  0  0  0  0
   -1.7609    0.5315   -0.7638 C   0  0  0  0  0  0  0  0  0  0  0  0
   -2.6383   -0.3659   -1.4596 C   0  0  0  0  0  0  0  0  0  0  0  0
   -3.6435   -1.1411   -0.8425 C   0  0  0  0  0  0  0  0  0  0  0  0
   -3.6710   -0.9053    0.5242 C   0  0  0  0  0  0  0  0  0  0  0  0
   -4.5233   -1.4916    1.4160 C   0  0  0  0  0  0  0  0  0  0  0  0
   -4.1838   -0.9498    2.6223 N   0  0  0  0  0  0  0  0  0  0  0  0
   -3.1707   -0.0620    2.5715 N   0  0  0  0  0  0  0  0  0  0  0  0
   -2.8303   -0.0057    1.2721 C   0  0  0  0  0  0  0  0  0  0  0  0
   -1.8435    0.7571    0.6299 C   0  0  0  0  0  0  0  0  0  0  0  0
    1.5200    1.5730   -2.2752 C   0  0  0  0  0  0  0  0  0  0  0  0
    0.9956    3.2114   -2.7476 Cl  0  0  0  0  0  0  0  0  0  0  0  0
    2.7966    1.6933   -1.4584 C   0  0  0  0  0  0  0  0  0  0  0  0
    3.7147    2.4579   -1.7496 O   0  0  0  0  0  0  0  0  0  0  0  0
    2.9831    0.7869   -0.2923 C   0  0  0  0  0  0  0  0  0  0  0  0
    4.1036    0.9451    0.5332 C   0  0  0  0  0  0  0  0  0  0  0  0
    4.3228    0.0639    1.5952 C   0  0  0  0  0  0  0  0  0  0  0  0
    3.4336   -0.9849    1.8328 C   0  0  0  0  0  0  0  0  0  0  0  0
    2.3176   -1.1524    1.0139 C   0  0  0  0  0  0  0  0  0  0  0  0
    2.0932   -0.2575   -0.0369 C   0  0  0  0  0  0  0  0  0  0  0  0
   -2.5122   -0.4584   -2.5388 H   0  0  0  0  0  0  0  0  0  0  0  0
   -4.2885   -1.8180   -1.3836 H   0  0  0  0  0  0  0  0  0  0  0  0
   -5.3173   -2.2172    1.3190 H   0  0  0  0  0  0  0  0  0  0  0  0
   -4.6018   -1.1399    3.5268 H   0  0  0  0  0  0  0  0  0  0  0  0
   -1.2134    1.4560    1.1586 H   0  0  0  0  0  0  0  0  0  0  0  0
    1.7572    1.0248   -3.1933 H   0  0  0  0  0  0  0  0  0  0  0  0
    4.8169    1.7483    0.3510 H   0  0  0  0  0  0  0  0  0  0  0  0
    5.1950    0.1916    2.2338 H   0  0  0  0  0  0  0  0  0  0  0  0
    3.6116   -1.6726    2.6573 H   0  0  0  0  0  0  0  0  0  0  0  0
    1.6246   -1.9714    1.2016 H   0  0  0  0  0  0  0  0  0  0  0  0
  1  2  2  0
  2  3  1  0
  3  4  2  3
  4  5  1  0
  5  6  1  0
  6  7  2  0
  7  8  1  0
  8  9  2  0
  9 10  1  0
 10 11  1  0
 11 12  2  0
 12 13  1  0
  3 14  1  0
 14 15  1  0
 14 16  1  0
 16 17  2  0
 16 18  1  0
 18 19  2  0
 19 20  1  0
 20 21  2  0
 21 22  1  0
 22 23  2  0
 23  2  1  0
 13  5  2  0
 23 18  1  0
 12  8  1  0
  6 24  1  0
  7 25  1  0
  9 26  1  0
 10 27  1  0
 13 28  1  0
 14 29  1  0
 19 30  1  0
 20 31  1  0
 21 32  1  0
 22 33  1  0
M  END
$$$$
