
     RDKit          3D

 39 41  0  0  0  0  0  0  0  0999 V2000
   -3.8804    2.2512    0.9395 F   0  0  0  0  0  0  0  0  0  0  0  0
   -4.2296    1.1564    0.2479 C   0  0  0  0  0  0  0  0  0  0  0  0
   -5.3843    1.2011   -0.5293 C   0  0  0  0  0  0  0  0  0  0  0  0
   -5.7839    0.0713   -1.2402 C   0  0  0  0  0  0  0  0  0  0  0  0
   -5.0270   -1.0979   -1.1662 C   0  0  0  0  0  0  0  0  0  0  0  0
   -3.8690   -1.1375   -0.3843 C   0  0  0  0  0  0  0  0  0  0  0  0
   -3.4532   -0.0040    0.3312 C   0  0  0  0  0  0  0  0  0  0  0  0
   -2.2029   -0.0284    1.1770 C   0  0  0  0  0  0  0  0  0  0  0  0
   -1.0801    0.7044    0.5770 N   0  0  0  0  0  0  0  0  0  0  0  0
   -0.4619    0.0114   -0.5714 C   0  0  0  0  0  0  0  0  0  0  0  0
    0.8299   -0.7842   -0.2646 C   0  0  0  0  0  0  0  0  0  0  0  0
    1.8474    0.0654    0.3786 N   0  0  0  0  0  0  0  0  0  0  0  0
    3.1996   -0.1772    0.2087 C   0  0  0  0  0  0  0  0  0  0  0  0
    4.1642    0.8321    0.3700 C   0  0  0  0  0  0  0  0  0  0  0  0
    5.5337    0.5861    0.2027 C   0  0  0  0  0  0  0  0  0  0  0  0
    5.9700   -0.6894   -0.1284 C   0  0  0  0  0  0  0  0  0  0  0  0
    7.6487   -0.9992   -0.3339 Cl  0  0  0  0  0  0  0  0  0  0  0  0
    5.0489   -1.7148   -0.2918 C   0  0  0  0  0  0  0  0  0  0  0  0
    3.6823   -1.4554   -0.1233 C   0  0  0  0  0  0  0  0  0  0  0  0
    1.3499    1.2743    1.0563 C   0  0  0  0  0  0  0  0  0  0  0  0
   -0.0727    1.0318    1.6093 C   0  0  0  0  0  0  0  0  0  0  0  0
   -5.9639    2.1176   -0.5721 H   0  0  0  0  0  0  0  0  0  0  0  0
   -6.6838    0.1013   -1.8489 H   0  0  0  0  0  0  0  0  0  0  0  0
   -5.3386   -1.9809   -1.7192 H   0  0  0  0  0  0  0  0  0  0  0  0
   -3.2911   -2.0576   -0.3394 H   0  0  0  0  0  0  0  0  0  0  0  0
   -1.9152   -1.0638    1.4042 H   0  0  0  0  0  0  0  0  0  0  0  0
   -2.4711    0.4215    2.1433 H   0  0  0  0  0  0  0  0  0  0  0  0
   -1.1704   -0.6449   -1.0872 H   0  0  0  0  0  0  0  0  0  0  0  0
   -0.2069    0.7891   -1.3040 H   0  0  0  0  0  0  0  0  0  0  0  0
    1.1988   -1.1816   -1.2180 H   0  0  0  0  0  0  0  0  0  0  0  0
    0.5976   -1.6317    0.3913 H   0  0  0  0  0  0  0  0  0  0  0  0
    3.8658    1.8490    0.6093 H   0  0  0  0  0  0  0  0  0  0  0  0
    6.2443    1.3977    0.3299 H   0  0  0  0  0  0  0  0  0  0  0  0
    5.3782   -2.7188   -0.5436 H   0  0  0  0  0  0  0  0  0  0  0  0
    2.9964   -2.2907   -0.2349 H   0  0  0  0  0  0  0  0  0  0  0  0
    1.3480    2.1209    0.3590 H   0  0  0  0  0  0  0  0  0  0  0  0
    1.9912    1.5322    1.9077 H   0  0  0  0  0  0  0  0  0  0  0  0
   -0.0047    0.2165    2.3435 H   0  0  0  0  0  0  0  0  0  0  0  0
   -0.4038    1.9266    2.1492 H   0  0  0  0  0  0  0  0  0  0  0  0
  1  2  1  0
  2  3  2  0
  3  4  1  0
  4  5  2  0
  5  6  1  0
  6  7  2  0
  7  8  1  0
  8  9  1  0
  9 10  1  0
 10 11  1  0
 11 12  1  0
 12 13  1  0
 13 14  2  0
 14 15  1  0
 15 16  2  0
 16 17  1  0
 16 18  1  0
 18 19  2  0
 12 20  1  0
 20 21  1  0
  7  2  1  0
 21  9  1  0
 19 13  1  0
  3 22  1  0
  4 23  1  0
  5 24  1  0
  6 25  1  0
  8 26  1  0
  8 27  1  0
 10 28  1  0
 10 29  1  0
 11 30  1  0
 11 31  1  0
 14 32  1  0
 15 33  1  0
 18 34  1  0
 19 35  1  0
 20 36  1  0
 20 37  1  0
 21 38  1  0
 21 39  1  0
M  END
$$$$
