
     RDKit          3D

 50 53  0  0  0  0  0  0  0  0999 V2000
   -3.9955    1.6699    0.3942 O   0  0  0  0  0  0  0  0  0  0  0  0
   -3.0444    0.9006    0.2356 C   0  0  0  0  0  0  0  0  0  0  0  0
   -3.2641   -0.6157    0.1891 C   0  0  0  0  0  0  0  0  0  0  0  0
   -4.6529   -0.9801    0.7356 C   0  0  0  0  0  0  0  0  0  0  0  0
   -4.8831   -2.4917    0.7543 C   0  0  0  0  0  0  0  0  0  0  0  0
   -4.2548   -3.2172   -0.4355 C   0  0  0  0  0  0  0  0  0  0  0  0
   -4.0308   -2.2846   -1.6172 C   0  0  0  0  0  0  0  0  0  0  0  0
   -3.0846   -1.1389   -1.2507 C   0  0  0  0  0  0  0  0  0  0  0  0
   -1.7563    1.3907    0.0427 N   0  0  0  0  0  0  0  0  0  0  0  0
   -1.5938    2.8448    0.0627 C   0  0  0  0  0  0  0  0  0  0  0  0
   -0.1590    3.2969   -0.2058 C   0  0  0  0  0  0  0  0  0  0  0  0
    0.4576    2.4963   -1.3501 C   0  0  0  0  0  0  0  0  0  0  0  0
    0.4090    0.9766   -1.0901 C   0  0  0  0  0  0  0  0  0  0  0  0
    1.7687    0.4306   -0.8325 C   0  0  0  0  0  0  0  0  0  0  0  0
    2.6223    0.7208    0.1215 N   0  0  0  0  0  0  0  0  0  0  0  0
    3.6883   -0.1072   -0.1671 C   0  0  0  0  0  0  0  0  0  0  0  0
    4.9025   -0.1249    0.6432 C   0  0  0  0  0  0  0  0  0  0  0  0
    5.0204    0.7235    1.7573 C   0  0  0  0  0  0  0  0  0  0  0  0
    6.1789    0.7145    2.5390 C   0  0  0  0  0  0  0  0  0  0  0  0
    7.2216   -0.1422    2.2088 C   0  0  0  0  0  0  0  0  0  0  0  0
    8.3315   -0.1505    2.9580 F   0  0  0  0  0  0  0  0  0  0  0  0
    7.1289   -0.9903    1.1123 C   0  0  0  0  0  0  0  0  0  0  0  0
    5.9709   -0.9823    0.3295 C   0  0  0  0  0  0  0  0  0  0  0  0
    3.4928   -0.8818   -1.2477 N   0  0  0  0  0  0  0  0  0  0  0  0
    2.2224   -0.5252   -1.6902 O   0  0  0  0  0  0  0  0  0  0  0  0
   -0.5206    0.6068    0.0774 C   0  0  0  0  0  0  0  0  0  0  0  0
   -2.5350   -1.0904    0.8563 H   0  0  0  0  0  0  0  0  0  0  0  0
   -5.4300   -0.5074    0.1198 H   0  0  0  0  0  0  0  0  0  0  0  0
   -4.7863   -0.5804    1.7486 H   0  0  0  0  0  0  0  0  0  0  0  0
   -4.4802   -2.9180    1.6811 H   0  0  0  0  0  0  0  0  0  0  0  0
   -5.9630   -2.6817    0.7759 H   0  0  0  0  0  0  0  0  0  0  0  0
   -3.2920   -3.6460   -0.1301 H   0  0  0  0  0  0  0  0  0  0  0  0
   -4.8900   -4.0599   -0.7309 H   0  0  0  0  0  0  0  0  0  0  0  0
   -4.9933   -1.8763   -1.9493 H   0  0  0  0  0  0  0  0  0  0  0  0
   -3.6183   -2.8424   -2.4657 H   0  0  0  0  0  0  0  0  0  0  0  0
   -3.2093   -0.3328   -1.9846 H   0  0  0  0  0  0  0  0  0  0  0  0
   -2.0542   -1.4936   -1.3731 H   0  0  0  0  0  0  0  0  0  0  0  0
   -2.2660    3.2645   -0.6958 H   0  0  0  0  0  0  0  0  0  0  0  0
   -1.9271    3.2196    1.0378 H   0  0  0  0  0  0  0  0  0  0  0  0
   -0.1462    4.3675   -0.4388 H   0  0  0  0  0  0  0  0  0  0  0  0
    0.4485    3.1641    0.6981 H   0  0  0  0  0  0  0  0  0  0  0  0
    1.4790    2.8470   -1.5415 H   0  0  0  0  0  0  0  0  0  0  0  0
   -0.1131    2.7119   -2.2635 H   0  0  0  0  0  0  0  0  0  0  0  0
    0.0142    0.5068   -2.0017 H   0  0  0  0  0  0  0  0  0  0  0  0
    4.2089    1.3985    2.0236 H   0  0  0  0  0  0  0  0  0  0  0  0
    6.2722    1.3690    3.4000 H   0  0  0  0  0  0  0  0  0  0  0  0
    7.9558   -1.6513    0.8720 H   0  0  0  0  0  0  0  0  0  0  0  0
    5.9114   -1.6512   -0.5273 H   0  0  0  0  0  0  0  0  0  0  0  0
   -0.0506    0.8101    1.0492 H   0  0  0  0  0  0  0  0  0  0  0  0
   -0.7113   -0.4671    0.0655 H   0  0  0  0  0  0  0  0  0  0  0  0
  1  2  2  0
  2  3  1  0
  3  4  1  0
  4  5  1  0
  5  6  1  0
  6  7  1  0
  7  8  1  0
  2  9  1  0
  9 10  1  0
 10 11  1  0
 11 12  1  0
 12 13  1  0
 13 14  1  0
 14 15  2  0
 15 16  1  0
 16 17  1  0
 17 18  2  0
 18 19  1  0
 19 20  2  0
 20 21  1  0
 20 22  1  0
 22 23  2  0
 16 24  2  0
 24 25  1  0
 13 26  1  0
  8  3  1  0
 26  9  1  0
 25 14  1  0
 23 17  1  0
  3 27  1  0
  4 28  1  0
  4 29  1  0
  5 30  1  0
  5 31  1  0
  6 32  1  0
  6 33  1  0
  7 34  1  0
  7 35  1  0
  8 36  1  0
  8 37  1  0
 10 38  1  0
 10 39  1  0
 11 40  1  0
 11 41  1  0
 12 42  1  0
 12 43  1  0
 13 44  1  0
 18 45  1  0
 19 46  1  0
 22 47  1  0
 23 48  1  0
 26 49  1  0
 26 50  1  0
M  END
$$$$
