
     RDKit          3D

 38 40  0  0  0  0  0  0  0  0999 V2000
   -4.4070    1.6071   -0.0344 C   0  0  0  0  0  0  0  0  0  0  0  0
   -4.3749    0.1917   -0.1755 O   0  0  0  0  0  0  0  0  0  0  0  0
   -3.1512   -0.4127   -0.0441 C   0  0  0  0  0  0  0  0  0  0  0  0
   -1.9363    0.2274    0.2026 C   0  0  0  0  0  0  0  0  0  0  0  0
   -0.7391   -0.5123    0.3213 C   0  0  0  0  0  0  0  0  0  0  0  0
   -0.7807   -1.9167    0.1782 C   0  0  0  0  0  0  0  0  0  0  0  0
   -1.9997   -2.5546   -0.0823 C   0  0  0  0  0  0  0  0  0  0  0  0
   -3.1624   -1.8028   -0.1830 C   0  0  0  0  0  0  0  0  0  0  0  0
   -4.3369   -2.4608   -0.4317 O   0  0  0  0  0  0  0  0  0  0  0  0
    0.4846   -2.7381    0.2393 C   0  0  0  0  0  0  0  0  0  0  0  0
    1.5756   -1.9994    1.0035 C   0  0  0  0  0  0  0  0  0  0  0  0
    1.7486   -0.6549    0.4628 N   0  0  0  0  0  0  0  0  0  0  0  0
    2.8491   -0.4073   -0.3688 C   0  0  0  0  0  0  0  0  0  0  0  0
    3.5768   -1.3386   -0.7229 O   0  0  0  0  0  0  0  0  0  0  0  0
    3.1380    0.9510   -0.8060 C   0  0  0  0  0  0  0  0  0  0  0  0
    3.9206    1.3917   -1.8603 C   0  0  0  0  0  0  0  0  0  0  0  0
    3.9188    2.8057   -1.8175 C   0  0  0  0  0  0  0  0  0  0  0  0
    3.1567    3.1502   -0.7281 C   0  0  0  0  0  0  0  0  0  0  0  0
    2.6884    2.0396   -0.1043 O   0  0  0  0  0  0  0  0  0  0  0  0
    0.5770    0.2285    0.5839 C   0  0  0  0  0  0  0  0  0  0  0  0
    0.5659    0.9019    1.9616 C   0  0  0  0  0  0  0  0  0  0  0  0
   -4.0796    1.9117    0.9650 H   0  0  0  0  0  0  0  0  0  0  0  0
   -3.8112    2.0946   -0.8129 H   0  0  0  0  0  0  0  0  0  0  0  0
   -5.4448    1.9314   -0.1579 H   0  0  0  0  0  0  0  0  0  0  0  0
   -1.8872    1.3073    0.3002 H   0  0  0  0  0  0  0  0  0  0  0  0
   -2.0491   -3.6326   -0.2113 H   0  0  0  0  0  0  0  0  0  0  0  0
   -5.0142   -1.7579   -0.4704 H   0  0  0  0  0  0  0  0  0  0  0  0
    0.2912   -3.6991    0.7294 H   0  0  0  0  0  0  0  0  0  0  0  0
    0.8139   -2.9382   -0.7877 H   0  0  0  0  0  0  0  0  0  0  0  0
    1.3097   -1.9036    2.0631 H   0  0  0  0  0  0  0  0  0  0  0  0
    2.5109   -2.5676    0.9644 H   0  0  0  0  0  0  0  0  0  0  0  0
    4.4311    0.7504   -2.5668 H   0  0  0  0  0  0  0  0  0  0  0  0
    4.4225    3.4875   -2.4882 H   0  0  0  0  0  0  0  0  0  0  0  0
    2.8731    4.0929   -0.2809 H   0  0  0  0  0  0  0  0  0  0  0  0
    0.6305    0.9964   -0.1931 H   0  0  0  0  0  0  0  0  0  0  0  0
    1.5249    1.3854    2.1742 H   0  0  0  0  0  0  0  0  0  0  0  0
   -0.2139    1.6679    2.0270 H   0  0  0  0  0  0  0  0  0  0  0  0
    0.3806    0.1770    2.7623 H   0  0  0  0  0  0  0  0  0  0  0  0
  1  2  1  0
  2  3  1  0
  3  4  2  0
  4  5  1  0
  5  6  2  0
  6  7  1  0
  7  8  2  0
  8  9  1  0
  6 10  1  0
 10 11  1  0
 11 12  1  0
 12 13  1  0
 13 14  2  0
 13 15  1  0
 15 16  2  0
 16 17  1  0
 17 18  2  0
 18 19  1  0
 12 20  1  0
 20 21  1  0
  8  3  1  0
 19 15  1  0
 20  5  1  0
  1 22  1  0
  1 23  1  0
  1 24  1  0
  4 25  1  0
  7 26  1  0
  9 27  1  0
 10 28  1  0
 10 29  1  0
 11 30  1  0
 11 31  1  0
 16 32  1  0
 17 33  1  0
 18 34  1  0
 20 35  1  0
 21 36  1  0
 21 37  1  0
 21 38  1  0
M  END
$$$$
