
     RDKit          3D

 52 55  0  0  0  0  0  0  0  0999 V2000
    3.3680    2.2736    0.8436 O   0  0  0  0  0  0  0  0  0  0  0  0
    3.2446    1.0646    1.0284 C   0  0  0  0  0  0  0  0  0  0  0  0
    2.2197    0.5219    1.7872 N   0  0  0  0  0  0  0  0  0  0  0  0
    1.1508    1.4133    2.0883 N   0  0  0  0  0  0  0  0  0  0  0  0
   -0.0404    1.0152    1.4155 C   0  0  0  0  0  0  0  0  0  0  0  0
   -1.1366    1.8480    1.4733 C   0  0  0  0  0  0  0  0  0  0  0  0
   -2.2882    1.4286    0.8478 C   0  0  0  0  0  0  0  0  0  0  0  0
   -3.4295    2.1870    0.8393 N   0  0  0  0  0  0  0  0  0  0  0  0
   -4.6660    1.6711    0.2650 C   0  0  0  0  0  0  0  0  0  0  0  0
   -5.7370    2.6155    0.8094 C   0  0  0  0  0  0  0  0  0  0  0  0
   -4.9873    3.9258    0.9919 C   0  0  0  0  0  0  0  0  0  0  0  0
   -3.6165    3.4727    1.4892 C   0  0  0  0  0  0  0  0  0  0  0  0
   -2.3148    0.2448    0.2117 N   0  0  0  0  0  0  0  0  0  0  0  0
   -1.2193   -0.5282    0.1987 C   0  0  0  0  0  0  0  0  0  0  0  0
   -1.2782   -1.7407   -0.4420 N   0  0  0  0  0  0  0  0  0  0  0  0
   -0.0622   -2.4193   -0.8565 C   0  0  0  0  0  0  0  0  0  0  0  0
   -0.4736   -3.1784   -2.1205 C   0  0  0  0  0  0  0  0  0  0  0  0
   -1.9777   -3.3516   -1.9657 C   0  0  0  0  0  0  0  0  0  0  0  0
   -2.3987   -2.0365   -1.3162 C   0  0  0  0  0  0  0  0  0  0  0  0
   -0.0758   -0.1801    0.7985 N   0  0  0  0  0  0  0  0  0  0  0  0
    4.1808    0.0957    0.3916 C   0  0  0  0  0  0  0  0  0  0  0  0
    4.3442   -1.2117    0.8736 C   0  0  0  0  0  0  0  0  0  0  0  0
    5.2348   -2.0882    0.2429 C   0  0  0  0  0  0  0  0  0  0  0  0
    5.9684   -1.6518   -0.8695 C   0  0  0  0  0  0  0  0  0  0  0  0
    6.9010   -2.5721   -1.5335 N   0  0  0  0  0  4  0  0  0  0  0  0
    7.5466   -2.1414   -2.4991 O   0  0  0  0  0  0  0  0  0  0  0  0
    6.9826   -3.7264   -1.0903 O   0  0  0  0  0  1  0  0  0  0  0  0
    5.8212   -0.3444   -1.3500 C   0  0  0  0  0  0  0  0  0  0  0  0
    4.9299    0.5256   -0.7143 C   0  0  0  0  0  0  0  0  0  0  0  0
    1.8801   -0.4145    1.5600 H   0  0  0  0  0  0  0  0  0  0  0  0
    1.4032    2.3661    1.7986 H   0  0  0  0  0  0  0  0  0  0  0  0
   -1.0820    2.7869    2.0041 H   0  0  0  0  0  0  0  0  0  0  0  0
   -4.8840    0.6404    0.5661 H   0  0  0  0  0  0  0  0  0  0  0  0
   -4.6229    1.7256   -0.8288 H   0  0  0  0  0  0  0  0  0  0  0  0
   -6.0963    2.2543    1.7807 H   0  0  0  0  0  0  0  0  0  0  0  0
   -6.5961    2.7052    0.1388 H   0  0  0  0  0  0  0  0  0  0  0  0
   -5.4823    4.6067    1.6898 H   0  0  0  0  0  0  0  0  0  0  0  0
   -4.8876    4.4355    0.0258 H   0  0  0  0  0  0  0  0  0  0  0  0
   -2.8489    4.2025    1.2116 H   0  0  0  0  0  0  0  0  0  0  0  0
   -3.6234    3.3502    2.5783 H   0  0  0  0  0  0  0  0  0  0  0  0
    0.2566   -3.1157   -0.0732 H   0  0  0  0  0  0  0  0  0  0  0  0
    0.7680   -1.7409   -1.0852 H   0  0  0  0  0  0  0  0  0  0  0  0
    0.0560   -4.1292   -2.2281 H   0  0  0  0  0  0  0  0  0  0  0  0
   -0.2599   -2.5680   -3.0065 H   0  0  0  0  0  0  0  0  0  0  0  0
   -2.1902   -4.1918   -1.2937 H   0  0  0  0  0  0  0  0  0  0  0  0
   -2.4855   -3.5322   -2.9170 H   0  0  0  0  0  0  0  0  0  0  0  0
   -2.5176   -1.2612   -2.0835 H   0  0  0  0  0  0  0  0  0  0  0  0
   -3.3393   -2.1504   -0.7672 H   0  0  0  0  0  0  0  0  0  0  0  0
    3.8056   -1.5601    1.7520 H   0  0  0  0  0  0  0  0  0  0  0  0
    5.3500   -3.0979    0.6339 H   0  0  0  0  0  0  0  0  0  0  0  0
    6.3877    0.0125   -2.2082 H   0  0  0  0  0  0  0  0  0  0  0  0
    4.8179    1.5436   -1.0866 H   0  0  0  0  0  0  0  0  0  0  0  0
  1  2  2  0
  2  3  1  0
  3  4  1  0
  4  5  1  0
  5  6  2  0
  6  7  1  0
  7  8  1  0
  8  9  1  0
  9 10  1  0
 10 11  1  0
 11 12  1  0
  7 13  2  0
 13 14  1  0
 14 15  1  0
 15 16  1  0
 16 17  1  0
 17 18  1  0
 18 19  1  0
 14 20  2  0
  2 21  1  0
 21 22  2  0
 22 23  1  0
 23 24  2  0
 24 25  1  0
 25 26  2  0
 25 27  1  0
 24 28  1  0
 28 29  2  0
 20  5  1  0
 29 21  1  0
 12  8  1  0
 19 15  1  0
  3 30  1  0
  4 31  1  0
  6 32  1  0
  9 33  1  0
  9 34  1  0
 10 35  1  0
 10 36  1  0
 11 37  1  0
 11 38  1  0
 12 39  1  0
 12 40  1  0
 16 41  1  0
 16 42  1  0
 17 43  1  0
 17 44  1  0
 18 45  1  0
 18 46  1  0
 19 47  1  0
 19 48  1  0
 22 49  1  0
 23 50  1  0
 28 51  1  0
 29 52  1  0
M  CHG  2  25   1  27  -1
M  END
$$$$
