
     RDKit          3D

 50 52  0  0  0  0  0  0  0  0999 V2000
   -3.0134    0.8593    2.4432 C   0  0  0  0  0  0  0  0  0  0  0  0
   -2.6965   -0.5910    2.0942 C   0  0  0  0  0  0  0  0  0  0  0  0
   -2.5710   -0.8815    0.5811 C   0  0  0  0  0  0  0  0  0  0  0  0
   -3.8032   -0.4891   -0.2300 C   0  0  0  0  0  0  0  0  0  0  0  0
   -3.7681    0.4786   -1.2475 C   0  0  0  0  0  0  0  0  0  0  0  0
   -4.9208    0.8118   -1.9658 C   0  0  0  0  0  0  0  0  0  0  0  0
   -6.1310    0.1867   -1.6815 C   0  0  0  0  0  0  0  0  0  0  0  0
   -6.1925   -0.7720   -0.6762 C   0  0  0  0  0  0  0  0  0  0  0  0
   -5.0421   -1.1056    0.0422 C   0  0  0  0  0  0  0  0  0  0  0  0
   -2.3084   -2.3014    0.3865 N   0  0  0  0  0  0  0  0  0  0  0  0
   -1.0391   -2.5631   -0.0587 C   0  0  0  0  0  0  0  0  0  0  0  0
   -0.5955   -3.6850   -0.2375 O   0  0  0  0  0  0  0  0  0  0  0  0
   -0.4050   -1.3853   -0.2693 N   0  0  0  0  0  0  0  0  0  0  0  0
    0.9818   -1.2578   -0.6489 C   0  0  0  0  0  0  0  0  0  0  0  0
    1.8508   -1.1762    0.6154 C   0  0  0  0  0  0  0  0  0  0  0  0
    1.3537   -1.2918    1.7396 O   0  0  0  0  0  0  0  0  0  0  0  0
    3.2189   -0.9777    0.4369 N   0  0  0  0  0  0  0  0  0  0  0  0
    4.0642   -0.8736    1.6189 C   0  0  0  0  0  0  0  0  0  0  0  0
    3.8523   -0.6721   -0.8470 C   0  0  0  0  0  0  0  0  0  0  0  0
    4.2017    0.7883   -1.0284 C   0  0  0  0  0  0  0  0  0  0  0  0
    3.2995    1.8131   -0.7031 C   0  0  0  0  0  0  0  0  0  0  0  0
    3.6368    3.1520   -0.9126 C   0  0  0  0  0  0  0  0  0  0  0  0
    4.8742    3.4847   -1.4577 C   0  0  0  0  0  0  0  0  0  0  0  0
    5.7758    2.4789   -1.7965 C   0  0  0  0  0  0  0  0  0  0  0  0
    5.4407    1.1395   -1.5876 C   0  0  0  0  0  0  0  0  0  0  0  0
   -1.2113   -0.3340    0.0656 C   0  0  0  0  0  0  0  0  0  0  0  0
   -0.8842    0.8454   -0.0157 O   0  0  0  0  0  0  0  0  0  0  0  0
   -3.0694    0.9743    3.5309 H   0  0  0  0  0  0  0  0  0  0  0  0
   -2.2403    1.5413    2.0794 H   0  0  0  0  0  0  0  0  0  0  0  0
   -3.9761    1.1737    2.0298 H   0  0  0  0  0  0  0  0  0  0  0  0
   -1.7627   -0.8668    2.6030 H   0  0  0  0  0  0  0  0  0  0  0  0
   -3.4743   -1.2279    2.5355 H   0  0  0  0  0  0  0  0  0  0  0  0
   -2.8502    1.0040   -1.5020 H   0  0  0  0  0  0  0  0  0  0  0  0
   -4.8705    1.5658   -2.7477 H   0  0  0  0  0  0  0  0  0  0  0  0
   -7.0247    0.4492   -2.2412 H   0  0  0  0  0  0  0  0  0  0  0  0
   -7.1365   -1.2608   -0.4489 H   0  0  0  0  0  0  0  0  0  0  0  0
   -5.1241   -1.8572    0.8248 H   0  0  0  0  0  0  0  0  0  0  0  0
   -2.9438   -3.0541    0.6079 H   0  0  0  0  0  0  0  0  0  0  0  0
    1.2807   -2.1360   -1.2293 H   0  0  0  0  0  0  0  0  0  0  0  0
    1.0970   -0.3440   -1.2375 H   0  0  0  0  0  0  0  0  0  0  0  0
    4.2686    0.1816    1.8209 H   0  0  0  0  0  0  0  0  0  0  0  0
    3.5865   -1.3117    2.4993 H   0  0  0  0  0  0  0  0  0  0  0  0
    5.0046   -1.4024    1.4375 H   0  0  0  0  0  0  0  0  0  0  0  0
    4.7575   -1.2893   -0.9039 H   0  0  0  0  0  0  0  0  0  0  0  0
    3.2199   -0.9792   -1.6842 H   0  0  0  0  0  0  0  0  0  0  0  0
    2.3257    1.5873   -0.2736 H   0  0  0  0  0  0  0  0  0  0  0  0
    2.9299    3.9350   -0.6486 H   0  0  0  0  0  0  0  0  0  0  0  0
    5.1343    4.5274   -1.6195 H   0  0  0  0  0  0  0  0  0  0  0  0
    6.7405    2.7376   -2.2255 H   0  0  0  0  0  0  0  0  0  0  0  0
    6.1591    0.3709   -1.8652 H   0  0  0  0  0  0  0  0  0  0  0  0
  1  2  1  0
  2  3  1  0
  3  4  1  0
  4  5  2  0
  5  6  1  0
  6  7  2  0
  7  8  1  0
  8  9  2  0
  3 10  1  0
 10 11  1  0
 11 12  2  0
 11 13  1  0
 13 14  1  0
 14 15  1  0
 15 16  2  0
 15 17  1  0
 17 18  1  0
 17 19  1  0
 19 20  1  0
 20 21  2  0
 21 22  1  0
 22 23  2  0
 23 24  1  0
 24 25  2  0
 13 26  1  0
 26 27  2  0
 26  3  1  0
  9  4  1  0
 25 20  1  0
  1 28  1  0
  1 29  1  0
  1 30  1  0
  2 31  1  0
  2 32  1  0
  5 33  1  0
  6 34  1  0
  7 35  1  0
  8 36  1  0
  9 37  1  0
 10 38  1  0
 14 39  1  0
 14 40  1  0
 18 41  1  0
 18 42  1  0
 18 43  1  0
 19 44  1  0
 19 45  1  0
 21 46  1  0
 22 47  1  0
 23 48  1  0
 24 49  1  0
 25 50  1  0
M  END
$$$$
