
     RDKit          3D

 47 48  0  0  0  0  0  0  0  0999 V2000
    3.9186    3.4498    1.7547 C   0  0  0  0  0  0  0  0  0  0  0  0
    3.3264    3.3763    0.3597 C   0  0  0  0  0  0  0  0  0  0  0  0
    3.0205    2.0166    0.0269 O   0  0  0  0  0  0  0  0  0  0  0  0
    4.0257    1.3048   -0.5582 C   0  0  0  0  0  0  0  0  0  0  0  0
    5.1661    1.7244   -0.7202 O   0  0  0  0  0  0  0  0  0  0  0  0
    3.6142   -0.0586   -0.8983 C   0  0  0  0  0  0  0  0  0  0  0  0
    4.4694   -1.1531   -0.9420 C   0  0  0  0  0  0  0  0  0  0  0  0
    5.9362   -1.2441   -0.7069 C   0  0  0  0  0  0  0  0  0  0  0  0
    3.7249   -2.2621   -1.2428 N   0  0  0  0  0  0  0  0  0  0  0  0
    2.4069   -1.9191   -1.4220 C   0  0  0  0  0  0  0  0  0  0  0  0
    1.4106   -2.9563   -1.8052 C   0  0  0  0  0  0  0  0  0  0  0  0
    2.2986   -0.5444   -1.2318 C   0  0  0  0  0  0  0  0  0  0  0  0
    1.0868    0.2714   -1.3904 C   0  0  0  0  0  0  0  0  0  0  0  0
    1.1413    1.3744   -1.9359 O   0  0  0  0  0  0  0  0  0  0  0  0
   -0.2285   -0.2948   -0.8642 C   0  0  0  0  0  0  0  0  0  0  0  0
   -1.2051    0.7377   -0.7107 O   0  0  0  0  0  0  0  0  0  0  0  0
   -2.4080    0.2842   -0.2813 C   0  0  0  0  0  0  0  0  0  0  0  0
   -2.6803   -0.8757   -0.0302 O   0  0  0  0  0  0  0  0  0  0  0  0
   -3.3116    1.4531   -0.1821 C   0  0  0  0  0  0  0  0  0  0  0  0
   -4.5576    1.4572    0.3170 C   0  0  0  0  0  0  0  0  0  0  0  0
   -5.2786    0.3234    0.8985 C   0  0  0  0  0  0  0  0  0  0  0  0
   -6.4056   -0.1859    0.2426 C   0  0  0  0  0  0  0  0  0  0  0  0
   -7.1192   -1.2534    0.7944 C   0  0  0  0  0  0  0  0  0  0  0  0
   -6.7089   -1.8081    2.0053 C   0  0  0  0  0  0  0  0  0  0  0  0
   -7.5877   -3.1226    2.6843 Cl  0  0  0  0  0  0  0  0  0  0  0  0
   -5.5938   -1.3033    2.6710 C   0  0  0  0  0  0  0  0  0  0  0  0
   -4.8809   -0.2354    2.1193 C   0  0  0  0  0  0  0  0  0  0  0  0
    4.8620    2.8973    1.8110 H   0  0  0  0  0  0  0  0  0  0  0  0
    4.1039    4.4882    2.0436 H   0  0  0  0  0  0  0  0  0  0  0  0
    3.2399    2.9957    2.4844 H   0  0  0  0  0  0  0  0  0  0  0  0
    2.3837    3.9327    0.3303 H   0  0  0  0  0  0  0  0  0  0  0  0
    3.9909    3.8323   -0.3834 H   0  0  0  0  0  0  0  0  0  0  0  0
    6.4811   -0.7174   -1.4966 H   0  0  0  0  0  0  0  0  0  0  0  0
    6.2782   -2.2842   -0.6961 H   0  0  0  0  0  0  0  0  0  0  0  0
    6.1987   -0.7962    0.2569 H   0  0  0  0  0  0  0  0  0  0  0  0
    4.0987   -3.1985   -1.3379 H   0  0  0  0  0  0  0  0  0  0  0  0
    1.8936   -3.9084   -2.0499 H   0  0  0  0  0  0  0  0  0  0  0  0
    0.7123   -3.1371   -0.9822 H   0  0  0  0  0  0  0  0  0  0  0  0
    0.8440   -2.6380   -2.6858 H   0  0  0  0  0  0  0  0  0  0  0  0
   -0.0443   -0.7623    0.1099 H   0  0  0  0  0  0  0  0  0  0  0  0
   -0.5958   -1.0293   -1.5881 H   0  0  0  0  0  0  0  0  0  0  0  0
   -2.9040    2.3803   -0.5756 H   0  0  0  0  0  0  0  0  0  0  0  0
   -5.1244    2.3864    0.2981 H   0  0  0  0  0  0  0  0  0  0  0  0
   -6.7311    0.2374   -0.7049 H   0  0  0  0  0  0  0  0  0  0  0  0
   -7.9882   -1.6471    0.2745 H   0  0  0  0  0  0  0  0  0  0  0  0
   -5.2708   -1.7363    3.6136 H   0  0  0  0  0  0  0  0  0  0  0  0
   -4.0090    0.1484    2.6437 H   0  0  0  0  0  0  0  0  0  0  0  0
  1  2  1  0
  2  3  1  0
  3  4  1  0
  4  5  2  0
  4  6  1  0
  6  7  2  0
  7  8  1  0
  7  9  1  0
  9 10  1  0
 10 11  1  0
 10 12  2  0
 12 13  1  0
 13 14  2  0
 13 15  1  0
 15 16  1  0
 16 17  1  0
 17 18  2  0
 17 19  1  0
 19 20  2  3
 20 21  1  0
 21 22  2  0
 22 23  1  0
 23 24  2  0
 24 25  1  0
 24 26  1  0
 26 27  2  0
 12  6  1  0
 27 21  1  0
  1 28  1  0
  1 29  1  0
  1 30  1  0
  2 31  1  0
  2 32  1  0
  8 33  1  0
  8 34  1  0
  8 35  1  0
  9 36  1  0
 11 37  1  0
 11 38  1  0
 11 39  1  0
 15 40  1  0
 15 41  1  0
 19 42  1  0
 20 43  1  0
 22 44  1  0
 23 45  1  0
 26 46  1  0
 27 47  1  0
M  END
$$$$
