
     RDKit          3D

 36 37  0  0  0  0  0  0  0  0999 V2000
    5.8804   -0.1062   -2.2530 C   0  0  0  0  0  0  0  0  0  0  0  0
    5.2872   -0.7268   -1.1186 O   0  0  0  0  0  0  0  0  0  0  0  0
    3.9643   -0.4620   -0.8905 C   0  0  0  0  0  0  0  0  0  0  0  0
    3.1641    0.4045   -1.6311 C   0  0  0  0  0  0  0  0  0  0  0  0
    1.8185    0.5894   -1.2907 C   0  0  0  0  0  0  0  0  0  0  0  0
    1.2555   -0.1027   -0.2193 C   0  0  0  0  0  0  0  0  0  0  0  0
   -0.0869    0.0415    0.2064 N   0  0  0  0  0  0  0  0  0  0  0  0
   -1.2455    0.4725   -0.4419 C   0  0  0  0  0  0  0  0  0  0  0  0
   -1.4372    0.6769   -2.0905 S   0  0  0  0  0  0  0  0  0  0  0  0
   -2.2139    0.7149    0.5384 N   0  0  0  0  0  0  0  0  0  0  0  0
   -3.6141    0.8799    0.4587 C   0  0  0  0  0  0  0  0  0  0  0  0
   -4.4101    0.3817   -0.5731 C   0  0  0  0  0  0  0  0  0  0  0  0
   -5.7974    0.5646   -0.5538 C   0  0  0  0  0  0  0  0  0  0  0  0
   -6.4035    1.2334    0.5062 C   0  0  0  0  0  0  0  0  0  0  0  0
   -5.6238    1.7108    1.5550 C   0  0  0  0  0  0  0  0  0  0  0  0
   -4.2385    1.5268    1.5346 C   0  0  0  0  0  0  0  0  0  0  0  0
    2.0728   -0.9577    0.5510 C   0  0  0  0  0  0  0  0  0  0  0  0
    1.4489   -1.5648    1.6190 O   0  0  0  0  0  0  0  0  0  0  0  0
    2.2159   -2.5042    2.3636 C   0  0  0  0  0  0  0  0  0  0  0  0
    3.4161   -1.1349    0.2052 C   0  0  0  0  0  0  0  0  0  0  0  0
    6.9204   -0.4416   -2.3113 H   0  0  0  0  0  0  0  0  0  0  0  0
    5.8876    0.9835   -2.1466 H   0  0  0  0  0  0  0  0  0  0  0  0
    5.3798   -0.4111   -3.1781 H   0  0  0  0  0  0  0  0  0  0  0  0
    3.5526    0.9646   -2.4756 H   0  0  0  0  0  0  0  0  0  0  0  0
    1.2494    1.3100   -1.8669 H   0  0  0  0  0  0  0  0  0  0  0  0
   -0.2652   -0.4716    1.0658 H   0  0  0  0  0  0  0  0  0  0  0  0
   -1.8066    0.9902    1.4235 H   0  0  0  0  0  0  0  0  0  0  0  0
   -3.9904   -0.1878   -1.3947 H   0  0  0  0  0  0  0  0  0  0  0  0
   -6.4027    0.1732   -1.3678 H   0  0  0  0  0  0  0  0  0  0  0  0
   -7.4810    1.3737    0.5173 H   0  0  0  0  0  0  0  0  0  0  0  0
   -6.0917    2.2269    2.3892 H   0  0  0  0  0  0  0  0  0  0  0  0
   -3.6542    1.9123    2.3660 H   0  0  0  0  0  0  0  0  0  0  0  0
    2.5503   -3.3331    1.7309 H   0  0  0  0  0  0  0  0  0  0  0  0
    3.0606   -2.0163    2.8608 H   0  0  0  0  0  0  0  0  0  0  0  0
    1.5685   -2.9204    3.1414 H   0  0  0  0  0  0  0  0  0  0  0  0
    4.0700   -1.7900    0.7708 H   0  0  0  0  0  0  0  0  0  0  0  0
  1  2  1  0
  2  3  1  0
  3  4  2  0
  4  5  1  0
  5  6  2  0
  6  7  1  0
  7  8  1  0
  8  9  2  0
  8 10  1  0
 10 11  1  0
 11 12  2  0
 12 13  1  0
 13 14  2  0
 14 15  1  0
 15 16  2  0
  6 17  1  0
 17 18  1  0
 18 19  1  0
 17 20  2  0
 20  3  1  0
 16 11  1  0
  1 21  1  0
  1 22  1  0
  1 23  1  0
  4 24  1  0
  5 25  1  0
  7 26  1  0
 10 27  1  0
 12 28  1  0
 13 29  1  0
 14 30  1  0
 15 31  1  0
 16 32  1  0
 19 33  1  0
 19 34  1  0
 19 35  1  0
 20 36  1  0
M  END
$$$$
