
     RDKit          3D

 45 46  0  0  0  0  0  0  0  0999 V2000
    4.7699   -1.2599    2.8120 C   0  0  0  0  0  0  0  0  0  0  0  0
    3.8844   -1.5938    1.6481 C   0  0  0  0  0  0  0  0  0  0  0  0
    4.0698   -2.7822    0.9358 C   0  0  0  0  0  0  0  0  0  0  0  0
    3.2595   -3.0768   -0.1596 C   0  0  0  0  0  0  0  0  0  0  0  0
    2.2712   -2.1774   -0.5669 C   0  0  0  0  0  0  0  0  0  0  0  0
    2.0991   -0.9667    0.1048 C   0  0  0  0  0  0  0  0  0  0  0  0
    1.0974   -0.0277   -0.2256 N   0  0  0  0  0  0  0  0  0  0  0  0
    0.4419    0.2053   -1.4285 C   0  0  0  0  0  0  0  0  0  0  0  0
    1.1445   -0.0688   -2.9336 S   0  0  0  0  0  0  0  0  0  0  0  0
   -0.8453    0.7614   -1.2397 N   0  0  0  0  0  0  0  0  0  0  0  0
   -1.5625    0.6485    0.0513 C   0  0  0  0  0  0  0  0  0  0  0  0
   -2.1035   -0.7796    0.2839 C   0  0  0  0  0  0  0  0  0  0  0  0
   -2.9030   -0.9147    1.5179 N   0  0  0  0  0  0  0  0  0  0  0  0
   -2.0636   -0.8328    2.7164 C   0  0  0  0  0  0  0  0  0  0  0  0
   -3.6158   -2.1963    1.5091 C   0  0  0  0  0  0  0  0  0  0  0  0
   -1.6678    1.2723   -2.3532 C   0  0  0  0  0  0  0  0  0  0  0  0
   -1.6667    2.7750   -2.3186 C   0  0  0  0  0  0  0  0  0  0  0  0
   -0.6001    3.6383   -2.4889 C   0  0  0  0  0  0  0  0  0  0  0  0
   -0.9864    5.0064   -2.4005 C   0  0  0  0  0  0  0  0  0  0  0  0
   -2.3366    5.1460   -2.1733 C   0  0  0  0  0  0  0  0  0  0  0  0
   -3.1302    3.6355   -2.0729 S   0  0  0  0  0  0  0  0  0  0  0  0
    2.8987   -0.6907    1.2226 C   0  0  0  0  0  0  0  0  0  0  0  0
    5.6514   -0.7113    2.4657 H   0  0  0  0  0  0  0  0  0  0  0  0
    4.2361   -0.6468    3.5456 H   0  0  0  0  0  0  0  0  0  0  0  0
    5.0985   -2.1689    3.3267 H   0  0  0  0  0  0  0  0  0  0  0  0
    4.8404   -3.4897    1.2335 H   0  0  0  0  0  0  0  0  0  0  0  0
    3.3917   -4.0120   -0.6977 H   0  0  0  0  0  0  0  0  0  0  0  0
    1.6326   -2.4606   -1.3971 H   0  0  0  0  0  0  0  0  0  0  0  0
    1.0054    0.7392    0.4273 H   0  0  0  0  0  0  0  0  0  0  0  0
   -0.8950    0.9477    0.8628 H   0  0  0  0  0  0  0  0  0  0  0  0
   -2.3906    1.3664    0.0641 H   0  0  0  0  0  0  0  0  0  0  0  0
   -1.2818   -1.5073    0.2741 H   0  0  0  0  0  0  0  0  0  0  0  0
   -2.7380   -1.0258   -0.5780 H   0  0  0  0  0  0  0  0  0  0  0  0
   -2.6709   -0.9640    3.6195 H   0  0  0  0  0  0  0  0  0  0  0  0
   -1.2737   -1.5927    2.7216 H   0  0  0  0  0  0  0  0  0  0  0  0
   -1.5979    0.1529    2.8078 H   0  0  0  0  0  0  0  0  0  0  0  0
   -4.2408   -2.2959    2.4037 H   0  0  0  0  0  0  0  0  0  0  0  0
   -4.2929   -2.2546    0.6496 H   0  0  0  0  0  0  0  0  0  0  0  0
   -2.9303   -3.0506    1.4687 H   0  0  0  0  0  0  0  0  0  0  0  0
   -1.3007    0.9458   -3.3286 H   0  0  0  0  0  0  0  0  0  0  0  0
   -2.6775    0.8559   -2.2547 H   0  0  0  0  0  0  0  0  0  0  0  0
    0.4141    3.3003   -2.6697 H   0  0  0  0  0  0  0  0  0  0  0  0
   -0.3078    5.8447   -2.5015 H   0  0  0  0  0  0  0  0  0  0  0  0
   -2.8987    6.0634   -2.0653 H   0  0  0  0  0  0  0  0  0  0  0  0
    2.7715    0.2425    1.7660 H   0  0  0  0  0  0  0  0  0  0  0  0
  1  2  1  0
  2  3  2  0
  3  4  1  0
  4  5  2  0
  5  6  1  0
  6  7  1  0
  7  8  1  0
  8  9  2  0
  8 10  1  0
 10 11  1  0
 11 12  1  0
 12 13  1  0
 13 14  1  0
 13 15  1  0
 10 16  1  0
 16 17  1  0
 17 18  2  0
 18 19  1  0
 19 20  2  0
 20 21  1  0
  6 22  2  0
 22  2  1  0
 21 17  1  0
  1 23  1  0
  1 24  1  0
  1 25  1  0
  3 26  1  0
  4 27  1  0
  5 28  1  0
  7 29  1  0
 11 30  1  0
 11 31  1  0
 12 32  1  0
 12 33  1  0
 14 34  1  0
 14 35  1  0
 14 36  1  0
 15 37  1  0
 15 38  1  0
 15 39  1  0
 16 40  1  0
 16 41  1  0
 18 42  1  0
 19 43  1  0
 20 44  1  0
 22 45  1  0
M  END
$$$$
