
     RDKit          3D

 33 34  0  0  0  0  0  0  0  0999 V2000
   -5.6181    1.0079    1.0099 C   0  0  0  0  0  0  0  0  0  0  0  0
   -4.6183   -0.0032    0.9704 O   0  0  0  0  0  0  0  0  0  0  0  0
   -3.3297    0.4052    0.7609 C   0  0  0  0  0  0  0  0  0  0  0  0
   -2.9025    1.7230    0.6240 C   0  0  0  0  0  0  0  0  0  0  0  0
   -1.5475    1.9959    0.4234 C   0  0  0  0  0  0  0  0  0  0  0  0
   -0.6078    0.9546    0.3634 C   0  0  0  0  0  0  0  0  0  0  0  0
    0.8143    1.3486    0.1528 C   0  0  0  0  0  0  0  0  0  0  0  0
    1.0456    2.3173   -0.5742 O   0  0  0  0  0  0  0  0  0  0  0  0
    1.9149    0.6425    0.9161 C   0  0  0  0  0  0  0  0  0  0  0  0
    2.8570   -0.0189   -0.0283 C   0  0  0  0  0  0  0  0  0  0  0  0
    2.8786   -1.3110   -0.2868 N   0  0  0  0  0  0  0  0  0  0  0  0
    3.8743   -1.6541   -1.1777 N   0  0  0  0  0  0  0  0  0  0  0  0
    4.5854   -0.6123   -1.5521 C   0  0  0  0  0  0  0  0  0  0  0  0
    5.7168   -0.6594   -2.5107 C   0  0  0  0  0  0  0  0  0  0  0  0
    4.0955    0.8667   -0.8332 S   0  0  0  0  0  0  0  0  0  0  0  0
   -1.0353   -0.3767    0.4676 C   0  0  0  0  0  0  0  0  0  0  0  0
   -0.0853   -1.3487    0.3413 O   0  0  0  0  0  0  0  0  0  0  0  0
   -0.5189   -2.6927    0.1730 C   0  0  0  0  0  0  0  0  0  0  0  0
   -2.3953   -0.6353    0.6808 C   0  0  0  0  0  0  0  0  0  0  0  0
   -6.5823    0.5180    1.1752 H   0  0  0  0  0  0  0  0  0  0  0  0
   -5.6749    1.5439    0.0567 H   0  0  0  0  0  0  0  0  0  0  0  0
   -5.4492    1.6987    1.8421 H   0  0  0  0  0  0  0  0  0  0  0  0
   -3.5921    2.5596    0.6652 H   0  0  0  0  0  0  0  0  0  0  0  0
   -1.2249    3.0298    0.3108 H   0  0  0  0  0  0  0  0  0  0  0  0
    2.4328    1.3980    1.5197 H   0  0  0  0  0  0  0  0  0  0  0  0
    1.5157   -0.0761    1.6368 H   0  0  0  0  0  0  0  0  0  0  0  0
    5.3691   -0.4193   -3.5201 H   0  0  0  0  0  0  0  0  0  0  0  0
    6.5092    0.0449   -2.2381 H   0  0  0  0  0  0  0  0  0  0  0  0
    6.1563   -1.6619   -2.5312 H   0  0  0  0  0  0  0  0  0  0  0  0
    0.3635   -3.3051   -0.0369 H   0  0  0  0  0  0  0  0  0  0  0  0
   -1.2013   -2.7873   -0.6782 H   0  0  0  0  0  0  0  0  0  0  0  0
   -0.9775   -3.0721    1.0917 H   0  0  0  0  0  0  0  0  0  0  0  0
   -2.7678   -1.6502    0.7856 H   0  0  0  0  0  0  0  0  0  0  0  0
  1  2  1  0
  2  3  1  0
  3  4  2  0
  4  5  1  0
  5  6  2  0
  6  7  1  0
  7  8  2  0
  7  9  1  0
  9 10  1  0
 10 11  2  0
 11 12  1  0
 12 13  2  0
 13 14  1  0
 13 15  1  0
  6 16  1  0
 16 17  1  0
 17 18  1  0
 16 19  2  0
 19  3  1  0
 15 10  1  0
  1 20  1  0
  1 21  1  0
  1 22  1  0
  4 23  1  0
  5 24  1  0
  9 25  1  0
  9 26  1  0
 14 27  1  0
 14 28  1  0
 14 29  1  0
 18 30  1  0
 18 31  1  0
 18 32  1  0
 19 33  1  0
M  END
$$$$
