
     RDKit          3D

 45 49  0  0  0  0  0  0  0  0999 V2000
    0.7545    1.8578   -0.8175 O   0  0  0  0  0  0  0  0  0  0  0  0
    0.4260    1.7457    0.3611 C   0  0  0  0  0  0  0  0  0  0  0  0
   -0.9872    1.9121    0.8366 C   0  0  0  0  0  0  0  0  0  0  0  0
   -1.8507    0.8733    0.3044 N   0  0  0  0  0  0  0  0  0  0  0  0
   -2.5214   -0.0533    1.0967 C   0  0  0  0  0  0  0  0  0  0  0  0
   -2.3279   -0.1212    2.4061 O   0  0  0  0  0  0  0  0  0  0  0  0
   -3.3319   -0.7541    0.2554 C   0  0  0  0  0  0  0  0  0  0  0  0
   -3.1454   -0.2660   -1.0541 C   0  0  0  0  0  0  0  0  0  0  0  0
   -2.2012    0.7156   -1.0364 C   0  0  0  0  0  0  0  0  0  0  0  0
   -1.6889    1.4212   -2.0372 O   0  0  0  0  0  0  0  0  0  0  0  0
   -4.0428   -1.0500   -1.9566 C   0  0  0  0  0  0  0  0  0  0  0  0
   -5.5071   -0.6580   -1.6284 C   0  0  0  0  0  0  0  0  0  0  0  0
   -5.7167   -1.1977   -0.1751 C   0  0  0  0  0  0  0  0  0  0  0  0
   -4.3515   -1.8456    0.1748 C   0  0  0  0  0  0  0  0  0  0  0  0
   -3.9907   -2.4346   -1.2297 C   0  0  0  0  0  0  0  0  0  0  0  0
    1.2618    1.4687    1.4355 O   0  0  0  0  0  0  0  0  0  0  0  0
    2.6067    1.2466    1.1152 C   0  0  0  0  0  0  0  0  0  0  0  0
    3.5523    2.0760    1.7099 C   0  0  0  0  0  0  0  0  0  0  0  0
    4.9068    1.8579    1.4563 C   0  0  0  0  0  0  0  0  0  0  0  0
    5.3211    0.8054    0.6211 C   0  0  0  0  0  0  0  0  0  0  0  0
    6.6807    0.5758    0.3556 C   0  0  0  0  0  0  0  0  0  0  0  0
    7.0785   -0.4729   -0.4760 C   0  0  0  0  0  0  0  0  0  0  0  0
    6.1235   -1.3065   -1.0508 C   0  0  0  0  0  0  0  0  0  0  0  0
    4.7676   -1.0948   -0.7956 C   0  0  0  0  0  0  0  0  0  0  0  0
    4.3497   -0.0443    0.0371 C   0  0  0  0  0  0  0  0  0  0  0  0
    2.9899    0.1798    0.3014 C   0  0  0  0  0  0  0  0  0  0  0  0
   -1.0335    1.9111    1.9297 H   0  0  0  0  0  0  0  0  0  0  0  0
   -1.3699    2.8801    0.4949 H   0  0  0  0  0  0  0  0  0  0  0  0
   -2.9085   -0.8312    2.7352 H   0  0  0  0  0  0  0  0  0  0  0  0
   -0.7697    1.6884   -1.8265 H   0  0  0  0  0  0  0  0  0  0  0  0
   -3.7746   -1.0577   -3.0125 H   0  0  0  0  0  0  0  0  0  0  0  0
   -6.2070   -1.1525   -2.3121 H   0  0  0  0  0  0  0  0  0  0  0  0
   -5.6750    0.4237   -1.6802 H   0  0  0  0  0  0  0  0  0  0  0  0
   -6.5179   -1.9452   -0.1689 H   0  0  0  0  0  0  0  0  0  0  0  0
   -5.9880   -0.3903    0.5135 H   0  0  0  0  0  0  0  0  0  0  0  0
   -4.3574   -2.5579    0.9992 H   0  0  0  0  0  0  0  0  0  0  0  0
   -2.9904   -2.8851   -1.2530 H   0  0  0  0  0  0  0  0  0  0  0  0
   -4.7293   -3.1504   -1.6057 H   0  0  0  0  0  0  0  0  0  0  0  0
    3.2442    2.8865    2.3636 H   0  0  0  0  0  0  0  0  0  0  0  0
    5.6409    2.5164    1.9148 H   0  0  0  0  0  0  0  0  0  0  0  0
    7.4433    1.2148    0.7965 H   0  0  0  0  0  0  0  0  0  0  0  0
    8.1347   -0.6381   -0.6736 H   0  0  0  0  0  0  0  0  0  0  0  0
    6.4321   -2.1228   -1.6991 H   0  0  0  0  0  0  0  0  0  0  0  0
    4.0364   -1.7564   -1.2558 H   0  0  0  0  0  0  0  0  0  0  0  0
    2.2337   -0.4703   -0.1312 H   0  0  0  0  0  0  0  0  0  0  0  0
  1  2  2  0
  2  3  1  0
  3  4  1  0
  4  5  1  0
  5  6  1  0
  5  7  2  0
  7  8  1  0
  8  9  2  0
  9 10  1  0
  8 11  1  0
 11 12  1  0
 12 13  1  0
 13 14  1  0
 14 15  1  0
  2 16  1  0
 16 17  1  0
 17 18  2  0
 18 19  1  0
 19 20  2  0
 20 21  1  0
 21 22  2  0
 22 23  1  0
 23 24  2  0
 24 25  1  0
 25 26  2  0
  9  4  1  0
 15 11  1  0
 26 17  1  0
 14  7  1  0
 25 20  1  0
  3 27  1  0
  3 28  1  0
  6 29  1  0
 10 30  1  0
 11 31  1  0
 12 32  1  0
 12 33  1  0
 13 34  1  0
 13 35  1  0
 14 36  1  0
 15 37  1  0
 15 38  1  0
 18 39  1  0
 19 40  1  0
 21 41  1  0
 22 42  1  0
 23 43  1  0
 24 44  1  0
 26 45  1  0
M  END
$$$$
