
     RDKit          3D

 49 51  0  0  0  0  0  0  0  0999 V2000
    8.6190   -1.8776    3.3293 N   0  0  0  0  0  0  0  0  0  0  0  0
    7.5636   -1.9092    2.8461 C   0  0  0  0  0  0  0  0  0  0  0  0
    6.2647   -1.9187    2.2410 C   0  0  0  0  0  0  0  0  0  0  0  0
    5.5851   -3.0954    2.3121 N   0  0  0  0  0  0  0  0  0  0  0  0
    4.3532   -3.1030    1.7371 C   0  0  0  0  0  0  0  0  0  0  0  0
    3.7940   -1.9953    1.1006 C   0  0  0  0  0  0  0  0  0  0  0  0
    2.4610   -1.9951    0.4684 C   0  0  0  0  0  0  0  0  0  0  0  0
    1.8941   -3.1577   -0.0906 C   0  0  0  0  0  0  0  0  0  0  0  0
    0.6214   -3.1407   -0.6750 C   0  0  0  0  0  0  0  0  0  0  0  0
   -0.1144   -1.9613   -0.7089 C   0  0  0  0  0  0  0  0  0  0  0  0
    0.4494   -0.7846   -0.2167 C   0  0  0  0  0  0  0  0  0  0  0  0
    1.7088   -0.8068    0.3888 C   0  0  0  0  0  0  0  0  0  0  0  0
   -0.2302    0.4051   -0.2598 O   0  0  0  0  0  0  0  0  0  0  0  0
    0.0493    1.0884   -1.4948 C   0  0  0  0  0  0  0  0  0  0  0  0
   -0.5495    2.4922   -1.4141 C   0  0  0  0  0  0  0  0  0  0  0  0
   -1.9562    2.4399   -1.6823 O   0  0  0  0  0  0  0  0  0  0  0  0
   -2.6072    3.6911   -1.4190 C   0  0  0  0  0  0  0  0  0  0  0  0
   -3.2994    3.6512   -0.0525 C   0  0  0  0  0  0  0  0  0  0  0  0
   -4.6453    3.1645   -0.0999 O   0  0  0  0  0  0  0  0  0  0  0  0
   -4.8139    1.8367   -0.5953 C   0  0  0  0  0  0  0  0  0  0  0  0
   -4.2629    0.7549    0.3358 C   0  0  0  0  0  0  0  0  0  0  0  0
   -4.5219   -0.5522   -0.1877 O   0  0  0  0  0  0  0  0  0  0  0  0
   -3.5165   -0.9913   -1.1038 C   0  0  0  0  0  0  0  0  0  0  0  0
   -2.4002   -1.7348   -0.3752 C   0  0  0  0  0  0  0  0  0  0  0  0
   -1.3434   -2.0062   -1.3052 O   0  0  0  0  0  0  0  0  0  0  0  0
    4.4863   -0.8245    1.0468 N   0  0  0  0  0  0  0  0  0  0  0  0
    5.7239   -0.8050    1.6216 C   0  0  0  0  0  0  0  0  0  0  0  0
    6.4210    0.4441    1.5405 C   0  0  0  0  0  0  0  0  0  0  0  0
    6.9977    1.4503    1.4838 N   0  0  0  0  0  0  0  0  0  0  0  0
    3.8214   -4.0460    1.8230 H   0  0  0  0  0  0  0  0  0  0  0  0
    2.4378   -4.1004   -0.0982 H   0  0  0  0  0  0  0  0  0  0  0  0
    0.2044   -4.0501   -1.1003 H   0  0  0  0  0  0  0  0  0  0  0  0
    2.1059    0.1204    0.7984 H   0  0  0  0  0  0  0  0  0  0  0  0
    1.1342    1.1769   -1.6312 H   0  0  0  0  0  0  0  0  0  0  0  0
   -0.3895    0.5330   -2.3321 H   0  0  0  0  0  0  0  0  0  0  0  0
   -0.0864    3.1306   -2.1743 H   0  0  0  0  0  0  0  0  0  0  0  0
   -0.3789    2.9201   -0.4195 H   0  0  0  0  0  0  0  0  0  0  0  0
   -1.8812    4.5116   -1.4585 H   0  0  0  0  0  0  0  0  0  0  0  0
   -3.3420    3.8519   -2.2144 H   0  0  0  0  0  0  0  0  0  0  0  0
   -2.7258    3.0762    0.6812 H   0  0  0  0  0  0  0  0  0  0  0  0
   -3.3770    4.6764    0.3245 H   0  0  0  0  0  0  0  0  0  0  0  0
   -4.4181    1.7468   -1.6112 H   0  0  0  0  0  0  0  0  0  0  0  0
   -5.8935    1.6762   -0.7025 H   0  0  0  0  0  0  0  0  0  0  0  0
   -3.1958    0.8885    0.5401 H   0  0  0  0  0  0  0  0  0  0  0  0
   -4.7714    0.8290    1.3035 H   0  0  0  0  0  0  0  0  0  0  0  0
   -3.9931   -1.6751   -1.8153 H   0  0  0  0  0  0  0  0  0  0  0  0
   -3.1197   -0.1613   -1.6989 H   0  0  0  0  0  0  0  0  0  0  0  0
   -2.0784   -1.1713    0.5085 H   0  0  0  0  0  0  0  0  0  0  0  0
   -2.7844   -2.6922   -0.0020 H   0  0  0  0  0  0  0  0  0  0  0  0
  1  2  3  0
  2  3  1  0
  3  4  2  0
  4  5  1  0
  5  6  2  0
  6  7  1  0
  7  8  2  0
  8  9  1  0
  9 10  2  0
 10 11  1  0
 11 12  2  0
 11 13  1  0
 13 14  1  0
 14 15  1  0
 15 16  1  0
 16 17  1  0
 17 18  1  0
 18 19  1  0
 19 20  1  0
 20 21  1  0
 21 22  1  0
 22 23  1  0
 23 24  1  0
 24 25  1  0
  6 26  1  0
 26 27  2  0
 27 28  1  0
 28 29  3  0
 27  3  1  0
 12  7  1  0
 25 10  1  0
  5 30  1  0
  8 31  1  0
  9 32  1  0
 12 33  1  0
 14 34  1  0
 14 35  1  0
 15 36  1  0
 15 37  1  0
 17 38  1  0
 17 39  1  0
 18 40  1  0
 18 41  1  0
 20 42  1  0
 20 43  1  0
 21 44  1  0
 21 45  1  0
 23 46  1  0
 23 47  1  0
 24 48  1  0
 24 49  1  0
M  END
$$$$
