
     RDKit          3D

 55 58  0  0  0  0  0  0  0  0999 V2000
    6.8858    2.7772   -0.2869 C   0  0  0  0  0  0  0  0  0  0  0  0
    5.6609    2.1553   -0.6570 O   0  0  0  0  0  0  0  0  0  0  0  0
    5.0184    1.4105    0.2973 C   0  0  0  0  0  0  0  0  0  0  0  0
    5.4700    1.2406    1.6107 C   0  0  0  0  0  0  0  0  0  0  0  0
    4.7361    0.4756    2.5215 C   0  0  0  0  0  0  0  0  0  0  0  0
    3.5407   -0.1207    2.1323 C   0  0  0  0  0  0  0  0  0  0  0  0
    3.0810    0.0414    0.8272 C   0  0  0  0  0  0  0  0  0  0  0  0
    3.8187    0.7945   -0.1054 C   0  0  0  0  0  0  0  0  0  0  0  0
    3.2709    0.9574   -1.5042 C   0  0  0  0  0  0  0  0  0  0  0  0
    2.2939    2.0398   -1.5498 N   0  0  0  0  0  0  0  0  0  0  0  0
    1.0711    1.9763   -2.6792 S   0  0  0  0  0  6  0  0  0  0  0  0
    1.5772    1.3193   -3.8635 O   0  0  0  0  0  0  0  0  0  0  0  0
    0.4768    3.2935   -2.7287 O   0  0  0  0  0  0  0  0  0  0  0  0
   -0.0916    0.8992   -1.8772 C   0  0  0  0  0  0  0  0  0  0  0  0
   -0.8065    1.3752   -0.7667 C   0  0  0  0  0  0  0  0  0  0  0  0
   -1.7232    0.5466   -0.1059 C   0  0  0  0  0  0  0  0  0  0  0  0
   -1.9195   -0.7426   -0.5716 C   0  0  0  0  0  0  0  0  0  0  0  0
   -1.1879   -1.2050   -1.6748 C   0  0  0  0  0  0  0  0  0  0  0  0
   -0.2829   -0.3984   -2.3515 C   0  0  0  0  0  0  0  0  0  0  0  0
   -1.5645   -2.6115   -2.0260 C   0  0  0  0  0  0  0  0  0  0  0  0
   -2.3578   -3.0344   -0.7770 C   0  0  0  0  0  0  0  0  0  0  0  0
   -1.5123   -3.9273    0.1379 C   0  0  0  0  0  0  0  0  0  0  0  0
   -2.7473   -1.7767   -0.0941 N   0  0  0  0  0  0  0  0  0  0  0  0
   -3.7823   -1.7827    0.8381 C   0  0  0  0  0  0  0  0  0  0  0  0
   -4.2799   -2.8654    1.1900 O   0  0  0  0  0  0  0  0  0  0  0  0
   -4.3460   -0.4499    1.3797 C   0  0  0  0  0  0  0  0  0  0  0  0
   -5.7118   -0.5198    2.1361 C   0  0  0  0  0  0  0  0  0  0  0  0
   -6.0497    0.8507    1.5270 C   0  0  0  0  0  0  0  0  0  0  0  0
   -5.0839    0.4963    0.3834 C   0  0  0  0  0  0  0  0  0  0  0  0
    6.7278    3.5139    0.5085 H   0  0  0  0  0  0  0  0  0  0  0  0
    7.6359    2.0338    0.0027 H   0  0  0  0  0  0  0  0  0  0  0  0
    7.2678    3.3096   -1.1631 H   0  0  0  0  0  0  0  0  0  0  0  0
    6.3907    1.6936    1.9630 H   0  0  0  0  0  0  0  0  0  0  0  0
    5.0980    0.3517    3.5396 H   0  0  0  0  0  0  0  0  0  0  0  0
    2.9655   -0.7079    2.8437 H   0  0  0  0  0  0  0  0  0  0  0  0
    2.1384   -0.4201    0.5359 H   0  0  0  0  0  0  0  0  0  0  0  0
    4.0737    1.1617   -2.2203 H   0  0  0  0  0  0  0  0  0  0  0  0
    2.8226    0.0048   -1.8098 H   0  0  0  0  0  0  0  0  0  0  0  0
    2.6169    2.9758   -1.3133 H   0  0  0  0  0  0  0  0  0  0  0  0
   -0.6427    2.3898   -0.4069 H   0  0  0  0  0  0  0  0  0  0  0  0
   -2.2211    0.9432    0.7666 H   0  0  0  0  0  0  0  0  0  0  0  0
    0.2557   -0.7703   -3.2182 H   0  0  0  0  0  0  0  0  0  0  0  0
   -0.6920   -3.2444   -2.2158 H   0  0  0  0  0  0  0  0  0  0  0  0
   -2.2111   -2.6017   -2.9109 H   0  0  0  0  0  0  0  0  0  0  0  0
   -3.2605   -3.5850   -1.0677 H   0  0  0  0  0  0  0  0  0  0  0  0
   -1.2170   -4.8432   -0.3843 H   0  0  0  0  0  0  0  0  0  0  0  0
   -0.6025   -3.4146    0.4692 H   0  0  0  0  0  0  0  0  0  0  0  0
   -2.0671   -4.2191    1.0349 H   0  0  0  0  0  0  0  0  0  0  0  0
   -3.6156    0.0613    2.0206 H   0  0  0  0  0  0  0  0  0  0  0  0
   -6.3808   -1.3220    1.8015 H   0  0  0  0  0  0  0  0  0  0  0  0
   -5.6493   -0.5449    3.2280 H   0  0  0  0  0  0  0  0  0  0  0  0
   -7.0933    1.0020    1.2402 H   0  0  0  0  0  0  0  0  0  0  0  0
   -5.7188    1.6988    2.1373 H   0  0  0  0  0  0  0  0  0  0  0  0
   -5.5632   -0.0226   -0.4551 H   0  0  0  0  0  0  0  0  0  0  0  0
   -4.5126    1.3408   -0.0079 H   0  0  0  0  0  0  0  0  0  0  0  0
  1  2  1  0
  2  3  1  0
  3  4  2  0
  4  5  1  0
  5  6  2  0
  6  7  1  0
  7  8  2  0
  8  9  1  0
  9 10  1  0
 10 11  1  0
 11 12  2  0
 11 13  2  0
 11 14  1  0
 14 15  2  0
 15 16  1  0
 16 17  2  0
 17 18  1  0
 18 19  2  0
 18 20  1  0
 20 21  1  0
 21 22  1  0
 21 23  1  0
 23 24  1  0
 24 25  2  0
 24 26  1  0
 26 27  1  0
 27 28  1  0
 28 29  1  0
  8  3  1  0
 19 14  1  0
 29 26  1  0
 23 17  1  0
  1 30  1  0
  1 31  1  0
  1 32  1  0
  4 33  1  0
  5 34  1  0
  6 35  1  0
  7 36  1  0
  9 37  1  0
  9 38  1  0
 10 39  1  0
 15 40  1  0
 16 41  1  0
 19 42  1  0
 20 43  1  0
 20 44  1  0
 21 45  1  0
 22 46  1  0
 22 47  1  0
 22 48  1  0
 26 49  1  0
 27 50  1  0
 27 51  1  0
 28 52  1  0
 28 53  1  0
 29 54  1  0
 29 55  1  0
M  END
$$$$
