
     RDKit          3D

 60 64  0  0  0  0  0  0  0  0999 V2000
    6.7783    0.7718   -3.0471 C   0  0  0  0  0  0  0  0  0  0  0  0
    6.4279   -0.5001   -2.4977 O   0  0  0  0  0  0  0  0  0  0  0  0
    6.4995   -0.4672   -1.1285 C   0  0  0  0  0  0  0  0  0  0  0  0
    7.7534   -0.6744   -0.5409 C   0  0  0  0  0  0  0  0  0  0  0  0
    7.8772   -0.7095    0.8455 C   0  0  0  0  0  0  0  0  0  0  0  0
    6.7481   -0.5545    1.6435 C   0  0  0  0  0  0  0  0  0  0  0  0
    5.4930   -0.3699    1.0544 C   0  0  0  0  0  0  0  0  0  0  0  0
    5.3423   -0.3275   -0.3437 C   0  0  0  0  0  0  0  0  0  0  0  0
    4.0195   -0.1309   -0.9391 C   0  0  0  0  0  0  0  0  0  0  0  0
    3.6827    0.2745   -2.1484 N   0  0  0  0  0  0  0  0  0  0  0  0
    2.3068    0.2550   -2.1272 C   0  0  0  0  0  0  0  0  0  0  0  0
    1.5538    0.6455   -3.2726 C   0  0  0  0  0  0  0  0  0  0  0  0
    0.9158    0.9570   -4.1929 N   0  0  0  0  0  0  0  0  0  0  0  0
    1.8365   -0.1514   -0.8920 C   0  0  0  0  0  0  0  0  0  0  0  0
    0.6271   -0.3571   -0.3101 N   0  0  0  0  0  0  0  0  0  0  0  0
    0.5136   -0.6262    1.1304 C   0  0  0  0  0  0  0  0  0  0  0  0
   -0.8438   -0.1177    1.6688 C   0  0  0  0  0  0  0  0  0  0  0  0
   -2.0101   -0.7471    1.0251 N   0  0  0  0  0  0  0  0  0  0  0  0
   -3.2841   -0.0240    1.2615 C   0  0  0  0  0  0  0  0  0  0  0  0
   -4.5264   -0.9395    1.2460 C   0  0  0  0  0  0  0  0  0  0  0  0
   -5.8199   -0.3845    1.3073 C   0  0  0  0  0  0  0  0  0  0  0  0
   -6.9570   -1.1963    1.3364 C   0  0  0  0  0  0  0  0  0  0  0  0
   -6.8261   -2.5821    1.3280 C   0  0  0  0  0  0  0  0  0  0  0  0
   -5.5579   -3.1554    1.3005 C   0  0  0  0  0  0  0  0  0  0  0  0
   -4.4211   -2.3428    1.2707 C   0  0  0  0  0  0  0  0  0  0  0  0
   -3.4310    1.2648    0.4355 C   0  0  0  0  0  0  0  0  0  0  0  0
   -3.0660    2.5006    0.9974 C   0  0  0  0  0  0  0  0  0  0  0  0
   -3.1717    3.6835    0.2631 C   0  0  0  0  0  0  0  0  0  0  0  0
   -3.6508    3.6528   -1.0448 C   0  0  0  0  0  0  0  0  0  0  0  0
   -4.0315    2.4428   -1.6155 C   0  0  0  0  0  0  0  0  0  0  0  0
   -3.9262    1.2592   -0.8815 C   0  0  0  0  0  0  0  0  0  0  0  0
   -1.7316   -1.1556   -0.3614 C   0  0  0  0  0  0  0  0  0  0  0  0
   -0.6231   -0.3526   -1.0834 C   0  0  0  0  0  0  0  0  0  0  0  0
    2.9473   -0.3883   -0.1226 O   0  0  0  0  0  0  0  0  0  0  0  0
    6.4803    0.7765   -4.1001 H   0  0  0  0  0  0  0  0  0  0  0  0
    6.2598    1.5962   -2.5440 H   0  0  0  0  0  0  0  0  0  0  0  0
    7.8603    0.9223   -2.9984 H   0  0  0  0  0  0  0  0  0  0  0  0
    8.6291   -0.8189   -1.1662 H   0  0  0  0  0  0  0  0  0  0  0  0
    8.8513   -0.8671    1.3022 H   0  0  0  0  0  0  0  0  0  0  0  0
    6.8397   -0.5835    2.7269 H   0  0  0  0  0  0  0  0  0  0  0  0
    4.6275   -0.2553    1.7048 H   0  0  0  0  0  0  0  0  0  0  0  0
    1.3067   -0.1167    1.6918 H   0  0  0  0  0  0  0  0  0  0  0  0
    0.6161   -1.7025    1.3127 H   0  0  0  0  0  0  0  0  0  0  0  0
   -0.8891   -0.3053    2.7479 H   0  0  0  0  0  0  0  0  0  0  0  0
   -0.8554    0.9686    1.5271 H   0  0  0  0  0  0  0  0  0  0  0  0
   -3.2607    0.2863    2.3183 H   0  0  0  0  0  0  0  0  0  0  0  0
   -5.9559    0.6970    1.3343 H   0  0  0  0  0  0  0  0  0  0  0  0
   -7.9437   -0.7440    1.3723 H   0  0  0  0  0  0  0  0  0  0  0  0
   -7.7099   -3.2134    1.3535 H   0  0  0  0  0  0  0  0  0  0  0  0
   -5.4485   -4.2373    1.3100 H   0  0  0  0  0  0  0  0  0  0  0  0
   -3.4459   -2.8252    1.2747 H   0  0  0  0  0  0  0  0  0  0  0  0
   -2.6930    2.5507    2.0180 H   0  0  0  0  0  0  0  0  0  0  0  0
   -2.8786    4.6293    0.7109 H   0  0  0  0  0  0  0  0  0  0  0  0
   -3.7324    4.5734   -1.6160 H   0  0  0  0  0  0  0  0  0  0  0  0
   -4.4139    2.4170   -2.6342 H   0  0  0  0  0  0  0  0  0  0  0  0
   -4.2498    0.3299   -1.3459 H   0  0  0  0  0  0  0  0  0  0  0  0
   -1.3926   -2.2000   -0.3117 H   0  0  0  0  0  0  0  0  0  0  0  0
   -2.6320   -1.1921   -0.9813 H   0  0  0  0  0  0  0  0  0  0  0  0
   -0.9443    0.6821   -1.2467 H   0  0  0  0  0  0  0  0  0  0  0  0
   -0.4694   -0.8208   -2.0622 H   0  0  0  0  0  0  0  0  0  0  0  0
  1  2  1  0
  2  3  1  0
  3  4  2  0
  4  5  1  0
  5  6  2  0
  6  7  1  0
  7  8  2  0
  8  9  1  0
  9 10  2  0
 10 11  1  0
 11 12  1  0
 12 13  3  0
 11 14  2  0
 14 15  1  0
 15 16  1  0
 16 17  1  0
 17 18  1  0
 18 19  1  0
 19 20  1  0
 20 21  2  0
 21 22  1  0
 22 23  2  0
 23 24  1  0
 24 25  2  0
 19 26  1  0
 26 27  2  0
 27 28  1  0
 28 29  2  0
 29 30  1  0
 30 31  2  0
 18 32  1  0
 32 33  1  0
 14 34  1  0
  8  3  1  0
 34  9  1  0
 33 15  1  0
 25 20  1  0
 31 26  1  0
  1 35  1  0
  1 36  1  0
  1 37  1  0
  4 38  1  0
  5 39  1  0
  6 40  1  0
  7 41  1  0
 16 42  1  0
 16 43  1  0
 17 44  1  0
 17 45  1  0
 19 46  1  0
 21 47  1  0
 22 48  1  0
 23 49  1  0
 24 50  1  0
 25 51  1  0
 27 52  1  0
 28 53  1  0
 29 54  1  0
 30 55  1  0
 31 56  1  0
 32 57  1  0
 32 58  1  0
 33 59  1  0
 33 60  1  0
M  END
$$$$
