
     RDKit          3D

 42 44  0  0  0  0  0  0  0  0999 V2000
   -4.6310    0.3562   -3.0899 N   0  0  0  0  0  0  0  0  0  0  0  0
   -4.9999    0.1095   -2.0176 C   0  0  0  0  0  0  0  0  0  0  0  0
   -5.4702   -0.2039   -0.6650 C   0  0  0  0  0  0  0  0  0  0  0  0
   -4.6641    0.5186    0.4272 C   0  0  0  0  0  0  0  0  0  0  0  0
   -3.3197    0.0450    0.7872 N   0  0  0  0  0  0  0  0  0  0  0  0
   -2.2924    0.3205   -0.2321 C   0  0  0  0  0  0  0  0  0  0  0  0
   -0.8751   -0.0429    0.2572 C   0  0  0  0  0  0  0  0  0  0  0  0
   -0.7937   -1.4263    0.7588 N   0  0  0  0  0  0  0  0  0  0  0  0
    0.3491   -2.2233    0.5889 C   0  0  0  0  0  0  0  0  0  0  0  0
    0.5888   -3.7537    1.2547 S   0  0  0  0  0  0  0  0  0  0  0  0
    1.4287   -1.7397   -0.2453 C   0  0  0  0  0  0  0  0  0  0  0  0
    1.9930   -2.2291   -1.4119 C   0  0  0  0  0  0  0  0  0  0  0  0
    3.0122   -1.3247   -1.7865 C   0  0  0  0  0  0  0  0  0  0  0  0
    3.0400   -0.3348   -0.8147 C   0  0  0  0  0  0  0  0  0  0  0  0
    3.8481    0.8646   -0.5938 C   0  0  0  0  0  0  0  0  0  0  0  0
    4.7405    1.3141   -1.5787 C   0  0  0  0  0  0  0  0  0  0  0  0
    5.5258    2.4587   -1.3678 C   0  0  0  0  0  0  0  0  0  0  0  0
    5.4317    3.1686   -0.1675 C   0  0  0  0  0  0  0  0  0  0  0  0
    6.4352    4.5581    0.0258 Cl  0  0  0  0  0  0  0  0  0  0  0  0
    4.5482    2.7320    0.8239 C   0  0  0  0  0  0  0  0  0  0  0  0
    4.3846    3.5453    2.3381 Cl  0  0  0  0  0  0  0  0  0  0  0  0
    3.7633    1.5887    0.6080 C   0  0  0  0  0  0  0  0  0  0  0  0
    2.0669   -0.5784    0.1153 O   0  0  0  0  0  0  0  0  0  0  0  0
   -1.8677   -1.7659    1.7111 C   0  0  0  0  0  0  0  0  0  0  0  0
   -3.2637   -1.3700    1.1859 C   0  0  0  0  0  0  0  0  0  0  0  0
   -6.5176    0.1232   -0.5871 H   0  0  0  0  0  0  0  0  0  0  0  0
   -5.4833   -1.2874   -0.4994 H   0  0  0  0  0  0  0  0  0  0  0  0
   -4.6095    1.5872    0.1912 H   0  0  0  0  0  0  0  0  0  0  0  0
   -5.2588    0.4703    1.3479 H   0  0  0  0  0  0  0  0  0  0  0  0
   -2.3018    1.3843   -0.4960 H   0  0  0  0  0  0  0  0  0  0  0  0
   -2.4856   -0.2562   -1.1455 H   0  0  0  0  0  0  0  0  0  0  0  0
   -0.1798    0.1259   -0.5694 H   0  0  0  0  0  0  0  0  0  0  0  0
   -0.5817    0.6174    1.0842 H   0  0  0  0  0  0  0  0  0  0  0  0
    1.6904   -3.1274   -1.9322 H   0  0  0  0  0  0  0  0  0  0  0  0
    3.6549   -1.3972   -2.6568 H   0  0  0  0  0  0  0  0  0  0  0  0
    4.8372    0.7790   -2.5265 H   0  0  0  0  0  0  0  0  0  0  0  0
    6.2111    2.7841   -2.1475 H   0  0  0  0  0  0  0  0  0  0  0  0
    3.0849    1.2564    1.3927 H   0  0  0  0  0  0  0  0  0  0  0  0
   -1.8818   -2.8333    1.9392 H   0  0  0  0  0  0  0  0  0  0  0  0
   -1.6502   -1.2316    2.6444 H   0  0  0  0  0  0  0  0  0  0  0  0
   -3.5092   -2.0184    0.3345 H   0  0  0  0  0  0  0  0  0  0  0  0
   -3.9980   -1.5635    1.9772 H   0  0  0  0  0  0  0  0  0  0  0  0
  1  2  3  0
  2  3  1  0
  3  4  1  0
  4  5  1  0
  5  6  1  0
  6  7  1  0
  7  8  1  0
  8  9  1  0
  9 10  2  0
  9 11  1  0
 11 12  2  0
 12 13  1  0
 13 14  2  0
 14 15  1  0
 15 16  2  0
 16 17  1  0
 17 18  2  0
 18 19  1  0
 18 20  1  0
 20 21  1  0
 20 22  2  0
 14 23  1  0
  8 24  1  0
 24 25  1  0
 25  5  1  0
 23 11  1  0
 22 15  1  0
  3 26  1  0
  3 27  1  0
  4 28  1  0
  4 29  1  0
  6 30  1  0
  6 31  1  0
  7 32  1  0
  7 33  1  0
 12 34  1  0
 13 35  1  0
 16 36  1  0
 17 37  1  0
 22 38  1  0
 24 39  1  0
 24 40  1  0
 25 41  1  0
 25 42  1  0
M  END
$$$$
