
     RDKit          3D

 47 50  0  0  0  0  0  0  0  0999 V2000
   -7.2035    0.2513    1.1599 C   0  0  0  0  0  0  0  0  0  0  0  0
   -5.9406    0.5042    0.3396 C   0  0  0  0  0  0  0  0  0  0  0  0
   -5.7930   -0.5454   -0.7800 C   0  0  0  0  0  0  0  0  0  0  0  0
   -4.5926   -0.2322   -1.6874 C   0  0  0  0  0  0  0  0  0  0  0  0
   -3.3529    0.0963   -0.9019 C   0  0  0  0  0  0  0  0  0  0  0  0
   -3.4382    0.4387    0.4358 C   0  0  0  0  0  0  0  0  0  0  0  0
   -1.9231    0.7189    1.1392 S   0  0  0  0  0  0  0  0  0  0  0  0
   -1.1098    0.3762   -0.3060 C   0  0  0  0  0  0  0  0  0  0  0  0
    0.2765    0.3836   -0.3843 N   0  0  0  0  0  0  0  0  0  0  0  0
    1.1932    0.6910    0.6084 C   0  0  0  0  0  0  0  0  0  0  0  0
    0.9115    1.0521    1.7468 O   0  0  0  0  0  0  0  0  0  0  0  0
    2.5816    0.5616    0.1723 C   0  0  0  0  0  0  0  0  0  0  0  0
    3.1836    0.1501   -1.0069 C   0  0  0  0  0  0  0  0  0  0  0  0
    4.5842    0.2526   -0.8177 C   0  0  0  0  0  0  0  0  0  0  0  0
    4.7696    0.7150    0.4665 C   0  0  0  0  0  0  0  0  0  0  0  0
    5.9683    1.0389    1.2774 C   0  0  0  0  0  0  0  0  0  0  0  0
    6.8149   -0.1361    1.4354 N   0  0  0  0  0  0  0  0  0  0  0  0
    6.6571   -1.1383    2.3553 C   0  0  0  0  0  0  0  0  0  0  0  0
    7.6954   -2.0015    2.1323 C   0  0  0  0  0  0  0  0  0  0  0  0
    8.0871   -3.5914    3.0234 Br  0  0  0  0  0  0  0  0  0  0  0  0
    8.4339   -1.4517    1.0780 C   0  0  0  0  0  0  0  0  0  0  0  0
    7.9036   -0.3024    0.6447 N   0  0  0  0  0  0  0  0  0  0  0  0
    3.5631    0.9053    1.0682 O   0  0  0  0  0  0  0  0  0  0  0  0
   -1.9761    0.0998   -1.3619 C   0  0  0  0  0  0  0  0  0  0  0  0
   -1.4537   -0.1677   -2.7052 C   0  0  0  0  0  0  0  0  0  0  0  0
   -2.3063    0.0180   -3.7537 N   0  0  0  0  0  0  0  0  0  0  0  0
   -0.2817   -0.4748   -2.9169 O   0  0  0  0  0  0  0  0  0  0  0  0
   -4.6953    0.5093    1.2505 C   0  0  0  0  0  0  0  0  0  0  0  0
   -7.1798   -0.7354    1.6346 H   0  0  0  0  0  0  0  0  0  0  0  0
   -7.3113    1.0042    1.9473 H   0  0  0  0  0  0  0  0  0  0  0  0
   -8.0943    0.2997    0.5252 H   0  0  0  0  0  0  0  0  0  0  0  0
   -6.0340    1.4933   -0.1301 H   0  0  0  0  0  0  0  0  0  0  0  0
   -5.6653   -1.5412   -0.3349 H   0  0  0  0  0  0  0  0  0  0  0  0
   -6.7030   -0.5839   -1.3911 H   0  0  0  0  0  0  0  0  0  0  0  0
   -4.4138   -1.0903   -2.3442 H   0  0  0  0  0  0  0  0  0  0  0  0
   -4.8457    0.6286   -2.3174 H   0  0  0  0  0  0  0  0  0  0  0  0
    0.6352    0.1066   -1.2942 H   0  0  0  0  0  0  0  0  0  0  0  0
    2.6862   -0.1899   -1.9052 H   0  0  0  0  0  0  0  0  0  0  0  0
    5.3673    0.0119   -1.5253 H   0  0  0  0  0  0  0  0  0  0  0  0
    6.5638    1.8234    0.7987 H   0  0  0  0  0  0  0  0  0  0  0  0
    5.6988    1.3807    2.2824 H   0  0  0  0  0  0  0  0  0  0  0  0
    5.8357   -1.1455    3.0580 H   0  0  0  0  0  0  0  0  0  0  0  0
    9.3310   -1.8284    0.6045 H   0  0  0  0  0  0  0  0  0  0  0  0
   -1.8808   -0.0129   -4.6708 H   0  0  0  0  0  0  0  0  0  0  0  0
   -3.1221    0.6018   -3.6498 H   0  0  0  0  0  0  0  0  0  0  0  0
   -4.7217   -0.3560    1.9255 H   0  0  0  0  0  0  0  0  0  0  0  0
   -4.7028    1.4121    1.8730 H   0  0  0  0  0  0  0  0  0  0  0  0
  1  2  1  0
  2  3  1  0
  3  4  1  0
  4  5  1  0
  5  6  2  0
  6  7  1  0
  7  8  1  0
  8  9  1  0
  9 10  1  0
 10 11  2  0
 10 12  1  0
 12 13  2  0
 13 14  1  0
 14 15  2  0
 15 16  1  0
 16 17  1  0
 17 18  1  0
 18 19  2  0
 19 20  1  0
 19 21  1  0
 21 22  2  0
 15 23  1  0
  8 24  2  0
 24 25  1  0
 25 26  1  0
 25 27  2  0
  6 28  1  0
 28  2  1  0
 24  5  1  0
 23 12  1  0
 22 17  1  0
  1 29  1  0
  1 30  1  0
  1 31  1  0
  2 32  1  0
  3 33  1  0
  3 34  1  0
  4 35  1  0
  4 36  1  0
  9 37  1  0
 13 38  1  0
 14 39  1  0
 16 40  1  0
 16 41  1  0
 18 42  1  0
 21 43  1  0
 26 44  1  0
 26 45  1  0
 28 46  1  0
 28 47  1  0
M  END
$$$$
