
     RDKit          3D

 51 54  0  0  0  0  0  0  0  0999 V2000
   -5.4776   -1.7049   -1.9384 C   0  0  0  0  0  0  0  0  0  0  0  0
   -4.3704   -1.0595   -1.3242 O   0  0  0  0  0  0  0  0  0  0  0  0
   -4.5260   -0.6139   -0.0366 C   0  0  0  0  0  0  0  0  0  0  0  0
   -5.7134   -0.7351    0.6971 C   0  0  0  0  0  0  0  0  0  0  0  0
   -5.7959   -0.2527    2.0048 C   0  0  0  0  0  0  0  0  0  0  0  0
   -4.6941    0.3565    2.5920 C   0  0  0  0  0  0  0  0  0  0  0  0
   -3.5075    0.4833    1.8719 C   0  0  0  0  0  0  0  0  0  0  0  0
   -3.4012    0.0019    0.5525 C   0  0  0  0  0  0  0  0  0  0  0  0
   -2.0887    0.1577   -0.2078 C   0  0  0  0  0  0  0  0  0  0  0  0
   -1.7266    1.6319   -0.4353 C   0  0  0  0  0  0  0  0  0  0  0  0
   -0.3950    1.7553   -1.1765 C   0  0  0  0  0  0  0  0  0  0  0  0
    0.6864    1.0701   -0.4535 N   0  0  0  0  0  0  0  0  0  0  0  0
    1.9643    1.2712   -1.1627 C   0  0  0  0  0  0  0  0  0  0  0  0
    3.1259    0.8627   -0.3017 C   0  0  0  0  0  0  0  0  0  0  0  0
    3.4988    1.4201    0.9148 C   0  0  0  0  0  0  0  0  0  0  0  0
    2.8777    2.5139    1.7050 C   0  0  0  0  0  0  0  0  0  0  0  0
    4.6105    0.7525    1.3602 N   0  0  0  0  0  0  0  0  0  0  0  0
    4.9871   -0.2162    0.4617 C   0  0  0  0  0  0  0  0  0  0  0  0
    6.0559   -1.1199    0.5074 C   0  0  0  0  0  0  0  0  0  0  0  0
    6.1990   -2.0100   -0.5604 C   0  0  0  0  0  0  0  0  0  0  0  0
    5.3066   -1.9953   -1.6288 C   0  0  0  0  0  0  0  0  0  0  0  0
    4.2435   -1.0850   -1.6572 C   0  0  0  0  0  0  0  0  0  0  0  0
    4.0762   -0.1735   -0.5929 C   0  0  0  0  0  0  0  0  0  0  0  0
    0.3813   -0.3618   -0.2915 C   0  0  0  0  0  0  0  0  0  0  0  0
   -0.9233   -0.5654    0.4823 C   0  0  0  0  0  0  0  0  0  0  0  0
   -5.1734   -2.0009   -2.9471 H   0  0  0  0  0  0  0  0  0  0  0  0
   -6.3283   -1.0225   -2.0357 H   0  0  0  0  0  0  0  0  0  0  0  0
   -5.7565   -2.6142   -1.3960 H   0  0  0  0  0  0  0  0  0  0  0  0
   -6.5988   -1.2015    0.2789 H   0  0  0  0  0  0  0  0  0  0  0  0
   -6.7228   -0.3531    2.5631 H   0  0  0  0  0  0  0  0  0  0  0  0
   -4.7553    0.7337    3.6092 H   0  0  0  0  0  0  0  0  0  0  0  0
   -2.6577    0.9652    2.3509 H   0  0  0  0  0  0  0  0  0  0  0  0
   -2.1905   -0.2972   -1.2013 H   0  0  0  0  0  0  0  0  0  0  0  0
   -1.6554    2.1706    0.5184 H   0  0  0  0  0  0  0  0  0  0  0  0
   -2.5146    2.1274   -1.0159 H   0  0  0  0  0  0  0  0  0  0  0  0
   -0.1613    2.8231   -1.2691 H   0  0  0  0  0  0  0  0  0  0  0  0
   -0.4990    1.3566   -2.1944 H   0  0  0  0  0  0  0  0  0  0  0  0
    2.0993    2.3362   -1.3950 H   0  0  0  0  0  0  0  0  0  0  0  0
    1.9709    0.7382   -2.1212 H   0  0  0  0  0  0  0  0  0  0  0  0
    2.5306    3.3187    1.0493 H   0  0  0  0  0  0  0  0  0  0  0  0
    3.5898    2.9470    2.4151 H   0  0  0  0  0  0  0  0  0  0  0  0
    2.0204    2.1336    2.2692 H   0  0  0  0  0  0  0  0  0  0  0  0
    5.0910    0.9405    2.2284 H   0  0  0  0  0  0  0  0  0  0  0  0
    6.7512   -1.1340    1.3400 H   0  0  0  0  0  0  0  0  0  0  0  0
    7.0186   -2.7246   -0.5545 H   0  0  0  0  0  0  0  0  0  0  0  0
    5.4339   -2.6970   -2.4492 H   0  0  0  0  0  0  0  0  0  0  0  0
    3.5537   -1.0875   -2.4954 H   0  0  0  0  0  0  0  0  0  0  0  0
    0.3124   -0.8587   -1.2682 H   0  0  0  0  0  0  0  0  0  0  0  0
    1.1741   -0.8662    0.2724 H   0  0  0  0  0  0  0  0  0  0  0  0
   -0.7865   -0.2024    1.5089 H   0  0  0  0  0  0  0  0  0  0  0  0
   -1.1394   -1.6385    0.5568 H   0  0  0  0  0  0  0  0  0  0  0  0
  1  2  1  0
  2  3  1  0
  3  4  2  0
  4  5  1  0
  5  6  2  0
  6  7  1  0
  7  8  2  0
  8  9  1  0
  9 10  1  0
 10 11  1  0
 11 12  1  0
 12 13  1  0
 13 14  1  0
 14 15  2  0
 15 16  1  0
 15 17  1  0
 17 18  1  0
 18 19  2  0
 19 20  1  0
 20 21  2  0
 21 22  1  0
 22 23  2  0
 12 24  1  0
 24 25  1  0
  8  3  1  0
 25  9  1  0
 23 14  1  0
 23 18  1  0
  1 26  1  0
  1 27  1  0
  1 28  1  0
  4 29  1  0
  5 30  1  0
  6 31  1  0
  7 32  1  0
  9 33  1  0
 10 34  1  0
 10 35  1  0
 11 36  1  0
 11 37  1  0
 13 38  1  0
 13 39  1  0
 16 40  1  0
 16 41  1  0
 16 42  1  0
 17 43  1  0
 19 44  1  0
 20 45  1  0
 21 46  1  0
 22 47  1  0
 24 48  1  0
 24 49  1  0
 25 50  1  0
 25 51  1  0
M  END
$$$$
