
     RDKit          3D

 51 55  0  0  0  0  0  0  0  0999 V2000
   -1.5531    0.9270    1.2066 C   0  0  0  0  0  0  0  0  0  0  0  0
   -0.2083    1.1276    1.5405 C   0  0  0  0  0  0  0  0  0  0  0  0
    0.7739    0.4932    0.7636 C   0  0  0  0  0  0  0  0  0  0  0  0
    0.4341   -0.3129   -0.3252 C   0  0  0  0  0  0  0  0  0  0  0  0
   -0.9287   -0.4975   -0.6417 C   0  0  0  0  0  0  0  0  0  0  0  0
   -1.9310    0.1182    0.1291 C   0  0  0  0  0  0  0  0  0  0  0  0
   -3.3903   -0.0932   -0.2355 C   0  0  0  0  0  0  0  0  0  0  0  0
   -4.2293   -0.6178    0.9390 C   0  0  0  0  0  0  0  0  0  0  0  0
   -5.6493   -0.9855    0.4974 C   0  0  0  0  0  0  0  0  0  0  0  0
   -6.1664   -0.1413   -0.6690 C   0  0  0  0  0  0  0  0  0  0  0  0
   -5.5368    1.2446   -0.6911 C   0  0  0  0  0  0  0  0  0  0  0  0
   -4.0135    1.1823   -0.8395 C   0  0  0  0  0  0  0  0  0  0  0  0
    1.6478   -0.7746   -0.9003 C   0  0  0  0  0  0  0  0  0  0  0  0
    2.6941   -0.2473   -0.1634 C   0  0  0  0  0  0  0  0  0  0  0  0
    2.1582    0.5047    0.8538 N   0  0  0  0  0  0  0  0  0  0  0  0
    2.8966    1.2547    1.8595 C   0  0  0  0  0  0  0  0  0  0  0  0
    4.2849    0.7172    2.1807 C   0  0  0  0  0  0  0  0  0  0  0  0
    5.3175    1.0138    1.0918 C   0  0  0  0  0  0  0  0  0  0  0  0
    4.9383    0.7189   -0.2843 N   0  0  0  0  0  0  0  0  0  0  0  0
    4.1476   -0.4968   -0.4350 C   0  0  0  0  0  0  0  0  0  0  0  0
    4.3075   -1.0047   -1.8907 C   0  0  0  0  0  0  0  0  0  0  0  0
    3.3031   -2.1264   -2.2080 C   0  0  0  0  0  0  0  0  0  0  0  0
    1.8500   -1.6334   -2.1050 C   0  0  0  0  0  0  0  0  0  0  0  0
   -2.3111    1.4258    1.8071 H   0  0  0  0  0  0  0  0  0  0  0  0
    0.0525    1.7635    2.3799 H   0  0  0  0  0  0  0  0  0  0  0  0
   -1.1928   -1.1211   -1.4912 H   0  0  0  0  0  0  0  0  0  0  0  0
   -3.4285   -0.8713   -1.0122 H   0  0  0  0  0  0  0  0  0  0  0  0
   -4.2938    0.1437    1.7269 H   0  0  0  0  0  0  0  0  0  0  0  0
   -3.7552   -1.4938    1.3988 H   0  0  0  0  0  0  0  0  0  0  0  0
   -6.3217   -0.8814    1.3577 H   0  0  0  0  0  0  0  0  0  0  0  0
   -5.6858   -2.0429    0.2086 H   0  0  0  0  0  0  0  0  0  0  0  0
   -5.9429   -0.6519   -1.6143 H   0  0  0  0  0  0  0  0  0  0  0  0
   -7.2578   -0.0622   -0.6093 H   0  0  0  0  0  0  0  0  0  0  0  0
   -5.7885    1.7675    0.2404 H   0  0  0  0  0  0  0  0  0  0  0  0
   -5.9603    1.8409   -1.5072 H   0  0  0  0  0  0  0  0  0  0  0  0
   -3.5909    2.0922   -0.3955 H   0  0  0  0  0  0  0  0  0  0  0  0
   -3.7495    1.2253   -1.9045 H   0  0  0  0  0  0  0  0  0  0  0  0
    2.3035    1.2215    2.7804 H   0  0  0  0  0  0  0  0  0  0  0  0
    2.9382    2.2946    1.5161 H   0  0  0  0  0  0  0  0  0  0  0  0
    4.2369   -0.3609    2.3783 H   0  0  0  0  0  0  0  0  0  0  0  0
    4.6353    1.1827    3.1104 H   0  0  0  0  0  0  0  0  0  0  0  0
    6.2327    0.4565    1.3260 H   0  0  0  0  0  0  0  0  0  0  0  0
    5.5965    2.0733    1.1427 H   0  0  0  0  0  0  0  0  0  0  0  0
    4.4169    1.4939   -0.6935 H   0  0  0  0  0  0  0  0  0  0  0  0
    4.5138   -1.2922    0.2272 H   0  0  0  0  0  0  0  0  0  0  0  0
    5.3294   -1.3739   -2.0417 H   0  0  0  0  0  0  0  0  0  0  0  0
    4.1553   -0.1857   -2.6077 H   0  0  0  0  0  0  0  0  0  0  0  0
    3.4845   -2.5193   -3.2147 H   0  0  0  0  0  0  0  0  0  0  0  0
    3.4601   -2.9564   -1.5071 H   0  0  0  0  0  0  0  0  0  0  0  0
    1.6042   -1.0454   -2.9978 H   0  0  0  0  0  0  0  0  0  0  0  0
    1.1723   -2.4940   -2.0820 H   0  0  0  0  0  0  0  0  0  0  0  0
  1  2  2  0
  2  3  1  0
  3  4  2  0
  4  5  1  0
  5  6  2  0
  6  7  1  0
  7  8  1  0
  8  9  1  0
  9 10  1  0
 10 11  1  0
 11 12  1  0
  4 13  1  0
 13 14  2  0
 14 15  1  0
 15 16  1  0
 16 17  1  0
 17 18  1  0
 18 19  1  0
 19 20  1  0
 20 21  1  0
 21 22  1  0
 22 23  1  0
  6  1  1  0
 12  7  1  0
 23 13  1  0
 15  3  1  0
 20 14  1  0
  1 24  1  0
  2 25  1  0
  5 26  1  0
  7 27  1  0
  8 28  1  0
  8 29  1  0
  9 30  1  0
  9 31  1  0
 10 32  1  0
 10 33  1  0
 11 34  1  0
 11 35  1  0
 12 36  1  0
 12 37  1  0
 16 38  1  0
 16 39  1  0
 17 40  1  0
 17 41  1  0
 18 42  1  0
 18 43  1  0
 19 44  1  0
 20 45  1  0
 21 46  1  0
 21 47  1  0
 22 48  1  0
 22 49  1  0
 23 50  1  0
 23 51  1  0
M  END
$$$$
