
     RDKit          3D

 45 47  0  0  0  0  0  0  0  0999 V2000
    7.4005    1.2759    0.2567 C   0  0  0  0  0  0  0  0  0  0  0  0
    5.9830    0.8939    0.5777 C   0  0  0  0  0  0  0  0  0  0  0  0
    5.6027    0.5818    1.8817 C   0  0  0  0  0  0  0  0  0  0  0  0
    4.2815    0.2268    2.1659 C   0  0  0  0  0  0  0  0  0  0  0  0
    3.3167    0.1624    1.1470 C   0  0  0  0  0  0  0  0  0  0  0  0
    1.9409   -0.1715    1.4984 C   0  0  0  0  0  0  0  0  0  0  0  0
    1.5905   -1.2724    2.2565 C   0  0  0  0  0  0  0  0  0  0  0  0
   -0.1080   -1.3116    2.4855 S   0  0  0  0  0  0  0  0  0  0  0  0
   -0.2619    0.1438    1.5629 C   0  0  0  0  0  0  0  0  0  0  0  0
   -1.5886    0.8067    1.3254 C   0  0  0  0  0  0  0  0  0  0  0  0
   -2.2554    1.1462    2.5872 C   0  0  0  0  0  0  0  0  0  0  0  0
   -2.7996    1.3893    3.5850 N   0  0  0  0  0  0  0  0  0  0  0  0
   -2.4712   -0.1122    0.5238 C   0  0  0  0  0  0  0  0  0  0  0  0
   -2.9035    0.2300   -0.6495 N   0  0  0  0  0  0  0  0  0  0  0  0
   -3.7555   -0.6861   -1.2880 C   0  0  0  0  0  0  0  0  0  0  0  0
   -3.2081   -1.5284   -2.2640 C   0  0  0  0  0  0  0  0  0  0  0  0
   -3.9989   -2.4651   -2.9284 C   0  0  0  0  0  0  0  0  0  0  0  0
   -5.3535   -2.5662   -2.6220 C   0  0  0  0  0  0  0  0  0  0  0  0
   -5.9169   -1.7248   -1.6589 C   0  0  0  0  0  0  0  0  0  0  0  0
   -5.1332   -0.7662   -0.9989 C   0  0  0  0  0  0  0  0  0  0  0  0
   -5.9372    0.2574    0.2259 S   0  0  0  0  0  0  0  0  0  0  0  0
   -5.6650    1.8795   -0.4905 C   0  0  0  0  0  0  0  0  0  0  0  0
   -4.4570    2.3978   -0.1609 F   0  0  0  0  0  0  0  0  0  0  0  0
   -6.6059    2.7473   -0.0262 F   0  0  0  0  0  0  0  0  0  0  0  0
   -5.7704    1.8741   -1.8380 F   0  0  0  0  0  0  0  0  0  0  0  0
    0.8780    0.6166    1.0931 N   0  0  0  0  0  0  0  0  0  0  0  0
    3.6973    0.4474   -0.1784 C   0  0  0  0  0  0  0  0  0  0  0  0
    2.7177    0.4118   -1.3244 C   0  0  0  0  0  0  0  0  0  0  0  0
    5.0292    0.8172   -0.4414 C   0  0  0  0  0  0  0  0  0  0  0  0
    7.9361    0.4172   -0.1667 H   0  0  0  0  0  0  0  0  0  0  0  0
    7.9301    1.6130    1.1548 H   0  0  0  0  0  0  0  0  0  0  0  0
    7.4254    2.1040   -0.4605 H   0  0  0  0  0  0  0  0  0  0  0  0
    6.3229    0.6386    2.6925 H   0  0  0  0  0  0  0  0  0  0  0  0
    4.0059    0.0332    3.1943 H   0  0  0  0  0  0  0  0  0  0  0  0
    2.2275   -2.0362    2.6774 H   0  0  0  0  0  0  0  0  0  0  0  0
   -1.4278    1.7245    0.7463 H   0  0  0  0  0  0  0  0  0  0  0  0
   -2.7519   -1.0812    0.9812 H   0  0  0  0  0  0  0  0  0  0  0  0
   -2.1507   -1.4497   -2.5102 H   0  0  0  0  0  0  0  0  0  0  0  0
   -3.5565   -3.1101   -3.6945 H   0  0  0  0  0  0  0  0  0  0  0  0
   -5.9721   -3.2959   -3.1391 H   0  0  0  0  0  0  0  0  0  0  0  0
   -6.9745   -1.8178   -1.4380 H   0  0  0  0  0  0  0  0  0  0  0  0
    2.1174    1.3268   -1.3317 H   0  0  0  0  0  0  0  0  0  0  0  0
    3.2366    0.3378   -2.2891 H   0  0  0  0  0  0  0  0  0  0  0  0
    2.0589   -0.4634   -1.2582 H   0  0  0  0  0  0  0  0  0  0  0  0
    5.3245    1.0567   -1.4615 H   0  0  0  0  0  0  0  0  0  0  0  0
  1  2  1  0
  2  3  2  0
  3  4  1  0
  4  5  2  0
  5  6  1  0
  6  7  2  0
  7  8  1  0
  8  9  1  0
  9 10  1  0
 10 11  1  0
 11 12  3  0
 10 13  1  0
 13 14  2  3
 14 15  1  0
 15 16  2  0
 16 17  1  0
 17 18  2  0
 18 19  1  0
 19 20  2  0
 20 21  1  0
 21 22  1  0
 22 23  1  0
 22 24  1  0
 22 25  1  0
  9 26  2  0
  5 27  1  0
 27 28  1  0
 27 29  2  0
 29  2  1  0
 26  6  1  0
 20 15  1  0
  1 30  1  0
  1 31  1  0
  1 32  1  0
  3 33  1  0
  4 34  1  0
  7 35  1  0
 10 36  1  0
 13 37  1  0
 16 38  1  0
 17 39  1  0
 18 40  1  0
 19 41  1  0
 28 42  1  0
 28 43  1  0
 28 44  1  0
 29 45  1  0
M  END
$$$$
