
     RDKit          3D

 43 45  0  0  0  0  0  0  0  0999 V2000
    6.8012   -2.4445    0.1798 C   0  0  0  0  0  0  0  0  0  0  0  0
    5.7312   -1.8610    0.9122 O   0  0  0  0  0  0  0  0  0  0  0  0
    4.7361   -1.2674    0.1876 C   0  0  0  0  0  0  0  0  0  0  0  0
    4.6665   -1.1864   -1.2013 C   0  0  0  0  0  0  0  0  0  0  0  0
    3.5819   -0.5457   -1.8146 C   0  0  0  0  0  0  0  0  0  0  0  0
    2.5535    0.0302   -1.0557 C   0  0  0  0  0  0  0  0  0  0  0  0
    1.4610    0.6245   -1.7351 N   0  0  0  0  0  0  0  0  0  0  0  0
    0.2439    0.9887   -1.2583 C   0  0  0  0  0  0  0  0  0  0  0  0
   -0.3957    2.2084   -1.5506 C   0  0  0  0  0  0  0  0  0  0  0  0
   -1.5973    2.2202   -0.8740 C   0  0  0  0  0  0  0  0  0  0  0  0
   -2.5399    3.1614   -0.8373 O   0  0  0  0  0  0  0  0  0  0  0  0
   -1.7504    0.9930   -0.2246 N   0  0  0  0  0  0  0  0  0  0  0  0
   -2.8644    0.6212    0.5905 C   0  0  0  0  0  0  0  0  0  0  0  0
   -3.3222    1.5660    1.5283 C   0  0  0  0  0  0  0  0  0  0  0  0
   -4.3753    1.2423    2.3909 C   0  0  0  0  0  0  0  0  0  0  0  0
   -4.8371    2.2249    3.3786 N   0  0  0  0  0  4  0  0  0  0  0  0
   -4.2131    3.2918    3.4718 O   0  0  0  0  0  0  0  0  0  0  0  0
   -5.8262    1.9302    4.0659 O   0  0  0  0  0  1  0  0  0  0  0  0
   -4.9834   -0.0136    2.3298 C   0  0  0  0  0  0  0  0  0  0  0  0
   -4.5450   -0.9403    1.3829 C   0  0  0  0  0  0  0  0  0  0  0  0
   -3.5018   -0.6345    0.4860 C   0  0  0  0  0  0  0  0  0  0  0  0
   -3.1816   -1.6678   -0.5616 C   0  0  0  0  0  0  0  0  0  0  0  0
   -0.6030    0.2394   -0.4653 C   0  0  0  0  0  0  0  0  0  0  0  0
   -0.4280   -0.9773    0.0514 O   0  0  0  0  0  0  0  0  0  0  0  0
    2.6299   -0.0661    0.3367 C   0  0  0  0  0  0  0  0  0  0  0  0
    3.7125   -0.7047    0.9505 C   0  0  0  0  0  0  0  0  0  0  0  0
    6.4445   -3.2613   -0.4564 H   0  0  0  0  0  0  0  0  0  0  0  0
    7.5078   -2.8679    0.9001 H   0  0  0  0  0  0  0  0  0  0  0  0
    7.3356   -1.6901   -0.4071 H   0  0  0  0  0  0  0  0  0  0  0  0
    5.4328   -1.6144   -1.8387 H   0  0  0  0  0  0  0  0  0  0  0  0
    3.5417   -0.5126   -2.9010 H   0  0  0  0  0  0  0  0  0  0  0  0
    1.8197    1.1553   -2.5277 H   0  0  0  0  0  0  0  0  0  0  0  0
   -0.0114    3.0126   -2.1623 H   0  0  0  0  0  0  0  0  0  0  0  0
   -2.2322    3.9134   -1.3738 H   0  0  0  0  0  0  0  0  0  0  0  0
   -2.8350    2.5364    1.6069 H   0  0  0  0  0  0  0  0  0  0  0  0
   -5.7978   -0.2837    2.9985 H   0  0  0  0  0  0  0  0  0  0  0  0
   -5.0398   -1.9096    1.3303 H   0  0  0  0  0  0  0  0  0  0  0  0
   -2.7585   -1.2204   -1.4654 H   0  0  0  0  0  0  0  0  0  0  0  0
   -4.0969   -2.1792   -0.8823 H   0  0  0  0  0  0  0  0  0  0  0  0
   -2.4974   -2.4212   -0.1614 H   0  0  0  0  0  0  0  0  0  0  0  0
    0.4151   -1.3033   -0.3174 H   0  0  0  0  0  0  0  0  0  0  0  0
    1.8621    0.3727    0.9693 H   0  0  0  0  0  0  0  0  0  0  0  0
    3.7563   -0.7601    2.0358 H   0  0  0  0  0  0  0  0  0  0  0  0
  1  2  1  0
  2  3  1  0
  3  4  2  0
  4  5  1  0
  5  6  2  0
  6  7  1  0
  7  8  1  0
  8  9  1  0
  9 10  2  0
 10 11  1  0
 10 12  1  0
 12 13  1  0
 13 14  2  0
 14 15  1  0
 15 16  1  0
 16 17  2  0
 16 18  1  0
 15 19  2  0
 19 20  1  0
 20 21  2  0
 21 22  1  0
 12 23  1  0
 23 24  1  0
  6 25  1  0
 25 26  2  0
 26  3  1  0
 23  8  2  0
 21 13  1  0
  1 27  1  0
  1 28  1  0
  1 29  1  0
  4 30  1  0
  5 31  1  0
  7 32  1  0
  9 33  1  0
 11 34  1  0
 14 35  1  0
 19 36  1  0
 20 37  1  0
 22 38  1  0
 22 39  1  0
 22 40  1  0
 24 41  1  0
 25 42  1  0
 26 43  1  0
M  CHG  2  16   1  18  -1
M  END
$$$$
