
     RDKit          3D

 42 44  0  0  0  0  0  0  0  0999 V2000
   -6.6009   -0.5419    1.3923 C   0  0  0  0  0  0  0  0  0  0  0  0
   -5.2792   -0.2172    0.7597 C   0  0  0  0  0  0  0  0  0  0  0  0
   -4.4269    0.7201    1.3523 C   0  0  0  0  0  0  0  0  0  0  0  0
   -3.1766    1.0215    0.7891 C   0  0  0  0  0  0  0  0  0  0  0  0
   -2.2930    2.0322    1.4714 C   0  0  0  0  0  0  0  0  0  0  0  0
   -2.7702    0.3549   -0.3886 C   0  0  0  0  0  0  0  0  0  0  0  0
   -1.4801    0.6661   -0.9862 C   0  0  0  0  0  0  0  0  0  0  0  0
   -1.3414    1.4946   -2.0823 C   0  0  0  0  0  0  0  0  0  0  0  0
    0.3191    1.6301   -2.4827 S   0  0  0  0  0  0  0  0  0  0  0  0
    0.7093    0.5886   -1.1906 C   0  0  0  0  0  0  0  0  0  0  0  0
    1.9935    0.2242   -0.8788 N   0  0  0  0  0  0  0  0  0  0  0  0
    3.1249    0.5065   -1.5959 C   0  0  0  0  0  0  0  0  0  0  0  0
    3.2160    1.0703   -2.6790 O   0  0  0  0  0  0  0  0  0  0  0  0
    4.3734   -0.0304   -0.9863 C   0  0  0  0  0  0  0  0  0  0  0  0
    4.6252    0.0249    0.3307 C   0  0  0  0  0  0  0  0  0  0  0  0
    5.8485   -0.4505    0.8929 C   0  0  0  0  0  0  0  0  0  0  0  0
    6.9626   -1.0324    0.3073 C   0  0  0  0  0  0  0  0  0  0  0  0
    7.9865   -1.3624    1.2465 C   0  0  0  0  0  0  0  0  0  0  0  0
    7.6296   -1.0282    2.5310 C   0  0  0  0  0  0  0  0  0  0  0  0
    6.0768   -0.3259    2.6015 S   0  0  0  0  0  0  0  0  0  0  0  0
   -0.3022    0.1567   -0.4711 N   0  0  0  0  0  0  0  0  0  0  0  0
   -3.6082   -0.6206   -0.9737 C   0  0  0  0  0  0  0  0  0  0  0  0
   -3.2123   -1.3720   -2.2168 C   0  0  0  0  0  0  0  0  0  0  0  0
   -4.8582   -0.8889   -0.3923 C   0  0  0  0  0  0  0  0  0  0  0  0
   -7.2956   -0.9615    0.6561 H   0  0  0  0  0  0  0  0  0  0  0  0
   -7.0670    0.3629    1.7976 H   0  0  0  0  0  0  0  0  0  0  0  0
   -6.4635   -1.2698    2.1986 H   0  0  0  0  0  0  0  0  0  0  0  0
   -4.7418    1.2226    2.2658 H   0  0  0  0  0  0  0  0  0  0  0  0
   -1.3975    1.5454    1.8719 H   0  0  0  0  0  0  0  0  0  0  0  0
   -2.0009    2.8240    0.7739 H   0  0  0  0  0  0  0  0  0  0  0  0
   -2.8105    2.5155    2.3077 H   0  0  0  0  0  0  0  0  0  0  0  0
   -2.1076    2.0094   -2.6456 H   0  0  0  0  0  0  0  0  0  0  0  0
    2.0377   -0.3958   -0.0833 H   0  0  0  0  0  0  0  0  0  0  0  0
    5.0918   -0.3900   -1.7152 H   0  0  0  0  0  0  0  0  0  0  0  0
    3.8951    0.4640    1.0079 H   0  0  0  0  0  0  0  0  0  0  0  0
    7.0591   -1.2152   -0.7559 H   0  0  0  0  0  0  0  0  0  0  0  0
    8.9337   -1.8187    0.9880 H   0  0  0  0  0  0  0  0  0  0  0  0
    8.2077   -1.1648    3.4347 H   0  0  0  0  0  0  0  0  0  0  0  0
   -3.8824   -2.2192   -2.3991 H   0  0  0  0  0  0  0  0  0  0  0  0
   -2.2008   -1.7802   -2.1233 H   0  0  0  0  0  0  0  0  0  0  0  0
   -3.2634   -0.7120   -3.0891 H   0  0  0  0  0  0  0  0  0  0  0  0
   -5.5106   -1.6366   -0.8411 H   0  0  0  0  0  0  0  0  0  0  0  0
  1  2  1  0
  2  3  2  0
  3  4  1  0
  4  5  1  0
  4  6  2  0
  6  7  1  0
  7  8  2  0
  8  9  1  0
  9 10  1  0
 10 11  1  0
 11 12  1  0
 12 13  2  0
 12 14  1  0
 14 15  2  3
 15 16  1  0
 16 17  2  0
 17 18  1  0
 18 19  2  0
 19 20  1  0
 10 21  2  0
  6 22  1  0
 22 23  1  0
 22 24  2  0
 24  2  1  0
 21  7  1  0
 20 16  1  0
  1 25  1  0
  1 26  1  0
  1 27  1  0
  3 28  1  0
  5 29  1  0
  5 30  1  0
  5 31  1  0
  8 32  1  0
 11 33  1  0
 14 34  1  0
 15 35  1  0
 17 36  1  0
 18 37  1  0
 19 38  1  0
 23 39  1  0
 23 40  1  0
 23 41  1  0
 24 42  1  0
M  END
$$$$
