
     RDKit          3D

 53 58  0  0  0  0  0  0  0  0999 V2000
    1.3216    1.1512   -1.3545 C   0  0  0  0  0  0  0  0  0  0  0  0
    0.5956    0.4157   -0.2137 C   0  0  0  0  0  0  0  0  0  0  0  0
    1.5391    0.1605    0.9771 C   0  0  0  0  0  0  0  0  0  0  0  0
    1.4564    0.7798    2.0416 O   0  0  0  0  0  0  0  0  0  0  0  0
    2.6083   -0.6755    0.8480 N   0  0  0  0  0  0  0  0  0  0  0  0
    3.0179   -1.4882   -0.2179 C   0  0  0  0  0  0  0  0  0  0  0  0
    4.3860   -1.8230   -0.2075 C   0  0  0  0  0  0  0  0  0  0  0  0
    4.9483   -2.5904   -1.2270 C   0  0  0  0  0  0  0  0  0  0  0  0
    6.6281   -2.9561   -1.1963 Cl  0  0  0  0  0  0  0  0  0  0  0  0
    4.1584   -3.0552   -2.2666 C   0  0  0  0  0  0  0  0  0  0  0  0
    2.7943   -2.7635   -2.2675 C   0  0  0  0  0  0  0  0  0  0  0  0
    2.2049   -1.9865   -1.2454 C   0  0  0  0  0  0  0  0  0  0  0  0
    0.7222   -1.9020   -1.2879 C   0  0  0  0  0  0  0  0  0  0  0  0
    0.1196   -2.7960   -1.8829 O   0  0  0  0  0  0  0  0  0  0  0  0
    0.0447   -0.8818   -0.6537 N   0  0  0  0  0  0  0  0  0  0  0  0
   -1.4204   -0.8924   -0.6491 C   0  0  0  0  0  0  0  0  0  0  0  0
   -2.0526   -1.6659    0.4830 C   0  0  0  0  0  0  0  0  0  0  0  0
   -1.4405   -2.7198    1.1712 C   0  0  0  0  0  0  0  0  0  0  0  0
   -2.1541   -3.4289    2.1404 C   0  0  0  0  0  0  0  0  0  0  0  0
   -1.3880   -4.7163    2.9887 Cl  0  0  0  0  0  0  0  0  0  0  0  0
   -3.4843   -3.1150    2.4195 C   0  0  0  0  0  0  0  0  0  0  0  0
   -4.1080   -2.0771    1.7291 C   0  0  0  0  0  0  0  0  0  0  0  0
   -3.3840   -1.3535    0.7863 C   0  0  0  0  0  0  0  0  0  0  0  0
   -4.0233   -0.3458    0.1126 O   0  0  0  0  0  0  0  0  0  0  0  0
   -3.1981    0.8225    0.0552 C   0  0  0  0  0  0  0  0  0  0  0  0
   -1.8195    0.5797   -0.5664 C   0  0  0  0  0  0  0  0  0  0  0  0
   -0.6779    1.2012    0.2730 C   0  0  0  0  0  0  0  0  0  0  0  0
   -0.6242    2.7227    0.2598 C   0  0  0  0  0  0  0  0  0  0  0  0
   -0.2411    3.3988    1.4302 C   0  0  0  0  0  0  0  0  0  0  0  0
   -0.1769    4.7932    1.4719 C   0  0  0  0  0  0  0  0  0  0  0  0
   -0.4955    5.5393    0.3423 C   0  0  0  0  0  0  0  0  0  0  0  0
   -0.8766    4.8900   -0.8277 C   0  0  0  0  0  0  0  0  0  0  0  0
   -0.9406    3.4942   -0.8696 C   0  0  0  0  0  0  0  0  0  0  0  0
    0.6498    1.3341   -2.2001 H   0  0  0  0  0  0  0  0  0  0  0  0
    1.7275    2.1098   -1.0130 H   0  0  0  0  0  0  0  0  0  0  0  0
    2.1740    0.5989   -1.7557 H   0  0  0  0  0  0  0  0  0  0  0  0
    3.2347   -0.5864    1.6418 H   0  0  0  0  0  0  0  0  0  0  0  0
    5.0344   -1.4630    0.5891 H   0  0  0  0  0  0  0  0  0  0  0  0
    4.5837   -3.6602   -3.0633 H   0  0  0  0  0  0  0  0  0  0  0  0
    2.1763   -3.1729   -3.0673 H   0  0  0  0  0  0  0  0  0  0  0  0
   -1.7866   -1.3254   -1.5893 H   0  0  0  0  0  0  0  0  0  0  0  0
   -0.4189   -3.0114    0.9477 H   0  0  0  0  0  0  0  0  0  0  0  0
   -4.0393   -3.6780    3.1647 H   0  0  0  0  0  0  0  0  0  0  0  0
   -5.1461   -1.8287    1.9296 H   0  0  0  0  0  0  0  0  0  0  0  0
   -3.1348    1.2498    1.0648 H   0  0  0  0  0  0  0  0  0  0  0  0
   -3.7365    1.5641   -0.5466 H   0  0  0  0  0  0  0  0  0  0  0  0
   -1.8083    0.9798   -1.5876 H   0  0  0  0  0  0  0  0  0  0  0  0
   -0.8821    0.9085    1.3153 H   0  0  0  0  0  0  0  0  0  0  0  0
    0.0125    2.8427    2.3321 H   0  0  0  0  0  0  0  0  0  0  0  0
    0.1225    5.2935    2.3894 H   0  0  0  0  0  0  0  0  0  0  0  0
   -0.4460    6.6244    0.3740 H   0  0  0  0  0  0  0  0  0  0  0  0
   -1.1237    5.4712   -1.7128 H   0  0  0  0  0  0  0  0  0  0  0  0
   -1.2326    3.0333   -1.8091 H   0  0  0  0  0  0  0  0  0  0  0  0
  1  2  1  0
  2  3  1  0
  3  4  2  0
  3  5  1  0
  5  6  1  0
  6  7  2  0
  7  8  1  0
  8  9  1  0
  8 10  2  0
 10 11  1  0
 11 12  2  0
 12 13  1  0
 13 14  2  0
 13 15  1  0
 15 16  1  0
 16 17  1  0
 17 18  2  0
 18 19  1  0
 19 20  1  0
 19 21  2  0
 21 22  1  0
 22 23  2  0
 23 24  1  0
 24 25  1  0
 25 26  1  0
 26 27  1  0
 27 28  1  0
 28 29  2  0
 29 30  1  0
 30 31  2  0
 31 32  1  0
 32 33  2  0
 15  2  1  0
 26 16  1  0
 33 28  1  0
 27  2  1  0
 12  6  1  0
 23 17  1  0
  1 34  1  0
  1 35  1  0
  1 36  1  0
  5 37  1  0
  7 38  1  0
 10 39  1  0
 11 40  1  0
 16 41  1  0
 18 42  1  0
 21 43  1  0
 22 44  1  0
 25 45  1  0
 25 46  1  0
 26 47  1  0
 27 48  1  0
 29 49  1  0
 30 50  1  0
 31 51  1  0
 32 52  1  0
 33 53  1  0
M  END
$$$$
