
     RDKit          3D

 47 49  0  0  0  0  0  0  0  0999 V2000
    6.5536   -1.3814    1.8305 C   0  0  0  0  0  0  0  0  0  0  0  0
    5.5222   -0.8298    0.8811 C   0  0  0  0  0  0  0  0  0  0  0  0
    4.1655   -1.1453    1.0872 C   0  0  0  0  0  0  0  0  0  0  0  0
    3.1814   -0.6606    0.2256 C   0  0  0  0  0  0  0  0  0  0  0  0
    1.8381   -0.9036    0.3155 O   0  0  0  0  0  0  0  0  0  0  0  0
    1.3995   -1.7557    1.3744 C   0  0  0  0  0  0  0  0  0  0  0  0
   -0.0693   -1.8868    1.2434 C   0  0  0  0  0  0  0  0  0  0  0  0
   -1.0795   -1.0638    0.8119 C   0  0  0  0  0  0  0  0  0  0  0  0
   -2.2630   -1.8341    0.9620 C   0  0  0  0  0  0  0  0  0  0  0  0
   -3.6403   -1.4371    0.6583 C   0  0  0  0  0  0  0  0  0  0  0  0
   -4.5134   -1.4607    1.5276 O   0  0  0  0  0  0  0  0  0  0  0  0
   -3.9185   -1.0049   -0.6455 N   0  0  0  0  0  0  0  0  0  0  0  0
   -2.9647   -1.0376   -1.7457 C   0  0  0  0  0  0  0  0  0  0  0  0
   -5.1233   -0.1964   -0.8278 C   0  0  0  0  0  0  0  0  0  0  0  0
   -4.9457    1.2646   -0.4414 C   0  0  0  0  0  0  0  0  0  0  0  0
   -6.0528    1.9949   -0.0073 C   0  0  0  0  0  0  0  0  0  0  0  0
   -5.8898    3.3409    0.3131 C   0  0  0  0  0  0  0  0  0  0  0  0
   -4.6362    3.9299    0.1775 C   0  0  0  0  0  0  0  0  0  0  0  0
   -3.5917    3.1440   -0.2752 C   0  0  0  0  0  0  0  0  0  0  0  0
   -3.7164    1.8351   -0.5888 N   0  0  0  0  0  0  0  0  0  0  0  0
   -1.9785   -3.0360    1.4894 N   0  0  0  0  0  0  0  0  0  0  0  0
   -0.6065   -3.0676    1.6471 O   0  0  0  0  0  0  0  0  0  0  0  0
    3.5518    0.1540   -0.8472 C   0  0  0  0  0  0  0  0  0  0  0  0
    4.8951    0.4923   -1.0779 C   0  0  0  0  0  0  0  0  0  0  0  0
    5.2364    1.3687   -2.2505 C   0  0  0  0  0  0  0  0  0  0  0  0
    5.8797   -0.0120   -0.2084 C   0  0  0  0  0  0  0  0  0  0  0  0
    7.5499    0.3768   -0.4811 Cl  0  0  0  0  0  0  0  0  0  0  0  0
    7.2564   -2.0289    1.2954 H   0  0  0  0  0  0  0  0  0  0  0  0
    6.0929   -1.9821    2.6228 H   0  0  0  0  0  0  0  0  0  0  0  0
    7.0986   -0.5649    2.3168 H   0  0  0  0  0  0  0  0  0  0  0  0
    3.9077   -1.7783    1.9329 H   0  0  0  0  0  0  0  0  0  0  0  0
    1.6337   -1.3081    2.3477 H   0  0  0  0  0  0  0  0  0  0  0  0
    1.8684   -2.7429    1.2850 H   0  0  0  0  0  0  0  0  0  0  0  0
   -0.9886   -0.0511    0.4432 H   0  0  0  0  0  0  0  0  0  0  0  0
   -2.3742   -0.1181   -1.7514 H   0  0  0  0  0  0  0  0  0  0  0  0
   -3.5045   -1.1313   -2.6929 H   0  0  0  0  0  0  0  0  0  0  0  0
   -2.2965   -1.8978   -1.6536 H   0  0  0  0  0  0  0  0  0  0  0  0
   -5.9276   -0.6313   -0.2222 H   0  0  0  0  0  0  0  0  0  0  0  0
   -5.4411   -0.2554   -1.8761 H   0  0  0  0  0  0  0  0  0  0  0  0
   -7.0286    1.5263    0.0905 H   0  0  0  0  0  0  0  0  0  0  0  0
   -6.7359    3.9232    0.6660 H   0  0  0  0  0  0  0  0  0  0  0  0
   -4.4780    4.9763    0.4154 H   0  0  0  0  0  0  0  0  0  0  0  0
   -2.5970    3.5604   -0.4154 H   0  0  0  0  0  0  0  0  0  0  0  0
    2.7742    0.5268   -1.5134 H   0  0  0  0  0  0  0  0  0  0  0  0
    5.8394    0.8133   -2.9755 H   0  0  0  0  0  0  0  0  0  0  0  0
    5.7818    2.2579   -1.9172 H   0  0  0  0  0  0  0  0  0  0  0  0
    4.3352    1.7186   -2.7668 H   0  0  0  0  0  0  0  0  0  0  0  0
  1  2  1  0
  2  3  2  0
  3  4  1  0
  4  5  1  0
  5  6  1  0
  6  7  1  0
  7  8  2  0
  8  9  1  0
  9 10  1  0
 10 11  2  0
 10 12  1  0
 12 13  1  0
 12 14  1  0
 14 15  1  0
 15 16  2  0
 16 17  1  0
 17 18  2  0
 18 19  1  0
 19 20  2  0
  9 21  2  0
 21 22  1  0
  4 23  2  0
 23 24  1  0
 24 25  1  0
 24 26  2  0
 26 27  1  0
 26  2  1  0
 22  7  1  0
 20 15  1  0
  1 28  1  0
  1 29  1  0
  1 30  1  0
  3 31  1  0
  6 32  1  0
  6 33  1  0
  8 34  1  0
 13 35  1  0
 13 36  1  0
 13 37  1  0
 14 38  1  0
 14 39  1  0
 16 40  1  0
 17 41  1  0
 18 42  1  0
 19 43  1  0
 23 44  1  0
 25 45  1  0
 25 46  1  0
 25 47  1  0
M  END
$$$$
