
     RDKit          3D

 49 51  0  0  0  0  0  0  0  0999 V2000
   -0.8780    3.5864    1.2900 N   0  0  0  0  0  0  0  0  0  0  0  0
    0.1305    2.7201    1.4993 C   0  0  0  0  0  0  0  0  0  0  0  0
    0.8414    2.7089    2.5844 N   0  0  0  0  0  0  0  0  0  0  0  0
    1.8239    1.6093    2.3697 C   0  0  0  0  0  0  0  0  0  0  0  0
    1.4954    0.9597    1.0059 C   0  0  0  0  0  0  0  0  0  0  0  0
    2.6815    0.9739    0.0321 C   0  0  0  0  0  0  0  0  0  0  0  0
    3.7501   -0.0303    0.3959 C   0  0  0  0  0  0  0  0  0  0  0  0
    3.5636   -1.3949    0.1265 C   0  0  0  0  0  0  0  0  0  0  0  0
    4.5436   -2.3279    0.4735 C   0  0  0  0  0  0  0  0  0  0  0  0
    5.7118   -1.8948    1.0908 C   0  0  0  0  0  0  0  0  0  0  0  0
    6.6945   -2.7700    1.4471 O   0  0  0  0  0  0  0  0  0  0  0  0
    5.9147   -0.5481    1.3638 C   0  0  0  0  0  0  0  0  0  0  0  0
    4.9364    0.3845    1.0163 C   0  0  0  0  0  0  0  0  0  0  0  0
    0.4155    1.8230    0.5195 N   0  0  0  0  0  0  0  0  0  0  0  0
   -0.5817    1.2545   -0.3829 C   0  0  0  0  0  0  0  0  0  0  0  0
   -1.6497    0.4430    0.3639 C   0  0  0  0  0  0  0  0  0  0  0  0
   -2.6583   -0.1589   -0.5870 C   0  0  0  0  0  0  0  0  0  0  0  0
   -3.8032    0.5620   -0.9527 C   0  0  0  0  0  0  0  0  0  0  0  0
   -4.7440    0.0209   -1.8426 C   0  0  0  0  0  0  0  0  0  0  0  0
   -5.9658    0.8165   -2.2396 C   0  0  0  0  0  0  0  0  0  0  0  0
   -7.0189    0.0323   -2.6012 F   0  0  0  0  0  0  0  0  0  0  0  0
   -6.4258    1.6223   -1.2431 F   0  0  0  0  0  0  0  0  0  0  0  0
   -5.7237    1.6329   -3.3014 F   0  0  0  0  0  0  0  0  0  0  0  0
   -4.5113   -1.2538   -2.3843 C   0  0  0  0  0  0  0  0  0  0  0  0
   -3.3643   -1.9879   -2.0409 C   0  0  0  0  0  0  0  0  0  0  0  0
   -3.1365   -3.3696   -2.6084 C   0  0  0  0  0  0  0  0  0  0  0  0
   -3.6549   -3.5236   -3.8581 F   0  0  0  0  0  0  0  0  0  0  0  0
   -3.7011   -4.3426   -1.8433 F   0  0  0  0  0  0  0  0  0  0  0  0
   -1.8164   -3.6908   -2.7116 F   0  0  0  0  0  0  0  0  0  0  0  0
   -2.4483   -1.4316   -1.1344 C   0  0  0  0  0  0  0  0  0  0  0  0
   -0.8771    4.2939    2.0186 H   0  0  0  0  0  0  0  0  0  0  0  0
   -0.8271    4.0187    0.3767 H   0  0  0  0  0  0  0  0  0  0  0  0
    1.7271    0.8762    3.1779 H   0  0  0  0  0  0  0  0  0  0  0  0
    2.8341    2.0285    2.4100 H   0  0  0  0  0  0  0  0  0  0  0  0
    1.1320   -0.0621    1.1694 H   0  0  0  0  0  0  0  0  0  0  0  0
    3.1141    1.9812   -0.0319 H   0  0  0  0  0  0  0  0  0  0  0  0
    2.3371    0.7469   -0.9855 H   0  0  0  0  0  0  0  0  0  0  0  0
    2.6545   -1.7402   -0.3609 H   0  0  0  0  0  0  0  0  0  0  0  0
    4.3794   -3.3781    0.2543 H   0  0  0  0  0  0  0  0  0  0  0  0
    6.4208   -3.6657    1.1908 H   0  0  0  0  0  0  0  0  0  0  0  0
    6.8332   -0.2239    1.8452 H   0  0  0  0  0  0  0  0  0  0  0  0
    5.1101    1.4362    1.2346 H   0  0  0  0  0  0  0  0  0  0  0  0
   -1.0536    2.0603   -0.9589 H   0  0  0  0  0  0  0  0  0  0  0  0
   -0.0808    0.6182   -1.1232 H   0  0  0  0  0  0  0  0  0  0  0  0
   -2.1752    1.0696    1.0949 H   0  0  0  0  0  0  0  0  0  0  0  0
   -1.1842   -0.3591    0.9500 H   0  0  0  0  0  0  0  0  0  0  0  0
   -3.9707    1.5555   -0.5338 H   0  0  0  0  0  0  0  0  0  0  0  0
   -5.2335   -1.6810   -3.0826 H   0  0  0  0  0  0  0  0  0  0  0  0
   -1.5612   -2.0003   -0.8539 H   0  0  0  0  0  0  0  0  0  0  0  0
  1  2  1  0
  2  3  2  0
  3  4  1  0
  4  5  1  0
  5  6  1  0
  6  7  1  0
  7  8  2  0
  8  9  1  0
  9 10  2  0
 10 11  1  0
 10 12  1  0
 12 13  2  0
  5 14  1  0
 14 15  1  0
 15 16  1  0
 16 17  1  0
 17 18  2  0
 18 19  1  0
 19 20  1  0
 20 21  1  0
 20 22  1  0
 20 23  1  0
 19 24  2  0
 24 25  1  0
 25 26  1  0
 26 27  1  0
 26 28  1  0
 26 29  1  0
 25 30  2  0
 14  2  1  0
 30 17  1  0
 13  7  1  0
  1 31  1  0
  1 32  1  0
  4 33  1  0
  4 34  1  0
  5 35  1  0
  6 36  1  0
  6 37  1  0
  8 38  1  0
  9 39  1  0
 11 40  1  0
 12 41  1  0
 13 42  1  0
 15 43  1  0
 15 44  1  0
 16 45  1  0
 16 46  1  0
 18 47  1  0
 24 48  1  0
 30 49  1  0
M  END
$$$$
