
     RDKit          3D

 39 40  0  0  0  0  0  0  0  0999 V2000
   -7.0288   -0.3736   -0.9169 N   0  0  0  0  0  0  0  0  0  0  0  0
   -6.6582   -1.2558    0.4700 S   0  0  0  0  0  6  0  0  0  0  0  0
   -6.8090   -2.6573    0.1618 O   0  0  0  0  0  0  0  0  0  0  0  0
   -7.3830   -0.6100    1.5405 O   0  0  0  0  0  0  0  0  0  0  0  0
   -4.9317   -0.9035    0.6616 C   0  0  0  0  0  0  0  0  0  0  0  0
   -4.0018   -1.6243   -0.0917 C   0  0  0  0  0  0  0  0  0  0  0  0
   -2.6412   -1.3543    0.0574 C   0  0  0  0  0  0  0  0  0  0  0  0
   -2.2056   -0.3771    0.9650 C   0  0  0  0  0  0  0  0  0  0  0  0
   -0.7312   -0.0864    1.1126 C   0  0  0  0  0  0  0  0  0  0  0  0
   -0.2663    0.9880    0.1254 C   0  0  0  0  0  0  0  0  0  0  0  0
    1.1513    1.2876    0.2504 N   0  0  0  0  0  0  0  0  0  0  0  0
    2.0864    0.4009   -0.2543 C   0  0  0  0  0  0  0  0  0  0  0  0
    1.7753   -0.6662   -0.7641 O   0  0  0  0  0  0  0  0  0  0  0  0
    3.3614    0.8918   -0.0747 N   0  0  0  0  0  0  0  0  0  0  0  0
    4.5704    0.3212   -0.5198 C   0  0  0  0  0  0  0  0  0  0  0  0
    4.6400   -0.7760   -1.3804 C   0  0  0  0  0  0  0  0  0  0  0  0
    5.8795   -1.2831   -1.7874 C   0  0  0  0  0  0  0  0  0  0  0  0
    7.0635   -0.6946   -1.3413 C   0  0  0  0  0  0  0  0  0  0  0  0
    8.5569   -1.3699   -1.8842 Cl  0  0  0  0  0  0  0  0  0  0  0  0
    7.0031    0.4078   -0.4852 C   0  0  0  0  0  0  0  0  0  0  0  0
    8.4211    1.1983    0.1088 Cl  0  0  0  0  0  0  0  0  0  0  0  0
    5.7609    0.9125   -0.0795 C   0  0  0  0  0  0  0  0  0  0  0  0
   -3.1514    0.3333    1.7186 C   0  0  0  0  0  0  0  0  0  0  0  0
   -4.5144    0.0691    1.5727 C   0  0  0  0  0  0  0  0  0  0  0  0
   -7.6939    0.3611   -0.6702 H   0  0  0  0  0  0  0  0  0  0  0  0
   -6.2054   -0.0023   -1.3887 H   0  0  0  0  0  0  0  0  0  0  0  0
   -4.3266   -2.3983   -0.7847 H   0  0  0  0  0  0  0  0  0  0  0  0
   -1.9171   -1.9183   -0.5296 H   0  0  0  0  0  0  0  0  0  0  0  0
   -0.5199    0.2349    2.1408 H   0  0  0  0  0  0  0  0  0  0  0  0
   -0.1649   -1.0160    0.9777 H   0  0  0  0  0  0  0  0  0  0  0  0
   -0.8043    1.9255    0.3076 H   0  0  0  0  0  0  0  0  0  0  0  0
   -0.4690    0.6871   -0.9095 H   0  0  0  0  0  0  0  0  0  0  0  0
    1.4023    2.2592    0.1401 H   0  0  0  0  0  0  0  0  0  0  0  0
    3.4315    1.6635    0.5724 H   0  0  0  0  0  0  0  0  0  0  0  0
    3.7449   -1.2616   -1.7596 H   0  0  0  0  0  0  0  0  0  0  0  0
    5.9077   -2.1406   -2.4562 H   0  0  0  0  0  0  0  0  0  0  0  0
    5.7338    1.7711    0.5868 H   0  0  0  0  0  0  0  0  0  0  0  0
   -2.8302    1.0890    2.4330 H   0  0  0  0  0  0  0  0  0  0  0  0
   -5.2359    0.6170    2.1751 H   0  0  0  0  0  0  0  0  0  0  0  0
  1  2  1  0
  2  3  2  0
  2  4  2  0
  2  5  1  0
  5  6  2  0
  6  7  1  0
  7  8  2  0
  8  9  1  0
  9 10  1  0
 10 11  1  0
 11 12  1  0
 12 13  2  0
 12 14  1  0
 14 15  1  0
 15 16  2  0
 16 17  1  0
 17 18  2  0
 18 19  1  0
 18 20  1  0
 20 21  1  0
 20 22  2  0
  8 23  1  0
 23 24  2  0
 24  5  1  0
 22 15  1  0
  1 25  1  0
  1 26  1  0
  6 27  1  0
  7 28  1  0
  9 29  1  0
  9 30  1  0
 10 31  1  0
 10 32  1  0
 11 33  1  0
 14 34  1  0
 16 35  1  0
 17 36  1  0
 22 37  1  0
 23 38  1  0
 24 39  1  0
M  END
$$$$
