
     RDKit          3D

 59 62  0  0  0  0  0  0  0  0999 V2000
    0.2269   -1.3773    2.2814 O   0  0  0  0  0  0  0  0  0  0  0  0
    0.5274   -0.4657    1.5033 C   0  0  0  0  0  0  0  0  0  0  0  0
   -0.4701    0.6783    1.2661 C   0  0  0  0  0  0  0  0  0  0  0  0
   -0.9625    0.7013   -0.1284 N   0  0  0  0  0  0  0  0  0  0  0  0
   -1.7400   -0.5140   -0.4705 C   0  0  0  0  0  0  0  0  0  0  0  0
   -3.1175   -0.6486    0.2205 C   0  0  0  0  0  0  0  0  0  0  0  0
   -3.9228    0.5818    0.0655 N   0  0  0  0  0  0  0  0  0  0  0  0
   -5.2865    0.4094    0.2522 C   0  0  0  0  0  0  0  0  0  0  0  0
   -5.7971   -0.6990   -0.3543 N   0  0  0  0  0  0  0  0  0  0  0  0
   -7.1234   -0.9624   -0.3093 C   0  0  0  0  0  0  0  0  0  0  0  0
   -8.0413   -0.1625    0.3337 C   0  0  0  0  0  0  0  0  0  0  0  0
   -9.4880   -0.5366    0.3485 C   0  0  0  0  0  0  0  0  0  0  0  0
  -10.3024    0.4775    0.7516 F   0  0  0  0  0  0  0  0  0  0  0  0
   -9.7451   -1.5780    1.1855 F   0  0  0  0  0  0  0  0  0  0  0  0
   -9.9467   -0.9175   -0.8753 F   0  0  0  0  0  0  0  0  0  0  0  0
   -7.5415    0.9644    0.9810 C   0  0  0  0  0  0  0  0  0  0  0  0
   -6.1680    1.2608    0.9465 C   0  0  0  0  0  0  0  0  0  0  0  0
   -5.7113    2.6519    1.8706 Cl  0  0  0  0  0  0  0  0  0  0  0  0
   -3.2155    1.8346    0.3379 C   0  0  0  0  0  0  0  0  0  0  0  0
   -1.8343    1.8725   -0.3631 C   0  0  0  0  0  0  0  0  0  0  0  0
    1.7405   -0.4454    0.8365 N   0  0  0  0  0  0  0  0  0  0  0  0
    2.7315   -1.4875    1.1060 C   0  0  0  0  0  0  0  0  0  0  0  0
    3.9252   -0.9082    1.8907 C   0  0  0  0  0  0  0  0  0  0  0  0
    4.5196    0.2727    1.2091 N   0  0  0  0  0  0  0  0  0  0  0  0
    5.4429   -0.0689    0.2057 C   0  0  0  0  0  0  0  0  0  0  0  0
    5.0787    0.1085   -1.0886 N   0  0  0  0  0  0  0  0  0  0  0  0
    5.9512   -0.2271   -2.0688 C   0  0  0  0  0  0  0  0  0  0  0  0
    7.2167   -0.7372   -1.8404 C   0  0  0  0  0  0  0  0  0  0  0  0
    8.1004   -1.0851   -2.9957 C   0  0  0  0  0  0  0  0  0  0  0  0
    9.3663   -1.4230   -2.6269 F   0  0  0  0  0  0  0  0  0  0  0  0
    7.6245   -2.1401   -3.7108 F   0  0  0  0  0  0  0  0  0  0  0  0
    8.2303   -0.0602   -3.8814 F   0  0  0  0  0  0  0  0  0  0  0  0
    7.6046   -0.9054   -0.5111 C   0  0  0  0  0  0  0  0  0  0  0  0
    6.7230   -0.5655    0.5191 C   0  0  0  0  0  0  0  0  0  0  0  0
    7.3018   -0.7191    2.1428 Cl  0  0  0  0  0  0  0  0  0  0  0  0
    3.5124    1.2882    0.8111 C   0  0  0  0  0  0  0  0  0  0  0  0
    2.2859    0.6919    0.0849 C   0  0  0  0  0  0  0  0  0  0  0  0
    0.0373    1.6173    1.5179 H   0  0  0  0  0  0  0  0  0  0  0  0
   -1.2842    0.5678    1.9917 H   0  0  0  0  0  0  0  0  0  0  0  0
   -1.1482   -1.4177   -0.2845 H   0  0  0  0  0  0  0  0  0  0  0  0
   -1.9038   -0.5016   -1.5569 H   0  0  0  0  0  0  0  0  0  0  0  0
   -2.9839   -0.8584    1.2890 H   0  0  0  0  0  0  0  0  0  0  0  0
   -3.6034   -1.5269   -0.2205 H   0  0  0  0  0  0  0  0  0  0  0  0
   -7.4216   -1.8701   -0.8307 H   0  0  0  0  0  0  0  0  0  0  0  0
   -8.2224    1.6175    1.5256 H   0  0  0  0  0  0  0  0  0  0  0  0
   -3.7825    2.6870   -0.0526 H   0  0  0  0  0  0  0  0  0  0  0  0
   -3.0699    1.9606    1.4162 H   0  0  0  0  0  0  0  0  0  0  0  0
   -1.3071    2.7919   -0.0789 H   0  0  0  0  0  0  0  0  0  0  0  0
   -1.9984    1.9538   -1.4463 H   0  0  0  0  0  0  0  0  0  0  0  0
    3.0627   -1.8830    0.1386 H   0  0  0  0  0  0  0  0  0  0  0  0
    2.2916   -2.3189    1.6656 H   0  0  0  0  0  0  0  0  0  0  0  0
    4.6580   -1.7021    2.0688 H   0  0  0  0  0  0  0  0  0  0  0  0
    3.5769   -0.5775    2.8775 H   0  0  0  0  0  0  0  0  0  0  0  0
    5.5798   -0.0638   -3.0793 H   0  0  0  0  0  0  0  0  0  0  0  0
    8.5956   -1.2876   -0.2736 H   0  0  0  0  0  0  0  0  0  0  0  0
    3.1615    1.7660    1.7352 H   0  0  0  0  0  0  0  0  0  0  0  0
    3.9656    2.0884    0.2129 H   0  0  0  0  0  0  0  0  0  0  0  0
    1.5469    1.4804   -0.0612 H   0  0  0  0  0  0  0  0  0  0  0  0
    2.5537    0.3174   -0.9082 H   0  0  0  0  0  0  0  0  0  0  0  0
  1  2  2  0
  2  3  1  0
  3  4  1  0
  4  5  1  0
  5  6  1  0
  6  7  1  0
  7  8  1  0
  8  9  2  0
  9 10  1  0
 10 11  2  0
 11 12  1  0
 12 13  1  0
 12 14  1  0
 12 15  1  0
 11 16  1  0
 16 17  2  0
 17 18  1  0
  7 19  1  0
 19 20  1  0
  2 21  1  0
 21 22  1  0
 22 23  1  0
 23 24  1  0
 24 25  1  0
 25 26  2  0
 26 27  1  0
 27 28  2  0
 28 29  1  0
 29 30  1  0
 29 31  1  0
 29 32  1  0
 28 33  1  0
 33 34  2  0
 34 35  1  0
 24 36  1  0
 36 37  1  0
 20  4  1  0
 37 21  1  0
 17  8  1  0
 34 25  1  0
  3 38  1  0
  3 39  1  0
  5 40  1  0
  5 41  1  0
  6 42  1  0
  6 43  1  0
 10 44  1  0
 16 45  1  0
 19 46  1  0
 19 47  1  0
 20 48  1  0
 20 49  1  0
 22 50  1  0
 22 51  1  0
 23 52  1  0
 23 53  1  0
 27 54  1  0
 33 55  1  0
 36 56  1  0
 36 57  1  0
 37 58  1  0
 37 59  1  0
M  END
$$$$
