
     RDKit          3D

 33 36  0  0  0  0  0  0  0  0999 V2000
    0.0868   -0.1510    1.8465 O   0  0  0  0  0  0  0  0  0  0  0  0
    0.8747   -0.4323    0.9604 C   0  0  0  0  0  0  0  0  0  0  0  0
    0.6980   -1.6639    0.1021 C   0  0  0  0  0  0  0  0  0  0  0  0
   -0.4102   -2.0326   -0.4727 N   0  0  0  0  0  0  0  0  0  0  0  0
   -1.5689   -1.2554   -0.3141 C   0  0  0  0  0  0  0  0  0  0  0  0
   -2.5185   -1.6455    0.6890 C   0  0  0  0  0  0  0  0  0  0  0  0
   -3.7315   -0.9716    0.9474 C   0  0  0  0  0  0  0  0  0  0  0  0
   -3.8817    0.1083    0.0899 C   0  0  0  0  0  0  0  0  0  0  0  0
   -4.9417    0.9694    0.0725 C   0  0  0  0  0  0  0  0  0  0  0  0
   -4.6513    1.8509   -0.9289 N   0  0  0  0  0  0  0  0  0  0  0  0
   -3.4809    1.6193   -1.5563 N   0  0  0  0  0  0  0  0  0  0  0  0
   -2.9738    0.5350   -0.9439 C   0  0  0  0  0  0  0  0  0  0  0  0
   -1.7768   -0.1576   -1.1806 C   0  0  0  0  0  0  0  0  0  0  0  0
    1.9606   -2.4334   -0.1278 C   0  0  0  0  0  0  0  0  0  0  0  0
    2.3912   -3.2853    1.3744 Cl  0  0  0  0  0  0  0  0  0  0  0  0
    3.1211   -1.5556   -0.5250 C   0  0  0  0  0  0  0  0  0  0  0  0
    4.0730   -1.9803   -1.1765 O   0  0  0  0  0  0  0  0  0  0  0  0
    3.1241   -0.1402   -0.0666 C   0  0  0  0  0  0  0  0  0  0  0  0
    4.2335    0.6672   -0.3503 C   0  0  0  0  0  0  0  0  0  0  0  0
    4.2770    1.9860    0.1074 C   0  0  0  0  0  0  0  0  0  0  0  0
    3.2189    2.5039    0.8539 C   0  0  0  0  0  0  0  0  0  0  0  0
    2.1103    1.7072    1.1395 C   0  0  0  0  0  0  0  0  0  0  0  0
    2.0613    0.3891    0.6707 C   0  0  0  0  0  0  0  0  0  0  0  0
   -2.2786   -2.5171    1.2990 H   0  0  0  0  0  0  0  0  0  0  0  0
   -4.4282   -1.2752    1.7152 H   0  0  0  0  0  0  0  0  0  0  0  0
   -5.8491    1.0434    0.6534 H   0  0  0  0  0  0  0  0  0  0  0  0
   -5.2084    2.6387   -1.2417 H   0  0  0  0  0  0  0  0  0  0  0  0
   -1.0866    0.1263   -1.9601 H   0  0  0  0  0  0  0  0  0  0  0  0
    1.7953   -3.1783   -0.9132 H   0  0  0  0  0  0  0  0  0  0  0  0
    5.0744    0.2732   -0.9200 H   0  0  0  0  0  0  0  0  0  0  0  0
    5.1423    2.6083   -0.1132 H   0  0  0  0  0  0  0  0  0  0  0  0
    3.2579    3.5303    1.2137 H   0  0  0  0  0  0  0  0  0  0  0  0
    1.2858    2.1188    1.7204 H   0  0  0  0  0  0  0  0  0  0  0  0
  1  2  2  0
  2  3  1  0
  3  4  2  3
  4  5  1  0
  5  6  1  0
  6  7  2  0
  7  8  1  0
  8  9  2  0
  9 10  1  0
 10 11  1  0
 11 12  2  0
 12 13  1  0
  3 14  1  0
 14 15  1  0
 14 16  1  0
 16 17  2  0
 16 18  1  0
 18 19  2  0
 19 20  1  0
 20 21  2  0
 21 22  1  0
 22 23  2  0
 23  2  1  0
 13  5  2  0
 23 18  1  0
 12  8  1  0
  6 24  1  0
  7 25  1  0
  9 26  1  0
 10 27  1  0
 13 28  1  0
 14 29  1  0
 19 30  1  0
 20 31  1  0
 21 32  1  0
 22 33  1  0
M  END
$$$$
