
     RDKit          3D

 28 30  0  0  0  0  0  0  0  0999 V2000
   -0.5698    1.2666   -1.4401 O   0  0  0  0  0  0  0  0  0  0  0  0
   -0.8279    0.2596   -0.7861 C   0  0  0  0  0  0  0  0  0  0  0  0
   -2.1140    0.1431   -0.1054 C   0  0  0  0  0  0  0  0  0  0  0  0
   -3.0859    1.1481   -0.1819 C   0  0  0  0  0  0  0  0  0  0  0  0
   -4.2961    0.9825    0.4886 C   0  0  0  0  0  0  0  0  0  0  0  0
   -4.5247   -0.1784    1.2260 C   0  0  0  0  0  0  0  0  0  0  0  0
   -3.5417   -1.1712    1.2909 C   0  0  0  0  0  0  0  0  0  0  0  0
   -2.3215   -1.0175    0.6218 C   0  0  0  0  0  0  0  0  0  0  0  0
   -1.3662   -2.0347    0.7150 N   0  0  0  0  0  0  0  0  0  0  0  0
   -0.2704   -1.9158    0.1267 N   0  0  0  0  0  0  0  0  0  0  0  0
    0.0227   -0.8152   -0.6292 N   0  0  0  0  0  0  0  0  0  0  0  0
    1.3454   -0.7967   -1.2417 C   0  0  0  0  0  0  0  0  0  0  0  0
    2.4192   -0.2829   -0.3076 C   0  0  0  0  0  0  0  0  0  0  0  0
    2.5205    1.0789   -0.0240 C   0  0  0  0  0  0  0  0  0  0  0  0
    3.5143    1.5152    0.8479 C   0  0  0  0  0  0  0  0  0  0  0  0
    4.3790    0.5876    1.4140 C   0  0  0  0  0  0  0  0  0  0  0  0
    4.2149   -0.7455    1.0811 C   0  0  0  0  0  0  0  0  0  0  0  0
    3.2625   -1.1985    0.2365 N   0  0  0  0  0  0  0  0  0  0  0  0
   -2.8998    2.0507   -0.7595 H   0  0  0  0  0  0  0  0  0  0  0  0
   -5.0587    1.7560    0.4366 H   0  0  0  0  0  0  0  0  0  0  0  0
   -5.4673   -0.3131    1.7517 H   0  0  0  0  0  0  0  0  0  0  0  0
   -3.7266   -2.0741    1.8688 H   0  0  0  0  0  0  0  0  0  0  0  0
    1.3301   -0.1785   -2.1473 H   0  0  0  0  0  0  0  0  0  0  0  0
    1.5884   -1.8174   -1.5624 H   0  0  0  0  0  0  0  0  0  0  0  0
    1.8379    1.7946   -0.4733 H   0  0  0  0  0  0  0  0  0  0  0  0
    3.6097    2.5714    1.0833 H   0  0  0  0  0  0  0  0  0  0  0  0
    5.1615    0.8952    2.0981 H   0  0  0  0  0  0  0  0  0  0  0  0
    4.8645   -1.5100    1.4974 H   0  0  0  0  0  0  0  0  0  0  0  0
  1  2  2  0
  2  3  1  0
  3  4  2  0
  4  5  1  0
  5  6  2  0
  6  7  1  0
  7  8  2  0
  8  9  1  0
  9 10  2  0
 10 11  1  0
 11 12  1  0
 12 13  1  0
 13 14  2  0
 14 15  1  0
 15 16  2  0
 16 17  1  0
 17 18  2  0
 11  2  1  0
 18 13  1  0
  8  3  1  0
  4 19  1  0
  5 20  1  0
  6 21  1  0
  7 22  1  0
 12 23  1  0
 12 24  1  0
 14 25  1  0
 15 26  1  0
 16 27  1  0
 17 28  1  0
M  END
$$$$
