
     RDKit          3D

 67 72  0  0  0  0  0  0  0  0999 V2000
   -3.2732    5.7116    0.0205 C   0  0  0  0  0  0  0  0  0  0  0  0
   -2.4381    4.9847    0.9152 O   0  0  0  0  0  0  0  0  0  0  0  0
   -2.0398    3.7399    0.5150 C   0  0  0  0  0  0  0  0  0  0  0  0
   -1.1772    3.0893    1.3986 C   0  0  0  0  0  0  0  0  0  0  0  0
   -0.7027    1.8063    1.1188 C   0  0  0  0  0  0  0  0  0  0  0  0
   -1.0866    1.1432   -0.0543 C   0  0  0  0  0  0  0  0  0  0  0  0
   -0.6339   -0.2754   -0.3676 C   0  0  0  0  0  0  0  0  0  0  0  0
   -1.1160   -1.2921    0.6968 C   0  0  0  0  0  0  0  0  0  0  0  0
   -2.4580   -1.9200    0.2830 C   0  0  0  0  0  0  0  0  0  0  0  0
   -2.6006   -2.4438   -0.8301 O   0  0  0  0  0  0  0  0  0  0  0  0
   -3.6314   -1.8578    1.2847 C   0  0  0  0  0  0  0  0  0  0  0  0
   -4.0527   -0.3943    1.4869 C   0  0  0  0  0  0  0  0  0  0  0  0
   -4.8369   -2.6363    0.7111 C   0  0  0  0  0  0  0  0  0  0  0  0
   -3.2469   -2.5078    2.6226 C   0  0  0  0  0  0  0  0  0  0  0  0
   -0.0562   -2.2838    0.7393 N   0  0  0  0  0  0  0  0  0  0  0  0
   -0.1616   -3.3519    1.5831 N   0  0  0  0  0  0  0  0  0  0  0  0
    0.8230   -4.2031    1.5208 C   0  0  0  0  0  0  0  0  0  0  0  0
    2.0232   -4.0262    0.6830 C   0  0  0  0  0  0  0  0  0  0  0  0
    2.9187   -5.0827    0.5127 C   0  0  0  0  0  0  0  0  0  0  0  0
    4.0732   -4.8766   -0.2377 C   0  0  0  0  0  0  0  0  0  0  0  0
    4.3305   -3.6207   -0.7871 C   0  0  0  0  0  0  0  0  0  0  0  0
    3.4370   -2.5594   -0.5946 C   0  0  0  0  0  0  0  0  0  0  0  0
    2.2500   -2.7606    0.1161 C   0  0  0  0  0  0  0  0  0  0  0  0
    1.2402   -1.6869    0.4337 C   0  0  0  0  0  0  0  0  0  0  0  0
    0.8997   -0.5400   -0.5362 C   0  0  0  0  0  0  0  0  0  0  0  0
    1.7327    0.6620   -0.2266 N   0  0  0  0  0  0  0  0  0  0  0  0
    2.2598    0.9693   -1.3681 C   0  0  0  0  0  0  0  0  0  0  0  0
    3.1534    2.1121   -1.6243 C   0  0  0  0  0  0  0  0  0  0  0  0
    3.7205    2.3314   -2.8860 C   0  0  0  0  0  0  0  0  0  0  0  0
    4.5688    3.4233   -3.0889 C   0  0  0  0  0  0  0  0  0  0  0  0
    4.8502    4.2962   -2.0374 C   0  0  0  0  0  0  0  0  0  0  0  0
    4.2875    4.0815   -0.7798 C   0  0  0  0  0  0  0  0  0  0  0  0
    3.4413    2.9906   -0.5714 C   0  0  0  0  0  0  0  0  0  0  0  0
    2.0105    0.1852   -2.4308 O   0  0  0  0  0  0  0  0  0  0  0  0
    1.1973   -0.8180   -1.9966 C   0  0  0  0  0  0  0  0  0  0  0  0
    0.7981   -1.7253   -2.7049 O   0  0  0  0  0  0  0  0  0  0  0  0
   -1.9501    1.8058   -0.9404 C   0  0  0  0  0  0  0  0  0  0  0  0
   -2.4229    3.0922   -0.6582 C   0  0  0  0  0  0  0  0  0  0  0  0
   -2.7685    5.8856   -0.9377 H   0  0  0  0  0  0  0  0  0  0  0  0
   -4.2352    5.2075   -0.1245 H   0  0  0  0  0  0  0  0  0  0  0  0
   -3.4751    6.6882    0.4727 H   0  0  0  0  0  0  0  0  0  0  0  0
   -0.8730    3.5880    2.3161 H   0  0  0  0  0  0  0  0  0  0  0  0
   -0.0264    1.3349    1.8279 H   0  0  0  0  0  0  0  0  0  0  0  0
   -1.1110   -0.5411   -1.3216 H   0  0  0  0  0  0  0  0  0  0  0  0
   -1.1802   -0.8421    1.6909 H   0  0  0  0  0  0  0  0  0  0  0  0
   -4.3178    0.0685    0.5271 H   0  0  0  0  0  0  0  0  0  0  0  0
   -3.2564    0.1998    1.9432 H   0  0  0  0  0  0  0  0  0  0  0  0
   -4.9293   -0.3206    2.1419 H   0  0  0  0  0  0  0  0  0  0  0  0
   -5.7013   -2.5822    1.3843 H   0  0  0  0  0  0  0  0  0  0  0  0
   -4.5933   -3.6954    0.5666 H   0  0  0  0  0  0  0  0  0  0  0  0
   -5.1522   -2.2368   -0.2642 H   0  0  0  0  0  0  0  0  0  0  0  0
   -2.4431   -1.9723    3.1357 H   0  0  0  0  0  0  0  0  0  0  0  0
   -4.1034   -2.5389    3.3049 H   0  0  0  0  0  0  0  0  0  0  0  0
   -2.9056   -3.5393    2.4714 H   0  0  0  0  0  0  0  0  0  0  0  0
    0.7590   -5.1160    2.1371 H   0  0  0  0  0  0  0  0  0  0  0  0
    2.7268   -6.0528    0.9583 H   0  0  0  0  0  0  0  0  0  0  0  0
    4.7763   -5.6927   -0.3912 H   0  0  0  0  0  0  0  0  0  0  0  0
    5.2383   -3.4641   -1.3635 H   0  0  0  0  0  0  0  0  0  0  0  0
    3.6955   -1.5901   -1.0066 H   0  0  0  0  0  0  0  0  0  0  0  0
    1.5761   -1.2347    1.3819 H   0  0  0  0  0  0  0  0  0  0  0  0
    3.5124    1.6666   -3.7211 H   0  0  0  0  0  0  0  0  0  0  0  0
    5.0102    3.5953   -4.0684 H   0  0  0  0  0  0  0  0  0  0  0  0
    5.5071    5.1481   -2.1994 H   0  0  0  0  0  0  0  0  0  0  0  0
    4.5073    4.7639    0.0384 H   0  0  0  0  0  0  0  0  0  0  0  0
    3.0055    2.8334    0.4131 H   0  0  0  0  0  0  0  0  0  0  0  0
   -2.2798    1.3221   -1.8598 H   0  0  0  0  0  0  0  0  0  0  0  0
   -3.0937    3.5550   -1.3743 H   0  0  0  0  0  0  0  0  0  0  0  0
  1  2  1  0
  2  3  1  0
  3  4  2  0
  4  5  1  0
  5  6  2  0
  6  7  1  0
  7  8  1  0
  8  9  1  0
  9 10  2  0
  9 11  1  0
 11 12  1  0
 11 13  1  0
 11 14  1  0
  8 15  1  0
 15 16  1  0
 16 17  2  0
 17 18  1  0
 18 19  2  0
 19 20  1  0
 20 21  2  0
 21 22  1  0
 22 23  2  0
 23 24  1  0
 24 25  1  0
 25 26  1  0
 26 27  2  0
 27 28  1  0
 28 29  2  0
 29 30  1  0
 30 31  2  0
 31 32  1  0
 32 33  2  0
 27 34  1  0
 34 35  1  0
 35 36  2  0
  6 37  1  0
 37 38  2  0
 38  3  1  0
 25  7  1  0
 33 28  1  0
 24 15  1  0
 35 25  1  0
 23 18  1  0
  1 39  1  0
  1 40  1  0
  1 41  1  0
  4 42  1  0
  5 43  1  0
  7 44  1  0
  8 45  1  0
 12 46  1  0
 12 47  1  0
 12 48  1  0
 13 49  1  0
 13 50  1  0
 13 51  1  0
 14 52  1  0
 14 53  1  0
 14 54  1  0
 17 55  1  0
 19 56  1  0
 20 57  1  0
 21 58  1  0
 22 59  1  0
 24 60  1  0
 29 61  1  0
 30 62  1  0
 31 63  1  0
 32 64  1  0
 33 65  1  0
 37 66  1  0
 38 67  1  0
M  END
$$$$
