
     RDKit          3D

 53 56  0  0  0  0  0  0  0  0999 V2000
   -0.8322    1.3059   -3.3283 C   0  0  0  0  0  0  0  0  0  0  0  0
   -0.8761    1.9579   -1.9713 C   0  0  0  0  0  0  0  0  0  0  0  0
   -0.0805    2.8415   -1.6539 O   0  0  0  0  0  0  0  0  0  0  0  0
   -1.9210    1.4921   -1.0274 C   0  0  0  0  0  0  0  0  0  0  0  0
   -1.6088    0.5469   -0.1118 C   0  0  0  0  0  0  0  0  0  0  0  0
   -0.3606   -0.0424    0.0653 N   0  0  0  0  0  0  0  0  0  0  0  0
    0.8150    0.7359    0.5259 C   0  0  0  0  0  0  0  0  0  0  0  0
    2.0599    0.4665   -0.3476 C   0  0  0  0  0  0  0  0  0  0  0  0
    2.4558   -0.9591   -0.4579 N   0  0  0  0  0  0  0  0  0  0  0  0
    3.6320   -1.2881    0.3619 C   0  0  0  0  0  0  0  0  0  0  0  0
    4.9170   -0.6674   -0.1460 C   0  0  0  0  0  0  0  0  0  0  0  0
    5.3032   -0.8129   -1.4872 C   0  0  0  0  0  0  0  0  0  0  0  0
    6.4987   -0.2589   -1.9473 C   0  0  0  0  0  0  0  0  0  0  0  0
    7.3259    0.4399   -1.0707 C   0  0  0  0  0  0  0  0  0  0  0  0
    6.9595    0.5838    0.2662 C   0  0  0  0  0  0  0  0  0  0  0  0
    5.7634    0.0306    0.7280 C   0  0  0  0  0  0  0  0  0  0  0  0
    1.3328   -1.8617   -0.1329 C   0  0  0  0  0  0  0  0  0  0  0  0
   -0.0360   -1.3242   -0.5969 C   0  0  0  0  0  0  0  0  0  0  0  0
   -2.6141    0.0991    0.7044 N   0  0  0  0  0  0  0  0  0  0  0  0
   -3.9016    0.5515    0.6343 C   0  0  0  0  0  0  0  0  0  0  0  0
   -4.9358    0.0083    1.5705 C   0  0  0  0  0  0  0  0  0  0  0  0
   -6.2883    0.0720    1.2099 C   0  0  0  0  0  0  0  0  0  0  0  0
   -7.2694   -0.4357    2.0636 C   0  0  0  0  0  0  0  0  0  0  0  0
   -6.9060   -1.0032    3.2836 C   0  0  0  0  0  0  0  0  0  0  0  0
   -5.5630   -1.0585    3.6551 C   0  0  0  0  0  0  0  0  0  0  0  0
   -4.5774   -0.5524    2.8033 C   0  0  0  0  0  0  0  0  0  0  0  0
   -4.2682    1.4430   -0.2373 N   0  0  0  0  0  0  0  0  0  0  0  0
   -3.3419    1.9825   -1.1139 C   0  0  0  0  0  0  0  0  0  0  0  0
   -3.8548    3.1402   -2.2423 S   0  0  0  0  0  0  0  0  0  0  0  0
    0.1483    0.8441   -3.4718 H   0  0  0  0  0  0  0  0  0  0  0  0
   -1.0064    2.0610   -4.0991 H   0  0  0  0  0  0  0  0  0  0  0  0
   -1.5960    0.5284   -3.4184 H   0  0  0  0  0  0  0  0  0  0  0  0
    1.0281    0.4465    1.5627 H   0  0  0  0  0  0  0  0  0  0  0  0
    0.6000    1.8094    0.5481 H   0  0  0  0  0  0  0  0  0  0  0  0
    1.8461    0.8083   -1.3676 H   0  0  0  0  0  0  0  0  0  0  0  0
    2.8837    1.0965    0.0069 H   0  0  0  0  0  0  0  0  0  0  0  0
    3.7958   -2.3744    0.3577 H   0  0  0  0  0  0  0  0  0  0  0  0
    3.4556   -1.0030    1.4076 H   0  0  0  0  0  0  0  0  0  0  0  0
    4.6627   -1.3541   -2.1806 H   0  0  0  0  0  0  0  0  0  0  0  0
    6.7820   -0.3717   -2.9903 H   0  0  0  0  0  0  0  0  0  0  0  0
    8.2558    0.8726   -1.4298 H   0  0  0  0  0  0  0  0  0  0  0  0
    7.6060    1.1279    0.9497 H   0  0  0  0  0  0  0  0  0  0  0  0
    5.4962    0.1516    1.7749 H   0  0  0  0  0  0  0  0  0  0  0  0
    1.2805   -2.0341    0.9511 H   0  0  0  0  0  0  0  0  0  0  0  0
    1.5127   -2.8332   -0.6078 H   0  0  0  0  0  0  0  0  0  0  0  0
   -0.0339   -1.1889   -1.6852 H   0  0  0  0  0  0  0  0  0  0  0  0
   -0.8084   -2.0643   -0.3564 H   0  0  0  0  0  0  0  0  0  0  0  0
   -2.3328   -0.6299    1.3432 H   0  0  0  0  0  0  0  0  0  0  0  0
   -6.5850    0.5164    0.2619 H   0  0  0  0  0  0  0  0  0  0  0  0
   -8.3168   -0.3829    1.7765 H   0  0  0  0  0  0  0  0  0  0  0  0
   -7.6717   -1.3936    3.9496 H   0  0  0  0  0  0  0  0  0  0  0  0
   -5.2852   -1.4870    4.6152 H   0  0  0  0  0  0  0  0  0  0  0  0
   -3.5445   -0.5790    3.1348 H   0  0  0  0  0  0  0  0  0  0  0  0
  1  2  1  0
  2  3  2  0
  2  4  1  0
  4  5  2  0
  5  6  1  0
  6  7  1  0
  7  8  1  0
  8  9  1  0
  9 10  1  0
 10 11  1  0
 11 12  2  0
 12 13  1  0
 13 14  2  0
 14 15  1  0
 15 16  2  0
  9 17  1  0
 17 18  1  0
  5 19  1  0
 19 20  1  0
 20 21  1  0
 21 22  2  0
 22 23  1  0
 23 24  2  0
 24 25  1  0
 25 26  2  0
 20 27  2  0
 27 28  1  0
 28 29  2  0
 28  4  1  0
 18  6  1  0
 26 21  1  0
 16 11  1  0
  1 30  1  0
  1 31  1  0
  1 32  1  0
  7 33  1  0
  7 34  1  0
  8 35  1  0
  8 36  1  0
 10 37  1  0
 10 38  1  0
 12 39  1  0
 13 40  1  0
 14 41  1  0
 15 42  1  0
 16 43  1  0
 17 44  1  0
 17 45  1  0
 18 46  1  0
 18 47  1  0
 19 48  1  0
 22 49  1  0
 23 50  1  0
 24 51  1  0
 25 52  1  0
 26 53  1  0
M  END
$$$$
