
     RDKit          3D

 57 60  0  0  0  0  0  0  0  0999 V2000
    5.0075   -0.6405    1.8460 O   0  0  0  0  0  0  0  0  0  0  0  0
    4.1736    0.2840    1.1133 S   0  0  0  0  0  6  0  0  0  0  0  0
    4.6413    1.5917    0.7123 O   0  0  0  0  0  0  0  0  0  0  0  0
    3.6497   -0.5263   -0.2529 N   0  0  0  0  0  0  0  0  0  0  0  0
    2.9802    0.2030   -1.3248 C   0  0  0  0  0  0  0  0  0  0  0  0
    3.9758    0.6818   -2.3857 C   0  0  0  0  0  0  0  0  0  0  0  0
    3.4294    0.2020   -3.7291 C   0  0  0  0  0  0  0  0  0  0  0  0
    1.9745   -0.1487   -3.4633 C   0  0  0  0  0  0  0  0  0  0  0  0
    2.0159   -0.7246   -2.0598 C   0  0  0  0  0  0  0  0  0  0  0  0
    2.6544    0.4707    2.0138 C   0  0  0  0  0  0  0  0  0  0  0  0
    2.0728   -0.6532    2.6111 C   0  0  0  0  0  0  0  0  0  0  0  0
    0.8589   -0.5223    3.2875 C   0  0  0  0  0  0  0  0  0  0  0  0
    0.2308    0.7273    3.3448 C   0  0  0  0  0  0  0  0  0  0  0  0
   -1.3333    0.8943    4.1867 S   0  0  0  0  0  6  0  0  0  0  0  0
   -1.4188   -0.1751    5.1582 O   0  0  0  0  0  0  0  0  0  0  0  0
   -1.4610    2.2809    4.5817 O   0  0  0  0  0  0  0  0  0  0  0  0
   -2.4701    0.5907    2.9711 N   0  0  0  0  0  0  0  0  0  0  0  0
   -2.6094    1.5807    1.8682 C   0  0  0  0  0  0  0  0  0  0  0  0
   -2.1323    1.0281    0.5122 C   0  0  0  0  0  0  0  0  0  0  0  0
   -2.8088   -0.2315    0.1573 N   0  0  0  0  0  0  0  0  0  0  0  0
   -2.9229   -0.6310   -1.1651 C   0  0  0  0  0  0  0  0  0  0  0  0
   -2.0528   -0.1520   -2.1603 C   0  0  0  0  0  0  0  0  0  0  0  0
   -2.1500   -0.5585   -3.4963 C   0  0  0  0  0  0  0  0  0  0  0  0
   -3.1318   -1.4624   -3.8775 C   0  0  0  0  0  0  0  0  0  0  0  0
   -4.0125   -1.9526   -2.9227 C   0  0  0  0  0  0  0  0  0  0  0  0
   -3.9057   -1.5401   -1.5888 C   0  0  0  0  0  0  0  0  0  0  0  0
   -3.4658   -0.9617    1.2542 C   0  0  0  0  0  0  0  0  0  0  0  0
   -2.6620   -0.8282    2.5607 C   0  0  0  0  0  0  0  0  0  0  0  0
    0.8418    1.8605    2.7932 C   0  0  0  0  0  0  0  0  0  0  0  0
    2.0577    1.7311    2.1205 C   0  0  0  0  0  0  0  0  0  0  0  0
    4.1579   -1.3838   -0.4574 H   0  0  0  0  0  0  0  0  0  0  0  0
    2.4179    1.0560   -0.9277 H   0  0  0  0  0  0  0  0  0  0  0  0
    4.0306    1.7766   -2.3704 H   0  0  0  0  0  0  0  0  0  0  0  0
    4.9934    0.3074   -2.2275 H   0  0  0  0  0  0  0  0  0  0  0  0
    3.5367    0.9562   -4.5146 H   0  0  0  0  0  0  0  0  0  0  0  0
    3.9765   -0.6930   -4.0489 H   0  0  0  0  0  0  0  0  0  0  0  0
    1.3520    0.7539   -3.4891 H   0  0  0  0  0  0  0  0  0  0  0  0
    1.5805   -0.8594   -4.1945 H   0  0  0  0  0  0  0  0  0  0  0  0
    1.0292   -0.7446   -1.5877 H   0  0  0  0  0  0  0  0  0  0  0  0
    2.3905   -1.7554   -2.0874 H   0  0  0  0  0  0  0  0  0  0  0  0
    2.5586   -1.6245    2.5484 H   0  0  0  0  0  0  0  0  0  0  0  0
    0.4099   -1.3934    3.7606 H   0  0  0  0  0  0  0  0  0  0  0  0
   -3.6712    1.8507    1.8053 H   0  0  0  0  0  0  0  0  0  0  0  0
   -2.0728    2.5077    2.0909 H   0  0  0  0  0  0  0  0  0  0  0  0
   -1.0516    0.8512    0.5421 H   0  0  0  0  0  0  0  0  0  0  0  0
   -2.3302    1.7991   -0.2416 H   0  0  0  0  0  0  0  0  0  0  0  0
   -1.2557    0.5413   -1.9096 H   0  0  0  0  0  0  0  0  0  0  0  0
   -1.4510   -0.1710   -4.2312 H   0  0  0  0  0  0  0  0  0  0  0  0
   -3.2071   -1.7832   -4.9101 H   0  0  0  0  0  0  0  0  0  0  0  0
   -4.7900   -2.6554   -3.2079 H   0  0  0  0  0  0  0  0  0  0  0  0
   -4.6368   -1.9348   -0.8899 H   0  0  0  0  0  0  0  0  0  0  0  0
   -4.4816   -0.5725    1.3922 H   0  0  0  0  0  0  0  0  0  0  0  0
   -3.5379   -2.0328    1.0325 H   0  0  0  0  0  0  0  0  0  0  0  0
   -3.1943   -1.3542    3.3603 H   0  0  0  0  0  0  0  0  0  0  0  0
   -1.6907   -1.3124    2.4179 H   0  0  0  0  0  0  0  0  0  0  0  0
    0.3810    2.8423    2.8845 H   0  0  0  0  0  0  0  0  0  0  0  0
    2.5289    2.6096    1.6841 H   0  0  0  0  0  0  0  0  0  0  0  0
  1  2  2  0
  2  3  2  0
  2  4  1  0
  4  5  1  0
  5  6  1  0
  6  7  1  0
  7  8  1  0
  8  9  1  0
  2 10  1  0
 10 11  2  0
 11 12  1  0
 12 13  2  0
 13 14  1  0
 14 15  2  0
 14 16  2  0
 14 17  1  0
 17 18  1  0
 18 19  1  0
 19 20  1  0
 20 21  1  0
 21 22  2  0
 22 23  1  0
 23 24  2  0
 24 25  1  0
 25 26  2  0
 20 27  1  0
 27 28  1  0
 13 29  1  0
 29 30  2  0
  9  5  1  0
 30 10  1  0
 28 17  1  0
 26 21  1  0
  4 31  1  0
  5 32  1  0
  6 33  1  0
  6 34  1  0
  7 35  1  0
  7 36  1  0
  8 37  1  0
  8 38  1  0
  9 39  1  0
  9 40  1  0
 11 41  1  0
 12 42  1  0
 18 43  1  0
 18 44  1  0
 19 45  1  0
 19 46  1  0
 22 47  1  0
 23 48  1  0
 24 49  1  0
 25 50  1  0
 26 51  1  0
 27 52  1  0
 27 53  1  0
 28 54  1  0
 28 55  1  0
 29 56  1  0
 30 57  1  0
M  END
$$$$
