
     RDKit          3D

 54 54  0  0  0  0  0  0  0  0999 V2000
    8.8575   -2.7615   -1.5917 C   0  0  0  0  0  0  0  0  0  0  0  0
    7.7819   -2.0164   -1.8802 C   0  0  0  0  0  0  0  0  0  0  0  0
    7.4845   -0.6916   -1.2534 C   0  0  0  0  0  0  0  0  0  0  0  0
    6.2886   -0.8400   -0.4601 N   0  0  0  0  0  0  0  0  0  0  0  0
    5.9372    0.1698    0.4151 C   0  0  0  0  0  0  0  0  0  0  0  0
    6.6394    1.1474    0.6270 O   0  0  0  0  0  0  0  0  0  0  0  0
    4.7539   -0.1213    1.0491 N   0  0  0  0  0  0  0  0  0  0  0  0
    4.0260    0.7522    1.8372 C   0  0  0  0  0  0  0  0  0  0  0  0
    4.1173    1.9750    1.8301 O   0  0  0  0  0  0  0  0  0  0  0  0
    2.9715    0.0428    2.6896 C   0  0  0  0  0  0  0  0  0  0  0  0
    1.7211   -0.1316    2.0174 O   0  0  0  0  0  0  0  0  0  0  0  0
    1.6996   -1.0937    1.0618 C   0  0  0  0  0  0  0  0  0  0  0  0
    2.6683   -1.7881    0.7773 O   0  0  0  0  0  0  0  0  0  0  0  0
    0.3751   -1.2057    0.3948 C   0  0  0  0  0  0  0  0  0  0  0  0
    0.2447   -2.2749   -0.5355 C   0  0  0  0  0  0  0  0  0  0  0  0
    0.1500   -3.1582   -1.2837 N   0  0  0  0  0  0  0  0  0  0  0  0
   -0.6026   -0.3096    0.6395 C   0  0  0  0  0  0  0  0  0  0  0  0
   -1.9195   -0.2521    0.0799 C   0  0  0  0  0  0  0  0  0  0  0  0
   -2.7533   -1.3164   -0.3205 C   0  0  0  0  0  0  0  0  0  0  0  0
   -3.9252   -0.7794   -0.8142 C   0  0  0  0  0  0  0  0  0  0  0  0
   -5.0638   -1.5073   -1.4412 C   0  0  0  0  0  0  0  0  0  0  0  0
   -3.8745    0.5901   -0.6141 N   0  0  0  0  0  0  0  0  0  0  0  0
   -4.9530    1.5220   -0.9262 C   0  0  0  0  0  0  0  0  0  0  0  0
   -5.9037    1.9013    0.2306 C   0  0  0  0  0  0  0  0  0  0  0  0
   -5.2116    2.6462    1.3693 C   0  0  0  0  0  0  0  0  0  0  0  0
   -6.6844    0.7102    0.7820 C   0  0  0  0  0  0  0  0  0  0  0  0
   -2.6071    0.9299   -0.1566 C   0  0  0  0  0  0  0  0  0  0  0  0
   -2.1326    2.3363    0.0278 C   0  0  0  0  0  0  0  0  0  0  0  0
    9.0243   -3.7150   -2.0836 H   0  0  0  0  0  0  0  0  0  0  0  0
    9.5893   -2.4408   -0.8569 H   0  0  0  0  0  0  0  0  0  0  0  0
    7.0844   -2.3761   -2.6324 H   0  0  0  0  0  0  0  0  0  0  0  0
    8.3049   -0.3363   -0.6213 H   0  0  0  0  0  0  0  0  0  0  0  0
    7.2983    0.0633   -2.0248 H   0  0  0  0  0  0  0  0  0  0  0  0
    5.5175   -1.3118   -0.9065 H   0  0  0  0  0  0  0  0  0  0  0  0
    4.4254   -1.0782    0.9747 H   0  0  0  0  0  0  0  0  0  0  0  0
    3.3526   -0.9183    3.0584 H   0  0  0  0  0  0  0  0  0  0  0  0
    2.7877    0.6607    3.5764 H   0  0  0  0  0  0  0  0  0  0  0  0
   -0.3913    0.5030    1.3331 H   0  0  0  0  0  0  0  0  0  0  0  0
   -2.5388   -2.3771   -0.2938 H   0  0  0  0  0  0  0  0  0  0  0  0
   -4.7714   -2.5349   -1.6868 H   0  0  0  0  0  0  0  0  0  0  0  0
   -5.9162   -1.5654   -0.7611 H   0  0  0  0  0  0  0  0  0  0  0  0
   -5.3788   -1.0317   -2.3745 H   0  0  0  0  0  0  0  0  0  0  0  0
   -4.5027    2.4253   -1.3503 H   0  0  0  0  0  0  0  0  0  0  0  0
   -5.5392    1.0900   -1.7447 H   0  0  0  0  0  0  0  0  0  0  0  0
   -6.6434    2.5936   -0.1959 H   0  0  0  0  0  0  0  0  0  0  0  0
   -4.5117    2.0015    1.9087 H   0  0  0  0  0  0  0  0  0  0  0  0
   -5.9493    3.0085    2.0948 H   0  0  0  0  0  0  0  0  0  0  0  0
   -4.6701    3.5190    0.9932 H   0  0  0  0  0  0  0  0  0  0  0  0
   -7.2482    0.2164   -0.0140 H   0  0  0  0  0  0  0  0  0  0  0  0
   -6.0246   -0.0244    1.2542 H   0  0  0  0  0  0  0  0  0  0  0  0
   -7.4074    1.0390    1.5377 H   0  0  0  0  0  0  0  0  0  0  0  0
   -2.6315    3.0457   -0.6349 H   0  0  0  0  0  0  0  0  0  0  0  0
   -1.0619    2.4117   -0.1909 H   0  0  0  0  0  0  0  0  0  0  0  0
   -2.2834    2.6571    1.0623 H   0  0  0  0  0  0  0  0  0  0  0  0
  1  2  2  0
  2  3  1  0
  3  4  1  0
  4  5  1  0
  5  6  2  0
  5  7  1  0
  7  8  1  0
  8  9  2  0
  8 10  1  0
 10 11  1  0
 11 12  1  0
 12 13  2  0
 12 14  1  0
 14 15  1  0
 15 16  3  0
 14 17  2  3
 17 18  1  0
 18 19  1  0
 19 20  2  0
 20 21  1  0
 20 22  1  0
 22 23  1  0
 23 24  1  0
 24 25  1  0
 24 26  1  0
 22 27  1  0
 27 28  1  0
 27 18  2  0
  1 29  1  0
  1 30  1  0
  2 31  1  0
  3 32  1  0
  3 33  1  0
  4 34  1  0
  7 35  1  0
 10 36  1  0
 10 37  1  0
 17 38  1  0
 19 39  1  0
 21 40  1  0
 21 41  1  0
 21 42  1  0
 23 43  1  0
 23 44  1  0
 24 45  1  0
 25 46  1  0
 25 47  1  0
 25 48  1  0
 26 49  1  0
 26 50  1  0
 26 51  1  0
 28 52  1  0
 28 53  1  0
 28 54  1  0
M  END
$$$$
