
     RDKit          3D

 58 61  0  0  0  0  0  0  0  0999 V2000
    1.0210    0.6138    2.7268 S   0  0  0  0  0  0  0  0  0  0  0  0
    0.9374    0.0120    1.1585 C   0  0  0  0  0  0  0  0  0  0  0  0
    2.0425   -0.4410    0.4621 N   0  0  0  0  0  0  0  0  0  0  0  0
    3.4259   -0.5029    0.9340 C   0  0  0  0  0  0  0  0  0  0  0  0
    4.1644    0.8143    0.7017 C   0  0  0  0  0  0  0  0  0  0  0  0
    5.5708    0.8107    1.3147 C   0  0  0  0  0  0  0  0  0  0  0  0
    6.4356   -0.2617    0.7980 N   0  0  0  0  0  0  0  0  0  0  0  0
    7.6360   -0.4438    1.6496 C   0  0  0  0  0  0  0  0  0  0  0  0
    8.6940    0.6606    1.4857 C   0  0  0  0  0  0  0  0  0  0  0  0
    9.1037    0.7879    0.1178 O   0  0  0  0  0  0  0  0  0  0  0  0
    7.9770    1.0619   -0.7245 C   0  0  0  0  0  0  0  0  0  0  0  0
    6.8958   -0.0263   -0.5901 C   0  0  0  0  0  0  0  0  0  0  0  0
   -0.2560   -0.0994    0.4313 N   0  0  0  0  0  0  0  0  0  0  0  0
   -1.5073    0.5522    0.8773 C   0  0  0  0  0  0  0  0  0  0  0  0
   -2.5528    0.6910   -0.2436 C   0  0  0  0  0  0  0  0  0  0  0  0
   -2.8740   -0.6128   -0.8439 N   0  0  0  0  0  0  0  0  0  0  0  0
   -4.1884   -0.9362   -1.0406 C   0  0  0  0  0  0  0  0  0  0  0  0
   -5.1771   -0.0803   -0.8810 N   0  0  0  0  0  0  0  0  0  0  0  0
   -6.4135   -0.6637   -1.1150 C   0  0  0  0  0  0  0  0  0  0  0  0
   -7.6479    0.1068   -0.9699 C   0  0  0  0  0  0  0  0  0  0  0  0
   -8.9037   -0.5057   -0.8348 C   0  0  0  0  0  0  0  0  0  0  0  0
  -10.0642    0.2648   -0.6936 C   0  0  0  0  0  0  0  0  0  0  0  0
   -9.9847    1.6544   -0.6855 C   0  0  0  0  0  0  0  0  0  0  0  0
   -8.7448    2.2777   -0.8136 C   0  0  0  0  0  0  0  0  0  0  0  0
   -7.5859    1.5079   -0.9534 C   0  0  0  0  0  0  0  0  0  0  0  0
   -6.3511   -1.9836   -1.5059 C   0  0  0  0  0  0  0  0  0  0  0  0
   -4.7264   -2.5091   -1.5431 S   0  0  0  0  0  0  0  0  0  0  0  0
   -1.8259   -1.6374   -0.8040 C   0  0  0  0  0  0  0  0  0  0  0  0
   -0.4180   -1.0188   -0.7109 C   0  0  0  0  0  0  0  0  0  0  0  0
    1.9455   -0.4612   -0.5415 H   0  0  0  0  0  0  0  0  0  0  0  0
    3.9022   -1.3112    0.3682 H   0  0  0  0  0  0  0  0  0  0  0  0
    3.4417   -0.7846    1.9914 H   0  0  0  0  0  0  0  0  0  0  0  0
    3.6013    1.6424    1.1490 H   0  0  0  0  0  0  0  0  0  0  0  0
    4.2031    1.0332   -0.3720 H   0  0  0  0  0  0  0  0  0  0  0  0
    5.4446    0.6792    2.3979 H   0  0  0  0  0  0  0  0  0  0  0  0
    6.0227    1.7996    1.1788 H   0  0  0  0  0  0  0  0  0  0  0  0
    7.3503   -0.5406    2.7037 H   0  0  0  0  0  0  0  0  0  0  0  0
    8.0910   -1.4031    1.3695 H   0  0  0  0  0  0  0  0  0  0  0  0
    9.5841    0.4082    2.0720 H   0  0  0  0  0  0  0  0  0  0  0  0
    8.3276    1.6289    1.8449 H   0  0  0  0  0  0  0  0  0  0  0  0
    7.5830    2.0567   -0.4880 H   0  0  0  0  0  0  0  0  0  0  0  0
    8.3409    1.0915   -1.7573 H   0  0  0  0  0  0  0  0  0  0  0  0
    7.3185   -0.9736   -0.9514 H   0  0  0  0  0  0  0  0  0  0  0  0
    6.0549    0.1960   -1.2562 H   0  0  0  0  0  0  0  0  0  0  0  0
   -1.9170   -0.0578    1.6927 H   0  0  0  0  0  0  0  0  0  0  0  0
   -1.2790    1.5469    1.2746 H   0  0  0  0  0  0  0  0  0  0  0  0
   -3.4337    1.1912    0.1788 H   0  0  0  0  0  0  0  0  0  0  0  0
   -2.1586    1.3432   -1.0340 H   0  0  0  0  0  0  0  0  0  0  0  0
   -9.0041   -1.5865   -0.8220 H   0  0  0  0  0  0  0  0  0  0  0  0
  -11.0300   -0.2231   -0.5874 H   0  0  0  0  0  0  0  0  0  0  0  0
  -10.8867    2.2531   -0.5752 H   0  0  0  0  0  0  0  0  0  0  0  0
   -8.6752    3.3626   -0.8037 H   0  0  0  0  0  0  0  0  0  0  0  0
   -6.6252    2.0120   -1.0507 H   0  0  0  0  0  0  0  0  0  0  0  0
   -7.1496   -2.6567   -1.7785 H   0  0  0  0  0  0  0  0  0  0  0  0
   -1.9869   -2.2879    0.0650 H   0  0  0  0  0  0  0  0  0  0  0  0
   -1.8565   -2.2569   -1.7082 H   0  0  0  0  0  0  0  0  0  0  0  0
   -0.2052   -0.4365   -1.6151 H   0  0  0  0  0  0  0  0  0  0  0  0
    0.3140   -1.8302   -0.6493 H   0  0  0  0  0  0  0  0  0  0  0  0
  1  2  2  0
  2  3  1  0
  3  4  1  0
  4  5  1  0
  5  6  1  0
  6  7  1  0
  7  8  1  0
  8  9  1  0
  9 10  1  0
 10 11  1  0
 11 12  1  0
  2 13  1  0
 13 14  1  0
 14 15  1  0
 15 16  1  0
 16 17  1  0
 17 18  2  0
 18 19  1  0
 19 20  1  0
 20 21  2  0
 21 22  1  0
 22 23  2  0
 23 24  1  0
 24 25  2  0
 19 26  2  0
 26 27  1  0
 16 28  1  0
 28 29  1  0
 12  7  1  0
 29 13  1  0
 27 17  1  0
 25 20  1  0
  3 30  1  0
  4 31  1  0
  4 32  1  0
  5 33  1  0
  5 34  1  0
  6 35  1  0
  6 36  1  0
  8 37  1  0
  8 38  1  0
  9 39  1  0
  9 40  1  0
 11 41  1  0
 11 42  1  0
 12 43  1  0
 12 44  1  0
 14 45  1  0
 14 46  1  0
 15 47  1  0
 15 48  1  0
 21 49  1  0
 22 50  1  0
 23 51  1  0
 24 52  1  0
 25 53  1  0
 26 54  1  0
 28 55  1  0
 28 56  1  0
 29 57  1  0
 29 58  1  0
M  END
$$$$
