
     RDKit          3D

 66 72  0  0  0  0  0  0  0  0999 V2000
    1.8072    0.6947    1.9518 O   0  0  0  0  0  0  0  0  0  0  0  0
    2.0820    0.6592    0.7585 C   0  0  0  0  0  0  0  0  0  0  0  0
    3.2615    0.1359    0.2005 N   0  0  0  0  0  0  0  0  0  0  0  0
    4.3077   -0.4765    0.9848 C   0  0  0  0  0  0  0  0  0  0  0  0
    4.2786   -1.9882    0.9466 C   0  0  0  0  0  0  0  0  0  0  0  0
    3.1405   -2.6924    1.3704 C   0  0  0  0  0  0  0  0  0  0  0  0
    3.1174   -4.0875    1.3444 C   0  0  0  0  0  0  0  0  0  0  0  0
    4.2330   -4.7954    0.8996 C   0  0  0  0  0  0  0  0  0  0  0  0
    5.3730   -4.1090    0.4840 C   0  0  0  0  0  0  0  0  0  0  0  0
    5.3983   -2.7134    0.5109 C   0  0  0  0  0  0  0  0  0  0  0  0
    3.2419    0.2159   -1.2001 C   0  0  0  0  0  0  0  0  0  0  0  0
    4.2044   -0.2037   -2.1013 C   0  0  0  0  0  0  0  0  0  0  0  0
    3.9587   -0.0135   -3.4641 C   0  0  0  0  0  0  0  0  0  0  0  0
    2.7675    0.5863   -3.9024 C   0  0  0  0  0  0  0  0  0  0  0  0
    1.8031    1.0062   -2.9839 C   0  0  0  0  0  0  0  0  0  0  0  0
    2.0518    0.8138   -1.6300 C   0  0  0  0  0  0  0  0  0  0  0  0
    1.2215    1.1668   -0.4287 C   0  0  0  0  0  0  0  0  0  0  0  0
    0.9066    2.6420   -0.3191 N   0  0  0  0  0  0  0  0  0  0  0  0
   -0.5513    2.7901    0.0732 C   0  0  2  0  0  0  0  0  0  0  0  0
   -0.6423    3.1529    1.5673 C   0  0  0  0  0  0  0  0  0  0  0  0
   -2.0375    3.4997    2.0396 C   0  0  0  0  0  0  0  0  0  0  0  0
   -2.6585    4.6876    1.6299 C   0  0  0  0  0  0  0  0  0  0  0  0
   -3.9443    5.0020    2.0729 C   0  0  0  0  0  0  0  0  0  0  0  0
   -4.6210    4.1347    2.9293 C   0  0  0  0  0  0  0  0  0  0  0  0
   -4.0121    2.9522    3.3450 C   0  0  0  0  0  0  0  0  0  0  0  0
   -2.7262    2.6364    2.9039 C   0  0  0  0  0  0  0  0  0  0  0  0
   -1.1045    1.4633   -0.2764 C   0  0  0  0  0  0  0  0  0  0  0  0
   -0.1000    0.5328   -0.5262 C   0  0  0  0  0  0  0  0  0  0  0  0
   -0.6752   -0.6789   -0.8007 C   0  0  0  0  0  0  0  0  0  0  0  0
   -0.0719   -1.8133   -1.1514 O   0  0  0  0  0  0  0  0  0  0  0  0
   -2.0691   -0.4970   -0.7256 N   0  0  0  0  0  0  0  0  0  0  0  0
   -3.0561   -1.5064   -0.9247 C   0  0  0  0  0  0  0  0  0  0  0  0
   -4.2394   -1.2078   -1.6129 C   0  0  0  0  0  0  0  0  0  0  0  0
   -5.2013   -2.2006   -1.8069 C   0  0  0  0  0  0  0  0  0  0  0  0
   -4.9894   -3.4870   -1.3125 C   0  0  0  0  0  0  0  0  0  0  0  0
   -3.8147   -3.7863   -0.6236 C   0  0  0  0  0  0  0  0  0  0  0  0
   -2.8460   -2.8004   -0.4289 C   0  0  0  0  0  0  0  0  0  0  0  0
   -2.3202    0.8548   -0.4280 C   0  0  0  0  0  0  0  0  0  0  0  0
   -3.5298    1.3828   -0.2589 O   0  0  0  0  0  0  0  0  0  0  0  0
    5.2721   -0.0903    0.6336 H   0  0  0  0  0  0  0  0  0  0  0  0
    4.2104   -0.1598    2.0304 H   0  0  0  0  0  0  0  0  0  0  0  0
    2.2625   -2.1525    1.7229 H   0  0  0  0  0  0  0  0  0  0  0  0
    2.2278   -4.6197    1.6729 H   0  0  0  0  0  0  0  0  0  0  0  0
    4.2142   -5.8813    0.8789 H   0  0  0  0  0  0  0  0  0  0  0  0
    6.2441   -4.6617    0.1401 H   0  0  0  0  0  0  0  0  0  0  0  0
    6.2988   -2.1965    0.1870 H   0  0  0  0  0  0  0  0  0  0  0  0
    5.1260   -0.6727   -1.7792 H   0  0  0  0  0  0  0  0  0  0  0  0
    4.6964   -0.3383   -4.1942 H   0  0  0  0  0  0  0  0  0  0  0  0
    2.5933    0.7197   -4.9677 H   0  0  0  0  0  0  0  0  0  0  0  0
    0.8773    1.4593   -3.3247 H   0  0  0  0  0  0  0  0  0  0  0  0
    0.9718    3.0072   -1.2672 H   0  0  0  0  0  0  0  0  0  0  0  0
   -0.9978    3.5745   -0.5485 H   0  0  0  0  0  0  0  0  0  0  0  0
   -0.2459    2.3394    2.1874 H   0  0  0  0  0  0  0  0  0  0  0  0
   -0.0016    4.0210    1.7743 H   0  0  0  0  0  0  0  0  0  0  0  0
   -2.1431    5.3770    0.9651 H   0  0  0  0  0  0  0  0  0  0  0  0
   -4.4166    5.9258    1.7504 H   0  0  0  0  0  0  0  0  0  0  0  0
   -5.6211    4.3817    3.2743 H   0  0  0  0  0  0  0  0  0  0  0  0
   -4.5362    2.2761    4.0148 H   0  0  0  0  0  0  0  0  0  0  0  0
   -2.2619    1.7095    3.2349 H   0  0  0  0  0  0  0  0  0  0  0  0
   -0.7004   -2.3757   -1.6362 H   0  0  0  0  0  0  0  0  0  0  0  0
   -4.4118   -0.2237   -2.0452 H   0  0  0  0  0  0  0  0  0  0  0  0
   -6.1140   -1.9730   -2.3529 H   0  0  0  0  0  0  0  0  0  0  0  0
   -5.7419   -4.2575   -1.4630 H   0  0  0  0  0  0  0  0  0  0  0  0
   -3.6583   -4.7869   -0.2270 H   0  0  0  0  0  0  0  0  0  0  0  0
   -1.9594   -3.0488    0.1521 H   0  0  0  0  0  0  0  0  0  0  0  0
   -4.1285    0.6946    0.0806 H   0  0  0  0  0  0  0  0  0  0  0  0
  1  2  2  0
  2  3  1  0
  3  4  1  0
  4  5  1  0
  5  6  2  0
  6  7  1  0
  7  8  2  0
  8  9  1  0
  9 10  2  0
  3 11  1  0
 11 12  2  0
 12 13  1  0
 13 14  2  0
 14 15  1  0
 15 16  2  0
 16 17  1  0
 17 18  1  0
 18 19  1  0
 19 20  1  0
 20 21  1  0
 21 22  2  0
 22 23  1  0
 23 24  2  0
 24 25  1  0
 25 26  2  0
 19 27  1  0
 27 28  1  0
 28 29  2  0
 29 30  1  0
 29 31  1  0
 31 32  1  0
 32 33  2  0
 33 34  1  0
 34 35  2  0
 35 36  1  0
 36 37  2  0
 31 38  1  0
 38 39  1  0
 17  2  1  0
 26 21  1  0
 38 27  2  0
 10  5  1  0
 16 11  1  0
 28 17  1  0
 37 32  1  0
  4 40  1  0
  4 41  1  0
  6 42  1  0
  7 43  1  0
  8 44  1  0
  9 45  1  0
 10 46  1  0
 12 47  1  0
 13 48  1  0
 14 49  1  0
 15 50  1  0
 18 51  1  0
 19 52  1  6
 20 53  1  0
 20 54  1  0
 22 55  1  0
 23 56  1  0
 24 57  1  0
 25 58  1  0
 26 59  1  0
 30 60  1  0
 33 61  1  0
 34 62  1  0
 35 63  1  0
 36 64  1  0
 37 65  1  0
 39 66  1  0
M  END
$$$$
