
     RDKit          3D

 52 55  0  0  0  0  0  0  0  0999 V2000
    6.6781   -0.4257    5.8853 N   0  0  0  0  0  0  0  0  0  0  0  0
    6.8201   -1.3239    4.4742 S   0  0  0  0  0  6  0  0  0  0  0  0
    7.9027   -0.7259    3.7284 O   0  0  0  0  0  0  0  0  0  0  0  0
    6.8375   -2.7081    4.8871 O   0  0  0  0  0  0  0  0  0  0  0  0
    5.2892   -0.9758    3.6615 C   0  0  0  0  0  0  0  0  0  0  0  0
    4.2037   -1.8390    3.8298 C   0  0  0  0  0  0  0  0  0  0  0  0
    3.0048   -1.5758    3.1648 C   0  0  0  0  0  0  0  0  0  0  0  0
    2.8878   -0.4558    2.3290 C   0  0  0  0  0  0  0  0  0  0  0  0
    1.6004   -0.1794    1.5916 C   0  0  0  0  0  0  0  0  0  0  0  0
    1.6266   -0.7523    0.1725 C   0  0  0  0  0  0  0  0  0  0  0  0
    0.3827   -0.5201   -0.5380 N   0  0  0  0  0  0  0  0  0  0  0  0
    0.0881    0.7130   -1.0816 C   0  0  0  0  0  0  0  0  0  0  0  0
    0.8010    1.7006   -0.9681 O   0  0  0  0  0  0  0  0  0  0  0  0
   -1.1859    0.7760   -1.8357 C   0  0  0  0  0  0  0  0  0  0  0  0
   -2.3436    0.3531   -1.1778 C   0  0  0  0  0  0  0  0  0  0  0  0
   -3.5474    0.3978   -1.8598 C   0  0  0  0  0  0  0  0  0  0  0  0
   -4.8287   -0.0263   -1.2581 C   0  0  0  0  0  0  0  0  0  0  0  0
   -5.8303   -0.6195   -2.0496 C   0  0  0  0  0  0  0  0  0  0  0  0
   -7.0460   -1.0368   -1.4996 C   0  0  0  0  0  0  0  0  0  0  0  0
   -7.2905   -0.8638   -0.1411 C   0  0  0  0  0  0  0  0  0  0  0  0
   -6.3235   -0.2695    0.6642 C   0  0  0  0  0  0  0  0  0  0  0  0
   -5.1074    0.1462    0.1108 C   0  0  0  0  0  0  0  0  0  0  0  0
   -3.6127    0.8254   -3.1442 N   0  0  0  0  0  0  0  0  0  0  0  0
   -2.5016    1.2489   -3.7711 C   0  0  0  0  0  0  0  0  0  0  0  0
   -2.6169    1.6942   -5.0815 C   0  0  0  0  0  0  0  0  0  0  0  0
   -1.5143    2.1441   -5.8109 C   0  0  0  0  0  0  0  0  0  0  0  0
   -0.2589    2.1509   -5.2218 C   0  0  0  0  0  0  0  0  0  0  0  0
   -0.1165    1.7080   -3.9082 C   0  0  0  0  0  0  0  0  0  0  0  0
   -1.2341    1.2537   -3.1622 C   0  0  0  0  0  0  0  0  0  0  0  0
    3.9918    0.3930    2.1577 C   0  0  0  0  0  0  0  0  0  0  0  0
    5.1930    0.1342    2.8192 C   0  0  0  0  0  0  0  0  0  0  0  0
    6.6844   -1.0477    6.6937 H   0  0  0  0  0  0  0  0  0  0  0  0
    7.4005    0.2941    5.9114 H   0  0  0  0  0  0  0  0  0  0  0  0
    4.2829   -2.7134    4.4717 H   0  0  0  0  0  0  0  0  0  0  0  0
    2.1629   -2.2512    3.3019 H   0  0  0  0  0  0  0  0  0  0  0  0
    1.4217    0.9030    1.5709 H   0  0  0  0  0  0  0  0  0  0  0  0
    0.7552   -0.6032    2.1496 H   0  0  0  0  0  0  0  0  0  0  0  0
    2.4447   -0.3115   -0.4095 H   0  0  0  0  0  0  0  0  0  0  0  0
    1.7832   -1.8366    0.1977 H   0  0  0  0  0  0  0  0  0  0  0  0
   -0.1913   -1.3195   -0.7760 H   0  0  0  0  0  0  0  0  0  0  0  0
   -2.2942    0.0009   -0.1533 H   0  0  0  0  0  0  0  0  0  0  0  0
   -5.6626   -0.7607   -3.1168 H   0  0  0  0  0  0  0  0  0  0  0  0
   -7.8000   -1.4916   -2.1367 H   0  0  0  0  0  0  0  0  0  0  0  0
   -8.2369   -1.1832    0.2872 H   0  0  0  0  0  0  0  0  0  0  0  0
   -6.5171   -0.1197    1.7234 H   0  0  0  0  0  0  0  0  0  0  0  0
   -4.3875    0.6304    0.7669 H   0  0  0  0  0  0  0  0  0  0  0  0
   -3.5988    1.6927   -5.5502 H   0  0  0  0  0  0  0  0  0  0  0  0
   -1.6430    2.4886   -6.8337 H   0  0  0  0  0  0  0  0  0  0  0  0
    0.6075    2.5021   -5.7766 H   0  0  0  0  0  0  0  0  0  0  0  0
    0.8775    1.7274   -3.4641 H   0  0  0  0  0  0  0  0  0  0  0  0
    3.9191    1.2607    1.5031 H   0  0  0  0  0  0  0  0  0  0  0  0
    6.0425    0.7973    2.6722 H   0  0  0  0  0  0  0  0  0  0  0  0
  1  2  1  0
  2  3  2  0
  2  4  2  0
  2  5  1  0
  5  6  2  0
  6  7  1  0
  7  8  2  0
  8  9  1  0
  9 10  1  0
 10 11  1  0
 11 12  1  0
 12 13  2  0
 12 14  1  0
 14 15  2  0
 15 16  1  0
 16 17  1  0
 17 18  2  0
 18 19  1  0
 19 20  2  0
 20 21  1  0
 21 22  2  0
 16 23  2  0
 23 24  1  0
 24 25  2  0
 25 26  1  0
 26 27  2  0
 27 28  1  0
 28 29  2  0
  8 30  1  0
 30 31  2  0
 31  5  1  0
 29 14  1  0
 22 17  1  0
 29 24  1  0
  1 32  1  0
  1 33  1  0
  6 34  1  0
  7 35  1  0
  9 36  1  0
  9 37  1  0
 10 38  1  0
 10 39  1  0
 11 40  1  0
 15 41  1  0
 18 42  1  0
 19 43  1  0
 20 44  1  0
 21 45  1  0
 22 46  1  0
 25 47  1  0
 26 48  1  0
 27 49  1  0
 28 50  1  0
 30 51  1  0
 31 52  1  0
M  END
$$$$
