
     RDKit          3D

 57 60  0  0  0  0  0  0  0  0999 V2000
    8.9585   -1.4134    0.1580 C   0  0  0  0  0  0  0  0  0  0  0  0
    7.7038   -1.2125   -0.6694 C   0  0  0  0  0  0  0  0  0  0  0  0
    6.6800   -0.6971    0.1915 O   0  0  0  0  0  0  0  0  0  0  0  0
    5.4802   -0.4913   -0.4229 C   0  0  0  0  0  0  0  0  0  0  0  0
    5.2546   -0.7058   -1.6053 O   0  0  0  0  0  0  0  0  0  0  0  0
    4.4844    0.0842    0.5663 C   0  0  0  0  0  0  0  0  0  0  0  0
    3.1608    0.4257   -0.1277 C   0  0  0  0  0  0  0  0  0  0  0  0
    2.1354    0.9446    0.8729 C   0  0  0  0  0  0  0  0  0  0  0  0
    1.9242   -0.0782    1.9348 N   0  0  0  0  0  0  0  0  0  0  0  0
    0.5960    0.2402    2.9757 S   0  0  0  0  0  6  0  0  0  0  0  0
    0.4954   -0.8394    3.9334 O   0  0  0  0  0  0  0  0  0  0  0  0
    0.7156    1.6184    3.4056 O   0  0  0  0  0  0  0  0  0  0  0  0
   -0.8005    0.1058    1.8879 C   0  0  0  0  0  0  0  0  0  0  0  0
   -1.0277   -1.1121    1.2262 C   0  0  0  0  0  0  0  0  0  0  0  0
   -2.1113   -1.2449    0.3507 C   0  0  0  0  0  0  0  0  0  0  0  0
   -2.9567   -0.1612    0.1615 C   0  0  0  0  0  0  0  0  0  0  0  0
   -2.7197    1.0441    0.8324 C   0  0  0  0  0  0  0  0  0  0  0  0
   -1.6458    1.2014    1.6974 C   0  0  0  0  0  0  0  0  0  0  0  0
   -3.7078    2.0877    0.4290 C   0  0  0  0  0  0  0  0  0  0  0  0
   -4.7355    1.2497   -0.3382 C   0  0  0  0  0  0  0  0  0  0  0  0
   -4.1105   -0.0471   -0.6531 N   0  0  0  0  0  0  0  0  0  0  0  0
   -4.5918   -1.0449   -1.5010 C   0  0  0  0  0  0  0  0  0  0  0  0
   -4.0131   -2.1412   -1.6066 O   0  0  0  0  0  0  0  0  0  0  0  0
   -5.8419   -0.8201   -2.3675 C   0  0  0  0  0  0  0  0  0  0  0  0
   -5.8357    0.2482   -3.4861 C   0  0  0  0  0  0  0  0  0  0  0  0
   -7.3577    0.3812   -3.2822 C   0  0  0  0  0  0  0  0  0  0  0  0
   -7.1661   -0.2034   -1.8677 C   0  0  0  0  0  0  0  0  0  0  0  0
    3.1820   -0.3570    2.6803 C   0  0  0  0  0  0  0  0  0  0  0  0
    4.2356   -0.8940    1.7180 C   0  0  0  0  0  0  0  0  0  0  0  0
    9.2763   -0.4687    0.6119 H   0  0  0  0  0  0  0  0  0  0  0  0
    9.7743   -1.8020   -0.4580 H   0  0  0  0  0  0  0  0  0  0  0  0
    8.7705   -2.1132    0.9788 H   0  0  0  0  0  0  0  0  0  0  0  0
    7.3843   -2.1701   -1.0960 H   0  0  0  0  0  0  0  0  0  0  0  0
    7.9020   -0.4960   -1.4746 H   0  0  0  0  0  0  0  0  0  0  0  0
    4.9183    1.0153    0.9551 H   0  0  0  0  0  0  0  0  0  0  0  0
    2.7601   -0.4644   -0.6308 H   0  0  0  0  0  0  0  0  0  0  0  0
    3.3273    1.1791   -0.9068 H   0  0  0  0  0  0  0  0  0  0  0  0
    2.4809    1.8854    1.3167 H   0  0  0  0  0  0  0  0  0  0  0  0
    1.2020    1.1405    0.3372 H   0  0  0  0  0  0  0  0  0  0  0  0
   -0.3624   -1.9580    1.3899 H   0  0  0  0  0  0  0  0  0  0  0  0
   -2.2685   -2.1950   -0.1489 H   0  0  0  0  0  0  0  0  0  0  0  0
   -1.4701    2.1465    2.2031 H   0  0  0  0  0  0  0  0  0  0  0  0
   -4.1600    2.5990    1.2837 H   0  0  0  0  0  0  0  0  0  0  0  0
   -3.2294    2.8187   -0.2315 H   0  0  0  0  0  0  0  0  0  0  0  0
   -5.5967    1.0450    0.3084 H   0  0  0  0  0  0  0  0  0  0  0  0
   -5.0808    1.7656   -1.2345 H   0  0  0  0  0  0  0  0  0  0  0  0
   -6.0865   -1.7970   -2.8276 H   0  0  0  0  0  0  0  0  0  0  0  0
   -5.5327   -0.1123   -4.4736 H   0  0  0  0  0  0  0  0  0  0  0  0
   -5.2738    1.1606   -3.2699 H   0  0  0  0  0  0  0  0  0  0  0  0
   -7.7542    1.3985   -3.3254 H   0  0  0  0  0  0  0  0  0  0  0  0
   -7.9471   -0.2611   -3.9464 H   0  0  0  0  0  0  0  0  0  0  0  0
   -7.1093    0.5649   -1.0976 H   0  0  0  0  0  0  0  0  0  0  0  0
   -7.9286   -0.9275   -1.5640 H   0  0  0  0  0  0  0  0  0  0  0  0
    3.0055   -1.1151    3.4502 H   0  0  0  0  0  0  0  0  0  0  0  0
    3.5398    0.5561    3.1703 H   0  0  0  0  0  0  0  0  0  0  0  0
    5.1638   -1.0818    2.2702 H   0  0  0  0  0  0  0  0  0  0  0  0
    3.9105   -1.8630    1.3165 H   0  0  0  0  0  0  0  0  0  0  0  0
  1  2  1  0
  2  3  1  0
  3  4  1  0
  4  5  2  0
  4  6  1  0
  6  7  1  0
  7  8  1  0
  8  9  1  0
  9 10  1  0
 10 11  2  0
 10 12  2  0
 10 13  1  0
 13 14  2  0
 14 15  1  0
 15 16  2  0
 16 17  1  0
 17 18  2  0
 17 19  1  0
 19 20  1  0
 20 21  1  0
 21 22  1  0
 22 23  2  0
 22 24  1  0
 24 25  1  0
 25 26  1  0
 26 27  1  0
  9 28  1  0
 28 29  1  0
 29  6  1  0
 18 13  1  0
 27 24  1  0
 21 16  1  0
  1 30  1  0
  1 31  1  0
  1 32  1  0
  2 33  1  0
  2 34  1  0
  6 35  1  0
  7 36  1  0
  7 37  1  0
  8 38  1  0
  8 39  1  0
 14 40  1  0
 15 41  1  0
 18 42  1  0
 19 43  1  0
 19 44  1  0
 20 45  1  0
 20 46  1  0
 24 47  1  0
 25 48  1  0
 25 49  1  0
 26 50  1  0
 26 51  1  0
 27 52  1  0
 27 53  1  0
 28 54  1  0
 28 55  1  0
 29 56  1  0
 29 57  1  0
M  END
$$$$
