
     RDKit          3D

 41 43  0  0  0  0  0  0  0  0999 V2000
   -1.8416   -3.7583    1.5186 C   0  0  0  0  0  0  0  0  0  0  0  0
   -2.3613   -2.3747    1.1580 C   0  0  0  0  0  0  0  0  0  0  0  0
   -1.5067   -1.2770    1.7956 C   0  0  0  0  0  0  0  0  0  0  0  0
   -2.0221    0.1434    1.5489 C   0  0  0  0  0  0  0  0  0  0  0  0
   -2.1381    0.6363   -0.1986 S   0  0  0  0  0  0  0  0  0  0  0  0
   -0.4522    0.6362   -0.6042 C   0  0  0  0  0  0  0  0  0  0  0  0
    0.0705   -0.4468   -1.0912 N   0  0  0  0  0  0  0  0  0  0  0  0
    1.4070   -0.1617   -1.1852 C   0  0  0  0  0  0  0  0  0  0  0  0
    2.4043   -0.9488   -1.6129 C   0  0  0  0  0  0  0  0  0  0  0  0
    2.3262   -2.3025   -2.0837 C   0  0  0  0  0  0  0  0  0  0  0  0
    1.1646   -3.1300   -2.1755 C   0  0  0  0  0  0  0  0  0  0  0  0
    1.4473   -4.3856   -2.6695 C   0  0  0  0  0  0  0  0  0  0  0  0
    3.1071   -4.5767   -3.0240 S   0  0  0  0  0  0  0  0  0  0  0  0
    3.4511   -2.9779   -2.5171 C   0  0  0  0  0  0  0  0  0  0  0  0
    1.6577    1.2266   -0.6984 C   0  0  0  0  0  0  0  0  0  0  0  0
    2.7491    1.7674   -0.6572 O   0  0  0  0  0  0  0  0  0  0  0  0
    0.4004    1.6809   -0.3684 N   0  0  0  0  0  0  0  0  0  0  0  0
    0.1403    2.9990    0.0969 C   0  0  0  0  0  0  0  0  0  0  0  0
   -1.0572    3.6708   -0.1868 C   0  0  0  0  0  0  0  0  0  0  0  0
   -1.2924    4.9685    0.2832 C   0  0  0  0  0  0  0  0  0  0  0  0
   -0.3275    5.6254    1.0381 C   0  0  0  0  0  0  0  0  0  0  0  0
    0.8771    4.9892    1.3128 C   0  0  0  0  0  0  0  0  0  0  0  0
    1.1097    3.6927    0.8411 C   0  0  0  0  0  0  0  0  0  0  0  0
   -1.8574   -3.9142    2.6019 H   0  0  0  0  0  0  0  0  0  0  0  0
   -2.4649   -4.5296    1.0555 H   0  0  0  0  0  0  0  0  0  0  0  0
   -0.8142   -3.8947    1.1657 H   0  0  0  0  0  0  0  0  0  0  0  0
   -3.3997   -2.2808    1.4962 H   0  0  0  0  0  0  0  0  0  0  0  0
   -2.3627   -2.2799    0.0670 H   0  0  0  0  0  0  0  0  0  0  0  0
   -1.4818   -1.4374    2.8814 H   0  0  0  0  0  0  0  0  0  0  0  0
   -0.4683   -1.3688    1.4567 H   0  0  0  0  0  0  0  0  0  0  0  0
   -1.3808    0.8604    2.0729 H   0  0  0  0  0  0  0  0  0  0  0  0
   -3.0243    0.2431    1.9799 H   0  0  0  0  0  0  0  0  0  0  0  0
    3.4039   -0.5128   -1.6002 H   0  0  0  0  0  0  0  0  0  0  0  0
    0.1605   -2.8341   -1.8968 H   0  0  0  0  0  0  0  0  0  0  0  0
    0.7557   -5.1993   -2.8388 H   0  0  0  0  0  0  0  0  0  0  0  0
    4.4703   -2.6189   -2.5662 H   0  0  0  0  0  0  0  0  0  0  0  0
   -1.8190    3.2354   -0.8262 H   0  0  0  0  0  0  0  0  0  0  0  0
   -2.2272    5.4696    0.0427 H   0  0  0  0  0  0  0  0  0  0  0  0
   -0.5082    6.6344    1.3995 H   0  0  0  0  0  0  0  0  0  0  0  0
    1.6424    5.4985    1.8936 H   0  0  0  0  0  0  0  0  0  0  0  0
    2.0624    3.2326    1.0948 H   0  0  0  0  0  0  0  0  0  0  0  0
  1  2  1  0
  2  3  1  0
  3  4  1  0
  4  5  1  0
  5  6  1  0
  6  7  2  0
  7  8  1  0
  8  9  2  3
  9 10  1  0
 10 11  1  0
 11 12  2  0
 12 13  1  0
 13 14  1  0
  8 15  1  0
 15 16  2  0
 15 17  1  0
 17 18  1  0
 18 19  2  0
 19 20  1  0
 20 21  2  0
 21 22  1  0
 22 23  2  0
 17  6  1  0
 23 18  1  0
 14 10  2  0
  1 24  1  0
  1 25  1  0
  1 26  1  0
  2 27  1  0
  2 28  1  0
  3 29  1  0
  3 30  1  0
  4 31  1  0
  4 32  1  0
  9 33  1  0
 11 34  1  0
 12 35  1  0
 14 36  1  0
 19 37  1  0
 20 38  1  0
 21 39  1  0
 22 40  1  0
 23 41  1  0
M  END
$$$$
