
     RDKit          3D

 46 48  0  0  0  0  0  0  0  0999 V2000
    8.3076    0.6252   -1.5113 C   0  0  0  0  0  0  0  0  0  0  0  0
    7.5850   -0.3187   -0.7311 O   0  0  0  0  0  0  0  0  0  0  0  0
    6.1745   -0.1524   -0.8770 C   0  0  0  0  0  0  0  0  0  0  0  0
    5.4620   -1.1846   -0.0006 C   0  0  0  0  0  0  0  0  0  0  0  0
    4.0069   -1.1235   -0.1398 N   0  0  0  0  0  0  0  0  0  0  0  0
    3.3110   -0.1944    0.6137 C   0  0  0  0  0  0  0  0  0  0  0  0
    3.8013    0.6073    1.3968 O   0  0  0  0  0  0  0  0  0  0  0  0
    1.8574   -0.2778    0.3203 C   0  0  0  0  0  0  0  0  0  0  0  0
    0.9648    0.4965    0.9506 C   0  0  0  0  0  0  0  0  0  0  0  0
   -0.4849    0.4710    0.7252 C   0  0  0  0  0  0  0  0  0  0  0  0
   -1.0107    1.1578   -0.3708 C   0  0  0  0  0  0  0  0  0  0  0  0
   -2.3886    1.1533   -0.6208 C   0  0  0  0  0  0  0  0  0  0  0  0
   -3.2925    0.4704    0.2036 C   0  0  0  0  0  0  0  0  0  0  0  0
   -4.6443    0.4682   -0.0468 N   0  0  0  0  0  0  0  0  0  0  0  0
   -5.2573    1.0186   -1.2537 C   0  0  0  0  0  0  0  0  0  0  0  0
   -6.6888    0.4892   -1.2146 C   0  0  0  0  0  0  0  0  0  0  0  0
   -6.9737    0.3798    0.2727 C   0  0  0  0  0  0  0  0  0  0  0  0
   -5.6465   -0.1165    0.8407 C   0  0  0  0  0  0  0  0  0  0  0  0
   -2.7384   -0.2096    1.3016 C   0  0  0  0  0  0  0  0  0  0  0  0
   -1.3553   -0.2197    1.5798 C   0  0  0  0  0  0  0  0  0  0  0  0
   -0.8511   -0.9864    2.7720 C   0  0  0  0  0  0  0  0  0  0  0  0
    1.5636   -1.4668   -0.8824 S   0  0  0  0  0  0  0  0  0  0  0  0
    3.2688   -1.8736   -1.0312 C   0  0  0  0  0  0  0  0  0  0  0  0
    3.8164   -3.0062   -2.1261 S   0  0  0  0  0  0  0  0  0  0  0  0
    8.0777    0.4998   -2.5737 H   0  0  0  0  0  0  0  0  0  0  0  0
    9.3762    0.4493   -1.3617 H   0  0  0  0  0  0  0  0  0  0  0  0
    8.0730    1.6453   -1.1922 H   0  0  0  0  0  0  0  0  0  0  0  0
    5.8988   -0.2900   -1.9289 H   0  0  0  0  0  0  0  0  0  0  0  0
    5.8900    0.8625   -0.5755 H   0  0  0  0  0  0  0  0  0  0  0  0
    5.8265   -2.1903   -0.2351 H   0  0  0  0  0  0  0  0  0  0  0  0
    5.7287   -1.0083    1.0491 H   0  0  0  0  0  0  0  0  0  0  0  0
    1.2933    1.2077    1.7063 H   0  0  0  0  0  0  0  0  0  0  0  0
   -0.3578    1.7062   -1.0456 H   0  0  0  0  0  0  0  0  0  0  0  0
   -2.7420    1.7109   -1.4831 H   0  0  0  0  0  0  0  0  0  0  0  0
   -4.7590    0.6868   -2.1709 H   0  0  0  0  0  0  0  0  0  0  0  0
   -5.2515    2.1138   -1.2122 H   0  0  0  0  0  0  0  0  0  0  0  0
   -7.3918    1.1438   -1.7370 H   0  0  0  0  0  0  0  0  0  0  0  0
   -6.7352   -0.5041   -1.6775 H   0  0  0  0  0  0  0  0  0  0  0  0
   -7.8045   -0.2938    0.5000 H   0  0  0  0  0  0  0  0  0  0  0  0
   -7.2115    1.3695    0.6812 H   0  0  0  0  0  0  0  0  0  0  0  0
   -5.5346    0.2124    1.8794 H   0  0  0  0  0  0  0  0  0  0  0  0
   -5.5960   -1.2106    0.7975 H   0  0  0  0  0  0  0  0  0  0  0  0
   -3.3934   -0.7647    1.9682 H   0  0  0  0  0  0  0  0  0  0  0  0
   -1.6754   -1.3965    3.3652 H   0  0  0  0  0  0  0  0  0  0  0  0
   -0.2267   -1.8249    2.4473 H   0  0  0  0  0  0  0  0  0  0  0  0
   -0.2716   -0.3322    3.4314 H   0  0  0  0  0  0  0  0  0  0  0  0
  1  2  1  0
  2  3  1  0
  3  4  1  0
  4  5  1  0
  5  6  1  0
  6  7  2  0
  6  8  1  0
  8  9  2  3
  9 10  1  0
 10 11  2  0
 11 12  1  0
 12 13  2  0
 13 14  1  0
 14 15  1  0
 15 16  1  0
 16 17  1  0
 17 18  1  0
 13 19  1  0
 19 20  2  0
 20 21  1  0
  8 22  1  0
 22 23  1  0
 23 24  2  0
 23  5  1  0
 20 10  1  0
 18 14  1  0
  1 25  1  0
  1 26  1  0
  1 27  1  0
  3 28  1  0
  3 29  1  0
  4 30  1  0
  4 31  1  0
  9 32  1  0
 11 33  1  0
 12 34  1  0
 15 35  1  0
 15 36  1  0
 16 37  1  0
 16 38  1  0
 17 39  1  0
 17 40  1  0
 18 41  1  0
 18 42  1  0
 19 43  1  0
 21 44  1  0
 21 45  1  0
 21 46  1  0
M  END
$$$$
