
     RDKit          3D

 48 51  0  0  0  0  0  0  0  0999 V2000
    4.9653    2.2007   -1.3707 C   0  0  0  0  0  0  0  0  0  0  0  0
    4.3698    0.8881   -0.8657 C   0  0  0  0  0  0  0  0  0  0  0  0
    5.4675   -0.0064   -0.2865 C   0  0  0  0  0  0  0  0  0  0  0  0
    3.2709    1.1653    0.1695 C   0  0  0  0  0  0  0  0  0  0  0  0
    2.6614   -0.0527    0.6211 O   0  0  0  0  0  0  0  0  0  0  0  0
    1.6474   -0.5182   -0.1547 C   0  0  0  0  0  0  0  0  0  0  0  0
    1.2569   -0.0382   -1.2059 O   0  0  0  0  0  0  0  0  0  0  0  0
    1.0941   -1.7475    0.4640 C   0  0  0  0  0  0  0  0  0  0  0  0
    2.0108   -2.7464    0.8422 C   0  0  0  0  0  0  0  0  0  0  0  0
    1.5641   -3.9983    1.2650 C   0  0  0  0  0  0  0  0  0  0  0  0
    0.2001   -4.2718    1.2954 C   0  0  0  0  0  0  0  0  0  0  0  0
   -0.7207   -3.2898    0.9222 C   0  0  0  0  0  0  0  0  0  0  0  0
   -0.2850   -2.0147    0.5206 C   0  0  0  0  0  0  0  0  0  0  0  0
   -1.2669   -1.0198    0.2306 N   0  0  0  0  0  0  0  0  0  0  0  0
   -2.4827   -1.2333   -0.4559 C   0  0  0  0  0  0  0  0  0  0  0  0
   -2.8360   -2.4147   -0.9542 O   0  0  0  0  0  0  0  0  0  0  0  0
   -3.1106   -0.0246   -0.5294 C   0  0  0  0  0  0  0  0  0  0  0  0
   -2.3335    0.9351    0.1417 C   0  0  0  0  0  0  0  0  0  0  0  0
   -1.2278    0.3252    0.6568 C   0  0  0  0  0  0  0  0  0  0  0  0
   -0.2775    0.8004    1.4567 O   0  0  0  0  0  0  0  0  0  0  0  0
   -3.0678    2.2360    0.0623 C   0  0  0  0  0  0  0  0  0  0  0  0
   -4.3438    2.1190    0.9347 C   0  0  0  0  0  0  0  0  0  0  0  0
   -5.2066    1.0529    0.1830 C   0  0  0  0  0  0  0  0  0  0  0  0
   -4.3323    0.6726   -1.0400 C   0  0  0  0  0  0  0  0  0  0  0  0
   -3.7184    2.0769   -1.3512 C   0  0  0  0  0  0  0  0  0  0  0  0
    4.1878    2.8432   -1.7979 H   0  0  0  0  0  0  0  0  0  0  0  0
    5.7107    2.0142   -2.1512 H   0  0  0  0  0  0  0  0  0  0  0  0
    5.4541    2.7532   -0.5604 H   0  0  0  0  0  0  0  0  0  0  0  0
    3.9301    0.3563   -1.7185 H   0  0  0  0  0  0  0  0  0  0  0  0
    6.2530   -0.1867   -1.0280 H   0  0  0  0  0  0  0  0  0  0  0  0
    5.0669   -0.9797    0.0137 H   0  0  0  0  0  0  0  0  0  0  0  0
    5.9321    0.4545    0.5918 H   0  0  0  0  0  0  0  0  0  0  0  0
    2.5111    1.8510   -0.2255 H   0  0  0  0  0  0  0  0  0  0  0  0
    3.6977    1.6513    1.0544 H   0  0  0  0  0  0  0  0  0  0  0  0
    3.0808   -2.5613    0.7795 H   0  0  0  0  0  0  0  0  0  0  0  0
    2.2802   -4.7641    1.5521 H   0  0  0  0  0  0  0  0  0  0  0  0
   -0.1528   -5.2488    1.6163 H   0  0  0  0  0  0  0  0  0  0  0  0
   -1.7809   -3.5245    0.9884 H   0  0  0  0  0  0  0  0  0  0  0  0
   -3.6585   -2.2751   -1.4549 H   0  0  0  0  0  0  0  0  0  0  0  0
   -0.4638    1.7473    1.5808 H   0  0  0  0  0  0  0  0  0  0  0  0
   -2.4680    3.1334    0.2094 H   0  0  0  0  0  0  0  0  0  0  0  0
   -4.1241    1.8026    1.9599 H   0  0  0  0  0  0  0  0  0  0  0  0
   -4.8816    3.0732    0.9717 H   0  0  0  0  0  0  0  0  0  0  0  0
   -6.1542    1.5002   -0.1360 H   0  0  0  0  0  0  0  0  0  0  0  0
   -5.4255    0.1936    0.8257 H   0  0  0  0  0  0  0  0  0  0  0  0
   -4.8502    0.1870   -1.8660 H   0  0  0  0  0  0  0  0  0  0  0  0
   -4.4700    2.8420   -1.5743 H   0  0  0  0  0  0  0  0  0  0  0  0
   -2.9734    2.0417   -2.1559 H   0  0  0  0  0  0  0  0  0  0  0  0
  1  2  1  0
  2  3  1  0
  2  4  1  0
  4  5  1  0
  5  6  1  0
  6  7  2  0
  6  8  1  0
  8  9  2  0
  9 10  1  0
 10 11  2  0
 11 12  1  0
 12 13  2  0
 13 14  1  0
 14 15  1  0
 15 16  1  0
 15 17  2  0
 17 18  1  0
 18 19  2  0
 19 20  1  0
 18 21  1  0
 21 22  1  0
 22 23  1  0
 23 24  1  0
 24 25  1  0
 13  8  1  0
 19 14  1  0
 25 21  1  0
 24 17  1  0
  1 26  1  0
  1 27  1  0
  1 28  1  0
  2 29  1  0
  3 30  1  0
  3 31  1  0
  3 32  1  0
  4 33  1  0
  4 34  1  0
  9 35  1  0
 10 36  1  0
 11 37  1  0
 12 38  1  0
 16 39  1  0
 20 40  1  0
 21 41  1  0
 22 42  1  0
 22 43  1  0
 23 44  1  0
 23 45  1  0
 24 46  1  0
 25 47  1  0
 25 48  1  0
M  END
$$$$
