
     RDKit          3D

 56 59  0  0  0  0  0  0  0  0999 V2000
   -3.7827   -0.9164    2.5339 O   0  0  0  0  0  0  0  0  0  0  0  0
   -3.1214   -0.2152    1.7611 C   0  0  0  0  0  0  0  0  0  0  0  0
   -2.0124    0.6858    2.3605 C   0  0  0  0  0  0  0  0  0  0  0  0
   -0.7798    0.7009    1.5504 N   0  0  0  0  0  0  0  0  0  0  0  0
   -0.1172   -0.6190    1.5129 C   0  0  0  0  0  0  0  0  0  0  0  0
    1.4102   -0.5868    1.2255 C   0  0  0  0  0  0  0  0  0  0  0  0
    1.8080    0.5761    0.4235 N   0  0  0  0  0  0  0  0  0  0  0  0
    3.2292    0.5847    0.0577 C   0  0  0  0  0  0  0  0  0  0  0  0
    3.6145   -0.5052   -0.9600 C   0  0  0  0  0  0  0  0  0  0  0  0
    4.9455   -0.3289   -1.4589 O   0  0  0  0  0  0  0  0  0  0  0  0
    5.9545   -0.7493   -0.5334 C   0  0  0  0  0  0  0  0  0  0  0  0
    7.3051   -0.6397   -1.2342 C   0  0  0  0  0  0  0  0  0  0  0  0
    7.3241   -1.5051   -2.3677 O   0  0  0  0  0  0  0  0  0  0  0  0
    1.4257    1.8263    1.1129 C   0  0  0  0  0  0  0  0  0  0  0  0
    0.1576    1.7333    2.0034 C   0  0  0  0  0  0  0  0  0  0  0  0
   -3.2733   -0.1886    0.3603 N   0  0  0  0  0  0  0  0  0  0  0  0
   -3.4302   -1.4106   -0.3982 C   0  0  0  0  0  0  0  0  0  0  0  0
   -3.8921   -2.5945    0.2122 C   0  0  0  0  0  0  0  0  0  0  0  0
   -4.0396   -3.7922   -0.4989 C   0  0  0  0  0  0  0  0  0  0  0  0
   -3.7175   -3.8459   -1.8457 C   0  0  0  0  0  0  0  0  0  0  0  0
   -3.2376   -2.7024   -2.4721 C   0  0  0  0  0  0  0  0  0  0  0  0
   -3.0878   -1.4959   -1.7619 C   0  0  0  0  0  0  0  0  0  0  0  0
   -2.3328   -0.1615   -2.6573 S   0  0  0  0  0  0  0  0  0  0  0  0
   -2.9046    1.2012   -1.6902 C   0  0  0  0  0  0  0  0  0  0  0  0
   -2.9327    2.4588   -2.3200 C   0  0  0  0  0  0  0  0  0  0  0  0
   -3.3803    3.5890   -1.6407 C   0  0  0  0  0  0  0  0  0  0  0  0
   -3.8219    3.4576   -0.3335 C   0  0  0  0  0  0  0  0  0  0  0  0
   -4.4112    4.8349    0.5134 Cl  0  0  0  0  0  0  0  0  0  0  0  0
   -3.7943    2.2144    0.3001 C   0  0  0  0  0  0  0  0  0  0  0  0
   -3.2965    1.0661   -0.3509 C   0  0  0  0  0  0  0  0  0  0  0  0
   -2.4134    1.6948    2.4857 H   0  0  0  0  0  0  0  0  0  0  0  0
   -1.7922    0.3178    3.3703 H   0  0  0  0  0  0  0  0  0  0  0  0
   -0.2609   -1.1631    2.4555 H   0  0  0  0  0  0  0  0  0  0  0  0
   -0.5957   -1.2107    0.7252 H   0  0  0  0  0  0  0  0  0  0  0  0
    1.6683   -1.5231    0.7191 H   0  0  0  0  0  0  0  0  0  0  0  0
    1.9512   -0.5779    2.1815 H   0  0  0  0  0  0  0  0  0  0  0  0
    3.8569    0.5078    0.9534 H   0  0  0  0  0  0  0  0  0  0  0  0
    3.4817    1.5505   -0.4006 H   0  0  0  0  0  0  0  0  0  0  0  0
    2.9500   -0.4342   -1.8285 H   0  0  0  0  0  0  0  0  0  0  0  0
    3.5074   -1.5156   -0.5501 H   0  0  0  0  0  0  0  0  0  0  0  0
    5.9420   -0.1083    0.3543 H   0  0  0  0  0  0  0  0  0  0  0  0
    5.7656   -1.7916   -0.2478 H   0  0  0  0  0  0  0  0  0  0  0  0
    8.1193   -0.9292   -0.5659 H   0  0  0  0  0  0  0  0  0  0  0  0
    7.4796    0.3788   -1.5916 H   0  0  0  0  0  0  0  0  0  0  0  0
    6.4964   -1.3140   -2.8505 H   0  0  0  0  0  0  0  0  0  0  0  0
    1.2550    2.5856    0.3408 H   0  0  0  0  0  0  0  0  0  0  0  0
    2.2431    2.1902    1.7480 H   0  0  0  0  0  0  0  0  0  0  0  0
   -0.3294    2.7146    1.9996 H   0  0  0  0  0  0  0  0  0  0  0  0
    0.4620    1.5290    3.0373 H   0  0  0  0  0  0  0  0  0  0  0  0
   -4.1873   -2.6264    1.2571 H   0  0  0  0  0  0  0  0  0  0  0  0
   -4.4120   -4.6784    0.0099 H   0  0  0  0  0  0  0  0  0  0  0  0
   -3.8254   -4.7733   -2.4022 H   0  0  0  0  0  0  0  0  0  0  0  0
   -2.9622   -2.7593   -3.5225 H   0  0  0  0  0  0  0  0  0  0  0  0
   -2.6031    2.5633   -3.3519 H   0  0  0  0  0  0  0  0  0  0  0  0
   -3.3954    4.5537   -2.1405 H   0  0  0  0  0  0  0  0  0  0  0  0
   -4.2100    2.1471    1.3019 H   0  0  0  0  0  0  0  0  0  0  0  0
  1  2  2  0
  2  3  1  0
  3  4  1  0
  4  5  1  0
  5  6  1  0
  6  7  1  0
  7  8  1  0
  8  9  1  0
  9 10  1  0
 10 11  1  0
 11 12  1  0
 12 13  1  0
  7 14  1  0
 14 15  1  0
  2 16  1  0
 16 17  1  0
 17 18  2  0
 18 19  1  0
 19 20  2  0
 20 21  1  0
 21 22  2  0
 22 23  1  0
 23 24  1  0
 24 25  2  0
 25 26  1  0
 26 27  2  0
 27 28  1  0
 27 29  1  0
 29 30  2  0
 15  4  1  0
 30 16  1  0
 22 17  1  0
 30 24  1  0
  3 31  1  0
  3 32  1  0
  5 33  1  0
  5 34  1  0
  6 35  1  0
  6 36  1  0
  8 37  1  0
  8 38  1  0
  9 39  1  0
  9 40  1  0
 11 41  1  0
 11 42  1  0
 12 43  1  0
 12 44  1  0
 13 45  1  0
 14 46  1  0
 14 47  1  0
 15 48  1  0
 15 49  1  0
 18 50  1  0
 19 51  1  0
 20 52  1  0
 21 53  1  0
 25 54  1  0
 26 55  1  0
 29 56  1  0
M  END
$$$$
