
     RDKit          3D

 43 45  0  0  0  0  0  0  0  0999 V2000
    3.8673    1.4362    2.0415 C   0  0  0  0  0  0  0  0  0  0  0  0
    3.6639   -0.0642    2.2233 C   0  0  0  0  0  0  0  0  0  0  0  0
    3.9323   -0.8416    0.9380 C   0  0  0  0  0  0  0  0  0  0  0  0
    2.0351   -0.4657    2.9792 S   0  0  0  0  0  0  0  0  0  0  0  0
    0.9152   -0.2911    1.6027 C   0  0  0  0  0  0  0  0  0  0  0  0
    0.0763   -1.3387    1.2909 C   0  0  0  0  0  0  0  0  0  0  0  0
   -0.7950   -1.1640    0.2356 C   0  0  0  0  0  0  0  0  0  0  0  0
   -1.6541   -2.1844   -0.1613 N   0  0  0  0  0  0  0  0  0  0  0  0
   -2.3456   -2.9846    0.8671 C   0  0  0  0  0  0  0  0  0  0  0  0
   -3.8609   -3.0267    0.6035 C   0  0  0  0  0  0  0  0  0  0  0  0
   -4.2068   -3.5466   -0.6872 O   0  0  0  0  0  0  0  0  0  0  0  0
   -3.2683   -3.1891   -1.7148 C   0  0  0  0  0  0  0  0  0  0  0  0
   -2.4310   -1.9425   -1.3895 C   0  0  0  0  0  0  0  0  0  0  0  0
   -0.7914   -0.0151   -0.4600 N   0  0  0  0  0  0  0  0  0  0  0  0
    0.0429    0.9698   -0.0755 C   0  0  0  0  0  0  0  0  0  0  0  0
    0.0070    2.2367   -0.8355 C   0  0  0  0  0  0  0  0  0  0  0  0
    0.7369    3.3672   -0.4191 C   0  0  0  0  0  0  0  0  0  0  0  0
    0.7043    4.5668   -1.1380 C   0  0  0  0  0  0  0  0  0  0  0  0
   -0.0628    4.6650   -2.2946 C   0  0  0  0  0  0  0  0  0  0  0  0
   -0.7968    3.5667   -2.7311 C   0  0  0  0  0  0  0  0  0  0  0  0
   -0.7615    2.3691   -2.0090 C   0  0  0  0  0  0  0  0  0  0  0  0
    0.9030    0.8758    0.9489 N   0  0  0  0  0  0  0  0  0  0  0  0
    3.2472    1.8490    1.2422 H   0  0  0  0  0  0  0  0  0  0  0  0
    4.9096    1.6426    1.7723 H   0  0  0  0  0  0  0  0  0  0  0  0
    3.6561    1.9852    2.9655 H   0  0  0  0  0  0  0  0  0  0  0  0
    4.3989   -0.3990    2.9651 H   0  0  0  0  0  0  0  0  0  0  0  0
    3.7942   -1.9182    1.0859 H   0  0  0  0  0  0  0  0  0  0  0  0
    3.2888   -0.5185    0.1136 H   0  0  0  0  0  0  0  0  0  0  0  0
    4.9682   -0.6878    0.6148 H   0  0  0  0  0  0  0  0  0  0  0  0
    0.1249   -2.2703    1.8381 H   0  0  0  0  0  0  0  0  0  0  0  0
   -1.9405   -4.0023    0.8265 H   0  0  0  0  0  0  0  0  0  0  0  0
   -2.1883   -2.5959    1.8796 H   0  0  0  0  0  0  0  0  0  0  0  0
   -4.3532   -3.6553    1.3525 H   0  0  0  0  0  0  0  0  0  0  0  0
   -4.2927   -2.0224    0.6890 H   0  0  0  0  0  0  0  0  0  0  0  0
   -3.8359   -3.0334   -2.6377 H   0  0  0  0  0  0  0  0  0  0  0  0
   -2.6140   -4.0542   -1.8738 H   0  0  0  0  0  0  0  0  0  0  0  0
   -3.0986   -1.0823   -1.2517 H   0  0  0  0  0  0  0  0  0  0  0  0
   -1.7603   -1.7379   -2.2325 H   0  0  0  0  0  0  0  0  0  0  0  0
    1.3412    3.3211    0.4856 H   0  0  0  0  0  0  0  0  0  0  0  0
    1.2781    5.4217   -0.7899 H   0  0  0  0  0  0  0  0  0  0  0  0
   -0.0895    5.5964   -2.8538 H   0  0  0  0  0  0  0  0  0  0  0  0
   -1.3990    3.6373   -3.6332 H   0  0  0  0  0  0  0  0  0  0  0  0
   -1.3452    1.5252   -2.3735 H   0  0  0  0  0  0  0  0  0  0  0  0
  1  2  1  0
  2  3  1  0
  2  4  1  0
  4  5  1  0
  5  6  2  0
  6  7  1  0
  7  8  1  0
  8  9  1  0
  9 10  1  0
 10 11  1  0
 11 12  1  0
 12 13  1  0
  7 14  2  0
 14 15  1  0
 15 16  1  0
 16 17  2  0
 17 18  1  0
 18 19  2  0
 19 20  1  0
 20 21  2  0
 15 22  2  0
 22  5  1  0
 13  8  1  0
 21 16  1  0
  1 23  1  0
  1 24  1  0
  1 25  1  0
  2 26  1  0
  3 27  1  0
  3 28  1  0
  3 29  1  0
  6 30  1  0
  9 31  1  0
  9 32  1  0
 10 33  1  0
 10 34  1  0
 12 35  1  0
 12 36  1  0
 13 37  1  0
 13 38  1  0
 17 39  1  0
 18 40  1  0
 19 41  1  0
 20 42  1  0
 21 43  1  0
M  END
$$$$
