
     RDKit          3D

 43 46  0  0  0  0  0  0  0  0999 V2000
   -1.9775   -2.8539   -0.4910 C   0  0  0  0  0  0  0  0  0  0  0  0
   -1.6636   -2.0637    0.7646 C   0  0  0  0  0  0  0  0  0  0  0  0
   -1.7846   -0.6588    0.4971 O   0  0  0  0  0  0  0  0  0  0  0  0
   -3.0148   -0.1143    0.7063 C   0  0  0  0  0  0  0  0  0  0  0  0
   -3.9972   -0.7466    1.0717 O   0  0  0  0  0  0  0  0  0  0  0  0
   -2.9971    1.3185    0.4538 C   0  0  0  0  0  0  0  0  0  0  0  0
   -4.0202    2.1882    0.8193 C   0  0  0  0  0  0  0  0  0  0  0  0
   -3.6093    3.4930    0.4435 C   0  0  0  0  0  0  0  0  0  0  0  0
   -4.1919    5.1215    0.5122 S   0  0  0  0  0  0  0  0  0  0  0  0
   -2.7474    5.6649   -0.2457 C   0  0  0  0  0  0  0  0  0  0  0  0
   -1.8569    4.6580   -0.5522 C   0  0  0  0  0  0  0  0  0  0  0  0
   -2.3856    3.4005   -0.1448 C   0  0  0  0  0  0  0  0  0  0  0  0
   -2.0150    2.0701   -0.1738 N   0  0  0  0  0  0  0  0  0  0  0  0
   -0.8176    1.6075   -0.8615 C   0  0  0  0  0  0  0  0  0  0  0  0
    0.3554    1.3995    0.0741 C   0  0  0  0  0  0  0  0  0  0  0  0
    0.5583    2.1051    1.0605 O   0  0  0  0  0  0  0  0  0  0  0  0
    1.3184    0.3026   -0.2310 C   0  0  0  0  0  0  0  0  0  0  0  0
    1.4770   -0.2116   -1.5252 C   0  0  0  0  0  0  0  0  0  0  0  0
    2.3754   -1.2574   -1.7568 C   0  0  0  0  0  0  0  0  0  0  0  0
    3.1158   -1.7873   -0.7023 C   0  0  0  0  0  0  0  0  0  0  0  0
    2.9881   -1.2506    0.5818 C   0  0  0  0  0  0  0  0  0  0  0  0
    2.0857   -0.2161    0.8208 C   0  0  0  0  0  0  0  0  0  0  0  0
    3.7101   -1.7003    1.6570 O   0  0  0  0  0  0  0  0  0  0  0  0
    4.8295   -2.4910    1.2405 C   0  0  0  0  0  0  0  0  0  0  0  0
    4.4086   -3.4960    0.1810 C   0  0  0  0  0  0  0  0  0  0  0  0
    3.9570   -2.8268   -1.0030 O   0  0  0  0  0  0  0  0  0  0  0  0
   -1.8354   -3.9249   -0.3216 H   0  0  0  0  0  0  0  0  0  0  0  0
   -3.0097   -2.6835   -0.8129 H   0  0  0  0  0  0  0  0  0  0  0  0
   -1.3302   -2.5376   -1.3157 H   0  0  0  0  0  0  0  0  0  0  0  0
   -0.6259   -2.2447    1.0633 H   0  0  0  0  0  0  0  0  0  0  0  0
   -2.2972   -2.3725    1.6037 H   0  0  0  0  0  0  0  0  0  0  0  0
   -4.9420    1.9123    1.3160 H   0  0  0  0  0  0  0  0  0  0  0  0
   -2.6239    6.7236   -0.4285 H   0  0  0  0  0  0  0  0  0  0  0  0
   -0.8969    4.8211   -1.0238 H   0  0  0  0  0  0  0  0  0  0  0  0
   -1.0945    0.6937   -1.3942 H   0  0  0  0  0  0  0  0  0  0  0  0
   -0.5368    2.3527   -1.6133 H   0  0  0  0  0  0  0  0  0  0  0  0
    0.9251    0.1863   -2.3718 H   0  0  0  0  0  0  0  0  0  0  0  0
    2.4951   -1.6641   -2.7580 H   0  0  0  0  0  0  0  0  0  0  0  0
    1.9852    0.1855    1.8273 H   0  0  0  0  0  0  0  0  0  0  0  0
    5.6128   -1.8188    0.8685 H   0  0  0  0  0  0  0  0  0  0  0  0
    5.2158   -3.0102    2.1231 H   0  0  0  0  0  0  0  0  0  0  0  0
    5.2565   -4.1289   -0.0990 H   0  0  0  0  0  0  0  0  0  0  0  0
    3.6014   -4.1452    0.5422 H   0  0  0  0  0  0  0  0  0  0  0  0
  1  2  1  0
  2  3  1  0
  3  4  1  0
  4  5  2  0
  4  6  1  0
  6  7  2  0
  7  8  1  0
  8  9  1  0
  9 10  1  0
 10 11  2  0
 11 12  1  0
 12 13  1  0
 13 14  1  0
 14 15  1  0
 15 16  2  0
 15 17  1  0
 17 18  2  0
 18 19  1  0
 19 20  2  0
 20 21  1  0
 21 22  2  0
 21 23  1  0
 23 24  1  0
 24 25  1  0
 25 26  1  0
 13  6  1  0
 22 17  1  0
 12  8  2  0
 26 20  1  0
  1 27  1  0
  1 28  1  0
  1 29  1  0
  2 30  1  0
  2 31  1  0
  7 32  1  0
 10 33  1  0
 11 34  1  0
 14 35  1  0
 14 36  1  0
 18 37  1  0
 19 38  1  0
 22 39  1  0
 24 40  1  0
 24 41  1  0
 25 42  1  0
 25 43  1  0
M  END
$$$$
