
     RDKit          3D

 80 86  0  0  0  0  0  0  0  0999 V2000
   -5.9315   -0.6305    0.3208 C   0  0  0  0  0  0  0  0  0  0  0  0
   -4.6350   -0.0787    0.8405 C   0  0  0  0  0  0  0  0  0  0  0  0
   -4.5862    0.5871    2.0903 C   0  0  0  0  0  0  0  0  0  0  0  0
   -5.9891    0.8070    3.0869 Cl  0  0  0  0  0  0  0  0  0  0  0  0
   -3.3937    1.1289    2.5970 C   0  0  0  0  0  0  0  0  0  0  0  0
   -2.2083    1.0201    1.8841 C   0  0  0  0  0  0  0  0  0  0  0  0
   -2.2294    0.3561    0.6630 C   0  0  0  0  0  0  0  0  0  0  0  0
   -3.4273   -0.1736    0.1288 C   0  0  0  0  0  0  0  0  0  0  0  0
   -3.1410   -0.7097   -1.1532 N   0  0  0  0  0  0  0  0  0  0  0  0
   -4.0371   -1.3774   -2.0700 C   0  0  0  0  0  0  0  0  0  0  0  0
   -4.3160   -2.8332   -1.7537 C   0  0  0  0  0  0  0  0  0  0  0  0
   -3.3743   -3.6618   -1.1233 C   0  0  0  0  0  0  0  0  0  0  0  0
   -3.6633   -5.0039   -0.8674 C   0  0  0  0  0  0  0  0  0  0  0  0
   -4.8908   -5.5403   -1.2512 C   0  0  0  0  0  0  0  0  0  0  0  0
   -5.8236   -4.7407   -1.9063 C   0  0  0  0  0  0  0  0  0  0  0  0
   -5.5354   -3.3997   -2.1647 C   0  0  0  0  0  0  0  0  0  0  0  0
   -1.7836   -0.5476   -1.4976 C   0  0  0  0  0  0  0  0  0  0  0  0
   -1.2624   -0.8864   -2.5537 O   0  0  0  0  0  0  0  0  0  0  0  0
   -1.0862    0.1156   -0.2868 C   0  0  1  0  0  0  0  0  0  0  0  0
   -0.4656    1.4148   -0.6307 C   0  0  0  0  0  0  0  0  0  0  0  0
    0.9235    1.3128   -0.6226 C   0  0  0  0  0  0  0  0  0  0  0  0
    1.4608    2.5193   -0.9896 C   0  0  0  0  0  0  0  0  0  0  0  0
    2.7377    2.8792   -1.0958 O   0  0  0  0  0  0  0  0  0  0  0  0
    0.3873    3.4141   -1.2084 N   0  0  0  0  0  0  0  0  0  0  0  0
    0.4926    4.7976   -1.5931 C   0  0  0  0  0  0  0  0  0  0  0  0
   -0.5433    5.7025   -1.3162 C   0  0  0  0  0  0  0  0  0  0  0  0
   -0.4426    7.0458   -1.6936 C   0  0  0  0  0  0  0  0  0  0  0  0
    0.6931    7.5046   -2.3542 C   0  0  0  0  0  0  0  0  0  0  0  0
    1.7294    6.6209   -2.6348 C   0  0  0  0  0  0  0  0  0  0  0  0
    1.6314    5.2766   -2.2587 C   0  0  0  0  0  0  0  0  0  0  0  0
   -0.8105    2.6960   -0.9839 C   0  0  0  0  0  0  0  0  0  0  0  0
   -2.0172    3.2308   -1.1606 O   0  0  0  0  0  0  0  0  0  0  0  0
    1.3678   -0.0492   -0.2437 C   0  0  1  0  0  0  0  0  0  0  0  0
    2.4396   -0.0658    0.8662 C   0  0  0  0  0  0  0  0  0  0  0  0
    2.5797   -1.3935    1.4657 N   0  0  0  0  0  0  0  0  0  0  0  0
    3.7886   -1.9839    1.7713 C   0  0  0  0  0  0  0  0  0  0  0  0
    3.8843   -3.0982    2.2672 O   0  0  0  0  0  0  0  0  0  0  0  0
    4.8391   -1.1853    1.4557 O   0  0  0  0  0  0  0  0  0  0  0  0
    6.2057   -1.6198    1.6682 C   0  0  0  0  0  0  0  0  0  0  0  0
    6.5369   -2.8499    0.8161 C   0  0  0  0  0  0  0  0  0  0  0  0
    7.0654   -0.4417    1.1814 C   0  0  0  0  0  0  0  0  0  0  0  0
    6.4940   -1.8557    3.1549 C   0  0  0  0  0  0  0  0  0  0  0  0
    1.3459   -2.1288    1.7367 C   0  0  0  0  0  0  0  0  0  0  0  0
    0.0775   -1.2926    1.4752 C   0  0  0  0  0  0  0  0  0  0  0  0
    0.0742   -0.7374    0.1226 N   0  0  0  0  0  0  0  0  0  0  0  0
   -6.7694   -0.5201    1.0137 H   0  0  0  0  0  0  0  0  0  0  0  0
   -5.8424   -1.7037    0.1498 H   0  0  0  0  0  0  0  0  0  0  0  0
   -6.2279   -0.1097   -0.5937 H   0  0  0  0  0  0  0  0  0  0  0  0
   -3.3922    1.6456    3.5549 H   0  0  0  0  0  0  0  0  0  0  0  0
   -1.2932    1.4578    2.2734 H   0  0  0  0  0  0  0  0  0  0  0  0
   -4.9618   -0.7988   -2.1412 H   0  0  0  0  0  0  0  0  0  0  0  0
   -3.5998   -1.3526   -3.0759 H   0  0  0  0  0  0  0  0  0  0  0  0
   -2.4006   -3.2758   -0.8290 H   0  0  0  0  0  0  0  0  0  0  0  0
   -2.9292   -5.6312   -0.3692 H   0  0  0  0  0  0  0  0  0  0  0  0
   -5.1136   -6.5852   -1.0508 H   0  0  0  0  0  0  0  0  0  0  0  0
   -6.7746   -5.1621   -2.2207 H   0  0  0  0  0  0  0  0  0  0  0  0
   -6.2724   -2.7975   -2.6921 H   0  0  0  0  0  0  0  0  0  0  0  0
    3.2974    2.0982   -0.9539 H   0  0  0  0  0  0  0  0  0  0  0  0
   -1.4350    5.4037   -0.7739 H   0  0  0  0  0  0  0  0  0  0  0  0
   -1.2539    7.7309   -1.4663 H   0  0  0  0  0  0  0  0  0  0  0  0
    0.7714    8.5477   -2.6468 H   0  0  0  0  0  0  0  0  0  0  0  0
    2.6183    6.9714   -3.1516 H   0  0  0  0  0  0  0  0  0  0  0  0
    2.4526    4.6236   -2.5330 H   0  0  0  0  0  0  0  0  0  0  0  0
   -2.6905    2.5506   -0.9821 H   0  0  0  0  0  0  0  0  0  0  0  0
    1.7619   -0.5668   -1.1275 H   0  0  0  0  0  0  0  0  0  0  0  0
    3.3933    0.2861    0.4611 H   0  0  0  0  0  0  0  0  0  0  0  0
    2.1720    0.6202    1.6810 H   0  0  0  0  0  0  0  0  0  0  0  0
    5.9947   -3.7397    1.1510 H   0  0  0  0  0  0  0  0  0  0  0  0
    6.2543   -2.6860   -0.2306 H   0  0  0  0  0  0  0  0  0  0  0  0
    7.6057   -3.0830    0.8542 H   0  0  0  0  0  0  0  0  0  0  0  0
    8.1357   -0.6495    1.2782 H   0  0  0  0  0  0  0  0  0  0  0  0
    6.8494   -0.2104    0.1318 H   0  0  0  0  0  0  0  0  0  0  0  0
    6.8389    0.4675    1.7511 H   0  0  0  0  0  0  0  0  0  0  0  0
    6.1507   -1.0098    3.7586 H   0  0  0  0  0  0  0  0  0  0  0  0
    7.5622   -2.0029    3.3348 H   0  0  0  0  0  0  0  0  0  0  0  0
    5.9773   -2.7413    3.5330 H   0  0  0  0  0  0  0  0  0  0  0  0
    1.3639   -2.4665    2.7806 H   0  0  0  0  0  0  0  0  0  0  0  0
    1.3486   -3.0246    1.1018 H   0  0  0  0  0  0  0  0  0  0  0  0
    0.0445   -0.4946    2.2262 H   0  0  0  0  0  0  0  0  0  0  0  0
   -0.7975   -1.9362    1.6247 H   0  0  0  0  0  0  0  0  0  0  0  0
  1  2  1  0
  2  3  2  0
  3  4  1  0
  3  5  1  0
  5  6  2  0
  6  7  1  0
  7  8  2  0
  8  9  1  0
  9 10  1  0
 10 11  1  0
 11 12  2  0
 12 13  1  0
 13 14  2  0
 14 15  1  0
 15 16  2  0
  9 17  1  0
 17 18  2  0
 17 19  1  0
 19 20  1  0
 20 21  1  0
 21 22  2  0
 22 23  1  0
 22 24  1  0
 24 25  1  0
 25 26  2  0
 26 27  1  0
 27 28  2  0
 28 29  1  0
 29 30  2  0
 24 31  1  0
 31 32  1  0
 21 33  1  0
 33 34  1  0
 34 35  1  0
 35 36  1  0
 36 37  2  0
 36 38  1  0
 38 39  1  0
 39 40  1  0
 39 41  1  0
 39 42  1  0
 35 43  1  0
 43 44  1  0
 44 45  1  0
  8  2  1  0
 16 11  1  0
 19 45  1  1
 19  7  1  0
 31 20  2  0
 45 33  1  0
 30 25  1  0
  1 46  1  0
  1 47  1  0
  1 48  1  0
  5 49  1  0
  6 50  1  0
 10 51  1  0
 10 52  1  0
 12 53  1  0
 13 54  1  0
 14 55  1  0
 15 56  1  0
 16 57  1  0
 23 58  1  0
 26 59  1  0
 27 60  1  0
 28 61  1  0
 29 62  1  0
 30 63  1  0
 32 64  1  0
 33 65  1  6
 34 66  1  0
 34 67  1  0
 40 68  1  0
 40 69  1  0
 40 70  1  0
 41 71  1  0
 41 72  1  0
 41 73  1  0
 42 74  1  0
 42 75  1  0
 42 76  1  0
 43 77  1  0
 43 78  1  0
 44 79  1  0
 44 80  1  0
M  END
$$$$
