
     RDKit          3D

 47 50  0  0  0  0  0  0  0  0999 V2000
   -4.5538    1.1419    3.1330 C   0  0  0  0  0  0  0  0  0  0  0  0
   -3.2511    1.0617    2.4782 N   0  0  0  0  0  0  0  0  0  0  0  0
   -2.9030   -0.3455    2.1924 C   0  0  0  0  0  0  0  0  0  0  0  0
   -1.8256   -0.4657    1.0943 C   0  0  0  0  0  0  0  0  0  0  0  0
   -2.2898    0.0272   -0.2250 N   0  0  0  0  0  0  0  0  0  0  0  0
   -1.1601    0.4747   -1.0547 C   0  0  0  0  0  0  0  0  0  0  0  0
   -0.2408   -0.6583   -1.4512 C   0  0  0  0  0  0  0  0  0  0  0  0
   -0.7100   -1.6698   -2.2924 C   0  0  0  0  0  0  0  0  0  0  0  0
    0.1257   -2.7258   -2.6656 C   0  0  0  0  0  0  0  0  0  0  0  0
   -0.5545   -3.9284   -3.7128 Cl  0  0  0  0  0  0  0  0  0  0  0  0
    1.4618   -2.8094   -2.1988 C   0  0  0  0  0  0  0  0  0  0  0  0
    2.3567   -3.8524   -2.5289 C   0  0  0  0  0  0  0  0  0  0  0  0
    3.6502   -3.8679   -2.0216 C   0  0  0  0  0  0  0  0  0  0  0  0
    4.0242   -2.8387   -1.1868 C   0  0  0  0  0  0  0  0  0  0  0  0
    3.2057   -1.8240   -0.8405 N   0  0  0  0  0  0  0  0  0  0  0  0
    1.9496   -1.7996   -1.3431 C   0  0  0  0  0  0  0  0  0  0  0  0
    1.0874   -0.7459   -1.0094 C   0  0  0  0  0  0  0  0  0  0  0  0
    1.5732    0.2403   -0.1304 O   0  0  0  0  0  0  0  0  0  0  0  0
    2.3780    1.1796   -0.7729 C   0  0  0  0  0  0  0  0  0  0  0  0
    2.4675    1.3061   -1.9908 O   0  0  0  0  0  0  0  0  0  0  0  0
    3.0236    2.0125    0.2277 C   0  0  0  0  0  0  0  0  0  0  0  0
    2.9844    1.9248    1.6092 C   0  0  0  0  0  0  0  0  0  0  0  0
    3.7555    2.9412    2.2457 C   0  0  0  0  0  0  0  0  0  0  0  0
    4.3617    3.7732    1.3328 C   0  0  0  0  0  0  0  0  0  0  0  0
    4.0020    3.3284   -0.2777 S   0  0  0  0  0  0  0  0  0  0  0  0
   -3.2978    1.0976   -0.0636 C   0  0  0  0  0  0  0  0  0  0  0  0
   -3.1939    1.8913    1.2585 C   0  0  0  0  0  0  0  0  0  0  0  0
   -4.5636    0.5370    4.0467 H   0  0  0  0  0  0  0  0  0  0  0  0
   -4.7672    2.1725    3.4374 H   0  0  0  0  0  0  0  0  0  0  0  0
   -5.3660    0.7992    2.4819 H   0  0  0  0  0  0  0  0  0  0  0  0
   -2.5300   -0.8091    3.1131 H   0  0  0  0  0  0  0  0  0  0  0  0
   -3.7864   -0.9184    1.8779 H   0  0  0  0  0  0  0  0  0  0  0  0
   -1.5380   -1.5190    0.9971 H   0  0  0  0  0  0  0  0  0  0  0  0
   -0.9366    0.0838    1.4334 H   0  0  0  0  0  0  0  0  0  0  0  0
   -0.6136    1.2878   -0.5618 H   0  0  0  0  0  0  0  0  0  0  0  0
   -1.5381    0.9021   -1.9938 H   0  0  0  0  0  0  0  0  0  0  0  0
   -1.7379   -1.6350   -2.6502 H   0  0  0  0  0  0  0  0  0  0  0  0
    2.0518   -4.6629   -3.1869 H   0  0  0  0  0  0  0  0  0  0  0  0
    4.3430   -4.6627   -2.2731 H   0  0  0  0  0  0  0  0  0  0  0  0
    5.0219   -2.7962   -0.7591 H   0  0  0  0  0  0  0  0  0  0  0  0
    2.4301    1.1626    2.1452 H   0  0  0  0  0  0  0  0  0  0  0  0
    3.8611    3.0535    3.3180 H   0  0  0  0  0  0  0  0  0  0  0  0
    5.0019    4.6220    1.5316 H   0  0  0  0  0  0  0  0  0  0  0  0
   -4.2869    0.6222   -0.1014 H   0  0  0  0  0  0  0  0  0  0  0  0
   -3.2819    1.7948   -0.9105 H   0  0  0  0  0  0  0  0  0  0  0  0
   -3.9593    2.6774    1.2729 H   0  0  0  0  0  0  0  0  0  0  0  0
   -2.2314    2.4193    1.2674 H   0  0  0  0  0  0  0  0  0  0  0  0
  1  2  1  0
  2  3  1  0
  3  4  1  0
  4  5  1  0
  5  6  1  0
  6  7  1  0
  7  8  2  0
  8  9  1  0
  9 10  1  0
  9 11  2  0
 11 12  1  0
 12 13  2  0
 13 14  1  0
 14 15  2  0
 15 16  1  0
 16 17  2  0
 17 18  1  0
 18 19  1  0
 19 20  2  0
 19 21  1  0
 21 22  2  0
 22 23  1  0
 23 24  2  0
 24 25  1  0
  5 26  1  0
 26 27  1  0
 27  2  1  0
 17  7  1  0
 25 21  1  0
 16 11  1  0
  1 28  1  0
  1 29  1  0
  1 30  1  0
  3 31  1  0
  3 32  1  0
  4 33  1  0
  4 34  1  0
  6 35  1  0
  6 36  1  0
  8 37  1  0
 12 38  1  0
 13 39  1  0
 14 40  1  0
 22 41  1  0
 23 42  1  0
 24 43  1  0
 26 44  1  0
 26 45  1  0
 27 46  1  0
 27 47  1  0
M  END
$$$$
