
     RDKit          3D

 40 40  0  0  0  0  0  0  0  0999 V2000
   -2.2273    3.0967    4.1412 C   0  0  0  0  0  0  0  0  0  0  0  0
   -1.2335    2.4110    3.2173 C   0  0  0  0  0  0  0  0  0  0  0  0
   -1.9318    1.4455    2.2608 C   0  0  0  0  0  0  0  0  0  0  0  0
   -0.9302    0.7587    1.3311 C   0  0  0  0  0  0  0  0  0  0  0  0
   -1.6689   -0.1506    0.4658 N   0  0  0  0  0  0  0  0  0  0  0  0
   -1.0892   -0.6620   -0.5665 C   0  0  0  0  0  0  0  0  0  0  0  0
    0.2295   -0.5630   -1.0182 N   0  0  0  0  0  0  0  0  0  0  0  0
    1.2978   -0.3120   -0.1922 N   0  0  0  0  0  0  0  0  0  0  0  0
    2.4941    0.2715   -0.6575 C   0  0  0  0  0  0  0  0  0  0  0  0
    3.6384    0.2384    0.1517 C   0  0  0  0  0  0  0  0  0  0  0  0
    4.8270    0.8492   -0.2604 C   0  0  0  0  0  0  0  0  0  0  0  0
    4.8711    1.5211   -1.4790 C   0  0  0  0  0  0  0  0  0  0  0  0
    6.4747    2.3491   -2.0386 Br  0  0  0  0  0  0  0  0  0  0  0  0
    3.7365    1.5953   -2.2816 C   0  0  0  0  0  0  0  0  0  0  0  0
    2.5514    0.9806   -1.8649 C   0  0  0  0  0  0  0  0  0  0  0  0
   -2.0228   -1.5359   -1.4624 C   0  0  0  0  0  0  0  0  0  0  0  0
   -3.2072   -1.3310   -1.6418 O   0  0  0  0  0  0  0  0  0  0  0  0
   -1.2676   -2.5213   -2.0149 O   0  0  0  0  0  0  0  0  0  0  0  0
   -1.9806   -3.4290   -2.8676 C   0  0  0  0  0  0  0  0  0  0  0  0
   -2.5859   -4.5523   -2.0462 C   0  0  0  0  0  0  0  0  0  0  0  0
   -2.9597    3.6761    3.5695 H   0  0  0  0  0  0  0  0  0  0  0  0
   -2.7677    2.3640    4.7494 H   0  0  0  0  0  0  0  0  0  0  0  0
   -1.7058    3.7814    4.8175 H   0  0  0  0  0  0  0  0  0  0  0  0
   -0.6883    3.1720    2.6468 H   0  0  0  0  0  0  0  0  0  0  0  0
   -0.4966    1.8684    3.8211 H   0  0  0  0  0  0  0  0  0  0  0  0
   -2.4807    0.6874    2.8335 H   0  0  0  0  0  0  0  0  0  0  0  0
   -2.6757    1.9868    1.6628 H   0  0  0  0  0  0  0  0  0  0  0  0
   -0.2072    0.2018    1.9374 H   0  0  0  0  0  0  0  0  0  0  0  0
   -0.4052    1.5247    0.7485 H   0  0  0  0  0  0  0  0  0  0  0  0
    0.4326   -1.2163   -1.7794 H   0  0  0  0  0  0  0  0  0  0  0  0
    1.4411   -0.9895    0.5585 H   0  0  0  0  0  0  0  0  0  0  0  0
    3.6167   -0.2659    1.1145 H   0  0  0  0  0  0  0  0  0  0  0  0
    5.7044    0.8007    0.3787 H   0  0  0  0  0  0  0  0  0  0  0  0
    3.7562    2.1362   -3.2237 H   0  0  0  0  0  0  0  0  0  0  0  0
    1.6666    1.0731   -2.4896 H   0  0  0  0  0  0  0  0  0  0  0  0
   -2.7424   -2.9081   -3.4590 H   0  0  0  0  0  0  0  0  0  0  0  0
   -1.2527   -3.8416   -3.5743 H   0  0  0  0  0  0  0  0  0  0  0  0
   -1.8109   -5.0661   -1.4678 H   0  0  0  0  0  0  0  0  0  0  0  0
   -3.3155   -4.1651   -1.3275 H   0  0  0  0  0  0  0  0  0  0  0  0
   -3.0846   -5.2801   -2.6928 H   0  0  0  0  0  0  0  0  0  0  0  0
  1  2  1  0
  2  3  1  0
  3  4  1  0
  4  5  1  0
  5  6  2  3
  6  7  1  0
  7  8  1  0
  8  9  1  0
  9 10  2  0
 10 11  1  0
 11 12  2  0
 12 13  1  0
 12 14  1  0
 14 15  2  0
  6 16  1  0
 16 17  2  0
 16 18  1  0
 18 19  1  0
 19 20  1  0
 15  9  1  0
  1 21  1  0
  1 22  1  0
  1 23  1  0
  2 24  1  0
  2 25  1  0
  3 26  1  0
  3 27  1  0
  4 28  1  0
  4 29  1  0
  7 30  1  0
  8 31  1  0
 10 32  1  0
 11 33  1  0
 14 34  1  0
 15 35  1  0
 19 36  1  0
 19 37  1  0
 20 38  1  0
 20 39  1  0
 20 40  1  0
M  END
$$$$
