
     RDKit          3D

 46 48  0  0  0  0  0  0  0  0999 V2000
   -6.9065   -1.0055   -2.3005 C   0  0  0  0  0  0  0  0  0  0  0  0
   -5.6169   -0.2552   -2.1443 C   0  0  0  0  0  0  0  0  0  0  0  0
   -5.4437    0.9996   -2.7482 C   0  0  0  0  0  0  0  0  0  0  0  0
   -4.2465    1.6939   -2.5906 C   0  0  0  0  0  0  0  0  0  0  0  0
   -3.2212    1.1438   -1.8177 C   0  0  0  0  0  0  0  0  0  0  0  0
   -3.3882   -0.0937   -1.1737 C   0  0  0  0  0  0  0  0  0  0  0  0
   -2.3124   -0.5533   -0.3828 N   0  0  0  0  0  0  0  0  0  0  0  0
   -2.2727   -1.6490    0.4436 C   0  0  0  0  0  0  0  0  0  0  0  0
   -3.2003   -2.4361    0.5951 O   0  0  0  0  0  0  0  0  0  0  0  0
   -1.0612   -1.8517    1.2205 C   0  0  0  0  0  0  0  0  0  0  0  0
   -0.9829   -2.9003    2.1128 N   0  0  0  0  0  0  0  0  0  0  0  0
    0.2091   -2.8487    2.7646 C   0  0  0  0  0  0  0  0  0  0  0  0
    0.9336   -1.8485    2.3370 N   0  0  0  0  0  0  0  0  0  0  0  0
    0.1673   -1.2167    1.3547 C   0  0  0  0  0  0  0  0  0  0  0  0
    0.7019   -0.0605    0.6348 C   0  0  0  0  0  0  0  0  0  0  0  0
    0.0934    0.5198   -0.2613 O   0  0  0  0  0  0  0  0  0  0  0  0
    1.9630    0.2762    1.0539 N   0  0  0  0  0  0  0  0  0  0  0  0
    2.7927    1.2614    0.3921 C   0  0  0  0  0  0  0  0  0  0  0  0
    2.3685    2.6820    0.7877 C   0  0  0  0  0  0  0  0  0  0  0  0
    4.2586    0.9322    0.6525 C   0  0  0  0  0  0  0  0  0  0  0  0
    4.8564   -0.1083   -0.0809 C   0  0  0  0  0  0  0  0  0  0  0  0
    6.1870   -0.4645    0.1344 C   0  0  0  0  0  0  0  0  0  0  0  0
    6.9424    0.2124    1.0876 C   0  0  0  0  0  0  0  0  0  0  0  0
    6.3660    1.2350    1.8342 C   0  0  0  0  0  0  0  0  0  0  0  0
    5.0304    1.5866    1.6253 C   0  0  0  0  0  0  0  0  0  0  0  0
   -4.5904   -0.7852   -1.3437 C   0  0  0  0  0  0  0  0  0  0  0  0
   -7.4059   -0.7215   -3.2327 H   0  0  0  0  0  0  0  0  0  0  0  0
   -6.7296   -2.0901   -2.3391 H   0  0  0  0  0  0  0  0  0  0  0  0
   -7.5756   -0.7899   -1.4668 H   0  0  0  0  0  0  0  0  0  0  0  0
   -6.2383    1.4444   -3.3484 H   0  0  0  0  0  0  0  0  0  0  0  0
   -4.1162    2.6684   -3.0624 H   0  0  0  0  0  0  0  0  0  0  0  0
   -2.2945    1.7035   -1.7085 H   0  0  0  0  0  0  0  0  0  0  0  0
   -1.4688    0.0062   -0.4383 H   0  0  0  0  0  0  0  0  0  0  0  0
   -1.7286   -3.5639    2.2649 H   0  0  0  0  0  0  0  0  0  0  0  0
    0.4858   -3.5492    3.5406 H   0  0  0  0  0  0  0  0  0  0  0  0
    2.3665   -0.3174    1.7752 H   0  0  0  0  0  0  0  0  0  0  0  0
    2.6165    1.1722   -0.6876 H   0  0  0  0  0  0  0  0  0  0  0  0
    1.3463    2.8958    0.4599 H   0  0  0  0  0  0  0  0  0  0  0  0
    2.3913    2.8245    1.8703 H   0  0  0  0  0  0  0  0  0  0  0  0
    3.0264    3.4343    0.3317 H   0  0  0  0  0  0  0  0  0  0  0  0
    4.2781   -0.6457   -0.8297 H   0  0  0  0  0  0  0  0  0  0  0  0
    6.6303   -1.2690   -0.4430 H   0  0  0  0  0  0  0  0  0  0  0  0
    7.9821   -0.0545    1.2535 H   0  0  0  0  0  0  0  0  0  0  0  0
    6.9523    1.7590    2.5830 H   0  0  0  0  0  0  0  0  0  0  0  0
    4.6059    2.3804    2.2372 H   0  0  0  0  0  0  0  0  0  0  0  0
   -4.7516   -1.7530   -0.8754 H   0  0  0  0  0  0  0  0  0  0  0  0
  1  2  1  0
  2  3  2  0
  3  4  1  0
  4  5  2  0
  5  6  1  0
  6  7  1  0
  7  8  1  0
  8  9  2  0
  8 10  1  0
 10 11  1  0
 11 12  1  0
 12 13  2  0
 13 14  1  0
 14 15  1  0
 15 16  2  0
 15 17  1  0
 17 18  1  0
 18 19  1  0
 18 20  1  0
 20 21  2  0
 21 22  1  0
 22 23  2  0
 23 24  1  0
 24 25  2  0
  6 26  2  0
 26  2  1  0
 14 10  2  0
 25 20  1  0
  1 27  1  0
  1 28  1  0
  1 29  1  0
  3 30  1  0
  4 31  1  0
  5 32  1  0
  7 33  1  0
 11 34  1  0
 12 35  1  0
 17 36  1  0
 18 37  1  0
 19 38  1  0
 19 39  1  0
 19 40  1  0
 21 41  1  0
 22 42  1  0
 23 43  1  0
 24 44  1  0
 25 45  1  0
 26 46  1  0
M  END
$$$$
