
     RDKit          3D

 39 41  0  0  0  0  0  0  0  0999 V2000
    4.5602   -1.7432   -0.0369 C   0  0  0  0  0  0  0  0  0  0  0  0
    3.5504   -2.4399   -0.9328 C   0  0  0  0  0  0  0  0  0  0  0  0
    2.1557   -3.1105    0.0343 S   0  0  0  0  0  0  0  0  0  0  0  0
    1.0351   -1.7154    0.0580 C   0  0  0  0  0  0  0  0  0  0  0  0
   -0.2766   -1.9362    0.4176 C   0  0  0  0  0  0  0  0  0  0  0  0
   -1.1325   -0.8556    0.4074 C   0  0  0  0  0  0  0  0  0  0  0  0
   -2.4595   -0.9766    0.7216 N   0  0  0  0  0  0  0  0  0  0  0  0
   -3.3623    0.1634    0.6436 C   0  0  0  0  0  0  0  0  0  0  0  0
   -4.7438   -0.4764    0.7648 C   0  0  0  0  0  0  0  0  0  0  0  0
   -4.4908   -1.6629    1.6810 C   0  0  0  0  0  0  0  0  0  0  0  0
   -3.1191   -2.1681    1.2310 C   0  0  0  0  0  0  0  0  0  0  0  0
   -0.6766    0.3621    0.0649 N   0  0  0  0  0  0  0  0  0  0  0  0
    0.6216    0.4984   -0.2569 C   0  0  0  0  0  0  0  0  0  0  0  0
    1.1030    1.8502   -0.6200 C   0  0  0  0  0  0  0  0  0  0  0  0
    0.2119    2.9309   -0.7726 C   0  0  0  0  0  0  0  0  0  0  0  0
    0.6629    4.2083   -1.1268 C   0  0  0  0  0  0  0  0  0  0  0  0
    2.0209    4.4302   -1.3312 C   0  0  0  0  0  0  0  0  0  0  0  0
    2.5786    5.9957   -1.7750 Cl  0  0  0  0  0  0  0  0  0  0  0  0
    2.9293    3.3886   -1.1819 C   0  0  0  0  0  0  0  0  0  0  0  0
    2.4721    2.1129   -0.8310 C   0  0  0  0  0  0  0  0  0  0  0  0
    1.5078   -0.5067   -0.2751 N   0  0  0  0  0  0  0  0  0  0  0  0
    5.0123   -2.4414    0.6753 H   0  0  0  0  0  0  0  0  0  0  0  0
    5.3724   -1.3287   -0.6457 H   0  0  0  0  0  0  0  0  0  0  0  0
    4.1143   -0.9175    0.5268 H   0  0  0  0  0  0  0  0  0  0  0  0
    4.0399   -3.2848   -1.4281 H   0  0  0  0  0  0  0  0  0  0  0  0
    3.1977   -1.7739   -1.7259 H   0  0  0  0  0  0  0  0  0  0  0  0
   -0.6161   -2.9290    0.6764 H   0  0  0  0  0  0  0  0  0  0  0  0
   -3.1808    0.8485    1.4798 H   0  0  0  0  0  0  0  0  0  0  0  0
   -3.2765    0.7142   -0.3000 H   0  0  0  0  0  0  0  0  0  0  0  0
   -5.0820   -0.8294   -0.2174 H   0  0  0  0  0  0  0  0  0  0  0  0
   -5.4928    0.2156    1.1598 H   0  0  0  0  0  0  0  0  0  0  0  0
   -4.4464   -1.3272    2.7254 H   0  0  0  0  0  0  0  0  0  0  0  0
   -5.2649   -2.4319    1.6049 H   0  0  0  0  0  0  0  0  0  0  0  0
   -3.2265   -2.9100    0.4335 H   0  0  0  0  0  0  0  0  0  0  0  0
   -2.5829   -2.6181    2.0740 H   0  0  0  0  0  0  0  0  0  0  0  0
   -0.8569    2.7788   -0.6214 H   0  0  0  0  0  0  0  0  0  0  0  0
   -0.0527    5.0180   -1.2425 H   0  0  0  0  0  0  0  0  0  0  0  0
    3.9920    3.5551   -1.3384 H   0  0  0  0  0  0  0  0  0  0  0  0
    3.2019    1.3124   -0.7202 H   0  0  0  0  0  0  0  0  0  0  0  0
  1  2  1  0
  2  3  1  0
  3  4  1  0
  4  5  2  0
  5  6  1  0
  6  7  1  0
  7  8  1  0
  8  9  1  0
  9 10  1  0
 10 11  1  0
  6 12  2  0
 12 13  1  0
 13 14  1  0
 14 15  2  0
 15 16  1  0
 16 17  2  0
 17 18  1  0
 17 19  1  0
 19 20  2  0
 13 21  2  0
 21  4  1  0
 11  7  1  0
 20 14  1  0
  1 22  1  0
  1 23  1  0
  1 24  1  0
  2 25  1  0
  2 26  1  0
  5 27  1  0
  8 28  1  0
  8 29  1  0
  9 30  1  0
  9 31  1  0
 10 32  1  0
 10 33  1  0
 11 34  1  0
 11 35  1  0
 15 36  1  0
 16 37  1  0
 19 38  1  0
 20 39  1  0
M  END
$$$$
