
     RDKit          3D

 41 42  0  0  0  0  0  0  0  0999 V2000
   -7.6124   -1.8785    2.4690 C   0  0  0  0  0  0  0  0  0  0  0  0
   -7.2964   -1.2292    1.2442 O   0  0  0  0  0  0  0  0  0  0  0  0
   -6.0749   -0.6187    1.1678 C   0  0  0  0  0  0  0  0  0  0  0  0
   -5.7776   -0.0601   -0.0767 C   0  0  0  0  0  0  0  0  0  0  0  0
   -4.5625    0.5939   -0.2953 C   0  0  0  0  0  0  0  0  0  0  0  0
   -3.6250    0.7063    0.7379 C   0  0  0  0  0  0  0  0  0  0  0  0
   -2.3104    1.4142    0.5114 C   0  0  0  0  0  0  0  0  0  0  0  0
   -1.1210    0.4956    0.3213 C   0  0  0  0  0  0  0  0  0  0  0  0
   -1.1236   -0.7202    0.4665 O   0  0  0  0  0  0  0  0  0  0  0  0
   -0.0375    1.2846   -0.0106 O   0  0  0  0  0  0  0  0  0  0  0  0
    1.0943    0.4784   -0.2340 N   0  0  0  0  0  0  0  0  0  0  0  0
    2.1371    1.1892   -0.5465 C   0  0  0  0  0  0  0  0  0  0  0  0
    2.1214    2.5653   -0.6164 N   0  0  0  0  0  0  0  0  0  0  0  0
    3.4202    0.4647   -0.8257 C   0  0  0  0  0  0  0  0  0  0  0  0
    3.5950   -0.8458   -0.3706 C   0  0  0  0  0  0  0  0  0  0  0  0
    4.7934   -1.5200   -0.6208 C   0  0  0  0  0  0  0  0  0  0  0  0
    5.8251   -0.9021   -1.3319 C   0  0  0  0  0  0  0  0  0  0  0  0
    6.9407   -1.6733   -1.5054 O   0  0  0  0  0  0  0  0  0  0  0  0
    8.0061   -1.1066   -2.2572 C   0  0  0  0  0  0  0  0  0  0  0  0
    5.6477    0.4018   -1.7967 C   0  0  0  0  0  0  0  0  0  0  0  0
    4.4492    1.0830   -1.5463 C   0  0  0  0  0  0  0  0  0  0  0  0
   -3.9249    0.1416    1.9849 C   0  0  0  0  0  0  0  0  0  0  0  0
   -5.1420   -0.5158    2.1989 C   0  0  0  0  0  0  0  0  0  0  0  0
   -6.8955   -2.6759    2.6913 H   0  0  0  0  0  0  0  0  0  0  0  0
   -7.6726   -1.1589    3.2921 H   0  0  0  0  0  0  0  0  0  0  0  0
   -8.5986   -2.3395    2.3581 H   0  0  0  0  0  0  0  0  0  0  0  0
   -6.4978   -0.1418   -0.8872 H   0  0  0  0  0  0  0  0  0  0  0  0
   -4.3589    1.0087   -1.2797 H   0  0  0  0  0  0  0  0  0  0  0  0
   -2.3939    2.0541   -0.3758 H   0  0  0  0  0  0  0  0  0  0  0  0
   -2.1083    2.0670    1.3693 H   0  0  0  0  0  0  0  0  0  0  0  0
    2.9671    3.0215   -0.2919 H   0  0  0  0  0  0  0  0  0  0  0  0
    1.2934    2.9575   -0.1822 H   0  0  0  0  0  0  0  0  0  0  0  0
    2.8044   -1.3512    0.1804 H   0  0  0  0  0  0  0  0  0  0  0  0
    4.9201   -2.5386   -0.2612 H   0  0  0  0  0  0  0  0  0  0  0  0
    7.6901   -0.8785   -3.2806 H   0  0  0  0  0  0  0  0  0  0  0  0
    8.8075   -1.8496   -2.3140 H   0  0  0  0  0  0  0  0  0  0  0  0
    8.4102   -0.2184   -1.7605 H   0  0  0  0  0  0  0  0  0  0  0  0
    6.4172    0.9154   -2.3633 H   0  0  0  0  0  0  0  0  0  0  0  0
    4.3247    2.0866   -1.9433 H   0  0  0  0  0  0  0  0  0  0  0  0
   -3.2062    0.1971    2.8001 H   0  0  0  0  0  0  0  0  0  0  0  0
   -5.3249   -0.9394    3.1804 H   0  0  0  0  0  0  0  0  0  0  0  0
  1  2  1  0
  2  3  1  0
  3  4  2  0
  4  5  1  0
  5  6  2  0
  6  7  1  0
  7  8  1  0
  8  9  2  0
  8 10  1  0
 10 11  1  0
 11 12  2  3
 12 13  1  0
 12 14  1  0
 14 15  2  0
 15 16  1  0
 16 17  2  0
 17 18  1  0
 18 19  1  0
 17 20  1  0
 20 21  2  0
  6 22  1  0
 22 23  2  0
 23  3  1  0
 21 14  1  0
  1 24  1  0
  1 25  1  0
  1 26  1  0
  4 27  1  0
  5 28  1  0
  7 29  1  0
  7 30  1  0
 13 31  1  0
 13 32  1  0
 15 33  1  0
 16 34  1  0
 19 35  1  0
 19 36  1  0
 19 37  1  0
 20 38  1  0
 21 39  1  0
 22 40  1  0
 23 41  1  0
M  END
$$$$
