
     RDKit          3D

 45 47  0  0  0  0  0  0  0  0999 V2000
   -6.0520    1.7297   -0.6044 C   0  0  0  0  0  0  0  0  0  0  0  0
   -5.1630    1.5697    0.6194 C   0  0  0  0  0  0  0  0  0  0  0  0
   -4.3745    0.3327    0.5485 N   0  0  0  0  0  0  0  0  0  0  0  0
   -5.0097   -0.8809    1.0806 C   0  0  0  0  0  0  0  0  0  0  0  0
   -5.3819   -1.8545   -0.0298 C   0  0  0  0  0  0  0  0  0  0  0  0
   -3.0712    0.3306    0.0598 C   0  0  0  0  0  0  0  0  0  0  0  0
   -2.1888   -0.7416    0.2740 C   0  0  0  0  0  0  0  0  0  0  0  0
   -0.8725   -0.7500   -0.2168 C   0  0  0  0  0  0  0  0  0  0  0  0
   -0.3777    0.3323   -0.9376 C   0  0  0  0  0  0  0  0  0  0  0  0
    0.9695    0.3509   -1.5139 C   0  0  0  0  0  0  0  0  0  0  0  0
    2.1282    0.1163   -0.8835 C   0  0  0  0  0  0  0  0  0  0  0  0
    2.4162   -0.2127    0.5395 C   0  0  0  0  0  0  0  0  0  0  0  0
    1.6560   -0.3690    1.4698 O   0  0  0  0  0  0  0  0  0  0  0  0
    3.8782   -0.3262    0.6226 C   0  0  0  0  0  0  0  0  0  0  0  0
    4.6448   -0.6191    1.7363 C   0  0  0  0  0  0  0  0  0  0  0  0
    6.0344   -0.6741    1.5717 C   0  0  0  0  0  0  0  0  0  0  0  0
    6.6278   -0.4374    0.3084 C   0  0  0  0  0  0  0  0  0  0  0  0
    8.0979   -0.4913    0.1154 C   0  0  0  0  0  0  0  0  0  0  0  0
    8.6826   -0.3003   -0.9338 O   0  0  0  0  0  0  0  0  0  0  0  0
    8.7607   -0.7821    1.2471 O   0  0  0  0  0  0  0  0  0  0  0  0
    5.8295   -0.1418   -0.8072 C   0  0  0  0  0  0  0  0  0  0  0  0
    4.4589   -0.0930   -0.6206 C   0  0  0  0  0  0  0  0  0  0  0  0
    3.4225    0.1935   -1.6178 C   0  0  0  0  0  0  0  0  0  0  0  0
    3.6089    0.4405   -2.7905 O   0  0  0  0  0  0  0  0  0  0  0  0
   -1.2347    1.4031   -1.1835 C   0  0  0  0  0  0  0  0  0  0  0  0
   -2.5489    1.3986   -0.6889 C   0  0  0  0  0  0  0  0  0  0  0  0
   -5.4713    1.7230   -1.5317 H   0  0  0  0  0  0  0  0  0  0  0  0
   -6.5996    2.6760   -0.5516 H   0  0  0  0  0  0  0  0  0  0  0  0
   -6.7872    0.9211   -0.6651 H   0  0  0  0  0  0  0  0  0  0  0  0
   -5.7973    1.5552    1.5148 H   0  0  0  0  0  0  0  0  0  0  0  0
   -4.5262    2.4523    0.7500 H   0  0  0  0  0  0  0  0  0  0  0  0
   -4.3762   -1.3653    1.8318 H   0  0  0  0  0  0  0  0  0  0  0  0
   -5.9317   -0.6203    1.6154 H   0  0  0  0  0  0  0  0  0  0  0  0
   -6.0529   -1.3873   -0.7572 H   0  0  0  0  0  0  0  0  0  0  0  0
   -5.8938   -2.7259    0.3910 H   0  0  0  0  0  0  0  0  0  0  0  0
   -4.5030   -2.2135   -0.5730 H   0  0  0  0  0  0  0  0  0  0  0  0
   -2.4949   -1.6111    0.8469 H   0  0  0  0  0  0  0  0  0  0  0  0
   -0.2490   -1.6169   -0.0137 H   0  0  0  0  0  0  0  0  0  0  0  0
    0.9938    0.6105   -2.5726 H   0  0  0  0  0  0  0  0  0  0  0  0
    4.1827   -0.7990    2.7030 H   0  0  0  0  0  0  0  0  0  0  0  0
    6.6570   -0.9029    2.4358 H   0  0  0  0  0  0  0  0  0  0  0  0
    9.7038   -0.7844    0.9771 H   0  0  0  0  0  0  0  0  0  0  0  0
    6.2645    0.0437   -1.7863 H   0  0  0  0  0  0  0  0  0  0  0  0
   -0.8983    2.2599   -1.7630 H   0  0  0  0  0  0  0  0  0  0  0  0
   -3.1618    2.2611   -0.9313 H   0  0  0  0  0  0  0  0  0  0  0  0
  1  2  1  0
  2  3  1  0
  3  4  1  0
  4  5  1  0
  3  6  1  0
  6  7  2  0
  7  8  1  0
  8  9  2  0
  9 10  1  0
 10 11  2  3
 11 12  1  0
 12 13  2  0
 12 14  1  0
 14 15  2  0
 15 16  1  0
 16 17  2  0
 17 18  1  0
 18 19  2  0
 18 20  1  0
 17 21  1  0
 21 22  2  0
 22 23  1  0
 23 24  2  0
  9 25  1  0
 25 26  2  0
 26  6  1  0
 23 11  1  0
 22 14  1  0
  1 27  1  0
  1 28  1  0
  1 29  1  0
  2 30  1  0
  2 31  1  0
  4 32  1  0
  4 33  1  0
  5 34  1  0
  5 35  1  0
  5 36  1  0
  7 37  1  0
  8 38  1  0
 10 39  1  0
 15 40  1  0
 16 41  1  0
 20 42  1  0
 21 43  1  0
 25 44  1  0
 26 45  1  0
M  END
$$$$
