
     RDKit          3D

 70 72  0  0  0  0  0  0  0  0999 V2000
   -4.7840   -0.1890   -1.9327 C   0  0  0  0  0  0  0  0  0  0  0  0
   -3.3362   -0.7234   -2.0297 C   0  0  0  0  0  0  0  0  0  0  0  0
   -2.7619   -0.1421   -3.3512 C   0  0  0  0  0  0  0  0  0  0  0  0
   -3.3488   -2.2586   -2.2024 C   0  0  0  0  0  0  0  0  0  0  0  0
   -2.5138   -0.3395   -0.7723 C   0  0  0  0  0  0  0  0  0  0  0  0
   -1.3255    0.4037   -0.8911 C   0  0  0  0  0  0  0  0  0  0  0  0
   -0.5694    0.7845    0.2257 C   0  0  0  0  0  0  0  0  0  0  0  0
    0.7317    1.5941    0.1082 C   0  0  0  0  0  0  0  0  0  0  0  0
    0.7471    2.5991   -1.0426 C   0  0  0  0  0  0  0  0  0  0  0  0
    1.3592    2.4073   -2.2858 C   0  0  0  0  0  0  0  0  0  0  0  0
    1.2949    3.3998   -3.2622 C   0  0  0  0  0  0  0  0  0  0  0  0
    0.6037    4.5624   -2.9760 C   0  0  0  0  0  0  0  0  0  0  0  0
   -0.0208    4.7873   -1.8037 N   0  0  0  0  0  0  0  0  0  0  0  0
    0.0595    3.8049   -0.8763 C   0  0  0  0  0  0  0  0  0  0  0  0
    1.9319    0.7649    0.3543 N   0  0  0  0  0  0  0  0  0  0  0  0
    2.0870   -0.4625   -0.4343 C   0  0  0  0  0  0  0  0  0  0  0  0
    3.2969   -1.3096    0.0378 C   0  0  0  0  0  0  0  0  0  0  0  0
    4.5600   -0.5356    0.0509 N   0  0  0  0  0  0  0  0  0  0  0  0
    5.6919   -1.3455    0.5558 C   0  0  0  0  0  0  0  0  0  0  0  0
    6.1639   -2.3760   -0.4817 C   0  0  0  0  0  0  0  0  0  0  0  0
    6.3675   -1.7342   -1.7404 O   0  0  0  0  0  0  0  0  0  0  0  0
    4.3642    0.6508    0.9148 C   0  0  0  0  0  0  0  0  0  0  0  0
    3.1851    1.5264    0.4376 C   0  0  0  0  0  0  0  0  0  0  0  0
   -0.9969    0.3667    1.4982 C   0  0  0  0  0  0  0  0  0  0  0  0
   -2.1587   -0.4033    1.6988 C   0  0  0  0  0  0  0  0  0  0  0  0
   -2.5352   -0.8631    3.1311 C   0  0  0  0  0  0  0  0  0  0  0  0
   -2.9706   -2.3473    3.1825 C   0  0  0  0  0  0  0  0  0  0  0  0
   -3.6665    0.0349    3.6775 C   0  0  0  0  0  0  0  0  0  0  0  0
   -1.3583   -0.7539    4.1420 C   0  0  0  0  0  0  0  0  0  0  0  0
   -2.9103   -0.7114    0.5383 C   0  0  0  0  0  0  0  0  0  0  0  0
   -4.0843   -1.4050    0.6454 O   0  0  0  0  0  0  0  0  0  0  0  0
   -5.3858   -0.7125   -1.1842 H   0  0  0  0  0  0  0  0  0  0  0  0
   -4.7949    0.8791   -1.6824 H   0  0  0  0  0  0  0  0  0  0  0  0
   -5.3127   -0.3120   -2.8837 H   0  0  0  0  0  0  0  0  0  0  0  0
   -2.7330    0.9547   -3.3295 H   0  0  0  0  0  0  0  0  0  0  0  0
   -1.7512   -0.5126   -3.5547 H   0  0  0  0  0  0  0  0  0  0  0  0
   -3.3779   -0.4302   -4.2125 H   0  0  0  0  0  0  0  0  0  0  0  0
   -2.3310   -2.6419   -2.3311 H   0  0  0  0  0  0  0  0  0  0  0  0
   -3.9265   -2.5538   -3.0847 H   0  0  0  0  0  0  0  0  0  0  0  0
   -3.7869   -2.7803   -1.3493 H   0  0  0  0  0  0  0  0  0  0  0  0
   -0.9653    0.7021   -1.8702 H   0  0  0  0  0  0  0  0  0  0  0  0
    0.7046    2.2443    0.9977 H   0  0  0  0  0  0  0  0  0  0  0  0
    1.9015    1.4992   -2.5170 H   0  0  0  0  0  0  0  0  0  0  0  0
    1.7785    3.2687   -4.2224 H   0  0  0  0  0  0  0  0  0  0  0  0
    0.5286    5.3659   -3.7025 H   0  0  0  0  0  0  0  0  0  0  0  0
   -0.4717    4.0248    0.0472 H   0  0  0  0  0  0  0  0  0  0  0  0
    2.2177   -0.2484   -1.4979 H   0  0  0  0  0  0  0  0  0  0  0  0
    1.2017   -1.1006   -0.3415 H   0  0  0  0  0  0  0  0  0  0  0  0
    3.3863   -2.1690   -0.6336 H   0  0  0  0  0  0  0  0  0  0  0  0
    3.0804   -1.6984    1.0410 H   0  0  0  0  0  0  0  0  0  0  0  0
    6.5400   -0.6708    0.7334 H   0  0  0  0  0  0  0  0  0  0  0  0
    5.4568   -1.8378    1.5085 H   0  0  0  0  0  0  0  0  0  0  0  0
    5.4349   -3.1820   -0.6191 H   0  0  0  0  0  0  0  0  0  0  0  0
    7.1121   -2.8244   -0.1679 H   0  0  0  0  0  0  0  0  0  0  0  0
    5.6726   -1.0464   -1.7816 H   0  0  0  0  0  0  0  0  0  0  0  0
    5.2712    1.2716    0.9052 H   0  0  0  0  0  0  0  0  0  0  0  0
    4.1910    0.3432    1.9572 H   0  0  0  0  0  0  0  0  0  0  0  0
    3.0732    2.3552    1.1460 H   0  0  0  0  0  0  0  0  0  0  0  0
    3.4523    1.9572   -0.5324 H   0  0  0  0  0  0  0  0  0  0  0  0
   -0.3696    0.6547    2.3381 H   0  0  0  0  0  0  0  0  0  0  0  0
   -2.2299   -2.9927    2.6963 H   0  0  0  0  0  0  0  0  0  0  0  0
   -3.0825   -2.6896    4.2179 H   0  0  0  0  0  0  0  0  0  0  0  0
   -3.9386   -2.5315    2.7113 H   0  0  0  0  0  0  0  0  0  0  0  0
   -4.5795   -0.0197    3.0784 H   0  0  0  0  0  0  0  0  0  0  0  0
   -3.3583    1.0868    3.7035 H   0  0  0  0  0  0  0  0  0  0  0  0
   -3.9395   -0.2534    4.6993 H   0  0  0  0  0  0  0  0  0  0  0  0
   -1.6356   -1.1619    5.1215 H   0  0  0  0  0  0  0  0  0  0  0  0
   -1.0627    0.2860    4.3212 H   0  0  0  0  0  0  0  0  0  0  0  0
   -0.4798   -1.3076    3.7926 H   0  0  0  0  0  0  0  0  0  0  0  0
   -4.5937   -1.0026    1.3655 H   0  0  0  0  0  0  0  0  0  0  0  0
  1  2  1  0
  2  3  1  0
  2  4  1  0
  2  5  1  0
  5  6  2  0
  6  7  1  0
  7  8  1  0
  8  9  1  0
  9 10  2  0
 10 11  1  0
 11 12  2  0
 12 13  1  0
 13 14  2  0
  8 15  1  0
 15 16  1  0
 16 17  1  0
 17 18  1  0
 18 19  1  0
 19 20  1  0
 20 21  1  0
 18 22  1  0
 22 23  1  0
  7 24  2  0
 24 25  1  0
 25 26  1  0
 26 27  1  0
 26 28  1  0
 26 29  1  0
 25 30  2  0
 30 31  1  0
 30  5  1  0
 14  9  1  0
 23 15  1  0
  1 32  1  0
  1 33  1  0
  1 34  1  0
  3 35  1  0
  3 36  1  0
  3 37  1  0
  4 38  1  0
  4 39  1  0
  4 40  1  0
  6 41  1  0
  8 42  1  0
 10 43  1  0
 11 44  1  0
 12 45  1  0
 14 46  1  0
 16 47  1  0
 16 48  1  0
 17 49  1  0
 17 50  1  0
 19 51  1  0
 19 52  1  0
 20 53  1  0
 20 54  1  0
 21 55  1  0
 22 56  1  0
 22 57  1  0
 23 58  1  0
 23 59  1  0
 24 60  1  0
 27 61  1  0
 27 62  1  0
 27 63  1  0
 28 64  1  0
 28 65  1  0
 28 66  1  0
 29 67  1  0
 29 68  1  0
 29 69  1  0
 31 70  1  0
M  END
$$$$
