
     RDKit          3D

 48 50  0  0  0  0  0  0  0  0999 V2000
    2.9642    1.7723    0.3558 C   0  0  0  0  0  0  0  0  0  0  0  0
    1.7169    1.3331    0.5801 C   0  0  0  0  0  0  0  0  0  0  0  0
    0.7542    1.9842    1.4654 C   0  0  0  0  0  0  0  0  0  0  0  0
    1.0251    3.1371    2.3358 C   0  0  0  0  0  0  0  0  0  0  0  0
    2.0481    3.2752    2.9923 O   0  0  0  0  0  0  0  0  0  0  0  0
    0.0143    4.0412    2.2512 O   0  0  0  0  0  0  0  0  0  0  0  0
    0.1991    5.1961    3.0676 C   0  0  0  0  0  0  0  0  0  0  0  0
   -0.4075    1.3094    1.4074 C   0  0  0  0  0  0  0  0  0  0  0  0
   -1.5070    1.5456    2.1849 O   0  0  0  0  0  0  0  0  0  0  0  0
   -0.2872    0.1858    0.4664 C   0  0  0  0  0  0  0  0  0  0  0  0
   -1.2233   -0.7198    0.1165 C   0  0  0  0  0  0  0  0  0  0  0  0
   -2.6302   -0.7774    0.5140 C   0  0  0  0  0  0  0  0  0  0  0  0
   -3.5435    0.1819    0.0578 C   0  0  0  0  0  0  0  0  0  0  0  0
   -4.8827    0.1226    0.4508 C   0  0  0  0  0  0  0  0  0  0  0  0
   -5.3024   -0.9017    1.2931 C   0  0  0  0  0  0  0  0  0  0  0  0
   -6.5984   -0.9974    1.7037 O   0  0  0  0  0  0  0  0  0  0  0  0
   -4.4082   -1.8657    1.7447 C   0  0  0  0  0  0  0  0  0  0  0  0
   -3.0698   -1.8066    1.3533 C   0  0  0  0  0  0  0  0  0  0  0  0
    1.0488    0.2365    0.0133 N   0  0  0  0  0  0  0  0  0  0  0  0
    1.6194   -0.6313   -0.9549 C   0  0  0  0  0  0  0  0  0  0  0  0
    1.0895   -0.7150   -2.2517 C   0  0  0  0  0  0  0  0  0  0  0  0
    1.6388   -1.5824   -3.2051 C   0  0  0  0  0  0  0  0  0  0  0  0
    1.0767   -1.6365   -4.5948 C   0  0  0  0  0  0  0  0  0  0  0  0
    2.7557   -2.3538   -2.8616 C   0  0  0  0  0  0  0  0  0  0  0  0
    3.3150   -2.2753   -1.5804 C   0  0  0  0  0  0  0  0  0  0  0  0
    4.4855   -3.1360   -1.2079 C   0  0  0  0  0  0  0  0  0  0  0  0
    2.7323   -1.4235   -0.6330 C   0  0  0  0  0  0  0  0  0  0  0  0
    3.3664    2.6500    0.8512 H   0  0  0  0  0  0  0  0  0  0  0  0
    3.6273    1.2689   -0.3386 H   0  0  0  0  0  0  0  0  0  0  0  0
    0.2912    4.9131    4.1208 H   0  0  0  0  0  0  0  0  0  0  0  0
    1.0777    5.7602    2.7395 H   0  0  0  0  0  0  0  0  0  0  0  0
   -0.6825    5.8334    2.9579 H   0  0  0  0  0  0  0  0  0  0  0  0
   -2.0644    0.7509    2.1927 H   0  0  0  0  0  0  0  0  0  0  0  0
   -0.9494   -1.5310   -0.5552 H   0  0  0  0  0  0  0  0  0  0  0  0
   -3.2156    0.9843   -0.6002 H   0  0  0  0  0  0  0  0  0  0  0  0
   -5.5744    0.8787    0.0936 H   0  0  0  0  0  0  0  0  0  0  0  0
   -7.1081   -0.2738    1.3030 H   0  0  0  0  0  0  0  0  0  0  0  0
   -4.7528   -2.6619    2.3988 H   0  0  0  0  0  0  0  0  0  0  0  0
   -2.3766   -2.5652    1.7107 H   0  0  0  0  0  0  0  0  0  0  0  0
    0.2438   -0.0855   -2.5213 H   0  0  0  0  0  0  0  0  0  0  0  0
    1.2041   -2.6341   -5.0288 H   0  0  0  0  0  0  0  0  0  0  0  0
    1.5838   -0.9058   -5.2322 H   0  0  0  0  0  0  0  0  0  0  0  0
    0.0033   -1.4191   -4.5912 H   0  0  0  0  0  0  0  0  0  0  0  0
    3.1962   -3.0213   -3.6003 H   0  0  0  0  0  0  0  0  0  0  0  0
    4.1351   -4.1013   -0.8301 H   0  0  0  0  0  0  0  0  0  0  0  0
    5.1342   -3.3078   -2.0731 H   0  0  0  0  0  0  0  0  0  0  0  0
    5.0954   -2.6544   -0.4364 H   0  0  0  0  0  0  0  0  0  0  0  0
    3.1416   -1.3770    0.3744 H   0  0  0  0  0  0  0  0  0  0  0  0
  1  2  2  0
  2  3  1  0
  3  4  1  0
  4  5  2  0
  4  6  1  0
  6  7  1  0
  3  8  2  0
  8  9  1  0
  8 10  1  0
 10 11  2  3
 11 12  1  0
 12 13  2  0
 13 14  1  0
 14 15  2  0
 15 16  1  0
 15 17  1  0
 17 18  2  0
 10 19  1  0
 19 20  1  0
 20 21  2  0
 21 22  1  0
 22 23  1  0
 22 24  2  0
 24 25  1  0
 25 26  1  0
 25 27  2  0
 19  2  1  0
 27 20  1  0
 18 12  1  0
  1 28  1  0
  1 29  1  0
  7 30  1  0
  7 31  1  0
  7 32  1  0
  9 33  1  0
 11 34  1  0
 13 35  1  0
 14 36  1  0
 16 37  1  0
 17 38  1  0
 18 39  1  0
 21 40  1  0
 23 41  1  0
 23 42  1  0
 23 43  1  0
 24 44  1  0
 26 45  1  0
 26 46  1  0
 26 47  1  0
 27 48  1  0
M  END
$$$$
