
     RDKit          3D

 40 41  0  0  0  0  0  0  0  0999 V2000
   -3.7634   -0.5287   -2.4472 C   0  0  0  0  0  0  0  0  0  0  0  0
   -3.6133   -1.2237   -1.1720 N   0  0  0  0  0  0  0  0  0  0  0  0
   -2.3274   -1.9489   -1.1167 C   0  0  0  0  0  0  0  0  0  0  0  0
   -1.8142   -2.1858    0.3139 C   0  0  0  0  0  0  0  0  0  0  0  0
   -1.6122   -0.9198    1.0251 N   0  0  0  0  0  0  0  0  0  0  0  0
   -0.6476   -0.8526    2.0240 C   0  0  0  0  0  0  0  0  0  0  0  0
   -0.0199   -1.8552    2.3705 O   0  0  0  0  0  0  0  0  0  0  0  0
   -0.4221    0.5142    2.6668 C   0  0  0  0  0  0  0  0  0  0  0  0
    1.2688    0.7248    3.3288 S   0  0  0  0  0  0  0  0  0  0  0  0
    2.2091    0.7282    1.8084 C   0  0  0  0  0  0  0  0  0  0  0  0
    2.7493   -0.4905    1.3763 C   0  0  0  0  0  0  0  0  0  0  0  0
    3.5354   -0.5666    0.2182 C   0  0  0  0  0  0  0  0  0  0  0  0
    3.8145    0.5800   -0.5403 C   0  0  0  0  0  0  0  0  0  0  0  0
    4.6850    0.4946   -1.7725 C   0  0  0  0  0  0  0  0  0  0  0  0
    4.5641   -0.6919   -2.4279 F   0  0  0  0  0  0  0  0  0  0  0  0
    6.0054    0.6361   -1.4822 F   0  0  0  0  0  0  0  0  0  0  0  0
    4.3936    1.4583   -2.6893 F   0  0  0  0  0  0  0  0  0  0  0  0
    3.3023    1.8108   -0.1072 C   0  0  0  0  0  0  0  0  0  0  0  0
    2.5095    1.8670    1.0515 C   0  0  0  0  0  0  0  0  0  0  0  0
    2.0050    3.1673    1.4376 N   0  0  0  0  0  4  0  0  0  0  0  0
    0.7960    3.3750    1.2645 O   0  0  0  0  0  0  0  0  0  0  0  0
    2.8314    3.9901    1.8513 O   0  0  0  0  0  1  0  0  0  0  0  0
   -2.5158    0.1758    0.6531 C   0  0  0  0  0  0  0  0  0  0  0  0
   -3.8086   -0.3237   -0.0208 C   0  0  0  0  0  0  0  0  0  0  0  0
   -3.6513   -1.2281   -3.2832 H   0  0  0  0  0  0  0  0  0  0  0  0
   -3.0288    0.2757   -2.5670 H   0  0  0  0  0  0  0  0  0  0  0  0
   -4.7661   -0.0958   -2.5335 H   0  0  0  0  0  0  0  0  0  0  0  0
   -1.5516   -1.3883   -1.6565 H   0  0  0  0  0  0  0  0  0  0  0  0
   -2.4444   -2.9128   -1.6247 H   0  0  0  0  0  0  0  0  0  0  0  0
   -0.8749   -2.7486    0.2802 H   0  0  0  0  0  0  0  0  0  0  0  0
   -2.5345   -2.7773    0.8918 H   0  0  0  0  0  0  0  0  0  0  0  0
   -0.6058    1.3171    1.9521 H   0  0  0  0  0  0  0  0  0  0  0  0
   -1.1297    0.6162    3.4954 H   0  0  0  0  0  0  0  0  0  0  0  0
    2.5644   -1.4050    1.9422 H   0  0  0  0  0  0  0  0  0  0  0  0
    3.9345   -1.5355   -0.0842 H   0  0  0  0  0  0  0  0  0  0  0  0
    3.5208    2.7205   -0.6671 H   0  0  0  0  0  0  0  0  0  0  0  0
   -2.7740    0.7538    1.5461 H   0  0  0  0  0  0  0  0  0  0  0  0
   -1.9633    0.8321   -0.0294 H   0  0  0  0  0  0  0  0  0  0  0  0
   -4.4431    0.5321   -0.2825 H   0  0  0  0  0  0  0  0  0  0  0  0
   -4.3772   -0.8910    0.7280 H   0  0  0  0  0  0  0  0  0  0  0  0
  1  2  1  0
  2  3  1  0
  3  4  1  0
  4  5  1  0
  5  6  1  0
  6  7  2  0
  6  8  1  0
  8  9  1  0
  9 10  1  0
 10 11  2  0
 11 12  1  0
 12 13  2  0
 13 14  1  0
 14 15  1  0
 14 16  1  0
 14 17  1  0
 13 18  1  0
 18 19  2  0
 19 20  1  0
 20 21  2  0
 20 22  1  0
  5 23  1  0
 23 24  1  0
 24  2  1  0
 19 10  1  0
  1 25  1  0
  1 26  1  0
  1 27  1  0
  3 28  1  0
  3 29  1  0
  4 30  1  0
  4 31  1  0
  8 32  1  0
  8 33  1  0
 11 34  1  0
 12 35  1  0
 18 36  1  0
 23 37  1  0
 23 38  1  0
 24 39  1  0
 24 40  1  0
M  CHG  2  20   1  22  -1
M  END
$$$$
