
     RDKit          3D

 36 39  0  0  0  0  0  0  0  0999 V2000
    5.5159    1.2747    0.8979 C   0  0  0  0  0  0  0  0  0  0  0  0
    4.5316    0.5906   -0.0021 C   0  0  0  0  0  0  0  0  0  0  0  0
    4.9579   -0.0981   -1.1319 C   0  0  0  0  0  0  0  0  0  0  0  0
    4.0060   -0.7404   -1.8985 C   0  0  0  0  0  0  0  0  0  0  0  0
    2.6862   -0.7399   -1.6148 N   0  0  0  0  0  0  0  0  0  0  0  0
    2.2539   -0.0885   -0.5075 C   0  0  0  0  0  0  0  0  0  0  0  0
    0.8426   -0.1017   -0.2302 N   0  0  0  0  0  0  0  0  0  0  0  0
    0.2493    0.9947    0.4031 C   0  0  0  0  0  0  0  0  0  0  0  0
    0.8265    2.0121    0.7839 O   0  0  0  0  0  0  0  0  0  0  0  0
   -1.2233    0.9615    0.5913 C   0  0  0  0  0  0  0  0  0  0  0  0
   -1.8457    2.0417    1.2340 C   0  0  0  0  0  0  0  0  0  0  0  0
   -3.2260    2.0710    1.3771 C   0  0  0  0  0  0  0  0  0  0  0  0
   -3.9936    1.0231    0.8746 C   0  0  0  0  0  0  0  0  0  0  0  0
   -3.3980   -0.0881    0.2262 C   0  0  0  0  0  0  0  0  0  0  0  0
   -4.1145   -1.1894   -0.3133 C   0  0  0  0  0  0  0  0  0  0  0  0
   -5.5630   -1.2559   -0.2131 N   0  0  0  0  0  4  0  0  0  0  0  0
   -6.1970   -1.2866   -1.2755 O   0  0  0  0  0  0  0  0  0  0  0  0
   -6.0522   -1.2961    0.9231 O   0  0  0  0  0  1  0  0  0  0  0  0
   -3.4831   -2.2554   -0.9611 C   0  0  0  0  0  0  0  0  0  0  0  0
   -2.0980   -2.2502   -1.0632 C   0  0  0  0  0  0  0  0  0  0  0  0
   -1.3502   -1.1835   -0.5350 C   0  0  0  0  0  0  0  0  0  0  0  0
   -1.9804   -0.1031    0.0928 C   0  0  0  0  0  0  0  0  0  0  0  0
    0.1294   -1.2434   -0.6178 C   0  0  0  0  0  0  0  0  0  0  0  0
    0.6053   -2.3327   -0.9346 O   0  0  0  0  0  0  0  0  0  0  0  0
    3.1657    0.5798    0.3147 C   0  0  0  0  0  0  0  0  0  0  0  0
    6.4010    1.5957    0.3385 H   0  0  0  0  0  0  0  0  0  0  0  0
    5.0745    2.1700    1.3483 H   0  0  0  0  0  0  0  0  0  0  0  0
    5.8304    0.5941    1.6950 H   0  0  0  0  0  0  0  0  0  0  0  0
    6.0048   -0.1413   -1.4118 H   0  0  0  0  0  0  0  0  0  0  0  0
    4.2843   -1.2943   -2.7906 H   0  0  0  0  0  0  0  0  0  0  0  0
   -1.2559    2.8737    1.6171 H   0  0  0  0  0  0  0  0  0  0  0  0
   -3.7062    2.9121    1.8729 H   0  0  0  0  0  0  0  0  0  0  0  0
   -5.0740    1.0908    1.0032 H   0  0  0  0  0  0  0  0  0  0  0  0
   -4.0544   -3.0854   -1.3728 H   0  0  0  0  0  0  0  0  0  0  0  0
   -1.5953   -3.0852   -1.5521 H   0  0  0  0  0  0  0  0  0  0  0  0
    2.8456    1.0733    1.2267 H   0  0  0  0  0  0  0  0  0  0  0  0
  1  2  1  0
  2  3  2  0
  3  4  1  0
  4  5  2  0
  5  6  1  0
  6  7  1  0
  7  8  1  0
  8  9  2  0
  8 10  1  0
 10 11  2  0
 11 12  1  0
 12 13  2  0
 13 14  1  0
 14 15  2  0
 15 16  1  0
 16 17  2  0
 16 18  1  0
 15 19  1  0
 19 20  2  0
 20 21  1  0
 21 22  2  0
 21 23  1  0
 23 24  2  0
  6 25  2  0
 25  2  1  0
 23  7  1  0
 22 10  1  0
 22 14  1  0
  1 26  1  0
  1 27  1  0
  1 28  1  0
  3 29  1  0
  4 30  1  0
 11 31  1  0
 12 32  1  0
 13 33  1  0
 19 34  1  0
 20 35  1  0
 25 36  1  0
M  CHG  2  16   1  18  -1
M  END
$$$$
