
     RDKit          3D

 50 51  0  0  0  0  0  0  0  0999 V2000
    9.8145   -0.6897    1.4761 C   0  0  0  0  0  0  0  0  0  0  0  0
    8.3141   -0.9374    1.4405 C   0  0  0  0  0  0  0  0  0  0  0  0
    7.8468   -1.3247    0.0371 C   0  0  0  0  0  0  0  0  0  0  0  0
    6.3609   -1.6868   -0.0307 C   0  0  0  0  0  0  0  0  0  0  0  0
    5.4350   -0.5071    0.2640 C   0  0  0  0  0  0  0  0  0  0  0  0
    3.9665   -0.8547    0.0585 C   0  0  0  0  0  0  0  0  0  0  0  0
    3.5985   -1.9747   -0.2745 O   0  0  0  0  0  0  0  0  0  0  0  0
    3.1520    0.2418    0.2988 N   0  0  0  0  0  0  0  0  0  0  0  0
    1.7463    0.3035    0.2151 C   0  0  0  0  0  0  0  0  0  0  0  0
    1.1439    1.5374    0.4908 C   0  0  0  0  0  0  0  0  0  0  0  0
   -0.2457    1.6839    0.4277 C   0  0  0  0  0  0  0  0  0  0  0  0
   -1.0539    0.5972    0.0783 C   0  0  0  0  0  0  0  0  0  0  0  0
   -2.5307    0.7960    0.0228 C   0  0  0  0  0  0  0  0  0  0  0  0
   -3.0375    1.6708    0.7190 O   0  0  0  0  0  0  0  0  0  0  0  0
   -3.2037   -0.0306   -0.8729 N   0  0  0  0  0  0  0  0  0  0  0  0
   -4.5338    0.0803   -1.1935 N   0  0  0  0  0  0  0  0  0  0  0  0
   -5.3586    0.3917   -0.2440 C   0  0  0  0  0  0  0  0  0  0  0  0
   -6.8002    0.5865   -0.5061 C   0  0  0  0  0  0  0  0  0  0  0  0
   -7.6366    0.9310    0.5617 C   0  0  0  0  0  0  0  0  0  0  0  0
   -9.0041    1.1232    0.3424 C   0  0  0  0  0  0  0  0  0  0  0  0
   -9.5265    0.9690   -0.9503 C   0  0  0  0  0  0  0  0  0  0  0  0
  -10.9627    1.1706   -1.1834 N   0  0  0  0  0  4  0  0  0  0  0  0
  -11.3840    1.0336   -2.3406 O   0  0  0  0  0  0  0  0  0  0  0  0
  -11.6685    1.4644   -0.2081 O   0  0  0  0  0  1  0  0  0  0  0  0
   -8.6904    0.6251   -2.0218 C   0  0  0  0  0  0  0  0  0  0  0  0
   -7.3242    0.4347   -1.7953 C   0  0  0  0  0  0  0  0  0  0  0  0
   -0.4590   -0.6421   -0.1805 C   0  0  0  0  0  0  0  0  0  0  0  0
    0.9339   -0.7832   -0.1159 C   0  0  0  0  0  0  0  0  0  0  0  0
   10.1289   -0.4114    2.4870 H   0  0  0  0  0  0  0  0  0  0  0  0
   10.0938    0.1227    0.7977 H   0  0  0  0  0  0  0  0  0  0  0  0
   10.3679   -1.5876    1.1837 H   0  0  0  0  0  0  0  0  0  0  0  0
    7.8018   -0.0295    1.7761 H   0  0  0  0  0  0  0  0  0  0  0  0
    8.0647   -1.7348    2.1498 H   0  0  0  0  0  0  0  0  0  0  0  0
    8.0583   -0.5075   -0.6632 H   0  0  0  0  0  0  0  0  0  0  0  0
    8.4256   -2.1910   -0.3065 H   0  0  0  0  0  0  0  0  0  0  0  0
    6.1478   -2.0702   -1.0367 H   0  0  0  0  0  0  0  0  0  0  0  0
    6.1479   -2.5089    0.6639 H   0  0  0  0  0  0  0  0  0  0  0  0
    5.6833    0.3322   -0.3965 H   0  0  0  0  0  0  0  0  0  0  0  0
    5.5570   -0.1793    1.3022 H   0  0  0  0  0  0  0  0  0  0  0  0
    3.6187    1.1016    0.5598 H   0  0  0  0  0  0  0  0  0  0  0  0
    1.7423    2.4040    0.7608 H   0  0  0  0  0  0  0  0  0  0  0  0
   -0.6953    2.6504    0.6489 H   0  0  0  0  0  0  0  0  0  0  0  0
   -2.6564   -0.4621   -1.6118 H   0  0  0  0  0  0  0  0  0  0  0  0
   -5.0435    0.5007    0.8081 H   0  0  0  0  0  0  0  0  0  0  0  0
   -7.2334    1.0566    1.5645 H   0  0  0  0  0  0  0  0  0  0  0  0
   -9.6427    1.3927    1.1817 H   0  0  0  0  0  0  0  0  0  0  0  0
   -9.0813    0.5038   -3.0301 H   0  0  0  0  0  0  0  0  0  0  0  0
   -6.6731    0.1704   -2.6264 H   0  0  0  0  0  0  0  0  0  0  0  0
   -1.0563   -1.5213   -0.4077 H   0  0  0  0  0  0  0  0  0  0  0  0
    1.3514   -1.7647   -0.3206 H   0  0  0  0  0  0  0  0  0  0  0  0
  1  2  1  0
  2  3  1  0
  3  4  1  0
  4  5  1  0
  5  6  1  0
  6  7  2  0
  6  8  1  0
  8  9  1  0
  9 10  2  0
 10 11  1  0
 11 12  2  0
 12 13  1  0
 13 14  2  0
 13 15  1  0
 15 16  1  0
 16 17  2  3
 17 18  1  0
 18 19  2  0
 19 20  1  0
 20 21  2  0
 21 22  1  0
 22 23  2  0
 22 24  1  0
 21 25  1  0
 25 26  2  0
 12 27  1  0
 27 28  2  0
 28  9  1  0
 26 18  1  0
  1 29  1  0
  1 30  1  0
  1 31  1  0
  2 32  1  0
  2 33  1  0
  3 34  1  0
  3 35  1  0
  4 36  1  0
  4 37  1  0
  5 38  1  0
  5 39  1  0
  8 40  1  0
 10 41  1  0
 11 42  1  0
 15 43  1  0
 17 44  1  0
 19 45  1  0
 20 46  1  0
 25 47  1  0
 26 48  1  0
 27 49  1  0
 28 50  1  0
M  CHG  2  22   1  24  -1
M  END
$$$$
