
     RDKit          3D

 40 41  0  0  0  0  0  0  0  0999 V2000
    0.3689   -3.0697   -1.8216 C   0  0  0  0  0  0  0  0  0  0  0  0
    0.7248   -1.7259   -1.4960 O   0  0  0  0  0  0  0  0  0  0  0  0
    1.3293   -1.6018   -0.2898 C   0  0  0  0  0  0  0  0  0  0  0  0
    1.6421   -2.5041    0.4688 O   0  0  0  0  0  0  0  0  0  0  0  0
    1.5848   -0.1696   -0.0292 C   0  0  0  0  0  0  0  0  0  0  0  0
    2.8350    0.2495    0.2496 C   0  0  0  0  0  0  0  0  0  0  0  0
    4.0631   -0.6076    0.3632 C   0  0  0  0  0  0  0  0  0  0  0  0
    3.1400    1.6352    0.3422 O   0  0  0  0  0  0  0  0  0  0  0  0
    2.1496    2.5545    0.2972 C   0  0  0  0  0  0  0  0  0  0  0  0
    2.4523    3.7772    0.0159 N   0  0  0  0  0  0  0  0  0  0  0  0
    0.7518    2.1200    0.6148 C   0  0  0  0  0  0  0  0  0  0  0  0
    0.6390    2.0156    2.0755 C   0  0  0  0  0  0  0  0  0  0  0  0
    0.5657    1.9351    3.2313 N   0  0  0  0  0  0  0  0  0  0  0  0
    0.4519    0.8194   -0.1453 C   0  0  0  0  0  0  0  0  0  0  0  0
   -0.9395    0.2906    0.1449 C   0  0  0  0  0  0  0  0  0  0  0  0
   -1.4147   -0.5394    1.2101 C   0  0  0  0  0  0  0  0  0  0  0  0
   -0.6990   -1.1390    2.3690 C   0  0  0  0  0  0  0  0  0  0  0  0
   -2.7212   -0.7927    1.0883 N   0  0  0  0  0  0  0  0  0  0  0  0
   -3.0977   -0.1419   -0.0167 N   0  0  0  0  0  0  0  0  0  0  0  0
   -4.4778   -0.2185   -0.4372 C   0  0  0  0  0  0  0  0  0  0  0  0
   -2.0767    0.5464   -0.6163 C   0  0  0  0  0  0  0  0  0  0  0  0
   -2.2746    1.3565   -1.8479 C   0  0  0  0  0  0  0  0  0  0  0  0
   -0.1443   -3.0595   -2.7871 H   0  0  0  0  0  0  0  0  0  0  0  0
   -0.3147   -3.4792   -1.0710 H   0  0  0  0  0  0  0  0  0  0  0  0
    1.2653   -3.6913   -1.9113 H   0  0  0  0  0  0  0  0  0  0  0  0
    4.3390   -0.7245    1.4157 H   0  0  0  0  0  0  0  0  0  0  0  0
    3.9435   -1.6000   -0.0781 H   0  0  0  0  0  0  0  0  0  0  0  0
    4.9016   -0.1322   -0.1577 H   0  0  0  0  0  0  0  0  0  0  0  0
    3.4693    3.8193   -0.1326 H   0  0  0  0  0  0  0  0  0  0  0  0
    0.0622    2.9017    0.2690 H   0  0  0  0  0  0  0  0  0  0  0  0
    0.4564    1.0837   -1.2155 H   0  0  0  0  0  0  0  0  0  0  0  0
    0.3511   -0.8453    2.4121 H   0  0  0  0  0  0  0  0  0  0  0  0
   -0.7379   -2.2320    2.3125 H   0  0  0  0  0  0  0  0  0  0  0  0
   -1.1696   -0.8284    3.3079 H   0  0  0  0  0  0  0  0  0  0  0  0
   -4.5089   -0.4004   -1.5142 H   0  0  0  0  0  0  0  0  0  0  0  0
   -4.9620    0.7292   -0.1897 H   0  0  0  0  0  0  0  0  0  0  0  0
   -4.9729   -1.0417    0.0851 H   0  0  0  0  0  0  0  0  0  0  0  0
   -2.2600    0.7107   -2.7314 H   0  0  0  0  0  0  0  0  0  0  0  0
   -3.2287    1.8925   -1.8240 H   0  0  0  0  0  0  0  0  0  0  0  0
   -1.4871    2.1076   -1.9604 H   0  0  0  0  0  0  0  0  0  0  0  0
  1  2  1  0
  2  3  1  0
  3  4  2  0
  3  5  1  0
  5  6  2  0
  6  7  1  0
  6  8  1  0
  8  9  1  0
  9 10  2  3
  9 11  1  0
 11 12  1  0
 12 13  3  0
 11 14  1  0
 14 15  1  0
 15 16  1  0
 16 17  1  0
 16 18  2  0
 18 19  1  0
 19 20  1  0
 19 21  1  0
 21 22  1  0
 14  5  1  0
 21 15  2  0
  1 23  1  0
  1 24  1  0
  1 25  1  0
  7 26  1  0
  7 27  1  0
  7 28  1  0
 10 29  1  0
 11 30  1  0
 14 31  1  0
 17 32  1  0
 17 33  1  0
 17 34  1  0
 20 35  1  0
 20 36  1  0
 20 37  1  0
 22 38  1  0
 22 39  1  0
 22 40  1  0
M  END
$$$$
