
     RDKit          3D

 45 47  0  0  0  0  0  0  0  0999 V2000
    1.9643   -2.3723    2.6303 C   0  0  0  0  0  0  0  0  0  0  0  0
    2.4235   -2.0424    1.2378 C   0  0  0  0  0  0  0  0  0  0  0  0
    3.4442   -2.8196    0.6556 C   0  0  0  0  0  0  0  0  0  0  0  0
    3.9083   -2.5607   -0.6309 C   0  0  0  0  0  0  0  0  0  0  0  0
    3.3715   -1.5178   -1.3859 C   0  0  0  0  0  0  0  0  0  0  0  0
    2.3565   -0.7393   -0.8091 C   0  0  0  0  0  0  0  0  0  0  0  0
    1.5002    0.5880   -1.4875 S   0  0  0  0  0  0  0  0  0  0  0  0
    0.6238    0.7850   -0.0306 C   0  0  0  0  0  0  0  0  0  0  0  0
   -0.3977    1.7285    0.0833 N   0  0  0  0  0  0  0  0  0  0  0  0
   -1.4936    1.4887    1.0258 C   0  0  0  0  0  0  0  0  0  0  0  0
   -2.6550    0.6558    0.4643 C   0  0  0  0  0  0  0  0  0  0  0  0
   -2.3087   -0.8310    0.3056 C   0  0  0  0  0  0  0  0  0  0  0  0
   -3.4406   -1.6382   -0.1900 N   0  0  0  0  0  0  0  0  0  0  0  0
   -2.9616   -2.9618   -0.6018 C   0  0  0  0  0  0  0  0  0  0  0  0
   -4.4920   -1.7922    0.8178 C   0  0  0  0  0  0  0  0  0  0  0  0
   -0.5174    2.8512   -0.7513 C   0  0  0  0  0  0  0  0  0  0  0  0
   -1.6320    3.2680   -1.0770 O   0  0  0  0  0  0  0  0  0  0  0  0
    0.6741    3.6035   -1.1382 C   0  0  0  0  0  0  0  0  0  0  0  0
    0.8941    4.2545   -2.3413 C   0  0  0  0  0  0  0  0  0  0  0  0
    2.1435    4.9432   -2.3681 C   0  0  0  0  0  0  0  0  0  0  0  0
    2.7955    4.8237   -1.1690 C   0  0  0  0  0  0  0  0  0  0  0  0
    4.3205    5.4985   -0.7610 Cl  0  0  0  0  0  0  0  0  0  0  0  0
    1.9406    3.9252   -0.0197 S   0  0  0  0  0  0  0  0  0  0  0  0
    0.8706   -0.1166    0.8919 N   0  0  0  0  0  0  0  0  0  0  0  0
    1.8775   -0.9773    0.4795 C   0  0  0  0  0  0  0  0  0  0  0  0
    1.5888   -3.3999    2.6685 H   0  0  0  0  0  0  0  0  0  0  0  0
    2.7962   -2.2688    3.3343 H   0  0  0  0  0  0  0  0  0  0  0  0
    1.1593   -1.7075    2.9579 H   0  0  0  0  0  0  0  0  0  0  0  0
    3.8826   -3.6418    1.2196 H   0  0  0  0  0  0  0  0  0  0  0  0
    4.6975   -3.1790   -1.0539 H   0  0  0  0  0  0  0  0  0  0  0  0
    3.7297   -1.3168   -2.3909 H   0  0  0  0  0  0  0  0  0  0  0  0
   -1.8924    2.4675    1.3238 H   0  0  0  0  0  0  0  0  0  0  0  0
   -1.0990    1.0360    1.9434 H   0  0  0  0  0  0  0  0  0  0  0  0
   -2.9860    1.0612   -0.4989 H   0  0  0  0  0  0  0  0  0  0  0  0
   -3.4915    0.7676    1.1629 H   0  0  0  0  0  0  0  0  0  0  0  0
   -1.9273   -1.2370    1.2514 H   0  0  0  0  0  0  0  0  0  0  0  0
   -1.4988   -0.9050   -0.4281 H   0  0  0  0  0  0  0  0  0  0  0  0
   -3.7842   -3.5604   -1.0091 H   0  0  0  0  0  0  0  0  0  0  0  0
   -2.2184   -2.8721   -1.4021 H   0  0  0  0  0  0  0  0  0  0  0  0
   -2.5097   -3.5148    0.2298 H   0  0  0  0  0  0  0  0  0  0  0  0
   -5.2994   -2.4280    0.4360 H   0  0  0  0  0  0  0  0  0  0  0  0
   -4.9577   -0.8322    1.0594 H   0  0  0  0  0  0  0  0  0  0  0  0
   -4.1145   -2.2399    1.7442 H   0  0  0  0  0  0  0  0  0  0  0  0
    0.1887    4.2255   -3.1647 H   0  0  0  0  0  0  0  0  0  0  0  0
    2.5258    5.5006   -3.2140 H   0  0  0  0  0  0  0  0  0  0  0  0
  1  2  1  0
  2  3  2  0
  3  4  1  0
  4  5  2  0
  5  6  1  0
  6  7  1  0
  7  8  1  0
  8  9  1  0
  9 10  1  0
 10 11  1  0
 11 12  1  0
 12 13  1  0
 13 14  1  0
 13 15  1  0
  9 16  1  0
 16 17  2  0
 16 18  1  0
 18 19  2  0
 19 20  1  0
 20 21  2  0
 21 22  1  0
 21 23  1  0
  8 24  2  0
 24 25  1  0
 25  2  1  0
 25  6  2  0
 23 18  1  0
  1 26  1  0
  1 27  1  0
  1 28  1  0
  3 29  1  0
  4 30  1  0
  5 31  1  0
 10 32  1  0
 10 33  1  0
 11 34  1  0
 11 35  1  0
 12 36  1  0
 12 37  1  0
 14 38  1  0
 14 39  1  0
 14 40  1  0
 15 41  1  0
 15 42  1  0
 15 43  1  0
 19 44  1  0
 20 45  1  0
M  END
$$$$
