
     RDKit          3D

 46 50  0  0  0  0  0  0  0  0999 V2000
   -1.3452    2.1432    2.1251 O   0  0  0  0  0  0  0  0  0  0  0  0
   -1.3303    1.4943    1.0837 C   0  0  0  0  0  0  0  0  0  0  0  0
   -2.2337    1.8750   -0.0176 C   0  0  0  0  0  0  0  0  0  0  0  0
   -2.9797    3.0564    0.0549 C   0  0  0  0  0  0  0  0  0  0  0  0
   -3.7896    3.4175   -1.0187 C   0  0  0  0  0  0  0  0  0  0  0  0
   -4.7072    4.8701   -0.9479 Cl  0  0  0  0  0  0  0  0  0  0  0  0
   -3.8557    2.6136   -2.1567 C   0  0  0  0  0  0  0  0  0  0  0  0
   -3.1127    1.4324   -2.2179 C   0  0  0  0  0  0  0  0  0  0  0  0
   -2.3115    1.0550   -1.1406 C   0  0  0  0  0  0  0  0  0  0  0  0
   -1.6332   -0.1219   -1.2787 O   0  0  0  0  0  0  0  0  0  0  0  0
   -1.1477   -0.7298   -0.0484 C   0  0  0  0  0  0  0  0  0  0  0  0
   -0.2059   -1.8683   -0.5285 C   0  0  0  0  0  0  0  0  0  0  0  0
   -1.0052   -3.1071   -0.9273 C   0  0  0  0  0  0  0  0  0  0  0  0
   -1.7105   -3.6979    0.2079 N   0  0  0  0  0  0  0  0  0  0  0  0
   -2.0514   -2.7430    1.2591 C   0  0  0  0  0  0  0  0  0  0  0  0
   -2.3609   -1.3562    0.7062 C   0  0  0  0  0  0  0  0  0  0  0  0
   -0.3870    0.3287    0.7991 C   0  0  0  0  0  0  0  0  0  0  0  0
    0.8735    0.9040    0.1645 C   0  0  0  0  0  0  0  0  0  0  0  0
    1.9007    0.2244    1.0000 C   0  0  0  0  0  0  0  0  0  0  0  0
    3.3428    0.2749    0.6636 C   0  0  0  0  0  0  0  0  0  0  0  0
    4.2435   -0.4784    1.4267 C   0  0  0  0  0  0  0  0  0  0  0  0
    5.6077   -0.4553    1.1309 C   0  0  0  0  0  0  0  0  0  0  0  0
    6.0782    0.3210    0.0736 C   0  0  0  0  0  0  0  0  0  0  0  0
    5.1870    1.0763   -0.6877 C   0  0  0  0  0  0  0  0  0  0  0  0
    3.8206    1.0558   -0.3952 C   0  0  0  0  0  0  0  0  0  0  0  0
    1.4361   -0.4045    2.0308 N   0  0  0  0  0  0  0  0  0  0  0  0
    0.0338   -0.2334    2.0468 O   0  0  0  0  0  0  0  0  0  0  0  0
   -2.9209    3.6906    0.9371 H   0  0  0  0  0  0  0  0  0  0  0  0
   -4.4852    2.8988   -2.9963 H   0  0  0  0  0  0  0  0  0  0  0  0
   -3.1703    0.8020   -3.1024 H   0  0  0  0  0  0  0  0  0  0  0  0
    0.5074   -2.1594    0.2504 H   0  0  0  0  0  0  0  0  0  0  0  0
    0.3788   -1.5419   -1.3972 H   0  0  0  0  0  0  0  0  0  0  0  0
   -1.7250   -2.8474   -1.7131 H   0  0  0  0  0  0  0  0  0  0  0  0
   -0.3330   -3.8612   -1.3503 H   0  0  0  0  0  0  0  0  0  0  0  0
   -2.5456   -4.1811   -0.1225 H   0  0  0  0  0  0  0  0  0  0  0  0
   -1.2267   -2.6889    1.9790 H   0  0  0  0  0  0  0  0  0  0  0  0
   -2.9167   -3.1217    1.8148 H   0  0  0  0  0  0  0  0  0  0  0  0
   -2.6866   -0.7169    1.5348 H   0  0  0  0  0  0  0  0  0  0  0  0
   -3.2273   -1.4302    0.0345 H   0  0  0  0  0  0  0  0  0  0  0  0
    0.9777    0.6668   -0.8966 H   0  0  0  0  0  0  0  0  0  0  0  0
    0.9708    1.9869    0.3001 H   0  0  0  0  0  0  0  0  0  0  0  0
    3.8899   -1.0876    2.2567 H   0  0  0  0  0  0  0  0  0  0  0  0
    6.3012   -1.0423    1.7281 H   0  0  0  0  0  0  0  0  0  0  0  0
    7.1413    0.3398   -0.1545 H   0  0  0  0  0  0  0  0  0  0  0  0
    5.5588    1.6849   -1.5087 H   0  0  0  0  0  0  0  0  0  0  0  0
    3.1550    1.6620   -1.0018 H   0  0  0  0  0  0  0  0  0  0  0  0
  1  2  2  0
  2  3  1  0
  3  4  2  0
  4  5  1  0
  5  6  1  0
  5  7  2  0
  7  8  1  0
  8  9  2  0
  9 10  1  0
 10 11  1  0
 11 12  1  0
 12 13  1  0
 13 14  1  0
 14 15  1  0
 15 16  1  0
 11 17  1  0
 17 18  1  0
 18 19  1  0
 19 20  1  0
 20 21  2  0
 21 22  1  0
 22 23  2  0
 23 24  1  0
 24 25  2  0
 19 26  2  0
 26 27  1  0
 17  2  1  0
 25 20  1  0
  9  3  1  0
 16 11  1  0
 27 17  1  0
  4 28  1  0
  7 29  1  0
  8 30  1  0
 12 31  1  0
 12 32  1  0
 13 33  1  0
 13 34  1  0
 14 35  1  0
 15 36  1  0
 15 37  1  0
 16 38  1  0
 16 39  1  0
 18 40  1  0
 18 41  1  0
 21 42  1  0
 22 43  1  0
 23 44  1  0
 24 45  1  0
 25 46  1  0
M  END
$$$$
