
     RDKit          3D

 44 46  0  0  0  0  0  0  0  0999 V2000
   -2.9835    0.2355   -1.5710 O   0  0  0  0  0  0  0  0  0  0  0  0
   -3.5283    0.1067   -0.4757 C   0  0  0  0  0  0  0  0  0  0  0  0
   -2.9664   -0.5335    0.6268 N   0  0  0  0  0  0  0  0  0  0  0  0
   -1.7545   -1.1789    0.5823 N   0  0  0  0  0  0  0  0  0  0  0  0
   -0.7779   -0.5494   -0.0040 C   0  0  0  0  0  0  0  0  0  0  0  0
    0.5668   -1.1489   -0.1810 C   0  0  0  0  0  0  0  0  0  0  0  0
    0.7913   -2.4445    0.0760 C   0  0  0  0  0  0  0  0  0  0  0  0
   -0.1374   -3.3437    0.5323 O   0  0  0  0  0  0  0  0  0  0  0  0
    2.0132   -2.9980   -0.1090 N   0  0  0  0  0  0  0  0  0  0  0  0
    3.1146   -2.3249   -0.5536 C   0  0  0  0  0  0  0  0  0  0  0  0
    4.1783   -2.9230   -0.7004 O   0  0  0  0  0  0  0  0  0  0  0  0
    2.9255   -0.9791   -0.8190 N   0  0  0  0  0  0  0  0  0  0  0  0
    4.0723   -0.1997   -1.2608 C   0  0  0  0  0  0  0  0  0  0  0  0
    4.8077    0.4336   -0.0987 C   0  0  0  0  0  0  0  0  0  0  0  0
    5.8172   -0.2700    0.5744 C   0  0  0  0  0  0  0  0  0  0  0  0
    6.4814    0.3066    1.6582 C   0  0  0  0  0  0  0  0  0  0  0  0
    6.1411    1.5891    2.0837 C   0  0  0  0  0  0  0  0  0  0  0  0
    5.1349    2.2955    1.4279 C   0  0  0  0  0  0  0  0  0  0  0  0
    4.4693    1.7207    0.3439 C   0  0  0  0  0  0  0  0  0  0  0  0
    1.7037   -0.3364   -0.6832 C   0  0  0  0  0  0  0  0  0  0  0  0
    1.5211    0.8504   -0.9538 O   0  0  0  0  0  0  0  0  0  0  0  0
   -4.9212    0.6079   -0.3076 C   0  0  0  0  0  0  0  0  0  0  0  0
   -5.4402    0.9176    0.9595 C   0  0  0  0  0  0  0  0  0  0  0  0
   -6.7564    1.3712    1.0886 C   0  0  0  0  0  0  0  0  0  0  0  0
   -7.5583    1.5257   -0.0416 C   0  0  0  0  0  0  0  0  0  0  0  0
   -7.0442    1.2415   -1.3059 C   0  0  0  0  0  0  0  0  0  0  0  0
   -5.7305    0.7961   -1.4386 C   0  0  0  0  0  0  0  0  0  0  0  0
   -5.3000    0.5611   -2.7176 O   0  0  0  0  0  0  0  0  0  0  0  0
   -3.6103   -0.9288    1.3073 H   0  0  0  0  0  0  0  0  0  0  0  0
   -0.8836    0.4826   -0.3837 H   0  0  0  0  0  0  0  0  0  0  0  0
   -0.9844   -2.8614    0.6556 H   0  0  0  0  0  0  0  0  0  0  0  0
    2.1296   -3.9829    0.0942 H   0  0  0  0  0  0  0  0  0  0  0  0
    3.7451    0.5825   -1.9571 H   0  0  0  0  0  0  0  0  0  0  0  0
    4.7647   -0.8346   -1.8274 H   0  0  0  0  0  0  0  0  0  0  0  0
    6.0913   -1.2756    0.2586 H   0  0  0  0  0  0  0  0  0  0  0  0
    7.2633   -0.2475    2.1712 H   0  0  0  0  0  0  0  0  0  0  0  0
    6.6587    2.0370    2.9277 H   0  0  0  0  0  0  0  0  0  0  0  0
    4.8659    3.2945    1.7611 H   0  0  0  0  0  0  0  0  0  0  0  0
    3.6809    2.2837   -0.1531 H   0  0  0  0  0  0  0  0  0  0  0  0
   -4.8332    0.8401    1.8573 H   0  0  0  0  0  0  0  0  0  0  0  0
   -7.1560    1.6132    2.0711 H   0  0  0  0  0  0  0  0  0  0  0  0
   -8.5817    1.8796    0.0589 H   0  0  0  0  0  0  0  0  0  0  0  0
   -7.6622    1.3743   -2.1903 H   0  0  0  0  0  0  0  0  0  0  0  0
   -4.3278    0.4141   -2.6899 H   0  0  0  0  0  0  0  0  0  0  0  0
  1  2  2  0
  2  3  1  0
  3  4  1  0
  4  5  2  3
  5  6  1  0
  6  7  2  0
  7  8  1  0
  7  9  1  0
  9 10  1  0
 10 11  2  0
 10 12  1  0
 12 13  1  0
 13 14  1  0
 14 15  2  0
 15 16  1  0
 16 17  2  0
 17 18  1  0
 18 19  2  0
 12 20  1  0
 20 21  2  0
  2 22  1  0
 22 23  2  0
 23 24  1  0
 24 25  2  0
 25 26  1  0
 26 27  2  0
 27 28  1  0
 20  6  1  0
 27 22  1  0
 19 14  1  0
  3 29  1  0
  5 30  1  0
  8 31  1  0
  9 32  1  0
 13 33  1  0
 13 34  1  0
 15 35  1  0
 16 36  1  0
 17 37  1  0
 18 38  1  0
 19 39  1  0
 23 40  1  0
 24 41  1  0
 25 42  1  0
 26 43  1  0
 28 44  1  0
M  END
$$$$
