
     RDKit          3D

 40 43  0  0  0  0  0  0  0  0999 V2000
   -2.5164    3.0076   -2.6956 C   0  0  0  0  0  0  0  0  0  0  0  0
   -2.0748    3.6236   -1.5892 C   0  0  0  0  0  0  0  0  0  0  0  0
   -1.3841    3.0235   -0.3889 C   0  0  0  0  0  0  0  0  0  0  0  0
   -1.1504    1.5892   -0.5287 N   0  0  0  0  0  0  0  0  0  0  0  0
   -0.0516    1.0455   -1.1721 C   0  0  0  0  0  0  0  0  0  0  0  0
    1.1965    2.0968   -1.8154 S   0  0  0  0  0  0  0  0  0  0  0  0
    2.2840    2.2402   -0.3616 C   0  0  0  0  0  0  0  0  0  0  0  0
    2.4556    0.9335    0.3766 C   0  0  0  0  0  0  0  0  0  0  0  0
    3.3904    0.0433    0.0031 C   0  0  0  0  0  0  0  0  0  0  0  0
    3.4519   -1.2705    0.6784 C   0  0  0  0  0  0  0  0  0  0  0  0
    4.3107   -2.0867    0.3563 O   0  0  0  0  0  0  0  0  0  0  0  0
    2.4962   -1.4550    1.6452 N   0  0  0  0  0  0  0  0  0  0  0  0
    2.3328   -2.6059    2.3847 C   0  0  0  0  0  0  0  0  0  0  0  0
    1.3435   -2.5366    3.2829 C   0  0  0  0  0  0  0  0  0  0  0  0
    0.5566   -0.9815    3.2497 S   0  0  0  0  0  0  0  0  0  0  0  0
    1.6202   -0.4435    1.9604 C   0  0  0  0  0  0  0  0  0  0  0  0
    1.5684    0.7231    1.4143 N   0  0  0  0  0  0  0  0  0  0  0  0
    0.1423   -0.2212   -1.3554 N   0  0  0  0  0  0  0  0  0  0  0  0
   -0.7814   -1.1193   -0.8199 C   0  0  0  0  0  0  0  0  0  0  0  0
   -0.5523   -2.4894   -0.9684 C   0  0  0  0  0  0  0  0  0  0  0  0
   -1.4372   -3.4218   -0.4210 C   0  0  0  0  0  0  0  0  0  0  0  0
   -2.5608   -2.9880    0.2816 C   0  0  0  0  0  0  0  0  0  0  0  0
   -2.7983   -1.6226    0.4350 C   0  0  0  0  0  0  0  0  0  0  0  0
   -1.9042   -0.6974   -0.1174 C   0  0  0  0  0  0  0  0  0  0  0  0
   -2.1164    0.7528    0.0291 C   0  0  0  0  0  0  0  0  0  0  0  0
   -3.1172    1.1450    0.6262 O   0  0  0  0  0  0  0  0  0  0  0  0
   -3.0046    3.5741   -3.4834 H   0  0  0  0  0  0  0  0  0  0  0  0
   -2.4174    1.9387   -2.8527 H   0  0  0  0  0  0  0  0  0  0  0  0
   -2.2297    4.6995   -1.5196 H   0  0  0  0  0  0  0  0  0  0  0  0
   -2.0001    3.2210    0.4960 H   0  0  0  0  0  0  0  0  0  0  0  0
   -0.4404    3.5488   -0.2201 H   0  0  0  0  0  0  0  0  0  0  0  0
    1.8793    3.0038    0.3119 H   0  0  0  0  0  0  0  0  0  0  0  0
    3.2543    2.6157   -0.7056 H   0  0  0  0  0  0  0  0  0  0  0  0
    4.0759    0.2042   -0.8186 H   0  0  0  0  0  0  0  0  0  0  0  0
    2.9790   -3.4561    2.2056 H   0  0  0  0  0  0  0  0  0  0  0  0
    1.0495   -3.3274    3.9593 H   0  0  0  0  0  0  0  0  0  0  0  0
    0.3242   -2.8294   -1.5148 H   0  0  0  0  0  0  0  0  0  0  0  0
   -1.2491   -4.4854   -0.5457 H   0  0  0  0  0  0  0  0  0  0  0  0
   -3.2518   -3.7113    0.7078 H   0  0  0  0  0  0  0  0  0  0  0  0
   -3.6731   -1.2805    0.9835 H   0  0  0  0  0  0  0  0  0  0  0  0
  1  2  2  0
  2  3  1  0
  3  4  1  0
  4  5  1  0
  5  6  1  0
  6  7  1  0
  7  8  1  0
  8  9  2  0
  9 10  1  0
 10 11  2  0
 10 12  1  0
 12 13  1  0
 13 14  2  0
 14 15  1  0
 15 16  1  0
 16 17  2  0
  5 18  2  0
 18 19  1  0
 19 20  2  0
 20 21  1  0
 21 22  2  0
 22 23  1  0
 23 24  2  0
 24 25  1  0
 25 26  2  0
 25  4  1  0
 17  8  1  0
 24 19  1  0
 16 12  1  0
  1 27  1  0
  1 28  1  0
  2 29  1  0
  3 30  1  0
  3 31  1  0
  7 32  1  0
  7 33  1  0
  9 34  1  0
 13 35  1  0
 14 36  1  0
 20 37  1  0
 21 38  1  0
 22 39  1  0
 23 40  1  0
M  END
$$$$
