
     RDKit          3D

 56 60  0  0  0  0  0  0  0  0999 V2000
    3.1465   -0.1208    5.3200 C   0  0  0  0  0  0  0  0  0  0  0  0
    4.1940   -0.0906    4.2188 C   0  0  0  0  0  0  0  0  0  0  0  0
    3.7052   -0.6713    2.9923 N   0  0  0  0  0  0  0  0  0  0  0  0
    3.8215   -2.0134    2.6443 C   0  0  0  0  0  0  0  0  0  0  0  0
    4.3815   -2.9187    3.2300 O   0  0  0  0  0  0  0  0  0  0  0  0
    3.0859   -2.1465    1.3691 C   0  0  0  0  0  0  0  0  0  0  0  0
    2.8672   -3.2361    0.5531 C   0  0  0  0  0  0  0  0  0  0  0  0
    2.1047   -3.0299   -0.6037 C   0  0  0  0  0  0  0  0  0  0  0  0
    1.5732   -1.7552   -0.9125 C   0  0  0  0  0  0  0  0  0  0  0  0
    1.7896   -0.6357   -0.0590 C   0  0  0  0  0  0  0  0  0  0  0  0
    1.3450    0.7149   -0.1326 C   0  0  0  0  0  0  0  0  0  0  0  0
    0.2641    1.2332   -1.4497 S   0  0  0  0  0  6  0  0  0  0  0  0
   -0.1102    2.6127   -1.2007 O   0  0  0  0  0  0  0  0  0  0  0  0
    0.9376    0.8773   -2.6817 O   0  0  0  0  0  0  0  0  0  0  0  0
   -1.1201    0.2859   -1.2613 N   0  0  0  0  0  0  0  0  0  0  0  0
   -1.6441   -0.2826   -0.0706 C   0  0  0  0  0  0  0  0  0  0  0  0
   -2.2003   -1.3743   -0.0277 O   0  0  0  0  0  0  0  0  0  0  0  0
   -1.5679    0.5036    1.1730 C   0  0  0  0  0  0  0  0  0  0  0  0
   -1.8445    1.8699    1.2307 C   0  0  0  0  0  0  0  0  0  0  0  0
   -1.7419    2.5332    2.4519 C   0  0  0  0  0  0  0  0  0  0  0  0
   -1.3747    1.8024    3.5712 C   0  0  0  0  0  0  0  0  0  0  0  0
   -1.1181    0.4761    3.5484 N   0  0  0  0  0  0  0  0  0  0  0  0
   -1.2373   -0.1504    2.3527 C   0  0  0  0  0  0  0  0  0  0  0  0
   -1.9149    0.0968   -2.4423 C   0  0  0  0  0  0  0  0  0  0  0  0
   -2.0402   -1.1687   -3.0171 C   0  0  0  0  0  0  0  0  0  0  0  0
   -2.8176   -1.3405   -4.1650 C   0  0  0  0  0  0  0  0  0  0  0  0
   -3.4757   -0.2560   -4.7503 C   0  0  0  0  0  0  0  0  0  0  0  0
   -4.1991   -0.5636   -5.8687 O   0  0  0  0  0  0  0  0  0  0  0  0
   -4.8615    0.5109   -6.5237 C   0  0  0  0  0  0  0  0  0  0  0  0
   -3.3543    1.0079   -4.1724 C   0  0  0  0  0  0  0  0  0  0  0  0
   -2.5784    1.1833   -3.0204 C   0  0  0  0  0  0  0  0  0  0  0  0
    1.7254    1.6701    0.8473 C   0  0  0  0  0  0  0  0  0  0  0  0
    2.5203    1.3046    1.9448 C   0  0  0  0  0  0  0  0  0  0  0  0
    2.9285   -0.0090    2.0304 C   0  0  0  0  0  0  0  0  0  0  0  0
    2.5700   -0.9130    1.0618 C   0  0  0  0  0  0  0  0  0  0  0  0
    3.5520    0.3053    6.2427 H   0  0  0  0  0  0  0  0  0  0  0  0
    2.2589    0.4553    5.0387 H   0  0  0  0  0  0  0  0  0  0  0  0
    2.8254   -1.1469    5.5280 H   0  0  0  0  0  0  0  0  0  0  0  0
    4.5277    0.9349    4.0281 H   0  0  0  0  0  0  0  0  0  0  0  0
    5.0683   -0.6652    4.5454 H   0  0  0  0  0  0  0  0  0  0  0  0
    3.2754   -4.2104    0.8008 H   0  0  0  0  0  0  0  0  0  0  0  0
    1.9187   -3.8635   -1.2792 H   0  0  0  0  0  0  0  0  0  0  0  0
    1.0011   -1.6518   -1.8329 H   0  0  0  0  0  0  0  0  0  0  0  0
   -2.1552    2.4221    0.3477 H   0  0  0  0  0  0  0  0  0  0  0  0
   -1.9502    3.5953    2.5298 H   0  0  0  0  0  0  0  0  0  0  0  0
   -1.2822    2.2758    4.5452 H   0  0  0  0  0  0  0  0  0  0  0  0
   -1.0404   -1.2201    2.3752 H   0  0  0  0  0  0  0  0  0  0  0  0
   -1.5444   -2.0300   -2.5781 H   0  0  0  0  0  0  0  0  0  0  0  0
   -2.9122   -2.3298   -4.6068 H   0  0  0  0  0  0  0  0  0  0  0  0
   -5.3757    0.1027   -7.3992 H   0  0  0  0  0  0  0  0  0  0  0  0
   -5.6182    0.9622   -5.8735 H   0  0  0  0  0  0  0  0  0  0  0  0
   -4.1454    1.2600   -6.8771 H   0  0  0  0  0  0  0  0  0  0  0  0
   -3.8481    1.8782   -4.5918 H   0  0  0  0  0  0  0  0  0  0  0  0
   -2.4977    2.1774   -2.5877 H   0  0  0  0  0  0  0  0  0  0  0  0
    1.3909    2.7039    0.7682 H   0  0  0  0  0  0  0  0  0  0  0  0
    2.7921    2.0378    2.6959 H   0  0  0  0  0  0  0  0  0  0  0  0
  1  2  1  0
  2  3  1  0
  3  4  1  0
  4  5  2  0
  4  6  1  0
  6  7  2  0
  7  8  1  0
  8  9  2  0
  9 10  1  0
 10 11  2  0
 11 12  1  0
 12 13  2  0
 12 14  2  0
 12 15  1  0
 15 16  1  0
 16 17  2  0
 16 18  1  0
 18 19  2  0
 19 20  1  0
 20 21  2  0
 21 22  1  0
 22 23  2  0
 15 24  1  0
 24 25  2  0
 25 26  1  0
 26 27  2  0
 27 28  1  0
 28 29  1  0
 27 30  1  0
 30 31  2  0
 11 32  1  0
 32 33  2  0
 33 34  1  0
 34 35  2  0
 34  3  1  0
 35  6  1  0
 35 10  1  0
 23 18  1  0
 31 24  1  0
  1 36  1  0
  1 37  1  0
  1 38  1  0
  2 39  1  0
  2 40  1  0
  7 41  1  0
  8 42  1  0
  9 43  1  0
 19 44  1  0
 20 45  1  0
 21 46  1  0
 23 47  1  0
 25 48  1  0
 26 49  1  0
 29 50  1  0
 29 51  1  0
 29 52  1  0
 30 53  1  0
 31 54  1  0
 32 55  1  0
 33 56  1  0
M  END
$$$$
