
     RDKit          3D

 43 45  0  0  0  0  0  0  0  0999 V2000
   -0.8940    4.4080   -0.0071 C   0  0  0  0  0  0  0  0  0  0  0  0
   -0.7973    3.3495    0.9470 O   0  0  0  0  0  0  0  0  0  0  0  0
   -1.0053    2.1053    0.4181 C   0  0  0  0  0  0  0  0  0  0  0  0
   -1.2685    1.8867   -0.7570 O   0  0  0  0  0  0  0  0  0  0  0  0
   -0.8785    1.0741    1.5125 C   0  0  0  0  0  0  0  0  0  0  0  0
   -0.8902   -0.2877    1.0040 N   0  0  0  0  0  0  0  0  0  0  0  0
    0.2102   -1.0793    0.7168 C   0  0  0  0  0  0  0  0  0  0  0  0
    1.6365   -0.6284    0.8720 C   0  0  0  0  0  0  0  0  0  0  0  0
    1.9286    0.5917    0.1013 N   0  0  0  0  0  0  0  0  0  0  0  0
    3.2648    1.1387    0.4255 C   0  0  0  0  0  0  0  0  0  0  0  0
    4.3345    0.8402   -0.6362 C   0  0  0  0  0  0  0  0  0  0  0  0
    3.9968    1.3622   -1.9270 O   0  0  0  0  0  0  0  0  0  0  0  0
    2.5831    1.3872   -2.1742 C   0  0  0  0  0  0  0  0  0  0  0  0
    1.8172    0.3355   -1.3588 C   0  0  0  0  0  0  0  0  0  0  0  0
   -0.1706   -2.2709    0.2782 N   0  0  0  0  0  0  0  0  0  0  0  0
   -1.5290   -2.2281    0.2694 C   0  0  0  0  0  0  0  0  0  0  0  0
   -2.0025   -1.0307    0.7172 C   0  0  0  0  0  0  0  0  0  0  0  0
   -3.3905   -0.7385    0.7969 C   0  0  0  0  0  0  0  0  0  0  0  0
   -3.8653    0.3108    1.2164 O   0  0  0  0  0  0  0  0  0  0  0  0
   -4.1735   -1.7845    0.3635 N   0  0  0  0  0  0  0  0  0  0  0  0
   -3.7470   -3.0208   -0.0868 C   0  0  0  0  0  0  0  0  0  0  0  0
   -4.5900   -3.8552   -0.4170 O   0  0  0  0  0  0  0  0  0  0  0  0
   -2.3741   -3.2405   -0.1314 N   0  0  0  0  0  0  0  0  0  0  0  0
   -1.8402   -4.5022   -0.6042 C   0  0  0  0  0  0  0  0  0  0  0  0
   -0.7068    5.3511    0.5135 H   0  0  0  0  0  0  0  0  0  0  0  0
   -0.1380    4.2883   -0.7895 H   0  0  0  0  0  0  0  0  0  0  0  0
   -1.8987    4.4443   -0.4397 H   0  0  0  0  0  0  0  0  0  0  0  0
    0.0542    1.2266    2.0628 H   0  0  0  0  0  0  0  0  0  0  0  0
   -1.7085    1.1805    2.2172 H   0  0  0  0  0  0  0  0  0  0  0  0
    1.7984   -0.4416    1.9416 H   0  0  0  0  0  0  0  0  0  0  0  0
    2.3146   -1.4441    0.5899 H   0  0  0  0  0  0  0  0  0  0  0  0
    3.1469    2.2276    0.4929 H   0  0  0  0  0  0  0  0  0  0  0  0
    3.6122    0.8084    1.4116 H   0  0  0  0  0  0  0  0  0  0  0  0
    4.4985   -0.2394   -0.7325 H   0  0  0  0  0  0  0  0  0  0  0  0
    5.2894    1.2884   -0.3428 H   0  0  0  0  0  0  0  0  0  0  0  0
    2.4354    1.2162   -3.2453 H   0  0  0  0  0  0  0  0  0  0  0  0
    2.2152    2.3958   -1.9519 H   0  0  0  0  0  0  0  0  0  0  0  0
    0.7642    0.3469   -1.6572 H   0  0  0  0  0  0  0  0  0  0  0  0
    2.2263   -0.6528   -1.6072 H   0  0  0  0  0  0  0  0  0  0  0  0
   -5.1710   -1.6465    0.3926 H   0  0  0  0  0  0  0  0  0  0  0  0
   -1.2158   -4.3186   -1.4840 H   0  0  0  0  0  0  0  0  0  0  0  0
   -1.2352   -4.9549    0.1878 H   0  0  0  0  0  0  0  0  0  0  0  0
   -2.6362   -5.1996   -0.8794 H   0  0  0  0  0  0  0  0  0  0  0  0
  1  2  1  0
  2  3  1  0
  3  4  2  0
  3  5  1  0
  5  6  1  0
  6  7  1  0
  7  8  1  0
  8  9  1  0
  9 10  1  0
 10 11  1  0
 11 12  1  0
 12 13  1  0
 13 14  1  0
  7 15  2  0
 15 16  1  0
 16 17  2  0
 17 18  1  0
 18 19  2  0
 18 20  1  0
 20 21  1  0
 21 22  2  0
 21 23  1  0
 23 24  1  0
 17  6  1  0
 14  9  1  0
 23 16  1  0
  1 25  1  0
  1 26  1  0
  1 27  1  0
  5 28  1  0
  5 29  1  0
  8 30  1  0
  8 31  1  0
 10 32  1  0
 10 33  1  0
 11 34  1  0
 11 35  1  0
 13 36  1  0
 13 37  1  0
 14 38  1  0
 14 39  1  0
 20 40  1  0
 24 41  1  0
 24 42  1  0
 24 43  1  0
M  END
$$$$
