
     RDKit          3D

 53 55  0  0  0  0  0  0  0  0999 V2000
    4.6148   -2.5739    2.8931 C   0  0  0  0  0  0  0  0  0  0  0  0
    5.0608   -1.9723    1.6848 O   0  0  0  0  0  0  0  0  0  0  0  0
    4.1731   -1.1671    1.0216 C   0  0  0  0  0  0  0  0  0  0  0  0
    2.8149   -1.0522    1.3136 C   0  0  0  0  0  0  0  0  0  0  0  0
    2.0079   -0.2050    0.5419 C   0  0  0  0  0  0  0  0  0  0  0  0
    0.5702   -0.1095    0.8721 C   0  0  0  0  0  0  0  0  0  0  0  0
   -0.2343    0.6442    0.1920 N   0  0  0  0  0  0  0  0  0  0  0  0
   -1.5631    0.6448    0.5603 N   0  0  0  0  0  0  0  0  0  0  0  0
   -2.2664   -0.6384    0.7433 C   0  0  0  0  0  0  0  0  0  0  0  0
   -3.8015   -0.4875    0.7856 C   0  0  0  0  0  0  0  0  0  0  0  0
   -4.3104    0.1945   -0.4189 N   0  0  0  0  0  0  0  0  0  0  0  0
   -5.6043    0.0087   -0.8745 C   0  0  0  0  0  0  0  0  0  0  0  0
   -6.6140   -0.5194   -0.0519 C   0  0  0  0  0  0  0  0  0  0  0  0
   -7.9239   -0.7107   -0.5117 C   0  0  0  0  0  0  0  0  0  0  0  0
   -8.2520   -0.3766   -1.8185 C   0  0  0  0  0  0  0  0  0  0  0  0
   -9.8567   -0.6101   -2.3899 Cl  0  0  0  0  0  0  0  0  0  0  0  0
   -7.2821    0.1452   -2.6632 C   0  0  0  0  0  0  0  0  0  0  0  0
   -5.9765    0.3330   -2.1908 C   0  0  0  0  0  0  0  0  0  0  0  0
   -3.4012    1.1677   -1.0615 C   0  0  0  0  0  0  0  0  0  0  0  0
   -2.3623    1.7095   -0.0640 C   0  0  0  0  0  0  0  0  0  0  0  0
    2.5403    0.5300   -0.5268 C   0  0  0  0  0  0  0  0  0  0  0  0
    3.8956    0.4272   -0.8325 C   0  0  0  0  0  0  0  0  0  0  0  0
    4.5307    1.0808   -1.8551 O   0  0  0  0  0  0  0  0  0  0  0  0
    3.7691    2.0368   -2.5823 C   0  0  0  0  0  0  0  0  0  0  0  0
    4.6947   -0.4162   -0.0446 C   0  0  0  0  0  0  0  0  0  0  0  0
    6.0540   -0.5438   -0.3611 O   0  0  0  0  0  0  0  0  0  0  0  0
    6.8314    0.3639    0.3425 C   0  0  0  0  0  0  0  0  0  0  0  0
    8.2646    0.1758   -0.0579 C   0  0  0  0  0  0  0  0  0  0  0  0
    6.4530    1.1904    1.1636 O   0  0  0  0  0  0  0  0  0  0  0  0
    4.2677   -1.8208    3.6085 H   0  0  0  0  0  0  0  0  0  0  0  0
    5.4669   -3.0928    3.3428 H   0  0  0  0  0  0  0  0  0  0  0  0
    3.8379   -3.3194    2.6951 H   0  0  0  0  0  0  0  0  0  0  0  0
    2.3651   -1.6137    2.1247 H   0  0  0  0  0  0  0  0  0  0  0  0
    0.2264   -0.7002    1.7380 H   0  0  0  0  0  0  0  0  0  0  0  0
   -1.9916   -1.2861   -0.0984 H   0  0  0  0  0  0  0  0  0  0  0  0
   -1.9197   -1.1001    1.6726 H   0  0  0  0  0  0  0  0  0  0  0  0
   -4.0934    0.0871    1.6730 H   0  0  0  0  0  0  0  0  0  0  0  0
   -4.2258   -1.4946    0.8737 H   0  0  0  0  0  0  0  0  0  0  0  0
   -6.4068   -0.7736    0.9838 H   0  0  0  0  0  0  0  0  0  0  0  0
   -8.6754   -1.1154    0.1602 H   0  0  0  0  0  0  0  0  0  0  0  0
   -7.5244    0.4044   -3.6899 H   0  0  0  0  0  0  0  0  0  0  0  0
   -5.2414    0.7201   -2.8915 H   0  0  0  0  0  0  0  0  0  0  0  0
   -3.9610    2.0263   -1.4508 H   0  0  0  0  0  0  0  0  0  0  0  0
   -2.8916    0.6781   -1.8999 H   0  0  0  0  0  0  0  0  0  0  0  0
   -2.8732    2.2298    0.7551 H   0  0  0  0  0  0  0  0  0  0  0  0
   -1.6973    2.4327   -0.5495 H   0  0  0  0  0  0  0  0  0  0  0  0
    1.8753    1.1670   -1.1012 H   0  0  0  0  0  0  0  0  0  0  0  0
    4.4338    2.5060   -3.3141 H   0  0  0  0  0  0  0  0  0  0  0  0
    3.3889    2.8255   -1.9244 H   0  0  0  0  0  0  0  0  0  0  0  0
    2.9559    1.5537   -3.1337 H   0  0  0  0  0  0  0  0  0  0  0  0
    8.8860    0.9081    0.4653 H   0  0  0  0  0  0  0  0  0  0  0  0
    8.3732    0.3354   -1.1336 H   0  0  0  0  0  0  0  0  0  0  0  0
    8.5979   -0.8274    0.2191 H   0  0  0  0  0  0  0  0  0  0  0  0
  1  2  1  0
  2  3  1  0
  3  4  2  0
  4  5  1  0
  5  6  1  0
  6  7  2  3
  7  8  1  0
  8  9  1  0
  9 10  1  0
 10 11  1  0
 11 12  1  0
 12 13  2  0
 13 14  1  0
 14 15  2  0
 15 16  1  0
 15 17  1  0
 17 18  2  0
 11 19  1  0
 19 20  1  0
  5 21  2  0
 21 22  1  0
 22 23  1  0
 23 24  1  0
 22 25  2  0
 25 26  1  0
 26 27  1  0
 27 28  1  0
 27 29  2  0
 25  3  1  0
 20  8  1  0
 18 12  1  0
  1 30  1  0
  1 31  1  0
  1 32  1  0
  4 33  1  0
  6 34  1  0
  9 35  1  0
  9 36  1  0
 10 37  1  0
 10 38  1  0
 13 39  1  0
 14 40  1  0
 17 41  1  0
 18 42  1  0
 19 43  1  0
 19 44  1  0
 20 45  1  0
 20 46  1  0
 21 47  1  0
 24 48  1  0
 24 49  1  0
 24 50  1  0
 28 51  1  0
 28 52  1  0
 28 53  1  0
M  END
$$$$
