
     RDKit          3D

 36 38  0  0  0  0  0  0  0  0999 V2000
   -1.7829    0.6505   -3.2449 C   0  0  0  0  0  0  0  0  0  0  0  0
   -2.3462    0.0887   -1.9887 C   0  0  0  0  0  0  0  0  0  0  0  0
   -3.6681   -0.1127   -1.6431 C   0  0  0  0  0  0  0  0  0  0  0  0
   -3.7104   -0.6749   -0.3408 C   0  0  0  0  0  0  0  0  0  0  0  0
   -4.7568   -1.0806    0.5109 C   0  0  0  0  0  0  0  0  0  0  0  0
   -4.4543   -1.6093    1.7700 C   0  0  0  0  0  0  0  0  0  0  0  0
   -3.1319   -1.7364    2.1841 C   0  0  0  0  0  0  0  0  0  0  0  0
   -2.0771   -1.3412    1.3558 C   0  0  0  0  0  0  0  0  0  0  0  0
   -2.3907   -0.8119    0.0922 C   0  0  0  0  0  0  0  0  0  0  0  0
   -1.5793   -0.3418   -0.9256 N   0  0  0  0  0  0  0  0  0  0  0  0
   -0.1251   -0.3033   -0.8546 C   0  0  0  0  0  0  0  0  0  0  0  0
    0.3688    0.9530   -0.1372 C   0  0  0  0  0  0  0  0  0  0  0  0
    1.8180    1.0610   -0.1099 N   0  0  0  0  0  0  0  0  0  0  0  0
    2.5823    0.2544    0.7169 C   0  0  0  0  0  0  0  0  0  0  0  0
    2.0587   -0.6268    1.3948 O   0  0  0  0  0  0  0  0  0  0  0  0
    4.0074    0.5306    0.7087 C   0  0  0  0  0  0  0  0  0  0  0  0
    4.8010    1.4341    0.0201 C   0  0  0  0  0  0  0  0  0  0  0  0
    6.1369    1.2176    0.4441 C   0  0  0  0  0  0  0  0  0  0  0  0
    6.0858    0.1975    1.3635 C   0  0  0  0  0  0  0  0  0  0  0  0
    7.5833   -0.5320    2.2807 Br  0  0  0  0  0  0  0  0  0  0  0  0
    4.8066   -0.2237    1.5290 O   0  0  0  0  0  0  0  0  0  0  0  0
   -2.5803    1.0139   -3.9014 H   0  0  0  0  0  0  0  0  0  0  0  0
   -1.1171    1.4928   -3.0324 H   0  0  0  0  0  0  0  0  0  0  0  0
   -1.2216   -0.1140   -3.7912 H   0  0  0  0  0  0  0  0  0  0  0  0
   -4.5226    0.1207   -2.2650 H   0  0  0  0  0  0  0  0  0  0  0  0
   -5.7907   -0.9846    0.1936 H   0  0  0  0  0  0  0  0  0  0  0  0
   -5.2599   -1.9237    2.4285 H   0  0  0  0  0  0  0  0  0  0  0  0
   -2.9120   -2.1502    3.1656 H   0  0  0  0  0  0  0  0  0  0  0  0
   -1.0491   -1.4470    1.6915 H   0  0  0  0  0  0  0  0  0  0  0  0
    0.2726   -0.3488   -1.8742 H   0  0  0  0  0  0  0  0  0  0  0  0
    0.2092   -1.2196   -0.3566 H   0  0  0  0  0  0  0  0  0  0  0  0
   -0.0062    1.8527   -0.6379 H   0  0  0  0  0  0  0  0  0  0  0  0
    0.0051    0.9787    0.8966 H   0  0  0  0  0  0  0  0  0  0  0  0
    2.2513    1.8314   -0.5971 H   0  0  0  0  0  0  0  0  0  0  0  0
    4.4701    2.1642   -0.7042 H   0  0  0  0  0  0  0  0  0  0  0  0
    7.0252    1.7406    0.1182 H   0  0  0  0  0  0  0  0  0  0  0  0
  1  2  1  0
  2  3  2  0
  3  4  1  0
  4  5  2  0
  5  6  1  0
  6  7  2  0
  7  8  1  0
  8  9  2  0
  9 10  1  0
 10 11  1  0
 11 12  1  0
 12 13  1  0
 13 14  1  0
 14 15  2  0
 14 16  1  0
 16 17  2  0
 17 18  1  0
 18 19  2  0
 19 20  1  0
 19 21  1  0
 10  2  1  0
 21 16  1  0
  9  4  1  0
  1 22  1  0
  1 23  1  0
  1 24  1  0
  3 25  1  0
  5 26  1  0
  6 27  1  0
  7 28  1  0
  8 29  1  0
 11 30  1  0
 11 31  1  0
 12 32  1  0
 12 33  1  0
 13 34  1  0
 17 35  1  0
 18 36  1  0
M  END
$$$$
