
     RDKit          3D

 73 75  0  0  0  0  0  0  0  0999 V2000
    8.3156   -0.7275   -1.6541 C   0  0  0  0  0  0  0  0  0  0  0  0
    6.9943   -0.0362   -1.3525 C   0  0  0  0  0  0  0  0  0  0  0  0
    5.9446   -0.3511   -2.4178 C   0  0  0  0  0  0  0  0  0  0  0  0
    4.6224    0.3650   -2.1320 C   0  0  0  0  0  0  0  0  0  0  0  0
    3.5973    0.0945   -3.2372 C   0  0  0  0  0  0  0  0  0  0  0  0
    2.2952    0.8835   -3.0684 C   0  0  0  0  0  0  0  0  0  0  0  0
    1.5131    0.6132   -1.7790 C   0  0  0  0  0  0  0  0  0  0  0  0
    1.0820   -0.8474   -1.6247 C   0  0  0  0  0  0  0  0  0  0  0  0
    0.2081   -1.0377   -0.3793 C   0  0  0  0  0  0  0  0  0  0  0  0
   -0.2067   -2.4979   -0.2133 C   0  0  0  0  0  0  0  0  0  0  0  0
   -1.3530   -2.7795    0.7658 C   0  0  0  0  0  0  0  0  0  0  0  0
   -1.0810   -2.5659    2.2673 N   0  0  0  0  0  4  0  0  0  0  0  0
    0.2880   -3.1537    2.6420 C   0  0  0  0  0  0  0  0  0  0  0  0
   -2.1305   -3.3742    3.0487 C   0  0  0  0  0  0  0  0  0  0  0  0
   -1.1026   -1.0921    2.7405 C   0  0  0  0  0  0  0  0  0  0  0  0
   -2.4720   -0.3969    2.8523 C   0  0  0  0  0  0  0  0  0  0  0  0
   -3.1980   -0.0849    1.5713 C   0  0  0  0  0  0  0  0  0  0  0  0
   -3.3160    1.1068    0.9416 C   0  0  0  0  0  0  0  0  0  0  0  0
   -2.6893    2.3506    1.4505 C   0  0  0  0  0  0  0  0  0  0  0  0
   -1.3036    2.4702    1.6356 C   0  0  0  0  0  0  0  0  0  0  0  0
   -0.7565    3.6628    2.1138 C   0  0  0  0  0  0  0  0  0  0  0  0
   -1.5871    4.7469    2.3969 C   0  0  0  0  0  0  0  0  0  0  0  0
   -2.9610    4.6558    2.1702 C   0  0  0  0  0  0  0  0  0  0  0  0
   -3.5152    3.4714    1.6747 C   0  0  0  0  0  0  0  0  0  0  0  0
   -5.2707    3.4378    1.2986 S   0  0  0  0  0  0  0  0  0  0  0  0
   -5.2981    2.2466   -0.0441 C   0  0  0  0  0  0  0  0  0  0  0  0
   -6.2981    2.3555   -1.0191 C   0  0  0  0  0  0  0  0  0  0  0  0
   -6.3383    1.4568   -2.0868 C   0  0  0  0  0  0  0  0  0  0  0  0
   -5.3787    0.4491   -2.1803 C   0  0  0  0  0  0  0  0  0  0  0  0
   -5.4163   -0.6512   -3.5011 Cl  0  0  0  0  0  0  0  0  0  0  0  0
   -4.3821    0.3210   -1.2118 C   0  0  0  0  0  0  0  0  0  0  0  0
   -4.3454    1.2079   -0.1271 C   0  0  0  0  0  0  0  0  0  0  0  0
    8.2006   -1.8159   -1.6440 H   0  0  0  0  0  0  0  0  0  0  0  0
    9.0656   -0.4577   -0.9037 H   0  0  0  0  0  0  0  0  0  0  0  0
    8.6958   -0.4322   -2.6355 H   0  0  0  0  0  0  0  0  0  0  0  0
    6.6394   -0.3563   -0.3679 H   0  0  0  0  0  0  0  0  0  0  0  0
    7.1617    1.0471   -1.3014 H   0  0  0  0  0  0  0  0  0  0  0  0
    6.3239   -0.0478   -3.4018 H   0  0  0  0  0  0  0  0  0  0  0  0
    5.7764   -1.4343   -2.4545 H   0  0  0  0  0  0  0  0  0  0  0  0
    4.2329    0.0259   -1.1644 H   0  0  0  0  0  0  0  0  0  0  0  0
    4.7976    1.4448   -2.0539 H   0  0  0  0  0  0  0  0  0  0  0  0
    4.0370    0.3719   -4.2036 H   0  0  0  0  0  0  0  0  0  0  0  0
    3.3842   -0.9797   -3.2953 H   0  0  0  0  0  0  0  0  0  0  0  0
    2.5199    1.9557   -3.1179 H   0  0  0  0  0  0  0  0  0  0  0  0
    1.6479    0.6684   -3.9262 H   0  0  0  0  0  0  0  0  0  0  0  0
    0.6223    1.2554   -1.7819 H   0  0  0  0  0  0  0  0  0  0  0  0
    2.1050    0.9173   -0.9081 H   0  0  0  0  0  0  0  0  0  0  0  0
    1.9651   -1.4914   -1.5421 H   0  0  0  0  0  0  0  0  0  0  0  0
    0.5274   -1.1635   -2.5159 H   0  0  0  0  0  0  0  0  0  0  0  0
    0.7881   -0.7114    0.4875 H   0  0  0  0  0  0  0  0  0  0  0  0
   -0.6808   -0.4030   -0.4567 H   0  0  0  0  0  0  0  0  0  0  0  0
    0.6711   -3.1106    0.0223 H   0  0  0  0  0  0  0  0  0  0  0  0
   -0.5501   -2.8598   -1.1927 H   0  0  0  0  0  0  0  0  0  0  0  0
   -1.6100   -3.8411    0.6586 H   0  0  0  0  0  0  0  0  0  0  0  0
   -2.2439   -2.2157    0.4954 H   0  0  0  0  0  0  0  0  0  0  0  0
    0.3547   -4.1674    2.2347 H   0  0  0  0  0  0  0  0  0  0  0  0
    1.0701   -2.5118    2.2287 H   0  0  0  0  0  0  0  0  0  0  0  0
    0.3678   -3.1781    3.7332 H   0  0  0  0  0  0  0  0  0  0  0  0
   -3.1260   -3.0950    2.6926 H   0  0  0  0  0  0  0  0  0  0  0  0
   -1.9561   -4.4386    2.8628 H   0  0  0  0  0  0  0  0  0  0  0  0
   -2.0157   -3.1536    4.1141 H   0  0  0  0  0  0  0  0  0  0  0  0
   -0.6606   -1.1005    3.7458 H   0  0  0  0  0  0  0  0  0  0  0  0
   -0.4272   -0.5259    2.1037 H   0  0  0  0  0  0  0  0  0  0  0  0
   -3.1455   -0.9794    3.4916 H   0  0  0  0  0  0  0  0  0  0  0  0
   -2.3181    0.5309    3.4170 H   0  0  0  0  0  0  0  0  0  0  0  0
   -3.8184   -0.9087    1.2157 H   0  0  0  0  0  0  0  0  0  0  0  0
   -0.6362    1.6576    1.3746 H   0  0  0  0  0  0  0  0  0  0  0  0
    0.3200    3.7600    2.2482 H   0  0  0  0  0  0  0  0  0  0  0  0
   -1.1622    5.6798    2.7644 H   0  0  0  0  0  0  0  0  0  0  0  0
   -3.5920    5.5236    2.3597 H   0  0  0  0  0  0  0  0  0  0  0  0
   -7.0458    3.1455   -0.9597 H   0  0  0  0  0  0  0  0  0  0  0  0
   -7.1129    1.5558   -2.8436 H   0  0  0  0  0  0  0  0  0  0  0  0
   -3.6333   -0.4592   -1.3140 H   0  0  0  0  0  0  0  0  0  0  0  0
  1  2  1  0
  2  3  1  0
  3  4  1  0
  4  5  1  0
  5  6  1  0
  6  7  1  0
  7  8  1  0
  8  9  1  0
  9 10  1  0
 10 11  1  0
 11 12  1  0
 12 13  1  0
 12 14  1  0
 12 15  1  0
 15 16  1  0
 16 17  1  0
 17 18  2  3
 18 19  1  0
 19 20  2  0
 20 21  1  0
 21 22  2  0
 22 23  1  0
 23 24  2  0
 24 25  1  0
 25 26  1  0
 26 27  2  0
 27 28  1  0
 28 29  2  0
 29 30  1  0
 29 31  1  0
 31 32  2  0
 32 18  1  0
 24 19  1  0
 32 26  1  0
  1 33  1  0
  1 34  1  0
  1 35  1  0
  2 36  1  0
  2 37  1  0
  3 38  1  0
  3 39  1  0
  4 40  1  0
  4 41  1  0
  5 42  1  0
  5 43  1  0
  6 44  1  0
  6 45  1  0
  7 46  1  0
  7 47  1  0
  8 48  1  0
  8 49  1  0
  9 50  1  0
  9 51  1  0
 10 52  1  0
 10 53  1  0
 11 54  1  0
 11 55  1  0
 13 56  1  0
 13 57  1  0
 13 58  1  0
 14 59  1  0
 14 60  1  0
 14 61  1  0
 15 62  1  0
 15 63  1  0
 16 64  1  0
 16 65  1  0
 17 66  1  0
 20 67  1  0
 21 68  1  0
 22 69  1  0
 23 70  1  0
 27 71  1  0
 28 72  1  0
 31 73  1  0
M  CHG  1  12   1
M  END
$$$$
