
     RDKit          3D

 92 91  0  0  0  0  0  0  0  0999 V2000
   -9.4944   -4.2594    1.3685 C   0  0  0  0  0  0  0  0  0  0  0  0
   -8.5331   -3.1151    1.0780 C   0  0  0  0  0  0  0  0  0  0  0  0
   -7.7831   -3.3405   -0.2339 C   0  0  0  0  0  0  0  0  0  0  0  0
   -6.6438   -2.3537   -0.5037 C   0  0  0  0  0  0  0  0  0  0  0  0
   -6.9698   -0.8926   -0.9003 C   0  0  0  0  0  0  0  0  0  0  0  0
   -7.9102   -0.7709   -2.1200 C   0  0  0  0  0  0  0  0  0  0  0  0
   -9.4035   -0.6977   -1.8335 C   0  0  0  0  0  0  0  0  0  0  0  0
   -7.3561   -0.0172    0.3033 C   0  0  0  0  0  0  0  0  0  0  0  0
   -7.3827    1.3991   -0.0691 N   0  0  0  0  0  0  0  0  0  0  0  0
   -6.3012    2.0950   -0.0047 C   0  0  0  0  0  0  0  0  0  0  0  0
   -6.3425    3.3927   -0.3930 N   0  0  0  0  0  0  0  0  0  0  0  0
   -5.1086    1.5772    0.3829 N   0  0  0  0  0  0  0  0  0  0  0  0
   -4.7552    1.7053    1.6177 C   0  0  0  0  0  0  0  0  0  0  0  0
   -5.4517    2.2855    2.6325 N   0  0  0  0  0  0  0  0  0  0  0  0
   -3.5719    1.2418    2.1129 N   0  0  0  0  0  0  0  0  0  0  0  0
   -2.5020    0.7700    1.2456 C   0  0  0  0  0  0  0  0  0  0  0  0
   -1.7718    1.9455    0.5963 C   0  0  0  0  0  0  0  0  0  0  0  0
   -0.5876    1.4701   -0.2488 C   0  0  0  0  0  0  0  0  0  0  0  0
    0.1223    2.6472   -0.9220 C   0  0  0  0  0  0  0  0  0  0  0  0
    1.2215    2.2283   -1.9056 C   0  0  0  0  0  0  0  0  0  0  0  0
    2.5427    1.8060   -1.2588 C   0  0  0  0  0  0  0  0  0  0  0  0
    2.3910    0.5010   -0.6185 N   0  0  0  0  0  0  0  0  0  0  0  0
    3.4626   -0.0960   -0.2218 C   0  0  0  0  0  0  0  0  0  0  0  0
    3.3459   -1.2763    0.4351 N   0  0  0  0  0  0  0  0  0  0  0  0
    4.7004    0.4331   -0.3941 N   0  0  0  0  0  0  0  0  0  0  0  0
    5.3954    0.0515   -1.4124 C   0  0  0  0  0  0  0  0  0  0  0  0
    5.0502   -0.8475   -2.3731 N   0  0  0  0  0  0  0  0  0  0  0  0
    6.6385    0.5347   -1.6976 N   0  0  0  0  0  0  0  0  0  0  0  0
    7.3784    1.3811   -0.7720 C   0  0  0  0  0  0  0  0  0  0  0  0
    7.9892    0.5661    0.3898 C   0  0  0  0  0  0  0  0  0  0  0  0
    8.3782    1.4996    1.5579 C   0  0  0  0  0  0  0  0  0  0  0  0
    9.4834    2.5004    1.2501 C   0  0  0  0  0  0  0  0  0  0  0  0
    9.1596   -0.3118   -0.1116 C   0  0  0  0  0  0  0  0  0  0  0  0
    9.8188   -1.2056    0.9469 C   0  0  0  0  0  0  0  0  0  0  0  0
    8.8866   -2.2040    1.6387 C   0  0  0  0  0  0  0  0  0  0  0  0
    8.2386   -3.1876    0.6768 C   0  0  0  0  0  0  0  0  0  0  0  0
  -10.2533   -4.3380    0.5843 H   0  0  0  0  0  0  0  0  0  0  0  0
  -10.0045   -4.0893    2.3209 H   0  0  0  0  0  0  0  0  0  0  0  0
   -8.9624   -5.2145    1.4316 H   0  0  0  0  0  0  0  0  0  0  0  0
   -7.8216   -3.0261    1.9069 H   0  0  0  0  0  0  0  0  0  0  0  0
   -9.1137   -2.1909    1.0348 H   0  0  0  0  0  0  0  0  0  0  0  0
   -8.4816   -3.3639   -1.0764 H   0  0  0  0  0  0  0  0  0  0  0  0
   -7.3353   -4.3421   -0.1963 H   0  0  0  0  0  0  0  0  0  0  0  0
   -5.9652   -2.3479    0.3588 H   0  0  0  0  0  0  0  0  0  0  0  0
   -6.0558   -2.7804   -1.3293 H   0  0  0  0  0  0  0  0  0  0  0  0
   -6.0019   -0.5034   -1.2573 H   0  0  0  0  0  0  0  0  0  0  0  0
   -7.7169   -1.5993   -2.8134 H   0  0  0  0  0  0  0  0  0  0  0  0
   -7.6405    0.1416   -2.6692 H   0  0  0  0  0  0  0  0  0  0  0  0
   -9.6671    0.2203   -1.3009 H   0  0  0  0  0  0  0  0  0  0  0  0
   -9.7572   -1.5481   -1.2485 H   0  0  0  0  0  0  0  0  0  0  0  0
   -9.9582   -0.6926   -2.7781 H   0  0  0  0  0  0  0  0  0  0  0  0
   -6.6877   -0.2055    1.1513 H   0  0  0  0  0  0  0  0  0  0  0  0
   -8.3556   -0.2671    0.6640 H   0  0  0  0  0  0  0  0  0  0  0  0
   -7.1163    3.5497   -1.0247 H   0  0  0  0  0  0  0  0  0  0  0  0
   -5.4493    3.6926   -0.7586 H   0  0  0  0  0  0  0  0  0  0  0  0
   -5.4367    1.7179    3.4717 H   0  0  0  0  0  0  0  0  0  0  0  0
   -6.4136    2.4903    2.3791 H   0  0  0  0  0  0  0  0  0  0  0  0
   -3.2372    1.7938    2.8958 H   0  0  0  0  0  0  0  0  0  0  0  0
   -2.8950    0.0839    0.4859 H   0  0  0  0  0  0  0  0  0  0  0  0
   -1.8000    0.1949    1.8597 H   0  0  0  0  0  0  0  0  0  0  0  0
   -2.4666    2.5135   -0.0326 H   0  0  0  0  0  0  0  0  0  0  0  0
   -1.4174    2.6361    1.3719 H   0  0  0  0  0  0  0  0  0  0  0  0
    0.1089    0.9277    0.3966 H   0  0  0  0  0  0  0  0  0  0  0  0
   -0.9436    0.7687   -1.0135 H   0  0  0  0  0  0  0  0  0  0  0  0
    0.5359    3.3226   -0.1625 H   0  0  0  0  0  0  0  0  0  0  0  0
   -0.6245    3.2239   -1.4845 H   0  0  0  0  0  0  0  0  0  0  0  0
    0.8513    1.4364   -2.5671 H   0  0  0  0  0  0  0  0  0  0  0  0
    1.4357    3.0957   -2.5439 H   0  0  0  0  0  0  0  0  0  0  0  0
    3.2924    1.7632   -2.0565 H   0  0  0  0  0  0  0  0  0  0  0  0
    2.8581    2.5587   -0.5271 H   0  0  0  0  0  0  0  0  0  0  0  0
    4.1395   -1.4421    1.0431 H   0  0  0  0  0  0  0  0  0  0  0  0
    2.4572   -1.3343    0.9126 H   0  0  0  0  0  0  0  0  0  0  0  0
    5.2464   -0.4982   -3.3043 H   0  0  0  0  0  0  0  0  0  0  0  0
    4.0739   -1.1251   -2.3180 H   0  0  0  0  0  0  0  0  0  0  0  0
    7.2157   -0.1234   -2.2077 H   0  0  0  0  0  0  0  0  0  0  0  0
    6.7156    2.1661   -0.3881 H   0  0  0  0  0  0  0  0  0  0  0  0
    8.1682    1.8919   -1.3335 H   0  0  0  0  0  0  0  0  0  0  0  0
    7.2092   -0.1012    0.7774 H   0  0  0  0  0  0  0  0  0  0  0  0
    7.4860    2.0535    1.8770 H   0  0  0  0  0  0  0  0  0  0  0  0
    8.6775    0.9005    2.4258 H   0  0  0  0  0  0  0  0  0  0  0  0
    9.2065    3.1704    0.4317 H   0  0  0  0  0  0  0  0  0  0  0  0
    9.6807    3.1176    2.1331 H   0  0  0  0  0  0  0  0  0  0  0  0
   10.4191    1.9982    0.9870 H   0  0  0  0  0  0  0  0  0  0  0  0
    8.8120   -0.9491   -0.9337 H   0  0  0  0  0  0  0  0  0  0  0  0
    9.9360    0.3265   -0.5514 H   0  0  0  0  0  0  0  0  0  0  0  0
   10.2977   -0.5824    1.7108 H   0  0  0  0  0  0  0  0  0  0  0  0
   10.6294   -1.7639    0.4634 H   0  0  0  0  0  0  0  0  0  0  0  0
    9.4729   -2.7708    2.3726 H   0  0  0  0  0  0  0  0  0  0  0  0
    8.1094   -1.6781    2.2040 H   0  0  0  0  0  0  0  0  0  0  0  0
    7.6743   -3.9426    1.2347 H   0  0  0  0  0  0  0  0  0  0  0  0
    8.9937   -3.7054    0.0778 H   0  0  0  0  0  0  0  0  0  0  0  0
    7.5417   -2.6857   -0.0005 H   0  0  0  0  0  0  0  0  0  0  0  0
  1  2  1  0
  2  3  1  0
  3  4  1  0
  4  5  1  0
  5  6  1  0
  6  7  1  0
  5  8  1  0
  8  9  1  0
  9 10  2  3
 10 11  1  0
 10 12  1  0
 12 13  2  3
 13 14  1  0
 13 15  1  0
 15 16  1  0
 16 17  1  0
 17 18  1  0
 18 19  1  0
 19 20  1  0
 20 21  1  0
 21 22  1  0
 22 23  2  3
 23 24  1  0
 23 25  1  0
 25 26  2  3
 26 27  1  0
 26 28  1  0
 28 29  1  0
 29 30  1  0
 30 31  1  0
 31 32  1  0
 30 33  1  0
 33 34  1  0
 34 35  1  0
 35 36  1  0
  1 37  1  0
  1 38  1  0
  1 39  1  0
  2 40  1  0
  2 41  1  0
  3 42  1  0
  3 43  1  0
  4 44  1  0
  4 45  1  0
  5 46  1  0
  6 47  1  0
  6 48  1  0
  7 49  1  0
  7 50  1  0
  7 51  1  0
  8 52  1  0
  8 53  1  0
 11 54  1  0
 11 55  1  0
 14 56  1  0
 14 57  1  0
 15 58  1  0
 16 59  1  0
 16 60  1  0
 17 61  1  0
 17 62  1  0
 18 63  1  0
 18 64  1  0
 19 65  1  0
 19 66  1  0
 20 67  1  0
 20 68  1  0
 21 69  1  0
 21 70  1  0
 24 71  1  0
 24 72  1  0
 27 73  1  0
 27 74  1  0
 28 75  1  0
 29 76  1  0
 29 77  1  0
 30 78  1  0
 31 79  1  0
 31 80  1  0
 32 81  1  0
 32 82  1  0
 32 83  1  0
 33 84  1  0
 33 85  1  0
 34 86  1  0
 34 87  1  0
 35 88  1  0
 35 89  1  0
 36 90  1  0
 36 91  1  0
 36 92  1  0
M  END
$$$$
