
     RDKit          3D

 42 44  0  0  0  0  0  0  0  0999 V2000
   -3.6609   -2.2204   -0.8553 O   0  0  0  0  0  0  0  0  0  0  0  0
   -3.0721   -1.1817   -0.5349 C   0  0  0  0  0  0  0  0  0  0  0  0
   -3.8978   -0.0019    0.0269 C   0  0  0  0  0  0  0  0  0  0  0  0
   -4.0144   -0.0788    1.5407 C   0  0  0  0  0  0  0  0  0  0  0  0
   -4.4605    1.3189    1.8859 C   0  0  0  0  0  0  0  0  0  0  0  0
   -3.7080    2.1578    0.8764 C   0  0  0  0  0  0  0  0  0  0  0  0
   -3.4711    1.3304   -0.2728 O   0  0  0  0  0  0  0  0  0  0  0  0
   -1.6911   -1.0882   -0.6110 N   0  0  0  0  0  0  0  0  0  0  0  0
   -0.9073    0.1014   -0.2727 C   0  0  0  0  0  0  0  0  0  0  0  0
    0.5886   -0.2015   -0.1039 C   0  0  0  0  0  0  0  0  0  0  0  0
    1.1803   -0.8209   -1.3341 N   0  0  0  0  0  0  0  0  0  0  0  0
    2.7080   -1.5535   -1.1096 S   0  0  0  0  0  6  0  0  0  0  0  0
    2.5653   -2.5114   -0.0330 O   0  0  0  0  0  0  0  0  0  0  0  0
    3.2115   -1.9531   -2.4060 O   0  0  0  0  0  0  0  0  0  0  0  0
    3.7115   -0.2046   -0.5435 C   0  0  0  0  0  0  0  0  0  0  0  0
    4.2081   -0.1982    0.7627 C   0  0  0  0  0  0  0  0  0  0  0  0
    4.9942    0.8723    1.1891 C   0  0  0  0  0  0  0  0  0  0  0  0
    5.2826    1.9212    0.3133 C   0  0  0  0  0  0  0  0  0  0  0  0
    4.7908    1.9041   -0.9935 C   0  0  0  0  0  0  0  0  0  0  0  0
    4.0044    0.8380   -1.4281 C   0  0  0  0  0  0  0  0  0  0  0  0
    0.2109   -1.6852   -2.0929 C   0  0  0  0  0  0  0  0  0  0  0  0
   -0.9375   -2.1928   -1.2140 C   0  0  0  0  0  0  0  0  0  0  0  0
   -4.8972   -0.0937   -0.4201 H   0  0  0  0  0  0  0  0  0  0  0  0
   -3.0451   -0.2923    2.0059 H   0  0  0  0  0  0  0  0  0  0  0  0
   -4.7185   -0.8483    1.8713 H   0  0  0  0  0  0  0  0  0  0  0  0
   -5.5398    1.4152    1.7182 H   0  0  0  0  0  0  0  0  0  0  0  0
   -4.2520    1.6054    2.9200 H   0  0  0  0  0  0  0  0  0  0  0  0
   -4.2646    3.0505    0.5772 H   0  0  0  0  0  0  0  0  0  0  0  0
   -2.7351    2.4722    1.2684 H   0  0  0  0  0  0  0  0  0  0  0  0
   -1.2848    0.5344    0.6561 H   0  0  0  0  0  0  0  0  0  0  0  0
   -1.0514    0.8263   -1.0820 H   0  0  0  0  0  0  0  0  0  0  0  0
    0.7188   -0.8709    0.7542 H   0  0  0  0  0  0  0  0  0  0  0  0
    1.1119    0.7368    0.1070 H   0  0  0  0  0  0  0  0  0  0  0  0
    3.9946   -1.0167    1.4462 H   0  0  0  0  0  0  0  0  0  0  0  0
    5.3893    0.8873    2.2022 H   0  0  0  0  0  0  0  0  0  0  0  0
    5.9004    2.7516    0.6479 H   0  0  0  0  0  0  0  0  0  0  0  0
    5.0264    2.7190   -1.6738 H   0  0  0  0  0  0  0  0  0  0  0  0
    3.6261    0.8193   -2.4480 H   0  0  0  0  0  0  0  0  0  0  0  0
    0.7154   -2.5408   -2.5534 H   0  0  0  0  0  0  0  0  0  0  0  0
   -0.1860   -1.0759   -2.9142 H   0  0  0  0  0  0  0  0  0  0  0  0
   -1.5969   -2.8309   -1.8110 H   0  0  0  0  0  0  0  0  0  0  0  0
   -0.5471   -2.8003   -0.3889 H   0  0  0  0  0  0  0  0  0  0  0  0
  1  2  2  0
  2  3  1  0
  3  4  1  0
  4  5  1  0
  5  6  1  0
  6  7  1  0
  2  8  1  0
  8  9  1  0
  9 10  1  0
 10 11  1  0
 11 12  1  0
 12 13  2  0
 12 14  2  0
 12 15  1  0
 15 16  2  0
 16 17  1  0
 17 18  2  0
 18 19  1  0
 19 20  2  0
 11 21  1  0
 21 22  1  0
  7  3  1  0
 22  8  1  0
 20 15  1  0
  3 23  1  0
  4 24  1  0
  4 25  1  0
  5 26  1  0
  5 27  1  0
  6 28  1  0
  6 29  1  0
  9 30  1  0
  9 31  1  0
 10 32  1  0
 10 33  1  0
 16 34  1  0
 17 35  1  0
 18 36  1  0
 19 37  1  0
 20 38  1  0
 21 39  1  0
 21 40  1  0
 22 41  1  0
 22 42  1  0
M  END
$$$$
