
     RDKit          3D

 62 63  0  0  0  0  0  0  0  0999 V2000
   -6.6886   -2.3202    1.0156 C   0  0  0  0  0  0  0  0  0  0  0  0
   -6.5468   -0.8622    0.5223 C   0  0  0  0  0  0  0  0  0  0  0  0
   -7.4276   -0.7210   -0.7378 C   0  0  0  0  0  0  0  0  0  0  0  0
   -7.1019    0.0514    1.6365 C   0  0  0  0  0  0  0  0  0  0  0  0
   -5.0986   -0.4551    0.1929 C   0  0  0  0  0  0  0  0  0  0  0  0
   -4.0134   -1.3324    0.3325 C   0  0  0  0  0  0  0  0  0  0  0  0
   -2.7052   -0.9317    0.0314 C   0  0  0  0  0  0  0  0  0  0  0  0
   -2.4479    0.3636   -0.4140 C   0  0  0  0  0  0  0  0  0  0  0  0
   -1.2074    0.8547   -0.7459 O   0  0  0  0  0  0  0  0  0  0  0  0
   -0.0548    0.1255   -0.3219 C   0  0  0  0  0  0  0  0  0  0  0  0
    0.4368   -0.8140   -1.4255 C   0  0  0  0  0  0  0  0  0  0  0  0
    1.5168   -1.6447   -0.9817 O   0  0  0  0  0  0  0  0  0  0  0  0
    2.7163   -1.0002   -0.7886 C   0  0  0  0  0  0  0  0  0  0  0  0
    3.2527   -0.1013   -1.7057 C   0  0  0  0  0  0  0  0  0  0  0  0
    4.4769    0.5177   -1.4391 C   0  0  0  0  0  0  0  0  0  0  0  0
    5.2004    0.2466   -0.2624 C   0  0  0  0  0  0  0  0  0  0  0  0
    6.5459    0.9513   -0.0046 C   0  0  0  0  0  0  0  0  0  0  0  0
    7.5420    0.5898   -1.1275 C   0  0  0  0  0  0  0  0  0  0  0  0
    6.3351    2.4811    0.0151 C   0  0  0  0  0  0  0  0  0  0  0  0
    7.2110    0.5674    1.3366 C   0  0  0  0  0  0  0  0  0  0  0  0
    4.6518   -0.6900    0.6350 C   0  0  0  0  0  0  0  0  0  0  0  0
    3.4290   -1.3228    0.3785 C   0  0  0  0  0  0  0  0  0  0  0  0
    2.8518   -2.2843    1.2358 N   0  0  0  0  0  0  0  0  0  0  0  0
    3.3202   -2.7356    2.4441 C   0  0  0  0  0  0  0  0  0  0  0  0
    4.3107   -2.3848    3.0677 O   0  0  0  0  0  0  0  0  0  0  0  0
   -3.5193    1.2619   -0.5753 C   0  0  0  0  0  0  0  0  0  0  0  0
   -3.2045    2.5586   -1.0381 N   0  0  0  0  0  0  0  0  0  0  0  0
   -4.0552    3.6090   -1.2727 C   0  0  0  0  0  0  0  0  0  0  0  0
   -5.2690    3.6643   -1.1447 O   0  0  0  0  0  0  0  0  0  0  0  0
   -4.8214    0.8484   -0.2705 C   0  0  0  0  0  0  0  0  0  0  0  0
   -6.1155   -2.4935    1.9338 H   0  0  0  0  0  0  0  0  0  0  0  0
   -6.3477   -3.0369    0.2595 H   0  0  0  0  0  0  0  0  0  0  0  0
   -7.7348   -2.5616    1.2388 H   0  0  0  0  0  0  0  0  0  0  0  0
   -7.4777    0.3127   -1.0961 H   0  0  0  0  0  0  0  0  0  0  0  0
   -7.0419   -1.3354   -1.5596 H   0  0  0  0  0  0  0  0  0  0  0  0
   -8.4572   -1.0401   -0.5377 H   0  0  0  0  0  0  0  0  0  0  0  0
   -7.1503    1.1010    1.3269 H   0  0  0  0  0  0  0  0  0  0  0  0
   -6.4757    0.0022    2.5349 H   0  0  0  0  0  0  0  0  0  0  0  0
   -8.1177   -0.2452    1.9220 H   0  0  0  0  0  0  0  0  0  0  0  0
   -4.1549   -2.3537    0.6776 H   0  0  0  0  0  0  0  0  0  0  0  0
   -1.9186   -1.6685    0.1504 H   0  0  0  0  0  0  0  0  0  0  0  0
    0.7214    0.8727   -0.1180 H   0  0  0  0  0  0  0  0  0  0  0  0
   -0.1997   -0.3911    0.6347 H   0  0  0  0  0  0  0  0  0  0  0  0
   -0.3738   -1.4926   -1.7128 H   0  0  0  0  0  0  0  0  0  0  0  0
    0.6732   -0.2663   -2.3442 H   0  0  0  0  0  0  0  0  0  0  0  0
    2.7558    0.1192   -2.6445 H   0  0  0  0  0  0  0  0  0  0  0  0
    4.8674    1.2163   -2.1770 H   0  0  0  0  0  0  0  0  0  0  0  0
    8.5206    1.0515   -0.9519 H   0  0  0  0  0  0  0  0  0  0  0  0
    7.1993    0.9301   -2.1106 H   0  0  0  0  0  0  0  0  0  0  0  0
    7.6911   -0.4947   -1.1883 H   0  0  0  0  0  0  0  0  0  0  0  0
    5.9730    2.8625   -0.9455 H   0  0  0  0  0  0  0  0  0  0  0  0
    5.6043    2.7685    0.7799 H   0  0  0  0  0  0  0  0  0  0  0  0
    7.2717    3.0063    0.2347 H   0  0  0  0  0  0  0  0  0  0  0  0
    6.5717    0.8191    2.1909 H   0  0  0  0  0  0  0  0  0  0  0  0
    8.1586    1.1020    1.4748 H   0  0  0  0  0  0  0  0  0  0  0  0
    7.4384   -0.5040    1.3830 H   0  0  0  0  0  0  0  0  0  0  0  0
    5.1897   -0.9374    1.5430 H   0  0  0  0  0  0  0  0  0  0  0  0
    1.9934   -2.6959    0.8850 H   0  0  0  0  0  0  0  0  0  0  0  0
    2.6499   -3.5139    2.8478 H   0  0  0  0  0  0  0  0  0  0  0  0
   -2.2155    2.7102   -1.2067 H   0  0  0  0  0  0  0  0  0  0  0  0
   -3.4881    4.4886   -1.6237 H   0  0  0  0  0  0  0  0  0  0  0  0
   -5.6464    1.5447   -0.3891 H   0  0  0  0  0  0  0  0  0  0  0  0
  1  2  1  0
  2  3  1  0
  2  4  1  0
  2  5  1  0
  5  6  2  0
  6  7  1  0
  7  8  2  0
  8  9  1  0
  9 10  1  0
 10 11  1  0
 11 12  1  0
 12 13  1  0
 13 14  2  0
 14 15  1  0
 15 16  2  0
 16 17  1  0
 17 18  1  0
 17 19  1  0
 17 20  1  0
 16 21  1  0
 21 22  2  0
 22 23  1  0
 23 24  1  0
 24 25  2  0
  8 26  1  0
 26 27  1  0
 27 28  1  0
 28 29  2  0
 26 30  2  0
 30  5  1  0
 22 13  1  0
  1 31  1  0
  1 32  1  0
  1 33  1  0
  3 34  1  0
  3 35  1  0
  3 36  1  0
  4 37  1  0
  4 38  1  0
  4 39  1  0
  6 40  1  0
  7 41  1  0
 10 42  1  0
 10 43  1  0
 11 44  1  0
 11 45  1  0
 14 46  1  0
 15 47  1  0
 18 48  1  0
 18 49  1  0
 18 50  1  0
 19 51  1  0
 19 52  1  0
 19 53  1  0
 20 54  1  0
 20 55  1  0
 20 56  1  0
 21 57  1  0
 23 58  1  0
 24 59  1  0
 27 60  1  0
 28 61  1  0
 30 62  1  0
M  END
$$$$
