
     RDKit          3D

 62 65  0  0  0  0  0  0  0  0999 V2000
    3.1280   -2.4893   -1.6349 O   0  0  0  0  0  0  0  0  0  0  0  0
    3.5306   -1.3723   -1.9488 C   0  0  0  0  0  0  0  0  0  0  0  0
    4.9806   -1.1875   -2.3515 C   0  0  0  0  0  0  0  0  0  0  0  0
    5.8911   -1.2117   -1.1365 C   0  0  0  0  0  0  0  0  0  0  0  0
    5.9996    0.3977   -0.3806 S   0  0  0  0  0  6  0  0  0  0  0  0
    4.6668    0.7625    0.0678 O   0  0  0  0  0  0  0  0  0  0  0  0
    6.7151    1.2860   -1.2773 O   0  0  0  0  0  0  0  0  0  0  0  0
    6.9906    0.1757    1.0596 C   0  0  0  0  0  0  0  0  0  0  0  0
    6.4928    0.5166    2.3204 C   0  0  0  0  0  0  0  0  0  0  0  0
    7.2964    0.3404    3.4494 C   0  0  0  0  0  0  0  0  0  0  0  0
    8.5879   -0.1702    3.3168 C   0  0  0  0  0  0  0  0  0  0  0  0
    9.0775   -0.5076    2.0550 C   0  0  0  0  0  0  0  0  0  0  0  0
    8.2755   -0.3309    0.9303 C   0  0  0  0  0  0  0  0  0  0  0  0
    8.7662   -0.6694   -0.2677 F   0  0  0  0  0  0  0  0  0  0  0  0
    2.8017   -0.2037   -1.9722 N   0  0  0  0  0  0  0  0  0  0  0  0
    1.4199   -0.0487   -1.7417 C   0  0  0  0  0  0  0  0  0  0  0  0
    0.5318   -1.1026   -1.5630 C   0  0  0  0  0  0  0  0  0  0  0  0
   -0.8360   -0.8543   -1.3592 C   0  0  0  0  0  0  0  0  0  0  0  0
   -1.3705    0.4434   -1.3306 C   0  0  0  0  0  0  0  0  0  0  0  0
   -2.7216    0.6796   -1.1396 N   0  0  0  0  0  0  0  0  0  0  0  0
   -3.2254    1.9983   -0.7176 C   0  0  0  0  0  0  0  0  0  0  0  0
   -4.5807    1.8687    0.0182 C   0  0  0  0  0  0  0  0  0  0  0  0
   -5.6346    1.2431   -0.7952 N   0  0  0  0  0  0  0  0  0  0  0  0
   -6.8299    0.8558   -0.0405 C   0  0  0  0  0  0  0  0  0  0  0  0
   -6.6671   -0.2390    0.9945 C   0  0  0  0  0  0  0  0  0  0  0  0
   -6.8149   -1.5908    0.6480 C   0  0  0  0  0  0  0  0  0  0  0  0
   -6.6598   -2.5946    1.6039 C   0  0  0  0  0  0  0  0  0  0  0  0
   -6.3630   -2.2601    2.9246 C   0  0  0  0  0  0  0  0  0  0  0  0
   -6.2280   -0.9233    3.2888 C   0  0  0  0  0  0  0  0  0  0  0  0
   -6.3832    0.0824    2.3311 C   0  0  0  0  0  0  0  0  0  0  0  0
   -5.1030    0.2135   -1.7008 C   0  0  0  0  0  0  0  0  0  0  0  0
   -3.7296   -0.3813   -1.3066 C   0  0  0  0  0  0  0  0  0  0  0  0
   -0.4528    1.4876   -1.5134 C   0  0  0  0  0  0  0  0  0  0  0  0
    0.9159    1.2513   -1.7147 C   0  0  0  0  0  0  0  0  0  0  0  0
    5.2271   -2.0285   -3.0111 H   0  0  0  0  0  0  0  0  0  0  0  0
    5.1077   -0.2778   -2.9465 H   0  0  0  0  0  0  0  0  0  0  0  0
    6.8984   -1.4934   -1.4529 H   0  0  0  0  0  0  0  0  0  0  0  0
    5.5429   -1.9166   -0.3756 H   0  0  0  0  0  0  0  0  0  0  0  0
    5.4902    0.9245    2.4308 H   0  0  0  0  0  0  0  0  0  0  0  0
    6.9209    0.6077    4.4334 H   0  0  0  0  0  0  0  0  0  0  0  0
    9.2128   -0.3003    4.1979 H   0  0  0  0  0  0  0  0  0  0  0  0
   10.0832   -0.9018    1.9426 H   0  0  0  0  0  0  0  0  0  0  0  0
    3.3214    0.6629   -2.0574 H   0  0  0  0  0  0  0  0  0  0  0  0
    0.8612   -2.1367   -1.5787 H   0  0  0  0  0  0  0  0  0  0  0  0
   -1.4750   -1.7209   -1.2041 H   0  0  0  0  0  0  0  0  0  0  0  0
   -2.5254    2.4781   -0.0228 H   0  0  0  0  0  0  0  0  0  0  0  0
   -3.3347    2.6473   -1.5950 H   0  0  0  0  0  0  0  0  0  0  0  0
   -4.3903    1.2935    0.9305 H   0  0  0  0  0  0  0  0  0  0  0  0
   -4.9130    2.8670    0.3260 H   0  0  0  0  0  0  0  0  0  0  0  0
   -7.6212    0.5568   -0.7410 H   0  0  0  0  0  0  0  0  0  0  0  0
   -7.2379    1.7480    0.4509 H   0  0  0  0  0  0  0  0  0  0  0  0
   -7.0617   -1.8708   -0.3732 H   0  0  0  0  0  0  0  0  0  0  0  0
   -6.7781   -3.6367    1.3218 H   0  0  0  0  0  0  0  0  0  0  0  0
   -6.2419   -3.0398    3.6707 H   0  0  0  0  0  0  0  0  0  0  0  0
   -6.0057   -0.6595    4.3207 H   0  0  0  0  0  0  0  0  0  0  0  0
   -6.2762    1.1230    2.6327 H   0  0  0  0  0  0  0  0  0  0  0  0
   -5.8224   -0.5929   -1.8775 H   0  0  0  0  0  0  0  0  0  0  0  0
   -4.9792    0.6949   -2.6787 H   0  0  0  0  0  0  0  0  0  0  0  0
   -3.8142   -0.9544   -0.3752 H   0  0  0  0  0  0  0  0  0  0  0  0
   -3.4405   -1.0719   -2.1098 H   0  0  0  0  0  0  0  0  0  0  0  0
   -0.7884    2.5217   -1.5240 H   0  0  0  0  0  0  0  0  0  0  0  0
    1.5723    2.1078   -1.8502 H   0  0  0  0  0  0  0  0  0  0  0  0
  1  2  2  0
  2  3  1  0
  3  4  1  0
  4  5  1  0
  5  6  2  0
  5  7  2  0
  5  8  1  0
  8  9  2  0
  9 10  1  0
 10 11  2  0
 11 12  1  0
 12 13  2  0
 13 14  1  0
  2 15  1  0
 15 16  1  0
 16 17  2  0
 17 18  1  0
 18 19  2  0
 19 20  1  0
 20 21  1  0
 21 22  1  0
 22 23  1  0
 23 24  1  0
 24 25  1  0
 25 26  2  0
 26 27  1  0
 27 28  2  0
 28 29  1  0
 29 30  2  0
 23 31  1  0
 31 32  1  0
 19 33  1  0
 33 34  2  0
 13  8  1  0
 34 16  1  0
 32 20  1  0
 30 25  1  0
  3 35  1  0
  3 36  1  0
  4 37  1  0
  4 38  1  0
  9 39  1  0
 10 40  1  0
 11 41  1  0
 12 42  1  0
 15 43  1  0
 17 44  1  0
 18 45  1  0
 21 46  1  0
 21 47  1  0
 22 48  1  0
 22 49  1  0
 24 50  1  0
 24 51  1  0
 26 52  1  0
 27 53  1  0
 28 54  1  0
 29 55  1  0
 30 56  1  0
 31 57  1  0
 31 58  1  0
 32 59  1  0
 32 60  1  0
 33 61  1  0
 34 62  1  0
M  END
$$$$
