
     RDKit          3D

 52 56  0  0  0  0  0  0  0  0999 V2000
   -5.8543    3.5061    0.3531 C   0  0  0  0  0  0  0  0  0  0  0  0
   -4.8835    2.3679    0.4591 C   0  0  0  0  0  0  0  0  0  0  0  0
   -4.3306    2.0184    1.6940 C   0  0  0  0  0  0  0  0  0  0  0  0
   -3.4003    0.9784    1.7839 C   0  0  0  0  0  0  0  0  0  0  0  0
   -2.9870    0.2769    0.6428 C   0  0  0  0  0  0  0  0  0  0  0  0
   -2.0685   -0.7946    0.8114 N   0  0  0  0  0  0  0  0  0  0  0  0
   -1.6750   -1.6387   -0.1877 C   0  0  0  0  0  0  0  0  0  0  0  0
   -0.4395   -1.8942   -0.7614 C   0  0  0  0  0  0  0  0  0  0  0  0
    0.8118   -1.2183   -0.4661 C   0  0  0  0  0  0  0  0  0  0  0  0
    1.9971   -1.9525   -0.4228 C   0  0  0  0  0  0  0  0  0  0  0  0
    3.2177   -1.3251   -0.1332 C   0  0  0  0  0  0  0  0  0  0  0  0
    3.3078    0.0544    0.1073 C   0  0  0  0  0  0  0  0  0  0  0  0
    4.5103    0.6728    0.3988 N   0  0  0  0  0  0  0  0  0  0  0  0
    4.7228    2.1088    0.1502 C   0  0  0  0  0  0  0  0  0  0  0  0
    6.1945    2.3763   -0.2097 C   0  0  0  0  0  0  0  0  0  0  0  0
    7.1271    1.9656    0.7996 O   0  0  0  0  0  0  0  0  0  0  0  0
    6.6788    0.8322    1.5567 C   0  0  0  0  0  0  0  0  0  0  0  0
    5.7050   -0.0866    0.7992 C   0  0  0  0  0  0  0  0  0  0  0  0
    2.1045    0.7752    0.0426 C   0  0  0  0  0  0  0  0  0  0  0  0
    0.8775    0.1576   -0.2437 C   0  0  0  0  0  0  0  0  0  0  0  0
   -0.5187   -2.9169   -1.6778 N   0  0  0  0  0  0  0  0  0  0  0  0
   -1.7767   -3.3030   -1.6884 C   0  0  0  0  0  0  0  0  0  0  0  0
   -2.3550   -4.2909   -2.4360 N   0  0  0  0  0  0  0  0  0  0  0  0
   -3.6125   -4.5160   -2.2117 C   0  0  0  0  0  0  0  0  0  0  0  0
   -4.4794   -3.8101   -1.2293 C   0  0  0  0  0  0  0  0  0  0  0  0
   -3.8710   -2.8400   -0.5351 C   0  0  0  0  0  0  0  0  0  0  0  0
   -2.5248   -2.5669   -0.7679 N   0  0  0  0  0  0  0  0  0  0  0  0
   -3.5442    0.6340   -0.5908 C   0  0  0  0  0  0  0  0  0  0  0  0
   -4.4739    1.6755   -0.6842 C   0  0  0  0  0  0  0  0  0  0  0  0
   -6.4481    3.5996    1.2685 H   0  0  0  0  0  0  0  0  0  0  0  0
   -6.5550    3.3462   -0.4731 H   0  0  0  0  0  0  0  0  0  0  0  0
   -5.3151    4.4432    0.1838 H   0  0  0  0  0  0  0  0  0  0  0  0
   -4.6230    2.5488    2.5975 H   0  0  0  0  0  0  0  0  0  0  0  0
   -3.0031    0.7132    2.7609 H   0  0  0  0  0  0  0  0  0  0  0  0
   -1.3254   -0.4800    1.4392 H   0  0  0  0  0  0  0  0  0  0  0  0
    1.9817   -3.0231   -0.6196 H   0  0  0  0  0  0  0  0  0  0  0  0
    4.1066   -1.9493   -0.1285 H   0  0  0  0  0  0  0  0  0  0  0  0
    4.4537    2.6652    1.0555 H   0  0  0  0  0  0  0  0  0  0  0  0
    4.1063    2.4688   -0.6813 H   0  0  0  0  0  0  0  0  0  0  0  0
    6.3497    3.4459   -0.3838 H   0  0  0  0  0  0  0  0  0  0  0  0
    6.4590    1.8543   -1.1371 H   0  0  0  0  0  0  0  0  0  0  0  0
    7.5668    0.2695    1.8618 H   0  0  0  0  0  0  0  0  0  0  0  0
    6.2052    1.2139    2.4690 H   0  0  0  0  0  0  0  0  0  0  0  0
    5.4393   -0.9170    1.4633 H   0  0  0  0  0  0  0  0  0  0  0  0
    6.1925   -0.4897   -0.0962 H   0  0  0  0  0  0  0  0  0  0  0  0
    2.0928    1.8451    0.2314 H   0  0  0  0  0  0  0  0  0  0  0  0
   -0.0144    0.7757   -0.3061 H   0  0  0  0  0  0  0  0  0  0  0  0
   -4.1183   -5.3057   -2.7923 H   0  0  0  0  0  0  0  0  0  0  0  0
   -5.5151   -4.0940   -1.1163 H   0  0  0  0  0  0  0  0  0  0  0  0
   -4.3765   -2.2478    0.2168 H   0  0  0  0  0  0  0  0  0  0  0  0
   -3.2464    0.1288   -1.5056 H   0  0  0  0  0  0  0  0  0  0  0  0
   -4.8733    1.9418   -1.6605 H   0  0  0  0  0  0  0  0  0  0  0  0
  1  2  1  0
  2  3  2  0
  3  4  1  0
  4  5  2  0
  5  6  1  0
  6  7  1  0
  7  8  2  0
  8  9  1  0
  9 10  2  0
 10 11  1  0
 11 12  2  0
 12 13  1  0
 13 14  1  0
 14 15  1  0
 15 16  1  0
 16 17  1  0
 17 18  1  0
 12 19  1  0
 19 20  2  0
  8 21  1  0
 21 22  2  0
 22 23  1  0
 23 24  2  0
 24 25  1  0
 25 26  2  0
 26 27  1  0
  5 28  1  0
 28 29  2  0
 29  2  1  0
 27  7  1  0
 20  9  1  0
 27 22  1  0
 18 13  1  0
  1 30  1  0
  1 31  1  0
  1 32  1  0
  3 33  1  0
  4 34  1  0
  6 35  1  0
 10 36  1  0
 11 37  1  0
 14 38  1  0
 14 39  1  0
 15 40  1  0
 15 41  1  0
 17 42  1  0
 17 43  1  0
 18 44  1  0
 18 45  1  0
 19 46  1  0
 20 47  1  0
 24 48  1  0
 25 49  1  0
 26 50  1  0
 28 51  1  0
 29 52  1  0
M  END
$$$$
