
     RDKit          3D

142147  0  0  0  0  0  0  0  0999 V2000
   -3.9110   -2.7388    0.3041 C   0  0  0  0  0  0  0  0  0  0  0  0
   -3.6892   -1.8142   -0.6395 C   0  0  0  0  0  0  0  0  0  0  0  0
   -4.1166   -0.3478   -0.5944 C   0  0  0  0  0  0  0  0  0  0  0  0
   -4.4456    0.1833   -2.0078 C   0  0  0  0  0  0  0  0  0  0  0  0
   -2.9447    0.4973    0.0371 C   0  0  0  0  0  0  0  0  0  0  0  0
   -1.5782    0.3161   -0.6666 C   0  0  0  0  0  0  0  0  0  0  0  0
   -0.3114    1.1627   -0.2574 C   0  0  0  0  0  0  0  0  0  0  0  0
   -0.7547    2.6212    0.0344 C   0  0  0  0  0  0  0  0  0  0  0  0
    0.6620    1.1289   -1.5099 C   0  0  0  0  0  0  0  0  0  0  0  0
    0.3418    2.1588   -2.6044 C   0  0  0  0  0  0  0  0  0  0  0  0
    2.1299    1.2717   -1.1090 C   0  0  0  0  0  0  0  0  0  0  0  0
    2.6602    0.0982   -0.2563 C   0  0  0  0  0  0  0  0  0  0  0  0
    3.8520    0.5839    0.4061 O   0  0  0  0  0  0  0  0  0  0  0  0
    5.0289    0.5154   -0.4153 C   0  0  0  0  0  0  0  0  0  0  0  0
    5.5085   -0.8317   -0.4760 O   0  0  0  0  0  0  0  0  0  0  0  0
    6.6893   -0.9766   -1.2829 C   0  0  0  0  0  0  0  0  0  0  0  0
    7.0506   -2.4560   -1.2816 C   0  0  0  0  0  0  0  0  0  0  0  0
    7.8628   -0.0985   -0.7855 C   0  0  0  0  0  0  0  0  0  0  0  0
    8.2945   -0.5767    0.4964 O   0  0  0  0  0  0  0  0  0  0  0  0
    9.7076   -0.6894    0.6629 C   0  0  0  0  0  0  0  0  0  0  0  0
   10.3580    0.5484    0.4224 O   0  0  0  0  0  0  0  0  0  0  0  0
   11.7988    0.4485    0.4383 C   0  0  0  0  0  0  0  0  0  0  0  0
   12.3451    1.8567    0.7375 C   0  0  0  0  0  0  0  0  0  0  0  0
   13.7747    1.9610    0.6474 O   0  0  0  0  0  0  0  0  0  0  0  0
   14.2825    2.0236   -0.6094 C   0  0  0  0  0  0  0  0  0  0  0  0
   15.7764    2.1388   -0.5574 C   0  0  0  0  0  0  0  0  0  0  0  0
   13.6337    1.9984   -1.6450 O   0  0  0  0  0  0  0  0  0  0  0  0
   12.3181   -0.6851    1.3700 C   0  0  0  0  0  0  0  0  0  0  0  0
   13.6632   -0.4996    1.8002 O   0  0  0  0  0  0  0  0  0  0  0  0
   11.3942   -0.8734    2.5761 C   0  0  0  0  0  0  0  0  0  0  0  0
   11.5213    0.2775    3.4282 O   0  0  0  0  0  0  0  0  0  0  0  0
    9.9361   -1.0927    2.1380 C   0  0  0  0  0  0  0  0  0  0  0  0
    9.0862   -0.3225    3.0218 O   0  0  0  0  0  0  0  0  0  0  0  0
    7.3539    1.3604   -0.6778 C   0  0  0  0  0  0  0  0  0  0  0  0
    8.3594    2.2552   -0.2021 O   0  0  0  0  0  0  0  0  0  0  0  0
    6.0943    1.4494    0.1949 C   0  0  0  0  0  0  0  0  0  0  0  0
    6.3876    1.0880    1.5548 O   0  0  0  0  0  0  0  0  0  0  0  0
    1.5874   -0.4668    0.7627 C   0  0  0  0  0  0  0  0  0  0  0  0
    0.9574   -1.7514    0.1530 C   0  0  0  0  0  0  0  0  0  0  0  0
    2.2184   -0.9302    2.1041 C   0  0  0  0  0  0  0  0  0  0  0  0
    3.4554   -1.7928    2.0757 C   0  0  0  0  0  0  0  0  0  0  0  0
    1.6740   -0.6293    3.2978 C   0  0  0  0  0  0  0  0  0  0  0  0
    0.4051    0.1330    3.4920 C   0  0  0  0  0  0  0  0  0  0  0  0
   -0.4116    0.2881    2.2122 C   0  0  0  0  0  0  0  0  0  0  0  0
    0.4871    0.6484    1.0189 C   0  0  0  0  0  0  0  0  0  0  0  0
   -5.2569   -0.2030    0.2862 O   0  0  0  0  0  0  0  0  0  0  0  0
   -6.5091   -0.7097   -0.2342 C   0  0  0  0  0  0  0  0  0  0  0  0
   -7.2185    0.3626   -0.8612 O   0  0  0  0  0  0  0  0  0  0  0  0
   -8.4951   -0.0204   -1.4061 C   0  0  0  0  0  0  0  0  0  0  0  0
   -8.3153   -0.8234   -2.6976 C   0  0  0  0  0  0  0  0  0  0  0  0
   -9.4139   -0.6667   -0.3434 C   0  0  0  0  0  0  0  0  0  0  0  0
  -10.5940   -1.2010   -0.9549 O   0  0  0  0  0  0  0  0  0  0  0  0
  -11.7468   -0.3538   -0.8155 C   0  0  0  0  0  0  0  0  0  0  0  0
  -12.4476   -0.8061    0.3495 O   0  0  0  0  0  0  0  0  0  0  0  0
  -13.6980   -0.1594    0.5923 C   0  0  0  0  0  0  0  0  0  0  0  0
  -13.5001    1.2675    1.0996 C   0  0  0  0  0  0  0  0  0  0  0  0
  -14.6442   -0.2861   -0.6209 C   0  0  0  0  0  0  0  0  0  0  0  0
  -15.0509   -1.6482   -0.8195 O   0  0  0  0  0  0  0  0  0  0  0  0
  -13.9772    0.1715   -1.9227 C   0  0  0  0  0  0  0  0  0  0  0  0
  -13.8675    1.6034   -1.9596 O   0  0  0  0  0  0  0  0  0  0  0  0
  -12.5967   -0.4828   -2.0973 C   0  0  0  0  0  0  0  0  0  0  0  0
  -11.8955    0.1026   -3.2162 O   0  0  0  0  0  0  0  0  0  0  0  0
   -8.6879   -1.7693    0.4470 C   0  0  0  0  0  0  0  0  0  0  0  0
   -8.4816   -2.9392   -0.3541 O   0  0  0  0  0  0  0  0  0  0  0  0
   -7.3322   -1.2590    0.9484 C   0  0  0  0  0  0  0  0  0  0  0  0
   -7.5275   -0.2435    1.9501 O   0  0  0  0  0  0  0  0  0  0  0  0
   -4.4530   -2.5113    1.2117 H   0  0  0  0  0  0  0  0  0  0  0  0
   -3.5499   -3.7536    0.1846 H   0  0  0  0  0  0  0  0  0  0  0  0
   -3.1177   -2.1139   -1.5155 H   0  0  0  0  0  0  0  0  0  0  0  0
   -3.5621    0.2861   -2.6388 H   0  0  0  0  0  0  0  0  0  0  0  0
   -4.9310    1.1613   -1.9460 H   0  0  0  0  0  0  0  0  0  0  0  0
   -5.1265   -0.4875   -2.5423 H   0  0  0  0  0  0  0  0  0  0  0  0
   -3.2434    1.5539    0.0189 H   0  0  0  0  0  0  0  0  0  0  0  0
   -2.8657    0.2328    1.0978 H   0  0  0  0  0  0  0  0  0  0  0  0
   -1.3110   -0.7416   -0.6175 H   0  0  0  0  0  0  0  0  0  0  0  0
   -1.7487    0.5170   -1.7260 H   0  0  0  0  0  0  0  0  0  0  0  0
    0.1108    3.2759    0.1735 H   0  0  0  0  0  0  0  0  0  0  0  0
   -1.3551    2.6919    0.9445 H   0  0  0  0  0  0  0  0  0  0  0  0
   -1.3631    3.0360   -0.7788 H   0  0  0  0  0  0  0  0  0  0  0  0
    0.5658    0.1524   -1.9997 H   0  0  0  0  0  0  0  0  0  0  0  0
    0.5900    3.1766   -2.2901 H   0  0  0  0  0  0  0  0  0  0  0  0
    0.9304    1.9473   -3.5055 H   0  0  0  0  0  0  0  0  0  0  0  0
   -0.7092    2.1254   -2.8980 H   0  0  0  0  0  0  0  0  0  0  0  0
    2.2876    2.2212   -0.5797 H   0  0  0  0  0  0  0  0  0  0  0  0
    2.7478    1.3478   -2.0141 H   0  0  0  0  0  0  0  0  0  0  0  0
    2.9459   -0.7217   -0.9308 H   0  0  0  0  0  0  0  0  0  0  0  0
    4.7917    0.8487   -1.4336 H   0  0  0  0  0  0  0  0  0  0  0  0
    6.4289   -0.6852   -2.3119 H   0  0  0  0  0  0  0  0  0  0  0  0
    7.1983   -2.8288   -0.2614 H   0  0  0  0  0  0  0  0  0  0  0  0
    7.9593   -2.6476   -1.8634 H   0  0  0  0  0  0  0  0  0  0  0  0
    6.2351   -3.0468   -1.7150 H   0  0  0  0  0  0  0  0  0  0  0  0
    8.6923   -0.1579   -1.5049 H   0  0  0  0  0  0  0  0  0  0  0  0
   10.0872   -1.4560   -0.0255 H   0  0  0  0  0  0  0  0  0  0  0  0
   12.1115    0.1831   -0.5799 H   0  0  0  0  0  0  0  0  0  0  0  0
   11.8736    2.5975    0.0771 H   0  0  0  0  0  0  0  0  0  0  0  0
   12.0644    2.1667    1.7497 H   0  0  0  0  0  0  0  0  0  0  0  0
   16.1859    2.0263   -1.5649 H   0  0  0  0  0  0  0  0  0  0  0  0
   16.1921    1.3459    0.0763 H   0  0  0  0  0  0  0  0  0  0  0  0
   16.0532    3.1246   -0.1706 H   0  0  0  0  0  0  0  0  0  0  0  0
   12.3127   -1.6195    0.7950 H   0  0  0  0  0  0  0  0  0  0  0  0
   13.6160    0.1559    2.5262 H   0  0  0  0  0  0  0  0  0  0  0  0
   11.7360   -1.7230    3.1758 H   0  0  0  0  0  0  0  0  0  0  0  0
   10.6133    0.4231    3.7834 H   0  0  0  0  0  0  0  0  0  0  0  0
    9.6486   -2.1415    2.2620 H   0  0  0  0  0  0  0  0  0  0  0  0
    8.2457   -0.2098    2.5258 H   0  0  0  0  0  0  0  0  0  0  0  0
    7.1003    1.7073   -1.6891 H   0  0  0  0  0  0  0  0  0  0  0  0
    8.8140    1.7867    0.5270 H   0  0  0  0  0  0  0  0  0  0  0  0
    5.7221    2.4801    0.2303 H   0  0  0  0  0  0  0  0  0  0  0  0
    5.5390    0.7661    1.9340 H   0  0  0  0  0  0  0  0  0  0  0  0
    1.6736   -2.5755    0.1018 H   0  0  0  0  0  0  0  0  0  0  0  0
    0.6199   -1.6073   -0.8732 H   0  0  0  0  0  0  0  0  0  0  0  0
    0.1076   -2.1093    0.7402 H   0  0  0  0  0  0  0  0  0  0  0  0
    3.4384   -2.5343    2.8853 H   0  0  0  0  0  0  0  0  0  0  0  0
    3.5543   -2.3524    1.1429 H   0  0  0  0  0  0  0  0  0  0  0  0
    4.3568   -1.1867    2.2040 H   0  0  0  0  0  0  0  0  0  0  0  0
    2.1651   -0.9614    4.2109 H   0  0  0  0  0  0  0  0  0  0  0  0
    0.6422    1.1187    3.9118 H   0  0  0  0  0  0  0  0  0  0  0  0
   -0.2079   -0.3893    4.2381 H   0  0  0  0  0  0  0  0  0  0  0  0
   -0.9525   -0.6439    2.0218 H   0  0  0  0  0  0  0  0  0  0  0  0
   -1.1649    1.0601    2.3950 H   0  0  0  0  0  0  0  0  0  0  0  0
    1.0655    1.5223    1.3641 H   0  0  0  0  0  0  0  0  0  0  0  0
   -6.3268   -1.5178   -0.9507 H   0  0  0  0  0  0  0  0  0  0  0  0
   -8.9740    0.9171   -1.7127 H   0  0  0  0  0  0  0  0  0  0  0  0
   -7.6419   -0.2969   -3.3782 H   0  0  0  0  0  0  0  0  0  0  0  0
   -9.2688   -0.9787   -3.2099 H   0  0  0  0  0  0  0  0  0  0  0  0
   -7.8691   -1.8050   -2.5207 H   0  0  0  0  0  0  0  0  0  0  0  0
   -9.6737    0.1088    0.3922 H   0  0  0  0  0  0  0  0  0  0  0  0
  -11.4305    0.6913   -0.6909 H   0  0  0  0  0  0  0  0  0  0  0  0
  -14.1458   -0.7261    1.4216 H   0  0  0  0  0  0  0  0  0  0  0  0
  -12.9895    1.9115    0.3759 H   0  0  0  0  0  0  0  0  0  0  0  0
  -12.8703    1.2587    1.9955 H   0  0  0  0  0  0  0  0  0  0  0  0
  -14.4571    1.7303    1.3545 H   0  0  0  0  0  0  0  0  0  0  0  0
  -15.5503    0.2997   -0.4310 H   0  0  0  0  0  0  0  0  0  0  0  0
  -14.9207   -2.1464    0.0092 H   0  0  0  0  0  0  0  0  0  0  0  0
  -14.5945   -0.1042   -2.7872 H   0  0  0  0  0  0  0  0  0  0  0  0
  -14.7682    1.9616   -2.0494 H   0  0  0  0  0  0  0  0  0  0  0  0
  -12.7304   -1.5460   -2.3313 H   0  0  0  0  0  0  0  0  0  0  0  0
  -12.5615    0.3332   -3.8879 H   0  0  0  0  0  0  0  0  0  0  0  0
   -9.3202   -2.0575    1.2994 H   0  0  0  0  0  0  0  0  0  0  0  0
   -9.0028   -3.6575    0.0600 H   0  0  0  0  0  0  0  0  0  0  0  0
   -6.7771   -2.0722    1.4310 H   0  0  0  0  0  0  0  0  0  0  0  0
   -6.7247    0.3132    1.8986 H   0  0  0  0  0  0  0  0  0  0  0  0
  1  2  2  0
  2  3  1  0
  3  4  1  0
  3  5  1  0
  5  6  1  0
  6  7  1  0
  7  8  1  0
  7  9  1  0
  9 10  1  0
  9 11  1  0
 11 12  1  0
 12 13  1  0
 13 14  1  0
 14 15  1  0
 15 16  1  0
 16 17  1  0
 16 18  1  0
 18 19  1  0
 19 20  1  0
 20 21  1  0
 21 22  1  0
 22 23  1  0
 23 24  1  0
 24 25  1  0
 25 26  1  0
 25 27  2  0
 22 28  1  0
 28 29  1  0
 28 30  1  0
 30 31  1  0
 30 32  1  0
 32 33  1  0
 18 34  1  0
 34 35  1  0
 34 36  1  0
 36 37  1  0
 12 38  1  0
 38 39  1  0
 38 40  1  0
 40 41  1  0
 40 42  2  0
 42 43  1  0
 43 44  1  0
 44 45  1  0
  3 46  1  0
 46 47  1  0
 47 48  1  0
 48 49  1  0
 49 50  1  0
 49 51  1  0
 51 52  1  0
 52 53  1  0
 53 54  1  0
 54 55  1  0
 55 56  1  0
 55 57  1  0
 57 58  1  0
 57 59  1  0
 59 60  1  0
 59 61  1  0
 61 62  1  0
 51 63  1  0
 63 64  1  0
 63 65  1  0
 65 66  1  0
 45  7  1  0
 65 47  1  0
 36 14  1  0
 45 38  1  0
 61 53  1  0
 32 20  1  0
  1 67  1  0
  1 68  1  0
  2 69  1  0
  4 70  1  0
  4 71  1  0
  4 72  1  0
  5 73  1  0
  5 74  1  0
  6 75  1  0
  6 76  1  0
  8 77  1  0
  8 78  1  0
  8 79  1  0
  9 80  1  0
 10 81  1  0
 10 82  1  0
 10 83  1  0
 11 84  1  0
 11 85  1  0
 12 86  1  0
 14 87  1  0
 16 88  1  0
 17 89  1  0
 17 90  1  0
 17 91  1  0
 18 92  1  0
 20 93  1  0
 22 94  1  0
 23 95  1  0
 23 96  1  0
 26 97  1  0
 26 98  1  0
 26 99  1  0
 28100  1  0
 29101  1  0
 30102  1  0
 31103  1  0
 32104  1  0
 33105  1  0
 34106  1  0
 35107  1  0
 36108  1  0
 37109  1  0
 39110  1  0
 39111  1  0
 39112  1  0
 41113  1  0
 41114  1  0
 41115  1  0
 42116  1  0
 43117  1  0
 43118  1  0
 44119  1  0
 44120  1  0
 45121  1  0
 47122  1  0
 49123  1  0
 50124  1  0
 50125  1  0
 50126  1  0
 51127  1  0
 53128  1  0
 55129  1  0
 56130  1  0
 56131  1  0
 56132  1  0
 57133  1  0
 58134  1  0
 59135  1  0
 60136  1  0
 61137  1  0
 62138  1  0
 63139  1  0
 64140  1  0
 65141  1  0
 66142  1  0
M  END
$$$$
