
     RDKit          3D

 48 51  0  0  0  0  0  0  0  0999 V2000
    8.7603    1.0497   -0.6937 C   0  0  0  0  0  0  0  0  0  0  0  0
    7.7401    0.9456   -1.6789 O   0  0  0  0  0  0  0  0  0  0  0  0
    6.4638    0.7579   -1.2269 C   0  0  0  0  0  0  0  0  0  0  0  0
    6.0680    0.6669    0.1043 C   0  0  0  0  0  0  0  0  0  0  0  0
    4.7170    0.4725    0.4247 C   0  0  0  0  0  0  0  0  0  0  0  0
    3.7253    0.3691   -0.5682 C   0  0  0  0  0  0  0  0  0  0  0  0
    2.3078    0.1696   -0.2005 C   0  0  0  0  0  0  0  0  0  0  0  0
    1.2497    0.6579   -0.9596 C   0  0  0  0  0  0  0  0  0  0  0  0
   -0.0584    0.4245   -0.5345 C   0  0  0  0  0  0  0  0  0  0  0  0
   -0.3078   -0.2895    0.6449 C   0  0  0  0  0  0  0  0  0  0  0  0
   -1.6870   -0.5097    1.0617 C   0  0  0  0  0  0  0  0  0  0  0  0
   -2.0833   -0.8698    2.2921 N   0  0  0  0  0  0  0  0  0  0  0  0
   -3.4693   -0.9226    2.1977 O   0  0  0  0  0  0  0  0  0  0  0  0
   -3.7963   -0.5782    0.9151 C   0  0  0  0  0  0  0  0  0  0  0  0
   -5.2234   -0.5668    0.5880 C   0  0  0  0  0  0  0  0  0  0  0  0
   -6.1267   -1.2954    1.3892 C   0  0  0  0  0  0  0  0  0  0  0  0
   -7.4919   -1.3192    1.1031 C   0  0  0  0  0  0  0  0  0  0  0  0
   -7.9789   -0.6135    0.0106 C   0  0  0  0  0  0  0  0  0  0  0  0
   -7.1043    0.1168   -0.7964 C   0  0  0  0  0  0  0  0  0  0  0  0
   -5.7287    0.1472   -0.5209 C   0  0  0  0  0  0  0  0  0  0  0  0
   -4.8261    0.8665   -1.2625 O   0  0  0  0  0  0  0  0  0  0  0  0
   -5.2821    1.4830   -2.4583 C   0  0  0  0  0  0  0  0  0  0  0  0
   -2.7360   -0.3148    0.1843 N   0  0  0  0  0  0  0  0  0  0  0  0
    0.8082   -0.7445    1.3447 C   0  0  0  0  0  0  0  0  0  0  0  0
    0.6190   -1.4855    2.4931 O   0  0  0  0  0  0  0  0  0  0  0  0
    1.8250   -1.8938    3.1276 C   0  0  0  0  0  0  0  0  0  0  0  0
    2.0893   -0.5213    0.9456 N   0  0  0  0  0  0  0  0  0  0  0  0
    4.1495    0.4556   -1.9047 C   0  0  0  0  0  0  0  0  0  0  0  0
    5.4985    0.6493   -2.2272 C   0  0  0  0  0  0  0  0  0  0  0  0
    9.7130    1.1919   -1.2130 H   0  0  0  0  0  0  0  0  0  0  0  0
    8.5994    1.9202   -0.0492 H   0  0  0  0  0  0  0  0  0  0  0  0
    8.8363    0.1296   -0.1048 H   0  0  0  0  0  0  0  0  0  0  0  0
    6.7774    0.7403    0.9215 H   0  0  0  0  0  0  0  0  0  0  0  0
    4.4353    0.4040    1.4751 H   0  0  0  0  0  0  0  0  0  0  0  0
    1.4197    1.2312   -1.8649 H   0  0  0  0  0  0  0  0  0  0  0  0
   -0.8850    0.8114   -1.1286 H   0  0  0  0  0  0  0  0  0  0  0  0
   -5.7712   -1.8641    2.2473 H   0  0  0  0  0  0  0  0  0  0  0  0
   -8.1707   -1.8891    1.7329 H   0  0  0  0  0  0  0  0  0  0  0  0
   -9.0426   -0.6272   -0.2151 H   0  0  0  0  0  0  0  0  0  0  0  0
   -7.5315    0.6606   -1.6328 H   0  0  0  0  0  0  0  0  0  0  0  0
   -5.7049    0.7465   -3.1494 H   0  0  0  0  0  0  0  0  0  0  0  0
   -5.9994    2.2805   -2.2396 H   0  0  0  0  0  0  0  0  0  0  0  0
   -4.4174    1.9403   -2.9488 H   0  0  0  0  0  0  0  0  0  0  0  0
    2.4185   -1.0302    3.4475 H   0  0  0  0  0  0  0  0  0  0  0  0
    2.4097   -2.5568    2.4806 H   0  0  0  0  0  0  0  0  0  0  0  0
    1.5542   -2.4600    4.0240 H   0  0  0  0  0  0  0  0  0  0  0  0
    3.4397    0.3541   -2.7221 H   0  0  0  0  0  0  0  0  0  0  0  0
    5.7979    0.7095   -3.2709 H   0  0  0  0  0  0  0  0  0  0  0  0
  1  2  1  0
  2  3  1  0
  3  4  2  0
  4  5  1  0
  5  6  2  0
  6  7  1  0
  7  8  2  0
  8  9  1  0
  9 10  2  0
 10 11  1  0
 11 12  2  0
 12 13  1  0
 13 14  1  0
 14 15  1  0
 15 16  2  0
 16 17  1  0
 17 18  2  0
 18 19  1  0
 19 20  2  0
 20 21  1  0
 21 22  1  0
 14 23  2  0
 10 24  1  0
 24 25  1  0
 25 26  1  0
 24 27  2  0
  6 28  1  0
 28 29  2  0
 29  3  1  0
 27  7  1  0
 23 11  1  0
 20 15  1  0
  1 30  1  0
  1 31  1  0
  1 32  1  0
  4 33  1  0
  5 34  1  0
  8 35  1  0
  9 36  1  0
 16 37  1  0
 17 38  1  0
 18 39  1  0
 19 40  1  0
 22 41  1  0
 22 42  1  0
 22 43  1  0
 26 44  1  0
 26 45  1  0
 26 46  1  0
 28 47  1  0
 29 48  1  0
M  END
$$$$
