
     RDKit          3D

 40 43  0  0  0  0  0  0  0  0999 V2000
   -1.4220   -1.0450   -3.0209 O   0  0  0  0  0  0  0  0  0  0  0  0
   -2.4633   -0.8526   -2.4152 C   0  0  0  0  0  0  0  0  0  0  0  0
   -3.7379   -0.9048   -2.9337 N   0  0  0  0  0  0  0  0  0  0  0  0
   -4.5136   -0.5904   -1.9524 C   0  0  0  0  0  0  0  0  0  0  0  0
   -5.9861   -0.4929   -1.9687 C   0  0  0  0  0  0  0  0  0  0  0  0
   -6.6202   -0.1589   -0.8321 C   0  0  0  0  0  0  0  0  0  0  0  0
   -5.9185    0.1065    0.4133 C   0  0  0  0  0  0  0  0  0  0  0  0
   -4.5793    0.0385    0.4952 C   0  0  0  0  0  0  0  0  0  0  0  0
   -3.8353   -0.3017   -0.6819 C   0  0  0  0  0  0  0  0  0  0  0  0
   -2.5481   -0.4705   -0.9812 C   0  0  0  0  0  0  0  0  0  0  0  0
   -1.4394   -0.3494   -0.1226 C   0  0  0  0  0  0  0  0  0  0  0  0
   -1.0314    1.1378    0.6457 S   0  0  0  0  0  0  0  0  0  0  0  0
    0.3686    0.4134    1.2965 C   0  0  0  0  0  0  0  0  0  0  0  0
    1.3362    1.0455    2.1660 N   0  0  0  0  0  0  0  0  0  0  0  0
    2.0602    2.4443    1.6018 S   0  0  0  0  0  6  0  0  0  0  0  0
    1.0301    3.4280    1.3365 O   0  0  0  0  0  0  0  0  0  0  0  0
    3.1107    2.7566    2.5516 O   0  0  0  0  0  0  0  0  0  0  0  0
    2.8240    1.9996    0.0260 C   0  0  0  0  0  0  0  0  0  0  0  0
    3.6862    0.7685    0.1457 C   0  0  0  0  0  0  0  0  0  0  0  0
    3.3384   -0.4028   -0.5446 C   0  0  0  0  0  0  0  0  0  0  0  0
    4.1333   -1.5466   -0.4533 C   0  0  0  0  0  0  0  0  0  0  0  0
    5.2922   -1.5313    0.3181 C   0  0  0  0  0  0  0  0  0  0  0  0
    5.6620   -0.3697    0.9909 C   0  0  0  0  0  0  0  0  0  0  0  0
    4.8692    0.7757    0.8992 C   0  0  0  0  0  0  0  0  0  0  0  0
    0.5278   -0.8624    1.0501 N   0  0  0  0  0  0  0  0  0  0  0  0
   -0.4866   -1.2849    0.2349 C   0  0  0  0  0  0  0  0  0  0  0  0
   -0.5510   -2.5566   -0.1809 O   0  0  0  0  0  0  0  0  0  0  0  0
   -6.5003   -0.6951   -2.8992 H   0  0  0  0  0  0  0  0  0  0  0  0
   -7.7042   -0.0799   -0.8167 H   0  0  0  0  0  0  0  0  0  0  0  0
   -6.5160    0.3614    1.2848 H   0  0  0  0  0  0  0  0  0  0  0  0
   -4.0642    0.2329    1.4295 H   0  0  0  0  0  0  0  0  0  0  0  0
    2.0242    0.3723    2.5041 H   0  0  0  0  0  0  0  0  0  0  0  0
    2.0189    1.8662   -0.7034 H   0  0  0  0  0  0  0  0  0  0  0  0
    3.4272    2.8558   -0.2940 H   0  0  0  0  0  0  0  0  0  0  0  0
    2.4433   -0.4404   -1.1640 H   0  0  0  0  0  0  0  0  0  0  0  0
    3.8506   -2.4479   -0.9917 H   0  0  0  0  0  0  0  0  0  0  0  0
    5.9133   -2.4208    0.3860 H   0  0  0  0  0  0  0  0  0  0  0  0
    6.5738   -0.3516    1.5832 H   0  0  0  0  0  0  0  0  0  0  0  0
    5.1920    1.6747    1.4236 H   0  0  0  0  0  0  0  0  0  0  0  0
    0.2350   -3.0076    0.1738 H   0  0  0  0  0  0  0  0  0  0  0  0
  1  2  2  0
  2  3  1  0
  3  4  2  0
  4  5  1  0
  5  6  2  0
  6  7  1  0
  7  8  2  0
  8  9  1  0
  9 10  2  0
 10 11  1  0
 11 12  1  0
 12 13  1  0
 13 14  1  0
 14 15  1  0
 15 16  2  0
 15 17  2  0
 15 18  1  0
 18 19  1  0
 19 20  2  0
 20 21  1  0
 21 22  2  0
 22 23  1  0
 23 24  2  0
 13 25  2  0
 25 26  1  0
 26 27  1  0
 10  2  1  0
 26 11  2  0
  9  4  1  0
 24 19  1  0
  5 28  1  0
  6 29  1  0
  7 30  1  0
  8 31  1  0
 14 32  1  0
 18 33  1  0
 18 34  1  0
 20 35  1  0
 21 36  1  0
 22 37  1  0
 23 38  1  0
 24 39  1  0
 27 40  1  0
M  END
$$$$
