
     RDKit          3D

 35 36  0  0  0  0  0  0  0  0999 V2000
    5.9462   -0.0372   -2.2566 C   0  0  0  0  0  0  0  0  0  0  0  0
    4.5960   -0.2345   -1.6350 C   0  0  0  0  0  0  0  0  0  0  0  0
    3.5317   -0.7324   -2.3919 C   0  0  0  0  0  0  0  0  0  0  0  0
    2.2616   -0.8917   -1.8235 C   0  0  0  0  0  0  0  0  0  0  0  0
    2.0340   -0.5612   -0.4885 C   0  0  0  0  0  0  0  0  0  0  0  0
    0.7820   -0.6613    0.1590 N   0  0  0  0  0  0  0  0  0  0  0  0
   -0.3331   -1.4084   -0.1309 C   0  0  0  0  0  0  0  0  0  0  0  0
   -0.4783   -2.7311   -1.1392 S   0  0  0  0  0  0  0  0  0  0  0  0
   -1.4703   -1.0231    0.5252 N   0  0  0  0  0  0  0  0  0  0  0  0
   -1.6827    0.1502    1.3434 C   0  0  0  0  0  0  0  0  0  0  0  0
   -3.1470    0.3753    1.4599 C   0  0  0  0  0  0  0  0  0  0  0  0
   -4.0006    0.0771    2.5081 C   0  0  0  0  0  0  0  0  0  0  0  0
   -5.3020    0.4866    2.1395 C   0  0  0  0  0  0  0  0  0  0  0  0
   -5.2179    1.0232    0.8754 C   0  0  0  0  0  0  0  0  0  0  0  0
   -3.9112    0.9516    0.4668 N   0  0  0  0  0  0  0  0  0  0  0  0
   -3.4318    1.4035   -0.8225 C   0  0  0  0  0  0  0  0  0  0  0  0
    3.0923   -0.0244    0.2564 C   0  0  0  0  0  0  0  0  0  0  0  0
    4.3618    0.1353   -0.3088 C   0  0  0  0  0  0  0  0  0  0  0  0
    6.7395   -0.1430   -1.5090 H   0  0  0  0  0  0  0  0  0  0  0  0
    6.1313   -0.7859   -3.0340 H   0  0  0  0  0  0  0  0  0  0  0  0
    6.0110    0.9599   -2.7026 H   0  0  0  0  0  0  0  0  0  0  0  0
    3.6773   -0.9969   -3.4373 H   0  0  0  0  0  0  0  0  0  0  0  0
    1.4657   -1.2451   -2.4689 H   0  0  0  0  0  0  0  0  0  0  0  0
    0.7624   -0.2504    1.0813 H   0  0  0  0  0  0  0  0  0  0  0  0
   -2.2750   -1.6182    0.3577 H   0  0  0  0  0  0  0  0  0  0  0  0
   -1.2351   -0.0419    2.3244 H   0  0  0  0  0  0  0  0  0  0  0  0
   -1.1722    1.0117    0.9014 H   0  0  0  0  0  0  0  0  0  0  0  0
   -3.7134   -0.3894    3.4422 H   0  0  0  0  0  0  0  0  0  0  0  0
   -6.2046    0.3978    2.7301 H   0  0  0  0  0  0  0  0  0  0  0  0
   -5.9846    1.4443    0.2379 H   0  0  0  0  0  0  0  0  0  0  0  0
   -3.0345    0.5433   -1.3662 H   0  0  0  0  0  0  0  0  0  0  0  0
   -4.2586    1.8447   -1.3852 H   0  0  0  0  0  0  0  0  0  0  0  0
   -2.6565    2.1562   -0.6604 H   0  0  0  0  0  0  0  0  0  0  0  0
    2.9507    0.2669    1.2938 H   0  0  0  0  0  0  0  0  0  0  0  0
    5.1657    0.5485    0.2962 H   0  0  0  0  0  0  0  0  0  0  0  0
  1  2  1  0
  2  3  2  0
  3  4  1  0
  4  5  2  0
  5  6  1  0
  6  7  1  0
  7  8  2  0
  7  9  1  0
  9 10  1  0
 10 11  1  0
 11 12  2  0
 12 13  1  0
 13 14  2  0
 14 15  1  0
 15 16  1  0
  5 17  1  0
 17 18  2  0
 18  2  1  0
 15 11  1  0
  1 19  1  0
  1 20  1  0
  1 21  1  0
  3 22  1  0
  4 23  1  0
  6 24  1  0
  9 25  1  0
 10 26  1  0
 10 27  1  0
 12 28  1  0
 13 29  1  0
 14 30  1  0
 16 31  1  0
 16 32  1  0
 16 33  1  0
 17 34  1  0
 18 35  1  0
M  END
$$$$
