
     RDKit          3D

 44 47  0  0  0  0  0  0  0  0999 V2000
    2.8032   -2.6999   -0.7979 O   0  0  0  0  0  0  0  0  0  0  0  0
    2.2023   -2.2698    0.4453 S   0  0  0  0  0  6  0  0  0  0  0  0
    2.3493   -3.0993    1.6288 O   0  0  0  0  0  0  0  0  0  0  0  0
    2.8002   -0.6516    0.8821 C   0  0  0  0  0  0  0  0  0  0  0  0
    3.0430   -0.3969    2.2461 C   0  0  0  0  0  0  0  0  0  0  0  0
    3.5507    0.8302    2.6477 C   0  0  0  0  0  0  0  0  0  0  0  0
    3.8280    1.7951    1.6884 C   0  0  0  0  0  0  0  0  0  0  0  0
    3.6004    1.5372    0.3258 C   0  0  0  0  0  0  0  0  0  0  0  0
    3.8949    2.5204   -0.6290 C   0  0  0  0  0  0  0  0  0  0  0  0
    3.6766    2.2729   -1.9759 C   0  0  0  0  0  0  0  0  0  0  0  0
    3.1598    1.0455   -2.3228 C   0  0  0  0  0  0  0  0  0  0  0  0
    2.8532    0.0828   -1.4262 N   0  0  0  0  0  0  0  0  0  0  0  0
    3.0776    0.2950   -0.1093 C   0  0  0  0  0  0  0  0  0  0  0  0
    0.5410   -2.0666    0.2176 N   0  0  0  0  0  0  0  0  0  0  0  0
    0.0796   -1.4155   -1.0344 C   0  0  0  0  0  0  0  0  0  0  0  0
   -1.4574   -1.4539   -1.1390 C   0  0  0  0  0  0  0  0  0  0  0  0
   -2.0897   -0.7634    0.0035 N   0  0  0  0  0  0  0  0  0  0  0  0
   -3.3020   -0.1087   -0.1484 C   0  0  0  0  0  0  0  0  0  0  0  0
   -4.2306   -0.5008   -1.1277 C   0  0  0  0  0  0  0  0  0  0  0  0
   -5.4616    0.1473   -1.2887 C   0  0  0  0  0  0  0  0  0  0  0  0
   -5.7999    1.2133   -0.4652 C   0  0  0  0  0  0  0  0  0  0  0  0
   -4.9077    1.6239    0.5172 C   0  0  0  0  0  0  0  0  0  0  0  0
   -3.6795    0.9677    0.6710 C   0  0  0  0  0  0  0  0  0  0  0  0
   -1.2722   -0.6151    1.2173 C   0  0  0  0  0  0  0  0  0  0  0  0
   -0.3144   -1.8077    1.4081 C   0  0  0  0  0  0  0  0  0  0  0  0
    2.8475   -1.1588    2.9990 H   0  0  0  0  0  0  0  0  0  0  0  0
    3.7414    1.0292    3.6995 H   0  0  0  0  0  0  0  0  0  0  0  0
    4.2332    2.7533    2.0091 H   0  0  0  0  0  0  0  0  0  0  0  0
    4.3021    3.4833   -0.3290 H   0  0  0  0  0  0  0  0  0  0  0  0
    3.9056    3.0160   -2.7309 H   0  0  0  0  0  0  0  0  0  0  0  0
    2.9696    0.7871   -3.3608 H   0  0  0  0  0  0  0  0  0  0  0  0
    0.3972   -0.3697   -1.0497 H   0  0  0  0  0  0  0  0  0  0  0  0
    0.5047   -1.9330   -1.9001 H   0  0  0  0  0  0  0  0  0  0  0  0
   -1.8051   -2.4937   -1.1626 H   0  0  0  0  0  0  0  0  0  0  0  0
   -1.7321   -0.9774   -2.0877 H   0  0  0  0  0  0  0  0  0  0  0  0
   -4.0214   -1.3478   -1.7757 H   0  0  0  0  0  0  0  0  0  0  0  0
   -6.1539   -0.1912   -2.0548 H   0  0  0  0  0  0  0  0  0  0  0  0
   -6.7539    1.7183   -0.5860 H   0  0  0  0  0  0  0  0  0  0  0  0
   -5.1600    2.4574    1.1671 H   0  0  0  0  0  0  0  0  0  0  0  0
   -3.0103    1.3390    1.4413 H   0  0  0  0  0  0  0  0  0  0  0  0
   -0.6950    0.3158    1.1540 H   0  0  0  0  0  0  0  0  0  0  0  0
   -1.9070   -0.5619    2.1099 H   0  0  0  0  0  0  0  0  0  0  0  0
    0.2896   -1.6288    2.3027 H   0  0  0  0  0  0  0  0  0  0  0  0
   -0.8970   -2.7190    1.5906 H   0  0  0  0  0  0  0  0  0  0  0  0
  1  2  2  0
  2  3  2  0
  2  4  1  0
  4  5  2  0
  5  6  1  0
  6  7  2  0
  7  8  1  0
  8  9  2  0
  9 10  1  0
 10 11  2  0
 11 12  1  0
 12 13  2  0
  2 14  1  0
 14 15  1  0
 15 16  1  0
 16 17  1  0
 17 18  1  0
 18 19  2  0
 19 20  1  0
 20 21  2  0
 21 22  1  0
 22 23  2  0
 17 24  1  0
 24 25  1  0
 13  4  1  0
 25 14  1  0
 13  8  1  0
 23 18  1  0
  5 26  1  0
  6 27  1  0
  7 28  1  0
  9 29  1  0
 10 30  1  0
 11 31  1  0
 15 32  1  0
 15 33  1  0
 16 34  1  0
 16 35  1  0
 19 36  1  0
 20 37  1  0
 21 38  1  0
 22 39  1  0
 23 40  1  0
 24 41  1  0
 24 42  1  0
 25 43  1  0
 25 44  1  0
M  END
$$$$
