
     RDKit          3D

 41 43  0  0  0  0  0  0  0  0999 V2000
   -4.9674   -3.1530    1.0013 C   0  0  0  0  0  0  0  0  0  0  0  0
   -3.5164   -2.8823    0.6368 C   0  0  0  0  0  0  0  0  0  0  0  0
   -3.1869   -1.3902    0.7167 C   0  0  0  0  0  0  0  0  0  0  0  0
   -1.7265   -1.1340    0.3480 C   0  0  0  0  0  0  0  0  0  0  0  0
   -1.3651    0.6433    0.4518 S   0  0  0  0  0  0  0  0  0  0  0  0
    0.3173    0.6718    0.0104 C   0  0  0  0  0  0  0  0  0  0  0  0
    0.9330   -0.4262   -0.3100 N   0  0  0  0  0  0  0  0  0  0  0  0
    2.1784   -0.0153   -0.7057 C   0  0  0  0  0  0  0  0  0  0  0  0
    3.2115   -0.7550   -1.1332 C   0  0  0  0  0  0  0  0  0  0  0  0
    3.2822   -2.1803   -1.2866 C   0  0  0  0  0  0  0  0  0  0  0  0
    2.2591   -3.1406   -1.0171 C   0  0  0  0  0  0  0  0  0  0  0  0
    2.6647   -4.4326   -1.2752 C   0  0  0  0  0  0  0  0  0  0  0  0
    4.2747   -4.4983   -1.8418 S   0  0  0  0  0  0  0  0  0  0  0  0
    4.4320   -2.7964   -1.7426 C   0  0  0  0  0  0  0  0  0  0  0  0
    2.2706    1.4698   -0.6074 C   0  0  0  0  0  0  0  0  0  0  0  0
    3.2556    2.1295   -0.8905 O   0  0  0  0  0  0  0  0  0  0  0  0
    1.0405    1.8318   -0.1059 N   0  0  0  0  0  0  0  0  0  0  0  0
    0.7008    3.1736    0.2231 C   0  0  0  0  0  0  0  0  0  0  0  0
   -0.1477    3.4921    1.2929 C   0  0  0  0  0  0  0  0  0  0  0  0
   -0.4604    4.8213    1.6027 C   0  0  0  0  0  0  0  0  0  0  0  0
    0.0802    5.8607    0.8544 C   0  0  0  0  0  0  0  0  0  0  0  0
    0.9421    5.5715   -0.1967 C   0  0  0  0  0  0  0  0  0  0  0  0
    1.2533    4.2423   -0.5034 C   0  0  0  0  0  0  0  0  0  0  0  0
   -5.1806   -4.2247    0.9375 H   0  0  0  0  0  0  0  0  0  0  0  0
   -5.6470   -2.6304    0.3206 H   0  0  0  0  0  0  0  0  0  0  0  0
   -5.1834   -2.8239    2.0227 H   0  0  0  0  0  0  0  0  0  0  0  0
   -2.8644   -3.4445    1.3155 H   0  0  0  0  0  0  0  0  0  0  0  0
   -3.3255   -3.2521   -0.3774 H   0  0  0  0  0  0  0  0  0  0  0  0
   -3.3877   -1.0316    1.7343 H   0  0  0  0  0  0  0  0  0  0  0  0
   -3.8498   -0.8388    0.0377 H   0  0  0  0  0  0  0  0  0  0  0  0
   -1.0687   -1.6779    1.0345 H   0  0  0  0  0  0  0  0  0  0  0  0
   -1.5335   -1.4839   -0.6718 H   0  0  0  0  0  0  0  0  0  0  0  0
    4.1177   -0.2096   -1.4000 H   0  0  0  0  0  0  0  0  0  0  0  0
    1.2664   -2.9116   -0.6507 H   0  0  0  0  0  0  0  0  0  0  0  0
    2.0910   -5.3414   -1.1576 H   0  0  0  0  0  0  0  0  0  0  0  0
    5.3695   -2.3379   -2.0274 H   0  0  0  0  0  0  0  0  0  0  0  0
   -0.5482    2.7276    1.9511 H   0  0  0  0  0  0  0  0  0  0  0  0
   -1.1181    5.0408    2.4405 H   0  0  0  0  0  0  0  0  0  0  0  0
   -0.1606    6.8926    1.0962 H   0  0  0  0  0  0  0  0  0  0  0  0
    1.3767    6.3775   -0.7830 H   0  0  0  0  0  0  0  0  0  0  0  0
    1.9205    4.0663   -1.3447 H   0  0  0  0  0  0  0  0  0  0  0  0
  1  2  1  0
  2  3  1  0
  3  4  1  0
  4  5  1  0
  5  6  1  0
  6  7  2  0
  7  8  1  0
  8  9  2  3
  9 10  1  0
 10 11  1  0
 11 12  2  0
 12 13  1  0
 13 14  1  0
  8 15  1  0
 15 16  2  0
 15 17  1  0
 17 18  1  0
 18 19  2  0
 19 20  1  0
 20 21  2  0
 21 22  1  0
 22 23  2  0
 17  6  1  0
 23 18  1  0
 14 10  2  0
  1 24  1  0
  1 25  1  0
  1 26  1  0
  2 27  1  0
  2 28  1  0
  3 29  1  0
  3 30  1  0
  4 31  1  0
  4 32  1  0
  9 33  1  0
 11 34  1  0
 12 35  1  0
 14 36  1  0
 19 37  1  0
 20 38  1  0
 21 39  1  0
 22 40  1  0
 23 41  1  0
M  END
$$$$
