
     RDKit          3D

 55 57  0  0  0  0  0  0  0  0999 V2000
    2.8957   -0.3727    0.8194 O   0  0  0  0  0  0  0  0  0  0  0  0
    1.8687    0.2941    0.8402 C   0  0  0  0  0  0  0  0  0  0  0  0
    1.7299    1.6054    1.2479 N   0  0  0  0  0  0  0  0  0  0  0  0
    2.7269    2.4731    1.7310 C   0  0  0  0  0  0  0  0  0  0  0  0
    2.3475    3.7935    2.0096 C   0  0  0  0  0  0  0  0  0  0  0  0
    3.2793    4.7188    2.4892 C   0  0  0  0  0  0  0  0  0  0  0  0
    4.5997    4.3306    2.6978 C   0  0  0  0  0  0  0  0  0  0  0  0
    4.9859    3.0190    2.4240 C   0  0  0  0  0  0  0  0  0  0  0  0
    4.0533    2.0946    1.9407 C   0  0  0  0  0  0  0  0  0  0  0  0
    0.5450   -0.2808    0.3927 C   0  0  0  0  0  0  0  0  0  0  0  0
    0.5412   -1.4611   -0.2484 C   0  0  0  0  0  0  0  0  0  0  0  0
   -0.7250   -2.1326   -0.6932 C   0  0  0  0  0  0  0  0  0  0  0  0
   -0.7294   -3.6325   -0.4331 C   0  0  0  0  0  0  0  0  0  0  0  0
   -1.1016   -4.5168   -1.4562 C   0  0  0  0  0  0  0  0  0  0  0  0
   -1.1350   -5.8955   -1.2304 C   0  0  0  0  0  0  0  0  0  0  0  0
   -0.7954   -6.4224    0.0246 C   0  0  0  0  0  0  0  0  0  0  0  0
   -0.8602   -7.9100    0.2662 C   0  0  0  0  0  0  0  0  0  0  0  0
   -0.1909   -8.3087    1.3849 F   0  0  0  0  0  0  0  0  0  0  0  0
   -2.1404   -8.3535    0.4207 F   0  0  0  0  0  0  0  0  0  0  0  0
   -0.3361   -8.6376   -0.7611 F   0  0  0  0  0  0  0  0  0  0  0  0
   -0.4312   -5.5402    1.0507 C   0  0  0  0  0  0  0  0  0  0  0  0
   -0.3982   -4.1620    0.8245 C   0  0  0  0  0  0  0  0  0  0  0  0
   -1.9420   -1.4733   -0.0340 C   0  0  0  0  0  0  0  0  0  0  0  0
   -1.7796    0.0438   -0.0318 C   0  0  0  0  0  0  0  0  0  0  0  0
   -1.7923    0.5219   -1.3783 O   0  0  0  0  0  0  0  0  0  0  0  0
   -2.3221    1.8379   -1.5383 C   0  0  0  0  0  0  0  0  0  0  0  0
   -1.4431    2.9237   -0.9210 C   0  0  0  0  0  0  0  0  0  0  0  0
   -1.9437    4.3463   -1.1938 C   0  0  0  0  0  0  0  0  0  0  0  0
   -1.9260    4.7562   -2.6627 C   0  0  0  0  0  0  0  0  0  0  0  0
   -0.6215    4.5762   -3.1931 O   0  0  0  0  0  0  0  0  0  0  0  0
   -0.5980    0.4496    0.6704 O   0  0  0  0  0  0  0  0  0  0  0  0
    0.7955    1.9869    1.1497 H   0  0  0  0  0  0  0  0  0  0  0  0
    1.3251    4.1241    1.8442 H   0  0  0  0  0  0  0  0  0  0  0  0
    2.9743    5.7424    2.6938 H   0  0  0  0  0  0  0  0  0  0  0  0
    5.3300    5.0461    3.0664 H   0  0  0  0  0  0  0  0  0  0  0  0
    6.0163    2.7095    2.5802 H   0  0  0  0  0  0  0  0  0  0  0  0
    4.4009    1.0881    1.7297 H   0  0  0  0  0  0  0  0  0  0  0  0
    1.4805   -1.9671   -0.4654 H   0  0  0  0  0  0  0  0  0  0  0  0
   -0.7846   -1.9767   -1.7795 H   0  0  0  0  0  0  0  0  0  0  0  0
   -1.3705   -4.1374   -2.4408 H   0  0  0  0  0  0  0  0  0  0  0  0
   -1.4281   -6.5607   -2.0413 H   0  0  0  0  0  0  0  0  0  0  0  0
   -0.1680   -5.9216    2.0374 H   0  0  0  0  0  0  0  0  0  0  0  0
   -0.1083   -3.5022    1.6414 H   0  0  0  0  0  0  0  0  0  0  0  0
   -2.8530   -1.7615   -0.5727 H   0  0  0  0  0  0  0  0  0  0  0  0
   -2.0501   -1.8153    1.0041 H   0  0  0  0  0  0  0  0  0  0  0  0
   -2.6350    0.4648    0.5113 H   0  0  0  0  0  0  0  0  0  0  0  0
   -2.4043    1.9932   -2.6175 H   0  0  0  0  0  0  0  0  0  0  0  0
   -3.3386    1.8742   -1.1321 H   0  0  0  0  0  0  0  0  0  0  0  0
   -0.4085    2.8014   -1.2646 H   0  0  0  0  0  0  0  0  0  0  0  0
   -1.4122    2.7903    0.1658 H   0  0  0  0  0  0  0  0  0  0  0  0
   -2.9569    4.4682   -0.7937 H   0  0  0  0  0  0  0  0  0  0  0  0
   -1.2937    5.0334   -0.6371 H   0  0  0  0  0  0  0  0  0  0  0  0
   -2.6345    4.1676   -3.2525 H   0  0  0  0  0  0  0  0  0  0  0  0
   -2.1968    5.8139   -2.7592 H   0  0  0  0  0  0  0  0  0  0  0  0
   -0.6407    4.8533   -4.1266 H   0  0  0  0  0  0  0  0  0  0  0  0
  1  2  2  0
  2  3  1  0
  3  4  1  0
  4  5  2  0
  5  6  1  0
  6  7  2  0
  7  8  1  0
  8  9  2  0
  2 10  1  0
 10 11  2  0
 11 12  1  0
 12 13  1  0
 13 14  2  0
 14 15  1  0
 15 16  2  0
 16 17  1  0
 17 18  1  0
 17 19  1  0
 17 20  1  0
 16 21  1  0
 21 22  2  0
 12 23  1  0
 23 24  1  0
 24 25  1  0
 25 26  1  0
 26 27  1  0
 27 28  1  0
 28 29  1  0
 29 30  1  0
 24 31  1  0
  9  4  1  0
 31 10  1  0
 22 13  1  0
  3 32  1  0
  5 33  1  0
  6 34  1  0
  7 35  1  0
  8 36  1  0
  9 37  1  0
 11 38  1  0
 12 39  1  0
 14 40  1  0
 15 41  1  0
 21 42  1  0
 22 43  1  0
 23 44  1  0
 23 45  1  0
 24 46  1  0
 26 47  1  0
 26 48  1  0
 27 49  1  0
 27 50  1  0
 28 51  1  0
 28 52  1  0
 29 53  1  0
 29 54  1  0
 30 55  1  0
M  END
$$$$
