
     RDKit          3D

 57 59  0  0  0  0  0  0  0  0999 V2000
   -4.2715   -2.3614    2.4867 C   0  0  0  0  0  0  0  0  0  0  0  0
   -4.2330   -0.9107    2.0370 C   0  0  0  0  0  0  0  0  0  0  0  0
   -3.7102   -0.7688    0.6724 N   0  0  0  0  0  0  0  0  0  0  0  0
   -2.3496   -0.6064    0.3948 C   0  0  0  0  0  0  0  0  0  0  0  0
   -1.9666   -0.2442   -0.7232 O   0  0  0  0  0  0  0  0  0  0  0  0
   -1.3177   -0.9387    1.4860 C   0  0  0  0  0  0  0  0  0  0  0  0
   -0.0703   -0.2881    1.2166 O   0  0  0  0  0  0  0  0  0  0  0  0
   -0.0991    1.0450    1.4736 C   0  0  0  0  0  0  0  0  0  0  0  0
   -0.9862    1.6434    2.0549 O   0  0  0  0  0  0  0  0  0  0  0  0
    1.1244    1.6582    0.9138 C   0  0  0  0  0  0  0  0  0  0  0  0
    2.3601    1.0288    1.1321 C   0  0  0  0  0  0  0  0  0  0  0  0
    3.5399    1.5853    0.6131 C   0  0  0  0  0  0  0  0  0  0  0  0
    5.0696    0.7454    0.9248 S   0  0  0  0  0  6  0  0  0  0  0  0
    5.9632    1.6893    1.5578 O   0  0  0  0  0  0  0  0  0  0  0  0
    4.7608   -0.5204    1.5597 O   0  0  0  0  0  0  0  0  0  0  0  0
    5.6440    0.3780   -0.6305 N   0  0  0  0  0  0  0  0  0  0  0  0
    4.8560   -0.6231   -1.4176 C   0  0  0  0  0  0  0  0  0  0  0  0
    5.6003   -1.9581   -1.5108 C   0  0  0  0  0  0  0  0  0  0  0  0
    6.8686   -1.8489   -2.1707 O   0  0  0  0  0  0  0  0  0  0  0  0
    7.4958   -0.5712   -1.9935 C   0  0  0  0  0  0  0  0  0  0  0  0
    7.1168    0.1064   -0.6735 C   0  0  0  0  0  0  0  0  0  0  0  0
    3.4928    2.7778   -0.1110 C   0  0  0  0  0  0  0  0  0  0  0  0
    4.8747    3.5509   -0.7965 Cl  0  0  0  0  0  0  0  0  0  0  0  0
    2.2569    3.4027   -0.3228 C   0  0  0  0  0  0  0  0  0  0  0  0
    1.0746    2.8491    0.1830 C   0  0  0  0  0  0  0  0  0  0  0  0
   -0.3990    3.6702   -0.1827 Cl  0  0  0  0  0  0  0  0  0  0  0  0
   -4.6488   -0.4845   -0.4287 C   0  0  0  0  0  0  0  0  0  0  0  0
   -5.9348   -1.3254   -0.4357 C   0  0  0  0  0  0  0  0  0  0  0  0
   -6.7625   -0.7726   -1.5876 C   0  0  0  0  0  0  0  0  0  0  0  0
   -6.5363    0.9969   -1.5035 S   0  0  0  0  0  6  0  0  0  0  0  0
   -7.6318    1.5536   -0.7358 O   0  0  0  0  0  0  0  0  0  0  0  0
   -6.1937    1.4800   -2.8237 O   0  0  0  0  0  0  0  0  0  0  0  0
   -5.0758    0.9849   -0.4789 C   0  0  0  0  0  0  0  0  0  0  0  0
   -4.8910   -2.9665    1.8179 H   0  0  0  0  0  0  0  0  0  0  0  0
   -3.2720   -2.8043    2.5024 H   0  0  0  0  0  0  0  0  0  0  0  0
   -4.6893   -2.4330    3.4953 H   0  0  0  0  0  0  0  0  0  0  0  0
   -3.6235   -0.3195    2.7257 H   0  0  0  0  0  0  0  0  0  0  0  0
   -5.2350   -0.4740    2.0924 H   0  0  0  0  0  0  0  0  0  0  0  0
   -1.6448   -0.6965    2.4986 H   0  0  0  0  0  0  0  0  0  0  0  0
   -1.1354   -2.0176    1.4439 H   0  0  0  0  0  0  0  0  0  0  0  0
    2.3980    0.1072    1.7128 H   0  0  0  0  0  0  0  0  0  0  0  0
    4.7070   -0.1992   -2.4180 H   0  0  0  0  0  0  0  0  0  0  0  0
    3.8639   -0.7808   -0.9842 H   0  0  0  0  0  0  0  0  0  0  0  0
    5.7739   -2.3771   -0.5129 H   0  0  0  0  0  0  0  0  0  0  0  0
    5.0019   -2.6835   -2.0715 H   0  0  0  0  0  0  0  0  0  0  0  0
    8.5767   -0.7279   -2.0407 H   0  0  0  0  0  0  0  0  0  0  0  0
    7.2176    0.0575   -2.8464 H   0  0  0  0  0  0  0  0  0  0  0  0
    7.3960   -0.5434    0.1636 H   0  0  0  0  0  0  0  0  0  0  0  0
    7.6524    1.0565   -0.5856 H   0  0  0  0  0  0  0  0  0  0  0  0
    2.2129    4.3287   -0.8952 H   0  0  0  0  0  0  0  0  0  0  0  0
   -4.1339   -0.7103   -1.3728 H   0  0  0  0  0  0  0  0  0  0  0  0
   -5.7262   -2.3913   -0.5702 H   0  0  0  0  0  0  0  0  0  0  0  0
   -6.4977   -1.2131    0.4965 H   0  0  0  0  0  0  0  0  0  0  0  0
   -6.3768   -1.1163   -2.5525 H   0  0  0  0  0  0  0  0  0  0  0  0
   -7.8232   -1.0156   -1.4998 H   0  0  0  0  0  0  0  0  0  0  0  0
   -5.3529    1.3694    0.5069 H   0  0  0  0  0  0  0  0  0  0  0  0
   -4.3099    1.6273   -0.9202 H   0  0  0  0  0  0  0  0  0  0  0  0
  1  2  1  0
  2  3  1  0
  3  4  1  0
  4  5  2  0
  4  6  1  0
  6  7  1  0
  7  8  1  0
  8  9  2  0
  8 10  1  0
 10 11  2  0
 11 12  1  0
 12 13  1  0
 13 14  2  0
 13 15  2  0
 13 16  1  0
 16 17  1  0
 17 18  1  0
 18 19  1  0
 19 20  1  0
 20 21  1  0
 12 22  2  0
 22 23  1  0
 22 24  1  0
 24 25  2  0
 25 26  1  0
  3 27  1  0
 27 28  1  0
 28 29  1  0
 29 30  1  0
 30 31  2  0
 30 32  2  0
 30 33  1  0
 25 10  1  0
 33 27  1  0
 21 16  1  0
  1 34  1  0
  1 35  1  0
  1 36  1  0
  2 37  1  0
  2 38  1  0
  6 39  1  0
  6 40  1  0
 11 41  1  0
 17 42  1  0
 17 43  1  0
 18 44  1  0
 18 45  1  0
 20 46  1  0
 20 47  1  0
 21 48  1  0
 21 49  1  0
 24 50  1  0
 27 51  1  0
 28 52  1  0
 28 53  1  0
 29 54  1  0
 29 55  1  0
 33 56  1  0
 33 57  1  0
M  END
$$$$
