
     RDKit          3D

 40 43  0  0  0  0  0  0  0  0999 V2000
    6.2664    1.5257    2.9910 O   0  0  0  0  0  0  0  0  0  0  0  0
    6.2119    1.0567    1.8454 N   0  0  0  0  0  4  0  0  0  0  0  0
    7.2007    0.7523    1.1627 O   0  0  0  0  0  1  0  0  0  0  0  0
    4.8843    0.8400    1.2565 C   0  0  0  0  0  0  0  0  0  0  0  0
    4.7766    0.3370   -0.0473 C   0  0  0  0  0  0  0  0  0  0  0  0
    3.5105    0.1317   -0.6058 C   0  0  0  0  0  0  0  0  0  0  0  0
    2.3524    0.4207    0.1311 C   0  0  0  0  0  0  0  0  0  0  0  0
    1.0271    0.2083   -0.4472 C   0  0  0  0  0  0  0  0  0  0  0  0
    0.0130    1.1262   -0.2267 N   0  0  0  0  0  0  0  0  0  0  0  0
   -1.0707    0.6177   -0.9213 N   0  0  0  0  0  0  0  0  0  0  0  0
   -2.3510    1.2893   -0.9710 C   0  0  0  0  0  0  0  0  0  0  0  0
   -3.2688    0.8233    0.1323 C   0  0  0  0  0  0  0  0  0  0  0  0
   -3.0694    1.2538    1.4529 C   0  0  0  0  0  0  0  0  0  0  0  0
   -3.9158    0.8229    2.4752 C   0  0  0  0  0  0  0  0  0  0  0  0
   -4.9685   -0.0444    2.1898 C   0  0  0  0  0  0  0  0  0  0  0  0
   -5.1733   -0.4843    0.8834 C   0  0  0  0  0  0  0  0  0  0  0  0
   -4.3274   -0.0546   -0.1405 C   0  0  0  0  0  0  0  0  0  0  0  0
   -0.7061   -0.5337   -1.5260 C   0  0  0  0  0  0  0  0  0  0  0  0
   -1.2393   -1.4712   -2.3240 C   0  0  0  0  0  0  0  0  0  0  0  0
   -2.4753   -1.4716   -2.8007 O   0  0  0  0  0  0  0  0  0  0  0  0
   -0.2968   -2.4569   -2.5890 N   0  0  0  0  0  0  0  0  0  0  0  0
    0.8755   -2.0939   -1.9029 C   0  0  0  0  0  0  0  0  0  0  0  0
    1.9375   -2.8846   -1.9491 O   0  0  0  0  0  0  0  0  0  0  0  0
    0.6012   -0.9066   -1.2846 C   0  0  0  0  0  0  0  0  0  0  0  0
    2.4766    0.9340    1.4313 C   0  0  0  0  0  0  0  0  0  0  0  0
    3.7370    1.1421    1.9997 C   0  0  0  0  0  0  0  0  0  0  0  0
    5.6606    0.1134   -0.6414 H   0  0  0  0  0  0  0  0  0  0  0  0
    3.4381   -0.2260   -1.6312 H   0  0  0  0  0  0  0  0  0  0  0  0
   -2.7903    1.1233   -1.9606 H   0  0  0  0  0  0  0  0  0  0  0  0
   -2.1688    2.3668   -0.8818 H   0  0  0  0  0  0  0  0  0  0  0  0
   -2.2428    1.9221    1.6899 H   0  0  0  0  0  0  0  0  0  0  0  0
   -3.7499    1.1611    3.4946 H   0  0  0  0  0  0  0  0  0  0  0  0
   -5.6260   -0.3812    2.9867 H   0  0  0  0  0  0  0  0  0  0  0  0
   -5.9906   -1.1655    0.6619 H   0  0  0  0  0  0  0  0  0  0  0  0
   -4.4954   -0.4141   -1.1536 H   0  0  0  0  0  0  0  0  0  0  0  0
   -2.6139   -2.2716   -3.3372 H   0  0  0  0  0  0  0  0  0  0  0  0
   -0.4007   -3.2947   -3.1436 H   0  0  0  0  0  0  0  0  0  0  0  0
    2.5871   -2.5308   -1.3141 H   0  0  0  0  0  0  0  0  0  0  0  0
    1.5828    1.1763    2.0056 H   0  0  0  0  0  0  0  0  0  0  0  0
    3.8017    1.5407    3.0100 H   0  0  0  0  0  0  0  0  0  0  0  0
  1  2  2  0
  2  3  1  0
  2  4  1  0
  4  5  2  0
  5  6  1  0
  6  7  2  0
  7  8  1  0
  8  9  2  0
  9 10  1  0
 10 11  1  0
 11 12  1  0
 12 13  2  0
 13 14  1  0
 14 15  2  0
 15 16  1  0
 16 17  2  0
 10 18  1  0
 18 19  2  0
 19 20  1  0
 19 21  1  0
 21 22  1  0
 22 23  1  0
 22 24  2  0
  7 25  1  0
 25 26  2  0
 26  4  1  0
 24  8  1  0
 17 12  1  0
 24 18  1  0
  5 27  1  0
  6 28  1  0
 11 29  1  0
 11 30  1  0
 13 31  1  0
 14 32  1  0
 15 33  1  0
 16 34  1  0
 17 35  1  0
 20 36  1  0
 21 37  1  0
 23 38  1  0
 25 39  1  0
 26 40  1  0
M  CHG  2   2   1   3  -1
M  END
$$$$
