
     RDKit          3D

 50 52  0  0  0  0  0  0  0  0999 V2000
   -3.1698   -2.9572   -1.9125 C   0  0  0  0  0  0  0  0  0  0  0  0
   -3.9219   -1.8147   -1.5256 O   0  0  0  0  0  0  0  0  0  0  0  0
   -3.4671   -1.0978   -0.4495 C   0  0  0  0  0  0  0  0  0  0  0  0
   -2.2047   -1.2427    0.1239 C   0  0  0  0  0  0  0  0  0  0  0  0
   -1.8389   -0.4370    1.2095 C   0  0  0  0  0  0  0  0  0  0  0  0
   -0.5037   -0.5784    1.8328 C   0  0  0  0  0  0  0  0  0  0  0  0
   -0.4554   -0.7742    3.0443 O   0  0  0  0  0  0  0  0  0  0  0  0
    0.6261   -0.4806    1.0300 N   0  0  0  0  0  0  0  0  0  0  0  0
    0.6458    0.0971   -0.3239 C   0  0  0  0  0  0  0  0  0  0  0  0
    1.9856    0.7855   -0.6479 C   0  0  0  0  0  0  0  0  0  0  0  0
    3.1035   -0.1649   -0.5112 N   0  0  0  0  0  0  0  0  0  0  0  0
    4.3875    0.1897   -0.9445 C   0  0  0  0  0  0  0  0  0  0  0  0
    4.7828    1.5412   -0.9916 C   0  0  0  0  0  0  0  0  0  0  0  0
    6.0645    1.9204   -1.4047 C   0  0  0  0  0  0  0  0  0  0  0  0
    6.4942    3.5874   -1.4263 Cl  0  0  0  0  0  0  0  0  0  0  0  0
    6.9953    0.9669   -1.7936 C   0  0  0  0  0  0  0  0  0  0  0  0
    6.6357   -0.3770   -1.7778 C   0  0  0  0  0  0  0  0  0  0  0  0
    5.3507   -0.7631   -1.3656 C   0  0  0  0  0  0  0  0  0  0  0  0
    4.9961   -2.4569   -1.4875 Cl  0  0  0  0  0  0  0  0  0  0  0  0
    3.0138   -1.1199    0.6216 C   0  0  0  0  0  0  0  0  0  0  0  0
    1.9357   -0.7172    1.6454 C   0  0  0  0  0  0  0  0  0  0  0  0
   -2.7381    0.4799    1.7668 C   0  0  0  0  0  0  0  0  0  0  0  0
   -4.0058    0.6325    1.2079 C   0  0  0  0  0  0  0  0  0  0  0  0
   -4.9557    1.5105    1.6616 O   0  0  0  0  0  0  0  0  0  0  0  0
   -4.7641    2.0521    2.9625 C   0  0  0  0  0  0  0  0  0  0  0  0
   -4.3493   -0.1384    0.0818 C   0  0  0  0  0  0  0  0  0  0  0  0
   -5.6128   -0.0195   -0.4555 O   0  0  0  0  0  0  0  0  0  0  0  0
   -5.6142    0.9796   -1.4732 C   0  0  0  0  0  0  0  0  0  0  0  0
   -3.0416   -3.6528   -1.0764 H   0  0  0  0  0  0  0  0  0  0  0  0
   -2.2033   -2.6637   -2.3346 H   0  0  0  0  0  0  0  0  0  0  0  0
   -3.7303   -3.4770   -2.6955 H   0  0  0  0  0  0  0  0  0  0  0  0
   -1.4932   -1.9737   -0.2443 H   0  0  0  0  0  0  0  0  0  0  0  0
    0.4790   -0.7285   -1.0252 H   0  0  0  0  0  0  0  0  0  0  0  0
   -0.1714    0.8167   -0.4340 H   0  0  0  0  0  0  0  0  0  0  0  0
    1.9437    1.1720   -1.6731 H   0  0  0  0  0  0  0  0  0  0  0  0
    2.1195    1.6319    0.0370 H   0  0  0  0  0  0  0  0  0  0  0  0
    4.1012    2.3266   -0.6796 H   0  0  0  0  0  0  0  0  0  0  0  0
    7.9905    1.2599   -2.1163 H   0  0  0  0  0  0  0  0  0  0  0  0
    7.3552   -1.1254   -2.1019 H   0  0  0  0  0  0  0  0  0  0  0  0
    2.7487   -2.1043    0.2193 H   0  0  0  0  0  0  0  0  0  0  0  0
    3.9708   -1.2109    1.1498 H   0  0  0  0  0  0  0  0  0  0  0  0
    1.8463   -1.4924    2.4148 H   0  0  0  0  0  0  0  0  0  0  0  0
    2.2245    0.2134    2.1495 H   0  0  0  0  0  0  0  0  0  0  0  0
   -2.4175    1.0583    2.6277 H   0  0  0  0  0  0  0  0  0  0  0  0
   -4.6175    1.2629    3.7077 H   0  0  0  0  0  0  0  0  0  0  0  0
   -3.9313    2.7627    2.9697 H   0  0  0  0  0  0  0  0  0  0  0  0
   -5.6713    2.6011    3.2326 H   0  0  0  0  0  0  0  0  0  0  0  0
   -6.6279    1.0411   -1.8802 H   0  0  0  0  0  0  0  0  0  0  0  0
   -5.3530    1.9634   -1.0684 H   0  0  0  0  0  0  0  0  0  0  0  0
   -4.9369    0.7157   -2.2929 H   0  0  0  0  0  0  0  0  0  0  0  0
  1  2  1  0
  2  3  1  0
  3  4  2  0
  4  5  1  0
  5  6  1  0
  6  7  2  0
  6  8  1  0
  8  9  1  0
  9 10  1  0
 10 11  1  0
 11 12  1  0
 12 13  2  0
 13 14  1  0
 14 15  1  0
 14 16  2  0
 16 17  1  0
 17 18  2  0
 18 19  1  0
 11 20  1  0
 20 21  1  0
  5 22  2  0
 22 23  1  0
 23 24  1  0
 24 25  1  0
 23 26  2  0
 26 27  1  0
 27 28  1  0
 26  3  1  0
 21  8  1  0
 18 12  1  0
  1 29  1  0
  1 30  1  0
  1 31  1  0
  4 32  1  0
  9 33  1  0
  9 34  1  0
 10 35  1  0
 10 36  1  0
 13 37  1  0
 16 38  1  0
 17 39  1  0
 20 40  1  0
 20 41  1  0
 21 42  1  0
 21 43  1  0
 22 44  1  0
 25 45  1  0
 25 46  1  0
 25 47  1  0
 28 48  1  0
 28 49  1  0
 28 50  1  0
M  END
$$$$
