
     RDKit          3D

 50 51  0  0  0  0  0  0  0  0999 V2000
    8.3667   -2.2276   -1.2570 C   0  0  0  0  0  0  0  0  0  0  0  0
    7.1237   -1.8862   -0.6418 O   0  0  0  0  0  0  0  0  0  0  0  0
    7.0279   -0.5808   -0.2839 C   0  0  0  0  0  0  0  0  0  0  0  0
    7.8889    0.2688   -0.4502 O   0  0  0  0  0  0  0  0  0  0  0  0
    5.7102   -0.3049    0.3516 C   0  0  0  0  0  0  0  0  0  0  0  0
    4.7318   -1.2944    0.5161 C   0  0  0  0  0  0  0  0  0  0  0  0
    3.5080   -0.9830    1.1176 C   0  0  0  0  0  0  0  0  0  0  0  0
    3.2474    0.3181    1.5689 C   0  0  0  0  0  0  0  0  0  0  0  0
    1.9214    0.6671    2.1958 C   0  0  0  0  0  0  0  0  0  0  0  0
    1.0338    1.2492    1.2178 N   0  0  0  0  0  0  0  0  0  0  0  0
    0.8475    2.6111    1.1161 C   0  0  0  0  0  0  0  0  0  0  0  0
    1.3707    3.4251    1.8722 O   0  0  0  0  0  0  0  0  0  0  0  0
   -0.0159    3.0413   -0.0722 C   0  0  0  0  0  0  0  0  0  0  0  0
   -0.8321    1.9988   -0.6140 O   0  0  0  0  0  0  0  0  0  0  0  0
   -1.9997    1.7859    0.0594 C   0  0  0  0  0  0  0  0  0  0  0  0
   -2.3504    2.3861    1.0630 O   0  0  0  0  0  0  0  0  0  0  0  0
   -2.7803    0.6908   -0.6297 C   0  0  0  0  0  0  0  0  0  0  0  0
   -4.0764    0.3626    0.1116 C   0  0  0  0  0  0  0  0  0  0  0  0
   -4.8390   -0.7991   -0.5265 C   0  0  0  0  0  0  0  0  0  0  0  0
   -5.3532   -0.5165   -1.9376 C   0  0  0  0  0  0  0  0  0  0  0  0
   -6.4867   -1.5184   -2.1497 C   0  0  0  0  0  0  0  0  0  0  0  0
   -6.8938   -2.0082   -0.7605 C   0  0  0  0  0  0  0  0  0  0  0  0
   -6.1247   -1.1385    0.2245 C   0  0  0  0  0  0  0  0  0  0  0  0
    4.2264    1.3067    1.3956 C   0  0  0  0  0  0  0  0  0  0  0  0
    5.4489    0.9977    0.7941 C   0  0  0  0  0  0  0  0  0  0  0  0
    9.1975   -2.0522   -0.5663 H   0  0  0  0  0  0  0  0  0  0  0  0
    8.3409   -3.2926   -1.5036 H   0  0  0  0  0  0  0  0  0  0  0  0
    8.5047   -1.6610   -2.1832 H   0  0  0  0  0  0  0  0  0  0  0  0
    4.9072   -2.3136    0.1802 H   0  0  0  0  0  0  0  0  0  0  0  0
    2.7615   -1.7661    1.2335 H   0  0  0  0  0  0  0  0  0  0  0  0
    1.4329   -0.2340    2.5825 H   0  0  0  0  0  0  0  0  0  0  0  0
    2.0682    1.3457    3.0436 H   0  0  0  0  0  0  0  0  0  0  0  0
    0.7201    0.6712    0.4493 H   0  0  0  0  0  0  0  0  0  0  0  0
   -0.6245    3.9072    0.2134 H   0  0  0  0  0  0  0  0  0  0  0  0
    0.6643    3.3636   -0.8677 H   0  0  0  0  0  0  0  0  0  0  0  0
   -3.0019    1.0265   -1.6483 H   0  0  0  0  0  0  0  0  0  0  0  0
   -2.1464   -0.2018   -0.6754 H   0  0  0  0  0  0  0  0  0  0  0  0
   -4.7121    1.2567    0.1497 H   0  0  0  0  0  0  0  0  0  0  0  0
   -3.8446    0.1070    1.1537 H   0  0  0  0  0  0  0  0  0  0  0  0
   -4.1947   -1.6886   -0.5497 H   0  0  0  0  0  0  0  0  0  0  0  0
   -4.5716   -0.6266   -2.6958 H   0  0  0  0  0  0  0  0  0  0  0  0
   -5.7476    0.5044   -2.0108 H   0  0  0  0  0  0  0  0  0  0  0  0
   -6.1517   -2.3624   -2.7632 H   0  0  0  0  0  0  0  0  0  0  0  0
   -7.3270   -1.0483   -2.6716 H   0  0  0  0  0  0  0  0  0  0  0  0
   -7.9748   -1.9455   -0.6018 H   0  0  0  0  0  0  0  0  0  0  0  0
   -6.6029   -3.0585   -0.6407 H   0  0  0  0  0  0  0  0  0  0  0  0
   -5.9322   -1.6596    1.1674 H   0  0  0  0  0  0  0  0  0  0  0  0
   -6.6991   -0.2312    0.4487 H   0  0  0  0  0  0  0  0  0  0  0  0
    4.0370    2.3272    1.7284 H   0  0  0  0  0  0  0  0  0  0  0  0
    6.1955    1.7805    0.6716 H   0  0  0  0  0  0  0  0  0  0  0  0
  1  2  1  0
  2  3  1  0
  3  4  2  0
  3  5  1  0
  5  6  2  0
  6  7  1  0
  7  8  2  0
  8  9  1  0
  9 10  1  0
 10 11  1  0
 11 12  2  0
 11 13  1  0
 13 14  1  0
 14 15  1  0
 15 16  2  0
 15 17  1  0
 17 18  1  0
 18 19  1  0
 19 20  1  0
 20 21  1  0
 21 22  1  0
 22 23  1  0
  8 24  1  0
 24 25  2  0
 25  5  1  0
 23 19  1  0
  1 26  1  0
  1 27  1  0
  1 28  1  0
  6 29  1  0
  7 30  1  0
  9 31  1  0
  9 32  1  0
 10 33  1  0
 13 34  1  0
 13 35  1  0
 17 36  1  0
 17 37  1  0
 18 38  1  0
 18 39  1  0
 19 40  1  0
 20 41  1  0
 20 42  1  0
 21 43  1  0
 21 44  1  0
 22 45  1  0
 22 46  1  0
 23 47  1  0
 23 48  1  0
 24 49  1  0
 25 50  1  0
M  END
$$$$
