
     RDKit          3D

 46 49  0  0  0  0  0  0  0  0999 V2000
    5.7612   -0.9707    0.8474 C   0  0  0  0  0  0  0  0  0  0  0  0
    5.4887    0.4625    0.7260 N   0  0  0  0  0  0  0  0  0  0  0  0
    6.5074    1.1204   -0.1079 C   0  0  0  0  0  0  0  0  0  0  0  0
    6.0283    0.9805   -1.5454 C   0  0  0  0  0  0  0  0  0  0  0  0
    4.5338    0.7006   -1.4455 C   0  0  0  0  0  0  0  0  0  0  0  0
    4.2126    0.7842    0.0489 C   0  0  0  0  0  0  0  0  0  0  0  0
    2.9904   -0.0424    0.4717 C   0  0  0  0  0  0  0  0  0  0  0  0
    1.6950    0.4892   -0.1493 C   0  0  0  0  0  0  0  0  0  0  0  0
    0.5695   -0.3257    0.3004 N   0  0  0  0  0  0  0  0  0  0  0  0
   -0.7334    0.0199   -0.0671 C   0  0  0  0  0  0  0  0  0  0  0  0
   -1.0450    0.8040   -1.1769 C   0  0  0  0  0  0  0  0  0  0  0  0
   -2.3760    1.0516   -1.5350 C   0  0  0  0  0  0  0  0  0  0  0  0
   -3.4390    0.4980   -0.8089 C   0  0  0  0  0  0  0  0  0  0  0  0
   -5.0751    0.8925   -1.3571 S   0  0  0  0  0  0  0  0  0  0  0  0
   -6.1099   -0.0551   -0.2755 C   0  0  0  0  0  0  0  0  0  0  0  0
   -7.4946    0.0077   -0.5094 C   0  0  0  0  0  0  0  0  0  0  0  0
   -8.3949   -0.6975    0.2916 C   0  0  0  0  0  0  0  0  0  0  0  0
   -7.9223   -1.4759    1.3407 C   0  0  0  0  0  0  0  0  0  0  0  0
   -6.5511   -1.5461    1.5836 C   0  0  0  0  0  0  0  0  0  0  0  0
   -5.6386   -0.8387    0.7786 C   0  0  0  0  0  0  0  0  0  0  0  0
   -4.1974   -0.9641    1.0983 C   0  0  0  0  0  0  0  0  0  0  0  0
   -3.8639   -1.6295    2.0782 O   0  0  0  0  0  0  0  0  0  0  0  0
   -3.1454   -0.3193    0.2786 C   0  0  0  0  0  0  0  0  0  0  0  0
   -1.8015   -0.5610    0.6293 C   0  0  0  0  0  0  0  0  0  0  0  0
    5.7298   -1.4993   -0.1115 H   0  0  0  0  0  0  0  0  0  0  0  0
    5.0479   -1.4444    1.5298 H   0  0  0  0  0  0  0  0  0  0  0  0
    6.7509   -1.1311    1.2905 H   0  0  0  0  0  0  0  0  0  0  0  0
    7.5186    0.7244    0.0377 H   0  0  0  0  0  0  0  0  0  0  0  0
    6.5452    2.1831    0.1630 H   0  0  0  0  0  0  0  0  0  0  0  0
    6.5309    0.1453   -2.0462 H   0  0  0  0  0  0  0  0  0  0  0  0
    6.2303    1.8890   -2.1220 H   0  0  0  0  0  0  0  0  0  0  0  0
    3.9568    1.4309   -2.0225 H   0  0  0  0  0  0  0  0  0  0  0  0
    4.3171   -0.2944   -1.8521 H   0  0  0  0  0  0  0  0  0  0  0  0
    3.9947    1.8349    0.2900 H   0  0  0  0  0  0  0  0  0  0  0  0
    2.8992   -0.0199    1.5656 H   0  0  0  0  0  0  0  0  0  0  0  0
    3.1146   -1.0951    0.1875 H   0  0  0  0  0  0  0  0  0  0  0  0
    1.5459    1.5338    0.1491 H   0  0  0  0  0  0  0  0  0  0  0  0
    1.7729    0.4436   -1.2409 H   0  0  0  0  0  0  0  0  0  0  0  0
    0.6262   -0.5743    1.2872 H   0  0  0  0  0  0  0  0  0  0  0  0
   -0.2646    1.2406   -1.7927 H   0  0  0  0  0  0  0  0  0  0  0  0
   -2.5698    1.6815   -2.4018 H   0  0  0  0  0  0  0  0  0  0  0  0
   -7.8881    0.6127   -1.3249 H   0  0  0  0  0  0  0  0  0  0  0  0
   -9.4625   -0.6363    0.0948 H   0  0  0  0  0  0  0  0  0  0  0  0
   -8.6155   -2.0281    1.9705 H   0  0  0  0  0  0  0  0  0  0  0  0
   -6.1926   -2.1597    2.4091 H   0  0  0  0  0  0  0  0  0  0  0  0
   -1.5863   -1.2221    1.4682 H   0  0  0  0  0  0  0  0  0  0  0  0
  1  2  1  0
  2  3  1  0
  3  4  1  0
  4  5  1  0
  5  6  1  0
  6  7  1  0
  7  8  1  0
  8  9  1  0
  9 10  1  0
 10 11  2  0
 11 12  1  0
 12 13  2  0
 13 14  1  0
 14 15  1  0
 15 16  2  0
 16 17  1  0
 17 18  2  0
 18 19  1  0
 19 20  2  0
 20 21  1  0
 21 22  2  0
 21 23  1  0
 23 24  2  0
  6  2  1  0
 24 10  1  0
 23 13  1  0
 20 15  1  0
  1 25  1  0
  1 26  1  0
  1 27  1  0
  3 28  1  0
  3 29  1  0
  4 30  1  0
  4 31  1  0
  5 32  1  0
  5 33  1  0
  6 34  1  0
  7 35  1  0
  7 36  1  0
  8 37  1  0
  8 38  1  0
  9 39  1  0
 11 40  1  0
 12 41  1  0
 16 42  1  0
 17 43  1  0
 18 44  1  0
 19 45  1  0
 24 46  1  0
M  END
$$$$
