
     RDKit          3D

 47 49  0  0  0  0  0  0  0  0999 V2000
    7.2280    0.6842   -0.8235 C   0  0  0  0  0  0  0  0  0  0  0  0
    6.7191   -0.7472   -0.8943 C   0  0  0  0  0  0  0  0  0  0  0  0
    5.2046   -0.8646   -0.7138 C   0  0  0  0  0  0  0  0  0  0  0  0
    4.7282   -0.4408    0.6782 C   0  0  0  0  0  0  0  0  0  0  0  0
    3.3033   -0.6939    0.8803 N   0  0  0  0  0  0  0  0  0  0  0  0
    2.3635    0.2513    0.2998 C   0  0  0  0  0  0  0  0  0  0  0  0
    0.9534    0.0309    0.7298 C   0  0  0  0  0  0  0  0  0  0  0  0
   -0.0485    0.9879    0.5464 C   0  0  0  0  0  0  0  0  0  0  0  0
   -1.3632    0.6783    0.8988 C   0  0  0  0  0  0  0  0  0  0  0  0
   -2.4188    1.6972    0.7355 C   0  0  0  0  0  0  0  0  0  0  0  0
   -2.1366    2.8772    0.9448 O   0  0  0  0  0  0  0  0  0  0  0  0
   -3.8123    1.3600    0.3524 C   0  0  0  0  0  0  0  0  0  0  0  0
   -4.1033    0.2438   -0.4420 C   0  0  0  0  0  0  0  0  0  0  0  0
   -5.4260   -0.0636   -0.7815 C   0  0  0  0  0  0  0  0  0  0  0  0
   -5.5653   -1.1859   -1.5505 O   0  0  0  0  0  0  0  0  0  0  0  0
   -6.8877   -1.5457   -1.9332 C   0  0  0  0  0  0  0  0  0  0  0  0
   -6.4619    0.7576   -0.3346 C   0  0  0  0  0  0  0  0  0  0  0  0
   -6.1767    1.8898    0.4328 C   0  0  0  0  0  0  0  0  0  0  0  0
   -4.8594    2.1954    0.7611 C   0  0  0  0  0  0  0  0  0  0  0  0
   -4.6613    3.3374    1.4892 O   0  0  0  0  0  0  0  0  0  0  0  0
   -1.6146   -0.5732    1.4442 C   0  0  0  0  0  0  0  0  0  0  0  0
   -0.6640   -1.5239    1.6130 N   0  0  0  0  0  0  0  0  0  0  0  0
    0.5953   -1.1963    1.2581 C   0  0  0  0  0  0  0  0  0  0  0  0
    1.5717   -2.1537    1.4429 N   0  0  0  0  0  0  0  0  0  0  0  0
    2.9070   -1.9518    1.2912 C   0  0  0  0  0  0  0  0  0  0  0  0
    3.6947   -2.8603    1.5478 O   0  0  0  0  0  0  0  0  0  0  0  0
    8.2981    0.7139   -1.0523 H   0  0  0  0  0  0  0  0  0  0  0  0
    6.7093    1.3220   -1.5461 H   0  0  0  0  0  0  0  0  0  0  0  0
    7.0913    1.1096    0.1750 H   0  0  0  0  0  0  0  0  0  0  0  0
    6.9858   -1.1640   -1.8728 H   0  0  0  0  0  0  0  0  0  0  0  0
    7.2331   -1.3550   -0.1406 H   0  0  0  0  0  0  0  0  0  0  0  0
    4.9159   -1.9072   -0.8959 H   0  0  0  0  0  0  0  0  0  0  0  0
    4.6971   -0.2674   -1.4809 H   0  0  0  0  0  0  0  0  0  0  0  0
    4.9074    0.6258    0.8511 H   0  0  0  0  0  0  0  0  0  0  0  0
    5.2935   -0.9894    1.4410 H   0  0  0  0  0  0  0  0  0  0  0  0
    2.4231    0.1615   -0.7907 H   0  0  0  0  0  0  0  0  0  0  0  0
    2.6811    1.2588    0.5918 H   0  0  0  0  0  0  0  0  0  0  0  0
    0.1889    1.9643    0.1291 H   0  0  0  0  0  0  0  0  0  0  0  0
   -3.3142   -0.3978   -0.8266 H   0  0  0  0  0  0  0  0  0  0  0  0
   -7.5037   -1.7726   -1.0568 H   0  0  0  0  0  0  0  0  0  0  0  0
   -7.3464   -0.7648   -2.5487 H   0  0  0  0  0  0  0  0  0  0  0  0
   -6.8244   -2.4540   -2.5400 H   0  0  0  0  0  0  0  0  0  0  0  0
   -7.5008    0.5545   -0.5737 H   0  0  0  0  0  0  0  0  0  0  0  0
   -6.9814    2.5401    0.7668 H   0  0  0  0  0  0  0  0  0  0  0  0
   -3.6992    3.5428    1.4703 H   0  0  0  0  0  0  0  0  0  0  0  0
   -2.6036   -0.8672    1.7853 H   0  0  0  0  0  0  0  0  0  0  0  0
    1.2801   -3.0441    1.8167 H   0  0  0  0  0  0  0  0  0  0  0  0
  1  2  1  0
  2  3  1  0
  3  4  1  0
  4  5  1  0
  5  6  1  0
  6  7  1  0
  7  8  2  0
  8  9  1  0
  9 10  1  0
 10 11  2  0
 10 12  1  0
 12 13  2  0
 13 14  1  0
 14 15  1  0
 15 16  1  0
 14 17  2  0
 17 18  1  0
 18 19  2  0
 19 20  1  0
  9 21  2  0
 21 22  1  0
 22 23  2  0
 23 24  1  0
 24 25  1  0
 25 26  2  0
 25  5  1  0
 23  7  1  0
 19 12  1  0
  1 27  1  0
  1 28  1  0
  1 29  1  0
  2 30  1  0
  2 31  1  0
  3 32  1  0
  3 33  1  0
  4 34  1  0
  4 35  1  0
  6 36  1  0
  6 37  1  0
  8 38  1  0
 13 39  1  0
 16 40  1  0
 16 41  1  0
 16 42  1  0
 17 43  1  0
 18 44  1  0
 20 45  1  0
 21 46  1  0
 24 47  1  0
M  END
$$$$
