
     RDKit          3D

 33 35  0  0  0  0  0  0  0  0999 V2000
   -4.0565   -0.7023    3.7765 C   0  0  0  0  0  0  0  0  0  0  0  0
   -2.9615   -0.4682    2.7477 C   0  0  0  0  0  0  0  0  0  0  0  0
   -3.3714   -0.8605    1.3721 C   0  0  0  0  0  0  0  0  0  0  0  0
   -4.5256   -1.3713    0.9815 N   0  0  0  0  0  0  0  0  0  0  0  0
   -4.4727   -1.5571   -0.3821 N   0  0  0  0  0  0  0  0  0  0  0  0
   -3.2863   -1.1684   -0.7760 C   0  0  0  0  0  0  0  0  0  0  0  0
   -2.5321   -0.7353    0.2837 N   0  0  0  0  0  0  0  0  0  0  0  0
   -1.2646   -0.2256    0.3052 N   0  0  0  0  0  0  0  0  0  0  0  0
   -0.5362   -0.3963   -0.7640 C   0  0  0  0  0  0  0  0  0  0  0  0
    0.8345    0.2096   -0.7631 C   0  0  0  0  0  0  0  0  0  0  0  0
    1.0535    1.3860   -0.0388 C   0  0  0  0  0  0  0  0  0  0  0  0
    2.3219    1.9715   -0.0199 C   0  0  0  0  0  0  0  0  0  0  0  0
    3.3860    1.3906   -0.7130 C   0  0  0  0  0  0  0  0  0  0  0  0
    4.5699    2.0656   -0.6104 O   0  0  0  0  0  0  0  0  0  0  0  0
    5.6885    1.5182   -1.2970 C   0  0  0  0  0  0  0  0  0  0  0  0
    3.1717    0.2104   -1.4255 C   0  0  0  0  0  0  0  0  0  0  0  0
    1.9014   -0.3812   -1.4494 C   0  0  0  0  0  0  0  0  0  0  0  0
   -0.9219   -1.2252   -1.9849 C   0  0  0  0  0  0  0  0  0  0  0  0
   -2.6762   -1.1046   -2.3810 S   0  0  0  0  0  0  0  0  0  0  0  0
   -4.3384   -1.7598    3.8221 H   0  0  0  0  0  0  0  0  0  0  0  0
   -3.7128   -0.4002    4.7709 H   0  0  0  0  0  0  0  0  0  0  0  0
   -4.9551   -0.1231    3.5380 H   0  0  0  0  0  0  0  0  0  0  0  0
   -2.0721   -1.0394    3.0387 H   0  0  0  0  0  0  0  0  0  0  0  0
   -2.6868    0.5931    2.7563 H   0  0  0  0  0  0  0  0  0  0  0  0
    0.2435    1.8597    0.5114 H   0  0  0  0  0  0  0  0  0  0  0  0
    2.4823    2.8888    0.5425 H   0  0  0  0  0  0  0  0  0  0  0  0
    5.9413    0.5255   -0.9103 H   0  0  0  0  0  0  0  0  0  0  0  0
    6.5455    2.1742   -1.1164 H   0  0  0  0  0  0  0  0  0  0  0  0
    5.5128    1.4892   -2.3774 H   0  0  0  0  0  0  0  0  0  0  0  0
    3.9735   -0.2795   -1.9689 H   0  0  0  0  0  0  0  0  0  0  0  0
    1.7806   -1.3125   -1.9958 H   0  0  0  0  0  0  0  0  0  0  0  0
   -0.6708   -2.2714   -1.7797 H   0  0  0  0  0  0  0  0  0  0  0  0
   -0.3658   -0.9006   -2.8684 H   0  0  0  0  0  0  0  0  0  0  0  0
  1  2  1  0
  2  3  1  0
  3  4  2  0
  4  5  1  0
  5  6  2  0
  6  7  1  0
  7  8  1  0
  8  9  2  0
  9 10  1  0
 10 11  2  0
 11 12  1  0
 12 13  2  0
 13 14  1  0
 14 15  1  0
 13 16  1  0
 16 17  2  0
  9 18  1  0
 18 19  1  0
  7  3  1  0
 17 10  1  0
 19  6  1  0
  1 20  1  0
  1 21  1  0
  1 22  1  0
  2 23  1  0
  2 24  1  0
 11 25  1  0
 12 26  1  0
 15 27  1  0
 15 28  1  0
 15 29  1  0
 16 30  1  0
 17 31  1  0
 18 32  1  0
 18 33  1  0
M  END
$$$$
