
     RDKit          3D

 52 56  0  0  0  0  0  0  0  0999 V2000
   -3.9426   -0.7454    0.0927 C   0  0  0  0  0  0  0  0  0  0  0  0
   -2.7566    0.0516   -0.4350 C   0  0  0  0  0  0  0  0  0  0  0  0
   -1.4104   -0.5780   -0.0640 C   0  0  0  0  0  0  0  0  0  0  0  0
   -1.1614   -0.7582    1.4193 C   0  0  0  0  0  0  0  0  0  0  0  0
   -1.4746   -1.8189    1.9473 O   0  0  0  0  0  0  0  0  0  0  0  0
   -0.5597    0.3354    2.2318 C   0  0  0  0  0  0  0  0  0  0  0  0
   -0.5764    1.6763    1.8291 C   0  0  0  0  0  0  0  0  0  0  0  0
    0.0414    2.6528    2.6183 C   0  0  0  0  0  0  0  0  0  0  0  0
    0.6744    2.2918    3.8066 C   0  0  0  0  0  0  0  0  0  0  0  0
    1.4468    3.4954    4.7614 Cl  0  0  0  0  0  0  0  0  0  0  0  0
    0.6843    0.9632    4.2229 C   0  0  0  0  0  0  0  0  0  0  0  0
    0.0640   -0.0130    3.4387 C   0  0  0  0  0  0  0  0  0  0  0  0
   -0.9016   -1.7265   -0.9427 C   0  0  0  0  0  0  0  0  0  0  0  0
   -1.5335   -2.1620   -2.2286 C   0  0  0  0  0  0  0  0  0  0  0  0
   -2.2313   -3.3738   -2.3339 C   0  0  0  0  0  0  0  0  0  0  0  0
   -2.7770   -3.7921   -3.5516 C   0  0  0  0  0  0  0  0  0  0  0  0
   -2.6309   -3.0044   -4.6921 C   0  0  0  0  0  0  0  0  0  0  0  0
   -1.9456   -1.7958   -4.6136 C   0  0  0  0  0  0  0  0  0  0  0  0
   -1.4112   -1.3931   -3.3894 C   0  0  0  0  0  0  0  0  0  0  0  0
   -0.7833   -0.1283   -3.3692 O   0  0  0  0  0  0  0  0  0  0  0  0
   -0.3307    0.4659   -2.1915 C   0  0  0  0  0  0  0  0  0  0  0  0
   -0.0658    1.6626   -2.1206 O   0  0  0  0  0  0  0  0  0  0  0  0
   -0.1624   -0.3996   -0.9885 C   0  0  0  0  0  0  0  0  0  0  0  0
    1.2149   -0.3819   -0.3551 C   0  0  0  0  0  0  0  0  0  0  0  0
    1.7030   -1.4308    0.0427 O   0  0  0  0  0  0  0  0  0  0  0  0
    1.7791    0.8744   -0.2498 N   0  0  0  0  0  0  0  0  0  0  0  0
    2.9461    1.2392    0.4511 C   0  0  0  0  0  0  0  0  0  0  0  0
    3.3244    2.5873    0.3978 C   0  0  0  0  0  0  0  0  0  0  0  0
    4.4473    3.0409    1.0939 C   0  0  0  0  0  0  0  0  0  0  0  0
    5.2032    2.1498    1.8500 C   0  0  0  0  0  0  0  0  0  0  0  0
    4.8359    0.8077    1.9072 C   0  0  0  0  0  0  0  0  0  0  0  0
    3.7112    0.3533    1.2110 C   0  0  0  0  0  0  0  0  0  0  0  0
   -3.9173   -1.7814   -0.2574 H   0  0  0  0  0  0  0  0  0  0  0  0
   -3.9568   -0.7601    1.1870 H   0  0  0  0  0  0  0  0  0  0  0  0
   -4.8804   -0.2937   -0.2457 H   0  0  0  0  0  0  0  0  0  0  0  0
   -2.8739    0.1632   -1.5167 H   0  0  0  0  0  0  0  0  0  0  0  0
   -2.8110    1.0655   -0.0265 H   0  0  0  0  0  0  0  0  0  0  0  0
   -1.0480    1.9924    0.9051 H   0  0  0  0  0  0  0  0  0  0  0  0
    0.0344    3.6913    2.2967 H   0  0  0  0  0  0  0  0  0  0  0  0
    1.1775    0.6774    5.1482 H   0  0  0  0  0  0  0  0  0  0  0  0
    0.0869   -1.0523    3.7639 H   0  0  0  0  0  0  0  0  0  0  0  0
   -0.4170   -2.5401   -0.3993 H   0  0  0  0  0  0  0  0  0  0  0  0
   -2.3465   -4.0069   -1.4552 H   0  0  0  0  0  0  0  0  0  0  0  0
   -3.3117   -4.7375   -3.6083 H   0  0  0  0  0  0  0  0  0  0  0  0
   -3.0540   -3.3319   -5.6384 H   0  0  0  0  0  0  0  0  0  0  0  0
   -1.8369   -1.1698   -5.4947 H   0  0  0  0  0  0  0  0  0  0  0  0
    1.2959    1.6362   -0.7236 H   0  0  0  0  0  0  0  0  0  0  0  0
    2.7502    3.3043   -0.1835 H   0  0  0  0  0  0  0  0  0  0  0  0
    4.7300    4.0893    1.0469 H   0  0  0  0  0  0  0  0  0  0  0  0
    6.0766    2.4992    2.3944 H   0  0  0  0  0  0  0  0  0  0  0  0
    5.4225    0.1078    2.4972 H   0  0  0  0  0  0  0  0  0  0  0  0
    3.4583   -0.6989    1.2926 H   0  0  0  0  0  0  0  0  0  0  0  0
  1  2  1  0
  2  3  1  0
  3  4  1  0
  4  5  2  0
  4  6  1  0
  6  7  2  0
  7  8  1  0
  8  9  2  0
  9 10  1  0
  9 11  1  0
 11 12  2  0
  3 13  1  0
 13 14  1  0
 14 15  2  0
 15 16  1  0
 16 17  2  0
 17 18  1  0
 18 19  2  0
 19 20  1  0
 20 21  1  0
 21 22  2  0
 21 23  1  0
 23 24  1  0
 24 25  2  0
 24 26  1  0
 26 27  1  0
 27 28  2  0
 28 29  1  0
 29 30  2  0
 30 31  1  0
 31 32  2  0
 23  3  1  0
 32 27  1  0
 12  6  1  0
 23 13  1  0
 19 14  1  0
  1 33  1  0
  1 34  1  0
  1 35  1  0
  2 36  1  0
  2 37  1  0
  7 38  1  0
  8 39  1  0
 11 40  1  0
 12 41  1  0
 13 42  1  0
 15 43  1  0
 16 44  1  0
 17 45  1  0
 18 46  1  0
 26 47  1  0
 28 48  1  0
 29 49  1  0
 30 50  1  0
 31 51  1  0
 32 52  1  0
M  END
$$$$
