
     RDKit          3D

 73 75  0  0  0  0  0  0  0  0999 V2000
    8.2349   -4.4175   -2.1759 C   0  0  0  0  0  0  0  0  0  0  0  0
    7.2140   -3.4763   -1.5546 C   0  0  0  0  0  0  0  0  0  0  0  0
    7.6915   -2.0247   -1.6106 C   0  0  0  0  0  0  0  0  0  0  0  0
    6.7586   -1.0425   -0.8948 C   0  0  0  0  0  0  0  0  0  0  0  0
    5.3541   -0.9861   -1.5018 C   0  0  0  0  0  0  0  0  0  0  0  0
    4.5329    0.2197   -1.0279 C   0  0  0  0  0  0  0  0  0  0  0  0
    4.2511    0.2168    0.4767 C   0  0  0  0  0  0  0  0  0  0  0  0
    3.4393    1.4324    0.9424 C   0  0  0  0  0  0  0  0  0  0  0  0
    2.0349    1.5642    0.3389 C   0  0  0  0  0  0  0  0  0  0  0  0
    1.1260    0.3818    0.6778 C   0  0  0  0  0  0  0  0  0  0  0  0
   -0.3597    0.5894    0.3603 C   0  0  0  0  0  0  0  0  0  0  0  0
   -0.7816    0.4586   -1.1230 N   0  0  0  0  0  4  0  0  0  0  0  0
   -0.4081    1.6829   -1.9497 C   0  0  0  0  0  0  0  0  0  0  0  0
   -0.1531   -0.7809   -1.7689 C   0  0  0  0  0  0  0  0  0  0  0  0
   -2.3301    0.2456   -1.1813 C   0  0  0  0  0  0  0  0  0  0  0  0
   -3.1435    1.4802   -0.7569 C   0  0  0  0  0  0  0  0  0  0  0  0
   -4.5811    1.1017   -0.5106 C   0  0  0  0  0  0  0  0  0  0  0  0
   -5.2450    1.0280    0.6673 C   0  0  0  0  0  0  0  0  0  0  0  0
   -6.5802    0.3695    0.6529 C   0  0  0  0  0  0  0  0  0  0  0  0
   -7.5951    0.7521   -0.2373 C   0  0  0  0  0  0  0  0  0  0  0  0
   -8.8281    0.0961   -0.2239 C   0  0  0  0  0  0  0  0  0  0  0  0
   -9.0586   -0.9406    0.6790 C   0  0  0  0  0  0  0  0  0  0  0  0
   -8.0646   -1.3146    1.5855 C   0  0  0  0  0  0  0  0  0  0  0  0
   -6.8282   -0.6572    1.5873 C   0  0  0  0  0  0  0  0  0  0  0  0
   -5.5872   -1.1635    2.7854 S   0  0  0  0  0  0  0  0  0  0  0  0
   -4.6881    0.3739    3.0026 C   0  0  0  0  0  0  0  0  0  0  0  0
   -4.0860    0.6294    4.2417 C   0  0  0  0  0  0  0  0  0  0  0  0
   -3.4200    1.8367    4.4670 C   0  0  0  0  0  0  0  0  0  0  0  0
   -3.3805    2.7997    3.4624 C   0  0  0  0  0  0  0  0  0  0  0  0
   -2.5706    4.2916    3.7359 Cl  0  0  0  0  0  0  0  0  0  0  0  0
   -3.9844    2.5622    2.2286 C   0  0  0  0  0  0  0  0  0  0  0  0
   -4.6023    1.3290    1.9715 C   0  0  0  0  0  0  0  0  0  0  0  0
    9.1815   -4.3841   -1.6278 H   0  0  0  0  0  0  0  0  0  0  0  0
    8.4318   -4.1499   -3.2180 H   0  0  0  0  0  0  0  0  0  0  0  0
    7.8689   -5.4477   -2.1552 H   0  0  0  0  0  0  0  0  0  0  0  0
    7.0369   -3.7723   -0.5145 H   0  0  0  0  0  0  0  0  0  0  0  0
    6.2655   -3.5839   -2.0913 H   0  0  0  0  0  0  0  0  0  0  0  0
    8.6841   -1.9524   -1.1473 H   0  0  0  0  0  0  0  0  0  0  0  0
    7.8110   -1.7166   -2.6571 H   0  0  0  0  0  0  0  0  0  0  0  0
    7.2141   -0.0461   -0.9374 H   0  0  0  0  0  0  0  0  0  0  0  0
    6.6958   -1.3167    0.1648 H   0  0  0  0  0  0  0  0  0  0  0  0
    4.8084   -1.9070   -1.2644 H   0  0  0  0  0  0  0  0  0  0  0  0
    5.4318   -0.9327   -2.5950 H   0  0  0  0  0  0  0  0  0  0  0  0
    3.5867    0.2118   -1.5818 H   0  0  0  0  0  0  0  0  0  0  0  0
    5.0539    1.1450   -1.3038 H   0  0  0  0  0  0  0  0  0  0  0  0
    3.7399   -0.7097    0.7589 H   0  0  0  0  0  0  0  0  0  0  0  0
    5.1988    0.2267    1.0270 H   0  0  0  0  0  0  0  0  0  0  0  0
    4.0044    2.3439    0.7119 H   0  0  0  0  0  0  0  0  0  0  0  0
    3.3519    1.3931    2.0353 H   0  0  0  0  0  0  0  0  0  0  0  0
    2.1219    1.6906   -0.7409 H   0  0  0  0  0  0  0  0  0  0  0  0
    1.5854    2.4866    0.7284 H   0  0  0  0  0  0  0  0  0  0  0  0
    1.5025   -0.5417    0.2299 H   0  0  0  0  0  0  0  0  0  0  0  0
    1.1902    0.2224    1.7632 H   0  0  0  0  0  0  0  0  0  0  0  0
   -0.9295   -0.1747    0.9023 H   0  0  0  0  0  0  0  0  0  0  0  0
   -0.6890    1.5712    0.7150 H   0  0  0  0  0  0  0  0  0  0  0  0
    0.6545    1.6453   -2.1932 H   0  0  0  0  0  0  0  0  0  0  0  0
   -0.9871    1.6609   -2.8806 H   0  0  0  0  0  0  0  0  0  0  0  0
   -0.6431    2.5827   -1.3736 H   0  0  0  0  0  0  0  0  0  0  0  0
   -0.3682   -1.6465   -1.1359 H   0  0  0  0  0  0  0  0  0  0  0  0
   -0.5901   -0.9152   -2.7638 H   0  0  0  0  0  0  0  0  0  0  0  0
    0.9243   -0.6219   -1.8684 H   0  0  0  0  0  0  0  0  0  0  0  0
   -2.5772   -0.0225   -2.2161 H   0  0  0  0  0  0  0  0  0  0  0  0
   -2.5485   -0.6203   -0.5442 H   0  0  0  0  0  0  0  0  0  0  0  0
   -3.1238    2.2357   -1.5521 H   0  0  0  0  0  0  0  0  0  0  0  0
   -2.6951    1.9482    0.1160 H   0  0  0  0  0  0  0  0  0  0  0  0
   -5.1030    0.7864   -1.4180 H   0  0  0  0  0  0  0  0  0  0  0  0
   -7.4431    1.5695   -0.9382 H   0  0  0  0  0  0  0  0  0  0  0  0
   -9.6148    0.3996   -0.9105 H   0  0  0  0  0  0  0  0  0  0  0  0
  -10.0197   -1.4505    0.6882 H   0  0  0  0  0  0  0  0  0  0  0  0
   -8.2616   -2.1193    2.2879 H   0  0  0  0  0  0  0  0  0  0  0  0
   -4.1557   -0.0988    5.0500 H   0  0  0  0  0  0  0  0  0  0  0  0
   -2.9633    2.0270    5.4357 H   0  0  0  0  0  0  0  0  0  0  0  0
   -3.9922    3.3461    1.4755 H   0  0  0  0  0  0  0  0  0  0  0  0
  1  2  1  0
  2  3  1  0
  3  4  1  0
  4  5  1  0
  5  6  1  0
  6  7  1  0
  7  8  1  0
  8  9  1  0
  9 10  1  0
 10 11  1  0
 11 12  1  0
 12 13  1  0
 12 14  1  0
 12 15  1  0
 15 16  1  0
 16 17  1  0
 17 18  2  3
 18 19  1  0
 19 20  2  0
 20 21  1  0
 21 22  2  0
 22 23  1  0
 23 24  2  0
 24 25  1  0
 25 26  1  0
 26 27  2  0
 27 28  1  0
 28 29  2  0
 29 30  1  0
 29 31  1  0
 31 32  2  0
 32 18  1  0
 24 19  1  0
 32 26  1  0
  1 33  1  0
  1 34  1  0
  1 35  1  0
  2 36  1  0
  2 37  1  0
  3 38  1  0
  3 39  1  0
  4 40  1  0
  4 41  1  0
  5 42  1  0
  5 43  1  0
  6 44  1  0
  6 45  1  0
  7 46  1  0
  7 47  1  0
  8 48  1  0
  8 49  1  0
  9 50  1  0
  9 51  1  0
 10 52  1  0
 10 53  1  0
 11 54  1  0
 11 55  1  0
 13 56  1  0
 13 57  1  0
 13 58  1  0
 14 59  1  0
 14 60  1  0
 14 61  1  0
 15 62  1  0
 15 63  1  0
 16 64  1  0
 16 65  1  0
 17 66  1  0
 20 67  1  0
 21 68  1  0
 22 69  1  0
 23 70  1  0
 27 71  1  0
 28 72  1  0
 31 73  1  0
M  CHG  1  12   1
M  END
$$$$
