
     RDKit          3D

 40 42  0  0  0  0  0  0  0  0999 V2000
    4.8583   -2.7438   -1.9381 C   0  0  0  0  0  0  0  0  0  0  0  0
    3.7822   -1.7052   -2.0208 C   0  0  0  0  0  0  0  0  0  0  0  0
    3.4849   -1.0937   -3.0364 O   0  0  0  0  0  0  0  0  0  0  0  0
    3.1864   -1.5513   -0.8063 O   0  0  0  0  0  0  0  0  0  0  0  0
    2.1547   -0.5517   -0.7844 C   0  0  0  0  0  0  0  0  0  0  0  0
    1.5695   -0.4837    0.6265 C   0  0  0  0  0  0  0  0  0  0  0  0
    0.4870    0.5024    0.7157 N   0  0  0  0  0  0  0  0  0  0  0  0
    0.7782    1.8270    1.0230 C   0  0  0  0  0  0  0  0  0  0  0  0
    1.9848    2.2587    1.2327 N   0  0  0  0  0  0  0  0  0  0  0  0
    2.2462    3.5629    1.5488 C   0  0  0  0  0  0  0  0  0  0  0  0
    3.3233    3.9114    2.0212 O   0  0  0  0  0  0  0  0  0  0  0  0
    1.2841    4.5125    1.3629 N   0  0  0  0  0  0  0  0  0  0  0  0
   -0.0396    4.2249    1.4864 C   0  0  0  0  0  0  0  0  0  0  0  0
   -0.8735    5.0116    1.9014 O   0  0  0  0  0  0  0  0  0  0  0  0
   -0.3673    2.8046    1.1187 C   0  0  0  0  0  0  0  0  0  0  0  0
   -1.5948    2.4629    0.8731 N   0  0  0  0  0  0  0  0  0  0  0  0
   -1.8558    1.1297    0.5054 C   0  0  0  0  0  0  0  0  0  0  0  0
   -3.1876    0.8077    0.2188 C   0  0  0  0  0  0  0  0  0  0  0  0
   -3.5637   -0.4835   -0.1699 C   0  0  0  0  0  0  0  0  0  0  0  0
   -5.0089   -0.7724   -0.4681 C   0  0  0  0  0  0  0  0  0  0  0  0
   -2.5739   -1.4727   -0.2776 C   0  0  0  0  0  0  0  0  0  0  0  0
   -2.9172   -2.8773   -0.6979 C   0  0  0  0  0  0  0  0  0  0  0  0
   -1.2342   -1.1475    0.0147 C   0  0  0  0  0  0  0  0  0  0  0  0
   -0.8453    0.1440    0.4125 C   0  0  0  0  0  0  0  0  0  0  0  0
    5.3377   -2.8474   -2.9157 H   0  0  0  0  0  0  0  0  0  0  0  0
    5.6144   -2.4371   -1.2110 H   0  0  0  0  0  0  0  0  0  0  0  0
    4.4232   -3.7066   -1.6588 H   0  0  0  0  0  0  0  0  0  0  0  0
    1.3764   -0.8189   -1.5086 H   0  0  0  0  0  0  0  0  0  0  0  0
    2.5816    0.4192   -1.0631 H   0  0  0  0  0  0  0  0  0  0  0  0
    2.3753   -0.2310    1.3291 H   0  0  0  0  0  0  0  0  0  0  0  0
    1.2553   -1.4773    0.9675 H   0  0  0  0  0  0  0  0  0  0  0  0
    1.5502    5.4205    1.7153 H   0  0  0  0  0  0  0  0  0  0  0  0
   -3.9367    1.5933    0.3036 H   0  0  0  0  0  0  0  0  0  0  0  0
   -5.1279   -1.0739   -1.5136 H   0  0  0  0  0  0  0  0  0  0  0  0
   -5.6378    0.1093   -0.3047 H   0  0  0  0  0  0  0  0  0  0  0  0
   -5.3818   -1.5666    0.1863 H   0  0  0  0  0  0  0  0  0  0  0  0
   -3.6039   -3.3319    0.0231 H   0  0  0  0  0  0  0  0  0  0  0  0
   -3.3773   -2.8755   -1.6911 H   0  0  0  0  0  0  0  0  0  0  0  0
   -2.0264   -3.5122   -0.7505 H   0  0  0  0  0  0  0  0  0  0  0  0
   -0.5002   -1.9412   -0.0864 H   0  0  0  0  0  0  0  0  0  0  0  0
  1  2  1  0
  2  3  2  0
  2  4  1  0
  4  5  1  0
  5  6  1  0
  6  7  1  0
  7  8  1  0
  8  9  2  0
  9 10  1  0
 10 11  2  0
 10 12  1  0
 12 13  1  0
 13 14  2  0
 13 15  1  0
 15 16  2  0
 16 17  1  0
 17 18  2  0
 18 19  1  0
 19 20  1  0
 19 21  2  0
 21 22  1  0
 21 23  1  0
 23 24  2  0
 24  7  1  0
 15  8  1  0
 24 17  1  0
  1 25  1  0
  1 26  1  0
  1 27  1  0
  5 28  1  0
  5 29  1  0
  6 30  1  0
  6 31  1  0
 12 32  1  0
 18 33  1  0
 20 34  1  0
 20 35  1  0
 20 36  1  0
 22 37  1  0
 22 38  1  0
 22 39  1  0
 23 40  1  0
M  END
$$$$
