
     RDKit          3D

 66 68  0  0  0  0  0  0  0  0999 V2000
   -5.3714    4.9948    3.6986 C   0  0  0  0  0  0  0  0  0  0  0  0
   -4.9515    4.7539    2.3609 O   0  0  0  0  0  0  0  0  0  0  0  0
   -4.9723    3.3558    2.0475 C   0  0  0  0  0  0  0  0  0  0  0  0
   -4.4630    3.1741    0.6132 C   0  0  0  0  0  0  0  0  0  0  0  0
   -3.0814    3.6445    0.4777 N   0  0  0  0  0  0  0  0  0  0  0  0
   -2.0086    2.8361    0.7467 C   0  0  0  0  0  0  0  0  0  0  0  0
   -0.9221    3.4030    1.8894 S   0  0  0  0  0  0  0  0  0  0  0  0
   -1.9257    1.6423    0.0427 N   0  0  0  0  0  0  0  0  0  0  0  0
   -2.4673    1.5175   -1.3163 C   0  0  0  0  0  0  0  0  0  0  0  0
   -3.2296    0.2083   -1.4950 C   0  0  0  0  0  0  0  0  0  0  0  0
   -2.4971   -0.9785   -0.9215 C   0  0  0  0  0  0  0  0  0  0  0  0
   -2.9192   -2.2740   -1.2666 C   0  0  0  0  0  0  0  0  0  0  0  0
   -2.3004   -3.4033   -0.7199 C   0  0  0  0  0  0  0  0  0  0  0  0
   -2.6471   -4.6987   -1.0147 O   0  0  0  0  0  0  0  0  0  0  0  0
   -3.6641   -4.9067   -1.9831 C   0  0  0  0  0  0  0  0  0  0  0  0
   -1.2499   -3.2381    0.1997 C   0  0  0  0  0  0  0  0  0  0  0  0
   -0.6920   -4.3904    0.6974 O   0  0  0  0  0  0  0  0  0  0  0  0
    0.4984   -4.2622    1.4623 C   0  0  0  0  0  0  0  0  0  0  0  0
   -0.8446   -1.9477    0.5589 C   0  0  0  0  0  0  0  0  0  0  0  0
   -1.4522   -0.8069    0.0011 C   0  0  0  0  0  0  0  0  0  0  0  0
   -0.9402    0.5843    0.3919 C   0  0  0  0  0  0  0  0  0  0  0  0
    0.4515    0.8428   -0.2540 C   0  0  0  0  0  0  0  0  0  0  0  0
    1.4625    0.1622    0.5012 O   0  0  0  0  0  0  0  0  0  0  0  0
    2.7173    0.1240   -0.0384 C   0  0  0  0  0  0  0  0  0  0  0  0
    3.1749    0.9002   -1.1012 C   0  0  0  0  0  0  0  0  0  0  0  0
    4.4913    0.7628   -1.5577 C   0  0  0  0  0  0  0  0  0  0  0  0
    5.3718   -0.1492   -0.9578 C   0  0  0  0  0  0  0  0  0  0  0  0
    6.7942   -0.2798   -1.4723 C   0  0  0  0  0  0  0  0  0  0  0  0
    7.8158    0.1221   -0.4061 C   0  0  0  0  0  0  0  0  0  0  0  0
    7.0760   -1.6905   -1.9968 C   0  0  0  0  0  0  0  0  0  0  0  0
    4.9039   -0.9171    0.1177 C   0  0  0  0  0  0  0  0  0  0  0  0
    3.5906   -0.7763    0.5731 C   0  0  0  0  0  0  0  0  0  0  0  0
   -5.3662    6.0738    3.8715 H   0  0  0  0  0  0  0  0  0  0  0  0
   -6.3885    4.6221    3.8554 H   0  0  0  0  0  0  0  0  0  0  0  0
   -4.6829    4.5228    4.4065 H   0  0  0  0  0  0  0  0  0  0  0  0
   -4.3360    2.8099    2.7536 H   0  0  0  0  0  0  0  0  0  0  0  0
   -5.9993    2.9826    2.1253 H   0  0  0  0  0  0  0  0  0  0  0  0
   -5.0618    3.7773   -0.0757 H   0  0  0  0  0  0  0  0  0  0  0  0
   -4.5403    2.1203    0.3412 H   0  0  0  0  0  0  0  0  0  0  0  0
   -2.9790    4.5428    0.9458 H   0  0  0  0  0  0  0  0  0  0  0  0
   -1.6156    1.5568   -2.0075 H   0  0  0  0  0  0  0  0  0  0  0  0
   -3.1051    2.3622   -1.5905 H   0  0  0  0  0  0  0  0  0  0  0  0
   -3.4203    0.0523   -2.5631 H   0  0  0  0  0  0  0  0  0  0  0  0
   -4.2002    0.2748   -0.9901 H   0  0  0  0  0  0  0  0  0  0  0  0
   -3.7424   -2.3741   -1.9667 H   0  0  0  0  0  0  0  0  0  0  0  0
   -3.3802   -4.4849   -2.9529 H   0  0  0  0  0  0  0  0  0  0  0  0
   -4.6234   -4.5043   -1.6404 H   0  0  0  0  0  0  0  0  0  0  0  0
   -3.7859   -5.9868   -2.1142 H   0  0  0  0  0  0  0  0  0  0  0  0
    0.8565   -5.2700    1.6922 H   0  0  0  0  0  0  0  0  0  0  0  0
    0.3015   -3.7554    2.4127 H   0  0  0  0  0  0  0  0  0  0  0  0
    1.2854   -3.7518    0.8963 H   0  0  0  0  0  0  0  0  0  0  0  0
   -0.0466   -1.8010    1.2811 H   0  0  0  0  0  0  0  0  0  0  0  0
   -0.8377    0.5772    1.4847 H   0  0  0  0  0  0  0  0  0  0  0  0
    0.6781    1.9140   -0.2495 H   0  0  0  0  0  0  0  0  0  0  0  0
    0.4515    0.4894   -1.2935 H   0  0  0  0  0  0  0  0  0  0  0  0
    2.5399    1.6300   -1.5920 H   0  0  0  0  0  0  0  0  0  0  0  0
    4.8238    1.3829   -2.3882 H   0  0  0  0  0  0  0  0  0  0  0  0
    6.9246    0.4079   -2.3181 H   0  0  0  0  0  0  0  0  0  0  0  0
    7.6300    1.1425   -0.0537 H   0  0  0  0  0  0  0  0  0  0  0  0
    7.7847   -0.5421    0.4641 H   0  0  0  0  0  0  0  0  0  0  0  0
    8.8318    0.0892   -0.8138 H   0  0  0  0  0  0  0  0  0  0  0  0
    8.0804   -1.7469   -2.4279 H   0  0  0  0  0  0  0  0  0  0  0  0
    6.3596   -1.9679   -2.7788 H   0  0  0  0  0  0  0  0  0  0  0  0
    7.0114   -2.4445   -1.2045 H   0  0  0  0  0  0  0  0  0  0  0  0
    5.5571   -1.6314    0.6140 H   0  0  0  0  0  0  0  0  0  0  0  0
    3.2464   -1.3787    1.4102 H   0  0  0  0  0  0  0  0  0  0  0  0
  1  2  1  0
  2  3  1  0
  3  4  1  0
  4  5  1  0
  5  6  1  0
  6  7  2  0
  6  8  1  0
  8  9  1  0
  9 10  1  0
 10 11  1  0
 11 12  2  0
 12 13  1  0
 13 14  1  0
 14 15  1  0
 13 16  2  0
 16 17  1  0
 17 18  1  0
 16 19  1  0
 19 20  2  0
 20 21  1  0
 21 22  1  0
 22 23  1  0
 23 24  1  0
 24 25  2  0
 25 26  1  0
 26 27  2  0
 27 28  1  0
 28 29  1  0
 28 30  1  0
 27 31  1  0
 31 32  2  0
 21  8  1  0
 32 24  1  0
 20 11  1  0
  1 33  1  0
  1 34  1  0
  1 35  1  0
  3 36  1  0
  3 37  1  0
  4 38  1  0
  4 39  1  0
  5 40  1  0
  9 41  1  0
  9 42  1  0
 10 43  1  0
 10 44  1  0
 12 45  1  0
 15 46  1  0
 15 47  1  0
 15 48  1  0
 18 49  1  0
 18 50  1  0
 18 51  1  0
 19 52  1  0
 21 53  1  0
 22 54  1  0
 22 55  1  0
 25 56  1  0
 26 57  1  0
 28 58  1  0
 29 59  1  0
 29 60  1  0
 29 61  1  0
 30 62  1  0
 30 63  1  0
 30 64  1  0
 31 65  1  0
 32 66  1  0
M  END
$$$$
