
     RDKit          3D

 33 36  0  0  0  0  0  0  0  0999 V2000
   -1.2120    0.0771    2.4143 O   0  0  0  0  0  0  0  0  0  0  0  0
   -0.6823   -0.0074    1.3073 C   0  0  0  0  0  0  0  0  0  0  0  0
    0.8019    0.0143    1.2780 C   0  0  0  0  0  0  0  0  0  0  0  0
    1.4998    0.0642    2.4935 C   0  0  0  0  0  0  0  0  0  0  0  0
    2.8856    0.1410    2.5025 C   0  0  0  0  0  0  0  0  0  0  0  0
    3.5824    0.1728    1.2969 C   0  0  0  0  0  0  0  0  0  0  0  0
    2.9102    0.1167    0.0498 C   0  0  0  0  0  0  0  0  0  0  0  0
    3.5516    0.1480   -1.2170 C   0  0  0  0  0  0  0  0  0  0  0  0
    4.9998    0.2241   -1.3163 N   0  0  0  0  0  4  0  0  0  0  0  0
    5.6514   -0.7126   -0.8372 O   0  0  0  0  0  0  0  0  0  0  0  0
    5.4702    1.2140   -1.8911 O   0  0  0  0  0  1  0  0  0  0  0  0
    2.8435    0.1085   -2.4219 C   0  0  0  0  0  0  0  0  0  0  0  0
    1.4584    0.0131   -2.3812 C   0  0  0  0  0  0  0  0  0  0  0  0
    0.7850   -0.0291   -1.1482 C   0  0  0  0  0  0  0  0  0  0  0  0
    1.4888    0.0338    0.0601 C   0  0  0  0  0  0  0  0  0  0  0  0
   -0.6900   -0.1841   -1.1491 C   0  0  0  0  0  0  0  0  0  0  0  0
   -1.1993   -0.4921   -2.2257 O   0  0  0  0  0  0  0  0  0  0  0  0
   -1.3507   -0.0706    0.0809 N   0  0  0  0  0  0  0  0  0  0  0  0
   -2.7874   -0.0230    0.0486 C   0  0  0  0  0  0  0  0  0  0  0  0
   -3.5720   -0.5399    1.0845 C   0  0  0  0  0  0  0  0  0  0  0  0
   -4.9676   -0.4595    1.0181 C   0  0  0  0  0  0  0  0  0  0  0  0
   -5.5610    0.1345   -0.0828 C   0  0  0  0  0  0  0  0  0  0  0  0
   -7.2664    0.2511   -0.2090 Cl  0  0  0  0  0  0  0  0  0  0  0  0
   -4.7334    0.6237   -1.0736 C   0  0  0  0  0  0  0  0  0  0  0  0
   -3.3795    0.5604   -1.0243 N   0  0  0  0  0  0  0  0  0  0  0  0
    0.9639    0.0547    3.4419 H   0  0  0  0  0  0  0  0  0  0  0  0
    3.4245    0.1831    3.4469 H   0  0  0  0  0  0  0  0  0  0  0  0
    4.6691    0.2400    1.3512 H   0  0  0  0  0  0  0  0  0  0  0  0
    3.3573    0.1407   -3.3810 H   0  0  0  0  0  0  0  0  0  0  0  0
    0.8990   -0.0345   -3.3159 H   0  0  0  0  0  0  0  0  0  0  0  0
   -3.1341   -1.0406    1.9417 H   0  0  0  0  0  0  0  0  0  0  0  0
   -5.5715   -0.8673    1.8237 H   0  0  0  0  0  0  0  0  0  0  0  0
   -5.1350    1.0959   -1.9655 H   0  0  0  0  0  0  0  0  0  0  0  0
  1  2  2  0
  2  3  1  0
  3  4  1  0
  4  5  2  0
  5  6  1  0
  6  7  2  0
  7  8  1  0
  8  9  1  0
  9 10  2  0
  9 11  1  0
  8 12  2  0
 12 13  1  0
 13 14  2  0
 14 15  1  0
 14 16  1  0
 16 17  2  0
 16 18  1  0
 18 19  1  0
 19 20  2  0
 20 21  1  0
 21 22  2  0
 22 23  1  0
 22 24  1  0
 24 25  2  0
 18  2  1  0
 25 19  1  0
 15  3  2  0
 15  7  1  0
  4 26  1  0
  5 27  1  0
  6 28  1  0
 12 29  1  0
 13 30  1  0
 20 31  1  0
 21 32  1  0
 24 33  1  0
M  CHG  2   9   1  11  -1
M  END
$$$$
