
     RDKit          3D

 42 44  0  0  0  0  0  0  0  0999 V2000
   -1.1294   -4.2840   -1.5940 C   0  0  0  0  0  0  0  0  0  0  0  0
   -1.4613   -4.2829   -0.1114 C   0  0  0  0  0  0  0  0  0  0  0  0
   -2.7267   -3.0341    0.2993 S   0  0  0  0  0  0  0  0  0  0  0  0
   -1.7712   -1.5219    0.2527 C   0  0  0  0  0  0  0  0  0  0  0  0
   -2.4463   -0.3203    0.2749 C   0  0  0  0  0  0  0  0  0  0  0  0
   -1.6940    0.8350    0.2524 C   0  0  0  0  0  0  0  0  0  0  0  0
   -2.2793    2.0802    0.2557 N   0  0  0  0  0  0  0  0  0  0  0  0
   -3.6145    2.3494    0.7773 C   0  0  0  0  0  0  0  0  0  0  0  0
   -3.5569    3.8116    1.2222 C   0  0  0  0  0  0  0  0  0  0  0  0
   -2.4574    4.4068    0.3573 C   0  0  0  0  0  0  0  0  0  0  0  0
   -1.4399    3.2726    0.2855 C   0  0  0  0  0  0  0  0  0  0  0  0
   -0.3534    0.7662    0.1905 N   0  0  0  0  0  0  0  0  0  0  0  0
    0.2312   -0.4459    0.1776 C   0  0  0  0  0  0  0  0  0  0  0  0
    1.7069   -0.4991    0.1132 C   0  0  0  0  0  0  0  0  0  0  0  0
    2.4008   -1.7239    0.0989 C   0  0  0  0  0  0  0  0  0  0  0  0
    3.7986   -1.7763    0.0365 C   0  0  0  0  0  0  0  0  0  0  0  0
    4.5503   -0.5998   -0.0031 C   0  0  0  0  0  0  0  0  0  0  0  0
    6.0454   -0.6526   -0.1044 C   0  0  0  0  0  0  0  0  0  0  0  0
    3.8818    0.6266   -0.0050 C   0  0  0  0  0  0  0  0  0  0  0  0
    2.4839    0.6732    0.0574 C   0  0  0  0  0  0  0  0  0  0  0  0
   -0.4361   -1.6083    0.2156 N   0  0  0  0  0  0  0  0  0  0  0  0
   -2.0191   -4.4793   -2.2024 H   0  0  0  0  0  0  0  0  0  0  0  0
   -0.4029   -5.0744   -1.8104 H   0  0  0  0  0  0  0  0  0  0  0  0
   -0.6889   -3.3368   -1.9197 H   0  0  0  0  0  0  0  0  0  0  0  0
   -0.5622   -4.1449    0.4970 H   0  0  0  0  0  0  0  0  0  0  0  0
   -1.8761   -5.2602    0.1575 H   0  0  0  0  0  0  0  0  0  0  0  0
   -3.5268   -0.2939    0.2938 H   0  0  0  0  0  0  0  0  0  0  0  0
   -3.8826    1.7119    1.6271 H   0  0  0  0  0  0  0  0  0  0  0  0
   -4.3555    2.2159   -0.0184 H   0  0  0  0  0  0  0  0  0  0  0  0
   -4.5164    4.3226    1.1035 H   0  0  0  0  0  0  0  0  0  0  0  0
   -3.2696    3.8683    2.2792 H   0  0  0  0  0  0  0  0  0  0  0  0
   -2.0351    5.3241    0.7765 H   0  0  0  0  0  0  0  0  0  0  0  0
   -2.8474    4.6302   -0.6431 H   0  0  0  0  0  0  0  0  0  0  0  0
   -0.8127    3.3643   -0.6076 H   0  0  0  0  0  0  0  0  0  0  0  0
   -0.8039    3.2798    1.1794 H   0  0  0  0  0  0  0  0  0  0  0  0
    1.8485   -2.6616    0.1343 H   0  0  0  0  0  0  0  0  0  0  0  0
    4.2917   -2.7457    0.0199 H   0  0  0  0  0  0  0  0  0  0  0  0
    6.4396   -1.5487    0.3864 H   0  0  0  0  0  0  0  0  0  0  0  0
    6.5005    0.2135    0.3876 H   0  0  0  0  0  0  0  0  0  0  0  0
    6.3491   -0.6629   -1.1557 H   0  0  0  0  0  0  0  0  0  0  0  0
    4.4406    1.5584   -0.0547 H   0  0  0  0  0  0  0  0  0  0  0  0
    1.9964    1.6471    0.0584 H   0  0  0  0  0  0  0  0  0  0  0  0
  1  2  1  0
  2  3  1  0
  3  4  1  0
  4  5  2  0
  5  6  1  0
  6  7  1  0
  7  8  1  0
  8  9  1  0
  9 10  1  0
 10 11  1  0
  6 12  2  0
 12 13  1  0
 13 14  1  0
 14 15  2  0
 15 16  1  0
 16 17  2  0
 17 18  1  0
 17 19  1  0
 19 20  2  0
 13 21  2  0
 21  4  1  0
 11  7  1  0
 20 14  1  0
  1 22  1  0
  1 23  1  0
  1 24  1  0
  2 25  1  0
  2 26  1  0
  5 27  1  0
  8 28  1  0
  8 29  1  0
  9 30  1  0
  9 31  1  0
 10 32  1  0
 10 33  1  0
 11 34  1  0
 11 35  1  0
 15 36  1  0
 16 37  1  0
 18 38  1  0
 18 39  1  0
 18 40  1  0
 19 41  1  0
 20 42  1  0
M  END
$$$$
