
     RDKit          3D

 46 49  0  0  0  0  0  0  0  0999 V2000
    4.9420   -4.7047   -2.0900 O   0  0  0  0  0  0  0  0  0  0  0  0
    4.8425   -4.3458   -0.9080 N   0  0  0  0  0  4  0  0  0  0  0  0
    5.0050   -5.0913    0.0680 O   0  0  0  0  0  1  0  0  0  0  0  0
    4.5109   -2.9390   -0.6468 C   0  0  0  0  0  0  0  0  0  0  0  0
    4.2587   -2.0767   -1.7204 C   0  0  0  0  0  0  0  0  0  0  0  0
    3.9483   -0.7383   -1.4702 C   0  0  0  0  0  0  0  0  0  0  0  0
    3.8763   -0.2541   -0.1548 C   0  0  0  0  0  0  0  0  0  0  0  0
    3.5730    1.2016    0.1287 C   0  0  0  0  0  0  0  0  0  0  0  0
    2.7009    1.7908   -0.8426 O   0  0  0  0  0  0  0  0  0  0  0  0
    1.3714    1.8319   -0.5265 C   0  0  0  0  0  0  0  0  0  0  0  0
    0.6980    0.8729    0.2250 C   0  0  0  0  0  0  0  0  0  0  0  0
   -0.6718    1.0155    0.4836 C   0  0  0  0  0  0  0  0  0  0  0  0
   -1.4035    2.0995   -0.0216 C   0  0  0  0  0  0  0  0  0  0  0  0
   -2.8367    2.2458    0.2884 C   0  0  0  0  0  0  0  0  0  0  0  0
   -3.4369    3.4856    0.3285 N   0  0  0  0  0  0  0  0  0  0  0  0
   -4.7200    3.4839    0.7241 N   0  0  0  0  0  0  0  0  0  0  0  0
   -4.9822    2.1880    0.8867 C   0  0  0  0  0  0  0  0  0  0  0  0
   -3.8650    1.3655    0.6075 C   0  0  0  0  0  0  0  0  0  0  0  0
   -3.7944   -0.0807    0.6274 C   0  0  0  0  0  0  0  0  0  0  0  0
   -4.0627   -0.7794    1.8120 C   0  0  0  0  0  0  0  0  0  0  0  0
   -4.0052   -2.1751    1.8303 C   0  0  0  0  0  0  0  0  0  0  0  0
   -3.6883   -2.8710    0.6641 C   0  0  0  0  0  0  0  0  0  0  0  0
   -3.6121   -4.5878    0.6892 Cl  0  0  0  0  0  0  0  0  0  0  0  0
   -3.4284   -2.1855   -0.5213 C   0  0  0  0  0  0  0  0  0  0  0  0
   -3.4834   -0.7899   -0.5411 C   0  0  0  0  0  0  0  0  0  0  0  0
   -0.7038    3.0476   -0.7921 C   0  0  0  0  0  0  0  0  0  0  0  0
   -1.3645    4.1438   -1.2933 O   0  0  0  0  0  0  0  0  0  0  0  0
    0.6633    2.9109   -1.0520 C   0  0  0  0  0  0  0  0  0  0  0  0
    4.1463   -1.1288    0.9106 C   0  0  0  0  0  0  0  0  0  0  0  0
    4.4568   -2.4696    0.6712 C   0  0  0  0  0  0  0  0  0  0  0  0
    4.3006   -2.4269   -2.7489 H   0  0  0  0  0  0  0  0  0  0  0  0
    3.7580   -0.0728   -2.3107 H   0  0  0  0  0  0  0  0  0  0  0  0
    4.5204    1.7502    0.0734 H   0  0  0  0  0  0  0  0  0  0  0  0
    3.1910    1.3480    1.1473 H   0  0  0  0  0  0  0  0  0  0  0  0
    1.2027   -0.0025    0.6177 H   0  0  0  0  0  0  0  0  0  0  0  0
   -1.1504    0.2636    1.1037 H   0  0  0  0  0  0  0  0  0  0  0  0
   -2.9980    4.3692    0.0903 H   0  0  0  0  0  0  0  0  0  0  0  0
   -5.9777    1.8890    1.1864 H   0  0  0  0  0  0  0  0  0  0  0  0
   -4.3038   -0.2442    2.7292 H   0  0  0  0  0  0  0  0  0  0  0  0
   -4.2083   -2.7098    2.7546 H   0  0  0  0  0  0  0  0  0  0  0  0
   -3.1841   -2.7272   -1.4321 H   0  0  0  0  0  0  0  0  0  0  0  0
   -3.2821   -0.2601   -1.4722 H   0  0  0  0  0  0  0  0  0  0  0  0
   -0.7722    4.6051   -1.9114 H   0  0  0  0  0  0  0  0  0  0  0  0
    1.1968    3.6484   -1.6442 H   0  0  0  0  0  0  0  0  0  0  0  0
    4.1158   -0.7694    1.9372 H   0  0  0  0  0  0  0  0  0  0  0  0
    4.6571   -3.1261    1.5149 H   0  0  0  0  0  0  0  0  0  0  0  0
  1  2  2  0
  2  3  1  0
  2  4  1  0
  4  5  2  0
  5  6  1  0
  6  7  2  0
  7  8  1  0
  8  9  1  0
  9 10  1  0
 10 11  2  0
 11 12  1  0
 12 13  2  0
 13 14  1  0
 14 15  1  0
 15 16  1  0
 16 17  2  0
 17 18  1  0
 18 19  1  0
 19 20  2  0
 20 21  1  0
 21 22  2  0
 22 23  1  0
 22 24  1  0
 24 25  2  0
 13 26  1  0
 26 27  1  0
 26 28  2  0
  7 29  1  0
 29 30  2  0
 30  4  1  0
 28 10  1  0
 18 14  2  0
 25 19  1  0
  5 31  1  0
  6 32  1  0
  8 33  1  0
  8 34  1  0
 11 35  1  0
 12 36  1  0
 15 37  1  0
 17 38  1  0
 20 39  1  0
 21 40  1  0
 24 41  1  0
 25 42  1  0
 27 43  1  0
 28 44  1  0
 29 45  1  0
 30 46  1  0
M  CHG  2   2   1   3  -1
M  END
$$$$
