
     RDKit          3D

 46 48  0  0  0  0  0  0  0  0999 V2000
   -5.2965    2.8681   -0.4034 C   0  0  0  0  0  0  0  0  0  0  0  0
   -5.3233    1.4968   -0.0335 O   0  0  0  0  0  0  0  0  0  0  0  0
   -4.1327    0.8190   -0.0413 C   0  0  0  0  0  0  0  0  0  0  0  0
   -2.8813    1.3988   -0.2701 C   0  0  0  0  0  0  0  0  0  0  0  0
   -1.7145    0.6128   -0.2846 C   0  0  0  0  0  0  0  0  0  0  0  0
   -1.7954   -0.7724   -0.0441 C   0  0  0  0  0  0  0  0  0  0  0  0
   -3.0487   -1.3530    0.1787 C   0  0  0  0  0  0  0  0  0  0  0  0
   -4.1975   -0.5598    0.2034 C   0  0  0  0  0  0  0  0  0  0  0  0
   -5.3949   -1.2022    0.4039 O   0  0  0  0  0  0  0  0  0  0  0  0
   -5.8190   -1.0374    1.7572 C   0  0  0  0  0  0  0  0  0  0  0  0
   -0.5647   -1.6500   -0.0931 C   0  0  0  0  0  0  0  0  0  0  0  0
    0.6822   -0.8859    0.0383 N   0  0  0  0  0  0  0  0  0  0  0  0
    1.4232   -0.8679    1.2094 C   0  0  0  0  0  0  0  0  0  0  0  0
    0.8481   -1.2714    2.7350 S   0  0  0  0  0  0  0  0  0  0  0  0
    2.7173   -0.4225    1.1584 N   0  0  0  0  0  0  0  0  0  0  0  0
    3.7081   -0.6010    0.1582 C   0  0  0  0  0  0  0  0  0  0  0  0
    3.5159   -1.4937   -0.9066 C   0  0  0  0  0  0  0  0  0  0  0  0
    4.5166   -1.7113   -1.8517 C   0  0  0  0  0  0  0  0  0  0  0  0
    5.7334   -1.0526   -1.7304 C   0  0  0  0  0  0  0  0  0  0  0  0
    5.9496   -0.1711   -0.6680 C   0  0  0  0  0  0  0  0  0  0  0  0
    7.5119    0.5693   -0.5794 Cl  0  0  0  0  0  0  0  0  0  0  0  0
    4.9403    0.0855    0.2827 C   0  0  0  0  0  0  0  0  0  0  0  0
    5.1773    1.0429    1.4245 C   0  0  0  0  0  0  0  0  0  0  0  0
    0.7250    0.2693   -0.8677 C   0  0  0  0  0  0  0  0  0  0  0  0
   -0.3712    1.2744   -0.4960 C   0  0  0  0  0  0  0  0  0  0  0  0
   -6.3280    3.2338   -0.4063 H   0  0  0  0  0  0  0  0  0  0  0  0
   -4.8945    3.0002   -1.4132 H   0  0  0  0  0  0  0  0  0  0  0  0
   -4.7365    3.4606    0.3271 H   0  0  0  0  0  0  0  0  0  0  0  0
   -2.7814    2.4659   -0.4400 H   0  0  0  0  0  0  0  0  0  0  0  0
   -3.1410   -2.4239    0.3410 H   0  0  0  0  0  0  0  0  0  0  0  0
   -6.0614    0.0063    1.9825 H   0  0  0  0  0  0  0  0  0  0  0  0
   -5.0627   -1.4099    2.4576 H   0  0  0  0  0  0  0  0  0  0  0  0
   -6.7271   -1.6314    1.8964 H   0  0  0  0  0  0  0  0  0  0  0  0
   -0.5315   -2.1364   -1.0761 H   0  0  0  0  0  0  0  0  0  0  0  0
   -0.6179   -2.4442    0.6575 H   0  0  0  0  0  0  0  0  0  0  0  0
    3.0764   -0.1824    2.0763 H   0  0  0  0  0  0  0  0  0  0  0  0
    2.5996   -2.0695   -0.9999 H   0  0  0  0  0  0  0  0  0  0  0  0
    4.3528   -2.4119   -2.6666 H   0  0  0  0  0  0  0  0  0  0  0  0
    6.5178   -1.2388   -2.4602 H   0  0  0  0  0  0  0  0  0  0  0  0
    4.2700    1.6095    1.6596 H   0  0  0  0  0  0  0  0  0  0  0  0
    5.4974    0.4908    2.3135 H   0  0  0  0  0  0  0  0  0  0  0  0
    5.9316    1.7990    1.1904 H   0  0  0  0  0  0  0  0  0  0  0  0
    1.6869    0.7858   -0.8337 H   0  0  0  0  0  0  0  0  0  0  0  0
    0.5817   -0.1032   -1.8895 H   0  0  0  0  0  0  0  0  0  0  0  0
   -0.4429    2.0309   -1.2858 H   0  0  0  0  0  0  0  0  0  0  0  0
   -0.0982    1.7839    0.4366 H   0  0  0  0  0  0  0  0  0  0  0  0
  1  2  1  0
  2  3  1  0
  3  4  2  0
  4  5  1  0
  5  6  2  0
  6  7  1  0
  7  8  2  0
  8  9  1  0
  9 10  1  0
  6 11  1  0
 11 12  1  0
 12 13  1  0
 13 14  2  0
 13 15  1  0
 15 16  1  0
 16 17  2  0
 17 18  1  0
 18 19  2  0
 19 20  1  0
 20 21  1  0
 20 22  2  0
 22 23  1  0
 12 24  1  0
 24 25  1  0
  8  3  1  0
 22 16  1  0
 25  5  1  0
  1 26  1  0
  1 27  1  0
  1 28  1  0
  4 29  1  0
  7 30  1  0
 10 31  1  0
 10 32  1  0
 10 33  1  0
 11 34  1  0
 11 35  1  0
 15 36  1  0
 17 37  1  0
 18 38  1  0
 19 39  1  0
 23 40  1  0
 23 41  1  0
 23 42  1  0
 24 43  1  0
 24 44  1  0
 25 45  1  0
 25 46  1  0
M  END
$$$$
