
     RDKit          3D

 32 33  0  0  0  0  0  0  0  0999 V2000
   -2.3975    1.4617   -4.2098 N   0  0  0  0  0  0  0  0  0  0  0  0
   -2.5199    0.9920   -3.1553 C   0  0  0  0  0  0  0  0  0  0  0  0
   -2.6746    0.4321   -1.8413 C   0  0  0  0  0  0  0  0  0  0  0  0
   -3.9464   -0.0462   -1.4814 C   0  0  0  0  0  0  0  0  0  0  0  0
   -4.1400   -0.6147   -0.2202 C   0  0  0  0  0  0  0  0  0  0  0  0
   -5.4658   -1.1173    0.1602 N   0  0  0  0  0  4  0  0  0  0  0  0
   -5.5907   -1.6210    1.2849 O   0  0  0  0  0  0  0  0  0  0  0  0
   -6.3805   -1.0055   -0.6677 O   0  0  0  0  0  1  0  0  0  0  0  0
   -3.0752   -0.7154    0.6756 C   0  0  0  0  0  0  0  0  0  0  0  0
   -1.8120   -0.2356    0.3067 C   0  0  0  0  0  0  0  0  0  0  0  0
   -1.5825    0.3736   -0.9400 C   0  0  0  0  0  0  0  0  0  0  0  0
   -0.3066    0.7856   -1.3421 N   0  0  0  0  0  0  0  0  0  0  0  0
    0.8035    0.9418   -0.3958 C   0  0  0  0  0  0  0  0  0  0  0  0
    1.6147   -0.3509   -0.2886 C   0  0  0  0  0  0  0  0  0  0  0  0
    2.7628   -0.1907    0.6719 C   0  0  0  0  0  0  0  0  0  0  0  0
    4.0794   -0.3164    0.2360 C   0  0  0  0  0  0  0  0  0  0  0  0
    5.1098   -0.1710    1.1609 C   0  0  0  0  0  0  0  0  0  0  0  0
    4.8015    0.0905    2.4899 C   0  0  0  0  0  0  0  0  0  0  0  0
    3.4673    0.1961    2.8412 C   0  0  0  0  0  0  0  0  0  0  0  0
    2.4461    0.0621    1.9659 N   0  0  0  0  0  0  0  0  0  0  0  0
   -4.7689    0.0247   -2.1927 H   0  0  0  0  0  0  0  0  0  0  0  0
   -3.1998   -1.1674    1.6583 H   0  0  0  0  0  0  0  0  0  0  0  0
   -1.0083   -0.3514    1.0310 H   0  0  0  0  0  0  0  0  0  0  0  0
   -0.3086    1.5137   -2.0564 H   0  0  0  0  0  0  0  0  0  0  0  0
    1.4589    1.7335   -0.7821 H   0  0  0  0  0  0  0  0  0  0  0  0
    0.4524    1.3044    0.5777 H   0  0  0  0  0  0  0  0  0  0  0  0
    1.9814   -0.6381   -1.2822 H   0  0  0  0  0  0  0  0  0  0  0  0
    0.9905   -1.1832    0.0562 H   0  0  0  0  0  0  0  0  0  0  0  0
    4.3080   -0.5260   -0.8041 H   0  0  0  0  0  0  0  0  0  0  0  0
    6.1454   -0.2644    0.8462 H   0  0  0  0  0  0  0  0  0  0  0  0
    5.5813    0.2065    3.2340 H   0  0  0  0  0  0  0  0  0  0  0  0
    3.1740    0.3967    3.8677 H   0  0  0  0  0  0  0  0  0  0  0  0
  1  2  3  0
  2  3  1  0
  3  4  2  0
  4  5  1  0
  5  6  1  0
  6  7  2  0
  6  8  1  0
  5  9  2  0
  9 10  1  0
 10 11  2  0
 11 12  1  0
 12 13  1  0
 13 14  1  0
 14 15  1  0
 15 16  2  0
 16 17  1  0
 17 18  2  0
 18 19  1  0
 19 20  2  0
 11  3  1  0
 20 15  1  0
  4 21  1  0
  9 22  1  0
 10 23  1  0
 12 24  1  0
 13 25  1  0
 13 26  1  0
 14 27  1  0
 14 28  1  0
 16 29  1  0
 17 30  1  0
 18 31  1  0
 19 32  1  0
M  CHG  2   6   1   8  -1
M  END
$$$$
