
     RDKit          3D

 39 41  0  0  0  0  0  0  0  0999 V2000
    2.2286    3.3974    0.3898 O   0  0  0  0  0  0  0  0  0  0  0  0
    2.1426    2.1982    0.1076 C   0  0  0  0  0  0  0  0  0  0  0  0
    3.1564    1.3714    0.4928 N   0  0  0  0  0  0  0  0  0  0  0  0
    3.5254    0.0614    0.1218 C   0  0  0  0  0  0  0  0  0  0  0  0
    4.4101   -0.6079    0.9799 C   0  0  0  0  0  0  0  0  0  0  0  0
    4.8518    0.0117    2.0863 F   0  0  0  0  0  0  0  0  0  0  0  0
    4.8449   -1.9047    0.7270 C   0  0  0  0  0  0  0  0  0  0  0  0
    4.4041   -2.5440   -0.4209 C   0  0  0  0  0  0  0  0  0  0  0  0
    4.8173   -3.7902   -0.6827 F   0  0  0  0  0  0  0  0  0  0  0  0
    3.5601   -1.9018   -1.3161 C   0  0  0  0  0  0  0  0  0  0  0  0
    3.1358   -0.6016   -1.0456 C   0  0  0  0  0  0  0  0  0  0  0  0
    2.4063    0.0113   -1.9866 F   0  0  0  0  0  0  0  0  0  0  0  0
    0.9310    1.6941   -0.5775 C   0  0  0  0  0  0  0  0  0  0  0  0
    0.4645    2.4164   -1.6116 C   0  0  0  0  0  0  0  0  0  0  0  0
   -0.7215    2.0165   -2.3224 C   0  0  0  0  0  0  0  0  0  0  0  0
   -1.3863    0.9194   -1.9463 C   0  0  0  0  0  0  0  0  0  0  0  0
   -0.9613    0.1538   -0.8727 N   0  0  0  0  0  0  0  0  0  0  0  0
   -1.7490   -1.0135   -0.4754 C   0  0  0  0  0  0  0  0  0  0  0  0
   -2.9951   -0.6421    0.2967 C   0  0  0  0  0  0  0  0  0  0  0  0
   -4.2616   -0.7316   -0.2994 C   0  0  0  0  0  0  0  0  0  0  0  0
   -5.4075   -0.3793    0.4162 C   0  0  0  0  0  0  0  0  0  0  0  0
   -5.2998    0.0667    1.7321 C   0  0  0  0  0  0  0  0  0  0  0  0
   -4.0471    0.1610    2.3347 C   0  0  0  0  0  0  0  0  0  0  0  0
   -2.9004   -0.1912    1.6216 C   0  0  0  0  0  0  0  0  0  0  0  0
    0.1685    0.4917   -0.1173 C   0  0  0  0  0  0  0  0  0  0  0  0
    0.5331   -0.1439    0.8712 O   0  0  0  0  0  0  0  0  0  0  0  0
    3.7425    1.8037    1.2014 H   0  0  0  0  0  0  0  0  0  0  0  0
    5.5169   -2.4044    1.4150 H   0  0  0  0  0  0  0  0  0  0  0  0
    3.2480   -2.3996   -2.2275 H   0  0  0  0  0  0  0  0  0  0  0  0
    0.9717    3.3179   -1.9447 H   0  0  0  0  0  0  0  0  0  0  0  0
   -1.0585    2.6223   -3.1573 H   0  0  0  0  0  0  0  0  0  0  0  0
   -2.2867    0.6007   -2.4631 H   0  0  0  0  0  0  0  0  0  0  0  0
   -1.1439   -1.6950    0.1350 H   0  0  0  0  0  0  0  0  0  0  0  0
   -2.0089   -1.5773   -1.3808 H   0  0  0  0  0  0  0  0  0  0  0  0
   -4.3658   -1.0764   -1.3253 H   0  0  0  0  0  0  0  0  0  0  0  0
   -6.3853   -0.4518   -0.0528 H   0  0  0  0  0  0  0  0  0  0  0  0
   -6.1919    0.3420    2.2886 H   0  0  0  0  0  0  0  0  0  0  0  0
   -3.9606    0.5102    3.3603 H   0  0  0  0  0  0  0  0  0  0  0  0
   -1.9279   -0.1115    2.1051 H   0  0  0  0  0  0  0  0  0  0  0  0
  1  2  2  0
  2  3  1  0
  3  4  1  0
  4  5  2  0
  5  6  1  0
  5  7  1  0
  7  8  2  0
  8  9  1  0
  8 10  1  0
 10 11  2  0
 11 12  1  0
  2 13  1  0
 13 14  2  0
 14 15  1  0
 15 16  2  0
 16 17  1  0
 17 18  1  0
 18 19  1  0
 19 20  2  0
 20 21  1  0
 21 22  2  0
 22 23  1  0
 23 24  2  0
 17 25  1  0
 25 26  2  0
 11  4  1  0
 25 13  1  0
 24 19  1  0
  3 27  1  0
  7 28  1  0
 10 29  1  0
 14 30  1  0
 15 31  1  0
 16 32  1  0
 18 33  1  0
 18 34  1  0
 20 35  1  0
 21 36  1  0
 22 37  1  0
 23 38  1  0
 24 39  1  0
M  END
$$$$
