
     RDKit          3D

 64 68  0  0  0  0  0  0  0  0999 V2000
   -1.4465    0.0217    3.6534 C   0  0  0  0  0  0  0  0  0  0  0  0
   -2.7385   -0.2589    2.8619 C   0  0  0  0  0  0  0  0  0  0  0  0
   -3.8569   -0.6386    3.8444 C   0  0  0  0  0  0  0  0  0  0  0  0
   -3.1342    1.0249    2.1144 C   0  0  0  0  0  0  0  0  0  0  0  0
   -2.4763   -1.4767    1.9470 C   0  0  0  0  0  0  0  0  0  0  0  0
   -1.9794   -2.5179    2.3821 O   0  0  0  0  0  0  0  0  0  0  0  0
   -2.8671   -1.4428    0.5103 C   0  0  0  0  0  0  0  0  0  0  0  0
   -4.2608   -1.5416    0.2661 C   0  0  0  0  0  0  0  0  0  0  0  0
   -5.4079   -1.5610    0.0813 N   0  0  0  0  0  0  0  0  0  0  0  0
   -1.9213   -1.2581   -0.4380 C   0  0  0  0  0  0  0  0  0  0  0  0
   -0.2786   -0.8198   -0.0090 S   0  0  0  0  0  0  0  0  0  0  0  0
    0.0333   -0.2216   -1.5869 C   0  0  0  0  0  0  0  0  0  0  0  0
    1.0632    0.5433   -1.9807 C   0  0  0  0  0  0  0  0  0  0  0  0
    2.1280    1.0270   -1.1648 C   0  0  0  0  0  0  0  0  0  0  0  0
    2.3725    2.3659   -0.9626 C   0  0  0  0  0  0  0  0  0  0  0  0
    3.4196    2.4484   -0.0727 N   0  0  0  0  0  0  0  0  0  0  0  0
    3.9962    3.6168    0.5009 C   0  0  0  0  0  0  0  0  0  0  0  0
    3.5240    4.8969    0.1826 C   0  0  0  0  0  0  0  0  0  0  0  0
    4.0990    6.0227    0.7806 C   0  0  0  0  0  0  0  0  0  0  0  0
    5.1384    5.8788    1.6971 C   0  0  0  0  0  0  0  0  0  0  0  0
    5.6125    4.6087    2.0181 C   0  0  0  0  0  0  0  0  0  0  0  0
    5.0497    3.4827    1.4190 C   0  0  0  0  0  0  0  0  0  0  0  0
    3.8840    1.2179    0.2552 N   0  0  0  0  0  0  0  0  0  0  0  0
    3.1208    0.3398   -0.4138 C   0  0  0  0  0  0  0  0  0  0  0  0
    3.3891   -1.0914   -0.3034 C   0  0  0  0  0  0  0  0  0  0  0  0
    3.2676   -1.9596   -1.3905 C   0  0  0  0  0  0  0  0  0  0  0  0
    3.5523   -3.3152   -1.2292 C   0  0  0  0  0  0  0  0  0  0  0  0
    3.9578   -3.7603    0.0175 C   0  0  0  0  0  0  0  0  0  0  0  0
    4.0813   -2.9589    1.0952 N   0  0  0  0  0  0  0  0  0  0  0  0
    3.8042   -1.6435    0.9066 C   0  0  0  0  0  0  0  0  0  0  0  0
   -1.0380   -0.6129   -2.5380 C   0  0  0  0  0  0  0  0  0  0  0  0
   -0.9400   -0.4255   -3.7426 O   0  0  0  0  0  0  0  0  0  0  0  0
   -2.0922   -1.2215   -1.8284 N   0  0  0  0  0  0  0  0  0  0  0  0
   -3.1178   -1.8822   -2.5764 C   0  0  0  0  0  0  0  0  0  0  0  0
   -3.7003   -1.2697   -3.6963 C   0  0  0  0  0  0  0  0  0  0  0  0
   -4.6808   -1.9266   -4.4456 C   0  0  0  0  0  0  0  0  0  0  0  0
   -5.0710   -3.2084   -4.0852 C   0  0  0  0  0  0  0  0  0  0  0  0
   -6.0058   -3.8461   -4.8044 F   0  0  0  0  0  0  0  0  0  0  0  0
   -4.4944   -3.8449   -2.9940 C   0  0  0  0  0  0  0  0  0  0  0  0
   -3.5178   -3.1863   -2.2401 C   0  0  0  0  0  0  0  0  0  0  0  0
   -1.1385   -0.8400    4.2563 H   0  0  0  0  0  0  0  0  0  0  0  0
   -0.6183    0.2641    2.9776 H   0  0  0  0  0  0  0  0  0  0  0  0
   -1.5759    0.8691    4.3344 H   0  0  0  0  0  0  0  0  0  0  0  0
   -3.5932   -1.5345    4.4189 H   0  0  0  0  0  0  0  0  0  0  0  0
   -4.0540    0.1681    4.5583 H   0  0  0  0  0  0  0  0  0  0  0  0
   -4.7909   -0.8584    3.3156 H   0  0  0  0  0  0  0  0  0  0  0  0
   -3.1947    1.8721    2.8087 H   0  0  0  0  0  0  0  0  0  0  0  0
   -2.4051    1.2898    1.3391 H   0  0  0  0  0  0  0  0  0  0  0  0
   -4.1160    0.9342    1.6351 H   0  0  0  0  0  0  0  0  0  0  0  0
    1.0786    0.8826   -3.0176 H   0  0  0  0  0  0  0  0  0  0  0  0
    1.8724    3.2424   -1.3461 H   0  0  0  0  0  0  0  0  0  0  0  0
    2.7111    5.0569   -0.5179 H   0  0  0  0  0  0  0  0  0  0  0  0
    3.7312    7.0159    0.5333 H   0  0  0  0  0  0  0  0  0  0  0  0
    5.5832    6.7591    2.1575 H   0  0  0  0  0  0  0  0  0  0  0  0
    6.4215    4.4930    2.7339 H   0  0  0  0  0  0  0  0  0  0  0  0
    5.4352    2.5001    1.6872 H   0  0  0  0  0  0  0  0  0  0  0  0
    2.9815   -1.5959   -2.3704 H   0  0  0  0  0  0  0  0  0  0  0  0
    3.4901   -4.0065   -2.0632 H   0  0  0  0  0  0  0  0  0  0  0  0
    4.1982   -4.8055    0.1888 H   0  0  0  0  0  0  0  0  0  0  0  0
    3.9279   -1.0277    1.7933 H   0  0  0  0  0  0  0  0  0  0  0  0
   -3.4143   -0.2636   -3.9933 H   0  0  0  0  0  0  0  0  0  0  0  0
   -5.1359   -1.4436   -5.3037 H   0  0  0  0  0  0  0  0  0  0  0  0
   -4.8069   -4.8536   -2.7408 H   0  0  0  0  0  0  0  0  0  0  0  0
   -3.0553   -3.7236   -1.4162 H   0  0  0  0  0  0  0  0  0  0  0  0
  1  2  1  0
  2  3  1  0
  2  4  1  0
  2  5  1  0
  5  6  2  0
  5  7  1  0
  7  8  1  0
  8  9  3  0
  7 10  2  3
 10 11  1  0
 11 12  1  0
 12 13  2  3
 13 14  1  0
 14 15  2  0
 15 16  1  0
 16 17  1  0
 17 18  2  0
 18 19  1  0
 19 20  2  0
 20 21  1  0
 21 22  2  0
 16 23  1  0
 23 24  2  0
 24 25  1  0
 25 26  2  0
 26 27  1  0
 27 28  2  0
 28 29  1  0
 29 30  2  0
 12 31  1  0
 31 32  2  0
 31 33  1  0
 33 34  1  0
 34 35  2  0
 35 36  1  0
 36 37  2  0
 37 38  1  0
 37 39  1  0
 39 40  2  0
 33 10  1  0
 40 34  1  0
 24 14  1  0
 30 25  1  0
 22 17  1  0
  1 41  1  0
  1 42  1  0
  1 43  1  0
  3 44  1  0
  3 45  1  0
  3 46  1  0
  4 47  1  0
  4 48  1  0
  4 49  1  0
 13 50  1  0
 15 51  1  0
 18 52  1  0
 19 53  1  0
 20 54  1  0
 21 55  1  0
 22 56  1  0
 26 57  1  0
 27 58  1  0
 28 59  1  0
 30 60  1  0
 35 61  1  0
 36 62  1  0
 39 63  1  0
 40 64  1  0
M  END
$$$$
