
     RDKit          3D

 45 46  0  0  0  0  0  0  0  0999 V2000
   -3.6464   -3.1598    3.5085 C   0  0  0  0  0  0  0  0  0  0  0  0
   -3.5162   -2.4086    2.3011 O   0  0  0  0  0  0  0  0  0  0  0  0
   -2.4791   -1.5235    2.3067 C   0  0  0  0  0  0  0  0  0  0  0  0
   -1.7328   -1.3196    3.2589 O   0  0  0  0  0  0  0  0  0  0  0  0
   -2.4095   -0.7697    0.9771 C   0  0  0  0  0  0  0  0  0  0  0  0
   -3.3839    0.4127    1.0445 C   0  0  0  0  0  0  0  0  0  0  0  0
   -3.5814    1.0868   -0.2927 C   0  0  0  0  0  0  0  0  0  0  0  0
   -2.8350    2.2212   -0.6381 C   0  0  0  0  0  0  0  0  0  0  0  0
   -3.0074    2.8285   -1.8829 C   0  0  0  0  0  0  0  0  0  0  0  0
   -3.9251    2.3082   -2.7931 C   0  0  0  0  0  0  0  0  0  0  0  0
   -4.6703    1.1788   -2.4608 C   0  0  0  0  0  0  0  0  0  0  0  0
   -4.4990    0.5687   -1.2173 C   0  0  0  0  0  0  0  0  0  0  0  0
   -1.0242   -0.3284    0.7754 N   0  0  0  0  0  0  0  0  0  0  0  0
   -0.1083   -1.1588    0.1658 C   0  0  0  0  0  0  0  0  0  0  0  0
   -0.4075   -2.2356   -0.3377 O   0  0  0  0  0  0  0  0  0  0  0  0
    1.3049   -0.6241    0.2231 C   0  0  0  0  0  0  0  0  0  0  0  0
    2.2257   -1.4078   -0.7032 C   0  0  0  0  0  0  0  0  0  0  0  0
    3.6151   -1.0030   -0.5753 N   0  0  0  0  0  0  0  0  0  0  0  0
    4.0850    0.1868   -1.1050 C   0  0  0  0  0  0  0  0  0  0  0  0
    3.3256    0.9760   -1.6629 O   0  0  0  0  0  0  0  0  0  0  0  0
    5.5098    0.4165   -0.9382 C   0  0  0  0  0  0  0  0  0  0  0  0
    6.5352   -0.3191   -0.3646 C   0  0  0  0  0  0  0  0  0  0  0  0
    7.7230    0.4404   -0.5110 C   0  0  0  0  0  0  0  0  0  0  0  0
    7.3596    1.5929   -1.1623 C   0  0  0  0  0  0  0  0  0  0  0  0
    6.0296    1.5899   -1.4238 O   0  0  0  0  0  0  0  0  0  0  0  0
   -3.8674   -2.4953    4.3496 H   0  0  0  0  0  0  0  0  0  0  0  0
   -2.7385   -3.7404    3.7000 H   0  0  0  0  0  0  0  0  0  0  0  0
   -4.4820   -3.8545    3.3869 H   0  0  0  0  0  0  0  0  0  0  0  0
   -2.6762   -1.4638    0.1712 H   0  0  0  0  0  0  0  0  0  0  0  0
   -4.3645    0.0792    1.4101 H   0  0  0  0  0  0  0  0  0  0  0  0
   -3.0386    1.1522    1.7798 H   0  0  0  0  0  0  0  0  0  0  0  0
   -2.1082    2.6374    0.0553 H   0  0  0  0  0  0  0  0  0  0  0  0
   -2.4203    3.7050   -2.1450 H   0  0  0  0  0  0  0  0  0  0  0  0
   -4.0551    2.7799   -3.7635 H   0  0  0  0  0  0  0  0  0  0  0  0
   -5.3820    0.7696   -3.1731 H   0  0  0  0  0  0  0  0  0  0  0  0
   -5.0848   -0.3159   -0.9780 H   0  0  0  0  0  0  0  0  0  0  0  0
   -0.6585    0.3348    1.4488 H   0  0  0  0  0  0  0  0  0  0  0  0
    1.6563   -0.7011    1.2589 H   0  0  0  0  0  0  0  0  0  0  0  0
    1.2961    0.4373   -0.0489 H   0  0  0  0  0  0  0  0  0  0  0  0
    2.1895   -2.4791   -0.4768 H   0  0  0  0  0  0  0  0  0  0  0  0
    1.9191   -1.2774   -1.7476 H   0  0  0  0  0  0  0  0  0  0  0  0
    4.2602   -1.6476   -0.1439 H   0  0  0  0  0  0  0  0  0  0  0  0
    6.4494   -1.2883    0.1044 H   0  0  0  0  0  0  0  0  0  0  0  0
    8.7199    0.1802   -0.1836 H   0  0  0  0  0  0  0  0  0  0  0  0
    7.8982    2.4689   -1.4966 H   0  0  0  0  0  0  0  0  0  0  0  0
  1  2  1  0
  2  3  1  0
  3  4  2  0
  3  5  1  0
  5  6  1  0
  6  7  1  0
  7  8  2  0
  8  9  1  0
  9 10  2  0
 10 11  1  0
 11 12  2  0
  5 13  1  0
 13 14  1  0
 14 15  2  0
 14 16  1  0
 16 17  1  0
 17 18  1  0
 18 19  1  0
 19 20  2  0
 19 21  1  0
 21 22  2  0
 22 23  1  0
 23 24  2  0
 24 25  1  0
 12  7  1  0
 25 21  1  0
  1 26  1  0
  1 27  1  0
  1 28  1  0
  5 29  1  0
  6 30  1  0
  6 31  1  0
  8 32  1  0
  9 33  1  0
 10 34  1  0
 11 35  1  0
 12 36  1  0
 13 37  1  0
 16 38  1  0
 16 39  1  0
 17 40  1  0
 17 41  1  0
 18 42  1  0
 22 43  1  0
 23 44  1  0
 24 45  1  0
M  END
$$$$
