
     RDKit          3D

 38 39  0  0  0  0  0  0  0  0999 V2000
   -5.5681   -1.2584    1.9647 C   0  0  0  0  0  0  0  0  0  0  0  0
   -5.1529   -0.3967    0.9148 O   0  0  0  0  0  0  0  0  0  0  0  0
   -3.8431    0.0145    0.9051 C   0  0  0  0  0  0  0  0  0  0  0  0
   -2.8941   -0.3494    1.8680 C   0  0  0  0  0  0  0  0  0  0  0  0
   -1.5817    0.1186    1.7769 C   0  0  0  0  0  0  0  0  0  0  0  0
   -1.2148    0.9524    0.7195 C   0  0  0  0  0  0  0  0  0  0  0  0
    0.1908    1.4408    0.6121 C   0  0  0  0  0  0  0  0  0  0  0  0
    0.8079    1.8861    1.6653 N   0  0  0  0  0  0  0  0  0  0  0  0
    0.7882    1.3931   -0.6348 N   0  0  0  0  0  0  0  0  0  0  0  0
    2.1917    1.4958   -0.5507 O   0  0  0  0  0  0  0  0  0  0  0  0
    2.7994    0.2621   -0.5762 C   0  0  0  0  0  0  0  0  0  0  0  0
    2.2011   -0.7803   -0.8206 O   0  0  0  0  0  0  0  0  0  0  0  0
    4.2634    0.4304   -0.2396 C   0  0  0  0  0  0  0  0  0  0  0  0
    5.0338   -0.8286   -0.5033 C   0  0  0  0  0  0  0  0  0  0  0  0
    5.2630   -1.8879    0.3533 C   0  0  0  0  0  0  0  0  0  0  0  0
    6.0493   -2.9115   -0.2499 C   0  0  0  0  0  0  0  0  0  0  0  0
    6.3978   -2.5986   -1.5443 C   0  0  0  0  0  0  0  0  0  0  0  0
    5.7805   -1.0793   -2.0262 S   0  0  0  0  0  0  0  0  0  0  0  0
   -2.1513    1.3218   -0.2519 C   0  0  0  0  0  0  0  0  0  0  0  0
   -3.4684    0.8594   -0.1625 C   0  0  0  0  0  0  0  0  0  0  0  0
   -4.4600    1.1686   -1.0609 O   0  0  0  0  0  0  0  0  0  0  0  0
   -4.1415    2.0602   -2.1198 C   0  0  0  0  0  0  0  0  0  0  0  0
   -5.0187   -2.2052    1.9396 H   0  0  0  0  0  0  0  0  0  0  0  0
   -5.4706   -0.7688    2.9393 H   0  0  0  0  0  0  0  0  0  0  0  0
   -6.6276   -1.4853    1.8120 H   0  0  0  0  0  0  0  0  0  0  0  0
   -3.1436   -1.0012    2.6988 H   0  0  0  0  0  0  0  0  0  0  0  0
   -0.8494   -0.1910    2.5188 H   0  0  0  0  0  0  0  0  0  0  0  0
    0.1916    1.8866    2.4835 H   0  0  0  0  0  0  0  0  0  0  0  0
    0.5047    0.5908   -1.2026 H   0  0  0  0  0  0  0  0  0  0  0  0
    4.6714    1.2579   -0.8315 H   0  0  0  0  0  0  0  0  0  0  0  0
    4.3402    0.6960    0.8209 H   0  0  0  0  0  0  0  0  0  0  0  0
    4.8783   -1.9327    1.3655 H   0  0  0  0  0  0  0  0  0  0  0  0
    6.3417   -3.8320    0.2401 H   0  0  0  0  0  0  0  0  0  0  0  0
    6.9852   -3.1898   -2.2333 H   0  0  0  0  0  0  0  0  0  0  0  0
   -1.8371    1.9815   -1.0535 H   0  0  0  0  0  0  0  0  0  0  0  0
   -3.3776    1.6334   -2.7779 H   0  0  0  0  0  0  0  0  0  0  0  0
   -3.8323    3.0375   -1.7348 H   0  0  0  0  0  0  0  0  0  0  0  0
   -5.0472    2.2093   -2.7155 H   0  0  0  0  0  0  0  0  0  0  0  0
  1  2  1  0
  2  3  1  0
  3  4  2  0
  4  5  1  0
  5  6  2  0
  6  7  1  0
  7  8  2  3
  7  9  1  0
  9 10  1  0
 10 11  1  0
 11 12  2  0
 11 13  1  0
 13 14  1  0
 14 15  2  0
 15 16  1  0
 16 17  2  0
 17 18  1  0
  6 19  1  0
 19 20  2  0
 20 21  1  0
 21 22  1  0
 20  3  1  0
 18 14  1  0
  1 23  1  0
  1 24  1  0
  1 25  1  0
  4 26  1  0
  5 27  1  0
  8 28  1  0
  9 29  1  0
 13 30  1  0
 13 31  1  0
 15 32  1  0
 16 33  1  0
 17 34  1  0
 19 35  1  0
 22 36  1  0
 22 37  1  0
 22 38  1  0
M  END
$$$$
