
     RDKit          3D

 55 56  0  0  0  0  0  0  0  0999 V2000
   -5.4884    3.4073    2.0931 C   0  0  0  0  0  0  0  0  0  0  0  0
   -4.8211    2.4827    1.0679 C   0  0  0  0  0  0  0  0  0  0  0  0
   -3.6631    1.7975    1.6242 N   0  0  0  0  0  0  0  0  0  0  0  0
   -2.4860    2.4662    1.8720 C   0  0  0  0  0  0  0  0  0  0  0  0
   -2.3563    3.6822    1.7656 O   0  0  0  0  0  0  0  0  0  0  0  0
   -1.3553    1.5746    2.3411 C   0  0  0  0  0  0  0  0  0  0  0  0
   -0.1025    1.7766    1.4998 C   0  0  0  0  0  0  0  0  0  0  0  0
   -0.2153    0.9326   -0.1190 S   0  0  0  0  0  0  0  0  0  0  0  0
    0.2909   -0.7636    0.3482 C   0  0  0  0  0  0  0  0  0  0  0  0
    1.8002   -0.9057    0.5140 C   0  0  0  0  0  0  0  0  0  0  0  0
    2.5403   -0.9685   -0.8081 C   0  0  0  0  0  0  0  0  0  0  0  0
    2.0370   -1.3970   -1.8405 O   0  0  0  0  0  0  0  0  0  0  0  0
    3.8526   -0.5549   -0.7090 N   0  0  0  0  0  0  0  0  0  0  0  0
    4.7818   -0.6722   -1.8227 C   0  0  0  0  0  0  0  0  0  0  0  0
    5.5513    0.6409   -1.9920 C   0  0  0  0  0  0  0  0  0  0  0  0
    5.6598   -1.8957   -1.6112 C   0  0  0  0  0  0  0  0  0  0  0  0
    5.2084   -3.1420   -2.0812 C   0  0  0  0  0  0  0  0  0  0  0  0
    5.9657   -4.2990   -1.8916 C   0  0  0  0  0  0  0  0  0  0  0  0
    7.1836   -4.2314   -1.2191 C   0  0  0  0  0  0  0  0  0  0  0  0
    7.6403   -3.0080   -0.7321 C   0  0  0  0  0  0  0  0  0  0  0  0
    6.8809   -1.8490   -0.9193 C   0  0  0  0  0  0  0  0  0  0  0  0
   -5.7959    1.4561    0.5134 C   0  0  0  0  0  0  0  0  0  0  0  0
   -5.9357    1.3079   -0.8769 C   0  0  0  0  0  0  0  0  0  0  0  0
   -6.8116    0.3584   -1.4083 C   0  0  0  0  0  0  0  0  0  0  0  0
   -7.5508   -0.4627   -0.5575 C   0  0  0  0  0  0  0  0  0  0  0  0
   -7.4178   -0.3332    0.8247 C   0  0  0  0  0  0  0  0  0  0  0  0
   -6.5388    0.6126    1.3564 C   0  0  0  0  0  0  0  0  0  0  0  0
   -5.7685    2.8718    3.0065 H   0  0  0  0  0  0  0  0  0  0  0  0
   -4.8158    4.2170    2.3936 H   0  0  0  0  0  0  0  0  0  0  0  0
   -6.3933    3.8655    1.6774 H   0  0  0  0  0  0  0  0  0  0  0  0
   -4.4588    3.1123    0.2442 H   0  0  0  0  0  0  0  0  0  0  0  0
   -3.6069    0.8007    1.4485 H   0  0  0  0  0  0  0  0  0  0  0  0
   -1.1456    1.8725    3.3759 H   0  0  0  0  0  0  0  0  0  0  0  0
   -1.6595    0.5235    2.3782 H   0  0  0  0  0  0  0  0  0  0  0  0
    0.7750    1.4092    2.0386 H   0  0  0  0  0  0  0  0  0  0  0  0
    0.0680    2.8395    1.3009 H   0  0  0  0  0  0  0  0  0  0  0  0
   -0.0848   -1.4430   -0.4245 H   0  0  0  0  0  0  0  0  0  0  0  0
   -0.2155   -1.0347    1.2804 H   0  0  0  0  0  0  0  0  0  0  0  0
    2.0092   -1.8556    1.0216 H   0  0  0  0  0  0  0  0  0  0  0  0
    2.2128   -0.1113    1.1443 H   0  0  0  0  0  0  0  0  0  0  0  0
    4.2566   -0.4557    0.2120 H   0  0  0  0  0  0  0  0  0  0  0  0
    4.2146   -0.8189   -2.7518 H   0  0  0  0  0  0  0  0  0  0  0  0
    6.0679    0.9395   -1.0723 H   0  0  0  0  0  0  0  0  0  0  0  0
    4.8613    1.4546   -2.2451 H   0  0  0  0  0  0  0  0  0  0  0  0
    6.2924    0.5649   -2.7949 H   0  0  0  0  0  0  0  0  0  0  0  0
    4.2515   -3.2143   -2.5990 H   0  0  0  0  0  0  0  0  0  0  0  0
    5.6020   -5.2525   -2.2685 H   0  0  0  0  0  0  0  0  0  0  0  0
    7.7748   -5.1314   -1.0735 H   0  0  0  0  0  0  0  0  0  0  0  0
    8.5893   -2.9559   -0.2032 H   0  0  0  0  0  0  0  0  0  0  0  0
    7.2639   -0.9137   -0.5186 H   0  0  0  0  0  0  0  0  0  0  0  0
   -5.3622    1.9336   -1.5592 H   0  0  0  0  0  0  0  0  0  0  0  0
   -6.9141    0.2584   -2.4868 H   0  0  0  0  0  0  0  0  0  0  0  0
   -8.2338   -1.2002   -0.9718 H   0  0  0  0  0  0  0  0  0  0  0  0
   -7.9977   -0.9704    1.4880 H   0  0  0  0  0  0  0  0  0  0  0  0
   -6.4372    0.6822    2.4372 H   0  0  0  0  0  0  0  0  0  0  0  0
  1  2  1  0
  2  3  1  0
  3  4  1  0
  4  5  2  0
  4  6  1  0
  6  7  1  0
  7  8  1  0
  8  9  1  0
  9 10  1  0
 10 11  1  0
 11 12  2  0
 11 13  1  0
 13 14  1  0
 14 15  1  0
 14 16  1  0
 16 17  2  0
 17 18  1  0
 18 19  2  0
 19 20  1  0
 20 21  2  0
  2 22  1  0
 22 23  2  0
 23 24  1  0
 24 25  2  0
 25 26  1  0
 26 27  2  0
 21 16  1  0
 27 22  1  0
  1 28  1  0
  1 29  1  0
  1 30  1  0
  2 31  1  0
  3 32  1  0
  6 33  1  0
  6 34  1  0
  7 35  1  0
  7 36  1  0
  9 37  1  0
  9 38  1  0
 10 39  1  0
 10 40  1  0
 13 41  1  0
 14 42  1  0
 15 43  1  0
 15 44  1  0
 15 45  1  0
 17 46  1  0
 18 47  1  0
 19 48  1  0
 20 49  1  0
 21 50  1  0
 23 51  1  0
 24 52  1  0
 25 53  1  0
 26 54  1  0
 27 55  1  0
M  END
$$$$
