
     RDKit          3D

 38 40  0  0  0  0  0  0  0  0999 V2000
   -3.6634   -1.6508   -2.4156 C   0  0  0  0  0  0  0  0  0  0  0  0
   -3.8900   -1.7518   -1.0176 O   0  0  0  0  0  0  0  0  0  0  0  0
   -2.9593   -1.1935   -0.1816 C   0  0  0  0  0  0  0  0  0  0  0  0
   -1.7948   -0.5406   -0.5969 C   0  0  0  0  0  0  0  0  0  0  0  0
   -0.8917    0.0104    0.3365 C   0  0  0  0  0  0  0  0  0  0  0  0
   -1.1718   -0.1106    1.7131 C   0  0  0  0  0  0  0  0  0  0  0  0
   -2.3312   -0.7769    2.1321 C   0  0  0  0  0  0  0  0  0  0  0  0
   -3.2141   -1.3041    1.1900 C   0  0  0  0  0  0  0  0  0  0  0  0
   -4.3491   -1.9471    1.6097 O   0  0  0  0  0  0  0  0  0  0  0  0
   -0.2046    0.4148    2.7470 C   0  0  0  0  0  0  0  0  0  0  0  0
    0.6892    1.4980    2.1565 C   0  0  0  0  0  0  0  0  0  0  0  0
    1.3099    1.0228    0.9250 N   0  0  0  0  0  0  0  0  0  0  0  0
    2.6434    0.5947    0.9743 C   0  0  0  0  0  0  0  0  0  0  0  0
    3.2245    0.5101    2.0595 O   0  0  0  0  0  0  0  0  0  0  0  0
    3.3431    0.2645   -0.2586 C   0  0  0  0  0  0  0  0  0  0  0  0
    4.4985   -0.4747   -0.4493 C   0  0  0  0  0  0  0  0  0  0  0  0
    4.7890   -0.4432   -1.8334 C   0  0  0  0  0  0  0  0  0  0  0  0
    3.8085    0.3280   -2.4082 C   0  0  0  0  0  0  0  0  0  0  0  0
    2.9363    0.7689   -1.4667 O   0  0  0  0  0  0  0  0  0  0  0  0
    0.3760    0.7074   -0.1692 C   0  0  0  0  0  0  0  0  0  0  0  0
    0.0334    1.9802   -0.9526 C   0  0  0  0  0  0  0  0  0  0  0  0
   -4.4985   -2.1399   -2.9264 H   0  0  0  0  0  0  0  0  0  0  0  0
   -2.7456   -2.1729   -2.7058 H   0  0  0  0  0  0  0  0  0  0  0  0
   -3.6432   -0.6045   -2.7385 H   0  0  0  0  0  0  0  0  0  0  0  0
   -1.5593   -0.4521   -1.6530 H   0  0  0  0  0  0  0  0  0  0  0  0
   -2.5335   -0.8819    3.1943 H   0  0  0  0  0  0  0  0  0  0  0  0
   -4.3714   -1.9498    2.5786 H   0  0  0  0  0  0  0  0  0  0  0  0
   -0.7505    0.8276    3.6029 H   0  0  0  0  0  0  0  0  0  0  0  0
    0.4060   -0.4238    3.1033 H   0  0  0  0  0  0  0  0  0  0  0  0
    0.1044    2.3938    1.9150 H   0  0  0  0  0  0  0  0  0  0  0  0
    1.4438    1.8030    2.8891 H   0  0  0  0  0  0  0  0  0  0  0  0
    5.0591   -0.9671    0.3345 H   0  0  0  0  0  0  0  0  0  0  0  0
    5.6175   -0.9119   -2.3459 H   0  0  0  0  0  0  0  0  0  0  0  0
    3.6060    0.6490   -3.4205 H   0  0  0  0  0  0  0  0  0  0  0  0
    0.8480   -0.0139   -0.8426 H   0  0  0  0  0  0  0  0  0  0  0  0
    0.9405    2.5046   -1.2707 H   0  0  0  0  0  0  0  0  0  0  0  0
   -0.5540    2.6801   -0.3473 H   0  0  0  0  0  0  0  0  0  0  0  0
   -0.5514    1.7535   -1.8503 H   0  0  0  0  0  0  0  0  0  0  0  0
  1  2  1  0
  2  3  1  0
  3  4  2  0
  4  5  1  0
  5  6  2  0
  6  7  1  0
  7  8  2  0
  8  9  1  0
  6 10  1  0
 10 11  1  0
 11 12  1  0
 12 13  1  0
 13 14  2  0
 13 15  1  0
 15 16  2  0
 16 17  1  0
 17 18  2  0
 18 19  1  0
 12 20  1  0
 20 21  1  0
  8  3  1  0
 19 15  1  0
 20  5  1  0
  1 22  1  0
  1 23  1  0
  1 24  1  0
  4 25  1  0
  7 26  1  0
  9 27  1  0
 10 28  1  0
 10 29  1  0
 11 30  1  0
 11 31  1  0
 16 32  1  0
 17 33  1  0
 18 34  1  0
 20 35  1  0
 21 36  1  0
 21 37  1  0
 21 38  1  0
M  END
$$$$
