
     RDKit          3D

 43 44  0  0  0  0  0  0  0  0999 V2000
   -5.6549    3.1659    0.1962 C   0  0  0  0  0  0  0  0  0  0  0  0
   -4.1775    2.9529    0.4618 C   0  0  0  0  0  0  0  0  0  0  0  0
   -3.8957    1.5566    0.3138 O   0  0  0  0  0  0  0  0  0  0  0  0
   -2.5941    1.2133    0.5222 C   0  0  0  0  0  0  0  0  0  0  0  0
   -1.7168    2.0208    0.8216 O   0  0  0  0  0  0  0  0  0  0  0  0
   -2.3252   -0.2223    0.3583 C   0  0  0  0  0  0  0  0  0  0  0  0
   -1.0386   -0.7301    0.5018 C   0  0  0  0  0  0  0  0  0  0  0  0
    0.0998    0.0073    0.8018 N   0  0  0  0  0  0  0  0  0  0  0  0
    1.4036   -0.4502    0.9115 C   0  0  0  0  0  0  0  0  0  0  0  0
    1.8064   -1.6012    0.7691 O   0  0  0  0  0  0  0  0  0  0  0  0
    2.3740    0.6814    1.2821 C   0  0  0  0  0  0  0  0  0  0  0  0
    3.7245    0.3924    0.9233 O   0  0  0  0  0  0  0  0  0  0  0  0
    3.9684    0.5005   -0.4063 C   0  0  0  0  0  0  0  0  0  0  0  0
    3.1844    0.9235   -1.2415 O   0  0  0  0  0  0  0  0  0  0  0  0
    5.3508    0.0638   -0.7245 C   0  0  0  0  0  0  0  0  0  0  0  0
    5.8279    0.2803   -2.0182 C   0  0  0  0  0  0  0  0  0  0  0  0
    7.1163   -0.1244   -2.3130 C   0  0  0  0  0  0  0  0  0  0  0  0
    7.9364   -0.7178   -1.4198 N   0  0  0  0  0  0  0  0  0  0  0  0
    7.4462   -0.9256   -0.1788 C   0  0  0  0  0  0  0  0  0  0  0  0
    6.1731   -0.5571    0.2167 C   0  0  0  0  0  0  0  0  0  0  0  0
   -0.9707   -2.4034    0.2779 S   0  0  0  0  0  0  0  0  0  0  0  0
   -2.6411   -2.5193   -0.0283 C   0  0  0  0  0  0  0  0  0  0  0  0
   -3.2363   -3.8581   -0.3262 C   0  0  0  0  0  0  0  0  0  0  0  0
   -3.2733   -1.2857    0.0413 C   0  0  0  0  0  0  0  0  0  0  0  0
   -4.7428   -1.0904   -0.1835 C   0  0  0  0  0  0  0  0  0  0  0  0
   -6.2611    2.5804    0.8953 H   0  0  0  0  0  0  0  0  0  0  0  0
   -5.9176    2.8286   -0.8120 H   0  0  0  0  0  0  0  0  0  0  0  0
   -5.9210    4.2218    0.2964 H   0  0  0  0  0  0  0  0  0  0  0  0
   -3.5852    3.5283   -0.2584 H   0  0  0  0  0  0  0  0  0  0  0  0
   -3.9347    3.2734    1.4811 H   0  0  0  0  0  0  0  0  0  0  0  0
   -0.0640    1.0083    0.9050 H   0  0  0  0  0  0  0  0  0  0  0  0
    2.3434    0.7909    2.3717 H   0  0  0  0  0  0  0  0  0  0  0  0
    2.0576    1.6381    0.8492 H   0  0  0  0  0  0  0  0  0  0  0  0
    5.2124    0.7508   -2.7781 H   0  0  0  0  0  0  0  0  0  0  0  0
    7.5367    0.0207   -3.3042 H   0  0  0  0  0  0  0  0  0  0  0  0
    8.1276   -1.4149    0.5118 H   0  0  0  0  0  0  0  0  0  0  0  0
    5.8402   -0.7616    1.2280 H   0  0  0  0  0  0  0  0  0  0  0  0
   -3.6981   -3.8531   -1.3190 H   0  0  0  0  0  0  0  0  0  0  0  0
   -4.0069   -4.1016    0.4127 H   0  0  0  0  0  0  0  0  0  0  0  0
   -2.4932   -4.6623   -0.3090 H   0  0  0  0  0  0  0  0  0  0  0  0
   -5.2556   -2.0333   -0.3966 H   0  0  0  0  0  0  0  0  0  0  0  0
   -5.2121   -0.6598    0.7068 H   0  0  0  0  0  0  0  0  0  0  0  0
   -4.9135   -0.4278   -1.0380 H   0  0  0  0  0  0  0  0  0  0  0  0
  1  2  1  0
  2  3  1  0
  3  4  1  0
  4  5  2  0
  4  6  1  0
  6  7  2  0
  7  8  1  0
  8  9  1  0
  9 10  2  0
  9 11  1  0
 11 12  1  0
 12 13  1  0
 13 14  2  0
 13 15  1  0
 15 16  2  0
 16 17  1  0
 17 18  2  0
 18 19  1  0
 19 20  2  0
  7 21  1  0
 21 22  1  0
 22 23  1  0
 22 24  2  0
 24 25  1  0
 24  6  1  0
 20 15  1  0
  1 26  1  0
  1 27  1  0
  1 28  1  0
  2 29  1  0
  2 30  1  0
  8 31  1  0
 11 32  1  0
 11 33  1  0
 16 34  1  0
 17 35  1  0
 19 36  1  0
 20 37  1  0
 23 38  1  0
 23 39  1  0
 23 40  1  0
 25 41  1  0
 25 42  1  0
 25 43  1  0
M  END
$$$$
