
     RDKit          3D

 47 51  0  0  0  0  0  0  0  0999 V2000
    3.3785   -2.2048   -0.0231 C   0  0  0  0  0  0  0  0  0  0  0  0
    2.4562   -2.8358    0.9853 C   0  0  0  0  0  0  0  0  0  0  0  0
    2.8536   -4.0385    1.5964 C   0  0  0  0  0  0  0  0  0  0  0  0
    2.0364   -4.6716    2.5321 C   0  0  0  0  0  0  0  0  0  0  0  0
    0.8150   -4.1076    2.8805 C   0  0  0  0  0  0  0  0  0  0  0  0
    0.4128   -2.9074    2.2939 C   0  0  0  0  0  0  0  0  0  0  0  0
    1.2188   -2.2510    1.3409 C   0  0  0  0  0  0  0  0  0  0  0  0
    0.7793   -1.0108    0.7795 N   0  0  0  0  0  0  0  0  0  0  0  0
    1.6682    0.0210    0.9921 N   0  0  0  0  0  0  0  0  0  0  0  0
    1.2279    1.2130    0.7378 C   0  0  0  0  0  0  0  0  0  0  0  0
    2.1710    2.3769    0.9430 C   0  0  0  0  0  0  0  0  0  0  0  0
    2.0035    3.0580    1.9511 O   0  0  0  0  0  0  0  0  0  0  0  0
    3.1808    2.6256   -0.0692 C   0  0  0  0  0  0  0  0  0  0  0  0
    4.1746    3.5873   -0.0166 C   0  0  0  0  0  0  0  0  0  0  0  0
    5.0039    3.5854   -1.1749 C   0  0  0  0  0  0  0  0  0  0  0  0
    4.6149    2.6258   -2.0813 C   0  0  0  0  0  0  0  0  0  0  0  0
    3.2594    1.7414   -1.5340 S   0  0  0  0  0  0  0  0  0  0  0  0
   -0.1285    1.5704    0.2777 C   0  0  0  0  0  0  0  0  0  0  0  0
   -1.0012    0.5846    0.0315 C   0  0  0  0  0  0  0  0  0  0  0  0
   -2.3010    0.9246   -0.4312 C   0  0  0  0  0  0  0  0  0  0  0  0
   -2.8453    2.1086   -0.6557 N   0  0  0  0  0  0  0  0  0  0  0  0
   -4.1233    1.8579   -1.0959 C   0  0  0  0  0  0  0  0  0  0  0  0
   -5.1348    2.7527   -1.4732 C   0  0  0  0  0  0  0  0  0  0  0  0
   -6.3673    2.2346   -1.8922 C   0  0  0  0  0  0  0  0  0  0  0  0
   -6.5868    0.8551   -1.9347 C   0  0  0  0  0  0  0  0  0  0  0  0
   -5.5885   -0.0527   -1.5618 C   0  0  0  0  0  0  0  0  0  0  0  0
   -4.3718    0.4923   -1.1482 C   0  0  0  0  0  0  0  0  0  0  0  0
   -3.2012   -0.0749   -0.7233 N   0  0  0  0  0  0  0  0  0  0  0  0
   -0.5153   -0.8278    0.2625 C   0  0  0  0  0  0  0  0  0  0  0  0
   -1.3282   -1.8027   -0.0657 N   0  0  0  0  0  0  0  0  0  0  0  0
    3.9566   -1.4008    0.4422 H   0  0  0  0  0  0  0  0  0  0  0  0
    4.0834   -2.9401   -0.4267 H   0  0  0  0  0  0  0  0  0  0  0  0
    2.8170   -1.8102   -0.8760 H   0  0  0  0  0  0  0  0  0  0  0  0
    3.8096   -4.4918    1.3416 H   0  0  0  0  0  0  0  0  0  0  0  0
    2.3589   -5.6014    2.9939 H   0  0  0  0  0  0  0  0  0  0  0  0
    0.1811   -4.5920    3.6188 H   0  0  0  0  0  0  0  0  0  0  0  0
   -0.5318   -2.4655    2.6058 H   0  0  0  0  0  0  0  0  0  0  0  0
    4.2986    4.2619    0.8242 H   0  0  0  0  0  0  0  0  0  0  0  0
    5.8412    4.2543   -1.3344 H   0  0  0  0  0  0  0  0  0  0  0  0
    5.0606    2.4025   -3.0414 H   0  0  0  0  0  0  0  0  0  0  0  0
   -0.3747    2.6192    0.1512 H   0  0  0  0  0  0  0  0  0  0  0  0
   -4.9576    3.8216   -1.4378 H   0  0  0  0  0  0  0  0  0  0  0  0
   -7.1610    2.9168   -2.1874 H   0  0  0  0  0  0  0  0  0  0  0  0
   -7.5531    0.4782   -2.2642 H   0  0  0  0  0  0  0  0  0  0  0  0
   -5.7571   -1.1235   -1.5942 H   0  0  0  0  0  0  0  0  0  0  0  0
   -2.9921   -1.0644   -0.6326 H   0  0  0  0  0  0  0  0  0  0  0  0
   -0.8411   -2.6947    0.0936 H   0  0  0  0  0  0  0  0  0  0  0  0
  1  2  1  0
  2  3  2  0
  3  4  1  0
  4  5  2  0
  5  6  1  0
  6  7  2  0
  7  8  1  0
  8  9  1  0
  9 10  2  0
 10 11  1  0
 11 12  2  0
 11 13  1  0
 13 14  2  0
 14 15  1  0
 15 16  2  0
 16 17  1  0
 10 18  1  0
 18 19  2  0
 19 20  1  0
 20 21  2  0
 21 22  1  0
 22 23  2  0
 23 24  1  0
 24 25  2  0
 25 26  1  0
 26 27  2  0
 27 28  1  0
 19 29  1  0
 29 30  2  3
  7  2  1  0
 29  8  1  0
 17 13  1  0
 28 20  1  0
 27 22  1  0
  1 31  1  0
  1 32  1  0
  1 33  1  0
  3 34  1  0
  4 35  1  0
  5 36  1  0
  6 37  1  0
 14 38  1  0
 15 39  1  0
 16 40  1  0
 18 41  1  0
 23 42  1  0
 24 43  1  0
 25 44  1  0
 26 45  1  0
 28 46  1  0
 30 47  1  0
M  END
$$$$
