
     RDKit          3D

 53 55  0  0  0  0  0  0  0  0999 V2000
   -7.3050    0.6059   -0.9640 C   0  0  0  0  0  0  0  0  0  0  0  0
   -6.3976    0.4033    0.2388 C   0  0  0  0  0  0  0  0  0  0  0  0
   -4.9363    0.2514   -0.1816 C   0  0  0  0  0  0  0  0  0  0  0  0
   -4.0271    0.0484    1.0319 C   0  0  0  0  0  0  0  0  0  0  0  0
   -2.6460   -0.0793    0.6226 N   0  0  0  0  0  0  0  0  0  0  0  0
   -1.7530    0.9440    0.3091 C   0  0  0  0  0  0  0  0  0  0  0  0
   -1.9112    2.2150    0.4623 N   0  0  0  0  0  0  0  0  0  0  0  0
   -0.6012    0.3575   -0.2104 N   0  0  0  0  0  0  0  0  0  0  0  0
    0.4970    1.0600   -0.8538 C   0  0  0  0  0  0  0  0  0  0  0  0
    1.3159    1.9257    0.1263 C   0  0  0  0  0  0  0  0  0  0  0  0
    0.6270    3.1192    0.5185 O   0  0  0  0  0  0  0  0  0  0  0  0
    1.7896    1.1631    1.3703 C   0  0  0  0  0  0  0  0  0  0  0  0
    2.5096   -0.0251    1.0384 O   0  0  0  0  0  0  0  0  0  0  0  0
    3.8371    0.0702    0.7330 C   0  0  0  0  0  0  0  0  0  0  0  0
    4.4370   -1.1428    0.3866 C   0  0  0  0  0  0  0  0  0  0  0  0
    5.7892   -1.1997    0.0410 C   0  0  0  0  0  0  0  0  0  0  0  0
    6.5622   -0.0355    0.0279 C   0  0  0  0  0  0  0  0  0  0  0  0
    8.0225   -0.0938   -0.3079 C   0  0  0  0  0  0  0  0  0  0  0  0
    5.9646    1.1761    0.3921 C   0  0  0  0  0  0  0  0  0  0  0  0
    4.6092    1.2302    0.7388 C   0  0  0  0  0  0  0  0  0  0  0  0
   -0.7956   -1.0226   -0.2902 C   0  0  0  0  0  0  0  0  0  0  0  0
    0.0175   -2.0371   -0.7522 C   0  0  0  0  0  0  0  0  0  0  0  0
   -0.4728   -3.3459   -0.7048 C   0  0  0  0  0  0  0  0  0  0  0  0
   -1.7559   -3.6180   -0.1997 C   0  0  0  0  0  0  0  0  0  0  0  0
   -2.5733   -2.5874    0.2737 C   0  0  0  0  0  0  0  0  0  0  0  0
   -2.0818   -1.2981    0.2273 C   0  0  0  0  0  0  0  0  0  0  0  0
   -8.3452    0.7120   -0.6405 H   0  0  0  0  0  0  0  0  0  0  0  0
   -7.2471   -0.2475   -1.6473 H   0  0  0  0  0  0  0  0  0  0  0  0
   -7.0274    1.5088   -1.5172 H   0  0  0  0  0  0  0  0  0  0  0  0
   -6.7217   -0.4887    0.7875 H   0  0  0  0  0  0  0  0  0  0  0  0
   -6.5032    1.2582    0.9168 H   0  0  0  0  0  0  0  0  0  0  0  0
   -4.8384   -0.5986   -0.8681 H   0  0  0  0  0  0  0  0  0  0  0  0
   -4.6190    1.1423   -0.7379 H   0  0  0  0  0  0  0  0  0  0  0  0
   -4.3489   -0.8288    1.6058 H   0  0  0  0  0  0  0  0  0  0  0  0
   -4.1311    0.8982    1.7173 H   0  0  0  0  0  0  0  0  0  0  0  0
   -2.8384    2.3839    0.8589 H   0  0  0  0  0  0  0  0  0  0  0  0
    0.0831    1.7021   -1.6414 H   0  0  0  0  0  0  0  0  0  0  0  0
    1.1788    0.3627   -1.3520 H   0  0  0  0  0  0  0  0  0  0  0  0
    2.1933    2.2722   -0.4307 H   0  0  0  0  0  0  0  0  0  0  0  0
   -0.3344    2.8952    0.5638 H   0  0  0  0  0  0  0  0  0  0  0  0
    2.3512    1.8089    2.0564 H   0  0  0  0  0  0  0  0  0  0  0  0
    0.9183    0.8526    1.9600 H   0  0  0  0  0  0  0  0  0  0  0  0
    3.8459   -2.0553    0.3919 H   0  0  0  0  0  0  0  0  0  0  0  0
    6.2323   -2.1590   -0.2154 H   0  0  0  0  0  0  0  0  0  0  0  0
    8.3547    0.8420   -0.7696 H   0  0  0  0  0  0  0  0  0  0  0  0
    8.2273   -0.8984   -1.0221 H   0  0  0  0  0  0  0  0  0  0  0  0
    8.6086   -0.2684    0.5996 H   0  0  0  0  0  0  0  0  0  0  0  0
    6.5514    2.0922    0.4104 H   0  0  0  0  0  0  0  0  0  0  0  0
    4.1972    2.1966    1.0096 H   0  0  0  0  0  0  0  0  0  0  0  0
    1.0142   -1.8457   -1.1314 H   0  0  0  0  0  0  0  0  0  0  0  0
    0.1485   -4.1652   -1.0597 H   0  0  0  0  0  0  0  0  0  0  0  0
   -2.1136   -4.6450   -0.1728 H   0  0  0  0  0  0  0  0  0  0  0  0
   -3.5578   -2.8120    0.6650 H   0  0  0  0  0  0  0  0  0  0  0  0
  1  2  1  0
  2  3  1  0
  3  4  1  0
  4  5  1  0
  5  6  1  0
  6  7  2  3
  6  8  1  0
  8  9  1  0
  9 10  1  0
 10 11  1  0
 10 12  1  0
 12 13  1  0
 13 14  1  0
 14 15  2  0
 15 16  1  0
 16 17  2  0
 17 18  1  0
 17 19  1  0
 19 20  2  0
  8 21  1  0
 21 22  2  0
 22 23  1  0
 23 24  2  0
 24 25  1  0
 25 26  2  0
 26  5  1  0
 20 14  1  0
 26 21  1  0
  1 27  1  0
  1 28  1  0
  1 29  1  0
  2 30  1  0
  2 31  1  0
  3 32  1  0
  3 33  1  0
  4 34  1  0
  4 35  1  0
  7 36  1  0
  9 37  1  0
  9 38  1  0
 10 39  1  0
 11 40  1  0
 12 41  1  0
 12 42  1  0
 15 43  1  0
 16 44  1  0
 18 45  1  0
 18 46  1  0
 18 47  1  0
 19 48  1  0
 20 49  1  0
 22 50  1  0
 23 51  1  0
 24 52  1  0
 25 53  1  0
M  END
$$$$
