
     RDKit          3D

 57 60  0  0  0  0  0  0  0  0999 V2000
   -4.0032   -3.3065    0.6254 C   0  0  0  0  0  0  0  0  0  0  0  0
   -4.0120   -2.0372    1.2823 O   0  0  0  0  0  0  0  0  0  0  0  0
   -2.7607   -1.4874    1.3038 C   0  0  0  0  0  0  0  0  0  0  0  0
   -1.8261   -1.9810    2.2201 C   0  0  0  0  0  0  0  0  0  0  0  0
   -0.5558   -1.4079    2.3027 C   0  0  0  0  0  0  0  0  0  0  0  0
   -0.2189   -0.3416    1.4638 C   0  0  0  0  0  0  0  0  0  0  0  0
    1.1250    0.2641    1.5853 C   0  0  0  0  0  0  0  0  0  0  0  0
    1.4820    0.6382    2.6999 O   0  0  0  0  0  0  0  0  0  0  0  0
    1.9113    0.3898    0.4483 N   0  0  0  0  0  0  0  0  0  0  0  0
    1.6652   -0.2770   -0.8420 C   0  0  0  0  0  0  0  0  0  0  0  0
    2.9641   -0.7661   -1.5136 C   0  0  0  0  0  0  0  0  0  0  0  0
    3.9671    0.3177   -1.6674 N   0  0  0  0  0  0  0  0  0  0  0  0
    5.2616   -0.1693   -1.9002 C   0  0  0  0  0  0  0  0  0  0  0  0
    6.3434    0.0588   -1.0383 C   0  0  0  0  0  0  0  0  0  0  0  0
    7.6156   -0.4598   -1.3101 C   0  0  0  0  0  0  0  0  0  0  0  0
    7.8332   -1.2183   -2.4558 C   0  0  0  0  0  0  0  0  0  0  0  0
    6.7790   -1.4571   -3.3292 C   0  0  0  0  0  0  0  0  0  0  0  0
    5.5107   -0.9377   -3.0506 C   0  0  0  0  0  0  0  0  0  0  0  0
    3.7738    1.4925   -0.7914 C   0  0  0  0  0  0  0  0  0  0  0  0
    3.1920    1.0948    0.5727 C   0  0  0  0  0  0  0  0  0  0  0  0
   -1.1613    0.1874    0.5778 C   0  0  0  0  0  0  0  0  0  0  0  0
   -2.4371   -0.3869    0.5057 C   0  0  0  0  0  0  0  0  0  0  0  0
   -3.6167    0.2943   -0.6276 S   0  0  0  0  0  6  0  0  0  0  0  0
   -4.1057   -0.7819   -1.4631 O   0  0  0  0  0  0  0  0  0  0  0  0
   -3.0223    1.4704   -1.2332 O   0  0  0  0  0  0  0  0  0  0  0  0
   -4.8691    0.8350    0.3715 N   0  0  0  0  0  0  0  0  0  0  0  0
   -4.5593    1.8985    1.3616 C   0  0  0  0  0  0  0  0  0  0  0  0
   -5.6266    2.9648    1.1532 C   0  0  0  0  0  0  0  0  0  0  0  0
   -6.8041    2.1744    0.6198 C   0  0  0  0  0  0  0  0  0  0  0  0
   -6.1286    1.1925   -0.3243 C   0  0  0  0  0  0  0  0  0  0  0  0
   -3.5501   -4.0704    1.2650 H   0  0  0  0  0  0  0  0  0  0  0  0
   -3.4832   -3.2628   -0.3377 H   0  0  0  0  0  0  0  0  0  0  0  0
   -5.0420   -3.5936    0.4381 H   0  0  0  0  0  0  0  0  0  0  0  0
   -2.0914   -2.7990    2.8851 H   0  0  0  0  0  0  0  0  0  0  0  0
    0.1652   -1.7826    3.0261 H   0  0  0  0  0  0  0  0  0  0  0  0
    1.1672    0.4566   -1.4869 H   0  0  0  0  0  0  0  0  0  0  0  0
    0.9905   -1.1275   -0.7090 H   0  0  0  0  0  0  0  0  0  0  0  0
    3.3807   -1.5740   -0.8962 H   0  0  0  0  0  0  0  0  0  0  0  0
    2.7128   -1.1843   -2.4951 H   0  0  0  0  0  0  0  0  0  0  0  0
    6.2193    0.6218   -0.1187 H   0  0  0  0  0  0  0  0  0  0  0  0
    8.4338   -0.2718   -0.6199 H   0  0  0  0  0  0  0  0  0  0  0  0
    8.8206   -1.6195   -2.6670 H   0  0  0  0  0  0  0  0  0  0  0  0
    6.9388   -2.0412   -4.2313 H   0  0  0  0  0  0  0  0  0  0  0  0
    4.7093   -1.1180   -3.7625 H   0  0  0  0  0  0  0  0  0  0  0  0
    4.6858    2.0868   -0.6699 H   0  0  0  0  0  0  0  0  0  0  0  0
    3.0602    2.1576   -1.2960 H   0  0  0  0  0  0  0  0  0  0  0  0
    3.0477    1.9858    1.1946 H   0  0  0  0  0  0  0  0  0  0  0  0
    3.8792    0.4252    1.1040 H   0  0  0  0  0  0  0  0  0  0  0  0
   -0.9039    1.0492   -0.0342 H   0  0  0  0  0  0  0  0  0  0  0  0
   -3.5581    2.3221    1.2477 H   0  0  0  0  0  0  0  0  0  0  0  0
   -4.6367    1.4623    2.3638 H   0  0  0  0  0  0  0  0  0  0  0  0
   -5.8591    3.5077    2.0734 H   0  0  0  0  0  0  0  0  0  0  0  0
   -5.2910    3.6909    0.4026 H   0  0  0  0  0  0  0  0  0  0  0  0
   -7.3010    1.6384    1.4375 H   0  0  0  0  0  0  0  0  0  0  0  0
   -7.5443    2.8007    0.1144 H   0  0  0  0  0  0  0  0  0  0  0  0
   -6.7462    0.3057   -0.4889 H   0  0  0  0  0  0  0  0  0  0  0  0
   -5.9204    1.6762   -1.2855 H   0  0  0  0  0  0  0  0  0  0  0  0
  1  2  1  0
  2  3  1  0
  3  4  2  0
  4  5  1  0
  5  6  2  0
  6  7  1  0
  7  8  2  0
  7  9  1  0
  9 10  1  0
 10 11  1  0
 11 12  1  0
 12 13  1  0
 13 14  2  0
 14 15  1  0
 15 16  2  0
 16 17  1  0
 17 18  2  0
 12 19  1  0
 19 20  1  0
  6 21  1  0
 21 22  2  0
 22 23  1  0
 23 24  2  0
 23 25  2  0
 23 26  1  0
 26 27  1  0
 27 28  1  0
 28 29  1  0
 29 30  1  0
 22  3  1  0
 30 26  1  0
 20  9  1  0
 18 13  1  0
  1 31  1  0
  1 32  1  0
  1 33  1  0
  4 34  1  0
  5 35  1  0
 10 36  1  0
 10 37  1  0
 11 38  1  0
 11 39  1  0
 14 40  1  0
 15 41  1  0
 16 42  1  0
 17 43  1  0
 18 44  1  0
 19 45  1  0
 19 46  1  0
 20 47  1  0
 20 48  1  0
 21 49  1  0
 27 50  1  0
 27 51  1  0
 28 52  1  0
 28 53  1  0
 29 54  1  0
 29 55  1  0
 30 56  1  0
 30 57  1  0
M  END
$$$$
