
     RDKit          3D

 44 47  0  0  0  0  0  0  0  0999 V2000
    1.3199    1.5418   -1.7469 C   0  0  0  0  0  0  0  0  0  0  0  0
    1.6386    0.8324   -0.4270 C   0  0  0  0  0  0  0  0  0  0  0  0
    1.2503   -0.5819   -0.4867 N   0  0  0  0  0  0  0  0  0  0  0  0
   -0.1140   -0.8785   -0.2742 C   0  0  0  0  0  0  0  0  0  0  0  0
   -0.9739    0.1289   -0.0567 N   0  0  0  0  0  0  0  0  0  0  0  0
   -2.2650   -0.1808    0.1500 C   0  0  0  0  0  0  0  0  0  0  0  0
   -3.2080    0.9319    0.3920 C   0  0  0  0  0  0  0  0  0  0  0  0
   -2.7858    2.2758    0.3582 C   0  0  0  0  0  0  0  0  0  0  0  0
   -3.6763    3.3303    0.5868 C   0  0  0  0  0  0  0  0  0  0  0  0
   -5.0153    3.0651    0.8556 C   0  0  0  0  0  0  0  0  0  0  0  0
   -5.4636    1.7486    0.8953 C   0  0  0  0  0  0  0  0  0  0  0  0
   -4.5699    0.6971    0.6659 C   0  0  0  0  0  0  0  0  0  0  0  0
   -2.7549   -1.4315    0.1579 N   0  0  0  0  0  0  0  0  0  0  0  0
   -1.9000   -2.4289   -0.0778 C   0  0  0  0  0  0  0  0  0  0  0  0
   -2.3860   -3.7312   -0.0910 C   0  0  0  0  0  0  0  0  0  0  0  0
   -1.5574   -4.8286   -0.3410 C   0  0  0  0  0  0  0  0  0  0  0  0
   -0.2071   -4.6282   -0.5896 C   0  0  0  0  0  0  0  0  0  0  0  0
    0.3032   -3.3321   -0.5791 C   0  0  0  0  0  0  0  0  0  0  0  0
   -0.5367   -2.2192   -0.3146 C   0  0  0  0  0  0  0  0  0  0  0  0
    3.1342    0.9010   -0.1312 C   0  0  0  0  0  0  0  0  0  0  0  0
    4.0772    0.2959   -0.9797 C   0  0  0  0  0  0  0  0  0  0  0  0
    5.4414    0.3610   -0.6916 C   0  0  0  0  0  0  0  0  0  0  0  0
    5.8818    1.0285    0.4490 C   0  0  0  0  0  0  0  0  0  0  0  0
    4.9595    1.6296    1.3030 C   0  0  0  0  0  0  0  0  0  0  0  0
    3.5942    1.5658    1.0166 C   0  0  0  0  0  0  0  0  0  0  0  0
    0.2416    1.5788   -1.9319 H   0  0  0  0  0  0  0  0  0  0  0  0
    1.7743    1.0339   -2.6051 H   0  0  0  0  0  0  0  0  0  0  0  0
    1.6888    2.5736   -1.7346 H   0  0  0  0  0  0  0  0  0  0  0  0
    1.1155    1.3443    0.3913 H   0  0  0  0  0  0  0  0  0  0  0  0
    1.7913   -1.1245    0.1833 H   0  0  0  0  0  0  0  0  0  0  0  0
   -1.7441    2.5126    0.1475 H   0  0  0  0  0  0  0  0  0  0  0  0
   -3.3200    4.3566    0.5526 H   0  0  0  0  0  0  0  0  0  0  0  0
   -5.7086    3.8829    1.0329 H   0  0  0  0  0  0  0  0  0  0  0  0
   -6.5086    1.5343    1.1039 H   0  0  0  0  0  0  0  0  0  0  0  0
   -4.9483   -0.3235    0.7025 H   0  0  0  0  0  0  0  0  0  0  0  0
   -3.4450   -3.8977    0.0951 H   0  0  0  0  0  0  0  0  0  0  0  0
   -1.9736   -5.8327   -0.3467 H   0  0  0  0  0  0  0  0  0  0  0  0
    0.4454   -5.4726   -0.7957 H   0  0  0  0  0  0  0  0  0  0  0  0
    1.3595   -3.1832   -0.7925 H   0  0  0  0  0  0  0  0  0  0  0  0
    3.7473   -0.2352   -1.8706 H   0  0  0  0  0  0  0  0  0  0  0  0
    6.1595   -0.1101   -1.3578 H   0  0  0  0  0  0  0  0  0  0  0  0
    6.9441    1.0797    0.6728 H   0  0  0  0  0  0  0  0  0  0  0  0
    5.3033    2.1493    2.1937 H   0  0  0  0  0  0  0  0  0  0  0  0
    2.8911    2.0405    1.6980 H   0  0  0  0  0  0  0  0  0  0  0  0
  1  2  1  0
  2  3  1  0
  3  4  1  0
  4  5  2  0
  5  6  1  0
  6  7  1  0
  7  8  2  0
  8  9  1  0
  9 10  2  0
 10 11  1  0
 11 12  2  0
  6 13  2  0
 13 14  1  0
 14 15  2  0
 15 16  1  0
 16 17  2  0
 17 18  1  0
 18 19  2  0
  2 20  1  0
 20 21  2  0
 21 22  1  0
 22 23  2  0
 23 24  1  0
 24 25  2  0
 19  4  1  0
 25 20  1  0
 12  7  1  0
 19 14  1  0
  1 26  1  0
  1 27  1  0
  1 28  1  0
  2 29  1  0
  3 30  1  0
  8 31  1  0
  9 32  1  0
 10 33  1  0
 11 34  1  0
 12 35  1  0
 15 36  1  0
 16 37  1  0
 17 38  1  0
 18 39  1  0
 21 40  1  0
 22 41  1  0
 23 42  1  0
 24 43  1  0
 25 44  1  0
M  END
$$$$
