
     RDKit          3D

 41 43  0  0  0  0  0  0  0  0999 V2000
   -5.8465    1.0361    2.7378 C   0  0  0  0  0  0  0  0  0  0  0  0
   -4.4946    0.7972    2.3704 O   0  0  0  0  0  0  0  0  0  0  0  0
   -4.2677    0.2911    1.1198 C   0  0  0  0  0  0  0  0  0  0  0  0
   -5.2390    0.0433    0.1516 C   0  0  0  0  0  0  0  0  0  0  0  0
   -4.8765   -0.4763   -1.0963 C   0  0  0  0  0  0  0  0  0  0  0  0
   -3.5380   -0.7526   -1.3823 C   0  0  0  0  0  0  0  0  0  0  0  0
   -3.0754   -1.2627   -2.5741 O   0  0  0  0  0  0  0  0  0  0  0  0
   -4.0381   -1.4940   -3.5954 C   0  0  0  0  0  0  0  0  0  0  0  0
   -2.5520   -0.5096   -0.4038 C   0  0  0  0  0  0  0  0  0  0  0  0
   -1.2181   -0.8144   -0.7538 N   0  0  0  0  0  0  0  0  0  0  0  0
   -0.0949   -0.7668    0.0346 C   0  0  0  0  0  0  0  0  0  0  0  0
   -0.0318   -0.4850    1.2272 O   0  0  0  0  0  0  0  0  0  0  0  0
    1.0424   -1.1162   -0.6832 N   0  0  0  0  0  0  0  0  0  0  0  0
    2.2742   -0.9311   -0.0083 N   0  0  0  0  0  0  0  0  0  0  0  0
    3.2854   -0.2852   -0.6913 C   0  0  0  0  0  0  0  0  0  0  0  0
    3.2144   -0.0763   -1.9028 O   0  0  0  0  0  0  0  0  0  0  0  0
    4.4163    0.1382    0.1113 C   0  0  0  0  0  0  0  0  0  0  0  0
    4.6775   -0.0131    1.4732 C   0  0  0  0  0  0  0  0  0  0  0  0
    5.9250    0.6030    1.6558 C   0  0  0  0  0  0  0  0  0  0  0  0
    6.7871    0.8432    2.6757 O   0  0  0  0  0  0  0  0  0  0  0  0
    7.8270    1.5087    2.0920 C   0  0  0  0  0  0  0  0  0  0  0  0
    7.6559    1.6958    0.7381 C   0  0  0  0  0  0  0  0  0  0  0  0
    6.4050    1.0938    0.4979 C   0  0  0  0  0  0  0  0  0  0  0  0
    5.4836    0.8146   -0.4711 N   0  0  0  0  0  0  0  0  0  0  0  0
   -2.9258    0.0154    0.8356 C   0  0  0  0  0  0  0  0  0  0  0  0
   -5.8527    1.4066    3.7674 H   0  0  0  0  0  0  0  0  0  0  0  0
   -6.4322    0.1114    2.7128 H   0  0  0  0  0  0  0  0  0  0  0  0
   -6.2964    1.8070    2.1037 H   0  0  0  0  0  0  0  0  0  0  0  0
   -6.2893    0.2445    0.3338 H   0  0  0  0  0  0  0  0  0  0  0  0
   -5.6668   -0.6538   -1.8173 H   0  0  0  0  0  0  0  0  0  0  0  0
   -3.5085   -1.8754   -4.4735 H   0  0  0  0  0  0  0  0  0  0  0  0
   -4.7643   -2.2541   -3.2894 H   0  0  0  0  0  0  0  0  0  0  0  0
   -4.5357   -0.5634   -3.8868 H   0  0  0  0  0  0  0  0  0  0  0  0
   -1.1168   -1.2143   -1.6785 H   0  0  0  0  0  0  0  0  0  0  0  0
    1.0742   -0.8347   -1.6617 H   0  0  0  0  0  0  0  0  0  0  0  0
    2.1934   -0.8380    1.0026 H   0  0  0  0  0  0  0  0  0  0  0  0
    4.0694   -0.4920    2.2264 H   0  0  0  0  0  0  0  0  0  0  0  0
    8.6190    1.7841    2.7754 H   0  0  0  0  0  0  0  0  0  0  0  0
    8.3280    2.1880    0.0518 H   0  0  0  0  0  0  0  0  0  0  0  0
    5.5730    1.0645   -1.4491 H   0  0  0  0  0  0  0  0  0  0  0  0
   -2.1897    0.2228    1.6062 H   0  0  0  0  0  0  0  0  0  0  0  0
  1  2  1  0
  2  3  1  0
  3  4  2  0
  4  5  1  0
  5  6  2  0
  6  7  1  0
  7  8  1  0
  6  9  1  0
  9 10  1  0
 10 11  1  0
 11 12  2  0
 11 13  1  0
 13 14  1  0
 14 15  1  0
 15 16  2  0
 15 17  1  0
 17 18  2  0
 18 19  1  0
 19 20  1  0
 20 21  1  0
 21 22  2  0
 22 23  1  0
 23 24  1  0
  9 25  2  0
 25  3  1  0
 24 17  1  0
 23 19  2  0
  1 26  1  0
  1 27  1  0
  1 28  1  0
  4 29  1  0
  5 30  1  0
  8 31  1  0
  8 32  1  0
  8 33  1  0
 10 34  1  0
 13 35  1  0
 14 36  1  0
 18 37  1  0
 21 38  1  0
 22 39  1  0
 24 40  1  0
 25 41  1  0
M  END
$$$$
