
     RDKit          3D

 44 47  0  0  0  0  0  0  0  0999 V2000
    6.5297   -0.4718   -0.0615 C   0  0  0  0  0  0  0  0  0  0  0  0
    5.6208   -1.1927    0.9227 C   0  0  0  0  0  0  0  0  0  0  0  0
    4.1765   -0.8759    0.6778 C   0  0  0  0  0  0  0  0  0  0  0  0
    3.2942   -1.5124   -0.1729 C   0  0  0  0  0  0  0  0  0  0  0  0
    1.9970   -0.9213   -0.1360 C   0  0  0  0  0  0  0  0  0  0  0  0
    0.8040   -1.2851   -0.8697 C   0  0  0  0  0  0  0  0  0  0  0  0
    0.8129   -2.2241   -1.6619 O   0  0  0  0  0  0  0  0  0  0  0  0
   -0.3189   -0.4974   -0.5888 N   0  0  0  0  0  0  0  0  0  0  0  0
   -1.5373   -0.8322   -1.3292 C   0  0  0  0  0  0  0  0  0  0  0  0
   -2.4960   -1.7007   -0.5384 C   0  0  0  0  0  0  0  0  0  0  0  0
   -2.1315   -2.9947   -0.1359 C   0  0  0  0  0  0  0  0  0  0  0  0
   -3.0201   -3.7931    0.5868 C   0  0  0  0  0  0  0  0  0  0  0  0
   -4.2866   -3.3126    0.9099 C   0  0  0  0  0  0  0  0  0  0  0  0
   -4.6683   -2.0359    0.5051 C   0  0  0  0  0  0  0  0  0  0  0  0
   -3.7811   -1.2365   -0.2184 C   0  0  0  0  0  0  0  0  0  0  0  0
   -0.2246    0.5585    0.3159 C   0  0  0  0  0  0  0  0  0  0  0  0
   -1.6421    1.5548    0.6242 S   0  0  0  0  0  0  0  0  0  0  0  0
   -0.9623    3.1373    0.0263 C   0  0  0  0  0  0  0  0  0  0  0  0
   -1.9045    4.2970    0.2664 C   0  0  0  0  0  0  0  0  0  0  0  0
   -2.7294    4.3422   -0.9933 C   0  0  0  0  0  0  0  0  0  0  0  0
   -1.8639    3.8793   -2.0290 O   0  0  0  0  0  0  0  0  0  0  0  0
   -0.8800    3.1044   -1.4803 C   0  0  0  0  0  0  0  0  0  0  0  0
   -0.0949    2.4414   -2.1414 O   0  0  0  0  0  0  0  0  0  0  0  0
    0.8378    0.8957    0.9803 N   0  0  0  0  0  0  0  0  0  0  0  0
    1.9274    0.1364    0.7334 C   0  0  0  0  0  0  0  0  0  0  0  0
    3.4187    0.4204    1.5077 S   0  0  0  0  0  0  0  0  0  0  0  0
    6.2942   -0.7482   -1.0949 H   0  0  0  0  0  0  0  0  0  0  0  0
    7.5757   -0.7317    0.1291 H   0  0  0  0  0  0  0  0  0  0  0  0
    6.4290    0.6153    0.0264 H   0  0  0  0  0  0  0  0  0  0  0  0
    5.9068   -0.9278    1.9476 H   0  0  0  0  0  0  0  0  0  0  0  0
    5.7741   -2.2747    0.8278 H   0  0  0  0  0  0  0  0  0  0  0  0
    3.5602   -2.3587   -0.7963 H   0  0  0  0  0  0  0  0  0  0  0  0
   -1.2916   -1.3599   -2.2591 H   0  0  0  0  0  0  0  0  0  0  0  0
   -2.0324    0.0907   -1.6504 H   0  0  0  0  0  0  0  0  0  0  0  0
   -1.1542   -3.4004   -0.3898 H   0  0  0  0  0  0  0  0  0  0  0  0
   -2.7232   -4.7929    0.8934 H   0  0  0  0  0  0  0  0  0  0  0  0
   -4.9774   -3.9353    1.4722 H   0  0  0  0  0  0  0  0  0  0  0  0
   -5.6588   -1.6624    0.7518 H   0  0  0  0  0  0  0  0  0  0  0  0
   -4.1049   -0.2454   -0.5282 H   0  0  0  0  0  0  0  0  0  0  0  0
    0.0160    3.3541    0.4643 H   0  0  0  0  0  0  0  0  0  0  0  0
   -2.5066    4.2334    1.1777 H   0  0  0  0  0  0  0  0  0  0  0  0
   -1.3150    5.2211    0.3328 H   0  0  0  0  0  0  0  0  0  0  0  0
   -3.0660    5.3574   -1.2230 H   0  0  0  0  0  0  0  0  0  0  0  0
   -3.6035    3.6841   -0.9461 H   0  0  0  0  0  0  0  0  0  0  0  0
  1  2  1  0
  2  3  1  0
  3  4  2  0
  4  5  1  0
  5  6  1  0
  6  7  2  0
  6  8  1  0
  8  9  1  0
  9 10  1  0
 10 11  2  0
 11 12  1  0
 12 13  2  0
 13 14  1  0
 14 15  2  0
  8 16  1  0
 16 17  1  0
 17 18  1  0
 18 19  1  0
 19 20  1  0
 20 21  1  0
 21 22  1  0
 22 23  2  0
 16 24  2  0
 24 25  1  0
 25 26  1  0
 26  3  1  0
 25  5  2  0
 15 10  1  0
 22 18  1  0
  1 27  1  0
  1 28  1  0
  1 29  1  0
  2 30  1  0
  2 31  1  0
  4 32  1  0
  9 33  1  0
  9 34  1  0
 11 35  1  0
 12 36  1  0
 13 37  1  0
 14 38  1  0
 15 39  1  0
 18 40  1  0
 19 41  1  0
 19 42  1  0
 20 43  1  0
 20 44  1  0
M  END
$$$$
