
     RDKit          3D

 55 56  0  0  0  0  0  0  0  0999 V2000
   -4.9581    3.4696   -0.0589 C   0  0  0  0  0  0  0  0  0  0  0  0
   -4.9072    1.9409   -0.0853 C   0  0  0  0  0  0  0  0  0  0  0  0
   -3.7214    1.4728    0.6149 N   0  0  0  0  0  0  0  0  0  0  0  0
   -2.9361    0.4553    0.1151 C   0  0  0  0  0  0  0  0  0  0  0  0
   -3.1186   -0.0729   -0.9769 O   0  0  0  0  0  0  0  0  0  0  0  0
   -1.8599    0.0028    1.0837 C   0  0  0  0  0  0  0  0  0  0  0  0
   -0.6235   -0.5422    0.3776 C   0  0  0  0  0  0  0  0  0  0  0  0
    0.4463    0.7913   -0.2777 S   0  0  0  0  0  0  0  0  0  0  0  0
    1.3492    1.2682    1.2416 C   0  0  0  0  0  0  0  0  0  0  0  0
    2.5476    0.3627    1.5000 C   0  0  0  0  0  0  0  0  0  0  0  0
    3.7257    0.7154    0.6140 C   0  0  0  0  0  0  0  0  0  0  0  0
    4.0720    1.8738    0.4087 O   0  0  0  0  0  0  0  0  0  0  0  0
    4.4074   -0.3802    0.1339 N   0  0  0  0  0  0  0  0  0  0  0  0
    5.5109   -0.2414   -0.8049 C   0  0  0  0  0  0  0  0  0  0  0  0
    6.7764    0.2899   -0.1223 C   0  0  0  0  0  0  0  0  0  0  0  0
    5.7455   -1.5742   -1.4982 C   0  0  0  0  0  0  0  0  0  0  0  0
    5.3195   -1.7534   -2.8245 C   0  0  0  0  0  0  0  0  0  0  0  0
    5.4971   -2.9783   -3.4715 C   0  0  0  0  0  0  0  0  0  0  0  0
    6.0952   -4.0426   -2.8002 C   0  0  0  0  0  0  0  0  0  0  0  0
    6.5131   -3.8846   -1.4805 C   0  0  0  0  0  0  0  0  0  0  0  0
    6.3356   -2.6608   -0.8313 C   0  0  0  0  0  0  0  0  0  0  0  0
   -6.1368    1.2716    0.5068 C   0  0  0  0  0  0  0  0  0  0  0  0
   -6.6187    0.0900   -0.0826 C   0  0  0  0  0  0  0  0  0  0  0  0
   -7.7343   -0.5689    0.4383 C   0  0  0  0  0  0  0  0  0  0  0  0
   -8.3775   -0.0633    1.5647 C   0  0  0  0  0  0  0  0  0  0  0  0
   -7.8994    1.0935    2.1769 C   0  0  0  0  0  0  0  0  0  0  0  0
   -6.7851    1.7557    1.6540 C   0  0  0  0  0  0  0  0  0  0  0  0
   -4.0961    3.8872   -0.5939 H   0  0  0  0  0  0  0  0  0  0  0  0
   -5.8690    3.8444   -0.5382 H   0  0  0  0  0  0  0  0  0  0  0  0
   -4.9199    3.8676    0.9619 H   0  0  0  0  0  0  0  0  0  0  0  0
   -4.8331    1.6523   -1.1414 H   0  0  0  0  0  0  0  0  0  0  0  0
   -3.6607    1.6863    1.6005 H   0  0  0  0  0  0  0  0  0  0  0  0
   -2.3100   -0.8024    1.6778 H   0  0  0  0  0  0  0  0  0  0  0  0
   -1.6042    0.8084    1.7807 H   0  0  0  0  0  0  0  0  0  0  0  0
   -0.8998   -1.1880   -0.4624 H   0  0  0  0  0  0  0  0  0  0  0  0
   -0.0367   -1.1549    1.0692 H   0  0  0  0  0  0  0  0  0  0  0  0
    1.6586    2.3121    1.1277 H   0  0  0  0  0  0  0  0  0  0  0  0
    0.6626    1.2313    2.0923 H   0  0  0  0  0  0  0  0  0  0  0  0
    2.8928    0.5139    2.5316 H   0  0  0  0  0  0  0  0  0  0  0  0
    2.2827   -0.6971    1.4105 H   0  0  0  0  0  0  0  0  0  0  0  0
    3.9559   -1.2841    0.1754 H   0  0  0  0  0  0  0  0  0  0  0  0
    5.2087    0.5022   -1.5545 H   0  0  0  0  0  0  0  0  0  0  0  0
    7.6165    0.3229   -0.8244 H   0  0  0  0  0  0  0  0  0  0  0  0
    7.0716   -0.3281    0.7328 H   0  0  0  0  0  0  0  0  0  0  0  0
    6.6226    1.3054    0.2577 H   0  0  0  0  0  0  0  0  0  0  0  0
    4.8418   -0.9372   -3.3638 H   0  0  0  0  0  0  0  0  0  0  0  0
    5.1655   -3.1020   -4.4996 H   0  0  0  0  0  0  0  0  0  0  0  0
    6.2331   -4.9958   -3.3049 H   0  0  0  0  0  0  0  0  0  0  0  0
    6.9764   -4.7159   -0.9550 H   0  0  0  0  0  0  0  0  0  0  0  0
    6.6593   -2.5644    0.2030 H   0  0  0  0  0  0  0  0  0  0  0  0
   -6.1167   -0.3286   -0.9548 H   0  0  0  0  0  0  0  0  0  0  0  0
   -8.0947   -1.4799   -0.0330 H   0  0  0  0  0  0  0  0  0  0  0  0
   -9.2447   -0.5763    1.9727 H   0  0  0  0  0  0  0  0  0  0  0  0
   -8.3957    1.4798    3.0654 H   0  0  0  0  0  0  0  0  0  0  0  0
   -6.4317    2.6501    2.1615 H   0  0  0  0  0  0  0  0  0  0  0  0
  1  2  1  0
  2  3  1  0
  3  4  1  0
  4  5  2  0
  4  6  1  0
  6  7  1  0
  7  8  1  0
  8  9  1  0
  9 10  1  0
 10 11  1  0
 11 12  2  0
 11 13  1  0
 13 14  1  0
 14 15  1  0
 14 16  1  0
 16 17  2  0
 17 18  1  0
 18 19  2  0
 19 20  1  0
 20 21  2  0
  2 22  1  0
 22 23  2  0
 23 24  1  0
 24 25  2  0
 25 26  1  0
 26 27  2  0
 21 16  1  0
 27 22  1  0
  1 28  1  0
  1 29  1  0
  1 30  1  0
  2 31  1  0
  3 32  1  0
  6 33  1  0
  6 34  1  0
  7 35  1  0
  7 36  1  0
  9 37  1  0
  9 38  1  0
 10 39  1  0
 10 40  1  0
 13 41  1  0
 14 42  1  0
 15 43  1  0
 15 44  1  0
 15 45  1  0
 17 46  1  0
 18 47  1  0
 19 48  1  0
 20 49  1  0
 21 50  1  0
 23 51  1  0
 24 52  1  0
 25 53  1  0
 26 54  1  0
 27 55  1  0
M  END
$$$$
