
     RDKit          3D

 52 55  0  0  0  0  0  0  0  0999 V2000
   -6.2167    1.2130    2.2601 C   0  0  0  0  0  0  0  0  0  0  0  0
   -6.0276   -0.1484    1.6089 C   0  0  0  0  0  0  0  0  0  0  0  0
   -4.6331   -0.3493    1.0120 C   0  0  0  0  0  0  0  0  0  0  0  0
   -4.3576    0.5498   -0.1959 C   0  0  0  0  0  0  0  0  0  0  0  0
   -3.0235    0.2700   -0.7944 C   0  0  0  0  0  0  0  0  0  0  0  0
   -2.8602   -0.5056   -1.8534 N   0  0  0  0  0  0  0  0  0  0  0  0
   -1.5269   -0.5619   -2.1589 N   0  0  0  0  0  0  0  0  0  0  0  0
   -0.8971    0.1650   -1.2672 C   0  0  0  0  0  0  0  0  0  0  0  0
    0.5032    0.4430   -1.1798 C   0  0  0  0  0  0  0  0  0  0  0  0
    1.3731   -0.1893   -2.0910 N   0  0  0  0  0  0  0  0  0  0  0  0
    2.4630    0.5507   -2.7471 C   0  0  0  0  0  0  0  0  0  0  0  0
    1.5739   -1.8738   -2.0026 S   0  0  0  0  0  6  0  0  0  0  0  0
    0.5893   -2.4516   -1.1135 O   0  0  0  0  0  0  0  0  0  0  0  0
    1.7757   -2.3771   -3.3458 O   0  0  0  0  0  0  0  0  0  0  0  0
    3.1341   -2.0124   -1.1440 C   0  0  0  0  0  0  0  0  0  0  0  0
    3.1911   -1.7069    0.2186 C   0  0  0  0  0  0  0  0  0  0  0  0
    4.4067   -1.8131    0.8955 C   0  0  0  0  0  0  0  0  0  0  0  0
    5.5641   -2.2209    0.2178 C   0  0  0  0  0  0  0  0  0  0  0  0
    6.8613   -2.3708    0.9580 C   0  0  0  0  0  0  0  0  0  0  0  0
    5.4845   -2.5505   -1.1426 C   0  0  0  0  0  0  0  0  0  0  0  0
    4.2726   -2.4462   -1.8271 C   0  0  0  0  0  0  0  0  0  0  0  0
    0.9717    1.3075   -0.3343 N   0  0  0  0  0  0  0  0  0  0  0  0
    0.0690    1.9073    0.5737 C   0  0  0  0  0  0  0  0  0  0  0  0
    0.6017    2.7968    1.5102 C   0  0  0  0  0  0  0  0  0  0  0  0
   -0.2206    3.4186    2.4483 C   0  0  0  0  0  0  0  0  0  0  0  0
   -1.5877    3.1521    2.4580 C   0  0  0  0  0  0  0  0  0  0  0  0
   -2.1442    2.2673    1.5299 C   0  0  0  0  0  0  0  0  0  0  0  0
   -1.3225    1.6466    0.5877 C   0  0  0  0  0  0  0  0  0  0  0  0
   -1.7870    0.7497   -0.4014 N   0  0  0  0  0  0  0  0  0  0  0  0
   -7.1974    1.2645    2.7440 H   0  0  0  0  0  0  0  0  0  0  0  0
   -6.1680    2.0212    1.5247 H   0  0  0  0  0  0  0  0  0  0  0  0
   -5.4532    1.3927    3.0236 H   0  0  0  0  0  0  0  0  0  0  0  0
   -6.7907   -0.2935    0.8355 H   0  0  0  0  0  0  0  0  0  0  0  0
   -6.1950   -0.9220    2.3679 H   0  0  0  0  0  0  0  0  0  0  0  0
   -4.5424   -1.3991    0.7028 H   0  0  0  0  0  0  0  0  0  0  0  0
   -3.8757   -0.1982    1.7902 H   0  0  0  0  0  0  0  0  0  0  0  0
   -4.4649    1.6121    0.0337 H   0  0  0  0  0  0  0  0  0  0  0  0
   -5.1207    0.3460   -0.9591 H   0  0  0  0  0  0  0  0  0  0  0  0
    3.2619    0.7795   -2.0360 H   0  0  0  0  0  0  0  0  0  0  0  0
    2.8770   -0.0024   -3.5946 H   0  0  0  0  0  0  0  0  0  0  0  0
    2.0735    1.4940   -3.1443 H   0  0  0  0  0  0  0  0  0  0  0  0
    2.2997   -1.3934    0.7568 H   0  0  0  0  0  0  0  0  0  0  0  0
    4.4460   -1.5805    1.9579 H   0  0  0  0  0  0  0  0  0  0  0  0
    6.9274   -1.6498    1.7796 H   0  0  0  0  0  0  0  0  0  0  0  0
    7.7127   -2.1857    0.2947 H   0  0  0  0  0  0  0  0  0  0  0  0
    6.9438   -3.3825    1.3668 H   0  0  0  0  0  0  0  0  0  0  0  0
    6.3680   -2.8966   -1.6757 H   0  0  0  0  0  0  0  0  0  0  0  0
    4.2261   -2.7100   -2.8814 H   0  0  0  0  0  0  0  0  0  0  0  0
    1.6694    3.0035    1.5076 H   0  0  0  0  0  0  0  0  0  0  0  0
    0.2066    4.1079    3.1726 H   0  0  0  0  0  0  0  0  0  0  0  0
   -2.2255    3.6362    3.1951 H   0  0  0  0  0  0  0  0  0  0  0  0
   -3.2090    2.0964    1.5959 H   0  0  0  0  0  0  0  0  0  0  0  0
  1  2  1  0
  2  3  1  0
  3  4  1  0
  4  5  1  0
  5  6  2  0
  6  7  1  0
  7  8  2  0
  8  9  1  0
  9 10  1  0
 10 11  1  0
 10 12  1  0
 12 13  2  0
 12 14  2  0
 12 15  1  0
 15 16  2  0
 16 17  1  0
 17 18  2  0
 18 19  1  0
 18 20  1  0
 20 21  2  0
  9 22  2  0
 22 23  1  0
 23 24  2  0
 24 25  1  0
 25 26  2  0
 26 27  1  0
 27 28  2  0
 28 29  1  0
 29  5  1  0
 29  8  1  0
 21 15  1  0
 28 23  1  0
  1 30  1  0
  1 31  1  0
  1 32  1  0
  2 33  1  0
  2 34  1  0
  3 35  1  0
  3 36  1  0
  4 37  1  0
  4 38  1  0
 11 39  1  0
 11 40  1  0
 11 41  1  0
 16 42  1  0
 17 43  1  0
 19 44  1  0
 19 45  1  0
 19 46  1  0
 20 47  1  0
 21 48  1  0
 24 49  1  0
 25 50  1  0
 26 51  1  0
 27 52  1  0
M  END
$$$$
