
     RDKit          3D

 50 53  0  0  0  0  0  0  0  0999 V2000
   -5.8684    0.7509    3.2720 C   0  0  0  0  0  0  0  0  0  0  0  0
   -4.7855    0.6391    2.2384 C   0  0  0  0  0  0  0  0  0  0  0  0
   -4.8434   -0.3526    1.2545 C   0  0  0  0  0  0  0  0  0  0  0  0
   -3.8208   -0.4795    0.3085 C   0  0  0  0  0  0  0  0  0  0  0  0
   -2.7216    0.3788    0.3438 C   0  0  0  0  0  0  0  0  0  0  0  0
   -1.5658    0.2505   -0.7120 C   0  0  0  0  0  0  0  0  0  0  0  0
   -0.4572    1.0814   -0.8232 C   0  0  0  0  0  0  0  0  0  0  0  0
    0.3354    0.6412   -1.8904 N   0  0  0  0  0  4  0  0  0  0  0  0
    1.5720    1.2749   -2.3820 C   0  0  0  0  0  0  0  0  0  0  0  0
    2.5267    1.6411   -1.2418 C   0  0  0  0  0  0  0  0  0  0  0  0
    2.9055    2.7997   -1.1084 O   0  0  0  0  0  0  0  0  0  0  0  0
    2.8533    0.5570   -0.4397 N   0  0  0  0  0  0  0  0  0  0  0  0
    3.6921    0.5434    0.7017 C   0  0  0  0  0  0  0  0  0  0  0  0
    4.3746    1.6821    1.1464 C   0  0  0  0  0  0  0  0  0  0  0  0
    5.1926    1.6343    2.2784 C   0  0  0  0  0  0  0  0  0  0  0  0
    5.3414    0.4469    2.9822 C   0  0  0  0  0  0  0  0  0  0  0  0
    4.6728   -0.6966    2.5540 C   0  0  0  0  0  0  0  0  0  0  0  0
    3.8454   -0.6667    1.4165 C   0  0  0  0  0  0  0  0  0  0  0  0
    3.1566   -1.9435    1.0141 C   0  0  0  0  0  0  0  0  0  0  0  0
   -0.2900   -0.3900   -2.4453 C   0  0  0  0  0  0  0  0  0  0  0  0
   -1.3829   -0.6598   -1.7397 N   0  0  0  0  0  0  0  0  0  0  0  0
   -2.1141   -1.7977   -2.2808 C   0  0  0  0  0  0  0  0  0  0  0  0
   -1.1173   -2.4172   -3.2997 C   0  0  0  0  0  0  0  0  0  0  0  0
   -0.0967   -1.3002   -3.5970 C   0  0  0  0  0  0  0  0  0  0  0  0
   -2.6531    1.3659    1.3338 C   0  0  0  0  0  0  0  0  0  0  0  0
   -3.6768    1.4889    2.2781 C   0  0  0  0  0  0  0  0  0  0  0  0
   -5.6344    0.1124    4.1292 H   0  0  0  0  0  0  0  0  0  0  0  0
   -6.8358    0.4482    2.8576 H   0  0  0  0  0  0  0  0  0  0  0  0
   -5.9729    1.7846    3.6181 H   0  0  0  0  0  0  0  0  0  0  0  0
   -5.6934   -1.0327    1.2184 H   0  0  0  0  0  0  0  0  0  0  0  0
   -3.9267   -1.2532   -0.4400 H   0  0  0  0  0  0  0  0  0  0  0  0
   -0.1315    1.9500   -0.2733 H   0  0  0  0  0  0  0  0  0  0  0  0
    2.0856    0.5935   -3.0674 H   0  0  0  0  0  0  0  0  0  0  0  0
    1.2890    2.1802   -2.9288 H   0  0  0  0  0  0  0  0  0  0  0  0
    2.4191   -0.3259   -0.6689 H   0  0  0  0  0  0  0  0  0  0  0  0
    4.3047    2.6363    0.6343 H   0  0  0  0  0  0  0  0  0  0  0  0
    5.7164    2.5298    2.6057 H   0  0  0  0  0  0  0  0  0  0  0  0
    5.9801    0.4103    3.8616 H   0  0  0  0  0  0  0  0  0  0  0  0
    4.8063   -1.6180    3.1185 H   0  0  0  0  0  0  0  0  0  0  0  0
    3.4710   -2.2439    0.0094 H   0  0  0  0  0  0  0  0  0  0  0  0
    2.0698   -1.8115    1.0358 H   0  0  0  0  0  0  0  0  0  0  0  0
    3.3994   -2.7679    1.6931 H   0  0  0  0  0  0  0  0  0  0  0  0
   -3.0155   -1.4330   -2.7817 H   0  0  0  0  0  0  0  0  0  0  0  0
   -2.3642   -2.5127   -1.4938 H   0  0  0  0  0  0  0  0  0  0  0  0
   -0.5994   -3.2584   -2.8238 H   0  0  0  0  0  0  0  0  0  0  0  0
   -1.6109   -2.7937   -4.1997 H   0  0  0  0  0  0  0  0  0  0  0  0
   -0.3470   -0.7285   -4.4930 H   0  0  0  0  0  0  0  0  0  0  0  0
    0.9368   -1.6483   -3.6065 H   0  0  0  0  0  0  0  0  0  0  0  0
   -1.8162    2.0541    1.4094 H   0  0  0  0  0  0  0  0  0  0  0  0
   -3.6050    2.2558    3.0483 H   0  0  0  0  0  0  0  0  0  0  0  0
  1  2  1  0
  2  3  2  0
  3  4  1  0
  4  5  2  0
  5  6  1  0
  6  7  2  0
  7  8  1  0
  8  9  1  0
  9 10  1  0
 10 11  2  0
 10 12  1  0
 12 13  1  0
 13 14  2  0
 14 15  1  0
 15 16  2  0
 16 17  1  0
 17 18  2  0
 18 19  1  0
  8 20  2  0
 20 21  1  0
 21 22  1  0
 22 23  1  0
 23 24  1  0
  5 25  1  0
 25 26  2  0
 26  2  1  0
 21  6  1  0
 18 13  1  0
 24 20  1  0
  1 27  1  0
  1 28  1  0
  1 29  1  0
  3 30  1  0
  4 31  1  0
  7 32  1  0
  9 33  1  0
  9 34  1  0
 12 35  1  0
 14 36  1  0
 15 37  1  0
 16 38  1  0
 17 39  1  0
 19 40  1  0
 19 41  1  0
 19 42  1  0
 22 43  1  0
 22 44  1  0
 23 45  1  0
 23 46  1  0
 24 47  1  0
 24 48  1  0
 25 49  1  0
 26 50  1  0
M  CHG  1   8   1
M  END
$$$$
