
     RDKit          3D

 47 49  0  0  0  0  0  0  0  0999 V2000
   -1.5820    5.4032   -0.5937 C   0  0  0  0  0  0  0  0  0  0  0  0
   -0.9989    4.4040    0.2469 O   0  0  0  0  0  0  0  0  0  0  0  0
   -1.1956    3.1269   -0.1968 C   0  0  0  0  0  0  0  0  0  0  0  0
   -1.7629    2.8329   -1.2438 O   0  0  0  0  0  0  0  0  0  0  0  0
   -0.5334    2.1407    0.7580 C   0  0  0  0  0  0  0  0  0  0  0  0
   -1.0900    0.7967    0.6230 N   0  0  0  0  0  0  0  0  0  0  0  0
   -0.6599   -0.1549   -0.2896 C   0  0  0  0  0  0  0  0  0  0  0  0
    0.4615    0.0346   -1.2536 C   0  0  0  0  0  0  0  0  0  0  0  0
    1.8318   -0.1897   -0.6116 C   0  0  0  0  0  0  0  0  0  0  0  0
    1.9688   -0.5673    0.5479 O   0  0  0  0  0  0  0  0  0  0  0  0
    2.8618    0.0986   -1.5030 N   0  0  0  0  0  0  0  0  0  0  0  0
    4.2506    0.0510   -1.2555 C   0  0  0  0  0  0  0  0  0  0  0  0
    4.8166   -0.2659   -0.0194 C   0  0  0  0  0  0  0  0  0  0  0  0
    6.2085   -0.2775    0.1460 C   0  0  0  0  0  0  0  0  0  0  0  0
    7.0392    0.0305   -0.9257 C   0  0  0  0  0  0  0  0  0  0  0  0
    8.7459    0.0282   -0.7164 Cl  0  0  0  0  0  0  0  0  0  0  0  0
    6.4910    0.3415   -2.1658 C   0  0  0  0  0  0  0  0  0  0  0  0
    5.1007    0.3519   -2.3291 C   0  0  0  0  0  0  0  0  0  0  0  0
   -1.4267   -1.2455   -0.1551 C   0  0  0  0  0  0  0  0  0  0  0  0
   -1.2528   -2.4212   -0.8189 O   0  0  0  0  0  0  0  0  0  0  0  0
   -2.3792   -1.0728    0.8356 N   0  0  0  0  0  0  0  0  0  0  0  0
   -3.4073   -1.9843    1.2047 C   0  0  0  0  0  0  0  0  0  0  0  0
   -4.0526   -2.7589    0.2265 C   0  0  0  0  0  0  0  0  0  0  0  0
   -5.0449   -3.6817    0.5767 C   0  0  0  0  0  0  0  0  0  0  0  0
   -5.3977   -3.8432    1.9129 C   0  0  0  0  0  0  0  0  0  0  0  0
   -6.6081   -4.9852    2.3483 Cl  0  0  0  0  0  0  0  0  0  0  0  0
   -4.7683   -3.0874    2.8984 C   0  0  0  0  0  0  0  0  0  0  0  0
   -3.7758   -2.1660    2.5445 C   0  0  0  0  0  0  0  0  0  0  0  0
   -2.2142    0.2755    1.3445 C   0  0  0  0  0  0  0  0  0  0  0  0
   -3.1400    1.1276    2.4408 S   0  0  0  0  0  0  0  0  0  0  0  0
   -1.2044    5.3157   -1.6194 H   0  0  0  0  0  0  0  0  0  0  0  0
   -1.2988    6.3842   -0.2061 H   0  0  0  0  0  0  0  0  0  0  0  0
   -2.6707    5.3185   -0.5753 H   0  0  0  0  0  0  0  0  0  0  0  0
    0.5420    2.1214    0.5574 H   0  0  0  0  0  0  0  0  0  0  0  0
   -0.6805    2.4850    1.7874 H   0  0  0  0  0  0  0  0  0  0  0  0
    0.3674   -0.6738   -2.0880 H   0  0  0  0  0  0  0  0  0  0  0  0
    0.4272    1.0412   -1.6873 H   0  0  0  0  0  0  0  0  0  0  0  0
    2.5908    0.3478   -2.4487 H   0  0  0  0  0  0  0  0  0  0  0  0
    4.2038   -0.5037    0.8481 H   0  0  0  0  0  0  0  0  0  0  0  0
    6.6292   -0.5172    1.1180 H   0  0  0  0  0  0  0  0  0  0  0  0
    7.1364    0.5790   -3.0068 H   0  0  0  0  0  0  0  0  0  0  0  0
    4.6971    0.5974   -3.3072 H   0  0  0  0  0  0  0  0  0  0  0  0
   -1.5503   -3.1150   -0.2049 H   0  0  0  0  0  0  0  0  0  0  0  0
   -3.8251   -2.6225   -0.8304 H   0  0  0  0  0  0  0  0  0  0  0  0
   -5.5404   -4.2618   -0.1986 H   0  0  0  0  0  0  0  0  0  0  0  0
   -5.0364   -3.2115    3.9428 H   0  0  0  0  0  0  0  0  0  0  0  0
   -3.2735   -1.6272    3.3423 H   0  0  0  0  0  0  0  0  0  0  0  0
  1  2  1  0
  2  3  1  0
  3  4  2  0
  3  5  1  0
  5  6  1  0
  6  7  1  0
  7  8  1  0
  8  9  1  0
  9 10  2  0
  9 11  1  0
 11 12  1  0
 12 13  2  0
 13 14  1  0
 14 15  2  0
 15 16  1  0
 15 17  1  0
 17 18  2  0
  7 19  2  0
 19 20  1  0
 19 21  1  0
 21 22  1  0
 22 23  2  0
 23 24  1  0
 24 25  2  0
 25 26  1  0
 25 27  1  0
 27 28  2  0
 21 29  1  0
 29 30  2  0
 29  6  1  0
 18 12  1  0
 28 22  1  0
  1 31  1  0
  1 32  1  0
  1 33  1  0
  5 34  1  0
  5 35  1  0
  8 36  1  0
  8 37  1  0
 11 38  1  0
 13 39  1  0
 14 40  1  0
 17 41  1  0
 18 42  1  0
 20 43  1  0
 23 44  1  0
 24 45  1  0
 27 46  1  0
 28 47  1  0
M  END
$$$$
