
     RDKit          3D

 40 41  0  0  0  0  0  0  0  0999 V2000
   -3.1608   -2.8889   -1.4367 C   0  0  0  0  0  0  0  0  0  0  0  0
   -3.5114   -1.5247   -1.0522 N   0  0  0  0  0  0  0  0  0  0  0  0
   -2.6263   -0.5473   -1.7184 C   0  0  0  0  0  0  0  0  0  0  0  0
   -2.4946    0.7843   -0.9593 C   0  0  0  0  0  0  0  0  0  0  0  0
   -1.9548    0.5794    0.3884 N   0  0  0  0  0  0  0  0  0  0  0  0
   -1.2210    1.5987    0.9843 C   0  0  0  0  0  0  0  0  0  0  0  0
   -1.0851    2.6919    0.4311 O   0  0  0  0  0  0  0  0  0  0  0  0
   -0.6104    1.2953    2.3509 C   0  0  0  0  0  0  0  0  0  0  0  0
    0.9117    2.2520    2.6828 S   0  0  0  0  0  0  0  0  0  0  0  0
    2.0084    1.5410    1.4631 C   0  0  0  0  0  0  0  0  0  0  0  0
    2.1149    2.1930    0.2273 C   0  0  0  0  0  0  0  0  0  0  0  0
    2.9831    1.7247   -0.7683 C   0  0  0  0  0  0  0  0  0  0  0  0
    3.7819    0.5917   -0.5537 C   0  0  0  0  0  0  0  0  0  0  0  0
    4.7354    0.1089   -1.6219 C   0  0  0  0  0  0  0  0  0  0  0  0
    4.9711   -1.2303   -1.5497 F   0  0  0  0  0  0  0  0  0  0  0  0
    4.2815    0.3399   -2.8838 F   0  0  0  0  0  0  0  0  0  0  0  0
    5.9511    0.7118   -1.5386 F   0  0  0  0  0  0  0  0  0  0  0  0
    3.7055   -0.0568    0.6866 C   0  0  0  0  0  0  0  0  0  0  0  0
    2.8237    0.4221    1.6700 C   0  0  0  0  0  0  0  0  0  0  0  0
    2.7870   -0.2989    2.9240 N   0  0  0  0  0  4  0  0  0  0  0  0
    3.7813   -0.2061    3.6547 O   0  0  0  0  0  0  0  0  0  0  0  0
    1.7895   -1.0016    3.1387 O   0  0  0  0  0  1  0  0  0  0  0  0
   -2.3032   -0.6933    1.0318 C   0  0  0  0  0  0  0  0  0  0  0  0
   -3.5509   -1.3511    0.4112 C   0  0  0  0  0  0  0  0  0  0  0  0
   -2.1670   -3.1760   -1.0751 H   0  0  0  0  0  0  0  0  0  0  0  0
   -3.1790   -2.9987   -2.5269 H   0  0  0  0  0  0  0  0  0  0  0  0
   -3.8918   -3.6009   -1.0383 H   0  0  0  0  0  0  0  0  0  0  0  0
   -1.6155   -0.9641   -1.8298 H   0  0  0  0  0  0  0  0  0  0  0  0
   -3.0105   -0.3542   -2.7264 H   0  0  0  0  0  0  0  0  0  0  0  0
   -1.8468    1.4663   -1.5208 H   0  0  0  0  0  0  0  0  0  0  0  0
   -3.4726    1.2691   -0.8526 H   0  0  0  0  0  0  0  0  0  0  0  0
   -0.3682    0.2364    2.4458 H   0  0  0  0  0  0  0  0  0  0  0  0
   -1.3512    1.5528    3.1139 H   0  0  0  0  0  0  0  0  0  0  0  0
    1.5179    3.0831    0.0223 H   0  0  0  0  0  0  0  0  0  0  0  0
    3.0336    2.2605   -1.7170 H   0  0  0  0  0  0  0  0  0  0  0  0
    4.3300   -0.9277    0.8869 H   0  0  0  0  0  0  0  0  0  0  0  0
   -1.4357   -1.3554    0.9281 H   0  0  0  0  0  0  0  0  0  0  0  0
   -2.4772   -0.5250    2.0993 H   0  0  0  0  0  0  0  0  0  0  0  0
   -4.4112   -0.7038    0.6269 H   0  0  0  0  0  0  0  0  0  0  0  0
   -3.7626   -2.2980    0.9229 H   0  0  0  0  0  0  0  0  0  0  0  0
  1  2  1  0
  2  3  1  0
  3  4  1  0
  4  5  1  0
  5  6  1  0
  6  7  2  0
  6  8  1  0
  8  9  1  0
  9 10  1  0
 10 11  2  0
 11 12  1  0
 12 13  2  0
 13 14  1  0
 14 15  1  0
 14 16  1  0
 14 17  1  0
 13 18  1  0
 18 19  2  0
 19 20  1  0
 20 21  2  0
 20 22  1  0
  5 23  1  0
 23 24  1  0
 24  2  1  0
 19 10  1  0
  1 25  1  0
  1 26  1  0
  1 27  1  0
  3 28  1  0
  3 29  1  0
  4 30  1  0
  4 31  1  0
  8 32  1  0
  8 33  1  0
 11 34  1  0
 12 35  1  0
 18 36  1  0
 23 37  1  0
 23 38  1  0
 24 39  1  0
 24 40  1  0
M  CHG  2  20   1  22  -1
M  END
$$$$
