
     RDKit          3D

 44 45  0  0  0  0  0  0  0  0999 V2000
    6.5556    0.4323    0.2374 C   0  0  0  0  0  0  0  0  0  0  0  0
    5.7870    0.2120   -1.0377 C   0  0  0  0  0  0  0  0  0  0  0  0
    6.3444   -0.0390   -2.1008 O   0  0  0  0  0  0  0  0  0  0  0  0
    4.4229    0.3248   -0.8982 N   0  0  0  0  0  0  0  0  0  0  0  0
    3.5523    0.2995   -2.0627 C   0  0  0  0  0  0  0  0  0  0  0  0
    2.1070   -0.0114   -1.6811 C   0  0  0  0  0  0  0  0  0  0  0  0
    1.6369    1.0371   -0.8295 O   0  0  0  0  0  0  0  0  0  0  0  0
    0.3425    0.8476   -0.3914 C   0  0  0  0  0  0  0  0  0  0  0  0
   -0.0799    1.7704    0.4559 N   0  0  0  0  0  0  0  0  0  0  0  0
   -1.3245    1.6184    0.8840 C   0  0  0  0  0  0  0  0  0  0  0  0
   -1.8410    2.5411    1.8006 N   0  0  0  0  0  0  0  0  0  0  0  0
   -1.1392    3.8156    1.8365 C   0  0  0  0  0  0  0  0  0  0  0  0
   -3.2943    2.5956    1.8469 C   0  0  0  0  0  0  0  0  0  0  0  0
   -2.0934    0.6014    0.4979 N   0  0  0  0  0  0  0  0  0  0  0  0
   -1.5844   -0.2861   -0.3508 C   0  0  0  0  0  0  0  0  0  0  0  0
   -2.3799   -1.3335   -0.7774 N   0  0  0  0  0  0  0  0  0  0  0  0
   -1.7311   -2.4200   -1.5171 C   0  0  0  0  0  0  0  0  0  0  0  0
   -2.7732   -3.4873   -1.8834 C   0  0  0  0  0  0  0  0  0  0  0  0
   -3.4209   -4.0741   -0.7438 O   0  0  0  0  0  0  0  0  0  0  0  0
   -3.4944   -3.1948    0.3893 C   0  0  0  0  0  0  0  0  0  0  0  0
   -3.5563   -1.7035    0.0189 C   0  0  0  0  0  0  0  0  0  0  0  0
   -0.3535   -0.1903   -0.8317 N   0  0  0  0  0  0  0  0  0  0  0  0
    7.3101   -0.3525    0.3403 H   0  0  0  0  0  0  0  0  0  0  0  0
    5.9018    0.3943    1.1132 H   0  0  0  0  0  0  0  0  0  0  0  0
    7.0425    1.4101    0.1974 H   0  0  0  0  0  0  0  0  0  0  0  0
    4.0704    0.8140   -0.0832 H   0  0  0  0  0  0  0  0  0  0  0  0
    3.6224    1.2895   -2.5271 H   0  0  0  0  0  0  0  0  0  0  0  0
    3.9243   -0.4443   -2.7751 H   0  0  0  0  0  0  0  0  0  0  0  0
    1.5023   -0.0555   -2.5951 H   0  0  0  0  0  0  0  0  0  0  0  0
    2.0675   -0.9746   -1.1565 H   0  0  0  0  0  0  0  0  0  0  0  0
   -0.0854    3.6895    2.1104 H   0  0  0  0  0  0  0  0  0  0  0  0
   -1.2031    4.3353    0.8735 H   0  0  0  0  0  0  0  0  0  0  0  0
   -1.5787    4.4698    2.5982 H   0  0  0  0  0  0  0  0  0  0  0  0
   -3.6238    3.3169    2.6035 H   0  0  0  0  0  0  0  0  0  0  0  0
   -3.7266    1.6301    2.1338 H   0  0  0  0  0  0  0  0  0  0  0  0
   -3.7142    2.9076    0.8835 H   0  0  0  0  0  0  0  0  0  0  0  0
   -0.9501   -2.8784   -0.8970 H   0  0  0  0  0  0  0  0  0  0  0  0
   -1.2738   -2.0410   -2.4386 H   0  0  0  0  0  0  0  0  0  0  0  0
   -2.3014   -4.2988   -2.4466 H   0  0  0  0  0  0  0  0  0  0  0  0
   -3.5536   -3.0563   -2.5217 H   0  0  0  0  0  0  0  0  0  0  0  0
   -4.3821   -3.4769    0.9645 H   0  0  0  0  0  0  0  0  0  0  0  0
   -2.6199   -3.3938    1.0201 H   0  0  0  0  0  0  0  0  0  0  0  0
   -4.4473   -1.5175   -0.5923 H   0  0  0  0  0  0  0  0  0  0  0  0
   -3.6634   -1.1234    0.9418 H   0  0  0  0  0  0  0  0  0  0  0  0
  1  2  1  0
  2  3  2  0
  2  4  1  0
  4  5  1  0
  5  6  1  0
  6  7  1  0
  7  8  1  0
  8  9  2  0
  9 10  1  0
 10 11  1  0
 11 12  1  0
 11 13  1  0
 10 14  2  0
 14 15  1  0
 15 16  1  0
 16 17  1  0
 17 18  1  0
 18 19  1  0
 19 20  1  0
 20 21  1  0
 15 22  2  0
 22  8  1  0
 21 16  1  0
  1 23  1  0
  1 24  1  0
  1 25  1  0
  4 26  1  0
  5 27  1  0
  5 28  1  0
  6 29  1  0
  6 30  1  0
 12 31  1  0
 12 32  1  0
 12 33  1  0
 13 34  1  0
 13 35  1  0
 13 36  1  0
 17 37  1  0
 17 38  1  0
 18 39  1  0
 18 40  1  0
 20 41  1  0
 20 42  1  0
 21 43  1  0
 21 44  1  0
M  END
$$$$
