
     RDKit          3D

 36 38  0  0  0  0  0  0  0  0999 V2000
   -6.9143   -0.3081    0.7357 C   0  0  0  0  0  0  0  0  0  0  0  0
   -5.7561   -0.9542    1.2488 O   0  0  0  0  0  0  0  0  0  0  0  0
   -4.5462   -0.4123    0.9161 C   0  0  0  0  0  0  0  0  0  0  0  0
   -3.4425   -1.0666    1.4639 C   0  0  0  0  0  0  0  0  0  0  0  0
   -2.1438   -0.6178    1.2035 C   0  0  0  0  0  0  0  0  0  0  0  0
   -1.9231    0.5010    0.3897 C   0  0  0  0  0  0  0  0  0  0  0  0
   -0.5549    0.9533    0.1069 C   0  0  0  0  0  0  0  0  0  0  0  0
   -0.1654    2.2158   -0.1167 C   0  0  0  0  0  0  0  0  0  0  0  0
    1.2791    2.1344   -0.4341 C   0  0  0  0  0  0  0  0  0  0  0  0
    1.9471    3.1167   -0.7083 O   0  0  0  0  0  0  0  0  0  0  0  0
    1.6247    0.7849   -0.3531 N   0  0  0  0  0  0  0  0  0  0  0  0
    2.8839    0.1654   -0.4937 C   0  0  0  0  0  0  0  0  0  0  0  0
    4.0093    0.8944   -0.9060 C   0  0  0  0  0  0  0  0  0  0  0  0
    5.2596    0.2788   -1.0503 C   0  0  0  0  0  0  0  0  0  0  0  0
    5.3937   -1.0855   -0.7774 C   0  0  0  0  0  0  0  0  0  0  0  0
    6.7008   -1.7369   -0.9266 N   0  0  0  0  0  4  0  0  0  0  0  0
    6.7704   -2.9499   -0.6813 O   0  0  0  0  0  0  0  0  0  0  0  0
    7.6562   -1.0374   -1.2913 O   0  0  0  0  0  1  0  0  0  0  0  0
    4.2873   -1.8324   -0.3612 C   0  0  0  0  0  0  0  0  0  0  0  0
    3.0430   -1.2048   -0.2217 C   0  0  0  0  0  0  0  0  0  0  0  0
    0.4924    0.0438    0.0254 N   0  0  0  0  0  0  0  0  0  0  0  0
   -3.0377    1.1505   -0.1597 C   0  0  0  0  0  0  0  0  0  0  0  0
   -4.3391    0.6991    0.1014 C   0  0  0  0  0  0  0  0  0  0  0  0
   -7.7904   -0.8527    1.1009 H   0  0  0  0  0  0  0  0  0  0  0  0
   -6.9864    0.7219    1.1004 H   0  0  0  0  0  0  0  0  0  0  0  0
   -6.9329   -0.3428   -0.3586 H   0  0  0  0  0  0  0  0  0  0  0  0
   -3.5937   -1.9327    2.1041 H   0  0  0  0  0  0  0  0  0  0  0  0
   -1.3082   -1.1448    1.6597 H   0  0  0  0  0  0  0  0  0  0  0  0
   -0.7257    3.1312   -0.1191 H   0  0  0  0  0  0  0  0  0  0  0  0
    3.9408    1.9570   -1.1287 H   0  0  0  0  0  0  0  0  0  0  0  0
    6.1079    0.8795   -1.3733 H   0  0  0  0  0  0  0  0  0  0  0  0
    4.3729   -2.8937   -0.1361 H   0  0  0  0  0  0  0  0  0  0  0  0
    2.2054   -1.8059    0.1236 H   0  0  0  0  0  0  0  0  0  0  0  0
    0.2641   -0.7009   -0.6358 H   0  0  0  0  0  0  0  0  0  0  0  0
   -2.9130    2.0135   -0.8103 H   0  0  0  0  0  0  0  0  0  0  0  0
   -5.1651    1.2382   -0.3506 H   0  0  0  0  0  0  0  0  0  0  0  0
  1  2  1  0
  2  3  1  0
  3  4  2  0
  4  5  1  0
  5  6  2  0
  6  7  1  0
  7  8  2  0
  8  9  1  0
  9 10  2  0
  9 11  1  0
 11 12  1  0
 12 13  2  0
 13 14  1  0
 14 15  2  0
 15 16  1  0
 16 17  2  0
 16 18  1  0
 15 19  1  0
 19 20  2  0
 11 21  1  0
  6 22  1  0
 22 23  2  0
 23  3  1  0
 21  7  1  0
 20 12  1  0
  1 24  1  0
  1 25  1  0
  1 26  1  0
  4 27  1  0
  5 28  1  0
  8 29  1  0
 13 30  1  0
 14 31  1  0
 19 32  1  0
 20 33  1  0
 21 34  1  0
 22 35  1  0
 23 36  1  0
M  CHG  2  16   1  18  -1
M  END
$$$$
