
     RDKit          3D

 47 49  0  0  0  0  0  0  0  0999 V2000
   -2.3985    4.3962   -1.0633 C   0  0  0  0  0  0  0  0  0  0  0  0
   -1.8262    3.2441   -0.4456 O   0  0  0  0  0  0  0  0  0  0  0  0
   -0.7396    3.5024    0.3383 C   0  0  0  0  0  0  0  0  0  0  0  0
   -0.2347    4.6160    0.4816 O   0  0  0  0  0  0  0  0  0  0  0  0
   -0.1680    2.2465    0.9920 C   0  0  0  0  0  0  0  0  0  0  0  0
   -0.8583    0.9917    0.6984 N   0  0  0  0  0  0  0  0  0  0  0  0
   -0.6054    0.1729   -0.3922 C   0  0  0  0  0  0  0  0  0  0  0  0
    0.3489    0.4818   -1.4964 C   0  0  0  0  0  0  0  0  0  0  0  0
    1.6305   -0.3175   -1.3054 C   0  0  0  0  0  0  0  0  0  0  0  0
    1.5846   -1.5267   -1.0929 O   0  0  0  0  0  0  0  0  0  0  0  0
    2.7656    0.4457   -1.4270 N   0  0  0  0  0  0  0  0  0  0  0  0
    4.0885    0.0664   -1.1124 C   0  0  0  0  0  0  0  0  0  0  0  0
    5.1193    0.9643   -1.4564 C   0  0  0  0  0  0  0  0  0  0  0  0
    6.4542    0.6825   -1.1363 C   0  0  0  0  0  0  0  0  0  0  0  0
    6.7607   -0.4955   -0.4504 C   0  0  0  0  0  0  0  0  0  0  0  0
    8.3943   -0.8212   -0.0145 Cl  0  0  0  0  0  0  0  0  0  0  0  0
    5.7450   -1.3999   -0.1068 C   0  0  0  0  0  0  0  0  0  0  0  0
    4.4169   -1.1213   -0.4442 C   0  0  0  0  0  0  0  0  0  0  0  0
   -1.3985   -0.9066   -0.3044 C   0  0  0  0  0  0  0  0  0  0  0  0
   -1.3624   -1.9923   -1.1135 O   0  0  0  0  0  0  0  0  0  0  0  0
   -2.2229   -0.8370    0.8064 N   0  0  0  0  0  0  0  0  0  0  0  0
   -3.2236   -1.7893    1.1646 C   0  0  0  0  0  0  0  0  0  0  0  0
   -3.9518   -2.4464    0.1543 C   0  0  0  0  0  0  0  0  0  0  0  0
   -4.9270   -3.4027    0.4644 C   0  0  0  0  0  0  0  0  0  0  0  0
   -5.1802   -3.7222    1.7963 C   0  0  0  0  0  0  0  0  0  0  0  0
   -6.3744   -4.9063    2.1840 Cl  0  0  0  0  0  0  0  0  0  0  0  0
   -4.4685   -3.0914    2.8146 C   0  0  0  0  0  0  0  0  0  0  0  0
   -3.4925   -2.1301    2.4982 C   0  0  0  0  0  0  0  0  0  0  0  0
   -1.9137    0.4055    1.4842 C   0  0  0  0  0  0  0  0  0  0  0  0
   -2.6275    1.1121    2.8108 S   0  0  0  0  0  0  0  0  0  0  0  0
   -1.6374    5.0135   -1.5590 H   0  0  0  0  0  0  0  0  0  0  0  0
   -2.9381    4.9837   -0.3176 H   0  0  0  0  0  0  0  0  0  0  0  0
   -3.1115    4.0530   -1.8237 H   0  0  0  0  0  0  0  0  0  0  0  0
    0.8755    2.1436    0.6793 H   0  0  0  0  0  0  0  0  0  0  0  0
   -0.1733    2.4068    2.0724 H   0  0  0  0  0  0  0  0  0  0  0  0
   -0.0756    0.1828   -2.4560 H   0  0  0  0  0  0  0  0  0  0  0  0
    0.5412    1.5540   -1.5774 H   0  0  0  0  0  0  0  0  0  0  0  0
    2.6652    1.3720   -1.8258 H   0  0  0  0  0  0  0  0  0  0  0  0
    4.9032    1.8956   -1.9817 H   0  0  0  0  0  0  0  0  0  0  0  0
    7.2437    1.3906   -1.4166 H   0  0  0  0  0  0  0  0  0  0  0  0
    5.9784   -2.3167    0.4339 H   0  0  0  0  0  0  0  0  0  0  0  0
    3.6563   -1.8418   -0.1482 H   0  0  0  0  0  0  0  0  0  0  0  0
   -0.4252   -2.1116   -1.3398 H   0  0  0  0  0  0  0  0  0  0  0  0
   -3.7903   -2.1980   -0.8958 H   0  0  0  0  0  0  0  0  0  0  0  0
   -5.4753   -3.8900   -0.3391 H   0  0  0  0  0  0  0  0  0  0  0  0
   -4.6511   -3.3584    3.8521 H   0  0  0  0  0  0  0  0  0  0  0  0
   -2.9205   -1.7010    3.3166 H   0  0  0  0  0  0  0  0  0  0  0  0
  1  2  1  0
  2  3  1  0
  3  4  2  0
  3  5  1  0
  5  6  1  0
  6  7  1  0
  7  8  1  0
  8  9  1  0
  9 10  2  0
  9 11  1  0
 11 12  1  0
 12 13  2  0
 13 14  1  0
 14 15  2  0
 15 16  1  0
 15 17  1  0
 17 18  2  0
  7 19  2  0
 19 20  1  0
 19 21  1  0
 21 22  1  0
 22 23  2  0
 23 24  1  0
 24 25  2  0
 25 26  1  0
 25 27  1  0
 27 28  2  0
 21 29  1  0
 29 30  2  0
 29  6  1  0
 18 12  1  0
 28 22  1  0
  1 31  1  0
  1 32  1  0
  1 33  1  0
  5 34  1  0
  5 35  1  0
  8 36  1  0
  8 37  1  0
 11 38  1  0
 13 39  1  0
 14 40  1  0
 17 41  1  0
 18 42  1  0
 20 43  1  0
 23 44  1  0
 24 45  1  0
 27 46  1  0
 28 47  1  0
M  END
$$$$
