
     RDKit          3D

 45 47  0  0  0  0  0  0  0  0999 V2000
    2.7863   -1.1487   -3.6606 C   0  0  0  0  0  0  0  0  0  0  0  0
    2.4057   -0.4450   -2.4867 O   0  0  0  0  0  0  0  0  0  0  0  0
    3.3868    0.2362   -1.8083 C   0  0  0  0  0  0  0  0  0  0  0  0
    4.7110    0.3638   -2.2394 C   0  0  0  0  0  0  0  0  0  0  0  0
    5.6309    1.0812   -1.4734 C   0  0  0  0  0  0  0  0  0  0  0  0
    5.2320    1.6727   -0.2783 C   0  0  0  0  0  0  0  0  0  0  0  0
    3.9107    1.5520    0.1589 C   0  0  0  0  0  0  0  0  0  0  0  0
    2.9788    0.8370   -0.5972 C   0  0  0  0  0  0  0  0  0  0  0  0
    1.6253    0.6712   -0.2201 N   0  0  0  0  0  0  0  0  0  0  0  0
    0.9941    1.1133    0.9281 C   0  0  0  0  0  0  0  0  0  0  0  0
    1.5187    1.7701    1.8252 O   0  0  0  0  0  0  0  0  0  0  0  0
   -0.5025    0.7508    0.9725 C   0  0  0  0  0  0  0  0  0  0  0  0
   -1.1662    1.1131    2.3040 C   0  0  0  0  0  0  0  0  0  0  0  0
   -0.9136   -0.1169    3.1588 C   0  0  0  0  0  0  0  0  0  0  0  0
   -1.1389   -1.2581    2.1779 C   0  0  0  0  0  0  0  0  0  0  0  0
   -0.6800   -0.7252    0.8785 N   0  0  0  0  0  0  0  0  0  0  0  0
   -1.2676   -1.3915   -0.5436 S   0  0  0  0  0  6  0  0  0  0  0  0
   -1.2572   -2.8311   -0.4072 O   0  0  0  0  0  0  0  0  0  0  0  0
   -0.5757   -0.7306   -1.6303 O   0  0  0  0  0  0  0  0  0  0  0  0
   -2.9711   -0.8695   -0.5999 C   0  0  0  0  0  0  0  0  0  0  0  0
   -3.3140    0.3150   -1.2617 C   0  0  0  0  0  0  0  0  0  0  0  0
   -4.6539    0.7038   -1.3305 C   0  0  0  0  0  0  0  0  0  0  0  0
   -5.6408   -0.0996   -0.7582 C   0  0  0  0  0  0  0  0  0  0  0  0
   -7.2894    0.3830   -0.8445 Cl  0  0  0  0  0  0  0  0  0  0  0  0
   -5.3024   -1.2962   -0.1254 C   0  0  0  0  0  0  0  0  0  0  0  0
   -3.9644   -1.6900   -0.0533 C   0  0  0  0  0  0  0  0  0  0  0  0
    1.9007   -1.6664   -4.0415 H   0  0  0  0  0  0  0  0  0  0  0  0
    3.1287   -0.4590   -4.4388 H   0  0  0  0  0  0  0  0  0  0  0  0
    3.5455   -1.9064   -3.4401 H   0  0  0  0  0  0  0  0  0  0  0  0
    5.0575   -0.0805   -3.1660 H   0  0  0  0  0  0  0  0  0  0  0  0
    6.6600    1.1787   -1.8097 H   0  0  0  0  0  0  0  0  0  0  0  0
    5.9479    2.2314    0.3196 H   0  0  0  0  0  0  0  0  0  0  0  0
    3.6416    2.0290    1.0952 H   0  0  0  0  0  0  0  0  0  0  0  0
    1.0793    0.1124   -0.8812 H   0  0  0  0  0  0  0  0  0  0  0  0
   -0.9936    1.2954    0.1611 H   0  0  0  0  0  0  0  0  0  0  0  0
   -2.2461    1.2407    2.1569 H   0  0  0  0  0  0  0  0  0  0  0  0
   -0.7800    2.0264    2.7650 H   0  0  0  0  0  0  0  0  0  0  0  0
    0.1209   -0.1248    3.5219 H   0  0  0  0  0  0  0  0  0  0  0  0
   -1.5792   -0.1747    4.0246 H   0  0  0  0  0  0  0  0  0  0  0  0
   -2.2014   -1.5128    2.1505 H   0  0  0  0  0  0  0  0  0  0  0  0
   -0.5647   -2.1449    2.4595 H   0  0  0  0  0  0  0  0  0  0  0  0
   -2.5530    0.9331   -1.7337 H   0  0  0  0  0  0  0  0  0  0  0  0
   -4.9233    1.6261   -1.8399 H   0  0  0  0  0  0  0  0  0  0  0  0
   -6.0757   -1.9293    0.3032 H   0  0  0  0  0  0  0  0  0  0  0  0
   -3.7077   -2.6354    0.4209 H   0  0  0  0  0  0  0  0  0  0  0  0
  1  2  1  0
  2  3  1  0
  3  4  2  0
  4  5  1  0
  5  6  2  0
  6  7  1  0
  7  8  2  0
  8  9  1  0
  9 10  1  0
 10 11  2  0
 10 12  1  0
 12 13  1  0
 13 14  1  0
 14 15  1  0
 15 16  1  0
 16 17  1  0
 17 18  2  0
 17 19  2  0
 17 20  1  0
 20 21  2  0
 21 22  1  0
 22 23  2  0
 23 24  1  0
 23 25  1  0
 25 26  2  0
  8  3  1  0
 16 12  1  0
 26 20  1  0
  1 27  1  0
  1 28  1  0
  1 29  1  0
  4 30  1  0
  5 31  1  0
  6 32  1  0
  7 33  1  0
  9 34  1  0
 12 35  1  0
 13 36  1  0
 13 37  1  0
 14 38  1  0
 14 39  1  0
 15 40  1  0
 15 41  1  0
 21 42  1  0
 22 43  1  0
 25 44  1  0
 26 45  1  0
M  END
$$$$
