
     RDKit          3D

 45 47  0  0  0  0  0  0  0  0999 V2000
   -2.6130    0.6272    1.2848 O   0  0  0  0  0  0  0  0  0  0  0  0
   -3.0383   -0.2217    0.5050 C   0  0  0  0  0  0  0  0  0  0  0  0
   -2.1870   -1.3943    0.0095 C   0  0  0  0  0  0  0  0  0  0  0  0
   -0.7936   -1.1895    0.2293 O   0  0  0  0  0  0  0  0  0  0  0  0
   -0.2260   -0.2934   -0.6289 C   0  0  0  0  0  0  0  0  0  0  0  0
   -0.7991    0.2201   -1.5824 O   0  0  0  0  0  0  0  0  0  0  0  0
    1.2115   -0.0321   -0.2546 C   0  0  0  0  0  0  0  0  0  0  0  0
    2.2690   -1.3573   -0.9189 S   0  0  0  0  0  0  0  0  0  0  0  0
    3.8659   -0.7152   -0.4548 C   0  0  0  0  0  0  0  0  0  0  0  0
    4.2171   -0.5495    0.8857 C   0  0  0  0  0  0  0  0  0  0  0  0
    5.4787   -0.0551    1.2270 C   0  0  0  0  0  0  0  0  0  0  0  0
    6.4129    0.2739    0.2329 C   0  0  0  0  0  0  0  0  0  0  0  0
    7.6855    0.7697    0.5589 C   0  0  0  0  0  0  0  0  0  0  0  0
    8.6049    1.0881   -0.4420 C   0  0  0  0  0  0  0  0  0  0  0  0
    8.2639    0.9156   -1.7800 C   0  0  0  0  0  0  0  0  0  0  0  0
    7.0031    0.4232   -2.1205 C   0  0  0  0  0  0  0  0  0  0  0  0
    6.0663    0.0975   -1.1260 C   0  0  0  0  0  0  0  0  0  0  0  0
    4.7937   -0.4010   -1.4529 C   0  0  0  0  0  0  0  0  0  0  0  0
   -4.3277   -0.2190    0.0093 N   0  0  0  0  0  0  0  0  0  0  0  0
   -5.2997    0.7785    0.4280 C   0  0  0  0  0  0  0  0  0  0  0  0
   -6.4774    0.8535   -0.5394 C   0  0  0  0  0  0  0  0  0  0  0  0
   -7.4143   -0.2760   -0.1134 C   0  0  0  0  0  0  0  0  0  0  0  0
   -7.0508   -0.6122    1.3329 C   0  0  0  0  0  0  0  0  0  0  0  0
   -5.9765    0.3916    1.7411 C   0  0  0  0  0  0  0  0  0  0  0  0
   -2.4814   -2.2788    0.5843 H   0  0  0  0  0  0  0  0  0  0  0  0
   -2.3894   -1.6046   -1.0475 H   0  0  0  0  0  0  0  0  0  0  0  0
    1.5060    0.9357   -0.6740 H   0  0  0  0  0  0  0  0  0  0  0  0
    1.2920    0.0384    0.8350 H   0  0  0  0  0  0  0  0  0  0  0  0
    3.5225   -0.8130    1.6794 H   0  0  0  0  0  0  0  0  0  0  0  0
    5.7296    0.0655    2.2787 H   0  0  0  0  0  0  0  0  0  0  0  0
    7.9715    0.9099    1.5987 H   0  0  0  0  0  0  0  0  0  0  0  0
    9.5870    1.4700   -0.1758 H   0  0  0  0  0  0  0  0  0  0  0  0
    8.9792    1.1627   -2.5604 H   0  0  0  0  0  0  0  0  0  0  0  0
    6.7560    0.2947   -3.1720 H   0  0  0  0  0  0  0  0  0  0  0  0
    4.5247   -0.5436   -2.4978 H   0  0  0  0  0  0  0  0  0  0  0  0
   -4.6445   -1.0050   -0.5434 H   0  0  0  0  0  0  0  0  0  0  0  0
   -4.7899    1.7440    0.5140 H   0  0  0  0  0  0  0  0  0  0  0  0
   -6.1825    0.7665   -1.5902 H   0  0  0  0  0  0  0  0  0  0  0  0
   -6.9945    1.8132   -0.4143 H   0  0  0  0  0  0  0  0  0  0  0  0
   -7.2710   -1.1571   -0.7492 H   0  0  0  0  0  0  0  0  0  0  0  0
   -8.4623    0.0267   -0.2071 H   0  0  0  0  0  0  0  0  0  0  0  0
   -7.9205   -0.5612    1.9956 H   0  0  0  0  0  0  0  0  0  0  0  0
   -6.6567   -1.6338    1.3873 H   0  0  0  0  0  0  0  0  0  0  0  0
   -6.4557    1.2739    2.1825 H   0  0  0  0  0  0  0  0  0  0  0  0
   -5.2894   -0.0266    2.4832 H   0  0  0  0  0  0  0  0  0  0  0  0
  1  2  2  0
  2  3  1  0
  3  4  1  0
  4  5  1  0
  5  6  2  0
  5  7  1  0
  7  8  1  0
  8  9  1  0
  9 10  2  0
 10 11  1  0
 11 12  2  0
 12 13  1  0
 13 14  2  0
 14 15  1  0
 15 16  2  0
 16 17  1  0
 17 18  2  0
  2 19  1  0
 19 20  1  0
 20 21  1  0
 21 22  1  0
 22 23  1  0
 23 24  1  0
 18  9  1  0
 24 20  1  0
 17 12  1  0
  3 25  1  0
  3 26  1  0
  7 27  1  0
  7 28  1  0
 10 29  1  0
 11 30  1  0
 13 31  1  0
 14 32  1  0
 15 33  1  0
 16 34  1  0
 18 35  1  0
 19 36  1  0
 20 37  1  0
 21 38  1  0
 21 39  1  0
 22 40  1  0
 22 41  1  0
 23 42  1  0
 23 43  1  0
 24 44  1  0
 24 45  1  0
M  END
$$$$
