
     RDKit          3D

 46 47  0  0  0  0  0  0  0  0999 V2000
    2.4877   -3.2660   -2.4653 C   0  0  0  0  0  0  0  0  0  0  0  0
    2.5278   -2.9836   -0.9751 C   0  0  0  0  0  0  0  0  0  0  0  0
    2.6809   -1.5771   -0.7404 O   0  0  0  0  0  0  0  0  0  0  0  0
    1.5312   -0.8450   -0.7403 C   0  0  0  0  0  0  0  0  0  0  0  0
    0.4092   -1.3177   -0.8813 O   0  0  0  0  0  0  0  0  0  0  0  0
    1.7616    0.5808   -0.5212 C   0  0  0  0  0  0  0  0  0  0  0  0
    2.8297    1.1622    0.1578 C   0  0  0  0  0  0  0  0  0  0  0  0
    4.0104    0.5559    0.8316 C   0  0  0  0  0  0  0  0  0  0  0  0
    2.6540    2.5246    0.1406 N   0  0  0  0  0  0  0  0  0  0  0  0
    1.4997    2.8502   -0.5257 C   0  0  0  0  0  0  0  0  0  0  0  0
    1.0864    4.2677   -0.7019 C   0  0  0  0  0  0  0  0  0  0  0  0
    0.9250    1.6624   -0.9538 C   0  0  0  0  0  0  0  0  0  0  0  0
   -0.5186    1.4645   -1.9106 S   0  0  0  0  0  6  0  0  0  0  0  0
   -1.1116    2.7811   -1.9852 O   0  0  0  0  0  0  0  0  0  0  0  0
   -0.0461    0.7657   -3.0839 O   0  0  0  0  0  0  0  0  0  0  0  0
   -1.5764    0.4596   -1.0821 N   0  0  0  0  0  0  0  0  0  0  0  0
   -2.1311    0.9992    0.1614 C   0  0  0  0  0  0  0  0  0  0  0  0
   -2.9787   -0.0350    0.8711 C   0  0  0  0  0  0  0  0  0  0  0  0
   -4.2694   -0.2893    0.3708 C   0  0  0  0  0  0  0  0  0  0  0  0
   -5.0990   -1.2355    0.9699 C   0  0  0  0  0  0  0  0  0  0  0  0
   -4.6492   -1.9474    2.0757 C   0  0  0  0  0  0  0  0  0  0  0  0
   -3.3676   -1.7193    2.5767 C   0  0  0  0  0  0  0  0  0  0  0  0
   -2.5158   -0.7740    1.9806 C   0  0  0  0  0  0  0  0  0  0  0  0
   -1.1424   -0.5710    2.5586 C   0  0  0  0  0  0  0  0  0  0  0  0
    1.6237   -2.7845   -2.9341 H   0  0  0  0  0  0  0  0  0  0  0  0
    3.3806   -2.8655   -2.9564 H   0  0  0  0  0  0  0  0  0  0  0  0
    2.4329   -4.3417   -2.6547 H   0  0  0  0  0  0  0  0  0  0  0  0
    1.6409   -3.3785   -0.4664 H   0  0  0  0  0  0  0  0  0  0  0  0
    3.3982   -3.4777   -0.5310 H   0  0  0  0  0  0  0  0  0  0  0  0
    3.7006   -0.2623    1.4894 H   0  0  0  0  0  0  0  0  0  0  0  0
    4.5438    1.2900    1.4446 H   0  0  0  0  0  0  0  0  0  0  0  0
    4.7118    0.1626    0.0892 H   0  0  0  0  0  0  0  0  0  0  0  0
    3.2917    3.1956    0.5526 H   0  0  0  0  0  0  0  0  0  0  0  0
    0.9982    4.5136   -1.7647 H   0  0  0  0  0  0  0  0  0  0  0  0
    1.8160    4.9558   -0.2619 H   0  0  0  0  0  0  0  0  0  0  0  0
    0.1233    4.4493   -0.2148 H   0  0  0  0  0  0  0  0  0  0  0  0
   -1.1592   -0.4764   -0.9838 H   0  0  0  0  0  0  0  0  0  0  0  0
   -2.7578    1.8719   -0.0586 H   0  0  0  0  0  0  0  0  0  0  0  0
   -1.3294    1.3470    0.8190 H   0  0  0  0  0  0  0  0  0  0  0  0
   -4.6285    0.2528   -0.5029 H   0  0  0  0  0  0  0  0  0  0  0  0
   -6.0926   -1.4181    0.5695 H   0  0  0  0  0  0  0  0  0  0  0  0
   -5.2930   -2.6862    2.5454 H   0  0  0  0  0  0  0  0  0  0  0  0
   -3.0343   -2.2930    3.4391 H   0  0  0  0  0  0  0  0  0  0  0  0
   -0.9205   -1.3081    3.3378 H   0  0  0  0  0  0  0  0  0  0  0  0
   -1.0651    0.4233    3.0095 H   0  0  0  0  0  0  0  0  0  0  0  0
   -0.3789   -0.6830    1.7835 H   0  0  0  0  0  0  0  0  0  0  0  0
  1  2  1  0
  2  3  1  0
  3  4  1  0
  4  5  2  0
  4  6  1  0
  6  7  2  0
  7  8  1  0
  7  9  1  0
  9 10  1  0
 10 11  1  0
 10 12  2  0
 12 13  1  0
 13 14  2  0
 13 15  2  0
 13 16  1  0
 16 17  1  0
 17 18  1  0
 18 19  2  0
 19 20  1  0
 20 21  2  0
 21 22  1  0
 22 23  2  0
 23 24  1  0
 12  6  1  0
 23 18  1  0
  1 25  1  0
  1 26  1  0
  1 27  1  0
  2 28  1  0
  2 29  1  0
  8 30  1  0
  8 31  1  0
  8 32  1  0
  9 33  1  0
 11 34  1  0
 11 35  1  0
 11 36  1  0
 16 37  1  0
 17 38  1  0
 17 39  1  0
 19 40  1  0
 20 41  1  0
 21 42  1  0
 22 43  1  0
 24 44  1  0
 24 45  1  0
 24 46  1  0
M  END
$$$$
