
     RDKit          3D

 59 62  0  0  0  0  0  0  0  0999 V2000
   -7.3642   -0.5943   -1.1662 C   0  0  0  0  0  0  0  0  0  0  0  0
   -6.9488   -0.1304    0.2342 C   0  0  0  0  0  0  0  0  0  0  0  0
   -7.3025    1.3443    0.4677 C   0  0  0  0  0  0  0  0  0  0  0  0
   -6.3614    2.2767   -0.2912 C   0  0  0  0  0  0  0  0  0  0  0  0
   -4.8955    1.9365   -0.0222 C   0  0  0  0  0  0  0  0  0  0  0  0
   -4.5944    0.5241   -0.3244 N   0  0  0  0  0  0  0  0  0  0  0  0
   -3.1720    0.2164   -0.0741 C   0  0  0  0  0  0  0  0  0  0  0  0
   -2.2736    0.6967   -1.2244 C   0  0  0  0  0  0  0  0  0  0  0  0
   -0.7899    0.4651   -0.9439 C   0  0  0  0  0  0  0  0  0  0  0  0
   -0.4961   -0.9587   -0.8248 N   0  0  0  0  0  0  0  0  0  0  0  0
    0.1392   -1.6086    0.5734 S   0  0  0  0  0  6  0  0  0  0  0  0
   -0.4880   -0.9610    1.7033 O   0  0  0  0  0  0  0  0  0  0  0  0
    0.1085   -3.0447    0.4047 O   0  0  0  0  0  0  0  0  0  0  0  0
    1.8361   -1.0860    0.4997 C   0  0  0  0  0  0  0  0  0  0  0  0
    2.7971   -1.9360   -0.0735 C   0  0  0  0  0  0  0  0  0  0  0  0
    4.1480   -1.5609   -0.1038 C   0  0  0  0  0  0  0  0  0  0  0  0
    4.5209   -0.3433    0.4424 C   0  0  0  0  0  0  0  0  0  0  0  0
    3.5494    0.4951    1.0079 C   0  0  0  0  0  0  0  0  0  0  0  0
    2.2073    0.1381    1.0587 C   0  0  0  0  0  0  0  0  0  0  0  0
    4.1457    1.7694    1.5142 C   0  0  0  0  0  0  0  0  0  0  0  0
    5.6306    1.5659    1.2169 C   0  0  0  0  0  0  0  0  0  0  0  0
    5.7839    0.2640    0.5535 N   0  0  0  0  0  0  0  0  0  0  0  0
    7.0584   -0.1582    0.2098 C   0  0  0  0  0  0  0  0  0  0  0  0
    8.0488    0.5433    0.4099 O   0  0  0  0  0  0  0  0  0  0  0  0
    7.2527   -1.5029   -0.3949 C   0  0  0  0  0  0  0  0  0  0  0  0
    8.4944   -1.7853   -1.2202 C   0  0  0  0  0  0  0  0  0  0  0  0
    7.1613   -1.6924   -1.8935 C   0  0  0  0  0  0  0  0  0  0  0  0
   -5.4495   -0.3628    0.4912 C   0  0  0  0  0  0  0  0  0  0  0  0
   -7.2194   -1.6743   -1.2703 H   0  0  0  0  0  0  0  0  0  0  0  0
   -8.4242   -0.3842   -1.3382 H   0  0  0  0  0  0  0  0  0  0  0  0
   -6.7906   -0.1013   -1.9581 H   0  0  0  0  0  0  0  0  0  0  0  0
   -7.5182   -0.7324    0.9562 H   0  0  0  0  0  0  0  0  0  0  0  0
   -7.2289    1.5620    1.5428 H   0  0  0  0  0  0  0  0  0  0  0  0
   -8.3413    1.5445    0.1806 H   0  0  0  0  0  0  0  0  0  0  0  0
   -6.5616    2.2154   -1.3687 H   0  0  0  0  0  0  0  0  0  0  0  0
   -6.5578    3.3148    0.0063 H   0  0  0  0  0  0  0  0  0  0  0  0
   -4.2852    2.6004   -0.6465 H   0  0  0  0  0  0  0  0  0  0  0  0
   -4.6568    2.1680    1.0248 H   0  0  0  0  0  0  0  0  0  0  0  0
   -2.8415    0.6396    0.8835 H   0  0  0  0  0  0  0  0  0  0  0  0
   -3.0473   -0.8719    0.0018 H   0  0  0  0  0  0  0  0  0  0  0  0
   -2.5597    0.1809   -2.1510 H   0  0  0  0  0  0  0  0  0  0  0  0
   -2.4153    1.7695   -1.4005 H   0  0  0  0  0  0  0  0  0  0  0  0
   -0.4884    1.0204   -0.0522 H   0  0  0  0  0  0  0  0  0  0  0  0
   -0.2009    0.8610   -1.7778 H   0  0  0  0  0  0  0  0  0  0  0  0
   -0.7499   -1.6110   -1.5654 H   0  0  0  0  0  0  0  0  0  0  0  0
    2.5021   -2.8963   -0.4940 H   0  0  0  0  0  0  0  0  0  0  0  0
    4.8504   -2.2421   -0.5602 H   0  0  0  0  0  0  0  0  0  0  0  0
    1.4746    0.7919    1.5245 H   0  0  0  0  0  0  0  0  0  0  0  0
    3.7494    2.6304    0.9671 H   0  0  0  0  0  0  0  0  0  0  0  0
    3.9689    1.9037    2.5845 H   0  0  0  0  0  0  0  0  0  0  0  0
    6.0226    2.3528    0.5606 H   0  0  0  0  0  0  0  0  0  0  0  0
    6.2258    1.5699    2.1381 H   0  0  0  0  0  0  0  0  0  0  0  0
    6.9611   -2.3205    0.2568 H   0  0  0  0  0  0  0  0  0  0  0  0
    8.9548   -2.7613   -1.1189 H   0  0  0  0  0  0  0  0  0  0  0  0
    9.2037   -0.9795   -1.3780 H   0  0  0  0  0  0  0  0  0  0  0  0
    6.7207   -2.6090   -2.2669 H   0  0  0  0  0  0  0  0  0  0  0  0
    6.9669   -0.8218   -2.5108 H   0  0  0  0  0  0  0  0  0  0  0  0
   -5.2390   -0.2174    1.5595 H   0  0  0  0  0  0  0  0  0  0  0  0
   -5.2218   -1.4122    0.2608 H   0  0  0  0  0  0  0  0  0  0  0  0
  1  2  1  0
  2  3  1  0
  3  4  1  0
  4  5  1  0
  5  6  1  0
  6  7  1  0
  7  8  1  0
  8  9  1  0
  9 10  1  0
 10 11  1  0
 11 12  2  0
 11 13  2  0
 11 14  1  0
 14 15  2  0
 15 16  1  0
 16 17  2  0
 17 18  1  0
 18 19  2  0
 18 20  1  0
 20 21  1  0
 21 22  1  0
 22 23  1  0
 23 24  2  0
 23 25  1  0
 25 26  1  0
 26 27  1  0
  6 28  1  0
 28  2  1  0
 19 14  1  0
 27 25  1  0
 22 17  1  0
  1 29  1  0
  1 30  1  0
  1 31  1  0
  2 32  1  0
  3 33  1  0
  3 34  1  0
  4 35  1  0
  4 36  1  0
  5 37  1  0
  5 38  1  0
  7 39  1  0
  7 40  1  0
  8 41  1  0
  8 42  1  0
  9 43  1  0
  9 44  1  0
 10 45  1  0
 15 46  1  0
 16 47  1  0
 19 48  1  0
 20 49  1  0
 20 50  1  0
 21 51  1  0
 21 52  1  0
 25 53  1  0
 26 54  1  0
 26 55  1  0
 27 56  1  0
 27 57  1  0
 28 58  1  0
 28 59  1  0
M  END
$$$$
