
     RDKit          3D

 38 40  0  0  0  0  0  0  0  0999 V2000
   -2.1239    0.1997   -4.5328 C   0  0  0  0  0  0  0  0  0  0  0  0
   -1.4563   -0.6702   -3.5007 C   0  0  0  0  0  0  0  0  0  0  0  0
   -0.6325   -1.5281   -3.8121 O   0  0  0  0  0  0  0  0  0  0  0  0
   -1.7432   -0.4622   -2.0730 C   0  0  0  0  0  0  0  0  0  0  0  0
   -0.7439   -0.4650   -1.1048 C   0  0  0  0  0  0  0  0  0  0  0  0
    0.7168   -0.6592   -1.4752 C   0  0  0  0  0  0  0  0  0  0  0  0
    1.5558   -0.2581   -0.3802 O   0  0  0  0  0  0  0  0  0  0  0  0
    2.8809   -0.3621   -0.6281 C   0  0  0  0  0  0  0  0  0  0  0  0
    3.3812   -0.7285   -1.6790 O   0  0  0  0  0  0  0  0  0  0  0  0
    3.6684    0.0448    0.5669 C   0  0  0  0  0  0  0  0  0  0  0  0
    3.0617    0.4297    1.7710 C   0  0  0  0  0  0  0  0  0  0  0  0
    3.8477    0.8030    2.8640 C   0  0  0  0  0  0  0  0  0  0  0  0
    5.2385    0.7935    2.7611 C   0  0  0  0  0  0  0  0  0  0  0  0
    5.8486    0.4106    1.5672 C   0  0  0  0  0  0  0  0  0  0  0  0
    5.0669    0.0367    0.4724 C   0  0  0  0  0  0  0  0  0  0  0  0
   -1.0355   -0.3029    0.2135 N   0  0  0  0  0  0  0  0  0  0  0  0
   -2.3051   -0.1341    0.5988 C   0  0  0  0  0  0  0  0  0  0  0  0
   -2.5922    0.0339    1.9472 C   0  0  0  0  0  0  0  0  0  0  0  0
   -3.9019    0.2125    2.4039 C   0  0  0  0  0  0  0  0  0  0  0  0
   -4.9560    0.2239    1.4989 C   0  0  0  0  0  0  0  0  0  0  0  0
   -4.6921    0.0568    0.1424 C   0  0  0  0  0  0  0  0  0  0  0  0
   -3.3662   -0.1219   -0.3174 C   0  0  0  0  0  0  0  0  0  0  0  0
   -3.0616   -0.2964   -1.6845 N   0  0  0  0  0  4  0  0  0  0  0  0
   -4.0160   -0.3121   -2.5417 O   0  0  0  0  0  1  0  0  0  0  0  0
   -1.3875    0.4642   -5.2979 H   0  0  0  0  0  0  0  0  0  0  0  0
   -2.9501   -0.3431   -4.9979 H   0  0  0  0  0  0  0  0  0  0  0  0
   -2.4830    1.1345   -4.0939 H   0  0  0  0  0  0  0  0  0  0  0  0
    0.9615   -0.0340   -2.3415 H   0  0  0  0  0  0  0  0  0  0  0  0
    0.8925   -1.7188   -1.6922 H   0  0  0  0  0  0  0  0  0  0  0  0
    1.9789    0.4416    1.8730 H   0  0  0  0  0  0  0  0  0  0  0  0
    3.3743    1.1004    3.7965 H   0  0  0  0  0  0  0  0  0  0  0  0
    5.8484    1.0838    3.6133 H   0  0  0  0  0  0  0  0  0  0  0  0
    6.9330    0.4021    1.4878 H   0  0  0  0  0  0  0  0  0  0  0  0
    5.5527   -0.2616   -0.4549 H   0  0  0  0  0  0  0  0  0  0  0  0
   -1.7749    0.0241    2.6657 H   0  0  0  0  0  0  0  0  0  0  0  0
   -4.0930    0.3401    3.4671 H   0  0  0  0  0  0  0  0  0  0  0  0
   -5.9779    0.3600    1.8453 H   0  0  0  0  0  0  0  0  0  0  0  0
   -5.5151    0.0622   -0.5717 H   0  0  0  0  0  0  0  0  0  0  0  0
  1  2  1  0
  2  3  2  0
  2  4  1  0
  4  5  2  0
  5  6  1  0
  6  7  1  0
  7  8  1  0
  8  9  2  0
  8 10  1  0
 10 11  2  0
 11 12  1  0
 12 13  2  0
 13 14  1  0
 14 15  2  0
  5 16  1  0
 16 17  2  0
 17 18  1  0
 18 19  2  0
 19 20  1  0
 20 21  2  0
 21 22  1  0
 22 23  2  0
 23 24  1  0
 23  4  1  0
 15 10  1  0
 22 17  1  0
  1 25  1  0
  1 26  1  0
  1 27  1  0
  6 28  1  0
  6 29  1  0
 11 30  1  0
 12 31  1  0
 13 32  1  0
 14 33  1  0
 15 34  1  0
 18 35  1  0
 19 36  1  0
 20 37  1  0
 21 38  1  0
M  CHG  2  23   1  24  -1
M  END
$$$$
