
     RDKit          3D

 68 71  0  0  0  0  0  0  0  0999 V2000
    4.3555    0.2292   -4.7984 C   0  0  0  0  0  0  0  0  0  0  0  0
    3.0184    0.3479   -3.5848 S   0  0  0  0  0  0  0  0  0  0  0  0
    3.6034   -0.9332   -2.4223 C   0  0  0  0  0  0  0  0  0  0  0  0
    2.6854   -1.0492   -1.2064 C   0  0  0  0  0  0  0  0  0  0  0  0
    2.7227    0.1656   -0.2619 C   0  0  0  0  0  0  0  0  0  0  0  0
    4.0457    0.5140    0.2780 N   0  0  0  0  0  0  0  0  0  0  0  0
    4.9661   -0.4086    0.7254 C   0  0  0  0  0  0  0  0  0  0  0  0
    4.9700   -1.6063    0.4835 O   0  0  0  0  0  0  0  0  0  0  0  0
    6.0166    0.1581    1.5871 C   0  0  0  0  0  0  0  0  0  0  0  0
    5.6749    0.4893    2.9052 C   0  0  0  0  0  0  0  0  0  0  0  0
    6.6429    1.0205    3.7571 C   0  0  0  0  0  0  0  0  0  0  0  0
    7.9445    1.2178    3.2945 C   0  0  0  0  0  0  0  0  0  0  0  0
    8.2818    0.8848    1.9791 C   0  0  0  0  0  0  0  0  0  0  0  0
    7.3178    0.3514    1.1189 C   0  0  0  0  0  0  0  0  0  0  0  0
    7.7814   -0.0056   -0.5050 Cl  0  0  0  0  0  0  0  0  0  0  0  0
    1.7320   -0.0044    0.9248 C   0  0  0  0  0  0  0  0  0  0  0  0
    2.1422   -0.0713    2.0893 O   0  0  0  0  0  0  0  0  0  0  0  0
    0.3684   -0.0836    0.6355 N   0  0  0  0  0  0  0  0  0  0  0  0
   -0.5390   -0.2454    1.7712 C   0  0  0  0  0  0  0  0  0  0  0  0
   -1.9130   -0.8010    1.3563 C   0  0  0  0  0  0  0  0  0  0  0  0
   -2.5517   -0.0006    0.2776 N   0  0  0  0  0  0  0  0  0  0  0  0
   -3.8739   -0.5864   -0.1112 C   0  0  0  0  0  0  0  0  0  0  0  0
   -4.8613   -0.7016    1.0587 C   0  0  0  0  0  0  0  0  0  0  0  0
   -5.0875    0.3662    1.9449 C   0  0  0  0  0  0  0  0  0  0  0  0
   -6.0009    0.2437    2.9935 C   0  0  0  0  0  0  0  0  0  0  0  0
   -6.7062   -0.9445    3.1688 C   0  0  0  0  0  0  0  0  0  0  0  0
   -6.5010   -2.0105    2.2957 C   0  0  0  0  0  0  0  0  0  0  0  0
   -5.5875   -1.8904    1.2463 C   0  0  0  0  0  0  0  0  0  0  0  0
   -4.5500    0.1502   -1.2763 C   0  0  0  0  0  0  0  0  0  0  0  0
   -5.0999   -0.5826   -2.3422 C   0  0  0  0  0  0  0  0  0  0  0  0
   -5.7308    0.0680   -3.4047 C   0  0  0  0  0  0  0  0  0  0  0  0
   -5.8263    1.4578   -3.4152 C   0  0  0  0  0  0  0  0  0  0  0  0
   -5.2938    2.1995   -2.3634 C   0  0  0  0  0  0  0  0  0  0  0  0
   -4.6630    1.5513   -1.3002 C   0  0  0  0  0  0  0  0  0  0  0  0
   -1.6179    0.0191   -0.8776 C   0  0  0  0  0  0  0  0  0  0  0  0
   -0.2392    0.5994   -0.5103 C   0  0  0  0  0  0  0  0  0  0  0  0
    4.3961   -0.7772   -5.2229 H   0  0  0  0  0  0  0  0  0  0  0  0
    5.3143    0.4724   -4.3330 H   0  0  0  0  0  0  0  0  0  0  0  0
    4.1713    0.9407   -5.6075 H   0  0  0  0  0  0  0  0  0  0  0  0
    3.6107   -1.8903   -2.9543 H   0  0  0  0  0  0  0  0  0  0  0  0
    4.6310   -0.7062   -2.1256 H   0  0  0  0  0  0  0  0  0  0  0  0
    1.6618   -1.2411   -1.5498 H   0  0  0  0  0  0  0  0  0  0  0  0
    2.9458   -1.9583   -0.6524 H   0  0  0  0  0  0  0  0  0  0  0  0
    2.4184    1.0734   -0.7933 H   0  0  0  0  0  0  0  0  0  0  0  0
    4.0934    1.4264    0.7140 H   0  0  0  0  0  0  0  0  0  0  0  0
    4.6624    0.3181    3.2682 H   0  0  0  0  0  0  0  0  0  0  0  0
    6.3842    1.2723    4.7832 H   0  0  0  0  0  0  0  0  0  0  0  0
    8.7004    1.6284    3.9605 H   0  0  0  0  0  0  0  0  0  0  0  0
    9.2997    1.0444    1.6314 H   0  0  0  0  0  0  0  0  0  0  0  0
   -0.0891   -0.9180    2.5106 H   0  0  0  0  0  0  0  0  0  0  0  0
   -0.6529    0.7375    2.2457 H   0  0  0  0  0  0  0  0  0  0  0  0
   -1.7907   -1.8425    1.0292 H   0  0  0  0  0  0  0  0  0  0  0  0
   -2.5341   -0.8130    2.2577 H   0  0  0  0  0  0  0  0  0  0  0  0
   -3.6640   -1.6102   -0.4565 H   0  0  0  0  0  0  0  0  0  0  0  0
   -4.5415    1.2989    1.8239 H   0  0  0  0  0  0  0  0  0  0  0  0
   -6.1621    1.0774    3.6716 H   0  0  0  0  0  0  0  0  0  0  0  0
   -7.4187   -1.0383    3.9839 H   0  0  0  0  0  0  0  0  0  0  0  0
   -7.0560   -2.9354    2.4293 H   0  0  0  0  0  0  0  0  0  0  0  0
   -5.4488   -2.7321    0.5718 H   0  0  0  0  0  0  0  0  0  0  0  0
   -5.0440   -1.6686   -2.3502 H   0  0  0  0  0  0  0  0  0  0  0  0
   -6.1523   -0.5108   -4.2224 H   0  0  0  0  0  0  0  0  0  0  0  0
   -6.3199    1.9630   -4.2411 H   0  0  0  0  0  0  0  0  0  0  0  0
   -5.3712    3.2835   -2.3680 H   0  0  0  0  0  0  0  0  0  0  0  0
   -4.2496    2.1445   -0.4880 H   0  0  0  0  0  0  0  0  0  0  0  0
   -1.4823   -0.9971   -1.2721 H   0  0  0  0  0  0  0  0  0  0  0  0
   -2.0124    0.6357   -1.6916 H   0  0  0  0  0  0  0  0  0  0  0  0
    0.4078    0.5558   -1.3873 H   0  0  0  0  0  0  0  0  0  0  0  0
   -0.3343    1.6585   -0.2391 H   0  0  0  0  0  0  0  0  0  0  0  0
  1  2  1  0
  2  3  1  0
  3  4  1  0
  4  5  1  0
  5  6  1  0
  6  7  1  0
  7  8  2  0
  7  9  1  0
  9 10  2  0
 10 11  1  0
 11 12  2  0
 12 13  1  0
 13 14  2  0
 14 15  1  0
  5 16  1  0
 16 17  2  0
 16 18  1  0
 18 19  1  0
 19 20  1  0
 20 21  1  0
 21 22  1  0
 22 23  1  0
 23 24  2  0
 24 25  1  0
 25 26  2  0
 26 27  1  0
 27 28  2  0
 22 29  1  0
 29 30  2  0
 30 31  1  0
 31 32  2  0
 32 33  1  0
 33 34  2  0
 21 35  1  0
 35 36  1  0
 14  9  1  0
 36 18  1  0
 28 23  1  0
 34 29  1  0
  1 37  1  0
  1 38  1  0
  1 39  1  0
  3 40  1  0
  3 41  1  0
  4 42  1  0
  4 43  1  0
  5 44  1  0
  6 45  1  0
 10 46  1  0
 11 47  1  0
 12 48  1  0
 13 49  1  0
 19 50  1  0
 19 51  1  0
 20 52  1  0
 20 53  1  0
 22 54  1  0
 24 55  1  0
 25 56  1  0
 26 57  1  0
 27 58  1  0
 28 59  1  0
 30 60  1  0
 31 61  1  0
 32 62  1  0
 33 63  1  0
 34 64  1  0
 35 65  1  0
 35 66  1  0
 36 67  1  0
 36 68  1  0
M  END
$$$$
