
     RDKit          3D

 53 55  0  0  0  0  0  0  0  0999 V2000
    6.2307   -2.8802    2.9576 C   0  0  0  0  0  0  0  0  0  0  0  0
    6.0727   -1.8737    1.9662 O   0  0  0  0  0  0  0  0  0  0  0  0
    4.9841   -1.9796    1.1447 C   0  0  0  0  0  0  0  0  0  0  0  0
    4.0782   -3.0370    1.1171 C   0  0  0  0  0  0  0  0  0  0  0  0
    3.0004   -3.0152    0.2239 C   0  0  0  0  0  0  0  0  0  0  0  0
    2.8103   -1.9362   -0.6547 C   0  0  0  0  0  0  0  0  0  0  0  0
    1.7227   -1.8956   -1.5476 C   0  0  0  0  0  0  0  0  0  0  0  0
    1.5286   -0.8112   -2.4189 C   0  0  0  0  0  0  0  0  0  0  0  0
    0.3413   -0.7058   -3.3722 C   0  0  0  0  0  0  0  0  0  0  0  0
   -0.5723   -1.9340   -3.4394 C   0  0  0  0  0  0  0  0  0  0  0  0
   -0.5335    0.5259   -3.0841 C   0  0  0  0  0  0  0  0  0  0  0  0
   -0.8554    1.2803   -3.9988 O   0  0  0  0  0  0  0  0  0  0  0  0
   -0.9291    0.6384   -1.7609 N   0  0  0  0  0  0  0  0  0  0  0  0
   -1.7775    1.6119   -1.1950 C   0  0  0  0  0  0  0  0  0  0  0  0
   -2.4743    2.5709   -1.9373 C   0  0  0  0  0  0  0  0  0  0  0  0
   -3.2955    3.5099   -1.3023 C   0  0  0  0  0  0  0  0  0  0  0  0
   -3.4375    3.4951    0.0836 C   0  0  0  0  0  0  0  0  0  0  0  0
   -2.7691    2.5205    0.8244 C   0  0  0  0  0  0  0  0  0  0  0  0
   -2.9162    2.5024    2.5989 S   0  0  0  0  0  6  0  0  0  0  0  0
   -1.7186    1.8769    3.1216 O   0  0  0  0  0  0  0  0  0  0  0  0
   -3.3071    3.8332    3.0161 O   0  0  0  0  0  0  0  0  0  0  0  0
   -4.2280    1.4515    2.8675 N   0  0  0  0  0  0  0  0  0  0  0  0
   -4.0280    0.0299    2.5447 C   0  0  0  0  0  0  0  0  0  0  0  0
   -5.5652    1.9506    2.5010 C   0  0  0  0  0  0  0  0  0  0  0  0
   -1.9274    1.5932    0.1963 C   0  0  0  0  0  0  0  0  0  0  0  0
    2.4667    0.2331   -2.3960 C   0  0  0  0  0  0  0  0  0  0  0  0
    3.5504    0.2063   -1.5152 C   0  0  0  0  0  0  0  0  0  0  0  0
    3.7319   -0.8692   -0.6356 C   0  0  0  0  0  0  0  0  0  0  0  0
    4.8098   -0.9065    0.2648 C   0  0  0  0  0  0  0  0  0  0  0  0
    6.4154   -3.8578    2.5003 H   0  0  0  0  0  0  0  0  0  0  0  0
    7.1087   -2.6225    3.5598 H   0  0  0  0  0  0  0  0  0  0  0  0
    5.3655   -2.9162    3.6278 H   0  0  0  0  0  0  0  0  0  0  0  0
    4.1795   -3.8952    1.7730 H   0  0  0  0  0  0  0  0  0  0  0  0
    2.3079   -3.8544    0.2220 H   0  0  0  0  0  0  0  0  0  0  0  0
    1.0277   -2.7318   -1.5456 H   0  0  0  0  0  0  0  0  0  0  0  0
    0.7650   -0.5663   -4.3766 H   0  0  0  0  0  0  0  0  0  0  0  0
   -1.3769   -1.7761   -4.1657 H   0  0  0  0  0  0  0  0  0  0  0  0
   -1.0478   -2.1439   -2.4742 H   0  0  0  0  0  0  0  0  0  0  0  0
   -0.0172   -2.8274   -3.7480 H   0  0  0  0  0  0  0  0  0  0  0  0
   -0.4785    0.0077   -1.1059 H   0  0  0  0  0  0  0  0  0  0  0  0
   -2.3973    2.6209   -3.0210 H   0  0  0  0  0  0  0  0  0  0  0  0
   -3.8180    4.2562   -1.8981 H   0  0  0  0  0  0  0  0  0  0  0  0
   -4.0631    4.2383    0.5711 H   0  0  0  0  0  0  0  0  0  0  0  0
   -3.0513   -0.3226    2.8927 H   0  0  0  0  0  0  0  0  0  0  0  0
   -4.7826   -0.5763    3.0588 H   0  0  0  0  0  0  0  0  0  0  0  0
   -4.1164   -0.1462    1.4679 H   0  0  0  0  0  0  0  0  0  0  0  0
   -5.7362    2.9507    2.9131 H   0  0  0  0  0  0  0  0  0  0  0  0
   -6.3324    1.2972    2.9288 H   0  0  0  0  0  0  0  0  0  0  0  0
   -5.6970    1.9725    1.4166 H   0  0  0  0  0  0  0  0  0  0  0  0
   -1.3840    0.8689    0.8008 H   0  0  0  0  0  0  0  0  0  0  0  0
    2.3577    1.0882   -3.0629 H   0  0  0  0  0  0  0  0  0  0  0  0
    4.2522    1.0380   -1.5200 H   0  0  0  0  0  0  0  0  0  0  0  0
    5.5263   -0.0878    0.2913 H   0  0  0  0  0  0  0  0  0  0  0  0
  1  2  1  0
  2  3  1  0
  3  4  2  0
  4  5  1  0
  5  6  2  0
  6  7  1  0
  7  8  2  0
  8  9  1  0
  9 10  1  0
  9 11  1  0
 11 12  2  0
 11 13  1  0
 13 14  1  0
 14 15  2  0
 15 16  1  0
 16 17  2  0
 17 18  1  0
 18 19  1  0
 19 20  2  0
 19 21  2  0
 19 22  1  0
 22 23  1  0
 22 24  1  0
 18 25  2  0
  8 26  1  0
 26 27  2  0
 27 28  1  0
 28 29  2  0
 29  3  1  0
 28  6  1  0
 25 14  1  0
  1 30  1  0
  1 31  1  0
  1 32  1  0
  4 33  1  0
  5 34  1  0
  7 35  1  0
  9 36  1  0
 10 37  1  0
 10 38  1  0
 10 39  1  0
 13 40  1  0
 15 41  1  0
 16 42  1  0
 17 43  1  0
 23 44  1  0
 23 45  1  0
 23 46  1  0
 24 47  1  0
 24 48  1  0
 24 49  1  0
 25 50  1  0
 26 51  1  0
 27 52  1  0
 29 53  1  0
M  END
$$$$
