
     RDKit          3D

 53 56  0  0  0  0  0  0  0  0999 V2000
   -0.7807   -3.2650   -0.8893 C   0  0  0  0  0  0  0  0  0  0  0  0
   -0.4828   -2.6170   -2.2336 C   0  0  0  0  0  0  0  0  0  0  0  0
    0.1545   -1.2987   -2.0710 N   0  0  0  0  0  0  0  0  0  0  0  0
    1.5373   -1.0849   -2.1496 C   0  0  0  0  0  0  0  0  0  0  0  0
    2.0128    0.0505   -2.2669 O   0  0  0  0  0  0  0  0  0  0  0  0
    2.4468   -2.3122   -2.1033 C   0  0  0  0  0  0  0  0  0  0  0  0
    3.9834   -1.9798   -1.1789 S   0  0  0  0  0  0  0  0  0  0  0  0
    3.3266   -1.5504    0.3647 C   0  0  0  0  0  0  0  0  0  0  0  0
    2.0693   -1.6758    0.7250 N   0  0  0  0  0  0  0  0  0  0  0  0
    1.9457   -1.1927    2.0065 N   0  0  0  0  0  0  0  0  0  0  0  0
    3.1346   -0.7811    2.3958 C   0  0  0  0  0  0  0  0  0  0  0  0
    3.6007   -0.1964    3.6044 C   0  0  0  0  0  0  0  0  0  0  0  0
    4.9024    0.1197    3.7318 C   0  0  0  0  0  0  0  0  0  0  0  0
    5.8492   -0.1094    2.6507 C   0  0  0  0  0  0  0  0  0  0  0  0
    5.4136   -0.6578    1.5044 C   0  0  0  0  0  0  0  0  0  0  0  0
    4.0644   -0.9926    1.3824 N   0  0  0  0  0  0  0  0  0  0  0  0
   -0.6840   -0.1741   -2.1056 C   0  0  0  0  0  0  0  0  0  0  0  0
   -0.7562    0.7265   -1.0928 C   0  0  0  0  0  0  0  0  0  0  0  0
   -0.0658    0.5198    0.1003 N   0  0  0  0  0  0  0  0  0  0  0  0
   -1.5585    1.8609   -1.2308 N   0  0  0  0  0  0  0  0  0  0  0  0
   -1.7593    2.7745   -0.1005 C   0  0  0  0  0  0  0  0  0  0  0  0
   -2.9044    2.3594    0.8006 C   0  0  0  0  0  0  0  0  0  0  0  0
   -4.2230    2.7288    0.4983 C   0  0  0  0  0  0  0  0  0  0  0  0
   -5.2794    2.3390    1.3232 C   0  0  0  0  0  0  0  0  0  0  0  0
   -5.0312    1.5751    2.4585 C   0  0  0  0  0  0  0  0  0  0  0  0
   -3.7270    1.1966    2.7687 C   0  0  0  0  0  0  0  0  0  0  0  0
   -2.6704    1.5844    1.9435 C   0  0  0  0  0  0  0  0  0  0  0  0
   -2.2704    2.1439   -2.3868 C   0  0  0  0  0  0  0  0  0  0  0  0
   -2.9676    3.1458   -2.5573 O   0  0  0  0  0  0  0  0  0  0  0  0
   -2.1796    1.2312   -3.3920 N   0  0  0  0  0  0  0  0  0  0  0  0
   -1.4473    0.0885   -3.3630 C   0  0  0  0  0  0  0  0  0  0  0  0
   -1.4100   -0.6641   -4.3355 O   0  0  0  0  0  0  0  0  0  0  0  0
   -1.2558   -4.2369   -1.0415 H   0  0  0  0  0  0  0  0  0  0  0  0
    0.1259   -3.4179   -0.2983 H   0  0  0  0  0  0  0  0  0  0  0  0
   -1.4607   -2.6461   -0.2945 H   0  0  0  0  0  0  0  0  0  0  0  0
    0.1566   -3.2670   -2.8351 H   0  0  0  0  0  0  0  0  0  0  0  0
   -1.4256   -2.5233   -2.7817 H   0  0  0  0  0  0  0  0  0  0  0  0
    1.9711   -3.1726   -1.6353 H   0  0  0  0  0  0  0  0  0  0  0  0
    2.7042   -2.5781   -3.1322 H   0  0  0  0  0  0  0  0  0  0  0  0
    2.8925   -0.0221    4.4063 H   0  0  0  0  0  0  0  0  0  0  0  0
    5.2786    0.5651    4.6486 H   0  0  0  0  0  0  0  0  0  0  0  0
    6.8886    0.1779    2.7893 H   0  0  0  0  0  0  0  0  0  0  0  0
    6.0635   -0.8512    0.6601 H   0  0  0  0  0  0  0  0  0  0  0  0
    0.4511   -0.3657    0.1166 H   0  0  0  0  0  0  0  0  0  0  0  0
    0.6247    1.2555    0.2315 H   0  0  0  0  0  0  0  0  0  0  0  0
   -0.8332    2.8815    0.4771 H   0  0  0  0  0  0  0  0  0  0  0  0
   -1.9631    3.7871   -0.4773 H   0  0  0  0  0  0  0  0  0  0  0  0
   -4.4359    3.3236   -0.3875 H   0  0  0  0  0  0  0  0  0  0  0  0
   -6.2961    2.6313    1.0748 H   0  0  0  0  0  0  0  0  0  0  0  0
   -5.8526    1.2710    3.0987 H   0  0  0  0  0  0  0  0  0  0  0  0
   -3.5284    0.5932    3.6501 H   0  0  0  0  0  0  0  0  0  0  0  0
   -1.6596    1.2682    2.1947 H   0  0  0  0  0  0  0  0  0  0  0  0
   -2.6895    1.4341   -4.2344 H   0  0  0  0  0  0  0  0  0  0  0  0
  1  2  1  0
  2  3  1  0
  3  4  1  0
  4  5  2  0
  4  6  1  0
  6  7  1  0
  7  8  1  0
  8  9  2  0
  9 10  1  0
 10 11  2  0
 11 12  1  0
 12 13  2  0
 13 14  1  0
 14 15  2  0
 15 16  1  0
  3 17  1  0
 17 18  2  0
 18 19  1  0
 18 20  1  0
 20 21  1  0
 21 22  1  0
 22 23  2  0
 23 24  1  0
 24 25  2  0
 25 26  1  0
 26 27  2  0
 20 28  1  0
 28 29  2  0
 28 30  1  0
 30 31  1  0
 31 32  2  0
 16  8  1  0
 31 17  1  0
 16 11  1  0
 27 22  1  0
  1 33  1  0
  1 34  1  0
  1 35  1  0
  2 36  1  0
  2 37  1  0
  6 38  1  0
  6 39  1  0
 12 40  1  0
 13 41  1  0
 14 42  1  0
 15 43  1  0
 19 44  1  0
 19 45  1  0
 21 46  1  0
 21 47  1  0
 23 48  1  0
 24 49  1  0
 25 50  1  0
 26 51  1  0
 27 52  1  0
 30 53  1  0
M  END
$$$$
