
     RDKit          3D

 53 56  0  0  0  0  0  0  0  0999 V2000
   -0.6570   -2.6413    1.8689 C   0  0  0  0  0  0  0  0  0  0  0  0
   -1.0691   -1.7754    0.7132 C   0  0  0  0  0  0  0  0  0  0  0  0
   -0.1527   -1.3784   -0.2649 C   0  0  0  0  0  0  0  0  0  0  0  0
    1.1530   -1.7914   -0.2200 O   0  0  0  0  0  0  0  0  0  0  0  0
    1.9615   -0.8831    0.5355 C   0  0  0  0  0  0  0  0  0  0  0  0
    3.0995   -1.7022    1.1418 C   0  0  0  0  0  0  0  0  0  0  0  0
    2.5695    0.2576   -0.3088 C   0  0  0  0  0  0  0  0  0  0  0  0
    2.6183    0.2476   -1.5366 O   0  0  0  0  0  0  0  0  0  0  0  0
    3.0589    1.3093    0.4429 N   0  0  0  0  0  0  0  0  0  0  0  0
    3.8500    2.3541   -0.1752 C   0  0  0  0  0  0  0  0  0  0  0  0
    5.3182    1.9999   -0.1410 C   0  0  0  0  0  0  0  0  0  0  0  0
    5.9604    1.5327   -1.2852 C   0  0  0  0  0  0  0  0  0  0  0  0
    7.3044    1.1826   -1.2040 C   0  0  0  0  0  0  0  0  0  0  0  0
    7.9655    1.2969    0.0127 C   0  0  0  0  0  0  0  0  0  0  0  0
    7.2500    1.7535    1.1067 C   0  0  0  0  0  0  0  0  0  0  0  0
    5.9451    2.0999    1.0616 N   0  0  0  0  0  0  0  0  0  0  0  0
   -0.5620   -0.6143   -1.3563 C   0  0  0  0  0  0  0  0  0  0  0  0
   -1.8838   -0.1698   -1.4487 C   0  0  0  0  0  0  0  0  0  0  0  0
   -2.8177   -0.4868   -0.4548 C   0  0  0  0  0  0  0  0  0  0  0  0
   -4.2180   -0.0298   -0.4841 C   0  0  0  0  0  0  0  0  0  0  0  0
   -5.0624   -0.4294    0.4869 C   0  0  0  0  0  0  0  0  0  0  0  0
   -4.6154   -1.2773    1.6193 C   0  0  0  0  0  0  0  0  0  0  0  0
   -5.3810   -1.6168    2.5158 O   0  0  0  0  0  0  0  0  0  0  0  0
   -3.2858   -1.6585    1.6284 O   0  0  0  0  0  0  0  0  0  0  0  0
   -2.3861   -1.2920    0.6047 C   0  0  0  0  0  0  0  0  0  0  0  0
   -6.5246   -0.0598    0.5130 C   0  0  0  0  0  0  0  0  0  0  0  0
   -7.0311    0.5184   -0.8073 C   0  0  0  0  0  0  0  0  0  0  0  0
   -6.0401    1.5260   -1.3674 C   0  0  0  0  0  0  0  0  0  0  0  0
   -4.6733    0.8791   -1.6045 C   0  0  0  0  0  0  0  0  0  0  0  0
    0.1867   -3.2869    1.6052 H   0  0  0  0  0  0  0  0  0  0  0  0
   -1.4683   -3.3089    2.1769 H   0  0  0  0  0  0  0  0  0  0  0  0
   -0.3688   -2.0140    2.7188 H   0  0  0  0  0  0  0  0  0  0  0  0
    1.3875   -0.4336    1.3582 H   0  0  0  0  0  0  0  0  0  0  0  0
    3.7635   -1.0885    1.7570 H   0  0  0  0  0  0  0  0  0  0  0  0
    2.7030   -2.5131    1.7611 H   0  0  0  0  0  0  0  0  0  0  0  0
    3.7025   -2.1689    0.3548 H   0  0  0  0  0  0  0  0  0  0  0  0
    3.2515    1.1535    1.4248 H   0  0  0  0  0  0  0  0  0  0  0  0
    3.5085    2.5420   -1.1991 H   0  0  0  0  0  0  0  0  0  0  0  0
    3.6878    3.2689    0.4040 H   0  0  0  0  0  0  0  0  0  0  0  0
    5.4211    1.4280   -2.2225 H   0  0  0  0  0  0  0  0  0  0  0  0
    7.8282    0.8150   -2.0820 H   0  0  0  0  0  0  0  0  0  0  0  0
    9.0118    1.0317    0.1093 H   0  0  0  0  0  0  0  0  0  0  0  0
    7.7222    1.8536    2.0798 H   0  0  0  0  0  0  0  0  0  0  0  0
    0.1490   -0.3613   -2.1401 H   0  0  0  0  0  0  0  0  0  0  0  0
   -2.1548    0.4247   -2.3169 H   0  0  0  0  0  0  0  0  0  0  0  0
   -7.1370   -0.9369    0.7538 H   0  0  0  0  0  0  0  0  0  0  0  0
   -6.6823    0.6735    1.3136 H   0  0  0  0  0  0  0  0  0  0  0  0
   -8.0058    0.9938   -0.6512 H   0  0  0  0  0  0  0  0  0  0  0  0
   -7.1824   -0.2895   -1.5332 H   0  0  0  0  0  0  0  0  0  0  0  0
   -5.9340    2.3634   -0.6662 H   0  0  0  0  0  0  0  0  0  0  0  0
   -6.4175    1.9442   -2.3074 H   0  0  0  0  0  0  0  0  0  0  0  0
   -3.9546    1.6934   -1.7569 H   0  0  0  0  0  0  0  0  0  0  0  0
   -4.7120    0.2971   -2.5340 H   0  0  0  0  0  0  0  0  0  0  0  0
  1  2  1  0
  2  3  2  0
  3  4  1  0
  4  5  1  0
  5  6  1  0
  5  7  1  0
  7  8  2  0
  7  9  1  0
  9 10  1  0
 10 11  1  0
 11 12  2  0
 12 13  1  0
 13 14  2  0
 14 15  1  0
 15 16  2  0
  3 17  1  0
 17 18  2  0
 18 19  1  0
 19 20  1  0
 20 21  2  0
 21 22  1  0
 22 23  2  0
 22 24  1  0
 24 25  1  0
 21 26  1  0
 26 27  1  0
 27 28  1  0
 28 29  1  0
 25  2  1  0
 16 11  1  0
 25 19  2  0
 29 20  1  0
  1 30  1  0
  1 31  1  0
  1 32  1  0
  5 33  1  0
  6 34  1  0
  6 35  1  0
  6 36  1  0
  9 37  1  0
 10 38  1  0
 10 39  1  0
 12 40  1  0
 13 41  1  0
 14 42  1  0
 15 43  1  0
 17 44  1  0
 18 45  1  0
 26 46  1  0
 26 47  1  0
 27 48  1  0
 27 49  1  0
 28 50  1  0
 28 51  1  0
 29 52  1  0
 29 53  1  0
M  END
$$$$
