
     RDKit          3D

 45 48  0  0  0  0  0  0  0  0999 V2000
    5.6364    1.9100    1.8501 C   0  0  0  0  0  0  0  0  0  0  0  0
    5.2356    0.5635    2.0697 O   0  0  0  0  0  0  0  0  0  0  0  0
    4.3028    0.0495    1.2117 C   0  0  0  0  0  0  0  0  0  0  0  0
    3.7039    0.7248    0.1491 C   0  0  0  0  0  0  0  0  0  0  0  0
    2.7584    0.0763   -0.6536 C   0  0  0  0  0  0  0  0  0  0  0  0
    2.4012   -1.2567   -0.4081 C   0  0  0  0  0  0  0  0  0  0  0  0
    1.3552   -1.9444   -1.2603 C   0  0  0  0  0  0  0  0  0  0  0  0
    0.0169   -1.7592   -0.7185 N   0  0  0  0  0  0  0  0  0  0  0  0
   -0.4549   -2.7386    0.1552 C   0  0  0  0  0  0  0  0  0  0  0  0
    0.1551   -3.7548    0.4717 O   0  0  0  0  0  0  0  0  0  0  0  0
   -1.7495   -2.4534    0.6535 C   0  0  0  0  0  0  0  0  0  0  0  0
   -2.5181   -3.1558    1.5351 N   0  0  0  0  0  0  0  0  0  0  0  0
   -3.6674   -2.4356    1.7148 C   0  0  0  0  0  0  0  0  0  0  0  0
   -3.6641   -1.3323    0.9959 N   0  0  0  0  0  0  0  0  0  0  0  0
   -2.4706   -1.3450    0.3245 C   0  0  0  0  0  0  0  0  0  0  0  0
   -1.9595   -0.3999   -0.5469 N   0  0  0  0  0  0  0  0  0  0  0  0
   -2.7597    0.7445   -0.8478 C   0  0  0  0  0  0  0  0  0  0  0  0
   -4.1042    0.5631   -1.2276 C   0  0  0  0  0  0  0  0  0  0  0  0
   -4.9099    1.6429   -1.5934 C   0  0  0  0  0  0  0  0  0  0  0  0
   -4.3868    2.9288   -1.5865 C   0  0  0  0  0  0  0  0  0  0  0  0
   -3.0660    3.1356   -1.1935 C   0  0  0  0  0  0  0  0  0  0  0  0
   -2.2449    2.0603   -0.8002 C   0  0  0  0  0  0  0  0  0  0  0  0
   -0.8613    2.3985   -0.3113 C   0  0  0  0  0  0  0  0  0  0  0  0
   -0.7059   -0.6205   -1.1459 C   0  0  0  0  0  0  0  0  0  0  0  0
   -0.2502    0.1064   -2.0355 O   0  0  0  0  0  0  0  0  0  0  0  0
    3.0020   -1.9267    0.6644 C   0  0  0  0  0  0  0  0  0  0  0  0
    3.9458   -1.2767    1.4633 C   0  0  0  0  0  0  0  0  0  0  0  0
    6.1083    2.0267    0.8689 H   0  0  0  0  0  0  0  0  0  0  0  0
    6.3816    2.1649    2.6098 H   0  0  0  0  0  0  0  0  0  0  0  0
    4.7923    2.5974    1.9681 H   0  0  0  0  0  0  0  0  0  0  0  0
    3.9455    1.7564   -0.0837 H   0  0  0  0  0  0  0  0  0  0  0  0
    2.2981    0.6250   -1.4746 H   0  0  0  0  0  0  0  0  0  0  0  0
    1.4099   -1.5631   -2.2872 H   0  0  0  0  0  0  0  0  0  0  0  0
    1.5913   -3.0135   -1.3318 H   0  0  0  0  0  0  0  0  0  0  0  0
   -2.2705   -4.0304    1.9808 H   0  0  0  0  0  0  0  0  0  0  0  0
   -4.4599   -2.7592    2.3772 H   0  0  0  0  0  0  0  0  0  0  0  0
   -4.5345   -0.4351   -1.2679 H   0  0  0  0  0  0  0  0  0  0  0  0
   -5.9411    1.4730   -1.8903 H   0  0  0  0  0  0  0  0  0  0  0  0
   -5.0072    3.7723   -1.8769 H   0  0  0  0  0  0  0  0  0  0  0  0
   -2.6770    4.1520   -1.1765 H   0  0  0  0  0  0  0  0  0  0  0  0
   -0.4811    1.6501    0.3903 H   0  0  0  0  0  0  0  0  0  0  0  0
   -0.1706    2.4986   -1.1534 H   0  0  0  0  0  0  0  0  0  0  0  0
   -0.8718    3.3482    0.2361 H   0  0  0  0  0  0  0  0  0  0  0  0
    2.7398   -2.9590    0.8893 H   0  0  0  0  0  0  0  0  0  0  0  0
    4.4062   -1.8092    2.2921 H   0  0  0  0  0  0  0  0  0  0  0  0
  1  2  1  0
  2  3  1  0
  3  4  2  0
  4  5  1  0
  5  6  2  0
  6  7  1  0
  7  8  1  0
  8  9  1  0
  9 10  2  0
  9 11  1  0
 11 12  1  0
 12 13  1  0
 13 14  2  0
 14 15  1  0
 15 16  1  0
 16 17  1  0
 17 18  2  0
 18 19  1  0
 19 20  2  0
 20 21  1  0
 21 22  2  0
 22 23  1  0
 16 24  1  0
 24 25  2  0
  6 26  1  0
 26 27  2  0
 27  3  1  0
 24  8  1  0
 15 11  2  0
 22 17  1  0
  1 28  1  0
  1 29  1  0
  1 30  1  0
  4 31  1  0
  5 32  1  0
  7 33  1  0
  7 34  1  0
 12 35  1  0
 13 36  1  0
 18 37  1  0
 19 38  1  0
 20 39  1  0
 21 40  1  0
 23 41  1  0
 23 42  1  0
 23 43  1  0
 26 44  1  0
 27 45  1  0
M  END
$$$$
