
     RDKit          3D

 43 44  0  0  0  0  0  0  0  0999 V2000
   -2.4466    3.5209    1.4745 C   0  0  0  0  0  0  0  0  0  0  0  0
   -1.4288    2.7218    0.6846 C   0  0  0  0  0  0  0  0  0  0  0  0
   -1.9177    1.3814    0.5575 O   0  0  0  0  0  0  0  0  0  0  0  0
   -1.0930    0.5377   -0.1234 C   0  0  0  0  0  0  0  0  0  0  0  0
   -0.0195    0.8849   -0.6123 O   0  0  0  0  0  0  0  0  0  0  0  0
   -1.5962   -0.8405   -0.2131 C   0  0  0  0  0  0  0  0  0  0  0  0
   -0.8279   -1.8464   -0.7875 C   0  0  0  0  0  0  0  0  0  0  0  0
    0.4373   -1.6905   -1.3300 N   0  0  0  0  0  0  0  0  0  0  0  0
    1.2759   -2.6581   -1.8543 C   0  0  0  0  0  0  0  0  0  0  0  0
    1.0400   -3.8525   -2.0057 O   0  0  0  0  0  0  0  0  0  0  0  0
    2.6098   -2.0641   -2.3286 C   0  0  0  0  0  0  0  0  0  0  0  0
    2.8822   -0.7530   -1.8185 O   0  0  0  0  0  0  0  0  0  0  0  0
    3.4529   -0.7249   -0.5879 C   0  0  0  0  0  0  0  0  0  0  0  0
    3.7518   -1.6990    0.0815 O   0  0  0  0  0  0  0  0  0  0  0  0
    3.6521    0.6741   -0.1311 C   0  0  0  0  0  0  0  0  0  0  0  0
    4.2813    0.8800    1.0980 C   0  0  0  0  0  0  0  0  0  0  0  0
    4.4521    2.1810    1.5326 C   0  0  0  0  0  0  0  0  0  0  0  0
    4.0418    3.2618    0.8355 N   0  0  0  0  0  0  0  0  0  0  0  0
    3.4358    3.0353   -0.3494 C   0  0  0  0  0  0  0  0  0  0  0  0
    3.2197    1.7739   -0.8736 C   0  0  0  0  0  0  0  0  0  0  0  0
   -1.5955   -3.3499   -0.7667 S   0  0  0  0  0  0  0  0  0  0  0  0
   -2.9825   -2.7266    0.0003 C   0  0  0  0  0  0  0  0  0  0  0  0
   -4.1169   -3.6481    0.3158 C   0  0  0  0  0  0  0  0  0  0  0  0
   -2.8770   -1.3648    0.2488 C   0  0  0  0  0  0  0  0  0  0  0  0
   -3.9511   -0.5534    0.9090 C   0  0  0  0  0  0  0  0  0  0  0  0
   -2.1182    4.5566    1.5991 H   0  0  0  0  0  0  0  0  0  0  0  0
   -2.6014    3.0771    2.4635 H   0  0  0  0  0  0  0  0  0  0  0  0
   -3.4175    3.5158    0.9682 H   0  0  0  0  0  0  0  0  0  0  0  0
   -0.4694    2.7177    1.2140 H   0  0  0  0  0  0  0  0  0  0  0  0
   -1.3011    3.1644   -0.3095 H   0  0  0  0  0  0  0  0  0  0  0  0
    0.8034   -0.7391   -1.3061 H   0  0  0  0  0  0  0  0  0  0  0  0
    3.4235   -2.7579   -2.0879 H   0  0  0  0  0  0  0  0  0  0  0  0
    2.5582   -1.9790   -3.4192 H   0  0  0  0  0  0  0  0  0  0  0  0
    4.6279    0.0491    1.7044 H   0  0  0  0  0  0  0  0  0  0  0  0
    4.9360    2.3965    2.4813 H   0  0  0  0  0  0  0  0  0  0  0  0
    3.1157    3.9259   -0.8832 H   0  0  0  0  0  0  0  0  0  0  0  0
    2.7154    1.6677   -1.8271 H   0  0  0  0  0  0  0  0  0  0  0  0
   -5.0201   -3.3298   -0.2154 H   0  0  0  0  0  0  0  0  0  0  0  0
   -4.3256   -3.6362    1.3907 H   0  0  0  0  0  0  0  0  0  0  0  0
   -3.9093   -4.6843    0.0293 H   0  0  0  0  0  0  0  0  0  0  0  0
   -4.8454   -1.1480    1.1189 H   0  0  0  0  0  0  0  0  0  0  0  0
   -3.5941   -0.1520    1.8628 H   0  0  0  0  0  0  0  0  0  0  0  0
   -4.2580    0.2745    0.2619 H   0  0  0  0  0  0  0  0  0  0  0  0
  1  2  1  0
  2  3  1  0
  3  4  1  0
  4  5  2  0
  4  6  1  0
  6  7  2  0
  7  8  1  0
  8  9  1  0
  9 10  2  0
  9 11  1  0
 11 12  1  0
 12 13  1  0
 13 14  2  0
 13 15  1  0
 15 16  2  0
 16 17  1  0
 17 18  2  0
 18 19  1  0
 19 20  2  0
  7 21  1  0
 21 22  1  0
 22 23  1  0
 22 24  2  0
 24 25  1  0
 24  6  1  0
 20 15  1  0
  1 26  1  0
  1 27  1  0
  1 28  1  0
  2 29  1  0
  2 30  1  0
  8 31  1  0
 11 32  1  0
 11 33  1  0
 16 34  1  0
 17 35  1  0
 19 36  1  0
 20 37  1  0
 23 38  1  0
 23 39  1  0
 23 40  1  0
 25 41  1  0
 25 42  1  0
 25 43  1  0
M  END
$$$$
