
     RDKit          3D

 35 37  0  0  0  0  0  0  0  0999 V2000
   -4.5630    2.0365    1.8739 O   0  0  0  0  0  0  0  0  0  0  0  0
   -3.8049    1.3893    0.9438 C   0  0  0  0  0  0  0  0  0  0  0  0
   -2.6341    1.9502    0.4453 C   0  0  0  0  0  0  0  0  0  0  0  0
   -1.8892    1.2501   -0.5059 C   0  0  0  0  0  0  0  0  0  0  0  0
   -2.3130   -0.0086   -0.9589 C   0  0  0  0  0  0  0  0  0  0  0  0
   -1.4864   -0.7732   -1.9691 C   0  0  0  0  0  0  0  0  0  0  0  0
   -0.6994   -1.9444   -1.3584 C   0  0  0  0  0  0  0  0  0  0  0  0
    0.2132   -1.5383   -0.2838 N   0  0  0  0  0  0  0  0  0  0  0  0
    1.4019   -0.8864   -0.6633 C   0  0  0  0  0  0  0  0  0  0  0  0
    1.6793   -0.7549   -1.9714 N   0  0  0  0  0  0  0  0  0  0  0  0
    2.8211   -0.1366   -2.2886 C   0  0  0  0  0  0  0  0  0  0  0  0
    3.7151    0.3654   -1.4310 N   0  0  0  0  0  0  0  0  0  0  0  0
    3.4477    0.2085   -0.1335 C   0  0  0  0  0  0  0  0  0  0  0  0
    4.3607    0.6969    0.7940 C   0  0  0  0  0  0  0  0  0  0  0  0
    4.1592    0.5625    2.1708 C   0  0  0  0  0  0  0  0  0  0  0  0
    3.0202   -0.0801    2.6335 C   0  0  0  0  0  0  0  0  0  0  0  0
    2.7617   -0.2603    4.3230 Cl  0  0  0  0  0  0  0  0  0  0  0  0
    2.0878   -0.5777    1.7291 C   0  0  0  0  0  0  0  0  0  0  0  0
    2.2880   -0.4303    0.3323 C   0  0  0  0  0  0  0  0  0  0  0  0
   -3.4965   -0.5554   -0.4441 C   0  0  0  0  0  0  0  0  0  0  0  0
   -4.2404    0.1444    0.5067 C   0  0  0  0  0  0  0  0  0  0  0  0
   -4.1506    2.8942    2.0671 H   0  0  0  0  0  0  0  0  0  0  0  0
   -2.2875    2.9225    0.7805 H   0  0  0  0  0  0  0  0  0  0  0  0
   -0.9720    1.6907   -0.8927 H   0  0  0  0  0  0  0  0  0  0  0  0
   -0.8121   -0.0815   -2.4872 H   0  0  0  0  0  0  0  0  0  0  0  0
   -2.1593   -1.1615   -2.7444 H   0  0  0  0  0  0  0  0  0  0  0  0
   -0.1647   -2.4951   -2.1423 H   0  0  0  0  0  0  0  0  0  0  0  0
   -1.4068   -2.6612   -0.9236 H   0  0  0  0  0  0  0  0  0  0  0  0
   -0.2767   -0.9827    0.4143 H   0  0  0  0  0  0  0  0  0  0  0  0
    3.0422   -0.0294   -3.3450 H   0  0  0  0  0  0  0  0  0  0  0  0
    5.2596    1.1942    0.4347 H   0  0  0  0  0  0  0  0  0  0  0  0
    4.8971    0.9553    2.8651 H   0  0  0  0  0  0  0  0  0  0  0  0
    1.2079   -1.0949    2.1038 H   0  0  0  0  0  0  0  0  0  0  0  0
   -3.8482   -1.5285   -0.7791 H   0  0  0  0  0  0  0  0  0  0  0  0
   -5.1580   -0.2798    0.9046 H   0  0  0  0  0  0  0  0  0  0  0  0
  1  2  1  0
  2  3  2  0
  3  4  1  0
  4  5  2  0
  5  6  1  0
  6  7  1  0
  7  8  1  0
  8  9  1  0
  9 10  2  0
 10 11  1  0
 11 12  2  0
 12 13  1  0
 13 14  2  0
 14 15  1  0
 15 16  2  0
 16 17  1  0
 16 18  1  0
 18 19  2  0
  5 20  1  0
 20 21  2  0
 21  2  1  0
 19  9  1  0
 19 13  1  0
  1 22  1  0
  3 23  1  0
  4 24  1  0
  6 25  1  0
  6 26  1  0
  7 27  1  0
  7 28  1  0
  8 29  1  0
 11 30  1  0
 14 31  1  0
 15 32  1  0
 18 33  1  0
 20 34  1  0
 21 35  1  0
M  END
$$$$
