
     RDKit          3D

 48 50  0  0  0  0  0  0  0  0999 V2000
    4.9006   -3.5606   -0.7897 C   0  0  0  0  0  0  0  0  0  0  0  0
    4.5738   -2.3471   -1.6467 C   0  0  0  0  0  0  0  0  0  0  0  0
    3.3038   -1.6197   -1.2182 C   0  0  0  0  0  0  0  0  0  0  0  0
    3.4799   -0.7480    0.3283 S   0  0  0  0  0  6  0  0  0  0  0  0
    4.5139    0.2605    0.1910 O   0  0  0  0  0  0  0  0  0  0  0  0
    3.4662   -1.6990    1.4239 O   0  0  0  0  0  0  0  0  0  0  0  0
    1.9534    0.1446    0.4578 C   0  0  0  0  0  0  0  0  0  0  0  0
    0.9790    0.1310   -0.4244 N   0  0  0  0  0  0  0  0  0  0  0  0
   -0.0550    0.9529    0.0408 C   0  0  0  0  0  0  0  0  0  0  0  0
   -1.4720    1.2001   -0.9520 S   0  0  0  0  0  6  0  0  0  0  0  0
   -2.5472    1.5500   -0.0420 O   0  0  0  0  0  0  0  0  0  0  0  0
   -1.0271    2.1049   -1.9942 O   0  0  0  0  0  0  0  0  0  0  0  0
   -1.8213   -0.3810   -1.6665 C   0  0  0  0  0  0  0  0  0  0  0  0
   -1.3552   -0.6773   -2.9498 C   0  0  0  0  0  0  0  0  0  0  0  0
   -1.6560   -1.9139   -3.5220 C   0  0  0  0  0  0  0  0  0  0  0  0
   -2.4378   -2.8462   -2.8268 C   0  0  0  0  0  0  0  0  0  0  0  0
   -2.7490   -4.1828   -3.4359 C   0  0  0  0  0  0  0  0  0  0  0  0
   -2.8947   -2.5367   -1.5380 C   0  0  0  0  0  0  0  0  0  0  0  0
   -2.5975   -1.3024   -0.9585 C   0  0  0  0  0  0  0  0  0  0  0  0
    0.1487    1.5571    1.2803 C   0  0  0  0  0  0  0  0  0  0  0  0
   -0.7022    2.3509    1.9925 N   0  0  0  0  0  0  0  0  0  0  0  0
   -0.2384    3.3194    2.9835 C   0  0  0  0  0  0  0  0  0  0  0  0
   -1.3470    4.0907    3.6159 C   0  0  0  0  0  0  0  0  0  0  0  0
   -2.4398    3.7234    4.3747 C   0  0  0  0  0  0  0  0  0  0  0  0
   -3.1383    4.9171    4.6734 C   0  0  0  0  0  0  0  0  0  0  0  0
   -2.4297    5.9342    4.0783 C   0  0  0  0  0  0  0  0  0  0  0  0
   -1.3403    5.4426    3.4346 O   0  0  0  0  0  0  0  0  0  0  0  0
    1.7158    1.0930    1.8483 S   0  0  0  0  0  0  0  0  0  0  0  0
    5.2220   -3.2674    0.2137 H   0  0  0  0  0  0  0  0  0  0  0  0
    4.0363   -4.2251   -0.6933 H   0  0  0  0  0  0  0  0  0  0  0  0
    5.7192   -4.1299   -1.2420 H   0  0  0  0  0  0  0  0  0  0  0  0
    5.4284   -1.6605   -1.6440 H   0  0  0  0  0  0  0  0  0  0  0  0
    4.4411   -2.6857   -2.6820 H   0  0  0  0  0  0  0  0  0  0  0  0
    2.4632   -2.3144   -1.1241 H   0  0  0  0  0  0  0  0  0  0  0  0
    3.0559   -0.8681   -1.9762 H   0  0  0  0  0  0  0  0  0  0  0  0
   -0.7616    0.0433   -3.5089 H   0  0  0  0  0  0  0  0  0  0  0  0
   -1.2865   -2.1415   -4.5197 H   0  0  0  0  0  0  0  0  0  0  0  0
   -2.0261   -4.9290   -3.0929 H   0  0  0  0  0  0  0  0  0  0  0  0
   -2.7133   -4.1346   -4.5291 H   0  0  0  0  0  0  0  0  0  0  0  0
   -3.7571   -4.5089   -3.1584 H   0  0  0  0  0  0  0  0  0  0  0  0
   -3.4947   -3.2561   -0.9827 H   0  0  0  0  0  0  0  0  0  0  0  0
   -2.9774   -1.0707    0.0342 H   0  0  0  0  0  0  0  0  0  0  0  0
   -1.5917    2.6218    1.5607 H   0  0  0  0  0  0  0  0  0  0  0  0
    0.3061    2.8062    3.7856 H   0  0  0  0  0  0  0  0  0  0  0  0
    0.4586    4.0181    2.5048 H   0  0  0  0  0  0  0  0  0  0  0  0
   -2.6985    2.7145    4.6661 H   0  0  0  0  0  0  0  0  0  0  0  0
   -4.0483    5.0247    5.2468 H   0  0  0  0  0  0  0  0  0  0  0  0
   -2.5622    7.0055    4.0203 H   0  0  0  0  0  0  0  0  0  0  0  0
  1  2  1  0
  2  3  1  0
  3  4  1  0
  4  5  2  0
  4  6  2  0
  4  7  1  0
  7  8  2  0
  8  9  1  0
  9 10  1  0
 10 11  2  0
 10 12  2  0
 10 13  1  0
 13 14  2  0
 14 15  1  0
 15 16  2  0
 16 17  1  0
 16 18  1  0
 18 19  2  0
  9 20  2  0
 20 21  1  0
 21 22  1  0
 22 23  1  0
 23 24  2  0
 24 25  1  0
 25 26  2  0
 26 27  1  0
 20 28  1  0
 28  7  1  0
 19 13  1  0
 27 23  1  0
  1 29  1  0
  1 30  1  0
  1 31  1  0
  2 32  1  0
  2 33  1  0
  3 34  1  0
  3 35  1  0
 14 36  1  0
 15 37  1  0
 17 38  1  0
 17 39  1  0
 17 40  1  0
 18 41  1  0
 19 42  1  0
 21 43  1  0
 22 44  1  0
 22 45  1  0
 24 46  1  0
 25 47  1  0
 26 48  1  0
M  END
$$$$
