
     RDKit          3D

 36 37  0  0  0  0  0  0  0  0999 V2000
    5.7344   -1.3502   -1.1651 C   0  0  0  0  0  0  0  0  0  0  0  0
    4.4556   -0.7673   -0.8521 N   0  0  0  0  0  0  0  0  0  0  0  0
    4.3467    0.3018    0.0130 C   0  0  0  0  0  0  0  0  0  0  0  0
    5.3141    0.8979    0.4776 O   0  0  0  0  0  0  0  0  0  0  0  0
    2.9101    0.7249    0.3085 C   0  0  0  0  0  0  0  0  0  0  0  0
    2.0062   -0.3742    0.1418 O   0  0  0  0  0  0  0  0  0  0  0  0
    0.7032   -0.0399    0.3119 C   0  0  0  0  0  0  0  0  0  0  0  0
    0.2899    1.0862    0.5514 O   0  0  0  0  0  0  0  0  0  0  0  0
   -0.1917   -1.2248    0.1388 C   0  0  0  0  0  0  0  0  0  0  0  0
    0.3662   -2.5153    0.0583 C   0  0  0  0  0  0  0  0  0  0  0  0
   -0.4502   -3.6308   -0.1147 C   0  0  0  0  0  0  0  0  0  0  0  0
   -1.8268   -3.4680   -0.2059 C   0  0  0  0  0  0  0  0  0  0  0  0
   -2.3949   -2.1931   -0.1189 C   0  0  0  0  0  0  0  0  0  0  0  0
   -1.5972   -1.0553    0.0576 C   0  0  0  0  0  0  0  0  0  0  0  0
   -2.1504    0.2478    0.1642 N   0  0  0  0  0  0  0  0  0  0  0  0
   -3.4761    0.6468    0.0791 C   0  0  0  0  0  0  0  0  0  0  0  0
   -4.4104   -0.1184   -0.1416 O   0  0  0  0  0  0  0  0  0  0  0  0
   -3.6762    2.0796    0.2691 C   0  0  0  0  0  0  0  0  0  0  0  0
   -2.8264    3.1394    0.5496 C   0  0  0  0  0  0  0  0  0  0  0  0
   -3.6264    4.3078    0.6161 C   0  0  0  0  0  0  0  0  0  0  0  0
   -4.9147    3.9010    0.3747 C   0  0  0  0  0  0  0  0  0  0  0  0
   -4.9574    2.5627    0.1649 O   0  0  0  0  0  0  0  0  0  0  0  0
    5.6291   -1.9549   -2.0686 H   0  0  0  0  0  0  0  0  0  0  0  0
    6.0438   -1.9834   -0.3293 H   0  0  0  0  0  0  0  0  0  0  0  0
    6.4805   -0.5671   -1.3238 H   0  0  0  0  0  0  0  0  0  0  0  0
    3.6139   -1.3054   -1.0221 H   0  0  0  0  0  0  0  0  0  0  0  0
    2.6552    1.5372   -0.3813 H   0  0  0  0  0  0  0  0  0  0  0  0
    2.8673    1.0702    1.3474 H   0  0  0  0  0  0  0  0  0  0  0  0
    1.4389   -2.6723    0.1369 H   0  0  0  0  0  0  0  0  0  0  0  0
   -0.0151   -4.6256   -0.1753 H   0  0  0  0  0  0  0  0  0  0  0  0
   -2.4715   -4.3343   -0.3401 H   0  0  0  0  0  0  0  0  0  0  0  0
   -3.4770   -2.1309   -0.1876 H   0  0  0  0  0  0  0  0  0  0  0  0
   -1.4678    0.9846    0.3323 H   0  0  0  0  0  0  0  0  0  0  0  0
   -1.7558    3.0916    0.6943 H   0  0  0  0  0  0  0  0  0  0  0  0
   -3.3030    5.3197    0.8165 H   0  0  0  0  0  0  0  0  0  0  0  0
   -5.8661    4.4119    0.3206 H   0  0  0  0  0  0  0  0  0  0  0  0
  1  2  1  0
  2  3  1  0
  3  4  2  0
  3  5  1  0
  5  6  1  0
  6  7  1  0
  7  8  2  0
  7  9  1  0
  9 10  2  0
 10 11  1  0
 11 12  2  0
 12 13  1  0
 13 14  2  0
 14 15  1  0
 15 16  1  0
 16 17  2  0
 16 18  1  0
 18 19  2  0
 19 20  1  0
 20 21  2  0
 21 22  1  0
 14  9  1  0
 22 18  1  0
  1 23  1  0
  1 24  1  0
  1 25  1  0
  2 26  1  0
  5 27  1  0
  5 28  1  0
 10 29  1  0
 11 30  1  0
 12 31  1  0
 13 32  1  0
 15 33  1  0
 19 34  1  0
 20 35  1  0
 21 36  1  0
M  END
$$$$
