
     RDKit          3D

 47 50  0  0  0  0  0  0  0  0999 V2000
   -5.2431    1.5678    0.3289 C   0  0  0  0  0  0  0  0  0  0  0  0
   -3.8005    1.7392    0.1883 N   0  0  0  0  0  0  0  0  0  0  0  0
   -3.1344    1.7503    1.5018 C   0  0  0  0  0  0  0  0  0  0  0  0
   -1.5946    1.8445    1.3793 C   0  0  0  0  0  0  0  0  0  0  0  0
   -0.9781    0.8092    0.5230 N   0  0  0  0  0  0  0  0  0  0  0  0
   -0.9699   -0.5002    1.1893 C   0  0  0  0  0  0  0  0  0  0  0  0
   -0.1391   -1.5428    0.4717 C   0  0  0  0  0  0  0  0  0  0  0  0
   -0.7378   -2.6986   -0.0293 C   0  0  0  0  0  0  0  0  0  0  0  0
    0.0354   -3.6725   -0.6696 C   0  0  0  0  0  0  0  0  0  0  0  0
   -0.8070   -5.0689   -1.2597 Cl  0  0  0  0  0  0  0  0  0  0  0  0
    1.4391   -3.5288   -0.8145 C   0  0  0  0  0  0  0  0  0  0  0  0
    2.2763   -4.4843   -1.4345 C   0  0  0  0  0  0  0  0  0  0  0  0
    3.6467   -4.2758   -1.5292 C   0  0  0  0  0  0  0  0  0  0  0  0
    4.1567   -3.1134   -0.9959 C   0  0  0  0  0  0  0  0  0  0  0  0
    3.3991   -2.1749   -0.3934 N   0  0  0  0  0  0  0  0  0  0  0  0
    2.0619   -2.3675   -0.3113 C   0  0  0  0  0  0  0  0  0  0  0  0
    1.2479   -1.4002    0.2939 C   0  0  0  0  0  0  0  0  0  0  0  0
    1.8553   -0.2341    0.7924 O   0  0  0  0  0  0  0  0  0  0  0  0
    2.1155    0.6994   -0.2098 C   0  0  0  0  0  0  0  0  0  0  0  0
    1.8618    0.5520   -1.4039 O   0  0  0  0  0  0  0  0  0  0  0  0
    2.7207    1.9023    0.3459 C   0  0  0  0  0  0  0  0  0  0  0  0
    3.1147    3.0239   -0.3646 C   0  0  0  0  0  0  0  0  0  0  0  0
    3.6693    4.0388    0.4669 C   0  0  0  0  0  0  0  0  0  0  0  0
    3.6819    3.6643    1.7908 C   0  0  0  0  0  0  0  0  0  0  0  0
    3.0272    2.1024    2.0214 S   0  0  0  0  0  0  0  0  0  0  0  0
   -1.6823    0.8004   -0.7777 C   0  0  0  0  0  0  0  0  0  0  0  0
   -3.2230    0.6976   -0.6797 C   0  0  0  0  0  0  0  0  0  0  0  0
   -5.5033    0.6130    0.7998 H   0  0  0  0  0  0  0  0  0  0  0  0
   -5.6693    2.3768    0.9324 H   0  0  0  0  0  0  0  0  0  0  0  0
   -5.7328    1.6136   -0.6501 H   0  0  0  0  0  0  0  0  0  0  0  0
   -3.4833    2.6166    2.0770 H   0  0  0  0  0  0  0  0  0  0  0  0
   -3.3995    0.8538    2.0769 H   0  0  0  0  0  0  0  0  0  0  0  0
   -1.3358    2.8267    0.9611 H   0  0  0  0  0  0  0  0  0  0  0  0
   -1.1438    1.8272    2.3793 H   0  0  0  0  0  0  0  0  0  0  0  0
   -0.5343   -0.3994    2.1930 H   0  0  0  0  0  0  0  0  0  0  0  0
   -1.9864   -0.8794    1.3487 H   0  0  0  0  0  0  0  0  0  0  0  0
   -1.8106   -2.8460    0.0753 H   0  0  0  0  0  0  0  0  0  0  0  0
    1.8658   -5.4014   -1.8505 H   0  0  0  0  0  0  0  0  0  0  0  0
    4.2947   -5.0023   -2.0057 H   0  0  0  0  0  0  0  0  0  0  0  0
    5.2195   -2.8935   -1.0380 H   0  0  0  0  0  0  0  0  0  0  0  0
    3.0040    3.1037   -1.4406 H   0  0  0  0  0  0  0  0  0  0  0  0
    4.0388    4.9928    0.1111 H   0  0  0  0  0  0  0  0  0  0  0  0
    4.0435    4.2325    2.6369 H   0  0  0  0  0  0  0  0  0  0  0  0
   -1.3025    0.0023   -1.4256 H   0  0  0  0  0  0  0  0  0  0  0  0
   -1.4296    1.7336   -1.2994 H   0  0  0  0  0  0  0  0  0  0  0  0
   -3.4993   -0.3018   -0.3200 H   0  0  0  0  0  0  0  0  0  0  0  0
   -3.6355    0.8011   -1.6906 H   0  0  0  0  0  0  0  0  0  0  0  0
  1  2  1  0
  2  3  1  0
  3  4  1  0
  4  5  1  0
  5  6  1  0
  6  7  1  0
  7  8  2  0
  8  9  1  0
  9 10  1  0
  9 11  2  0
 11 12  1  0
 12 13  2  0
 13 14  1  0
 14 15  2  0
 15 16  1  0
 16 17  2  0
 17 18  1  0
 18 19  1  0
 19 20  2  0
 19 21  1  0
 21 22  2  0
 22 23  1  0
 23 24  2  0
 24 25  1  0
  5 26  1  0
 26 27  1  0
 27  2  1  0
 17  7  1  0
 25 21  1  0
 16 11  1  0
  1 28  1  0
  1 29  1  0
  1 30  1  0
  3 31  1  0
  3 32  1  0
  4 33  1  0
  4 34  1  0
  6 35  1  0
  6 36  1  0
  8 37  1  0
 12 38  1  0
 13 39  1  0
 14 40  1  0
 22 41  1  0
 23 42  1  0
 24 43  1  0
 26 44  1  0
 26 45  1  0
 27 46  1  0
 27 47  1  0
M  END
$$$$
