
     RDKit          3D

 40 41  0  0  0  0  0  0  0  0999 V2000
   -2.9764   -0.5453    2.8110 C   0  0  0  0  0  0  0  0  0  0  0  0
   -3.7715    0.2381    1.8294 C   0  0  0  0  0  0  0  0  0  0  0  0
   -5.0619    0.4942    2.0733 N   0  0  0  0  0  0  0  0  0  0  0  0
   -5.4700    1.1979    1.0084 N   0  0  0  0  0  0  0  0  0  0  0  0
   -6.8452    1.6377    0.9477 C   0  0  0  0  0  0  0  0  0  0  0  0
   -4.4798    1.4241    0.0852 C   0  0  0  0  0  0  0  0  0  0  0  0
   -4.7134    2.1965   -1.1619 C   0  0  0  0  0  0  0  0  0  0  0  0
   -3.3488    0.7948    0.5892 C   0  0  0  0  0  0  0  0  0  0  0  0
   -2.0499    0.7444   -0.0433 C   0  0  0  0  0  0  0  0  0  0  0  0
   -1.0764    0.1293    0.5441 N   0  0  0  0  0  0  0  0  0  0  0  0
    0.1176    0.1231   -0.1145 N   0  0  0  0  0  0  0  0  0  0  0  0
    1.2150   -0.4975    0.4669 C   0  0  0  0  0  0  0  0  0  0  0  0
    1.2184   -1.0714    1.5514 O   0  0  0  0  0  0  0  0  0  0  0  0
    2.4406   -0.4154   -0.4100 C   0  0  0  0  0  0  0  0  0  0  0  0
    3.6592   -0.9626    0.3194 C   0  0  0  0  0  0  0  0  0  0  0  0
    4.8390   -0.9790   -0.5274 N   0  0  0  0  0  0  0  0  0  0  0  0
    5.5923   -2.0679   -0.8608 C   0  0  0  0  0  0  0  0  0  0  0  0
    6.6051   -1.5891   -1.6669 C   0  0  0  0  0  0  0  0  0  0  0  0
    7.6589   -2.3404   -2.2709 N   0  0  0  0  0  4  0  0  0  0  0  0
    8.4671   -1.7089   -2.9627 O   0  0  0  0  0  0  0  0  0  0  0  0
    7.6770   -3.5594   -2.0594 O   0  0  0  0  0  1  0  0  0  0  0  0
    6.3718   -0.2067   -1.7626 C   0  0  0  0  0  0  0  0  0  0  0  0
    5.2884    0.1705   -1.0739 N   0  0  0  0  0  0  0  0  0  0  0  0
   -2.1329    0.0459    3.1813 H   0  0  0  0  0  0  0  0  0  0  0  0
   -2.5910   -1.4602    2.3503 H   0  0  0  0  0  0  0  0  0  0  0  0
   -3.5830   -0.8374    3.6749 H   0  0  0  0  0  0  0  0  0  0  0  0
   -7.2395    1.4253   -0.0489 H   0  0  0  0  0  0  0  0  0  0  0  0
   -6.8684    2.7105    1.1532 H   0  0  0  0  0  0  0  0  0  0  0  0
   -7.4339    1.0987    1.6948 H   0  0  0  0  0  0  0  0  0  0  0  0
   -5.2617    3.1212   -0.9544 H   0  0  0  0  0  0  0  0  0  0  0  0
   -5.2930    1.6012   -1.8746 H   0  0  0  0  0  0  0  0  0  0  0  0
   -3.7729    2.4784   -1.6436 H   0  0  0  0  0  0  0  0  0  0  0  0
   -1.9296    1.2380   -1.0221 H   0  0  0  0  0  0  0  0  0  0  0  0
    0.2023    0.5960   -1.0078 H   0  0  0  0  0  0  0  0  0  0  0  0
    2.2517   -0.9909   -1.3241 H   0  0  0  0  0  0  0  0  0  0  0  0
    2.6004    0.6314   -0.6947 H   0  0  0  0  0  0  0  0  0  0  0  0
    3.4863   -1.9889    0.6638 H   0  0  0  0  0  0  0  0  0  0  0  0
    3.9062   -0.3530    1.1966 H   0  0  0  0  0  0  0  0  0  0  0  0
    5.3614   -3.0634   -0.5050 H   0  0  0  0  0  0  0  0  0  0  0  0
    6.9405    0.5402   -2.3033 H   0  0  0  0  0  0  0  0  0  0  0  0
  1  2  1  0
  2  3  2  0
  3  4  1  0
  4  5  1  0
  4  6  1  0
  6  7  1  0
  6  8  2  0
  8  9  1  0
  9 10  2  3
 10 11  1  0
 11 12  1  0
 12 13  2  0
 12 14  1  0
 14 15  1  0
 15 16  1  0
 16 17  1  0
 17 18  2  0
 18 19  1  0
 19 20  2  0
 19 21  1  0
 18 22  1  0
 22 23  2  0
  8  2  1  0
 23 16  1  0
  1 24  1  0
  1 25  1  0
  1 26  1  0
  5 27  1  0
  5 28  1  0
  5 29  1  0
  7 30  1  0
  7 31  1  0
  7 32  1  0
  9 33  1  0
 11 34  1  0
 14 35  1  0
 14 36  1  0
 15 37  1  0
 15 38  1  0
 17 39  1  0
 22 40  1  0
M  CHG  2  19   1  21  -1
M  END
$$$$
