
     RDKit          3D

 59 62  0  0  0  0  0  0  0  0999 V2000
    5.4872    2.9955    0.3203 C   0  0  0  0  0  0  0  0  0  0  0  0
    5.9871    1.6913    0.0587 O   0  0  0  0  0  0  0  0  0  0  0  0
    5.0708    0.6955   -0.1657 C   0  0  0  0  0  0  0  0  0  0  0  0
    3.6832    0.8577   -0.1049 C   0  0  0  0  0  0  0  0  0  0  0  0
    2.8255   -0.2184   -0.3555 C   0  0  0  0  0  0  0  0  0  0  0  0
    1.4153   -0.1249   -0.3041 N   0  0  0  0  0  0  0  0  0  0  0  0
    0.6564    1.0097   -0.0814 C   0  0  0  0  0  0  0  0  0  0  0  0
    1.0581    2.1613    0.0264 O   0  0  0  0  0  0  0  0  0  0  0  0
   -0.8029    0.7854   -0.0315 C   0  0  0  0  0  0  0  0  0  0  0  0
   -1.6582    1.7082   -0.6470 C   0  0  0  0  0  0  0  0  0  0  0  0
   -3.0380    1.5019   -0.6184 C   0  0  0  0  0  0  0  0  0  0  0  0
   -3.9820    2.4417   -1.2623 C   0  0  0  0  0  0  0  0  0  0  0  0
   -3.6819    3.0868   -2.4762 C   0  0  0  0  0  0  0  0  0  0  0  0
   -4.5835    3.9776   -3.0688 C   0  0  0  0  0  0  0  0  0  0  0  0
   -5.8074    4.2399   -2.4613 C   0  0  0  0  0  0  0  0  0  0  0  0
   -6.1333    3.6091   -1.2650 C   0  0  0  0  0  0  0  0  0  0  0  0
   -5.2311    2.7184   -0.6754 C   0  0  0  0  0  0  0  0  0  0  0  0
   -3.6183    0.4412   -0.0012 N   0  0  0  0  0  0  0  0  0  0  0  0
   -2.7591   -0.4028    0.6005 C   0  0  0  0  0  0  0  0  0  0  0  0
   -1.3769   -0.3029    0.6373 C   0  0  0  0  0  0  0  0  0  0  0  0
   -0.9703   -1.4020    1.4246 C   0  0  0  0  0  0  0  0  0  0  0  0
   -1.9901   -2.1759    1.8051 N   0  0  0  0  0  0  0  0  0  0  0  0
   -3.0767   -1.5369    1.3048 N   0  0  0  0  0  0  0  0  0  0  0  0
   -4.4165   -2.0666    1.5322 C   0  0  0  0  0  0  0  0  0  0  0  0
   -4.7358   -2.1631    3.0240 C   0  0  0  0  0  0  0  0  0  0  0  0
   -4.6054   -3.4125    0.8337 C   0  0  0  0  0  0  0  0  0  0  0  0
    3.3676   -1.4759   -0.6657 C   0  0  0  0  0  0  0  0  0  0  0  0
    4.7507   -1.6635   -0.7288 C   0  0  0  0  0  0  0  0  0  0  0  0
    5.3713   -2.8502   -1.0227 O   0  0  0  0  0  0  0  0  0  0  0  0
    4.5514   -3.9779   -1.2920 C   0  0  0  0  0  0  0  0  0  0  0  0
    5.5939   -0.5725   -0.4651 C   0  0  0  0  0  0  0  0  0  0  0  0
    6.9580   -0.7373   -0.5700 O   0  0  0  0  0  0  0  0  0  0  0  0
    7.5027   -1.0829    0.7016 C   0  0  0  0  0  0  0  0  0  0  0  0
    4.9112    3.3773   -0.5285 H   0  0  0  0  0  0  0  0  0  0  0  0
    4.8961    3.0163    1.2418 H   0  0  0  0  0  0  0  0  0  0  0  0
    6.3453    3.6569    0.4654 H   0  0  0  0  0  0  0  0  0  0  0  0
    3.2691    1.8273    0.1391 H   0  0  0  0  0  0  0  0  0  0  0  0
    0.9136   -0.9774   -0.5209 H   0  0  0  0  0  0  0  0  0  0  0  0
   -1.2360    2.5853   -1.1311 H   0  0  0  0  0  0  0  0  0  0  0  0
   -2.7425    2.8927   -2.9894 H   0  0  0  0  0  0  0  0  0  0  0  0
   -4.3291    4.4626   -4.0080 H   0  0  0  0  0  0  0  0  0  0  0  0
   -6.5076    4.9325   -2.9212 H   0  0  0  0  0  0  0  0  0  0  0  0
   -7.0888    3.8075   -0.7874 H   0  0  0  0  0  0  0  0  0  0  0  0
   -5.5065    2.2374    0.2624 H   0  0  0  0  0  0  0  0  0  0  0  0
    0.0289   -1.6780    1.7382 H   0  0  0  0  0  0  0  0  0  0  0  0
   -5.1207   -1.3538    1.0860 H   0  0  0  0  0  0  0  0  0  0  0  0
   -5.7729   -2.4792    3.1776 H   0  0  0  0  0  0  0  0  0  0  0  0
   -4.6029   -1.1927    3.5146 H   0  0  0  0  0  0  0  0  0  0  0  0
   -4.0860   -2.8843    3.5320 H   0  0  0  0  0  0  0  0  0  0  0  0
   -5.6367   -3.7647    0.9439 H   0  0  0  0  0  0  0  0  0  0  0  0
   -4.3897   -3.3299   -0.2376 H   0  0  0  0  0  0  0  0  0  0  0  0
   -3.9405   -4.1789    1.2478 H   0  0  0  0  0  0  0  0  0  0  0  0
    2.6942   -2.3034   -0.8599 H   0  0  0  0  0  0  0  0  0  0  0  0
    3.9444   -4.2407   -0.4198 H   0  0  0  0  0  0  0  0  0  0  0  0
    5.2091   -4.8268   -1.5053 H   0  0  0  0  0  0  0  0  0  0  0  0
    3.9248   -3.8120   -2.1747 H   0  0  0  0  0  0  0  0  0  0  0  0
    8.5773   -1.2436    0.5724 H   0  0  0  0  0  0  0  0  0  0  0  0
    7.3673   -0.2735    1.4272 H   0  0  0  0  0  0  0  0  0  0  0  0
    7.0673   -2.0118    1.0856 H   0  0  0  0  0  0  0  0  0  0  0  0
  1  2  1  0
  2  3  1  0
  3  4  2  0
  4  5  1  0
  5  6  1  0
  6  7  1  0
  7  8  2  0
  7  9  1  0
  9 10  2  0
 10 11  1  0
 11 12  1  0
 12 13  2  0
 13 14  1  0
 14 15  2  0
 15 16  1  0
 16 17  2  0
 11 18  2  0
 18 19  1  0
 19 20  2  0
 20 21  1  0
 21 22  2  0
 22 23  1  0
 23 24  1  0
 24 25  1  0
 24 26  1  0
  5 27  2  0
 27 28  1  0
 28 29  1  0
 29 30  1  0
 28 31  2  0
 31 32  1  0
 32 33  1  0
 31  3  1  0
 20  9  1  0
 17 12  1  0
 23 19  1  0
  1 34  1  0
  1 35  1  0
  1 36  1  0
  4 37  1  0
  6 38  1  0
 10 39  1  0
 13 40  1  0
 14 41  1  0
 15 42  1  0
 16 43  1  0
 17 44  1  0
 21 45  1  0
 24 46  1  0
 25 47  1  0
 25 48  1  0
 25 49  1  0
 26 50  1  0
 26 51  1  0
 26 52  1  0
 27 53  1  0
 30 54  1  0
 30 55  1  0
 30 56  1  0
 33 57  1  0
 33 58  1  0
 33 59  1  0
M  END
$$$$
