
     RDKit          3D

 50 52  0  0  0  0  0  0  0  0999 V2000
    1.1062   -0.3086   -3.1245 O   0  0  0  0  0  0  0  0  0  0  0  0
    2.2994   -0.0711   -3.1388 C   0  0  0  0  0  0  0  0  0  0  0  0
    2.9349    0.2843   -4.2668 O   0  0  0  0  0  0  0  0  0  0  0  0
    3.2052   -0.1346   -1.9677 C   0  0  0  0  0  0  0  0  0  0  0  0
    2.6696   -0.5587   -0.7461 C   0  0  0  0  0  0  0  0  0  0  0  0
    3.4814   -0.6258    0.3845 C   0  0  0  0  0  0  0  0  0  0  0  0
    2.9182   -0.9958    1.6377 N   0  0  0  0  0  0  0  0  0  0  0  0
    2.1817    0.2205    2.5604 S   0  0  0  0  0  6  0  0  0  0  0  0
    2.8694    1.4720    2.3326 O   0  0  0  0  0  0  0  0  0  0  0  0
    2.0231   -0.3240    3.8913 O   0  0  0  0  0  0  0  0  0  0  0  0
    0.5635    0.3125    1.8409 C   0  0  0  0  0  0  0  0  0  0  0  0
    0.2079    1.4115    1.0583 C   0  0  0  0  0  0  0  0  0  0  0  0
   -1.0603    1.4576    0.4685 C   0  0  0  0  0  0  0  0  0  0  0  0
   -2.0044    0.4304    0.6517 C   0  0  0  0  0  0  0  0  0  0  0  0
   -3.2247    0.5787   -0.0042 N   0  0  0  0  0  0  0  0  0  0  0  0
   -4.4588    0.6361    0.7925 C   0  0  0  0  0  0  0  0  0  0  0  0
   -5.4890   -0.3753    0.2990 C   0  0  0  0  0  0  0  0  0  0  0  0
   -5.8118   -0.1897   -1.1842 C   0  0  0  0  0  0  0  0  0  0  0  0
   -4.6199    0.3175   -1.9978 C   0  0  0  0  0  0  0  0  0  0  0  0
   -3.2894   -0.0342   -1.3394 C   0  0  0  0  0  0  0  0  0  0  0  0
   -1.6058   -0.6498    1.4590 C   0  0  0  0  0  0  0  0  0  0  0  0
   -2.4769   -1.7835    1.6621 N   0  0  0  0  0  4  0  0  0  0  0  0
   -2.4395   -2.6830    0.8115 O   0  0  0  0  0  0  0  0  0  0  0  0
   -3.1513   -1.7967    2.7009 O   0  0  0  0  0  1  0  0  0  0  0  0
   -0.3417   -0.7239    2.0625 C   0  0  0  0  0  0  0  0  0  0  0  0
    4.8254   -0.2628    0.3121 C   0  0  0  0  0  0  0  0  0  0  0  0
    5.3674    0.1566   -0.9093 C   0  0  0  0  0  0  0  0  0  0  0  0
    6.7902    0.5513   -1.0381 C   0  0  0  0  0  0  0  0  0  0  0  0
    7.3221    0.9712   -2.0480 O   0  0  0  0  0  0  0  0  0  0  0  0
    7.4793    0.3888    0.1038 O   0  0  0  0  0  0  0  0  0  0  0  0
    4.5563    0.2214   -2.0500 C   0  0  0  0  0  0  0  0  0  0  0  0
    2.2350    0.2858   -4.9535 H   0  0  0  0  0  0  0  0  0  0  0  0
    1.6221   -0.8465   -0.6890 H   0  0  0  0  0  0  0  0  0  0  0  0
    3.4675   -1.6102    2.2408 H   0  0  0  0  0  0  0  0  0  0  0  0
    0.9056    2.2296    0.8888 H   0  0  0  0  0  0  0  0  0  0  0  0
   -1.3246    2.3157   -0.1490 H   0  0  0  0  0  0  0  0  0  0  0  0
   -4.2695    0.4886    1.8615 H   0  0  0  0  0  0  0  0  0  0  0  0
   -4.8729    1.6475    0.6959 H   0  0  0  0  0  0  0  0  0  0  0  0
   -5.1078   -1.3919    0.4522 H   0  0  0  0  0  0  0  0  0  0  0  0
   -6.4091   -0.2972    0.8890 H   0  0  0  0  0  0  0  0  0  0  0  0
   -6.1613   -1.1460   -1.5916 H   0  0  0  0  0  0  0  0  0  0  0  0
   -6.6445    0.5146   -1.2999 H   0  0  0  0  0  0  0  0  0  0  0  0
   -4.6632   -0.0911   -3.0135 H   0  0  0  0  0  0  0  0  0  0  0  0
   -4.6946    1.4085   -2.0951 H   0  0  0  0  0  0  0  0  0  0  0  0
   -2.4731    0.3445   -1.9667 H   0  0  0  0  0  0  0  0  0  0  0  0
   -3.1815   -1.1233   -1.2776 H   0  0  0  0  0  0  0  0  0  0  0  0
   -0.0670   -1.5793    2.6764 H   0  0  0  0  0  0  0  0  0  0  0  0
    5.4438   -0.2885    1.2060 H   0  0  0  0  0  0  0  0  0  0  0  0
    8.3855    0.6912   -0.1190 H   0  0  0  0  0  0  0  0  0  0  0  0
    4.9821    0.5550   -2.9953 H   0  0  0  0  0  0  0  0  0  0  0  0
  1  2  2  0
  2  3  1  0
  2  4  1  0
  4  5  2  0
  5  6  1  0
  6  7  1  0
  7  8  1  0
  8  9  2  0
  8 10  2  0
  8 11  1  0
 11 12  2  0
 12 13  1  0
 13 14  2  0
 14 15  1  0
 15 16  1  0
 16 17  1  0
 17 18  1  0
 18 19  1  0
 19 20  1  0
 14 21  1  0
 21 22  1  0
 22 23  2  0
 22 24  1  0
 21 25  2  0
  6 26  2  0
 26 27  1  0
 27 28  1  0
 28 29  2  0
 28 30  1  0
 27 31  2  0
 31  4  1  0
 25 11  1  0
 20 15  1  0
  3 32  1  0
  5 33  1  0
  7 34  1  0
 12 35  1  0
 13 36  1  0
 16 37  1  0
 16 38  1  0
 17 39  1  0
 17 40  1  0
 18 41  1  0
 18 42  1  0
 19 43  1  0
 19 44  1  0
 20 45  1  0
 20 46  1  0
 25 47  1  0
 26 48  1  0
 30 49  1  0
 31 50  1  0
M  CHG  2  22   1  24  -1
M  END
$$$$
