
     RDKit          3D

 61 65  0  0  0  0  0  0  0  0999 V2000
  -10.7139    1.1475   -1.1889 C   0  0  0  0  0  0  0  0  0  0  0  0
   -9.5564    0.9193   -1.9815 O   0  0  0  0  0  0  0  0  0  0  0  0
   -8.3866    0.6921   -1.3115 C   0  0  0  0  0  0  0  0  0  0  0  0
   -7.2750    0.4847   -2.1258 C   0  0  0  0  0  0  0  0  0  0  0  0
   -6.0122    0.2425   -1.5708 C   0  0  0  0  0  0  0  0  0  0  0  0
   -5.8359    0.2033   -0.1813 C   0  0  0  0  0  0  0  0  0  0  0  0
   -4.5373   -0.0377    0.3904 N   0  0  0  0  0  0  0  0  0  0  0  0
   -4.1077    0.2978    1.6853 C   0  0  0  0  0  0  0  0  0  0  0  0
   -4.8781    0.9377    2.5645 O   0  0  0  0  0  0  0  0  0  0  0  0
   -2.7897   -0.0871    1.8314 C   0  0  0  0  0  0  0  0  0  0  0  0
   -2.3721   -0.6539    0.6177 C   0  0  0  0  0  0  0  0  0  0  0  0
   -1.1413   -1.1503    0.2885 N   0  0  0  0  0  0  0  0  0  0  0  0
   -0.3849   -0.3793   -0.7400 C   0  0  0  0  0  0  0  0  0  0  0  0
    1.1035   -0.7857   -0.8264 C   0  0  0  0  0  0  0  0  0  0  0  0
    1.7804   -0.6294    0.4738 N   0  0  0  0  0  0  0  0  0  0  0  0
    3.1518   -0.4752    0.5753 C   0  0  0  0  0  0  0  0  0  0  0  0
    3.7529    0.0003    1.7529 C   0  0  0  0  0  0  0  0  0  0  0  0
    5.1394    0.1638    1.8671 C   0  0  0  0  0  0  0  0  0  0  0  0
    5.9695   -0.1323    0.7878 C   0  0  0  0  0  0  0  0  0  0  0  0
    7.4346    0.0384    0.9489 C   0  0  0  0  0  0  0  0  0  0  0  0
    7.9489   -0.1929    2.0403 O   0  0  0  0  0  0  0  0  0  0  0  0
    8.2949    0.4766   -0.1706 C   0  0  0  0  0  0  0  0  0  0  0  0
    9.6130    0.0228   -0.2477 C   0  0  0  0  0  0  0  0  0  0  0  0
   10.4224    0.4471   -1.2988 C   0  0  0  0  0  0  0  0  0  0  0  0
    9.8842    1.3199   -2.2316 C   0  0  0  0  0  0  0  0  0  0  0  0
    8.6184    1.7919   -2.1767 N   0  0  0  0  0  0  0  0  0  0  0  0
    7.8552    1.3706   -1.1385 C   0  0  0  0  0  0  0  0  0  0  0  0
    5.4069   -0.6212   -0.3904 C   0  0  0  0  0  0  0  0  0  0  0  0
    4.0171   -0.7785   -0.4893 C   0  0  0  0  0  0  0  0  0  0  0  0
    0.9459   -0.8542    1.6715 C   0  0  0  0  0  0  0  0  0  0  0  0
   -0.2841   -1.7303    1.3505 C   0  0  0  0  0  0  0  0  0  0  0  0
   -3.4526   -0.6600   -0.2384 C   0  0  0  0  0  0  0  0  0  0  0  0
   -3.5246   -1.2341   -1.4405 O   0  0  0  0  0  0  0  0  0  0  0  0
   -6.9595    0.4112    0.6303 C   0  0  0  0  0  0  0  0  0  0  0  0
   -8.2237    0.6525    0.0704 C   0  0  0  0  0  0  0  0  0  0  0  0
  -10.5983    2.0424   -0.5683 H   0  0  0  0  0  0  0  0  0  0  0  0
  -10.9534    0.2707   -0.5785 H   0  0  0  0  0  0  0  0  0  0  0  0
  -11.5546    1.3205   -1.8676 H   0  0  0  0  0  0  0  0  0  0  0  0
   -7.3860    0.5172   -3.2069 H   0  0  0  0  0  0  0  0  0  0  0  0
   -5.1811    0.1218   -2.2585 H   0  0  0  0  0  0  0  0  0  0  0  0
   -4.3462    1.0968    3.3634 H   0  0  0  0  0  0  0  0  0  0  0  0
   -2.1925    0.0687    2.7176 H   0  0  0  0  0  0  0  0  0  0  0  0
   -0.8445   -0.5262   -1.7238 H   0  0  0  0  0  0  0  0  0  0  0  0
   -0.4403    0.6920   -0.5029 H   0  0  0  0  0  0  0  0  0  0  0  0
    1.1854   -1.8285   -1.1557 H   0  0  0  0  0  0  0  0  0  0  0  0
    1.5718   -0.1485   -1.5858 H   0  0  0  0  0  0  0  0  0  0  0  0
    3.1449    0.2762    2.6107 H   0  0  0  0  0  0  0  0  0  0  0  0
    5.5623    0.5278    2.8013 H   0  0  0  0  0  0  0  0  0  0  0  0
   10.0066   -0.6553    0.5064 H   0  0  0  0  0  0  0  0  0  0  0  0
   11.4488    0.1074   -1.3854 H   0  0  0  0  0  0  0  0  0  0  0  0
   10.4766    1.6782   -3.0694 H   0  0  0  0  0  0  0  0  0  0  0  0
    6.8590    1.8036   -1.1141 H   0  0  0  0  0  0  0  0  0  0  0  0
    6.0252   -0.9096   -1.2365 H   0  0  0  0  0  0  0  0  0  0  0  0
    3.6266   -1.1796   -1.4209 H   0  0  0  0  0  0  0  0  0  0  0  0
    1.5151   -1.3698    2.4537 H   0  0  0  0  0  0  0  0  0  0  0  0
    0.6212    0.1153    2.0663 H   0  0  0  0  0  0  0  0  0  0  0  0
    0.0599   -2.7099    0.9946 H   0  0  0  0  0  0  0  0  0  0  0  0
   -0.8494   -1.9278    2.2690 H   0  0  0  0  0  0  0  0  0  0  0  0
   -2.7041   -1.7597   -1.5011 H   0  0  0  0  0  0  0  0  0  0  0  0
   -6.8996    0.3590    1.7127 H   0  0  0  0  0  0  0  0  0  0  0  0
   -9.0565    0.7994    0.7494 H   0  0  0  0  0  0  0  0  0  0  0  0
  1  2  1  0
  2  3  1  0
  3  4  2  0
  4  5  1  0
  5  6  2  0
  6  7  1  0
  7  8  1  0
  8  9  1  0
  8 10  2  0
 10 11  1  0
 11 12  1  0
 12 13  1  0
 13 14  1  0
 14 15  1  0
 15 16  1  0
 16 17  2  0
 17 18  1  0
 18 19  2  0
 19 20  1  0
 20 21  2  0
 20 22  1  0
 22 23  2  0
 23 24  1  0
 24 25  2  0
 25 26  1  0
 26 27  2  0
 19 28  1  0
 28 29  2  0
 15 30  1  0
 30 31  1  0
 11 32  2  0
 32 33  1  0
  6 34  1  0
 34 35  2  0
 35  3  1  0
 32  7  1  0
 31 12  1  0
 29 16  1  0
 27 22  1  0
  1 36  1  0
  1 37  1  0
  1 38  1  0
  4 39  1  0
  5 40  1  0
  9 41  1  0
 10 42  1  0
 13 43  1  0
 13 44  1  0
 14 45  1  0
 14 46  1  0
 17 47  1  0
 18 48  1  0
 23 49  1  0
 24 50  1  0
 25 51  1  0
 27 52  1  0
 28 53  1  0
 29 54  1  0
 30 55  1  0
 30 56  1  0
 31 57  1  0
 31 58  1  0
 33 59  1  0
 34 60  1  0
 35 61  1  0
M  END
$$$$
