
     RDKit          3D

 42 44  0  0  0  0  0  0  0  0999 V2000
   -6.2831    2.0554    1.2815 N   0  0  0  0  0  0  0  0  0  0  0  0
   -5.5661    1.1539    1.4254 C   0  0  0  0  0  0  0  0  0  0  0  0
   -4.6939   -0.0063    1.6501 C   0  0  0  0  0  0  0  0  0  0  0  0
   -4.1531   -0.5857    0.3352 C   0  0  0  0  0  0  0  0  0  0  0  0
   -3.2146    0.2990   -0.3769 N   0  0  0  0  0  0  0  0  0  0  0  0
   -3.0211   -0.1270   -1.7805 C   0  0  0  0  0  0  0  0  0  0  0  0
   -2.1754   -1.4035   -1.9616 C   0  0  0  0  0  0  0  0  0  0  0  0
   -0.8871   -1.3344   -1.2491 N   0  0  0  0  0  0  0  0  0  0  0  0
    0.2132   -2.1217   -1.6413 C   0  0  0  0  0  0  0  0  0  0  0  0
    0.1500   -3.3478   -2.7985 S   0  0  0  0  0  0  0  0  0  0  0  0
    1.5152   -1.8600   -1.0484 C   0  0  0  0  0  0  0  0  0  0  0  0
    2.5869   -2.6708   -0.7129 C   0  0  0  0  0  0  0  0  0  0  0  0
    3.6040   -1.8271   -0.2015 C   0  0  0  0  0  0  0  0  0  0  0  0
    3.1163   -0.5379   -0.2586 C   0  0  0  0  0  0  0  0  0  0  0  0
    3.6422    0.7766    0.1025 C   0  0  0  0  0  0  0  0  0  0  0  0
    4.9129    0.9025    0.6824 C   0  0  0  0  0  0  0  0  0  0  0  0
    5.4208    2.1580    1.0343 C   0  0  0  0  0  0  0  0  0  0  0  0
    4.6646    3.3102    0.8120 C   0  0  0  0  0  0  0  0  0  0  0  0
    5.3515    4.8258    1.2737 Cl  0  0  0  0  0  0  0  0  0  0  0  0
    3.3971    3.2027    0.2340 C   0  0  0  0  0  0  0  0  0  0  0  0
    2.3992    4.5804   -0.0705 Cl  0  0  0  0  0  0  0  0  0  0  0  0
    2.8936    1.9442   -0.1178 C   0  0  0  0  0  0  0  0  0  0  0  0
    1.8534   -0.5583   -0.7759 O   0  0  0  0  0  0  0  0  0  0  0  0
   -1.0004   -0.8485    0.1371 C   0  0  0  0  0  0  0  0  0  0  0  0
   -1.8854    0.4072    0.2615 C   0  0  0  0  0  0  0  0  0  0  0  0
   -5.2764   -0.7867    2.1551 H   0  0  0  0  0  0  0  0  0  0  0  0
   -3.8814    0.2569    2.3345 H   0  0  0  0  0  0  0  0  0  0  0  0
   -3.6954   -1.5603    0.5408 H   0  0  0  0  0  0  0  0  0  0  0  0
   -5.0177   -0.7862   -0.3126 H   0  0  0  0  0  0  0  0  0  0  0  0
   -2.5235    0.6956   -2.3116 H   0  0  0  0  0  0  0  0  0  0  0  0
   -3.9903   -0.2512   -2.2786 H   0  0  0  0  0  0  0  0  0  0  0  0
   -2.0025   -1.5470   -3.0329 H   0  0  0  0  0  0  0  0  0  0  0  0
   -2.7155   -2.2810   -1.5865 H   0  0  0  0  0  0  0  0  0  0  0  0
    2.6301   -3.7459   -0.8262 H   0  0  0  0  0  0  0  0  0  0  0  0
    4.5777   -2.1319    0.1550 H   0  0  0  0  0  0  0  0  0  0  0  0
    5.5285    0.0253    0.8698 H   0  0  0  0  0  0  0  0  0  0  0  0
    6.4095    2.2280    1.4824 H   0  0  0  0  0  0  0  0  0  0  0  0
    1.9063    1.8791   -0.5719 H   0  0  0  0  0  0  0  0  0  0  0  0
   -1.4256   -1.6731    0.7222 H   0  0  0  0  0  0  0  0  0  0  0  0
   -0.0270   -0.6407    0.5828 H   0  0  0  0  0  0  0  0  0  0  0  0
   -1.3576    1.2461   -0.2120 H   0  0  0  0  0  0  0  0  0  0  0  0
   -1.9799    0.6862    1.3161 H   0  0  0  0  0  0  0  0  0  0  0  0
  1  2  3  0
  2  3  1  0
  3  4  1  0
  4  5  1  0
  5  6  1  0
  6  7  1  0
  7  8  1  0
  8  9  1  0
  9 10  2  0
  9 11  1  0
 11 12  2  0
 12 13  1  0
 13 14  2  0
 14 15  1  0
 15 16  2  0
 16 17  1  0
 17 18  2  0
 18 19  1  0
 18 20  1  0
 20 21  1  0
 20 22  2  0
 14 23  1  0
  8 24  1  0
 24 25  1  0
 25  5  1  0
 23 11  1  0
 22 15  1  0
  3 26  1  0
  3 27  1  0
  4 28  1  0
  4 29  1  0
  6 30  1  0
  6 31  1  0
  7 32  1  0
  7 33  1  0
 12 34  1  0
 13 35  1  0
 16 36  1  0
 17 37  1  0
 22 38  1  0
 24 39  1  0
 24 40  1  0
 25 41  1  0
 25 42  1  0
M  END
$$$$
