
     RDKit          3D

 45 47  0  0  0  0  0  0  0  0999 V2000
    7.4808    1.3643    0.1313 C   0  0  0  0  0  0  0  0  0  0  0  0
    7.0204    0.5129    1.3017 C   0  0  0  0  0  0  0  0  0  0  0  0
    6.3166   -0.6403    0.8429 O   0  0  0  0  0  0  0  0  0  0  0  0
    4.9639   -0.5612    0.6734 C   0  0  0  0  0  0  0  0  0  0  0  0
    4.3463   -1.7741    0.3656 C   0  0  0  0  0  0  0  0  0  0  0  0
    2.9645   -1.8421    0.1618 C   0  0  0  0  0  0  0  0  0  0  0  0
    2.1752   -0.6924    0.2624 C   0  0  0  0  0  0  0  0  0  0  0  0
    0.7924   -0.8349    0.0363 N   0  0  0  0  0  0  0  0  0  0  0  0
   -0.1896    0.1181    0.1963 C   0  0  0  0  0  0  0  0  0  0  0  0
   -0.0505    1.2483    0.6429 O   0  0  0  0  0  0  0  0  0  0  0  0
   -1.4138   -0.3756   -0.2031 N   0  0  0  0  0  0  0  0  0  0  0  0
   -2.6043    0.4666   -0.1874 C   0  0  0  0  0  0  0  0  0  0  0  0
   -2.5620    1.4464   -1.3734 C   0  0  0  0  0  0  0  0  0  0  0  0
   -3.9104    2.1213   -1.5763 C   0  0  0  0  0  0  0  0  0  0  0  0
   -4.9654    1.0803   -1.9340 C   0  0  0  0  0  0  0  0  0  0  0  0
   -4.9734   -0.0902   -0.9825 C   0  0  0  0  0  0  0  0  0  0  0  0
   -6.1117   -0.9113   -0.9345 C   0  0  0  0  0  0  0  0  0  0  0  0
   -6.1676   -2.0022   -0.0686 C   0  0  0  0  0  0  0  0  0  0  0  0
   -5.0876   -2.2851    0.7601 C   0  0  0  0  0  0  0  0  0  0  0  0
   -3.9459   -1.4854    0.7115 C   0  0  0  0  0  0  0  0  0  0  0  0
   -3.8597   -0.3952   -0.1751 C   0  0  0  0  0  0  0  0  0  0  0  0
    2.7955    0.5215    0.5582 C   0  0  0  0  0  0  0  0  0  0  0  0
    4.1818    0.5875    0.7631 C   0  0  0  0  0  0  0  0  0  0  0  0
    8.0830    0.7680   -0.5622 H   0  0  0  0  0  0  0  0  0  0  0  0
    6.6325    1.7527   -0.4400 H   0  0  0  0  0  0  0  0  0  0  0  0
    8.0812    2.2092    0.4807 H   0  0  0  0  0  0  0  0  0  0  0  0
    7.9074    0.1436    1.8292 H   0  0  0  0  0  0  0  0  0  0  0  0
    6.4516    1.0884    2.0404 H   0  0  0  0  0  0  0  0  0  0  0  0
    4.9469   -2.6770    0.2857 H   0  0  0  0  0  0  0  0  0  0  0  0
    2.5224   -2.8060   -0.0737 H   0  0  0  0  0  0  0  0  0  0  0  0
    0.4604   -1.7700   -0.1429 H   0  0  0  0  0  0  0  0  0  0  0  0
   -1.4017   -1.0940   -0.9101 H   0  0  0  0  0  0  0  0  0  0  0  0
   -2.6020    1.0503    0.7431 H   0  0  0  0  0  0  0  0  0  0  0  0
   -2.2796    0.9181   -2.2945 H   0  0  0  0  0  0  0  0  0  0  0  0
   -1.7899    2.2066   -1.2062 H   0  0  0  0  0  0  0  0  0  0  0  0
   -3.8426    2.8659   -2.3773 H   0  0  0  0  0  0  0  0  0  0  0  0
   -4.1988    2.6551   -0.6621 H   0  0  0  0  0  0  0  0  0  0  0  0
   -5.9488    1.5656   -1.9382 H   0  0  0  0  0  0  0  0  0  0  0  0
   -4.7791    0.6989   -2.9457 H   0  0  0  0  0  0  0  0  0  0  0  0
   -6.9685   -0.6962   -1.5698 H   0  0  0  0  0  0  0  0  0  0  0  0
   -7.0581   -2.6241   -0.0344 H   0  0  0  0  0  0  0  0  0  0  0  0
   -5.1342   -3.1247    1.4484 H   0  0  0  0  0  0  0  0  0  0  0  0
   -3.1162   -1.7126    1.3787 H   0  0  0  0  0  0  0  0  0  0  0  0
    2.2290    1.4450    0.6317 H   0  0  0  0  0  0  0  0  0  0  0  0
    4.6093    1.5600    0.9812 H   0  0  0  0  0  0  0  0  0  0  0  0
  1  2  1  0
  2  3  1  0
  3  4  1  0
  4  5  2  0
  5  6  1  0
  6  7  2  0
  7  8  1  0
  8  9  1  0
  9 10  2  0
  9 11  1  0
 11 12  1  0
 12 13  1  0
 13 14  1  0
 14 15  1  0
 15 16  1  0
 16 17  2  0
 17 18  1  0
 18 19  2  0
 19 20  1  0
 20 21  2  0
  7 22  1  0
 22 23  2  0
 23  4  1  0
 21 12  1  0
 21 16  1  0
  1 24  1  0
  1 25  1  0
  1 26  1  0
  2 27  1  0
  2 28  1  0
  5 29  1  0
  6 30  1  0
  8 31  1  0
 11 32  1  0
 12 33  1  0
 13 34  1  0
 13 35  1  0
 14 36  1  0
 14 37  1  0
 15 38  1  0
 15 39  1  0
 17 40  1  0
 18 41  1  0
 19 42  1  0
 20 43  1  0
 22 44  1  0
 23 45  1  0
M  END
$$$$
