
     RDKit          3D

 30 31  0  0  0  0  0  0  0  0999 V2000
   -3.7999   -0.5015    0.7104 C   0  0  0  0  0  0  0  0  0  0  0  0
   -3.0401   -1.3196    1.5910 O   0  0  0  0  0  0  0  0  0  0  0  0
   -1.7670   -1.6391    1.2021 C   0  0  0  0  0  0  0  0  0  0  0  0
   -1.1526   -1.2237    0.0200 C   0  0  0  0  0  0  0  0  0  0  0  0
    0.1674   -1.6127   -0.2506 C   0  0  0  0  0  0  0  0  0  0  0  0
    0.9390   -1.1061   -1.7686 S   0  0  0  0  0  6  0  0  0  0  0  0
    1.6889   -2.2505   -2.2502 O   0  0  0  0  0  0  0  0  0  0  0  0
   -0.0422   -0.4722   -2.6235 O   0  0  0  0  0  0  0  0  0  0  0  0
    2.0889    0.0079   -1.2977 N   0  0  0  0  0  0  0  0  0  0  0  0
    1.6965    1.3152   -0.9623 C   0  0  0  0  0  0  0  0  0  0  0  0
    2.5382    2.3772   -1.2586 C   0  0  0  0  0  0  0  0  0  0  0  0
    2.1746    3.6506   -0.8284 C   0  0  0  0  0  0  0  0  0  0  0  0
    1.0023    3.8118   -0.1001 C   0  0  0  0  0  0  0  0  0  0  0  0
    0.2456    2.6852    0.1740 C   0  0  0  0  0  0  0  0  0  0  0  0
    0.5780    1.4399   -0.2309 N   0  0  0  0  0  0  0  0  0  0  0  0
    0.8743   -2.4367    0.6317 C   0  0  0  0  0  0  0  0  0  0  0  0
    0.2604   -2.8538    1.8099 C   0  0  0  0  0  0  0  0  0  0  0  0
   -1.0461   -2.4523    2.0863 C   0  0  0  0  0  0  0  0  0  0  0  0
   -1.6111   -2.8680    3.2304 F   0  0  0  0  0  0  0  0  0  0  0  0
   -3.9530   -0.9958   -0.2547 H   0  0  0  0  0  0  0  0  0  0  0  0
   -4.7835   -0.3460    1.1640 H   0  0  0  0  0  0  0  0  0  0  0  0
   -3.3332    0.4809    0.5832 H   0  0  0  0  0  0  0  0  0  0  0  0
   -1.6648   -0.5875   -0.6951 H   0  0  0  0  0  0  0  0  0  0  0  0
    2.9916   -0.1460   -1.7331 H   0  0  0  0  0  0  0  0  0  0  0  0
    3.4553    2.2323   -1.8171 H   0  0  0  0  0  0  0  0  0  0  0  0
    2.8027    4.5077   -1.0552 H   0  0  0  0  0  0  0  0  0  0  0  0
    0.6892    4.7888    0.2516 H   0  0  0  0  0  0  0  0  0  0  0  0
   -0.6738    2.7548    0.7489 H   0  0  0  0  0  0  0  0  0  0  0  0
    1.8901   -2.7519    0.4059 H   0  0  0  0  0  0  0  0  0  0  0  0
    0.7841   -3.4900    2.5164 H   0  0  0  0  0  0  0  0  0  0  0  0
  1  2  1  0
  2  3  1  0
  3  4  2  0
  4  5  1  0
  5  6  1  0
  6  7  2  0
  6  8  2  0
  6  9  1  0
  9 10  1  0
 10 11  2  0
 11 12  1  0
 12 13  2  0
 13 14  1  0
 14 15  2  0
  5 16  2  0
 16 17  1  0
 17 18  2  0
 18 19  1  0
 18  3  1  0
 15 10  1  0
  1 20  1  0
  1 21  1  0
  1 22  1  0
  4 23  1  0
  9 24  1  0
 11 25  1  0
 12 26  1  0
 13 27  1  0
 14 28  1  0
 16 29  1  0
 17 30  1  0
M  END
$$$$
