
     RDKit          3D

 50 52  0  0  0  0  0  0  0  0999 V2000
   -6.8890   -1.2108    0.5009 C   0  0  0  0  0  0  0  0  0  0  0  0
   -5.6846   -0.3585    0.9024 C   0  0  0  0  0  0  0  0  0  0  0  0
   -4.3765   -1.0895    0.5582 C   0  0  0  0  0  0  0  0  0  0  0  0
   -3.2079   -0.1198    0.4123 C   0  0  0  0  0  0  0  0  0  0  0  0
   -3.4561    0.8743   -0.6361 N   0  0  0  0  0  0  0  0  0  0  0  0
   -2.4806    1.3797   -1.4920 C   0  0  0  0  0  0  0  0  0  0  0  0
   -2.7331    1.9726   -2.5375 O   0  0  0  0  0  0  0  0  0  0  0  0
   -1.0524    1.2084   -1.1426 C   0  0  0  0  0  0  0  0  0  0  0  0
   -0.5620    1.6171    0.1029 C   0  0  0  0  0  0  0  0  0  0  0  0
    0.7979    1.4807    0.3998 C   0  0  0  0  0  0  0  0  0  0  0  0
    1.6774    0.9337   -0.5487 C   0  0  0  0  0  0  0  0  0  0  0  0
    3.4188    0.9053   -0.1589 S   0  0  0  0  0  6  0  0  0  0  0  0
    4.1256    1.0942   -1.4075 O   0  0  0  0  0  0  0  0  0  0  0  0
    3.5878    1.8652    0.9199 O   0  0  0  0  0  0  0  0  0  0  0  0
    3.6907   -0.7361    0.5069 C   0  0  0  0  0  0  0  0  0  0  0  0
    5.1398   -0.8767    0.8793 C   0  0  0  0  0  0  0  0  0  0  0  0
    5.6195   -0.4483    2.1254 C   0  0  0  0  0  0  0  0  0  0  0  0
    6.9752   -0.5734    2.4407 C   0  0  0  0  0  0  0  0  0  0  0  0
    7.8642   -1.1244    1.5173 C   0  0  0  0  0  0  0  0  0  0  0  0
    7.3978   -1.5507    0.2759 C   0  0  0  0  0  0  0  0  0  0  0  0
    6.0473   -1.4231   -0.0321 C   0  0  0  0  0  0  0  0  0  0  0  0
    5.6133   -1.8481   -1.2261 F   0  0  0  0  0  0  0  0  0  0  0  0
    1.1791    0.5629   -1.8016 C   0  0  0  0  0  0  0  0  0  0  0  0
    2.0126   -0.0643   -2.8070 N   0  0  0  0  0  4  0  0  0  0  0  0
    2.0818    0.4844   -3.9117 O   0  0  0  0  0  0  0  0  0  0  0  0
    2.5119   -1.1522   -2.4936 O   0  0  0  0  0  1  0  0  0  0  0  0
   -0.1822    0.6990   -2.1096 C   0  0  0  0  0  0  0  0  0  0  0  0
   -4.8524    1.1702   -0.9557 C   0  0  0  0  0  0  0  0  0  0  0  0
   -5.7510    1.0433    0.2697 C   0  0  0  0  0  0  0  0  0  0  0  0
   -6.8383   -2.1999    0.9682 H   0  0  0  0  0  0  0  0  0  0  0  0
   -6.9347   -1.3486   -0.5848 H   0  0  0  0  0  0  0  0  0  0  0  0
   -7.8234   -0.7376    0.8213 H   0  0  0  0  0  0  0  0  0  0  0  0
   -5.7305   -0.2288    1.9920 H   0  0  0  0  0  0  0  0  0  0  0  0
   -4.1535   -1.8297    1.3357 H   0  0  0  0  0  0  0  0  0  0  0  0
   -4.4910   -1.6465   -0.3812 H   0  0  0  0  0  0  0  0  0  0  0  0
   -2.2965   -0.6825    0.1886 H   0  0  0  0  0  0  0  0  0  0  0  0
   -3.0523    0.4249    1.3503 H   0  0  0  0  0  0  0  0  0  0  0  0
   -1.2293    2.0742    0.8316 H   0  0  0  0  0  0  0  0  0  0  0  0
    1.1620    1.8355    1.3639 H   0  0  0  0  0  0  0  0  0  0  0  0
    3.3964   -1.4871   -0.2267 H   0  0  0  0  0  0  0  0  0  0  0  0
    3.0526   -0.8516    1.3893 H   0  0  0  0  0  0  0  0  0  0  0  0
    4.9481    0.0009    2.8551 H   0  0  0  0  0  0  0  0  0  0  0  0
    7.3411   -0.2310    3.4062 H   0  0  0  0  0  0  0  0  0  0  0  0
    8.9192   -1.2154    1.7630 H   0  0  0  0  0  0  0  0  0  0  0  0
    8.0763   -1.9779   -0.4558 H   0  0  0  0  0  0  0  0  0  0  0  0
   -0.5680    0.4137   -3.0881 H   0  0  0  0  0  0  0  0  0  0  0  0
   -5.1680    0.4747   -1.7427 H   0  0  0  0  0  0  0  0  0  0  0  0
   -4.9242    2.1836   -1.3666 H   0  0  0  0  0  0  0  0  0  0  0  0
   -6.7814    1.3137    0.0121 H   0  0  0  0  0  0  0  0  0  0  0  0
   -5.4177    1.7754    1.0175 H   0  0  0  0  0  0  0  0  0  0  0  0
  1  2  1  0
  2  3  1  0
  3  4  1  0
  4  5  1  0
  5  6  1  0
  6  7  2  0
  6  8  1  0
  8  9  2  0
  9 10  1  0
 10 11  2  0
 11 12  1  0
 12 13  2  0
 12 14  2  0
 12 15  1  0
 15 16  1  0
 16 17  2  0
 17 18  1  0
 18 19  2  0
 19 20  1  0
 20 21  2  0
 21 22  1  0
 11 23  1  0
 23 24  1  0
 24 25  2  0
 24 26  1  0
 23 27  2  0
  5 28  1  0
 28 29  1  0
 29  2  1  0
 27  8  1  0
 21 16  1  0
  1 30  1  0
  1 31  1  0
  1 32  1  0
  2 33  1  0
  3 34  1  0
  3 35  1  0
  4 36  1  0
  4 37  1  0
  9 38  1  0
 10 39  1  0
 15 40  1  0
 15 41  1  0
 17 42  1  0
 18 43  1  0
 19 44  1  0
 20 45  1  0
 27 46  1  0
 28 47  1  0
 28 48  1  0
 29 49  1  0
 29 50  1  0
M  CHG  2  24   1  26  -1
M  END
$$$$
