
     RDKit          3D

 31 32  0  0  0  0  0  0  0  0999 V2000
    6.6588    1.4157   -5.0146 N   0  0  0  0  0  0  0  0  0  0  0  0
    5.5933    1.3140   -4.1969 C   0  0  0  0  0  0  0  0  0  0  0  0
    4.4108    0.8733   -4.5644 N   0  0  0  0  0  0  0  0  0  0  0  0
    3.4990    0.8824   -3.5267 N   0  0  0  0  0  0  0  0  0  0  0  0
    4.0310    1.3321   -2.4122 C   0  0  0  0  0  0  0  0  0  0  0  0
    3.1317    1.4555   -0.9197 S   0  0  0  0  0  0  0  0  0  0  0  0
    1.4837    0.9655   -1.4986 C   0  0  0  0  0  0  0  0  0  0  0  0
    0.5123    1.0264   -0.3394 C   0  0  0  0  0  0  0  0  0  0  0  0
   -0.0313    2.0667    0.0342 O   0  0  0  0  0  0  0  0  0  0  0  0
    0.2962   -0.1854    0.2932 N   0  0  0  0  0  0  0  0  0  0  0  0
   -0.7623   -0.2351    1.2221 N   0  0  0  0  0  0  0  0  0  0  0  0
   -1.6084   -1.3259    1.1372 C   0  0  0  0  0  0  0  0  0  0  0  0
   -1.3637   -2.2916    0.4175 O   0  0  0  0  0  0  0  0  0  0  0  0
   -2.8636   -1.2645    1.9366 C   0  0  0  0  0  0  0  0  0  0  0  0
   -3.9325   -2.0890    1.5564 C   0  0  0  0  0  0  0  0  0  0  0  0
   -5.1304   -2.0693    2.2761 C   0  0  0  0  0  0  0  0  0  0  0  0
   -5.2586   -1.2315    3.3819 C   0  0  0  0  0  0  0  0  0  0  0  0
   -6.7311   -1.2067    4.2701 Cl  0  0  0  0  0  0  0  0  0  0  0  0
   -4.1977   -0.4173    3.7773 C   0  0  0  0  0  0  0  0  0  0  0  0
   -2.9975   -0.4343    3.0586 C   0  0  0  0  0  0  0  0  0  0  0  0
    5.6770    1.7827   -2.5461 S   0  0  0  0  0  0  0  0  0  0  0  0
    7.3801    2.0825   -4.7661 H   0  0  0  0  0  0  0  0  0  0  0  0
    6.4502    1.3935   -6.0076 H   0  0  0  0  0  0  0  0  0  0  0  0
    1.1268    1.6454   -2.2791 H   0  0  0  0  0  0  0  0  0  0  0  0
    1.5103   -0.0480   -1.9120 H   0  0  0  0  0  0  0  0  0  0  0  0
    0.4855   -1.0693   -0.1823 H   0  0  0  0  0  0  0  0  0  0  0  0
   -1.1064    0.6771    1.5224 H   0  0  0  0  0  0  0  0  0  0  0  0
   -3.8364   -2.7492    0.6957 H   0  0  0  0  0  0  0  0  0  0  0  0
   -5.9536   -2.7101    1.9701 H   0  0  0  0  0  0  0  0  0  0  0  0
   -4.2961    0.2267    4.6481 H   0  0  0  0  0  0  0  0  0  0  0  0
   -2.1772    0.1879    3.4059 H   0  0  0  0  0  0  0  0  0  0  0  0
  1  2  1  0
  2  3  2  0
  3  4  1  0
  4  5  2  0
  5  6  1  0
  6  7  1  0
  7  8  1  0
  8  9  2  0
  8 10  1  0
 10 11  1  0
 11 12  1  0
 12 13  2  0
 12 14  1  0
 14 15  2  0
 15 16  1  0
 16 17  2  0
 17 18  1  0
 17 19  1  0
 19 20  2  0
  5 21  1  0
 21  2  1  0
 20 14  1  0
  1 22  1  0
  1 23  1  0
  7 24  1  0
  7 25  1  0
 10 26  1  0
 11 27  1  0
 15 28  1  0
 16 29  1  0
 19 30  1  0
 20 31  1  0
M  END
$$$$
