
     RDKit          3D

 52 56  0  0  0  0  0  0  0  0999 V2000
   -1.0570    2.7683    1.8923 C   0  0  0  0  0  0  0  0  0  0  0  0
   -0.8915    2.3351    0.4464 C   0  0  0  0  0  0  0  0  0  0  0  0
   -1.0592    0.8261    0.2001 C   0  0  0  0  0  0  0  0  0  0  0  0
   -2.4052    0.2674    0.5993 C   0  0  0  0  0  0  0  0  0  0  0  0
   -3.3581    0.4519   -0.1506 O   0  0  0  0  0  0  0  0  0  0  0  0
   -2.6184   -0.4325    1.8984 C   0  0  0  0  0  0  0  0  0  0  0  0
   -3.8440   -1.0885    2.0955 C   0  0  0  0  0  0  0  0  0  0  0  0
   -4.1102   -1.7562    3.2943 C   0  0  0  0  0  0  0  0  0  0  0  0
   -3.1519   -1.7695    4.3040 C   0  0  0  0  0  0  0  0  0  0  0  0
   -3.4750   -2.5907    5.7799 Cl  0  0  0  0  0  0  0  0  0  0  0  0
   -1.9336   -1.1187    4.1238 C   0  0  0  0  0  0  0  0  0  0  0  0
   -1.6677   -0.4473    2.9246 C   0  0  0  0  0  0  0  0  0  0  0  0
   -0.5290    0.4280   -1.1829 C   0  0  0  0  0  0  0  0  0  0  0  0
   -1.2084   -0.5596   -2.0778 C   0  0  0  0  0  0  0  0  0  0  0  0
   -1.8798   -0.1674   -3.2445 C   0  0  0  0  0  0  0  0  0  0  0  0
   -2.4832   -1.1094   -4.0843 C   0  0  0  0  0  0  0  0  0  0  0  0
   -2.4263   -2.4660   -3.7703 C   0  0  0  0  0  0  0  0  0  0  0  0
   -1.7728   -2.8790   -2.6138 C   0  0  0  0  0  0  0  0  0  0  0  0
   -1.1795   -1.9234   -1.7892 C   0  0  0  0  0  0  0  0  0  0  0  0
   -0.5632   -2.4025   -0.6156 O   0  0  0  0  0  0  0  0  0  0  0  0
    0.0286   -1.5823    0.3502 C   0  0  0  0  0  0  0  0  0  0  0  0
    0.4556   -2.0507    1.3980 O   0  0  0  0  0  0  0  0  0  0  0  0
    0.1726   -0.1232    0.0395 C   0  0  0  0  0  0  0  0  0  0  0  0
    1.5328    0.4287    0.3517 C   0  0  0  0  0  0  0  0  0  0  0  0
    1.7098    0.9906    1.4223 O   0  0  0  0  0  0  0  0  0  0  0  0
    2.4517    0.2341   -0.6617 N   0  0  0  0  0  0  0  0  0  0  0  0
    3.7992    0.6498   -0.6853 C   0  0  0  0  0  0  0  0  0  0  0  0
    4.5445    0.3344   -1.8296 C   0  0  0  0  0  0  0  0  0  0  0  0
    5.8855    0.7129   -1.9349 C   0  0  0  0  0  0  0  0  0  0  0  0
    6.4947    1.4107   -0.8962 C   0  0  0  0  0  0  0  0  0  0  0  0
    5.7626    1.7278    0.2452 C   0  0  0  0  0  0  0  0  0  0  0  0
    4.4201    1.3493    0.3509 C   0  0  0  0  0  0  0  0  0  0  0  0
   -0.3151    2.2964    2.5412 H   0  0  0  0  0  0  0  0  0  0  0  0
   -0.9270    3.8525    1.9739 H   0  0  0  0  0  0  0  0  0  0  0  0
   -2.0536    2.5276    2.2735 H   0  0  0  0  0  0  0  0  0  0  0  0
   -1.6410    2.8601   -0.1600 H   0  0  0  0  0  0  0  0  0  0  0  0
    0.0830    2.6870    0.0881 H   0  0  0  0  0  0  0  0  0  0  0  0
   -4.6018   -1.0839    1.3130 H   0  0  0  0  0  0  0  0  0  0  0  0
   -5.0631   -2.2607    3.4305 H   0  0  0  0  0  0  0  0  0  0  0  0
   -1.1800   -1.1329    4.9079 H   0  0  0  0  0  0  0  0  0  0  0  0
   -0.7028    0.0414    2.8222 H   0  0  0  0  0  0  0  0  0  0  0  0
   -0.0033    1.2148   -1.7252 H   0  0  0  0  0  0  0  0  0  0  0  0
   -1.9479    0.8881   -3.5009 H   0  0  0  0  0  0  0  0  0  0  0  0
   -3.0060   -0.7804   -4.9793 H   0  0  0  0  0  0  0  0  0  0  0  0
   -2.9018   -3.1966   -4.4198 H   0  0  0  0  0  0  0  0  0  0  0  0
   -1.7363   -3.9323   -2.3509 H   0  0  0  0  0  0  0  0  0  0  0  0
    2.1386   -0.2714   -1.4812 H   0  0  0  0  0  0  0  0  0  0  0  0
    4.0965   -0.2110   -2.6560 H   0  0  0  0  0  0  0  0  0  0  0  0
    6.4540    0.4615   -2.8266 H   0  0  0  0  0  0  0  0  0  0  0  0
    7.5380    1.7055   -0.9731 H   0  0  0  0  0  0  0  0  0  0  0  0
    6.2343    2.2703    1.0610 H   0  0  0  0  0  0  0  0  0  0  0  0
    3.8918    1.6159    1.2608 H   0  0  0  0  0  0  0  0  0  0  0  0
  1  2  1  0
  2  3  1  0
  3  4  1  0
  4  5  2  0
  4  6  1  0
  6  7  2  0
  7  8  1  0
  8  9  2  0
  9 10  1  0
  9 11  1  0
 11 12  2  0
  3 13  1  0
 13 14  1  0
 14 15  2  0
 15 16  1  0
 16 17  2  0
 17 18  1  0
 18 19  2  0
 19 20  1  0
 20 21  1  0
 21 22  2  0
 21 23  1  0
 23 24  1  0
 24 25  2  0
 24 26  1  0
 26 27  1  0
 27 28  2  0
 28 29  1  0
 29 30  2  0
 30 31  1  0
 31 32  2  0
 23  3  1  0
 32 27  1  0
 12  6  1  0
 23 13  1  0
 19 14  1  0
  1 33  1  0
  1 34  1  0
  1 35  1  0
  2 36  1  0
  2 37  1  0
  7 38  1  0
  8 39  1  0
 11 40  1  0
 12 41  1  0
 13 42  1  0
 15 43  1  0
 16 44  1  0
 17 45  1  0
 18 46  1  0
 26 47  1  0
 28 48  1  0
 29 49  1  0
 30 50  1  0
 31 51  1  0
 32 52  1  0
M  END
$$$$
