
     RDKit          3D

 47 49  0  0  0  0  0  0  0  0999 V2000
    6.5139    2.4278    0.8566 C   0  0  0  0  0  0  0  0  0  0  0  0
    6.5485    1.0291    1.4528 C   0  0  0  0  0  0  0  0  0  0  0  0
    5.2496    0.2477    1.2491 C   0  0  0  0  0  0  0  0  0  0  0  0
    4.9537   -0.0610   -0.2222 C   0  0  0  0  0  0  0  0  0  0  0  0
    3.7666   -0.9076   -0.3642 N   0  0  0  0  0  0  0  0  0  0  0  0
    2.5213   -0.2978   -0.4041 C   0  0  0  0  0  0  0  0  0  0  0  0
    2.3288    0.9085   -0.3388 O   0  0  0  0  0  0  0  0  0  0  0  0
    1.4419   -1.3212   -0.5239 C   0  0  0  0  0  0  0  0  0  0  0  0
    0.1135   -1.1388   -0.6007 C   0  0  0  0  0  0  0  0  0  0  0  0
   -0.6000    0.1227   -0.6347 C   0  0  0  0  0  0  0  0  0  0  0  0
   -1.9176    0.4133   -0.4870 C   0  0  0  0  0  0  0  0  0  0  0  0
   -2.2232    1.8338   -0.7205 C   0  0  0  0  0  0  0  0  0  0  0  0
   -3.4606    2.3365   -0.7141 C   0  0  0  0  0  0  0  0  0  0  0  0
   -4.5896    1.4528   -0.4556 C   0  0  0  0  0  0  0  0  0  0  0  0
   -5.8873    1.9907   -0.4883 C   0  0  0  0  0  0  0  0  0  0  0  0
   -6.9897    1.1854   -0.2282 C   0  0  0  0  0  0  0  0  0  0  0  0
   -6.7968   -0.1567    0.0659 C   0  0  0  0  0  0  0  0  0  0  0  0
   -5.5026   -0.6940    0.0998 C   0  0  0  0  0  0  0  0  0  0  0  0
   -4.3593    0.0893   -0.1577 C   0  0  0  0  0  0  0  0  0  0  0  0
   -3.0121   -0.4235   -0.1444 N   0  0  0  0  0  0  0  0  0  0  0  0
   -2.8547   -1.7578    0.4602 C   0  0  0  0  0  0  0  0  0  0  0  0
   -3.0296   -2.8683   -0.5729 C   0  0  0  0  0  0  0  0  0  0  0  0
    2.1466   -2.9003   -0.5312 S   0  0  0  0  0  0  0  0  0  0  0  0
    3.7863   -2.2853   -0.3918 C   0  0  0  0  0  0  0  0  0  0  0  0
    5.1060   -3.3030   -0.3116 S   0  0  0  0  0  0  0  0  0  0  0  0
    6.4475    2.3972   -0.2348 H   0  0  0  0  0  0  0  0  0  0  0  0
    7.4288    2.9696    1.1173 H   0  0  0  0  0  0  0  0  0  0  0  0
    5.6618    2.9977    1.2402 H   0  0  0  0  0  0  0  0  0  0  0  0
    7.3904    0.4712    1.0267 H   0  0  0  0  0  0  0  0  0  0  0  0
    6.7374    1.1141    2.5296 H   0  0  0  0  0  0  0  0  0  0  0  0
    5.3212   -0.6910    1.8120 H   0  0  0  0  0  0  0  0  0  0  0  0
    4.4121    0.8031    1.6891 H   0  0  0  0  0  0  0  0  0  0  0  0
    5.8152   -0.5497   -0.6877 H   0  0  0  0  0  0  0  0  0  0  0  0
    4.7787    0.8700   -0.7727 H   0  0  0  0  0  0  0  0  0  0  0  0
   -0.4949   -2.0281   -0.6942 H   0  0  0  0  0  0  0  0  0  0  0  0
    0.0597    0.9595   -0.8681 H   0  0  0  0  0  0  0  0  0  0  0  0
   -1.4039    2.5206   -0.9192 H   0  0  0  0  0  0  0  0  0  0  0  0
   -3.6378    3.3894   -0.8971 H   0  0  0  0  0  0  0  0  0  0  0  0
   -6.0430    3.0423   -0.7159 H   0  0  0  0  0  0  0  0  0  0  0  0
   -7.9920    1.6034   -0.2551 H   0  0  0  0  0  0  0  0  0  0  0  0
   -7.6521   -0.7963    0.2689 H   0  0  0  0  0  0  0  0  0  0  0  0
   -5.4346   -1.7510    0.3292 H   0  0  0  0  0  0  0  0  0  0  0  0
   -1.8759   -1.8499    0.9416 H   0  0  0  0  0  0  0  0  0  0  0  0
   -3.5424   -1.9094    1.3018 H   0  0  0  0  0  0  0  0  0  0  0  0
   -2.4000   -2.7134   -1.4537 H   0  0  0  0  0  0  0  0  0  0  0  0
   -2.7705   -3.8354   -0.1304 H   0  0  0  0  0  0  0  0  0  0  0  0
   -4.0592   -2.9359   -0.9345 H   0  0  0  0  0  0  0  0  0  0  0  0
  1  2  1  0
  2  3  1  0
  3  4  1  0
  4  5  1  0
  5  6  1  0
  6  7  2  0
  6  8  1  0
  8  9  2  3
  9 10  1  0
 10 11  2  3
 11 12  1  0
 12 13  2  0
 13 14  1  0
 14 15  2  0
 15 16  1  0
 16 17  2  0
 17 18  1  0
 18 19  2  0
 19 20  1  0
 20 21  1  0
 21 22  1  0
  8 23  1  0
 23 24  1  0
 24 25  2  0
 24  5  1  0
 20 11  1  0
 19 14  1  0
  1 26  1  0
  1 27  1  0
  1 28  1  0
  2 29  1  0
  2 30  1  0
  3 31  1  0
  3 32  1  0
  4 33  1  0
  4 34  1  0
  9 35  1  0
 10 36  1  0
 12 37  1  0
 13 38  1  0
 15 39  1  0
 16 40  1  0
 17 41  1  0
 18 42  1  0
 21 43  1  0
 21 44  1  0
 22 45  1  0
 22 46  1  0
 22 47  1  0
M  END
$$$$
