
     RDKit          3D

 32 33  0  0  0  0  0  0  0  0999 V2000
   -5.6718    0.4482    0.0743 C   0  0  0  0  0  0  0  0  0  0  0  0
   -4.7442   -0.0563    1.1625 C   0  0  0  0  0  0  0  0  0  0  0  0
   -3.3816    0.0309    0.7214 O   0  0  0  0  0  0  0  0  0  0  0  0
   -2.9338   -1.0106   -0.0267 C   0  0  0  0  0  0  0  0  0  0  0  0
   -3.5602   -2.0199   -0.3003 O   0  0  0  0  0  0  0  0  0  0  0  0
   -1.5637   -0.7304   -0.5302 C   0  0  0  0  0  0  0  0  0  0  0  0
   -1.0287   -1.5857   -1.5038 C   0  0  0  0  0  0  0  0  0  0  0  0
    0.2444   -1.3461   -2.0300 C   0  0  0  0  0  0  0  0  0  0  0  0
    1.0073   -0.2528   -1.5873 C   0  0  0  0  0  0  0  0  0  0  0  0
    2.3802    0.0064   -2.1579 C   0  0  0  0  0  0  0  0  0  0  0  0
    3.6701   -1.0255   -1.4061 S   0  0  0  0  0  0  0  0  0  0  0  0
    4.1343   -0.0641   -0.0203 C   0  0  0  0  0  0  0  0  0  0  0  0
    3.6278    1.1210    0.2390 N   0  0  0  0  0  0  0  0  0  0  0  0
    4.1732    1.6813    1.3764 N   0  0  0  0  0  0  0  0  0  0  0  0
    5.0788    0.9107    1.9282 C   0  0  0  0  0  0  0  0  0  0  0  0
    5.7551    1.2119    3.0540 N   0  0  0  0  0  0  0  0  0  0  0  0
    5.3199   -0.5798    1.1067 S   0  0  0  0  0  0  0  0  0  0  0  0
    0.4738    0.5898   -0.6021 C   0  0  0  0  0  0  0  0  0  0  0  0
   -0.8019    0.3551   -0.0760 C   0  0  0  0  0  0  0  0  0  0  0  0
   -5.6381   -0.2055   -0.8032 H   0  0  0  0  0  0  0  0  0  0  0  0
   -6.7018    0.4973    0.4322 H   0  0  0  0  0  0  0  0  0  0  0  0
   -5.3645    1.4437   -0.2596 H   0  0  0  0  0  0  0  0  0  0  0  0
   -4.8371    0.5807    2.0473 H   0  0  0  0  0  0  0  0  0  0  0  0
   -4.9985   -1.0773    1.4689 H   0  0  0  0  0  0  0  0  0  0  0  0
   -1.6052   -2.4376   -1.8637 H   0  0  0  0  0  0  0  0  0  0  0  0
    0.6353   -2.0257   -2.7841 H   0  0  0  0  0  0  0  0  0  0  0  0
    2.6388    1.0716   -2.0970 H   0  0  0  0  0  0  0  0  0  0  0  0
    2.3602   -0.2226   -3.2287 H   0  0  0  0  0  0  0  0  0  0  0  0
    5.3491    1.9498    3.6165 H   0  0  0  0  0  0  0  0  0  0  0  0
    6.1175    0.4388    3.5975 H   0  0  0  0  0  0  0  0  0  0  0  0
    1.0492    1.4394   -0.2335 H   0  0  0  0  0  0  0  0  0  0  0  0
   -1.1839    1.0249    0.6859 H   0  0  0  0  0  0  0  0  0  0  0  0
  1  2  1  0
  2  3  1  0
  3  4  1  0
  4  5  2  0
  4  6  1  0
  6  7  2  0
  7  8  1  0
  8  9  2  0
  9 10  1  0
 10 11  1  0
 11 12  1  0
 12 13  2  0
 13 14  1  0
 14 15  2  0
 15 16  1  0
 15 17  1  0
  9 18  1  0
 18 19  2  0
 19  6  1  0
 17 12  1  0
  1 20  1  0
  1 21  1  0
  1 22  1  0
  2 23  1  0
  2 24  1  0
  7 25  1  0
  8 26  1  0
 10 27  1  0
 10 28  1  0
 16 29  1  0
 16 30  1  0
 18 31  1  0
 19 32  1  0
M  END
$$$$
