
     RDKit          3D

 55 58  0  0  0  0  0  0  0  0999 V2000
    1.7881   -1.5180   -0.1142 C   0  0  0  0  0  0  0  0  0  0  0  0
    2.5444   -0.4041    0.3427 O   0  0  0  0  0  0  0  0  0  0  0  0
    3.7316   -0.1404   -0.2872 C   0  0  0  0  0  0  0  0  0  0  0  0
    4.2779   -0.9204   -1.3121 C   0  0  0  0  0  0  0  0  0  0  0  0
    5.4977   -0.5706   -1.8972 C   0  0  0  0  0  0  0  0  0  0  0  0
    6.1822    0.5609   -1.4653 C   0  0  0  0  0  0  0  0  0  0  0  0
    5.6486    1.3447   -0.4446 C   0  0  0  0  0  0  0  0  0  0  0  0
    4.4259    1.0000    0.1595 C   0  0  0  0  0  0  0  0  0  0  0  0
    3.8638    1.8907    1.2430 C   0  0  0  0  0  0  0  0  0  0  0  0
    3.1381    3.0144    0.6673 N   0  0  0  0  0  0  0  0  0  0  0  0
    1.8454    3.6621    1.4891 S   0  0  0  0  0  6  0  0  0  0  0  0
    2.1386    3.6117    2.9041 O   0  0  0  0  0  0  0  0  0  0  0  0
    1.5219    4.9066    0.8257 O   0  0  0  0  0  0  0  0  0  0  0  0
    0.5499    2.5075    1.1182 C   0  0  0  0  0  0  0  0  0  0  0  0
    0.0919    1.6245    2.1084 C   0  0  0  0  0  0  0  0  0  0  0  0
   -0.9348    0.7174    1.8200 C   0  0  0  0  0  0  0  0  0  0  0  0
   -1.4843    0.7092    0.5462 C   0  0  0  0  0  0  0  0  0  0  0  0
   -1.0331    1.6082   -0.4238 C   0  0  0  0  0  0  0  0  0  0  0  0
   -0.0213    2.5192   -0.1577 C   0  0  0  0  0  0  0  0  0  0  0  0
   -1.8261    1.4897   -1.6841 C   0  0  0  0  0  0  0  0  0  0  0  0
   -2.6190    0.1874   -1.4392 C   0  0  0  0  0  0  0  0  0  0  0  0
   -2.0469   -0.9519   -2.2879 C   0  0  0  0  0  0  0  0  0  0  0  0
   -2.5082   -0.1091    0.0143 N   0  0  0  0  0  0  0  0  0  0  0  0
   -3.2399   -1.0503    0.7405 C   0  0  0  0  0  0  0  0  0  0  0  0
   -3.0113   -1.2941    1.9334 O   0  0  0  0  0  0  0  0  0  0  0  0
   -4.3925   -1.7963   -0.0085 C   0  0  0  0  0  0  0  0  0  0  0  0
   -5.6344   -2.2057    0.8331 C   0  0  0  0  0  0  0  0  0  0  0  0
   -5.0245   -3.6105    0.9708 C   0  0  0  0  0  0  0  0  0  0  0  0
   -4.1858   -3.3110   -0.2826 C   0  0  0  0  0  0  0  0  0  0  0  0
    2.3362   -2.4541    0.0333 H   0  0  0  0  0  0  0  0  0  0  0  0
    0.8745   -1.5732    0.4848 H   0  0  0  0  0  0  0  0  0  0  0  0
    1.4937   -1.3911   -1.1611 H   0  0  0  0  0  0  0  0  0  0  0  0
    3.7795   -1.8108   -1.6805 H   0  0  0  0  0  0  0  0  0  0  0  0
    5.9127   -1.1848   -2.6925 H   0  0  0  0  0  0  0  0  0  0  0  0
    7.1296    0.8327   -1.9233 H   0  0  0  0  0  0  0  0  0  0  0  0
    6.1911    2.2292   -0.1170 H   0  0  0  0  0  0  0  0  0  0  0  0
    4.6906    2.2811    1.8490 H   0  0  0  0  0  0  0  0  0  0  0  0
    3.2391    1.3081    1.9276 H   0  0  0  0  0  0  0  0  0  0  0  0
    3.5996    3.6273    0.0024 H   0  0  0  0  0  0  0  0  0  0  0  0
    0.5303    1.6324    3.1042 H   0  0  0  0  0  0  0  0  0  0  0  0
   -1.2695    0.0385    2.5969 H   0  0  0  0  0  0  0  0  0  0  0  0
    0.3128    3.2237   -0.9136 H   0  0  0  0  0  0  0  0  0  0  0  0
   -1.1907    1.4469   -2.5738 H   0  0  0  0  0  0  0  0  0  0  0  0
   -2.5083    2.3433   -1.7647 H   0  0  0  0  0  0  0  0  0  0  0  0
   -3.6692    0.3455   -1.7048 H   0  0  0  0  0  0  0  0  0  0  0  0
   -2.6006   -1.8822   -2.1417 H   0  0  0  0  0  0  0  0  0  0  0  0
   -1.0002   -1.1520   -2.0339 H   0  0  0  0  0  0  0  0  0  0  0  0
   -2.0973   -0.7016   -3.3528 H   0  0  0  0  0  0  0  0  0  0  0  0
   -4.7259   -1.2656   -0.9059 H   0  0  0  0  0  0  0  0  0  0  0  0
   -6.5724   -2.1863    0.2656 H   0  0  0  0  0  0  0  0  0  0  0  0
   -5.7846   -1.6665    1.7726 H   0  0  0  0  0  0  0  0  0  0  0  0
   -5.7274   -4.4428    0.8827 H   0  0  0  0  0  0  0  0  0  0  0  0
   -4.4270   -3.7457    1.8793 H   0  0  0  0  0  0  0  0  0  0  0  0
   -4.6464   -3.6525   -1.2169 H   0  0  0  0  0  0  0  0  0  0  0  0
   -3.1539   -3.6714   -0.2473 H   0  0  0  0  0  0  0  0  0  0  0  0
  1  2  1  0
  2  3  1  0
  3  4  2  0
  4  5  1  0
  5  6  2  0
  6  7  1  0
  7  8  2  0
  8  9  1  0
  9 10  1  0
 10 11  1  0
 11 12  2  0
 11 13  2  0
 11 14  1  0
 14 15  2  0
 15 16  1  0
 16 17  2  0
 17 18  1  0
 18 19  2  0
 18 20  1  0
 20 21  1  0
 21 22  1  0
 21 23  1  0
 23 24  1  0
 24 25  2  0
 24 26  1  0
 26 27  1  0
 27 28  1  0
 28 29  1  0
  8  3  1  0
 19 14  1  0
 29 26  1  0
 23 17  1  0
  1 30  1  0
  1 31  1  0
  1 32  1  0
  4 33  1  0
  5 34  1  0
  6 35  1  0
  7 36  1  0
  9 37  1  0
  9 38  1  0
 10 39  1  0
 15 40  1  0
 16 41  1  0
 19 42  1  0
 20 43  1  0
 20 44  1  0
 21 45  1  0
 22 46  1  0
 22 47  1  0
 22 48  1  0
 26 49  1  0
 27 50  1  0
 27 51  1  0
 28 52  1  0
 28 53  1  0
 29 54  1  0
 29 55  1  0
M  END
$$$$
