
     RDKit          3D

 46 48  0  0  0  0  0  0  0  0999 V2000
   -1.5291    1.0103   -2.2780 C   0  0  0  0  0  0  0  0  0  0  0  0
   -1.4377    1.9971   -1.1193 C   0  0  0  0  0  0  0  0  0  0  0  0
   -0.9784    1.4371    0.2390 C   0  0  0  0  0  0  0  0  0  0  0  0
   -1.8922   -0.0539    0.8160 S   0  0  0  0  0  0  0  0  0  0  0  0
   -3.3875    0.6403    1.3152 C   0  0  0  0  0  0  0  0  0  0  0  0
   -3.8061    1.8655    1.1219 N   0  0  0  0  0  0  0  0  0  0  0  0
   -5.0546    1.9033    1.6974 C   0  0  0  0  0  0  0  0  0  0  0  0
   -5.9683    2.9635    1.7865 C   0  0  0  0  0  0  0  0  0  0  0  0
   -7.1935    2.7406    2.4282 C   0  0  0  0  0  0  0  0  0  0  0  0
   -7.5025    1.4887    2.9691 C   0  0  0  0  0  0  0  0  0  0  0  0
   -6.6025    0.4185    2.8935 C   0  0  0  0  0  0  0  0  0  0  0  0
   -5.3893    0.6685    2.2500 C   0  0  0  0  0  0  0  0  0  0  0  0
   -4.2957   -0.1187    1.9947 N   0  0  0  0  0  0  0  0  0  0  0  0
    0.5348    1.1543    0.2208 C   0  0  0  0  0  0  0  0  0  0  0  0
    1.3259    2.0133    0.6052 O   0  0  0  0  0  0  0  0  0  0  0  0
    0.8815   -0.0772   -0.3104 N   0  0  0  0  0  0  0  0  0  0  0  0
    2.1696   -0.5971   -0.5370 C   0  0  0  0  0  0  0  0  0  0  0  0
    3.3507    0.1107   -0.3230 C   0  0  0  0  0  0  0  0  0  0  0  0
    4.5973   -0.4799   -0.5829 C   0  0  0  0  0  0  0  0  0  0  0  0
    4.6812   -1.7867   -1.0606 C   0  0  0  0  0  0  0  0  0  0  0  0
    5.8914   -2.4506   -1.3465 N   0  0  0  0  0  0  0  0  0  0  0  0
    7.1767   -1.9553   -1.2137 C   0  0  0  0  0  0  0  0  0  0  0  0
    8.2128   -2.9726   -1.6217 C   0  0  0  0  0  0  0  0  0  0  0  0
    7.5070   -0.8433   -0.8189 O   0  0  0  0  0  0  0  0  0  0  0  0
    3.4958   -2.4968   -1.2768 C   0  0  0  0  0  0  0  0  0  0  0  0
    2.2526   -1.9071   -1.0194 C   0  0  0  0  0  0  0  0  0  0  0  0
   -1.8544    1.5371   -3.1824 H   0  0  0  0  0  0  0  0  0  0  0  0
   -2.2556    0.2157   -2.0848 H   0  0  0  0  0  0  0  0  0  0  0  0
   -0.5606    0.5536   -2.5002 H   0  0  0  0  0  0  0  0  0  0  0  0
   -0.7530    2.8027   -1.4166 H   0  0  0  0  0  0  0  0  0  0  0  0
   -2.4190    2.4722   -1.0031 H   0  0  0  0  0  0  0  0  0  0  0  0
   -1.1168    2.2121    1.0049 H   0  0  0  0  0  0  0  0  0  0  0  0
   -5.7224    3.9328    1.3659 H   0  0  0  0  0  0  0  0  0  0  0  0
   -7.9123    3.5534    2.5033 H   0  0  0  0  0  0  0  0  0  0  0  0
   -8.4633    1.3420    3.4593 H   0  0  0  0  0  0  0  0  0  0  0  0
   -6.8446   -0.5517    3.3141 H   0  0  0  0  0  0  0  0  0  0  0  0
   -4.1681   -1.0828    2.2632 H   0  0  0  0  0  0  0  0  0  0  0  0
    0.1045   -0.6999   -0.4993 H   0  0  0  0  0  0  0  0  0  0  0  0
    3.3476    1.1329    0.0441 H   0  0  0  0  0  0  0  0  0  0  0  0
    5.4836    0.1201   -0.3982 H   0  0  0  0  0  0  0  0  0  0  0  0
    5.8072   -3.4008   -1.6849 H   0  0  0  0  0  0  0  0  0  0  0  0
    8.0311   -3.3011   -2.6492 H   0  0  0  0  0  0  0  0  0  0  0  0
    8.1750   -3.8305   -0.9447 H   0  0  0  0  0  0  0  0  0  0  0  0
    9.2093   -2.5251   -1.5693 H   0  0  0  0  0  0  0  0  0  0  0  0
    3.5178   -3.5175   -1.6497 H   0  0  0  0  0  0  0  0  0  0  0  0
    1.3540   -2.4907   -1.2018 H   0  0  0  0  0  0  0  0  0  0  0  0
  1  2  1  0
  2  3  1  0
  3  4  1  0
  4  5  1  0
  5  6  2  0
  6  7  1  0
  7  8  2  0
  8  9  1  0
  9 10  2  0
 10 11  1  0
 11 12  2  0
 12 13  1  0
  3 14  1  0
 14 15  2  0
 14 16  1  0
 16 17  1  0
 17 18  2  0
 18 19  1  0
 19 20  2  0
 20 21  1  0
 21 22  1  0
 22 23  1  0
 22 24  2  0
 20 25  1  0
 25 26  2  0
 13  5  1  0
 26 17  1  0
 12  7  1  0
  1 27  1  0
  1 28  1  0
  1 29  1  0
  2 30  1  0
  2 31  1  0
  3 32  1  0
  8 33  1  0
  9 34  1  0
 10 35  1  0
 11 36  1  0
 13 37  1  0
 16 38  1  0
 18 39  1  0
 19 40  1  0
 21 41  1  0
 23 42  1  0
 23 43  1  0
 23 44  1  0
 25 45  1  0
 26 46  1  0
M  END
$$$$
