
     RDKit          3D

 52 55  0  0  0  0  0  0  0  0999 V2000
   -1.8248    0.8496    0.1542 O   0  0  0  0  0  0  0  0  0  0  0  0
   -1.1948   -0.2068    0.0892 C   0  0  0  0  0  0  0  0  0  0  0  0
   -1.8246   -1.4344    0.2328 N   0  0  0  0  0  0  0  0  0  0  0  0
   -3.2578   -1.5362    0.4560 C   0  0  0  0  0  0  0  0  0  0  0  0
   -3.7729   -2.9365    0.1378 C   0  0  0  0  0  0  0  0  0  0  0  0
   -3.4819   -3.7601    1.3913 C   0  0  0  0  0  0  0  0  0  0  0  0
   -3.3288   -2.7583    2.5357 C   0  0  0  0  0  0  0  0  0  0  0  0
   -3.6093   -1.3840    1.9340 C   0  0  0  0  0  0  0  0  0  0  0  0
    0.3602   -0.2647   -0.0067 C   0  0  0  0  0  0  0  0  0  0  0  0
    0.9559   -1.4433   -0.7809 C   0  0  0  0  0  0  0  0  0  0  0  0
    2.1345   -2.0493   -0.3227 C   0  0  0  0  0  0  0  0  0  0  0  0
    2.6653   -3.1146   -1.0346 C   0  0  0  0  0  0  0  0  0  0  0  0
    2.1159   -3.6112   -2.1604 N   0  0  0  0  0  0  0  0  0  0  0  0
    0.9968   -3.0044   -2.6068 C   0  0  0  0  0  0  0  0  0  0  0  0
    0.3895   -1.9381   -1.9622 C   0  0  0  0  0  0  0  0  0  0  0  0
    0.9605    1.0306   -0.4005 N   0  0  0  0  0  0  0  0  0  0  0  0
    0.7169    1.4812   -1.7175 C   0  0  0  0  0  0  0  0  0  0  0  0
   -0.1337    0.9446   -2.4295 O   0  0  0  0  0  0  0  0  0  0  0  0
    1.5823    2.5341   -2.2434 C   0  0  0  0  0  0  0  0  0  0  0  0
    2.8435    2.9953   -1.8997 C   0  0  0  0  0  0  0  0  0  0  0  0
    3.1706    4.0306   -2.8085 C   0  0  0  0  0  0  0  0  0  0  0  0
    2.1027    4.1349   -3.6652 C   0  0  0  0  0  0  0  0  0  0  0  0
    1.1436    3.2335   -3.3404 O   0  0  0  0  0  0  0  0  0  0  0  0
    1.2759    1.9347    0.6664 C   0  0  0  0  0  0  0  0  0  0  0  0
    2.1031    1.5212    1.7198 C   0  0  0  0  0  0  0  0  0  0  0  0
    2.4183    2.3946    2.7642 C   0  0  0  0  0  0  0  0  0  0  0  0
    1.9038    3.6884    2.7712 C   0  0  0  0  0  0  0  0  0  0  0  0
    1.0725    4.1090    1.7366 C   0  0  0  0  0  0  0  0  0  0  0  0
    0.7586    3.2375    0.6909 C   0  0  0  0  0  0  0  0  0  0  0  0
   -1.2611   -2.2720    0.3158 H   0  0  0  0  0  0  0  0  0  0  0  0
   -3.7595   -0.7766   -0.1527 H   0  0  0  0  0  0  0  0  0  0  0  0
   -3.3149   -3.3745   -0.7543 H   0  0  0  0  0  0  0  0  0  0  0  0
   -4.8573   -2.9018   -0.0225 H   0  0  0  0  0  0  0  0  0  0  0  0
   -4.2858   -4.4777    1.5853 H   0  0  0  0  0  0  0  0  0  0  0  0
   -2.5555   -4.3326    1.2707 H   0  0  0  0  0  0  0  0  0  0  0  0
   -4.0076   -2.9785    3.3649 H   0  0  0  0  0  0  0  0  0  0  0  0
   -2.3069   -2.7989    2.9295 H   0  0  0  0  0  0  0  0  0  0  0  0
   -3.0449   -0.5952    2.4409 H   0  0  0  0  0  0  0  0  0  0  0  0
   -4.6772   -1.1555    2.0376 H   0  0  0  0  0  0  0  0  0  0  0  0
    0.6307   -0.4604    1.0412 H   0  0  0  0  0  0  0  0  0  0  0  0
    2.6399   -1.7061    0.5733 H   0  0  0  0  0  0  0  0  0  0  0  0
    3.5753   -3.6098   -0.7075 H   0  0  0  0  0  0  0  0  0  0  0  0
    0.5848   -3.4066   -3.5284 H   0  0  0  0  0  0  0  0  0  0  0  0
   -0.5073   -1.5008   -2.3941 H   0  0  0  0  0  0  0  0  0  0  0  0
    3.4577    2.6243   -1.0914 H   0  0  0  0  0  0  0  0  0  0  0  0
    4.0754    4.6209   -2.8408 H   0  0  0  0  0  0  0  0  0  0  0  0
    1.8827    4.7625   -4.5175 H   0  0  0  0  0  0  0  0  0  0  0  0
    2.5456    0.5300    1.7283 H   0  0  0  0  0  0  0  0  0  0  0  0
    3.0698    2.0667    3.5705 H   0  0  0  0  0  0  0  0  0  0  0  0
    2.1456    4.3680    3.5845 H   0  0  0  0  0  0  0  0  0  0  0  0
    0.6563    5.1134    1.7453 H   0  0  0  0  0  0  0  0  0  0  0  0
    0.0721    3.5834   -0.0797 H   0  0  0  0  0  0  0  0  0  0  0  0
  1  2  2  0
  2  3  1  0
  3  4  1  0
  4  5  1  0
  5  6  1  0
  6  7  1  0
  7  8  1  0
  2  9  1  0
  9 10  1  0
 10 11  2  0
 11 12  1  0
 12 13  2  0
 13 14  1  0
 14 15  2  0
  9 16  1  0
 16 17  1  0
 17 18  2  0
 17 19  1  0
 19 20  2  0
 20 21  1  0
 21 22  2  0
 22 23  1  0
 16 24  1  0
 24 25  2  0
 25 26  1  0
 26 27  2  0
 27 28  1  0
 28 29  2  0
  8  4  1  0
 15 10  1  0
 23 19  1  0
 29 24  1  0
  3 30  1  0
  4 31  1  0
  5 32  1  0
  5 33  1  0
  6 34  1  0
  6 35  1  0
  7 36  1  0
  7 37  1  0
  8 38  1  0
  8 39  1  0
  9 40  1  0
 11 41  1  0
 12 42  1  0
 14 43  1  0
 15 44  1  0
 20 45  1  0
 21 46  1  0
 22 47  1  0
 25 48  1  0
 26 49  1  0
 27 50  1  0
 28 51  1  0
 29 52  1  0
M  END
$$$$
