
     RDKit          3D

 71 76  0  0  0  0  0  0  0  0999 V2000
   11.6232    1.2424   -0.0326 C   0  0  0  0  0  0  0  0  0  0  0  0
   10.5994    1.6443   -0.9326 O   0  0  0  0  0  0  0  0  0  0  0  0
    9.3643    1.0902   -0.7411 C   0  0  0  0  0  0  0  0  0  0  0  0
    9.0558    0.0526    0.1311 C   0  0  0  0  0  0  0  0  0  0  0  0
    7.7387   -0.4229    0.2260 C   0  0  0  0  0  0  0  0  0  0  0  0
    6.6901    0.1194   -0.5323 C   0  0  0  0  0  0  0  0  0  0  0  0
    5.3883   -0.3475   -0.4348 N   0  0  0  0  0  0  0  0  0  0  0  0
    4.2507    0.5355   -0.7459 C   0  0  0  0  0  0  0  0  0  0  0  0
    2.9813    0.1374    0.0334 C   0  0  0  0  0  0  0  0  0  0  0  0
    2.6095   -1.2668   -0.1762 N   0  0  0  0  0  0  0  0  0  0  0  0
    1.3217   -1.7839   -0.2036 C   0  0  0  0  0  0  0  0  0  0  0  0
    1.1317   -2.9948   -0.3420 O   0  0  0  0  0  0  0  0  0  0  0  0
    0.1485   -0.8101   -0.1044 C   0  0  0  0  0  0  0  0  0  0  0  0
   -0.0181   -0.0213   -1.4190 C   0  0  0  0  0  0  0  0  0  0  0  0
   -1.3319   -0.3321   -2.1261 C   0  0  0  0  0  0  0  0  0  0  0  0
   -2.5291   -0.1170   -1.1990 C   0  0  0  0  0  0  0  0  0  0  0  0
   -2.2950   -0.6944    0.1293 N   0  0  0  0  0  0  0  0  0  0  0  0
   -3.4461   -1.0367    0.8535 C   0  0  0  0  0  0  0  0  0  0  0  0
   -3.3892   -2.0616    1.7590 N   0  0  0  0  0  0  0  0  0  0  0  0
   -4.4905   -2.4016    2.4588 C   0  0  0  0  0  0  0  0  0  0  0  0
   -5.7129   -1.8453    2.4094 N   0  0  0  0  0  0  0  0  0  0  0  0
   -5.7391   -0.8307    1.5297 C   0  0  0  0  0  0  0  0  0  0  0  0
   -4.6982   -0.3735    0.7388 C   0  0  0  0  0  0  0  0  0  0  0  0
   -5.1312    0.6858   -0.0383 N   0  0  0  0  0  0  0  0  0  0  0  0
   -6.4034    0.8723    0.2667 C   0  0  0  0  0  0  0  0  0  0  0  0
   -6.8124   -0.0315    1.2234 N   0  0  0  0  0  0  0  0  0  0  0  0
   -8.1278   -0.1898    1.8127 C   0  0  0  0  0  0  0  0  0  0  0  0
   -8.9407    1.0937    1.9362 C   0  0  0  0  0  0  0  0  0  0  0  0
   -9.5911    1.5380    0.6268 C   0  0  0  0  0  0  0  0  0  0  0  0
   -8.6919    1.4895   -0.6092 C   0  0  0  0  0  0  0  0  0  0  0  0
   -7.2601    1.9374   -0.3413 C   0  0  0  0  0  0  0  0  0  0  0  0
   -1.1308   -1.5741    0.2861 C   0  0  0  0  0  0  0  0  0  0  0  0
    3.7304   -2.2026   -0.3299 C   0  0  0  0  0  0  0  0  0  0  0  0
    5.0783   -1.6529    0.1711 C   0  0  0  0  0  0  0  0  0  0  0  0
    7.0339    1.1581   -1.4106 C   0  0  0  0  0  0  0  0  0  0  0  0
    8.3469    1.6342   -1.5184 C   0  0  0  0  0  0  0  0  0  0  0  0
   11.3376    1.4316    1.0076 H   0  0  0  0  0  0  0  0  0  0  0  0
   12.5124    1.8426   -0.2452 H   0  0  0  0  0  0  0  0  0  0  0  0
   11.8861    0.1904   -0.1830 H   0  0  0  0  0  0  0  0  0  0  0  0
    9.8106   -0.4158    0.7532 H   0  0  0  0  0  0  0  0  0  0  0  0
    7.5499   -1.2231    0.9359 H   0  0  0  0  0  0  0  0  0  0  0  0
    4.0476    0.4860   -1.8224 H   0  0  0  0  0  0  0  0  0  0  0  0
    4.4801    1.5760   -0.4880 H   0  0  0  0  0  0  0  0  0  0  0  0
    2.1684    0.8118   -0.2365 H   0  0  0  0  0  0  0  0  0  0  0  0
    3.1529    0.2549    1.1102 H   0  0  0  0  0  0  0  0  0  0  0  0
    0.3667   -0.1045    0.7077 H   0  0  0  0  0  0  0  0  0  0  0  0
    0.8128   -0.2033   -2.1116 H   0  0  0  0  0  0  0  0  0  0  0  0
    0.0006    1.0518   -1.1884 H   0  0  0  0  0  0  0  0  0  0  0  0
   -1.3180   -1.3714   -2.4789 H   0  0  0  0  0  0  0  0  0  0  0  0
   -1.4379    0.2981   -3.0168 H   0  0  0  0  0  0  0  0  0  0  0  0
   -2.7036    0.9612   -1.0918 H   0  0  0  0  0  0  0  0  0  0  0  0
   -3.4062   -0.5601   -1.6909 H   0  0  0  0  0  0  0  0  0  0  0  0
   -4.3709   -3.2318    3.1493 H   0  0  0  0  0  0  0  0  0  0  0  0
   -8.6589   -0.9465    1.2235 H   0  0  0  0  0  0  0  0  0  0  0  0
   -7.9804   -0.5945    2.8209 H   0  0  0  0  0  0  0  0  0  0  0  0
   -9.7416    0.9356    2.6694 H   0  0  0  0  0  0  0  0  0  0  0  0
   -8.3160    1.9019    2.3367 H   0  0  0  0  0  0  0  0  0  0  0  0
  -10.4749    0.9181    0.4315 H   0  0  0  0  0  0  0  0  0  0  0  0
   -9.9653    2.5602    0.7586 H   0  0  0  0  0  0  0  0  0  0  0  0
   -9.1343    2.1442   -1.3712 H   0  0  0  0  0  0  0  0  0  0  0  0
   -8.7018    0.4768   -1.0337 H   0  0  0  0  0  0  0  0  0  0  0  0
   -6.8045    2.2218   -1.2988 H   0  0  0  0  0  0  0  0  0  0  0  0
   -7.2395    2.8346    0.2900 H   0  0  0  0  0  0  0  0  0  0  0  0
   -1.2745   -2.4803   -0.3177 H   0  0  0  0  0  0  0  0  0  0  0  0
   -1.0038   -1.9013    1.3266 H   0  0  0  0  0  0  0  0  0  0  0  0
    3.7974   -2.4295   -1.4018 H   0  0  0  0  0  0  0  0  0  0  0  0
    3.5035   -3.1396    0.1909 H   0  0  0  0  0  0  0  0  0  0  0  0
    5.0489   -1.5454    1.2621 H   0  0  0  0  0  0  0  0  0  0  0  0
    5.8478   -2.3925   -0.0782 H   0  0  0  0  0  0  0  0  0  0  0  0
    6.2841    1.6052   -2.0561 H   0  0  0  0  0  0  0  0  0  0  0  0
    8.5713    2.4357   -2.2178 H   0  0  0  0  0  0  0  0  0  0  0  0
  1  2  1  0
  2  3  1  0
  3  4  2  0
  4  5  1  0
  5  6  2  0
  6  7  1  0
  7  8  1  0
  8  9  1  0
  9 10  1  0
 10 11  1  0
 11 12  2  0
 11 13  1  0
 13 14  1  0
 14 15  1  0
 15 16  1  0
 16 17  1  0
 17 18  1  0
 18 19  2  0
 19 20  1  0
 20 21  2  0
 21 22  1  0
 22 23  2  0
 23 24  1  0
 24 25  2  0
 25 26  1  0
 26 27  1  0
 27 28  1  0
 28 29  1  0
 29 30  1  0
 30 31  1  0
 17 32  1  0
 10 33  1  0
 33 34  1  0
  6 35  1  0
 35 36  2  0
 36  3  1  0
 34  7  1  0
 32 13  1  0
 23 18  1  0
 31 25  1  0
 26 22  1  0
  1 37  1  0
  1 38  1  0
  1 39  1  0
  4 40  1  0
  5 41  1  0
  8 42  1  0
  8 43  1  0
  9 44  1  0
  9 45  1  0
 13 46  1  0
 14 47  1  0
 14 48  1  0
 15 49  1  0
 15 50  1  0
 16 51  1  0
 16 52  1  0
 20 53  1  0
 27 54  1  0
 27 55  1  0
 28 56  1  0
 28 57  1  0
 29 58  1  0
 29 59  1  0
 30 60  1  0
 30 61  1  0
 31 62  1  0
 31 63  1  0
 32 64  1  0
 32 65  1  0
 33 66  1  0
 33 67  1  0
 34 68  1  0
 34 69  1  0
 35 70  1  0
 36 71  1  0
M  END
$$$$
