
     RDKit          3D

 38 40  0  0  0  0  0  0  0  0999 V2000
    1.7340    1.5406    1.0740 O   0  0  0  0  0  0  0  0  0  0  0  0
    2.1231    1.0288    0.0275 C   0  0  0  0  0  0  0  0  0  0  0  0
    1.2592    0.4814   -0.9024 N   0  0  0  0  0  0  0  0  0  0  0  0
   -0.0862    0.3551   -0.5187 N   0  0  0  0  0  0  0  0  0  0  0  0
   -0.7310   -0.8314   -0.8210 C   0  0  0  0  0  0  0  0  0  0  0  0
   -0.2307   -1.6714   -1.5697 O   0  0  0  0  0  0  0  0  0  0  0  0
   -2.0584   -1.0174   -0.0898 C   0  0  0  0  0  0  0  0  0  0  0  0
   -2.8652   -2.1391   -0.7288 C   0  0  0  0  0  0  0  0  0  0  0  0
   -4.0610   -2.3918    0.0225 O   0  0  0  0  0  0  0  0  0  0  0  0
   -4.7014   -1.2256    0.3529 C   0  0  0  0  0  0  0  0  0  0  0  0
   -6.0188   -1.3370    0.7930 C   0  0  0  0  0  0  0  0  0  0  0  0
   -6.7393   -0.1893    1.1274 C   0  0  0  0  0  0  0  0  0  0  0  0
   -6.1406    1.0675    1.0235 C   0  0  0  0  0  0  0  0  0  0  0  0
   -4.8165    1.1783    0.5956 C   0  0  0  0  0  0  0  0  0  0  0  0
   -4.0930    0.0311    0.2750 C   0  0  0  0  0  0  0  0  0  0  0  0
   -2.7916    0.2128   -0.1153 O   0  0  0  0  0  0  0  0  0  0  0  0
    3.5774    0.9407   -0.2777 C   0  0  0  0  0  0  0  0  0  0  0  0
    4.0555    0.8167   -1.5909 C   0  0  0  0  0  0  0  0  0  0  0  0
    5.4298    0.7452   -1.8367 C   0  0  0  0  0  0  0  0  0  0  0  0
    6.3354    0.8036   -0.7768 C   0  0  0  0  0  0  0  0  0  0  0  0
    5.8581    0.9405    0.5339 C   0  0  0  0  0  0  0  0  0  0  0  0
    6.8109    1.0068    1.6491 N   0  0  0  0  0  4  0  0  0  0  0  0
    6.3521    1.0205    2.7994 O   0  0  0  0  0  0  0  0  0  0  0  0
    8.0182    1.0403    1.3723 O   0  0  0  0  0  1  0  0  0  0  0  0
    4.4830    1.0135    0.7896 C   0  0  0  0  0  0  0  0  0  0  0  0
    1.5767   -0.2111   -1.5800 H   0  0  0  0  0  0  0  0  0  0  0  0
   -0.3838    0.9267    0.2741 H   0  0  0  0  0  0  0  0  0  0  0  0
   -1.8253   -1.2568    0.9569 H   0  0  0  0  0  0  0  0  0  0  0  0
   -2.2941   -3.0736   -0.7501 H   0  0  0  0  0  0  0  0  0  0  0  0
   -3.1486   -1.8994   -1.7621 H   0  0  0  0  0  0  0  0  0  0  0  0
   -6.4868   -2.3148    0.8652 H   0  0  0  0  0  0  0  0  0  0  0  0
   -7.7693   -0.2749    1.4647 H   0  0  0  0  0  0  0  0  0  0  0  0
   -6.7045    1.9609    1.2799 H   0  0  0  0  0  0  0  0  0  0  0  0
   -4.3493    2.1564    0.5226 H   0  0  0  0  0  0  0  0  0  0  0  0
    3.3766    0.8000   -2.4404 H   0  0  0  0  0  0  0  0  0  0  0  0
    5.7955    0.6523   -2.8579 H   0  0  0  0  0  0  0  0  0  0  0  0
    7.4023    0.7476   -0.9870 H   0  0  0  0  0  0  0  0  0  0  0  0
    4.1076    1.1253    1.8063 H   0  0  0  0  0  0  0  0  0  0  0  0
  1  2  2  0
  2  3  1  0
  3  4  1  0
  4  5  1  0
  5  6  2  0
  5  7  1  0
  7  8  1  0
  8  9  1  0
  9 10  1  0
 10 11  2  0
 11 12  1  0
 12 13  2  0
 13 14  1  0
 14 15  2  0
 15 16  1  0
  2 17  1  0
 17 18  2  0
 18 19  1  0
 19 20  2  0
 20 21  1  0
 21 22  1  0
 22 23  2  0
 22 24  1  0
 21 25  2  0
 16  7  1  0
 25 17  1  0
 15 10  1  0
  3 26  1  0
  4 27  1  0
  7 28  1  0
  8 29  1  0
  8 30  1  0
 11 31  1  0
 12 32  1  0
 13 33  1  0
 14 34  1  0
 18 35  1  0
 19 36  1  0
 20 37  1  0
 25 38  1  0
M  CHG  2  22   1  24  -1
M  END
$$$$
