
     RDKit          3D

 46 48  0  0  0  0  0  0  0  0999 V2000
    5.6807    2.3706   -1.4084 C   0  0  0  0  0  0  0  0  0  0  0  0
    5.5435    1.1605   -0.6754 O   0  0  0  0  0  0  0  0  0  0  0  0
    4.6694    1.3171    0.4440 C   0  0  0  0  0  0  0  0  0  0  0  0
    4.5526   -0.0166    1.1914 C   0  0  0  0  0  0  0  0  0  0  0  0
    3.9222   -1.0563    0.3714 N   0  0  0  0  0  0  0  0  0  0  0  0
    2.5523   -0.9837    0.1716 C   0  0  0  0  0  0  0  0  0  0  0  0
    1.8213   -0.1377    0.6670 O   0  0  0  0  0  0  0  0  0  0  0  0
    2.1019   -2.0772   -0.7346 C   0  0  0  0  0  0  0  0  0  0  0  0
    0.8563   -2.3423   -1.1520 C   0  0  0  0  0  0  0  0  0  0  0  0
   -0.3467   -1.5865   -0.7914 C   0  0  0  0  0  0  0  0  0  0  0  0
   -0.7308   -0.5178   -1.6032 C   0  0  0  0  0  0  0  0  0  0  0  0
   -1.8804    0.2251   -1.3068 C   0  0  0  0  0  0  0  0  0  0  0  0
   -2.6867   -0.0617   -0.1974 C   0  0  0  0  0  0  0  0  0  0  0  0
   -3.8163    0.6694    0.0873 N   0  0  0  0  0  0  0  0  0  0  0  0
   -4.1826    1.9096   -0.5931 C   0  0  0  0  0  0  0  0  0  0  0  0
   -5.2655    2.5146    0.2975 C   0  0  0  0  0  0  0  0  0  0  0  0
   -5.9268    1.2944    0.9134 C   0  0  0  0  0  0  0  0  0  0  0  0
   -4.7480    0.3590    1.1681 C   0  0  0  0  0  0  0  0  0  0  0  0
   -2.2790   -1.1431    0.6022 C   0  0  0  0  0  0  0  0  0  0  0  0
   -1.1293   -1.9127    0.3248 C   0  0  0  0  0  0  0  0  0  0  0  0
   -0.7618   -3.0421    1.2476 C   0  0  0  0  0  0  0  0  0  0  0  0
    3.4576   -3.0275   -1.2182 S   0  0  0  0  0  0  0  0  0  0  0  0
    4.5965   -2.0645   -0.2831 C   0  0  0  0  0  0  0  0  0  0  0  0
    6.2229   -2.4356   -0.2403 S   0  0  0  0  0  0  0  0  0  0  0  0
    6.3612    2.1910   -2.2450 H   0  0  0  0  0  0  0  0  0  0  0  0
    6.1042    3.1561   -0.7751 H   0  0  0  0  0  0  0  0  0  0  0  0
    4.7125    2.6882   -1.8073 H   0  0  0  0  0  0  0  0  0  0  0  0
    5.0845    2.0729    1.1204 H   0  0  0  0  0  0  0  0  0  0  0  0
    3.6892    1.6595    0.0946 H   0  0  0  0  0  0  0  0  0  0  0  0
    3.9382    0.1296    2.0876 H   0  0  0  0  0  0  0  0  0  0  0  0
    5.5430   -0.3439    1.5188 H   0  0  0  0  0  0  0  0  0  0  0  0
    0.6650   -3.1803   -1.8189 H   0  0  0  0  0  0  0  0  0  0  0  0
   -0.1423   -0.2467   -2.4762 H   0  0  0  0  0  0  0  0  0  0  0  0
   -2.1356    1.0399   -1.9777 H   0  0  0  0  0  0  0  0  0  0  0  0
   -3.3426    2.6063   -0.6872 H   0  0  0  0  0  0  0  0  0  0  0  0
   -4.5834    1.6868   -1.5885 H   0  0  0  0  0  0  0  0  0  0  0  0
   -4.8068    3.1269    1.0834 H   0  0  0  0  0  0  0  0  0  0  0  0
   -5.9645    3.1428   -0.2615 H   0  0  0  0  0  0  0  0  0  0  0  0
   -6.6189    0.8412    0.1934 H   0  0  0  0  0  0  0  0  0  0  0  0
   -6.4832    1.5253    1.8259 H   0  0  0  0  0  0  0  0  0  0  0  0
   -4.2879    0.5781    2.1386 H   0  0  0  0  0  0  0  0  0  0  0  0
   -5.0823   -0.6838    1.1505 H   0  0  0  0  0  0  0  0  0  0  0  0
   -2.8610   -1.4021    1.4828 H   0  0  0  0  0  0  0  0  0  0  0  0
   -0.6247   -3.9708    0.6841 H   0  0  0  0  0  0  0  0  0  0  0  0
   -1.5468   -3.2280    1.9883 H   0  0  0  0  0  0  0  0  0  0  0  0
    0.1589   -2.8038    1.7895 H   0  0  0  0  0  0  0  0  0  0  0  0
  1  2  1  0
  2  3  1  0
  3  4  1  0
  4  5  1  0
  5  6  1  0
  6  7  2  0
  6  8  1  0
  8  9  2  3
  9 10  1  0
 10 11  2  0
 11 12  1  0
 12 13  2  0
 13 14  1  0
 14 15  1  0
 15 16  1  0
 16 17  1  0
 17 18  1  0
 13 19  1  0
 19 20  2  0
 20 21  1  0
  8 22  1  0
 22 23  1  0
 23 24  2  0
 23  5  1  0
 20 10  1  0
 18 14  1  0
  1 25  1  0
  1 26  1  0
  1 27  1  0
  3 28  1  0
  3 29  1  0
  4 30  1  0
  4 31  1  0
  9 32  1  0
 11 33  1  0
 12 34  1  0
 15 35  1  0
 15 36  1  0
 16 37  1  0
 16 38  1  0
 17 39  1  0
 17 40  1  0
 18 41  1  0
 18 42  1  0
 19 43  1  0
 21 44  1  0
 21 45  1  0
 21 46  1  0
M  END
$$$$
