
     RDKit          3D

 47 49  0  0  0  0  0  0  0  0999 V2000
    4.2751    4.0765   -1.7104 C   0  0  0  0  0  0  0  0  0  0  0  0
    3.4422    2.8334   -1.5561 C   0  0  0  0  0  0  0  0  0  0  0  0
    3.7436    1.9287   -0.5285 C   0  0  0  0  0  0  0  0  0  0  0  0
    2.9934    0.7642   -0.3555 C   0  0  0  0  0  0  0  0  0  0  0  0
    1.9248    0.4711   -1.2102 C   0  0  0  0  0  0  0  0  0  0  0  0
    1.1021   -0.7861   -0.9884 C   0  0  0  0  0  0  0  0  0  0  0  0
    1.0093   -1.6435   -2.2545 C   0  0  0  0  0  0  0  0  0  0  0  0
   -0.2136   -0.4153   -0.4933 N   0  0  0  0  0  0  0  0  0  0  0  0
   -1.0308   -1.3182    0.1494 C   0  0  0  0  0  0  0  0  0  0  0  0
   -0.7229   -2.4940    0.3037 O   0  0  0  0  0  0  0  0  0  0  0  0
   -2.2664   -0.7607    0.6598 C   0  0  0  0  0  0  0  0  0  0  0  0
   -3.0039   -1.1268    1.8317 C   0  0  0  0  0  0  0  0  0  0  0  0
   -2.6911   -2.1126    2.8679 C   0  0  0  0  0  0  0  0  0  0  0  0
   -1.3873   -2.2681    3.3578 C   0  0  0  0  0  0  0  0  0  0  0  0
   -1.1110   -3.2059    4.3572 C   0  0  0  0  0  0  0  0  0  0  0  0
   -2.1350   -3.9914    4.8824 C   0  0  0  0  0  0  0  0  0  0  0  0
   -3.4374   -3.8396    4.4125 C   0  0  0  0  0  0  0  0  0  0  0  0
   -3.7144   -2.9038    3.4129 C   0  0  0  0  0  0  0  0  0  0  0  0
   -4.1253   -0.3908    1.9250 N   0  0  0  0  0  0  0  0  0  0  0  0
   -4.1402    0.4442    0.8351 O   0  0  0  0  0  0  0  0  0  0  0  0
   -3.0435    0.2194    0.0712 C   0  0  0  0  0  0  0  0  0  0  0  0
   -2.9625    1.0126   -1.1716 C   0  0  0  0  0  0  0  0  0  0  0  0
    1.6171    1.3827   -2.2339 C   0  0  0  0  0  0  0  0  0  0  0  0
    2.3639    2.5589   -2.4185 C   0  0  0  0  0  0  0  0  0  0  0  0
    1.9962    3.4974   -3.5357 C   0  0  0  0  0  0  0  0  0  0  0  0
    4.7451    4.0997   -2.6988 H   0  0  0  0  0  0  0  0  0  0  0  0
    5.0761    4.1194   -0.9646 H   0  0  0  0  0  0  0  0  0  0  0  0
    3.6543    4.9685   -1.5792 H   0  0  0  0  0  0  0  0  0  0  0  0
    4.5710    2.1252    0.1505 H   0  0  0  0  0  0  0  0  0  0  0  0
    3.2539    0.0877    0.4560 H   0  0  0  0  0  0  0  0  0  0  0  0
    1.5820   -1.3971   -0.2128 H   0  0  0  0  0  0  0  0  0  0  0  0
    0.5107   -2.5965   -2.0487 H   0  0  0  0  0  0  0  0  0  0  0  0
    0.4340   -1.1477   -3.0441 H   0  0  0  0  0  0  0  0  0  0  0  0
    2.0059   -1.8674   -2.6506 H   0  0  0  0  0  0  0  0  0  0  0  0
   -0.4053    0.5710   -0.3848 H   0  0  0  0  0  0  0  0  0  0  0  0
   -0.5702   -1.6635    2.9741 H   0  0  0  0  0  0  0  0  0  0  0  0
   -0.0945   -3.3225    4.7240 H   0  0  0  0  0  0  0  0  0  0  0  0
   -1.9182   -4.7206    5.6586 H   0  0  0  0  0  0  0  0  0  0  0  0
   -4.2394   -4.4480    4.8221 H   0  0  0  0  0  0  0  0  0  0  0  0
   -4.7379   -2.7960    3.0584 H   0  0  0  0  0  0  0  0  0  0  0  0
   -2.5724    0.4089   -1.9967 H   0  0  0  0  0  0  0  0  0  0  0  0
   -2.3054    1.8760   -1.0311 H   0  0  0  0  0  0  0  0  0  0  0  0
   -3.9490    1.3823   -1.4692 H   0  0  0  0  0  0  0  0  0  0  0  0
    0.7806    1.1768   -2.8998 H   0  0  0  0  0  0  0  0  0  0  0  0
    1.1281    3.1350   -4.0967 H   0  0  0  0  0  0  0  0  0  0  0  0
    1.7402    4.4836   -3.1355 H   0  0  0  0  0  0  0  0  0  0  0  0
    2.8279    3.5929   -4.2410 H   0  0  0  0  0  0  0  0  0  0  0  0
  1  2  1  0
  2  3  2  0
  3  4  1  0
  4  5  2  0
  5  6  1  0
  6  7  1  0
  6  8  1  0
  8  9  1  0
  9 10  2  0
  9 11  1  0
 11 12  1  0
 12 13  1  0
 13 14  2  0
 14 15  1  0
 15 16  2  0
 16 17  1  0
 17 18  2  0
 12 19  2  0
 19 20  1  0
 20 21  1  0
 21 22  1  0
  5 23  1  0
 23 24  2  0
 24 25  1  0
 24  2  1  0
 21 11  2  0
 18 13  1  0
  1 26  1  0
  1 27  1  0
  1 28  1  0
  3 29  1  0
  4 30  1  0
  6 31  1  0
  7 32  1  0
  7 33  1  0
  7 34  1  0
  8 35  1  0
 14 36  1  0
 15 37  1  0
 16 38  1  0
 17 39  1  0
 18 40  1  0
 22 41  1  0
 22 42  1  0
 22 43  1  0
 23 44  1  0
 25 45  1  0
 25 46  1  0
 25 47  1  0
M  END
$$$$
