
     RDKit          3D

 42 43  0  0  0  0  0  0  0  0999 V2000
    3.8720    0.2561   -0.9882 C   0  0  0  0  0  0  0  0  0  0  0  0
    3.8746    0.4328    0.5165 C   0  0  0  0  0  0  0  0  0  0  0  0
    2.8326    0.2361    1.2705 N   0  0  0  0  0  0  0  0  0  0  0  0
    1.6461   -0.1083    0.7035 N   0  0  0  0  0  0  0  0  0  0  0  0
    0.5436   -0.3555    1.5130 C   0  0  0  0  0  0  0  0  0  0  0  0
    0.5422   -0.3388    2.7400 O   0  0  0  0  0  0  0  0  0  0  0  0
   -0.6900   -0.6731    0.6898 C   0  0  0  0  0  0  0  0  0  0  0  0
   -1.9260   -0.8877    1.5640 C   0  0  0  0  0  0  0  0  0  0  0  0
   -3.1544   -1.2711    0.7396 C   0  0  0  0  0  0  0  0  0  0  0  0
   -3.5309   -0.1657   -0.1361 N   0  0  0  0  0  0  0  0  0  0  0  0
   -4.6457   -0.2993   -0.9750 C   0  0  0  0  0  0  0  0  0  0  0  0
   -5.1808    0.8608   -1.5562 C   0  0  0  0  0  0  0  0  0  0  0  0
   -6.2500    0.8012   -2.4552 C   0  0  0  0  0  0  0  0  0  0  0  0
   -6.7886   -0.4300   -2.8120 C   0  0  0  0  0  0  0  0  0  0  0  0
   -6.2473   -1.5959   -2.2794 C   0  0  0  0  0  0  0  0  0  0  0  0
   -5.1761   -1.5293   -1.3805 C   0  0  0  0  0  0  0  0  0  0  0  0
    5.1462    0.8546    1.1820 C   0  0  0  0  0  0  0  0  0  0  0  0
    5.3430    0.5255    2.5247 C   0  0  0  0  0  0  0  0  0  0  0  0
    6.5194    0.9257    3.1309 C   0  0  0  0  0  0  0  0  0  0  0  0
    7.4881    1.6208    2.4975 N   0  0  0  0  0  0  0  0  0  0  0  0
    7.2647    1.9430    1.2065 C   0  0  0  0  0  0  0  0  0  0  0  0
    6.1211    1.5903    0.5095 C   0  0  0  0  0  0  0  0  0  0  0  0
    3.3399    1.0926   -1.4496 H   0  0  0  0  0  0  0  0  0  0  0  0
    4.8812    0.1992   -1.4013 H   0  0  0  0  0  0  0  0  0  0  0  0
    3.3740   -0.6818   -1.2524 H   0  0  0  0  0  0  0  0  0  0  0  0
    1.5407   -0.0989   -0.3030 H   0  0  0  0  0  0  0  0  0  0  0  0
   -0.8562    0.1574   -0.0061 H   0  0  0  0  0  0  0  0  0  0  0  0
   -0.4849   -1.5773    0.1046 H   0  0  0  0  0  0  0  0  0  0  0  0
   -1.7270   -1.6870    2.2887 H   0  0  0  0  0  0  0  0  0  0  0  0
   -2.1307    0.0203    2.1453 H   0  0  0  0  0  0  0  0  0  0  0  0
   -3.9818   -1.5055    1.4199 H   0  0  0  0  0  0  0  0  0  0  0  0
   -2.9190   -2.1696    0.1579 H   0  0  0  0  0  0  0  0  0  0  0  0
   -3.5651    0.7254    0.3570 H   0  0  0  0  0  0  0  0  0  0  0  0
   -4.7623    1.8338   -1.3106 H   0  0  0  0  0  0  0  0  0  0  0  0
   -6.6525    1.7167   -2.8800 H   0  0  0  0  0  0  0  0  0  0  0  0
   -7.6177   -0.4821   -3.5122 H   0  0  0  0  0  0  0  0  0  0  0  0
   -6.6506   -2.5630   -2.5679 H   0  0  0  0  0  0  0  0  0  0  0  0
   -4.7728   -2.4649   -1.0076 H   0  0  0  0  0  0  0  0  0  0  0  0
    4.5990   -0.0280    3.0897 H   0  0  0  0  0  0  0  0  0  0  0  0
    6.7189    0.6924    4.1730 H   0  0  0  0  0  0  0  0  0  0  0  0
    8.0555    2.5178    0.7321 H   0  0  0  0  0  0  0  0  0  0  0  0
    6.0075    1.9104   -0.5185 H   0  0  0  0  0  0  0  0  0  0  0  0
  1  2  1  0
  2  3  2  3
  3  4  1  0
  4  5  1  0
  5  6  2  0
  5  7  1  0
  7  8  1  0
  8  9  1  0
  9 10  1  0
 10 11  1  0
 11 12  2  0
 12 13  1  0
 13 14  2  0
 14 15  1  0
 15 16  2  0
  2 17  1  0
 17 18  2  0
 18 19  1  0
 19 20  2  0
 20 21  1  0
 21 22  2  0
 16 11  1  0
 22 17  1  0
  1 23  1  0
  1 24  1  0
  1 25  1  0
  4 26  1  0
  7 27  1  0
  7 28  1  0
  8 29  1  0
  8 30  1  0
  9 31  1  0
  9 32  1  0
 10 33  1  0
 12 34  1  0
 13 35  1  0
 14 36  1  0
 15 37  1  0
 16 38  1  0
 18 39  1  0
 19 40  1  0
 21 41  1  0
 22 42  1  0
M  END
$$$$
