
     RDKit          3D

 41 44  0  0  0  0  0  0  0  0999 V2000
    2.8970   -3.8299    3.1157 C   0  0  0  0  0  0  0  0  0  0  0  0
    3.3830   -3.9889    1.7897 O   0  0  0  0  0  0  0  0  0  0  0  0
    2.8753   -3.1552    0.8301 C   0  0  0  0  0  0  0  0  0  0  0  0
    3.4175   -3.3440   -0.4386 C   0  0  0  0  0  0  0  0  0  0  0  0
    2.9966   -2.5829   -1.5300 C   0  0  0  0  0  0  0  0  0  0  0  0
    2.0130   -1.6159   -1.3013 C   0  0  0  0  0  0  0  0  0  0  0  0
    1.4153   -0.7578   -2.1841 N   0  0  0  0  0  0  0  0  0  0  0  0
    0.4641    0.0271   -1.5662 C   0  0  0  0  0  0  0  0  0  0  0  0
   -0.3921    0.9920   -2.1316 C   0  0  0  0  0  0  0  0  0  0  0  0
   -0.3593    1.3060   -3.6083 C   0  0  0  0  0  0  0  0  0  0  0  0
   -1.3087    1.6333   -1.2553 C   0  0  0  0  0  0  0  0  0  0  0  0
   -2.2417    2.5696   -1.7368 C   0  0  0  0  0  0  0  0  0  0  0  0
   -3.1446    3.1851   -0.8841 C   0  0  0  0  0  0  0  0  0  0  0  0
   -3.1412    2.8920    0.4262 N   0  0  0  0  0  4  0  0  0  0  0  0
   -4.1114    3.5325    1.3308 C   0  0  0  0  0  0  0  0  0  0  0  0
   -2.2619    1.9994    0.9295 C   0  0  0  0  0  0  0  0  0  0  0  0
   -1.3070    1.3438    0.1305 C   0  0  0  0  0  0  0  0  0  0  0  0
   -0.3652    0.4124    0.6792 C   0  0  0  0  0  0  0  0  0  0  0  0
   -0.3018    0.1720    2.1707 C   0  0  0  0  0  0  0  0  0  0  0  0
    0.4892   -0.3001   -0.2109 C   0  0  0  0  0  0  0  0  0  0  0  0
    1.4508   -1.3729   -0.0520 C   0  0  0  0  0  0  0  0  0  0  0  0
    1.8905   -2.1782    1.0299 C   0  0  0  0  0  0  0  0  0  0  0  0
    3.4171   -4.5524    3.7520 H   0  0  0  0  0  0  0  0  0  0  0  0
    1.8254   -4.0481    3.1710 H   0  0  0  0  0  0  0  0  0  0  0  0
    3.1170   -2.8283    3.5000 H   0  0  0  0  0  0  0  0  0  0  0  0
    4.1809   -4.1061   -0.5847 H   0  0  0  0  0  0  0  0  0  0  0  0
    3.4212   -2.7484   -2.5152 H   0  0  0  0  0  0  0  0  0  0  0  0
    1.6341   -0.7335   -3.1691 H   0  0  0  0  0  0  0  0  0  0  0  0
   -1.3106    1.0299   -4.0746 H   0  0  0  0  0  0  0  0  0  0  0  0
   -0.1691    2.3728   -3.7653 H   0  0  0  0  0  0  0  0  0  0  0  0
    0.4305    0.7618   -4.1330 H   0  0  0  0  0  0  0  0  0  0  0  0
   -2.2863    2.8324   -2.7919 H   0  0  0  0  0  0  0  0  0  0  0  0
   -3.8724    3.9050   -1.2471 H   0  0  0  0  0  0  0  0  0  0  0  0
   -3.5661    3.9265    2.1926 H   0  0  0  0  0  0  0  0  0  0  0  0
   -4.8315    2.7691    1.6365 H   0  0  0  0  0  0  0  0  0  0  0  0
   -4.6204    4.3500    0.8146 H   0  0  0  0  0  0  0  0  0  0  0  0
   -2.3566    1.8157    1.9942 H   0  0  0  0  0  0  0  0  0  0  0  0
   -1.0131   -0.6075    2.4581 H   0  0  0  0  0  0  0  0  0  0  0  0
    0.7034   -0.1184    2.4822 H   0  0  0  0  0  0  0  0  0  0  0  0
   -0.5083    1.0827    2.7404 H   0  0  0  0  0  0  0  0  0  0  0  0
    1.4475   -2.0427    2.0060 H   0  0  0  0  0  0  0  0  0  0  0  0
  1  2  1  0
  2  3  1  0
  3  4  2  0
  4  5  1  0
  5  6  2  0
  6  7  1  0
  7  8  1  0
  8  9  2  0
  9 10  1  0
  9 11  1  0
 11 12  2  0
 12 13  1  0
 13 14  2  0
 14 15  1  0
 14 16  1  0
 16 17  2  0
 17 18  1  0
 18 19  1  0
 18 20  2  0
 20 21  1  0
 21 22  2  0
 22  3  1  0
 21  6  1  0
 20  8  1  0
 17 11  1  0
  1 23  1  0
  1 24  1  0
  1 25  1  0
  4 26  1  0
  5 27  1  0
  7 28  1  0
 10 29  1  0
 10 30  1  0
 10 31  1  0
 12 32  1  0
 13 33  1  0
 15 34  1  0
 15 35  1  0
 15 36  1  0
 16 37  1  0
 19 38  1  0
 19 39  1  0
 19 40  1  0
 22 41  1  0
M  CHG  1  14   1
M  END
$$$$
