
     RDKit          3D

 49 52  0  0  0  0  0  0  0  0999 V2000
   -5.4837    1.8541   -0.0539 C   0  0  0  0  0  0  0  0  0  0  0  0
   -4.5400    2.7304    0.7489 C   0  0  0  0  0  0  0  0  0  0  0  0
   -3.5428    1.9221    1.3919 O   0  0  0  0  0  0  0  0  0  0  0  0
   -2.4427    1.6274    0.6373 C   0  0  0  0  0  0  0  0  0  0  0  0
   -2.2465    2.0291   -0.5004 O   0  0  0  0  0  0  0  0  0  0  0  0
   -1.4968    0.7670    1.4489 C   0  0  0  0  0  0  0  0  0  0  0  0
   -0.5182   -0.0291    0.6087 C   0  0  0  0  0  0  0  0  0  0  0  0
    0.7813    0.5213    0.5457 C   0  0  0  0  0  0  0  0  0  0  0  0
    1.7722   -0.1078   -0.1819 C   0  0  0  0  0  0  0  0  0  0  0  0
    3.1537    0.4029   -0.2913 C   0  0  0  0  0  0  0  0  0  0  0  0
    3.7867    1.0894    0.7605 C   0  0  0  0  0  0  0  0  0  0  0  0
    5.0992    1.5714    0.6401 C   0  0  0  0  0  0  0  0  0  0  0  0
    5.8140    1.3745   -0.5388 C   0  0  0  0  0  0  0  0  0  0  0  0
    7.0922    1.7910   -0.7868 O   0  0  0  0  0  0  0  0  0  0  0  0
    7.7558    2.4882    0.2594 C   0  0  0  0  0  0  0  0  0  0  0  0
    5.2071    0.6890   -1.5896 C   0  0  0  0  0  0  0  0  0  0  0  0
    3.8989    0.2079   -1.4666 C   0  0  0  0  0  0  0  0  0  0  0  0
    1.5094   -1.2447   -0.8490 N   0  0  0  0  0  0  0  0  0  0  0  0
    0.2798   -1.7751   -0.8139 C   0  0  0  0  0  0  0  0  0  0  0  0
    0.1614   -2.9346   -1.5468 C   0  0  0  0  0  0  0  0  0  0  0  0
   -1.0320   -3.6334   -1.6370 C   0  0  0  0  0  0  0  0  0  0  0  0
   -2.1654   -3.1752   -0.9808 C   0  0  0  0  0  0  0  0  0  0  0  0
   -3.3457   -3.9277   -1.1169 C   0  0  0  0  0  0  0  0  0  0  0  0
   -4.5237   -3.5371   -0.4973 C   0  0  0  0  0  0  0  0  0  0  0  0
   -4.5259   -2.3861    0.2649 C   0  0  0  0  0  0  0  0  0  0  0  0
   -3.3500   -1.6348    0.4038 C   0  0  0  0  0  0  0  0  0  0  0  0
   -2.1119   -1.9828   -0.2050 C   0  0  0  0  0  0  0  0  0  0  0  0
   -0.8333   -1.2431   -0.1075 C   0  0  0  0  0  0  0  0  0  0  0  0
   -5.9299    1.0844    0.5844 H   0  0  0  0  0  0  0  0  0  0  0  0
   -4.9506    1.3328   -0.8552 H   0  0  0  0  0  0  0  0  0  0  0  0
   -6.2842    2.4520   -0.4986 H   0  0  0  0  0  0  0  0  0  0  0  0
   -5.0969    3.2408    1.5414 H   0  0  0  0  0  0  0  0  0  0  0  0
   -4.0830    3.5072    0.1253 H   0  0  0  0  0  0  0  0  0  0  0  0
   -2.0297    0.0957    2.1274 H   0  0  0  0  0  0  0  0  0  0  0  0
   -0.9548    1.4536    2.1132 H   0  0  0  0  0  0  0  0  0  0  0  0
    1.0020    1.4572    1.0511 H   0  0  0  0  0  0  0  0  0  0  0  0
    3.2716    1.2442    1.7059 H   0  0  0  0  0  0  0  0  0  0  0  0
    5.5304    2.0898    1.4898 H   0  0  0  0  0  0  0  0  0  0  0  0
    7.2366    3.4208    0.5039 H   0  0  0  0  0  0  0  0  0  0  0  0
    8.7578    2.7485   -0.0952 H   0  0  0  0  0  0  0  0  0  0  0  0
    7.8704    1.8549    1.1454 H   0  0  0  0  0  0  0  0  0  0  0  0
    5.7536    0.5230   -2.5146 H   0  0  0  0  0  0  0  0  0  0  0  0
    3.4552   -0.3252   -2.3064 H   0  0  0  0  0  0  0  0  0  0  0  0
    1.0339   -3.3159   -2.0748 H   0  0  0  0  0  0  0  0  0  0  0  0
   -1.0553   -4.5421   -2.2349 H   0  0  0  0  0  0  0  0  0  0  0  0
   -3.3558   -4.8358   -1.7177 H   0  0  0  0  0  0  0  0  0  0  0  0
   -5.4285   -4.1266   -0.6128 H   0  0  0  0  0  0  0  0  0  0  0  0
   -5.4386   -2.0594    0.7570 H   0  0  0  0  0  0  0  0  0  0  0  0
   -3.4574   -0.7538    1.0155 H   0  0  0  0  0  0  0  0  0  0  0  0
  1  2  1  0
  2  3  1  0
  3  4  1  0
  4  5  2  0
  4  6  1  0
  6  7  1  0
  7  8  2  0
  8  9  1  0
  9 10  1  0
 10 11  2  0
 11 12  1  0
 12 13  2  0
 13 14  1  0
 14 15  1  0
 13 16  1  0
 16 17  2  0
  9 18  2  0
 18 19  1  0
 19 20  2  0
 20 21  1  0
 21 22  2  0
 22 23  1  0
 23 24  2  0
 24 25  1  0
 25 26  2  0
 26 27  1  0
 27 28  2  0
 28  7  1  0
 17 10  1  0
 28 19  1  0
 27 22  1  0
  1 29  1  0
  1 30  1  0
  1 31  1  0
  2 32  1  0
  2 33  1  0
  6 34  1  0
  6 35  1  0
  8 36  1  0
 11 37  1  0
 12 38  1  0
 15 39  1  0
 15 40  1  0
 15 41  1  0
 16 42  1  0
 17 43  1  0
 20 44  1  0
 21 45  1  0
 23 46  1  0
 24 47  1  0
 25 48  1  0
 26 49  1  0
M  END
$$$$
