
     RDKit          3D

 45 47  0  0  0  0  0  0  0  0999 V2000
   -3.5805    3.0283    0.6113 C   0  0  0  0  0  0  0  0  0  0  0  0
   -3.6458    1.6121    0.1187 C   0  0  0  0  0  0  0  0  0  0  0  0
   -4.8152    1.1074   -0.4602 C   0  0  0  0  0  0  0  0  0  0  0  0
   -4.8628   -0.2095   -0.9155 C   0  0  0  0  0  0  0  0  0  0  0  0
   -3.7367   -1.0276   -0.8157 C   0  0  0  0  0  0  0  0  0  0  0  0
   -2.5403   -0.5311   -0.2803 C   0  0  0  0  0  0  0  0  0  0  0  0
   -1.3057   -1.3892   -0.1848 C   0  0  0  0  0  0  0  0  0  0  0  0
   -0.6766   -1.8387   -1.8059 S   0  0  0  0  0  6  0  0  0  0  0  0
    0.6852   -2.3216   -1.6226 O   0  0  0  0  0  0  0  0  0  0  0  0
   -1.6407   -2.7317   -2.4321 O   0  0  0  0  0  0  0  0  0  0  0  0
   -0.6319   -0.3384   -2.7908 C   0  0  0  0  0  0  0  0  0  0  0  0
    0.0902    0.7603   -2.1076 C   0  0  0  0  0  0  0  0  0  0  0  0
   -0.1146    2.1245   -2.0434 C   0  0  0  0  0  0  0  0  0  0  0  0
    0.9326    2.6503   -1.2452 C   0  0  0  0  0  0  0  0  0  0  0  0
    1.7184    1.5799   -0.8649 C   0  0  0  0  0  0  0  0  0  0  0  0
    2.9006    1.4914   -0.0334 C   0  0  0  0  0  0  0  0  0  0  0  0
    3.4643    2.4682    0.4495 O   0  0  0  0  0  0  0  0  0  0  0  0
    3.3209    0.1987    0.1727 N   0  0  0  0  0  0  0  0  0  0  0  0
    4.4506   -0.1389    0.9998 C   0  0  0  0  0  0  0  0  0  0  0  0
    4.0902   -1.3236    1.8179 C   0  0  0  0  0  0  0  0  0  0  0  0
    3.9584   -2.6697    1.5355 C   0  0  0  0  0  0  0  0  0  0  0  0
    3.5769   -3.2971    2.7470 C   0  0  0  0  0  0  0  0  0  0  0  0
    3.5000   -2.2970    3.6888 C   0  0  0  0  0  0  0  0  0  0  0  0
    3.8071   -1.0952    3.1348 O   0  0  0  0  0  0  0  0  0  0  0  0
    1.2104    0.4326   -1.4102 O   0  0  0  0  0  0  0  0  0  0  0  0
   -2.5148    0.7881    0.2024 C   0  0  0  0  0  0  0  0  0  0  0  0
   -3.0129    3.6453   -0.0938 H   0  0  0  0  0  0  0  0  0  0  0  0
   -3.0967    3.0685    1.5934 H   0  0  0  0  0  0  0  0  0  0  0  0
   -4.5820    3.4594    0.7215 H   0  0  0  0  0  0  0  0  0  0  0  0
   -5.7028    1.7317   -0.5483 H   0  0  0  0  0  0  0  0  0  0  0  0
   -5.7813   -0.6023   -1.3464 H   0  0  0  0  0  0  0  0  0  0  0  0
   -3.8063   -2.0562   -1.1689 H   0  0  0  0  0  0  0  0  0  0  0  0
   -0.4983   -0.8809    0.3523 H   0  0  0  0  0  0  0  0  0  0  0  0
   -1.5291   -2.3192    0.3499 H   0  0  0  0  0  0  0  0  0  0  0  0
   -1.6644   -0.0573   -3.0173 H   0  0  0  0  0  0  0  0  0  0  0  0
   -0.1316   -0.5947   -3.7307 H   0  0  0  0  0  0  0  0  0  0  0  0
   -0.9227    2.6751   -2.5093 H   0  0  0  0  0  0  0  0  0  0  0  0
    1.1011    3.6825   -0.9643 H   0  0  0  0  0  0  0  0  0  0  0  0
    2.8177   -0.5420   -0.3050 H   0  0  0  0  0  0  0  0  0  0  0  0
    4.7432    0.7086    1.6285 H   0  0  0  0  0  0  0  0  0  0  0  0
    5.2869   -0.3782    0.3340 H   0  0  0  0  0  0  0  0  0  0  0  0
    4.1100   -3.1384    0.5731 H   0  0  0  0  0  0  0  0  0  0  0  0
    3.3801   -4.3468    2.9116 H   0  0  0  0  0  0  0  0  0  0  0  0
    3.2534   -2.2749    4.7406 H   0  0  0  0  0  0  0  0  0  0  0  0
   -1.6047    1.1874    0.6517 H   0  0  0  0  0  0  0  0  0  0  0  0
  1  2  1  0
  2  3  2  0
  3  4  1  0
  4  5  2  0
  5  6  1  0
  6  7  1  0
  7  8  1  0
  8  9  2  0
  8 10  2  0
  8 11  1  0
 11 12  1  0
 12 13  2  0
 13 14  1  0
 14 15  2  0
 15 16  1  0
 16 17  2  0
 16 18  1  0
 18 19  1  0
 19 20  1  0
 20 21  2  0
 21 22  1  0
 22 23  2  0
 23 24  1  0
 15 25  1  0
  6 26  2  0
 26  2  1  0
 25 12  1  0
 24 20  1  0
  1 27  1  0
  1 28  1  0
  1 29  1  0
  3 30  1  0
  4 31  1  0
  5 32  1  0
  7 33  1  0
  7 34  1  0
 11 35  1  0
 11 36  1  0
 13 37  1  0
 14 38  1  0
 18 39  1  0
 19 40  1  0
 19 41  1  0
 21 42  1  0
 22 43  1  0
 23 44  1  0
 26 45  1  0
M  END
$$$$
