
     RDKit          3D

 46 49  0  0  0  0  0  0  0  0999 V2000
    8.3897   -3.2106    0.2689 O   0  0  0  0  0  0  0  0  0  0  0  0
    7.9517   -2.2134    0.8605 N   0  0  0  0  0  4  0  0  0  0  0  0
    8.4919   -1.6869    1.8440 O   0  0  0  0  0  1  0  0  0  0  0  0
    6.7104   -1.6113    0.3587 C   0  0  0  0  0  0  0  0  0  0  0  0
    6.1780   -0.4842    0.9969 C   0  0  0  0  0  0  0  0  0  0  0  0
    4.9963    0.0850    0.5157 C   0  0  0  0  0  0  0  0  0  0  0  0
    4.3470   -0.4572   -0.6044 C   0  0  0  0  0  0  0  0  0  0  0  0
    3.0568    0.1474   -1.1055 C   0  0  0  0  0  0  0  0  0  0  0  0
    1.9831   -0.4862   -0.4175 O   0  0  0  0  0  0  0  0  0  0  0  0
    0.7135   -0.0798   -0.7190 C   0  0  0  0  0  0  0  0  0  0  0  0
   -0.2887   -0.7426   -0.0105 C   0  0  0  0  0  0  0  0  0  0  0  0
   -1.6369   -0.4320   -0.2154 C   0  0  0  0  0  0  0  0  0  0  0  0
   -2.0171    0.5603   -1.1272 C   0  0  0  0  0  0  0  0  0  0  0  0
   -3.4393    0.8803   -1.3280 C   0  0  0  0  0  0  0  0  0  0  0  0
   -3.9158    1.2840   -2.5550 N   0  0  0  0  0  0  0  0  0  0  0  0
   -5.2450    1.4665   -2.6127 N   0  0  0  0  0  0  0  0  0  0  0  0
   -5.6373    1.2297   -1.3616 C   0  0  0  0  0  0  0  0  0  0  0  0
   -4.5635    0.8783   -0.5100 C   0  0  0  0  0  0  0  0  0  0  0  0
   -4.6012    0.5967    0.9112 C   0  0  0  0  0  0  0  0  0  0  0  0
   -5.4556   -0.3976    1.4048 C   0  0  0  0  0  0  0  0  0  0  0  0
   -5.5038   -0.6676    2.7753 C   0  0  0  0  0  0  0  0  0  0  0  0
   -4.7031    0.0607    3.6536 C   0  0  0  0  0  0  0  0  0  0  0  0
   -4.7616   -0.2740    5.3400 Cl  0  0  0  0  0  0  0  0  0  0  0  0
   -3.8566    1.0587    3.1751 C   0  0  0  0  0  0  0  0  0  0  0  0
   -3.8082    1.3291    1.8050 C   0  0  0  0  0  0  0  0  0  0  0  0
   -0.9947    1.2062   -1.8478 C   0  0  0  0  0  0  0  0  0  0  0  0
   -1.3258    2.1576   -2.7825 O   0  0  0  0  0  0  0  0  0  0  0  0
    0.3576    0.8977   -1.6466 C   0  0  0  0  0  0  0  0  0  0  0  0
    4.8851   -1.5954   -1.2251 C   0  0  0  0  0  0  0  0  0  0  0  0
    6.0664   -2.1718   -0.7514 C   0  0  0  0  0  0  0  0  0  0  0  0
    6.6624   -0.0447    1.8665 H   0  0  0  0  0  0  0  0  0  0  0  0
    4.5777    0.9512    1.0257 H   0  0  0  0  0  0  0  0  0  0  0  0
    2.9749   -0.0159   -2.1875 H   0  0  0  0  0  0  0  0  0  0  0  0
    3.0612    1.2271   -0.9092 H   0  0  0  0  0  0  0  0  0  0  0  0
   -0.0220   -1.5156    0.7074 H   0  0  0  0  0  0  0  0  0  0  0  0
   -2.3832   -0.9917    0.3429 H   0  0  0  0  0  0  0  0  0  0  0  0
   -3.3604    1.4535   -3.3873 H   0  0  0  0  0  0  0  0  0  0  0  0
   -6.6855    1.3349   -1.1125 H   0  0  0  0  0  0  0  0  0  0  0  0
   -6.0807   -0.9756    0.7273 H   0  0  0  0  0  0  0  0  0  0  0  0
   -6.1654   -1.4448    3.1485 H   0  0  0  0  0  0  0  0  0  0  0  0
   -3.2352    1.6303    3.8591 H   0  0  0  0  0  0  0  0  0  0  0  0
   -3.1501    2.1151    1.4402 H   0  0  0  0  0  0  0  0  0  0  0  0
   -0.5202    2.6277   -3.0570 H   0  0  0  0  0  0  0  0  0  0  0  0
    1.1103    1.4192   -2.2251 H   0  0  0  0  0  0  0  0  0  0  0  0
    4.3795   -2.0449   -2.0783 H   0  0  0  0  0  0  0  0  0  0  0  0
    6.4633   -3.0534   -1.2505 H   0  0  0  0  0  0  0  0  0  0  0  0
  1  2  2  0
  2  3  1  0
  2  4  1  0
  4  5  2  0
  5  6  1  0
  6  7  2  0
  7  8  1  0
  8  9  1  0
  9 10  1  0
 10 11  2  0
 11 12  1  0
 12 13  2  0
 13 14  1  0
 14 15  1  0
 15 16  1  0
 16 17  2  0
 17 18  1  0
 18 19  1  0
 19 20  2  0
 20 21  1  0
 21 22  2  0
 22 23  1  0
 22 24  1  0
 24 25  2  0
 13 26  1  0
 26 27  1  0
 26 28  2  0
  7 29  1  0
 29 30  2  0
 30  4  1  0
 28 10  1  0
 18 14  2  0
 25 19  1  0
  5 31  1  0
  6 32  1  0
  8 33  1  0
  8 34  1  0
 11 35  1  0
 12 36  1  0
 15 37  1  0
 17 38  1  0
 20 39  1  0
 21 40  1  0
 24 41  1  0
 25 42  1  0
 27 43  1  0
 28 44  1  0
 29 45  1  0
 30 46  1  0
M  CHG  2   2   1   3  -1
M  END
$$$$
