
     RDKit          3D

 43 46  0  0  0  0  0  0  0  0999 V2000
    4.7381    1.8380    2.4868 C   0  0  0  0  0  0  0  0  0  0  0  0
    4.9357    0.5503    1.9196 O   0  0  0  0  0  0  0  0  0  0  0  0
    3.8946    0.1430    1.1110 C   0  0  0  0  0  0  0  0  0  0  0  0
    2.8046    0.9001    1.0080 N   0  0  0  0  0  0  0  0  0  0  0  0
    1.8594    0.4236    0.2114 C   0  0  0  0  0  0  0  0  0  0  0  0
    0.7377    1.2210    0.1020 N   0  0  0  0  0  0  0  0  0  0  0  0
   -0.5967    0.6780   -0.1531 C   0  0  0  0  0  0  0  0  0  0  0  0
   -0.7537    0.1790   -1.6094 C   0  0  0  0  0  0  0  0  0  0  0  0
   -2.1944   -0.3027   -1.8608 C   0  0  0  0  0  0  0  0  0  0  0  0
   -2.5297   -1.4337   -0.8727 C   0  0  0  0  0  0  0  0  0  0  0  0
   -2.4191   -0.9253    0.5755 C   0  0  0  0  0  0  0  0  0  0  0  0
   -3.3892    0.2495    0.7760 C   0  0  0  0  0  0  0  0  0  0  0  0
   -3.0480    1.3840   -0.2025 C   0  0  0  0  0  0  0  0  0  0  0  0
   -3.1669    0.8663   -1.6437 C   0  0  0  0  0  0  0  0  0  0  0  0
   -1.6044    1.8481    0.0481 C   0  0  0  0  0  0  0  0  0  0  0  0
   -0.9793   -0.4472    0.8373 C   0  0  0  0  0  0  0  0  0  0  0  0
    1.9553   -0.7203   -0.4450 N   0  0  0  0  0  0  0  0  0  0  0  0
    3.0881   -1.3914   -0.2605 C   0  0  0  0  0  0  0  0  0  0  0  0
    3.2756   -2.6022   -0.8948 O   0  0  0  0  0  0  0  0  0  0  0  0
    2.1992   -2.9606   -1.7507 C   0  0  0  0  0  0  0  0  0  0  0  0
    4.0949   -1.0164    0.5090 N   0  0  0  0  0  0  0  0  0  0  0  0
    4.6395    2.6052    1.7108 H   0  0  0  0  0  0  0  0  0  0  0  0
    3.8742    1.8471    3.1606 H   0  0  0  0  0  0  0  0  0  0  0  0
    5.6242    2.0804    3.0816 H   0  0  0  0  0  0  0  0  0  0  0  0
    0.7918    1.8927    0.8610 H   0  0  0  0  0  0  0  0  0  0  0  0
   -0.4976    0.9798   -2.3155 H   0  0  0  0  0  0  0  0  0  0  0  0
   -0.0717   -0.6492   -1.8263 H   0  0  0  0  0  0  0  0  0  0  0  0
   -2.2851   -0.6714   -2.8888 H   0  0  0  0  0  0  0  0  0  0  0  0
   -3.5448   -1.8046   -1.0611 H   0  0  0  0  0  0  0  0  0  0  0  0
   -1.8482   -2.2795   -1.0259 H   0  0  0  0  0  0  0  0  0  0  0  0
   -2.6706   -1.7338    1.2711 H   0  0  0  0  0  0  0  0  0  0  0  0
   -3.3286    0.6138    1.8088 H   0  0  0  0  0  0  0  0  0  0  0  0
   -4.4216   -0.0853    0.6166 H   0  0  0  0  0  0  0  0  0  0  0  0
   -3.7380    2.2218   -0.0524 H   0  0  0  0  0  0  0  0  0  0  0  0
   -4.1955    0.5408   -1.8420 H   0  0  0  0  0  0  0  0  0  0  0  0
   -2.9465    1.6742   -2.3522 H   0  0  0  0  0  0  0  0  0  0  0  0
   -1.5204    2.2494    1.0672 H   0  0  0  0  0  0  0  0  0  0  0  0
   -1.3596    2.6784   -0.6282 H   0  0  0  0  0  0  0  0  0  0  0  0
   -0.3028   -1.3048    0.7435 H   0  0  0  0  0  0  0  0  0  0  0  0
   -0.8851   -0.0922    1.8719 H   0  0  0  0  0  0  0  0  0  0  0  0
    1.2689   -3.0931   -1.1870 H   0  0  0  0  0  0  0  0  0  0  0  0
    2.0700   -2.2292   -2.5562 H   0  0  0  0  0  0  0  0  0  0  0  0
    2.4457   -3.9216   -2.2126 H   0  0  0  0  0  0  0  0  0  0  0  0
  1  2  1  0
  2  3  1  0
  3  4  2  0
  4  5  1  0
  5  6  1  0
  6  7  1  0
  7  8  1  0
  8  9  1  0
  9 10  1  0
 10 11  1  0
 11 12  1  0
 12 13  1  0
 13 14  1  0
 13 15  1  0
 11 16  1  0
  5 17  2  0
 17 18  1  0
 18 19  1  0
 19 20  1  0
 18 21  2  0
 21  3  1  0
 15  7  1  0
 16  7  1  0
 14  9  1  0
  1 22  1  0
  1 23  1  0
  1 24  1  0
  6 25  1  0
  8 26  1  0
  8 27  1  0
  9 28  1  0
 10 29  1  0
 10 30  1  0
 11 31  1  0
 12 32  1  0
 12 33  1  0
 13 34  1  0
 14 35  1  0
 14 36  1  0
 15 37  1  0
 15 38  1  0
 16 39  1  0
 16 40  1  0
 20 41  1  0
 20 42  1  0
 20 43  1  0
M  END
$$$$
