
     RDKit          3D

 50 52  0  0  0  0  0  0  0  0999 V2000
    7.6892   -0.3594   -0.6882 C   0  0  0  0  0  0  0  0  0  0  0  0
    6.2000   -0.5030   -0.5507 C   0  0  0  0  0  0  0  0  0  0  0  0
    5.5905   -1.7463   -0.7723 C   0  0  0  0  0  0  0  0  0  0  0  0
    4.2101   -1.9130   -0.6211 C   0  0  0  0  0  0  0  0  0  0  0  0
    3.4745   -3.4373   -0.9041 Cl  0  0  0  0  0  0  0  0  0  0  0  0
    3.4699   -0.7977   -0.2311 C   0  0  0  0  0  0  0  0  0  0  0  0
    2.1240   -0.7538   -0.0302 O   0  0  0  0  0  0  0  0  0  0  0  0
    1.8027    0.5233    0.3471 C   0  0  0  0  0  0  0  0  0  0  0  0
    0.4120    0.8347    0.6200 C   0  0  0  0  0  0  0  0  0  0  0  0
    0.0131    1.9476    0.9509 O   0  0  0  0  0  0  0  0  0  0  0  0
   -0.4357   -0.2418    0.4668 N   0  0  0  0  0  0  0  0  0  0  0  0
   -1.8752   -0.1562    0.6332 C   0  0  0  0  0  0  0  0  0  0  0  0
   -2.6805   -0.0031   -0.6975 C   0  0  0  0  0  0  0  0  0  0  0  0
   -2.2862    1.3245   -1.3976 C   0  0  0  0  0  0  0  0  0  0  0  0
   -2.2594   -1.1325   -1.6740 C   0  0  0  0  0  0  0  0  0  0  0  0
   -4.1605    0.0184   -0.5226 N   0  0  0  0  0  0  0  0  0  0  0  0
   -4.8883   -1.2553   -0.3810 C   0  0  0  0  0  0  0  0  0  0  0  0
   -5.0740   -1.7362    1.0648 C   0  0  0  0  0  0  0  0  0  0  0  0
   -5.7121   -0.7351    1.8630 O   0  0  0  0  0  0  0  0  0  0  0  0
   -4.9459    0.4734    1.8593 C   0  0  0  0  0  0  0  0  0  0  0  0
   -4.7139    1.0034    0.4310 C   0  0  0  0  0  0  0  0  0  0  0  0
    2.9485    1.3072    0.3893 C   0  0  0  0  0  0  0  0  0  0  0  0
    3.0171    2.7461    0.7525 C   0  0  0  0  0  0  0  0  0  0  0  0
    4.0298    0.4506    0.0132 C   0  0  0  0  0  0  0  0  0  0  0  0
    5.4231    0.5991   -0.1438 C   0  0  0  0  0  0  0  0  0  0  0  0
    8.0775   -1.0374   -1.4554 H   0  0  0  0  0  0  0  0  0  0  0  0
    7.9571    0.6588   -0.9895 H   0  0  0  0  0  0  0  0  0  0  0  0
    8.1757   -0.5865    0.2653 H   0  0  0  0  0  0  0  0  0  0  0  0
    6.1977   -2.5999   -1.0687 H   0  0  0  0  0  0  0  0  0  0  0  0
   -0.0153   -1.1168    0.1714 H   0  0  0  0  0  0  0  0  0  0  0  0
   -2.0865    0.6810    1.3057 H   0  0  0  0  0  0  0  0  0  0  0  0
   -2.1631   -1.0787    1.1451 H   0  0  0  0  0  0  0  0  0  0  0  0
   -1.2456    1.3057   -1.7417 H   0  0  0  0  0  0  0  0  0  0  0  0
   -2.3857    2.1914   -0.7371 H   0  0  0  0  0  0  0  0  0  0  0  0
   -2.9075    1.5034   -2.2838 H   0  0  0  0  0  0  0  0  0  0  0  0
   -2.3338   -2.1218   -1.2093 H   0  0  0  0  0  0  0  0  0  0  0  0
   -2.8762   -1.1263   -2.5807 H   0  0  0  0  0  0  0  0  0  0  0  0
   -1.2195   -1.0164   -2.0021 H   0  0  0  0  0  0  0  0  0  0  0  0
   -4.4735   -2.0610   -0.9913 H   0  0  0  0  0  0  0  0  0  0  0  0
   -5.8906   -1.0805   -0.7962 H   0  0  0  0  0  0  0  0  0  0  0  0
   -4.1250   -2.0228    1.5281 H   0  0  0  0  0  0  0  0  0  0  0  0
   -5.7204   -2.6199    1.0752 H   0  0  0  0  0  0  0  0  0  0  0  0
   -4.0064    0.2959    2.3910 H   0  0  0  0  0  0  0  0  0  0  0  0
   -5.5069    1.2166    2.4355 H   0  0  0  0  0  0  0  0  0  0  0  0
   -4.1249    1.9237    0.4752 H   0  0  0  0  0  0  0  0  0  0  0  0
   -5.6917    1.3023    0.0302 H   0  0  0  0  0  0  0  0  0  0  0  0
    4.0433    3.1236    0.7122 H   0  0  0  0  0  0  0  0  0  0  0  0
    2.4132    3.3444    0.0628 H   0  0  0  0  0  0  0  0  0  0  0  0
    2.6430    2.9029    1.7694 H   0  0  0  0  0  0  0  0  0  0  0  0
    5.8923    1.5611    0.0472 H   0  0  0  0  0  0  0  0  0  0  0  0
  1  2  1  0
  2  3  2  0
  3  4  1  0
  4  5  1  0
  4  6  2  0
  6  7  1  0
  7  8  1  0
  8  9  1  0
  9 10  2  0
  9 11  1  0
 11 12  1  0
 12 13  1  0
 13 14  1  0
 13 15  1  0
 13 16  1  0
 16 17  1  0
 17 18  1  0
 18 19  1  0
 19 20  1  0
 20 21  1  0
  8 22  2  0
 22 23  1  0
 22 24  1  0
 24 25  2  0
 25  2  1  0
 24  6  1  0
 21 16  1  0
  1 26  1  0
  1 27  1  0
  1 28  1  0
  3 29  1  0
 11 30  1  0
 12 31  1  0
 12 32  1  0
 14 33  1  0
 14 34  1  0
 14 35  1  0
 15 36  1  0
 15 37  1  0
 15 38  1  0
 17 39  1  0
 17 40  1  0
 18 41  1  0
 18 42  1  0
 20 43  1  0
 20 44  1  0
 21 45  1  0
 21 46  1  0
 23 47  1  0
 23 48  1  0
 23 49  1  0
 25 50  1  0
M  END
$$$$
