
     RDKit          3D

 64 67  0  0  0  0  0  0  0  0999 V2000
   -2.3688    0.9503    3.0012 C   0  0  0  0  0  0  0  0  0  0  0  0
   -1.5622    0.4267    1.9535 O   0  0  0  0  0  0  0  0  0  0  0  0
   -1.5346    1.0886    0.7527 C   0  0  0  0  0  0  0  0  0  0  0  0
   -2.2771    2.2515    0.4905 C   0  0  0  0  0  0  0  0  0  0  0  0
   -2.1993    2.8971   -0.7492 C   0  0  0  0  0  0  0  0  0  0  0  0
   -2.8893    4.0407   -1.0683 O   0  0  0  0  0  0  0  0  0  0  0  0
   -3.8928    4.4838   -0.1651 C   0  0  0  0  0  0  0  0  0  0  0  0
   -1.3558    2.3781   -1.7429 C   0  0  0  0  0  0  0  0  0  0  0  0
   -1.2087    3.0088   -3.0546 C   0  0  0  0  0  0  0  0  0  0  0  0
   -0.3834    2.4947   -3.9704 C   0  0  0  0  0  0  0  0  0  0  0  0
    0.4015    1.2812   -3.7150 C   0  0  0  0  0  0  0  0  0  0  0  0
    1.1518    0.8216   -4.5675 O   0  0  0  0  0  0  0  0  0  0  0  0
    0.2306    0.6895   -2.4748 O   0  0  0  0  0  0  0  0  0  0  0  0
   -0.6246    1.2147   -1.4747 C   0  0  0  0  0  0  0  0  0  0  0  0
   -0.6954    0.5392   -0.2411 C   0  0  0  0  0  0  0  0  0  0  0  0
    0.1254   -0.7259    0.0456 C   0  0  0  0  0  0  0  0  0  0  0  0
   -0.1580   -1.9069   -0.9230 C   0  0  0  0  0  0  0  0  0  0  0  0
   -1.6294   -2.3512   -0.9856 C   0  0  0  0  0  0  0  0  0  0  0  0
   -2.1970   -2.7408    0.3048 N   0  0  0  0  0  0  0  0  0  0  0  0
   -1.5904   -3.9381    0.8867 C   0  0  0  0  0  0  0  0  0  0  0  0
   -2.5941   -4.3598    1.9524 C   0  0  0  0  0  0  0  0  0  0  0  0
   -3.9112   -3.7077    1.5467 C   0  0  0  0  0  0  0  0  0  0  0  0
   -3.6244   -3.0451    0.2102 C   0  0  0  0  0  0  0  0  0  0  0  0
    1.6135   -0.3996    0.2173 C   0  0  0  0  0  0  0  0  0  0  0  0
    2.0568    0.1439    1.4281 C   0  0  0  0  0  0  0  0  0  0  0  0
    3.4077    0.4666    1.6309 C   0  0  0  0  0  0  0  0  0  0  0  0
    4.3808    0.2813    0.6370 C   0  0  0  0  0  0  0  0  0  0  0  0
    5.7341    0.5813    0.8424 N   0  0  0  0  0  0  0  0  0  0  0  0
    6.5735    0.8249   -0.3298 C   0  0  0  0  0  0  0  0  0  0  0  0
    6.1336    1.2808    2.0618 C   0  0  0  0  0  0  0  0  0  0  0  0
    3.9166   -0.2672   -0.5702 C   0  0  0  0  0  0  0  0  0  0  0  0
    2.5677   -0.5962   -0.7826 C   0  0  0  0  0  0  0  0  0  0  0  0
   -2.0310    1.9505    3.2962 H   0  0  0  0  0  0  0  0  0  0  0  0
   -3.4294    0.9534    2.7234 H   0  0  0  0  0  0  0  0  0  0  0  0
   -2.2580    0.2936    3.8683 H   0  0  0  0  0  0  0  0  0  0  0  0
   -2.9127    2.6629    1.2636 H   0  0  0  0  0  0  0  0  0  0  0  0
   -4.3958    5.3422   -0.6203 H   0  0  0  0  0  0  0  0  0  0  0  0
   -4.6460    3.7078    0.0035 H   0  0  0  0  0  0  0  0  0  0  0  0
   -3.4524    4.8197    0.7780 H   0  0  0  0  0  0  0  0  0  0  0  0
   -1.7793    3.9066   -3.2686 H   0  0  0  0  0  0  0  0  0  0  0  0
   -0.2562    2.9470   -4.9465 H   0  0  0  0  0  0  0  0  0  0  0  0
   -0.1695   -1.1230    1.0253 H   0  0  0  0  0  0  0  0  0  0  0  0
    0.4635   -2.7637   -0.6283 H   0  0  0  0  0  0  0  0  0  0  0  0
    0.1501   -1.6692   -1.9466 H   0  0  0  0  0  0  0  0  0  0  0  0
   -1.7118   -3.1782   -1.7040 H   0  0  0  0  0  0  0  0  0  0  0  0
   -2.2219   -1.5274   -1.4035 H   0  0  0  0  0  0  0  0  0  0  0  0
   -1.4821   -4.7391    0.1442 H   0  0  0  0  0  0  0  0  0  0  0  0
   -0.6093   -3.7378    1.3293 H   0  0  0  0  0  0  0  0  0  0  0  0
   -2.6848   -5.4497    2.0017 H   0  0  0  0  0  0  0  0  0  0  0  0
   -2.2912   -4.0027    2.9438 H   0  0  0  0  0  0  0  0  0  0  0  0
   -4.1986   -2.9582    2.2942 H   0  0  0  0  0  0  0  0  0  0  0  0
   -4.7237   -4.4375    1.4729 H   0  0  0  0  0  0  0  0  0  0  0  0
   -3.8373   -3.7449   -0.6080 H   0  0  0  0  0  0  0  0  0  0  0  0
   -4.2321   -2.1456    0.0695 H   0  0  0  0  0  0  0  0  0  0  0  0
    1.3489    0.3212    2.2355 H   0  0  0  0  0  0  0  0  0  0  0  0
    3.6683    0.8776    2.5999 H   0  0  0  0  0  0  0  0  0  0  0  0
    7.5892    1.1162   -0.0371 H   0  0  0  0  0  0  0  0  0  0  0  0
    6.1660    1.6332   -0.9471 H   0  0  0  0  0  0  0  0  0  0  0  0
    6.6844   -0.0816   -0.9341 H   0  0  0  0  0  0  0  0  0  0  0  0
    5.8450    0.7158    2.9558 H   0  0  0  0  0  0  0  0  0  0  0  0
    5.6976    2.2858    2.1022 H   0  0  0  0  0  0  0  0  0  0  0  0
    7.2230    1.3884    2.1145 H   0  0  0  0  0  0  0  0  0  0  0  0
    4.5982   -0.4664   -1.3914 H   0  0  0  0  0  0  0  0  0  0  0  0
    2.2917   -1.0037   -1.7515 H   0  0  0  0  0  0  0  0  0  0  0  0
  1  2  1  0
  2  3  1  0
  3  4  2  0
  4  5  1  0
  5  6  1  0
  6  7  1  0
  5  8  2  0
  8  9  1  0
  9 10  2  0
 10 11  1  0
 11 12  2  0
 11 13  1  0
 13 14  1  0
 14 15  2  0
 15 16  1  0
 16 17  1  0
 17 18  1  0
 18 19  1  0
 19 20  1  0
 20 21  1  0
 21 22  1  0
 22 23  1  0
 16 24  1  0
 24 25  2  0
 25 26  1  0
 26 27  2  0
 27 28  1  0
 28 29  1  0
 28 30  1  0
 27 31  1  0
 31 32  2  0
 15  3  1  0
 23 19  1  0
 32 24  1  0
 14  8  1  0
  1 33  1  0
  1 34  1  0
  1 35  1  0
  4 36  1  0
  7 37  1  0
  7 38  1  0
  7 39  1  0
  9 40  1  0
 10 41  1  0
 16 42  1  0
 17 43  1  0
 17 44  1  0
 18 45  1  0
 18 46  1  0
 20 47  1  0
 20 48  1  0
 21 49  1  0
 21 50  1  0
 22 51  1  0
 22 52  1  0
 23 53  1  0
 23 54  1  0
 25 55  1  0
 26 56  1  0
 29 57  1  0
 29 58  1  0
 29 59  1  0
 30 60  1  0
 30 61  1  0
 30 62  1  0
 31 63  1  0
 32 64  1  0
M  END
$$$$
