
     RDKit          3D

 46 48  0  0  0  0  0  0  0  0999 V2000
    3.7730   -2.0278    1.2916 O   0  0  0  0  0  0  0  0  0  0  0  0
    3.2815   -1.0114    0.8161 C   0  0  0  0  0  0  0  0  0  0  0  0
    4.1521    0.1375    0.3359 C   0  0  0  0  0  0  0  0  0  0  0  0
    4.4287    0.0631   -1.1421 C   0  0  0  0  0  0  0  0  0  0  0  0
    3.8250    0.9572   -2.0362 C   0  0  0  0  0  0  0  0  0  0  0  0
    4.0953    0.8755   -3.4032 C   0  0  0  0  0  0  0  0  0  0  0  0
    4.9658   -0.0989   -3.8819 C   0  0  0  0  0  0  0  0  0  0  0  0
    5.3091   -0.1854   -5.5665 Cl  0  0  0  0  0  0  0  0  0  0  0  0
    5.5645   -1.0004   -3.0063 C   0  0  0  0  0  0  0  0  0  0  0  0
    5.2937   -0.9214   -1.6400 C   0  0  0  0  0  0  0  0  0  0  0  0
    1.9211   -0.7221    0.7648 N   0  0  0  0  0  0  0  0  0  0  0  0
    0.8629   -1.5877    0.5868 C   0  0  0  0  0  0  0  0  0  0  0  0
    0.9554   -3.2113    0.1941 S   0  0  0  0  0  0  0  0  0  0  0  0
   -0.3829   -1.0292    0.6633 N   0  0  0  0  0  0  0  0  0  0  0  0
   -0.8707    0.1731    1.2263 C   0  0  0  0  0  0  0  0  0  0  0  0
   -0.1248    0.9805    2.0908 C   0  0  0  0  0  0  0  0  0  0  0  0
   -0.6526    2.1796    2.5628 C   0  0  0  0  0  0  0  0  0  0  0  0
   -1.9307    2.5682    2.1857 C   0  0  0  0  0  0  0  0  0  0  0  0
   -2.7019    1.7448    1.3617 C   0  0  0  0  0  0  0  0  0  0  0  0
   -2.2059    0.5250    0.8889 C   0  0  0  0  0  0  0  0  0  0  0  0
   -2.9709   -0.3676    0.1168 N   0  0  0  0  0  0  0  0  0  0  0  0
   -3.5982   -1.4632    0.8990 C   0  0  0  0  0  0  0  0  0  0  0  0
   -5.0298   -1.1074    1.3235 C   0  0  0  0  0  0  0  0  0  0  0  0
   -5.8385   -0.7803    0.1820 O   0  0  0  0  0  0  0  0  0  0  0  0
   -5.3087    0.3701   -0.4908 C   0  0  0  0  0  0  0  0  0  0  0  0
   -3.8514    0.1676   -0.9447 C   0  0  0  0  0  0  0  0  0  0  0  0
    5.0990    0.1126    0.8944 H   0  0  0  0  0  0  0  0  0  0  0  0
    3.6815    1.0946    0.5917 H   0  0  0  0  0  0  0  0  0  0  0  0
    3.1477    1.7272   -1.6818 H   0  0  0  0  0  0  0  0  0  0  0  0
    3.6272    1.5731   -4.0878 H   0  0  0  0  0  0  0  0  0  0  0  0
    6.2430   -1.7668   -3.3761 H   0  0  0  0  0  0  0  0  0  0  0  0
    5.7623   -1.6375   -0.9640 H   0  0  0  0  0  0  0  0  0  0  0  0
    1.6873    0.2040    0.4386 H   0  0  0  0  0  0  0  0  0  0  0  0
   -1.1146   -1.5817    0.2208 H   0  0  0  0  0  0  0  0  0  0  0  0
    0.8504    0.6822    2.4554 H   0  0  0  0  0  0  0  0  0  0  0  0
   -0.0711    2.8019    3.2378 H   0  0  0  0  0  0  0  0  0  0  0  0
   -2.3422    3.5015    2.5572 H   0  0  0  0  0  0  0  0  0  0  0  0
   -3.7063    2.0701    1.1267 H   0  0  0  0  0  0  0  0  0  0  0  0
   -3.6312   -2.3456    0.2463 H   0  0  0  0  0  0  0  0  0  0  0  0
   -3.0020   -1.7372    1.7812 H   0  0  0  0  0  0  0  0  0  0  0  0
   -5.0451   -0.2684    2.0302 H   0  0  0  0  0  0  0  0  0  0  0  0
   -5.4907   -1.9677    1.8191 H   0  0  0  0  0  0  0  0  0  0  0  0
   -5.9390    0.5576   -1.3679 H   0  0  0  0  0  0  0  0  0  0  0  0
   -5.4192    1.2383    0.1656 H   0  0  0  0  0  0  0  0  0  0  0  0
   -3.4463    1.0900   -1.3754 H   0  0  0  0  0  0  0  0  0  0  0  0
   -3.8518   -0.5763   -1.7503 H   0  0  0  0  0  0  0  0  0  0  0  0
  1  2  2  0
  2  3  1  0
  3  4  1  0
  4  5  2  0
  5  6  1  0
  6  7  2  0
  7  8  1  0
  7  9  1  0
  9 10  2  0
  2 11  1  0
 11 12  1  0
 12 13  2  0
 12 14  1  0
 14 15  1  0
 15 16  2  0
 16 17  1  0
 17 18  2  0
 18 19  1  0
 19 20  2  0
 20 21  1  0
 21 22  1  0
 22 23  1  0
 23 24  1  0
 24 25  1  0
 25 26  1  0
 10  4  1  0
 20 15  1  0
 26 21  1  0
  3 27  1  0
  3 28  1  0
  5 29  1  0
  6 30  1  0
  9 31  1  0
 10 32  1  0
 11 33  1  0
 14 34  1  0
 16 35  1  0
 17 36  1  0
 18 37  1  0
 19 38  1  0
 22 39  1  0
 22 40  1  0
 23 41  1  0
 23 42  1  0
 25 43  1  0
 25 44  1  0
 26 45  1  0
 26 46  1  0
M  END
$$$$
