
     RDKit          3D

 40 43  0  0  0  0  0  0  0  0999 V2000
    7.1556    1.5886    1.7406 C   0  0  0  0  0  0  0  0  0  0  0  0
    6.8700    0.4349    0.9605 O   0  0  0  0  0  0  0  0  0  0  0  0
    5.5548    0.1864    0.6823 C   0  0  0  0  0  0  0  0  0  0  0  0
    5.3236   -0.9609   -0.0765 C   0  0  0  0  0  0  0  0  0  0  0  0
    4.0223   -1.3315   -0.4318 C   0  0  0  0  0  0  0  0  0  0  0  0
    2.9214   -0.5593   -0.0360 C   0  0  0  0  0  0  0  0  0  0  0  0
    1.5583   -0.9545   -0.4158 C   0  0  0  0  0  0  0  0  0  0  0  0
    0.3397   -0.2527   -0.1912 C   0  0  0  0  0  0  0  0  0  0  0  0
   -0.6645   -1.0269   -0.7330 C   0  0  0  0  0  0  0  0  0  0  0  0
   -2.0487   -0.8471   -0.8122 N   0  0  0  0  0  0  0  0  0  0  0  0
   -2.8510   -1.8988   -1.2776 C   0  0  0  0  0  0  0  0  0  0  0  0
   -2.4150   -2.9294   -1.8032 O   0  0  0  0  0  0  0  0  0  0  0  0
   -4.2031   -1.7858   -1.1151 N   0  0  0  0  0  0  0  0  0  0  0  0
   -4.8110   -0.6999   -0.4979 C   0  0  0  0  0  0  0  0  0  0  0  0
   -6.1970   -0.6810   -0.3299 C   0  0  0  0  0  0  0  0  0  0  0  0
   -6.8039    0.4304    0.2535 C   0  0  0  0  0  0  0  0  0  0  0  0
   -6.0267    1.5141    0.6582 C   0  0  0  0  0  0  0  0  0  0  0  0
   -4.6407    1.4841    0.4824 C   0  0  0  0  0  0  0  0  0  0  0  0
   -4.0130    0.3696   -0.0933 C   0  0  0  0  0  0  0  0  0  0  0  0
   -2.6075    0.3440   -0.2758 N   0  0  0  0  0  0  0  0  0  0  0  0
   -1.9989    1.5533   -0.6324 O   0  0  0  0  0  0  0  0  0  0  0  0
   -0.0181   -2.1318   -1.2198 N   0  0  0  0  0  0  0  0  0  0  0  0
    1.3140   -2.1054   -1.0647 N   0  0  0  0  0  0  0  0  0  0  0  0
    3.1634    0.5918    0.7275 C   0  0  0  0  0  0  0  0  0  0  0  0
    4.4688    0.9623    1.0839 C   0  0  0  0  0  0  0  0  0  0  0  0
    6.7000    1.5166    2.7338 H   0  0  0  0  0  0  0  0  0  0  0  0
    6.8397    2.5017    1.2253 H   0  0  0  0  0  0  0  0  0  0  0  0
    8.2402    1.6410    1.8753 H   0  0  0  0  0  0  0  0  0  0  0  0
    6.1611   -1.5762   -0.3956 H   0  0  0  0  0  0  0  0  0  0  0  0
    3.8756   -2.2331   -1.0237 H   0  0  0  0  0  0  0  0  0  0  0  0
    0.2110    0.6952    0.3097 H   0  0  0  0  0  0  0  0  0  0  0  0
   -4.7518   -2.5727   -1.4319 H   0  0  0  0  0  0  0  0  0  0  0  0
   -6.8112   -1.5175   -0.6506 H   0  0  0  0  0  0  0  0  0  0  0  0
   -7.8824    0.4538    0.3900 H   0  0  0  0  0  0  0  0  0  0  0  0
   -6.4965    2.3831    1.1126 H   0  0  0  0  0  0  0  0  0  0  0  0
   -4.0428    2.3327    0.8078 H   0  0  0  0  0  0  0  0  0  0  0  0
   -1.9281    1.4614   -1.5991 H   0  0  0  0  0  0  0  0  0  0  0  0
   -0.4496   -2.9320   -1.6770 H   0  0  0  0  0  0  0  0  0  0  0  0
    2.3447    1.2213    1.0647 H   0  0  0  0  0  0  0  0  0  0  0  0
    4.5974    1.8619    1.6763 H   0  0  0  0  0  0  0  0  0  0  0  0
  1  2  1  0
  2  3  1  0
  3  4  2  0
  4  5  1  0
  5  6  2  0
  6  7  1  0
  7  8  1  0
  8  9  2  0
  9 10  1  0
 10 11  1  0
 11 12  2  0
 11 13  1  0
 13 14  1  0
 14 15  2  0
 15 16  1  0
 16 17  2  0
 17 18  1  0
 18 19  2  0
 19 20  1  0
 20 21  1  0
  9 22  1  0
 22 23  1  0
  6 24  1  0
 24 25  2  0
 25  3  1  0
 23  7  2  0
 20 10  1  0
 19 14  1  0
  1 26  1  0
  1 27  1  0
  1 28  1  0
  4 29  1  0
  5 30  1  0
  8 31  1  0
 13 32  1  0
 15 33  1  0
 16 34  1  0
 17 35  1  0
 18 36  1  0
 21 37  1  0
 22 38  1  0
 24 39  1  0
 25 40  1  0
M  END
$$$$
