
     RDKit          3D

 44 46  0  0  0  0  0  0  0  0999 V2000
    7.0077   -1.7767   -2.5262 C   0  0  0  0  0  0  0  0  0  0  0  0
    6.4479   -1.7764   -1.2181 O   0  0  0  0  0  0  0  0  0  0  0  0
    5.3336   -1.0087   -1.0251 C   0  0  0  0  0  0  0  0  0  0  0  0
    4.8333   -1.0222    0.2769 C   0  0  0  0  0  0  0  0  0  0  0  0
    3.6985   -0.2779    0.6116 C   0  0  0  0  0  0  0  0  0  0  0  0
    3.0450    0.4947   -0.3544 C   0  0  0  0  0  0  0  0  0  0  0  0
    1.9145    1.2210    0.0623 N   0  0  0  0  0  0  0  0  0  0  0  0
    1.0793    2.0166   -0.7009 C   0  0  0  0  0  0  0  0  0  0  0  0
    1.1676    2.2173   -1.9098 O   0  0  0  0  0  0  0  0  0  0  0  0
   -0.0286    2.6822    0.1268 C   0  0  0  0  0  0  0  0  0  0  0  0
   -1.1416    1.8420    0.3873 O   0  0  0  0  0  0  0  0  0  0  0  0
   -1.0531    1.0260    1.4723 C   0  0  0  0  0  0  0  0  0  0  0  0
    0.0575    1.0487    2.2173 N   0  0  0  0  0  0  0  0  0  0  0  0
   -0.2539   -0.0284    3.4552 S   0  0  0  0  0  0  0  0  0  0  0  0
   -1.7782   -0.5359    3.0377 N   0  0  0  0  0  0  0  0  0  0  0  0
   -2.1071    0.1067    1.9079 C   0  0  0  0  0  0  0  0  0  0  0  0
   -3.3121   -0.0773    1.2686 N   0  0  0  0  0  0  0  0  0  0  0  0
   -4.3630   -0.8546    1.9334 C   0  0  0  0  0  0  0  0  0  0  0  0
   -5.7347   -0.4220    1.4248 C   0  0  0  0  0  0  0  0  0  0  0  0
   -5.8788   -0.6044   -0.0851 C   0  0  0  0  0  0  0  0  0  0  0  0
   -4.5326   -0.6615   -0.8003 C   0  0  0  0  0  0  0  0  0  0  0  0
   -3.4928    0.2477   -0.1490 C   0  0  0  0  0  0  0  0  0  0  0  0
    3.5467    0.5070   -1.6558 C   0  0  0  0  0  0  0  0  0  0  0  0
    4.6845   -0.2416   -1.9908 C   0  0  0  0  0  0  0  0  0  0  0  0
    7.8949   -2.4181   -2.5106 H   0  0  0  0  0  0  0  0  0  0  0  0
    6.3046   -2.1966   -3.2540 H   0  0  0  0  0  0  0  0  0  0  0  0
    7.3297   -0.7715   -2.8199 H   0  0  0  0  0  0  0  0  0  0  0  0
    5.3325   -1.6162    1.0384 H   0  0  0  0  0  0  0  0  0  0  0  0
    3.3380   -0.3132    1.6361 H   0  0  0  0  0  0  0  0  0  0  0  0
    1.6346    1.1026    1.0340 H   0  0  0  0  0  0  0  0  0  0  0  0
    0.3852    3.1496    1.0300 H   0  0  0  0  0  0  0  0  0  0  0  0
   -0.4045    3.5194   -0.4757 H   0  0  0  0  0  0  0  0  0  0  0  0
   -4.2060   -1.9256    1.7535 H   0  0  0  0  0  0  0  0  0  0  0  0
   -4.3462   -0.6958    3.0199 H   0  0  0  0  0  0  0  0  0  0  0  0
   -6.5251   -0.9779    1.9420 H   0  0  0  0  0  0  0  0  0  0  0  0
   -5.8869    0.6376    1.6703 H   0  0  0  0  0  0  0  0  0  0  0  0
   -6.4329   -1.5260   -0.2978 H   0  0  0  0  0  0  0  0  0  0  0  0
   -6.4834    0.2194   -0.4851 H   0  0  0  0  0  0  0  0  0  0  0  0
   -4.1638   -1.6954   -0.7820 H   0  0  0  0  0  0  0  0  0  0  0  0
   -4.6613   -0.3977   -1.8555 H   0  0  0  0  0  0  0  0  0  0  0  0
   -2.5579    0.1133   -0.7064 H   0  0  0  0  0  0  0  0  0  0  0  0
   -3.8002    1.2957   -0.2455 H   0  0  0  0  0  0  0  0  0  0  0  0
    3.0773    1.0910   -2.4407 H   0  0  0  0  0  0  0  0  0  0  0  0
    5.0317   -0.1981   -3.0176 H   0  0  0  0  0  0  0  0  0  0  0  0
  1  2  1  0
  2  3  1  0
  3  4  2  0
  4  5  1  0
  5  6  2  0
  6  7  1  0
  7  8  1  0
  8  9  2  0
  8 10  1  0
 10 11  1  0
 11 12  1  0
 12 13  2  0
 13 14  1  0
 14 15  1  0
 15 16  2  0
 16 17  1  0
 17 18  1  0
 18 19  1  0
 19 20  1  0
 20 21  1  0
 21 22  1  0
  6 23  1  0
 23 24  2  0
 24  3  1  0
 16 12  1  0
 22 17  1  0
  1 25  1  0
  1 26  1  0
  1 27  1  0
  4 28  1  0
  5 29  1  0
  7 30  1  0
 10 31  1  0
 10 32  1  0
 18 33  1  0
 18 34  1  0
 19 35  1  0
 19 36  1  0
 20 37  1  0
 20 38  1  0
 21 39  1  0
 21 40  1  0
 22 41  1  0
 22 42  1  0
 23 43  1  0
 24 44  1  0
M  END
$$$$
