
     RDKit          3D

 58 61  0  0  0  0  0  0  0  0999 V2000
    1.7005   -1.7385    2.9518 S   0  0  0  0  0  0  0  0  0  0  0  0
    1.2688   -1.2176    1.4174 C   0  0  0  0  0  0  0  0  0  0  0  0
    2.1330   -1.5447    0.4152 N   0  0  0  0  0  0  0  0  0  0  0  0
    2.4205   -0.7667   -0.7842 C   0  0  0  0  0  0  0  0  0  0  0  0
    3.9234   -0.5674   -0.9866 C   0  0  0  0  0  0  0  0  0  0  0  0
    4.5164    0.3798    0.0666 C   0  0  0  0  0  0  0  0  0  0  0  0
    5.9466    0.6230   -0.1677 N   0  0  0  0  0  0  0  0  0  0  0  0
    6.3802    1.8602    0.5208 C   0  0  0  0  0  0  0  0  0  0  0  0
    7.9028    1.8987    0.7187 C   0  0  0  0  0  0  0  0  0  0  0  0
    8.3799    0.8498    1.5719 O   0  0  0  0  0  0  0  0  0  0  0  0
    7.5280   -0.3024    1.5739 C   0  0  0  0  0  0  0  0  0  0  0  0
    6.8048   -0.5154    0.2335 C   0  0  0  0  0  0  0  0  0  0  0  0
    0.1327   -0.5002    1.1027 N   0  0  0  0  0  0  0  0  0  0  0  0
   -0.6661    0.1761    2.1435 C   0  0  0  0  0  0  0  0  0  0  0  0
   -1.7032    1.1624    1.5746 C   0  0  0  0  0  0  0  0  0  0  0  0
   -2.5853    0.5117    0.6035 N   0  0  0  0  0  0  0  0  0  0  0  0
   -3.8493    0.9421    0.3365 C   0  0  0  0  0  0  0  0  0  0  0  0
   -4.7048    0.2480   -0.3839 N   0  0  0  0  0  0  0  0  0  0  0  0
   -5.9211    0.9021   -0.5197 C   0  0  0  0  0  0  0  0  0  0  0  0
   -7.0197    0.2936   -1.2698 C   0  0  0  0  0  0  0  0  0  0  0  0
   -8.1651    1.0113   -1.6463 C   0  0  0  0  0  0  0  0  0  0  0  0
   -9.1947    0.3913   -2.3620 C   0  0  0  0  0  0  0  0  0  0  0  0
   -9.0920   -0.9512   -2.7141 C   0  0  0  0  0  0  0  0  0  0  0  0
   -7.9601   -1.6767   -2.3531 C   0  0  0  0  0  0  0  0  0  0  0  0
   -6.9323   -1.0579   -1.6376 C   0  0  0  0  0  0  0  0  0  0  0  0
   -5.9763    2.1258    0.1134 C   0  0  0  0  0  0  0  0  0  0  0  0
   -4.4853    2.4597    0.8800 S   0  0  0  0  0  0  0  0  0  0  0  0
   -2.1129   -0.7299   -0.0184 C   0  0  0  0  0  0  0  0  0  0  0  0
   -0.5804   -0.7161   -0.1716 C   0  0  0  0  0  0  0  0  0  0  0  0
    2.8798   -2.1528    0.7349 H   0  0  0  0  0  0  0  0  0  0  0  0
    2.0133   -1.3303   -1.6294 H   0  0  0  0  0  0  0  0  0  0  0  0
    1.9249    0.2067   -0.7357 H   0  0  0  0  0  0  0  0  0  0  0  0
    4.0853   -0.1389   -1.9839 H   0  0  0  0  0  0  0  0  0  0  0  0
    4.4247   -1.5418   -0.9703 H   0  0  0  0  0  0  0  0  0  0  0  0
    3.9711    1.3304   -0.0075 H   0  0  0  0  0  0  0  0  0  0  0  0
    4.3511   -0.0027    1.0811 H   0  0  0  0  0  0  0  0  0  0  0  0
    6.0657    2.7265   -0.0710 H   0  0  0  0  0  0  0  0  0  0  0  0
    5.9028    1.9352    1.5072 H   0  0  0  0  0  0  0  0  0  0  0  0
    8.4224    1.8207   -0.2429 H   0  0  0  0  0  0  0  0  0  0  0  0
    8.1997    2.8502    1.1723 H   0  0  0  0  0  0  0  0  0  0  0  0
    8.1539   -1.1709    1.8033 H   0  0  0  0  0  0  0  0  0  0  0  0
    6.8077   -0.1958    2.3928 H   0  0  0  0  0  0  0  0  0  0  0  0
    7.5654   -0.6266   -0.5502 H   0  0  0  0  0  0  0  0  0  0  0  0
    6.2524   -1.4605    0.2648 H   0  0  0  0  0  0  0  0  0  0  0  0
    0.0097    0.7075    2.8225 H   0  0  0  0  0  0  0  0  0  0  0  0
   -1.1819   -0.6034    2.7190 H   0  0  0  0  0  0  0  0  0  0  0  0
   -1.1845    1.9912    1.0787 H   0  0  0  0  0  0  0  0  0  0  0  0
   -2.2671    1.5703    2.4212 H   0  0  0  0  0  0  0  0  0  0  0  0
   -8.2775    2.0624   -1.4023 H   0  0  0  0  0  0  0  0  0  0  0  0
  -10.0759    0.9605   -2.6479 H   0  0  0  0  0  0  0  0  0  0  0  0
   -9.8917   -1.4310   -3.2715 H   0  0  0  0  0  0  0  0  0  0  0  0
   -7.8730   -2.7239   -2.6269 H   0  0  0  0  0  0  0  0  0  0  0  0
   -6.0551   -1.6418   -1.3642 H   0  0  0  0  0  0  0  0  0  0  0  0
   -6.7895    2.8319    0.1780 H   0  0  0  0  0  0  0  0  0  0  0  0
   -2.4189   -1.5821    0.6010 H   0  0  0  0  0  0  0  0  0  0  0  0
   -2.5466   -0.8669   -1.0171 H   0  0  0  0  0  0  0  0  0  0  0  0
   -0.3015    0.1101   -0.8358 H   0  0  0  0  0  0  0  0  0  0  0  0
   -0.2560   -1.6566   -0.6293 H   0  0  0  0  0  0  0  0  0  0  0  0
  1  2  2  0
  2  3  1  0
  3  4  1  0
  4  5  1  0
  5  6  1  0
  6  7  1  0
  7  8  1  0
  8  9  1  0
  9 10  1  0
 10 11  1  0
 11 12  1  0
  2 13  1  0
 13 14  1  0
 14 15  1  0
 15 16  1  0
 16 17  1  0
 17 18  2  0
 18 19  1  0
 19 20  1  0
 20 21  2  0
 21 22  1  0
 22 23  2  0
 23 24  1  0
 24 25  2  0
 19 26  2  0
 26 27  1  0
 16 28  1  0
 28 29  1  0
 12  7  1  0
 29 13  1  0
 27 17  1  0
 25 20  1  0
  3 30  1  0
  4 31  1  0
  4 32  1  0
  5 33  1  0
  5 34  1  0
  6 35  1  0
  6 36  1  0
  8 37  1  0
  8 38  1  0
  9 39  1  0
  9 40  1  0
 11 41  1  0
 11 42  1  0
 12 43  1  0
 12 44  1  0
 14 45  1  0
 14 46  1  0
 15 47  1  0
 15 48  1  0
 21 49  1  0
 22 50  1  0
 23 51  1  0
 24 52  1  0
 25 53  1  0
 26 54  1  0
 28 55  1  0
 28 56  1  0
 29 57  1  0
 29 58  1  0
M  END
$$$$
