
     RDKit          3D

 51 54  0  0  0  0  0  0  0  0999 V2000
   -5.9121   -1.3783    1.8599 C   0  0  0  0  0  0  0  0  0  0  0  0
   -4.6212   -1.1683    1.3008 O   0  0  0  0  0  0  0  0  0  0  0  0
   -4.5530   -0.6323    0.0399 C   0  0  0  0  0  0  0  0  0  0  0  0
   -5.6730   -0.3580   -0.7562 C   0  0  0  0  0  0  0  0  0  0  0  0
   -5.5231    0.1757   -2.0375 C   0  0  0  0  0  0  0  0  0  0  0  0
   -4.2530    0.4347   -2.5377 C   0  0  0  0  0  0  0  0  0  0  0  0
   -3.1307    0.1649   -1.7555 C   0  0  0  0  0  0  0  0  0  0  0  0
   -3.2586   -0.3629   -0.4564 C   0  0  0  0  0  0  0  0  0  0  0  0
   -2.0125   -0.6558    0.3747 C   0  0  0  0  0  0  0  0  0  0  0  0
   -1.2810   -1.9024   -0.1498 C   0  0  0  0  0  0  0  0  0  0  0  0
    0.1249   -1.9654    0.4410 C   0  0  0  0  0  0  0  0  0  0  0  0
    0.9715   -0.8512   -0.0043 N   0  0  0  0  0  0  0  0  0  0  0  0
    2.0978   -0.6593    0.9221 C   0  0  0  0  0  0  0  0  0  0  0  0
    3.2013    0.1255    0.2692 C   0  0  0  0  0  0  0  0  0  0  0  0
    3.9165   -0.2262   -0.8691 C   0  0  0  0  0  0  0  0  0  0  0  0
    3.7986   -1.4127   -1.7557 C   0  0  0  0  0  0  0  0  0  0  0  0
    4.8262    0.7691   -1.1186 N   0  0  0  0  0  0  0  0  0  0  0  0
    4.7453    1.7518   -0.1621 C   0  0  0  0  0  0  0  0  0  0  0  0
    5.4832    2.9336   -0.0203 C   0  0  0  0  0  0  0  0  0  0  0  0
    5.1791    3.7621    1.0635 C   0  0  0  0  0  0  0  0  0  0  0  0
    4.1769    3.4198    1.9677 C   0  0  0  0  0  0  0  0  0  0  0  0
    3.4493    2.2343    1.8094 C   0  0  0  0  0  0  0  0  0  0  0  0
    3.7357    1.3785    0.7241 C   0  0  0  0  0  0  0  0  0  0  0  0
    0.2295    0.3851   -0.2883 C   0  0  0  0  0  0  0  0  0  0  0  0
   -1.0574    0.5484    0.5222 C   0  0  0  0  0  0  0  0  0  0  0  0
   -6.4689   -2.1320    1.2931 H   0  0  0  0  0  0  0  0  0  0  0  0
   -5.7785   -1.7607    2.8768 H   0  0  0  0  0  0  0  0  0  0  0  0
   -6.4711   -0.4387    1.9304 H   0  0  0  0  0  0  0  0  0  0  0  0
   -6.6826   -0.5533   -0.4105 H   0  0  0  0  0  0  0  0  0  0  0  0
   -6.4002    0.3833   -2.6452 H   0  0  0  0  0  0  0  0  0  0  0  0
   -4.1328    0.8431   -3.5377 H   0  0  0  0  0  0  0  0  0  0  0  0
   -2.1486    0.3658   -2.1759 H   0  0  0  0  0  0  0  0  0  0  0  0
   -2.3288   -0.8829    1.4014 H   0  0  0  0  0  0  0  0  0  0  0  0
   -1.8434   -2.8032    0.1260 H   0  0  0  0  0  0  0  0  0  0  0  0
   -1.2177   -1.9056   -1.2457 H   0  0  0  0  0  0  0  0  0  0  0  0
    0.5989   -2.9077    0.1425 H   0  0  0  0  0  0  0  0  0  0  0  0
    0.0389   -1.9816    1.5358 H   0  0  0  0  0  0  0  0  0  0  0  0
    2.5239   -1.6326    1.2018 H   0  0  0  0  0  0  0  0  0  0  0  0
    1.7617   -0.1839    1.8514 H   0  0  0  0  0  0  0  0  0  0  0  0
    2.9811   -1.2716   -2.4720 H   0  0  0  0  0  0  0  0  0  0  0  0
    3.5955   -2.3169   -1.1711 H   0  0  0  0  0  0  0  0  0  0  0  0
    4.7229   -1.5817   -2.3202 H   0  0  0  0  0  0  0  0  0  0  0  0
    5.4729    0.7824   -1.8939 H   0  0  0  0  0  0  0  0  0  0  0  0
    6.2647    3.2022   -0.7233 H   0  0  0  0  0  0  0  0  0  0  0  0
    5.7338    4.6871    1.2013 H   0  0  0  0  0  0  0  0  0  0  0  0
    3.9540    4.0780    2.8039 H   0  0  0  0  0  0  0  0  0  0  0  0
    2.6680    1.9824    2.5201 H   0  0  0  0  0  0  0  0  0  0  0  0
   -0.0194    0.3753   -1.3559 H   0  0  0  0  0  0  0  0  0  0  0  0
    0.8467    1.2807   -0.1542 H   0  0  0  0  0  0  0  0  0  0  0  0
   -1.5512    1.4911    0.2566 H   0  0  0  0  0  0  0  0  0  0  0  0
   -0.7799    0.6468    1.5813 H   0  0  0  0  0  0  0  0  0  0  0  0
  1  2  1  0
  2  3  1  0
  3  4  2  0
  4  5  1  0
  5  6  2  0
  6  7  1  0
  7  8  2  0
  8  9  1  0
  9 10  1  0
 10 11  1  0
 11 12  1  0
 12 13  1  0
 13 14  1  0
 14 15  2  0
 15 16  1  0
 15 17  1  0
 17 18  1  0
 18 19  2  0
 19 20  1  0
 20 21  2  0
 21 22  1  0
 22 23  2  0
 12 24  1  0
 24 25  1  0
  8  3  1  0
 25  9  1  0
 23 14  1  0
 23 18  1  0
  1 26  1  0
  1 27  1  0
  1 28  1  0
  4 29  1  0
  5 30  1  0
  6 31  1  0
  7 32  1  0
  9 33  1  0
 10 34  1  0
 10 35  1  0
 11 36  1  0
 11 37  1  0
 13 38  1  0
 13 39  1  0
 16 40  1  0
 16 41  1  0
 16 42  1  0
 17 43  1  0
 19 44  1  0
 20 45  1  0
 21 46  1  0
 22 47  1  0
 24 48  1  0
 24 49  1  0
 25 50  1  0
 25 51  1  0
M  END
$$$$
