
     RDKit          3D

 48 50  0  0  0  0  0  0  0  0999 V2000
    4.7901   -1.6458    3.7400 C   0  0  0  0  0  0  0  0  0  0  0  0
    4.3350   -0.8383    2.5518 C   0  0  0  0  0  0  0  0  0  0  0  0
    5.2972   -0.1944    1.7643 C   0  0  0  0  0  0  0  0  0  0  0  0
    4.9384    0.5670    0.6512 C   0  0  0  0  0  0  0  0  0  0  0  0
    3.5782    0.6710    0.3356 C   0  0  0  0  0  0  0  0  0  0  0  0
    2.8370    1.5355   -0.9521 S   0  0  0  0  0  0  0  0  0  0  0  0
    1.2979    0.9768   -0.4603 C   0  0  0  0  0  0  0  0  0  0  0  0
    0.1242    1.3876   -1.1054 N   0  0  0  0  0  0  0  0  0  0  0  0
   -1.1607    1.0291   -0.4749 C   0  0  0  0  0  0  0  0  0  0  0  0
   -1.6217   -0.3784   -0.8702 C   0  0  0  0  0  0  0  0  0  0  0  0
   -2.9037   -0.7581   -0.1199 C   0  0  0  0  0  0  0  0  0  0  0  0
   -3.4902   -2.0258   -0.5842 N   0  0  0  0  0  0  0  0  0  0  0  0
   -2.6393   -3.1772   -0.2729 C   0  0  0  0  0  0  0  0  0  0  0  0
   -4.8139   -2.2165    0.0156 C   0  0  0  0  0  0  0  0  0  0  0  0
    0.1665    1.7689   -2.4610 C   0  0  0  0  0  0  0  0  0  0  0  0
    1.0567    1.4216   -3.2357 O   0  0  0  0  0  0  0  0  0  0  0  0
   -0.9270    2.6187   -2.9237 C   0  0  0  0  0  0  0  0  0  0  0  0
   -1.4642    3.7531   -2.3370 C   0  0  0  0  0  0  0  0  0  0  0  0
   -2.5196    4.3179   -3.1148 C   0  0  0  0  0  0  0  0  0  0  0  0
   -2.7232    3.6004   -4.2658 C   0  0  0  0  0  0  0  0  0  0  0  0
   -4.0493    4.0499   -5.5663 Br  0  0  0  0  0  0  0  0  0  0  0  0
   -1.6760    2.2805   -4.4296 S   0  0  0  0  0  0  0  0  0  0  0  0
    1.2943    0.2588    0.6409 N   0  0  0  0  0  0  0  0  0  0  0  0
    2.5901    0.0444    1.0926 C   0  0  0  0  0  0  0  0  0  0  0  0
    2.9572   -0.7281    2.2273 C   0  0  0  0  0  0  0  0  0  0  0  0
    1.9172   -1.4194    3.0692 C   0  0  0  0  0  0  0  0  0  0  0  0
    5.8797   -1.6223    3.8495 H   0  0  0  0  0  0  0  0  0  0  0  0
    4.3594   -1.2423    4.6617 H   0  0  0  0  0  0  0  0  0  0  0  0
    4.4943   -2.6931    3.6237 H   0  0  0  0  0  0  0  0  0  0  0  0
    6.3542   -0.2804    2.0128 H   0  0  0  0  0  0  0  0  0  0  0  0
    5.6935    1.0619    0.0481 H   0  0  0  0  0  0  0  0  0  0  0  0
   -1.0563    1.1131    0.6141 H   0  0  0  0  0  0  0  0  0  0  0  0
   -1.9370    1.7453   -0.7532 H   0  0  0  0  0  0  0  0  0  0  0  0
   -0.8242   -1.0963   -0.6494 H   0  0  0  0  0  0  0  0  0  0  0  0
   -1.7949   -0.4176   -1.9528 H   0  0  0  0  0  0  0  0  0  0  0  0
   -3.6333    0.0456   -0.2854 H   0  0  0  0  0  0  0  0  0  0  0  0
   -2.7074   -0.7919    0.9599 H   0  0  0  0  0  0  0  0  0  0  0  0
   -1.6910   -3.1294   -0.8167 H   0  0  0  0  0  0  0  0  0  0  0  0
   -3.1208   -4.1086   -0.5929 H   0  0  0  0  0  0  0  0  0  0  0  0
   -2.4248   -3.2541    0.7991 H   0  0  0  0  0  0  0  0  0  0  0  0
   -4.7670   -2.2776    1.1090 H   0  0  0  0  0  0  0  0  0  0  0  0
   -5.2807   -3.1331   -0.3625 H   0  0  0  0  0  0  0  0  0  0  0  0
   -5.4833   -1.3927   -0.2565 H   0  0  0  0  0  0  0  0  0  0  0  0
   -1.1132    4.1627   -1.3966 H   0  0  0  0  0  0  0  0  0  0  0  0
   -3.0815    5.2027   -2.8418 H   0  0  0  0  0  0  0  0  0  0  0  0
    0.9058   -1.2415    2.6905 H   0  0  0  0  0  0  0  0  0  0  0  0
    2.0838   -2.5012    3.0663 H   0  0  0  0  0  0  0  0  0  0  0  0
    1.9535   -1.0484    4.0983 H   0  0  0  0  0  0  0  0  0  0  0  0
  1  2  1  0
  2  3  2  0
  3  4  1  0
  4  5  2  0
  5  6  1  0
  6  7  1  0
  7  8  1  0
  8  9  1  0
  9 10  1  0
 10 11  1  0
 11 12  1  0
 12 13  1  0
 12 14  1  0
  8 15  1  0
 15 16  2  0
 15 17  1  0
 17 18  2  0
 18 19  1  0
 19 20  2  0
 20 21  1  0
 20 22  1  0
  7 23  2  0
 23 24  1  0
 24 25  2  0
 25 26  1  0
 25  2  1  0
 24  5  1  0
 22 17  1  0
  1 27  1  0
  1 28  1  0
  1 29  1  0
  3 30  1  0
  4 31  1  0
  9 32  1  0
  9 33  1  0
 10 34  1  0
 10 35  1  0
 11 36  1  0
 11 37  1  0
 13 38  1  0
 13 39  1  0
 13 40  1  0
 14 41  1  0
 14 42  1  0
 14 43  1  0
 18 44  1  0
 19 45  1  0
 26 46  1  0
 26 47  1  0
 26 48  1  0
M  END
$$$$
