
     RDKit          3D

 42 44  0  0  0  0  0  0  0  0999 V2000
    5.8175    0.5104   -1.9275 C   0  0  0  0  0  0  0  0  0  0  0  0
    4.8640   -0.6755   -1.9083 C   0  0  0  0  0  0  0  0  0  0  0  0
    3.5225   -0.2914   -1.2884 C   0  0  0  0  0  0  0  0  0  0  0  0
    2.4089   -1.7362   -1.2833 S   0  0  0  0  0  0  0  0  0  0  0  0
    0.9536   -1.0300   -0.5190 C   0  0  0  0  0  0  0  0  0  0  0  0
   -0.1407   -1.8431   -0.3149 C   0  0  0  0  0  0  0  0  0  0  0  0
   -1.2539   -1.2790    0.2711 C   0  0  0  0  0  0  0  0  0  0  0  0
   -2.3883   -2.0130    0.5269 N   0  0  0  0  0  0  0  0  0  0  0  0
   -2.7441   -3.2407   -0.1749 C   0  0  0  0  0  0  0  0  0  0  0  0
   -4.2699   -3.2950   -0.0856 C   0  0  0  0  0  0  0  0  0  0  0  0
   -4.5842   -2.4899    1.1653 C   0  0  0  0  0  0  0  0  0  0  0  0
   -3.5596   -1.3616    1.1017 C   0  0  0  0  0  0  0  0  0  0  0  0
   -1.2406    0.0132    0.6400 N   0  0  0  0  0  0  0  0  0  0  0  0
   -0.1327    0.7408    0.4065 C   0  0  0  0  0  0  0  0  0  0  0  0
   -0.1424    2.1616    0.8143 C   0  0  0  0  0  0  0  0  0  0  0  0
   -1.2658    2.7409    1.4364 C   0  0  0  0  0  0  0  0  0  0  0  0
   -1.2778    4.0850    1.8241 C   0  0  0  0  0  0  0  0  0  0  0  0
   -0.1622    4.8848    1.5981 C   0  0  0  0  0  0  0  0  0  0  0  0
    0.9633    4.3425    0.9856 C   0  0  0  0  0  0  0  0  0  0  0  0
    0.9710    2.9980    0.5994 C   0  0  0  0  0  0  0  0  0  0  0  0
    0.9788    0.2630   -0.1720 N   0  0  0  0  0  0  0  0  0  0  0  0
    5.4031    1.3381   -2.5120 H   0  0  0  0  0  0  0  0  0  0  0  0
    6.7726    0.2213   -2.3773 H   0  0  0  0  0  0  0  0  0  0  0  0
    6.0152    0.8711   -0.9130 H   0  0  0  0  0  0  0  0  0  0  0  0
    5.3283   -1.4910   -1.3406 H   0  0  0  0  0  0  0  0  0  0  0  0
    4.7222   -1.0290   -2.9369 H   0  0  0  0  0  0  0  0  0  0  0  0
    3.6731    0.0544   -0.2601 H   0  0  0  0  0  0  0  0  0  0  0  0
    3.0635    0.5171   -1.8674 H   0  0  0  0  0  0  0  0  0  0  0  0
   -0.1130   -2.8870   -0.5943 H   0  0  0  0  0  0  0  0  0  0  0  0
   -2.2954   -4.1007    0.3345 H   0  0  0  0  0  0  0  0  0  0  0  0
   -2.4320   -3.2432   -1.2251 H   0  0  0  0  0  0  0  0  0  0  0  0
   -4.6498   -4.3195   -0.0400 H   0  0  0  0  0  0  0  0  0  0  0  0
   -4.7119   -2.8064   -0.9624 H   0  0  0  0  0  0  0  0  0  0  0  0
   -4.4168   -3.1047    2.0578 H   0  0  0  0  0  0  0  0  0  0  0  0
   -5.6134   -2.1215    1.1872 H   0  0  0  0  0  0  0  0  0  0  0  0
   -3.3638   -0.9538    2.0991 H   0  0  0  0  0  0  0  0  0  0  0  0
   -3.9210   -0.5604    0.4454 H   0  0  0  0  0  0  0  0  0  0  0  0
   -2.1520    2.1369    1.6264 H   0  0  0  0  0  0  0  0  0  0  0  0
   -2.1600    4.5020    2.3026 H   0  0  0  0  0  0  0  0  0  0  0  0
   -0.1695    5.9288    1.8994 H   0  0  0  0  0  0  0  0  0  0  0  0
    1.8381    4.9621    0.8067 H   0  0  0  0  0  0  0  0  0  0  0  0
    1.8654    2.6003    0.1224 H   0  0  0  0  0  0  0  0  0  0  0  0
  1  2  1  0
  2  3  1  0
  3  4  1  0
  4  5  1  0
  5  6  2  0
  6  7  1  0
  7  8  1  0
  8  9  1  0
  9 10  1  0
 10 11  1  0
 11 12  1  0
  7 13  2  0
 13 14  1  0
 14 15  1  0
 15 16  2  0
 16 17  1  0
 17 18  2  0
 18 19  1  0
 19 20  2  0
 14 21  2  0
 21  5  1  0
 12  8  1  0
 20 15  1  0
  1 22  1  0
  1 23  1  0
  1 24  1  0
  2 25  1  0
  2 26  1  0
  3 27  1  0
  3 28  1  0
  6 29  1  0
  9 30  1  0
  9 31  1  0
 10 32  1  0
 10 33  1  0
 11 34  1  0
 11 35  1  0
 12 36  1  0
 12 37  1  0
 16 38  1  0
 17 39  1  0
 18 40  1  0
 19 41  1  0
 20 42  1  0
M  END
$$$$
