
     RDKit          3D

 59 62  0  0  0  0  0  0  0  0999 V2000
    4.6157   -3.1017    2.5779 C   0  0  0  0  0  0  0  0  0  0  0  0
    5.4142   -2.2984    1.7204 O   0  0  0  0  0  0  0  0  0  0  0  0
    4.7665   -1.4733    0.8377 C   0  0  0  0  0  0  0  0  0  0  0  0
    3.3912   -1.2263    0.8358 C   0  0  0  0  0  0  0  0  0  0  0  0
    2.8170   -0.3624   -0.1099 C   0  0  0  0  0  0  0  0  0  0  0  0
    1.4159   -0.1857   -0.0442 N   0  0  0  0  0  0  0  0  0  0  0  0
    0.6373    0.6560   -0.8169 C   0  0  0  0  0  0  0  0  0  0  0  0
    1.0243    1.4827   -1.6326 O   0  0  0  0  0  0  0  0  0  0  0  0
   -0.8158    0.5641   -0.5650 C   0  0  0  0  0  0  0  0  0  0  0  0
   -1.5825    1.7360   -0.5324 C   0  0  0  0  0  0  0  0  0  0  0  0
   -2.9522    1.6629   -0.2755 C   0  0  0  0  0  0  0  0  0  0  0  0
   -3.8062    2.8711   -0.2206 C   0  0  0  0  0  0  0  0  0  0  0  0
   -3.3368    4.0981    0.2847 C   0  0  0  0  0  0  0  0  0  0  0  0
   -4.1578    5.2302    0.3243 C   0  0  0  0  0  0  0  0  0  0  0  0
   -5.4685    5.1595   -0.1380 C   0  0  0  0  0  0  0  0  0  0  0  0
   -5.9613    3.9572   -0.6348 C   0  0  0  0  0  0  0  0  0  0  0  0
   -5.1390    2.8274   -0.6724 C   0  0  0  0  0  0  0  0  0  0  0  0
   -3.6056    0.4921   -0.0635 N   0  0  0  0  0  0  0  0  0  0  0  0
   -2.8349   -0.6092   -0.1363 C   0  0  0  0  0  0  0  0  0  0  0  0
   -1.4723   -0.6597   -0.3843 C   0  0  0  0  0  0  0  0  0  0  0  0
   -1.1739   -2.0392   -0.4045 C   0  0  0  0  0  0  0  0  0  0  0  0
   -2.2334   -2.8055   -0.1325 N   0  0  0  0  0  0  0  0  0  0  0  0
   -3.2415   -1.9107    0.0165 N   0  0  0  0  0  0  0  0  0  0  0  0
   -4.5972   -2.3655    0.3030 C   0  0  0  0  0  0  0  0  0  0  0  0
   -5.1712   -3.1670   -0.8644 C   0  0  0  0  0  0  0  0  0  0  0  0
   -4.6567   -3.1603    1.6073 C   0  0  0  0  0  0  0  0  0  0  0  0
    3.6325    0.2540   -1.0644 C   0  0  0  0  0  0  0  0  0  0  0  0
    5.0124    0.0253   -1.0799 C   0  0  0  0  0  0  0  0  0  0  0  0
    5.8889    0.5790   -1.9784 O   0  0  0  0  0  0  0  0  0  0  0  0
    5.3462    1.4052   -2.9999 C   0  0  0  0  0  0  0  0  0  0  0  0
    5.5707   -0.8275   -0.1136 C   0  0  0  0  0  0  0  0  0  0  0  0
    6.9208   -1.1009   -0.1446 O   0  0  0  0  0  0  0  0  0  0  0  0
    7.6279   -0.1353    0.6310 C   0  0  0  0  0  0  0  0  0  0  0  0
    5.2853   -3.7585    3.1407 H   0  0  0  0  0  0  0  0  0  0  0  0
    4.0723   -2.4826    3.2992 H   0  0  0  0  0  0  0  0  0  0  0  0
    3.9309   -3.7359    2.0056 H   0  0  0  0  0  0  0  0  0  0  0  0
    2.7504   -1.7008    1.5703 H   0  0  0  0  0  0  0  0  0  0  0  0
    0.9467   -0.6939    0.6958 H   0  0  0  0  0  0  0  0  0  0  0  0
   -1.1006    2.6917   -0.7209 H   0  0  0  0  0  0  0  0  0  0  0  0
   -2.3245    4.1882    0.6721 H   0  0  0  0  0  0  0  0  0  0  0  0
   -3.7719    6.1665    0.7205 H   0  0  0  0  0  0  0  0  0  0  0  0
   -6.1063    6.0389   -0.1074 H   0  0  0  0  0  0  0  0  0  0  0  0
   -6.9851    3.8940   -0.9938 H   0  0  0  0  0  0  0  0  0  0  0  0
   -5.5468    1.8976   -1.0664 H   0  0  0  0  0  0  0  0  0  0  0  0
   -0.2266   -2.5243   -0.6056 H   0  0  0  0  0  0  0  0  0  0  0  0
   -5.2135   -1.4673    0.4308 H   0  0  0  0  0  0  0  0  0  0  0  0
   -6.2157   -3.4347   -0.6736 H   0  0  0  0  0  0  0  0  0  0  0  0
   -5.1362   -2.5857   -1.7925 H   0  0  0  0  0  0  0  0  0  0  0  0
   -4.6113   -4.0936   -1.0324 H   0  0  0  0  0  0  0  0  0  0  0  0
   -4.0907   -4.0962    1.5362 H   0  0  0  0  0  0  0  0  0  0  0  0
   -5.6922   -3.4120    1.8589 H   0  0  0  0  0  0  0  0  0  0  0  0
   -4.2380   -2.5809    2.4377 H   0  0  0  0  0  0  0  0  0  0  0  0
    3.1906    0.9088   -1.8037 H   0  0  0  0  0  0  0  0  0  0  0  0
    4.8761    2.2983   -2.5756 H   0  0  0  0  0  0  0  0  0  0  0  0
    4.6462    0.8479   -3.6308 H   0  0  0  0  0  0  0  0  0  0  0  0
    6.1734    1.7363   -3.6354 H   0  0  0  0  0  0  0  0  0  0  0  0
    8.6840   -0.4213    0.6394 H   0  0  0  0  0  0  0  0  0  0  0  0
    7.5522    0.8637    0.1881 H   0  0  0  0  0  0  0  0  0  0  0  0
    7.2762   -0.1167    1.6688 H   0  0  0  0  0  0  0  0  0  0  0  0
  1  2  1  0
  2  3  1  0
  3  4  2  0
  4  5  1  0
  5  6  1  0
  6  7  1  0
  7  8  2  0
  7  9  1  0
  9 10  2  0
 10 11  1  0
 11 12  1  0
 12 13  2  0
 13 14  1  0
 14 15  2  0
 15 16  1  0
 16 17  2  0
 11 18  2  0
 18 19  1  0
 19 20  2  0
 20 21  1  0
 21 22  2  0
 22 23  1  0
 23 24  1  0
 24 25  1  0
 24 26  1  0
  5 27  2  0
 27 28  1  0
 28 29  1  0
 29 30  1  0
 28 31  2  0
 31 32  1  0
 32 33  1  0
 31  3  1  0
 20  9  1  0
 17 12  1  0
 23 19  1  0
  1 34  1  0
  1 35  1  0
  1 36  1  0
  4 37  1  0
  6 38  1  0
 10 39  1  0
 13 40  1  0
 14 41  1  0
 15 42  1  0
 16 43  1  0
 17 44  1  0
 21 45  1  0
 24 46  1  0
 25 47  1  0
 25 48  1  0
 25 49  1  0
 26 50  1  0
 26 51  1  0
 26 52  1  0
 27 53  1  0
 30 54  1  0
 30 55  1  0
 30 56  1  0
 33 57  1  0
 33 58  1  0
 33 59  1  0
M  END
$$$$
