
     RDKit          3D

 84 86  0  0  0  0  0  0  0  0999 V2000
    1.0483   -1.9001   -1.9731 C   0  0  0  0  0  0  0  0  0  0  0  0
    0.6581   -0.7326   -1.4248 C   0  0  0  0  0  0  0  0  0  0  0  0
    1.5951    0.4684   -1.3071 C   0  0  0  0  0  0  0  0  0  0  0  0
    3.0541    0.1460   -0.9332 C   0  0  0  0  0  0  0  0  0  0  0  0
    3.7636   -0.1057   -2.1641 O   0  0  0  0  0  0  0  0  0  0  0  0
    4.9590   -0.7344   -2.0347 C   0  0  0  0  0  0  0  0  0  0  0  0
    5.6402   -0.8354   -3.3635 C   0  0  0  0  0  0  0  0  0  0  0  0
    5.4043   -1.1914   -0.9914 O   0  0  0  0  0  0  0  0  0  0  0  0
    3.6934    1.3554   -0.2264 C   0  0  0  0  0  0  0  0  0  0  0  0
    4.1010    2.3143   -0.8932 O   0  0  0  0  0  0  0  0  0  0  0  0
    3.8147    1.3379    1.3244 C   0  0  0  0  0  0  0  0  0  0  0  0
    4.4161    2.6820    1.7923 C   0  0  0  0  0  0  0  0  0  0  0  0
    4.7896    0.2314    1.7542 C   0  0  0  0  0  0  0  0  0  0  0  0
    2.4278    1.2394    1.9426 C   0  0  0  0  0  0  0  0  0  0  0  0
    1.9472    0.2941    2.7724 C   0  0  0  0  0  0  0  0  0  0  0  0
    0.5748    0.3684    3.4076 C   0  0  0  0  0  0  0  0  0  0  0  0
    0.7562    0.3781    4.9301 C   0  0  0  0  0  0  0  0  0  0  0  0
   -0.4489   -0.7262    3.0074 C   0  0  0  0  0  0  0  0  0  0  0  0
   -1.3370   -1.0520    3.8096 O   0  0  0  0  0  0  0  0  0  0  0  0
   -0.4706   -1.3071    1.5530 C   0  0  1  0  0  0  0  0  0  0  0  0
    0.7986   -1.8367    1.1287 O   0  0  0  0  0  0  0  0  0  0  0  0
    1.3607   -2.8239    1.8811 C   0  0  0  0  0  0  0  0  0  0  0  0
    2.5159   -3.4468    1.1610 C   0  0  0  0  0  0  0  0  0  0  0  0
    0.9679   -3.1840    2.9796 O   0  0  0  0  0  0  0  0  0  0  0  0
   -1.5152   -2.4493    1.4260 C   0  0  0  0  0  0  0  0  0  0  0  0
   -2.8875   -1.7870    1.2623 C   0  0  2  0  0  0  0  0  0  0  0  0
   -3.7742   -2.5480    0.2826 C   0  0  0  0  0  0  0  0  0  0  0  0
   -2.5950   -0.3140    0.9131 C   0  0  2  0  0  0  0  0  0  0  0  0
   -3.5123    0.1519   -0.0867 O   0  0  0  0  0  0  0  0  0  0  0  0
   -3.6382    1.4940   -0.2189 C   0  0  0  0  0  0  0  0  0  0  0  0
   -2.9283    2.3217    0.3300 O   0  0  0  0  0  0  0  0  0  0  0  0
   -4.7312    1.8316   -1.1685 C   0  0  0  0  0  0  0  0  0  0  0  0
   -5.4397    0.8507   -1.8763 C   0  0  0  0  0  0  0  0  0  0  0  0
   -6.4384    1.2236   -2.7787 C   0  0  0  0  0  0  0  0  0  0  0  0
   -6.7330    2.5716   -2.9778 C   0  0  0  0  0  0  0  0  0  0  0  0
   -6.0311    3.5518   -2.2780 C   0  0  0  0  0  0  0  0  0  0  0  0
   -5.0318    3.1842   -1.3752 C   0  0  0  0  0  0  0  0  0  0  0  0
   -1.0708   -0.2506    0.5464 C   0  0  1  0  0  0  0  0  0  0  0  0
   -0.5922    1.0731    0.8408 O   0  0  0  0  0  0  0  0  0  0  0  0
   -0.7993   -0.5507   -0.9805 C   0  0  1  0  0  0  0  0  0  0  0  0
   -1.2907    0.5503   -1.7861 O   0  0  0  0  0  0  0  0  0  0  0  0
   -1.9110    0.2202   -2.9517 C   0  0  0  0  0  0  0  0  0  0  0  0
   -2.1302    1.4479   -3.7833 C   0  0  0  0  0  0  0  0  0  0  0  0
   -2.2193   -0.9106   -3.3010 O   0  0  0  0  0  0  0  0  0  0  0  0
    2.0520   -2.0614   -2.3518 H   0  0  0  0  0  0  0  0  0  0  0  0
    0.3581   -2.7317   -2.0936 H   0  0  0  0  0  0  0  0  0  0  0  0
    1.1964    1.1715   -0.5777 H   0  0  0  0  0  0  0  0  0  0  0  0
    1.5629    1.0013   -2.2678 H   0  0  0  0  0  0  0  0  0  0  0  0
    3.1002   -0.7305   -0.2845 H   0  0  0  0  0  0  0  0  0  0  0  0
    5.1483   -1.5950   -3.9744 H   0  0  0  0  0  0  0  0  0  0  0  0
    6.6871   -1.1123   -3.2131 H   0  0  0  0  0  0  0  0  0  0  0  0
    5.6180    0.1346   -3.8677 H   0  0  0  0  0  0  0  0  0  0  0  0
    5.4171    2.8366    1.3713 H   0  0  0  0  0  0  0  0  0  0  0  0
    4.5052    2.7220    2.8846 H   0  0  0  0  0  0  0  0  0  0  0  0
    3.7989    3.5324    1.4782 H   0  0  0  0  0  0  0  0  0  0  0  0
    5.7545    0.3437    1.2463 H   0  0  0  0  0  0  0  0  0  0  0  0
    4.9807    0.2631    2.8335 H   0  0  0  0  0  0  0  0  0  0  0  0
    4.4161   -0.7688    1.5193 H   0  0  0  0  0  0  0  0  0  0  0  0
    1.7681    2.0767    1.6982 H   0  0  0  0  0  0  0  0  0  0  0  0
    2.5718   -0.5420    3.0793 H   0  0  0  0  0  0  0  0  0  0  0  0
    0.1033    1.3240    3.1482 H   0  0  0  0  0  0  0  0  0  0  0  0
    1.1442   -0.5793    5.2937 H   0  0  0  0  0  0  0  0  0  0  0  0
    1.4486    1.1675    5.2417 H   0  0  0  0  0  0  0  0  0  0  0  0
   -0.1969    0.5608    5.4386 H   0  0  0  0  0  0  0  0  0  0  0  0
    2.1494   -4.0277    0.3115 H   0  0  0  0  0  0  0  0  0  0  0  0
    3.2163   -2.6803    0.8290 H   0  0  0  0  0  0  0  0  0  0  0  0
    3.0494   -4.1135    1.8445 H   0  0  0  0  0  0  0  0  0  0  0  0
   -1.5184   -3.1157    2.2965 H   0  0  0  0  0  0  0  0  0  0  0  0
   -1.2784   -3.0849    0.5625 H   0  0  0  0  0  0  0  0  0  0  0  0
   -3.4002   -1.8051    2.2334 H   0  0  0  0  0  0  0  0  0  0  0  0
   -4.7799   -2.1170    0.2538 H   0  0  0  0  0  0  0  0  0  0  0  0
   -3.8725   -3.5947    0.5880 H   0  0  0  0  0  0  0  0  0  0  0  0
   -3.3692   -2.5310   -0.7331 H   0  0  0  0  0  0  0  0  0  0  0  0
   -2.7703    0.2825    1.8206 H   0  0  0  0  0  0  0  0  0  0  0  0
   -5.2224   -0.2066   -1.7448 H   0  0  0  0  0  0  0  0  0  0  0  0
   -6.9853    0.4613   -3.3294 H   0  0  0  0  0  0  0  0  0  0  0  0
   -7.5113    2.8592   -3.6816 H   0  0  0  0  0  0  0  0  0  0  0  0
   -6.2625    4.6029   -2.4344 H   0  0  0  0  0  0  0  0  0  0  0  0
   -4.4900    3.9589   -0.8354 H   0  0  0  0  0  0  0  0  0  0  0  0
   -1.2194    1.7139    0.4377 H   0  0  0  0  0  0  0  0  0  0  0  0
   -1.3543   -1.4631   -1.2249 H   0  0  0  0  0  0  0  0  0  0  0  0
   -2.9805    1.2863   -4.4517 H   0  0  0  0  0  0  0  0  0  0  0  0
   -2.3648    2.3047   -3.1460 H   0  0  0  0  0  0  0  0  0  0  0  0
   -1.2313    1.6553   -4.3695 H   0  0  0  0  0  0  0  0  0  0  0  0
  1  2  2  0
  2  3  1  0
  3  4  1  0
  4  5  1  0
  5  6  1  0
  6  7  1  0
  6  8  2  0
  4  9  1  0
  9 10  2  0
  9 11  1  0
 11 12  1  0
 11 13  1  0
 11 14  1  0
 14 15  2  3
 15 16  1  0
 16 17  1  0
 16 18  1  0
 18 19  2  0
 18 20  1  0
 20 21  1  6
 21 22  1  0
 22 23  1  0
 22 24  2  0
 20 25  1  0
 25 26  1  0
 26 27  1  0
 26 28  1  0
 28 29  1  0
 29 30  1  0
 30 31  2  0
 30 32  1  0
 32 33  2  0
 33 34  1  0
 34 35  2  0
 35 36  1  0
 36 37  2  0
 28 38  1  0
 38 39  1  1
 38 40  1  0
 40 41  1  0
 41 42  1  0
 42 43  1  0
 42 44  2  0
 40  2  1  0
 38 20  1  0
 37 32  1  0
  1 45  1  0
  1 46  1  0
  3 47  1  0
  3 48  1  0
  4 49  1  0
  7 50  1  0
  7 51  1  0
  7 52  1  0
 12 53  1  0
 12 54  1  0
 12 55  1  0
 13 56  1  0
 13 57  1  0
 13 58  1  0
 14 59  1  0
 15 60  1  0
 16 61  1  0
 17 62  1  0
 17 63  1  0
 17 64  1  0
 23 65  1  0
 23 66  1  0
 23 67  1  0
 25 68  1  0
 25 69  1  0
 26 70  1  1
 27 71  1  0
 27 72  1  0
 27 73  1  0
 28 74  1  1
 33 75  1  0
 34 76  1  0
 35 77  1  0
 36 78  1  0
 37 79  1  0
 39 80  1  0
 40 81  1  6
 43 82  1  0
 43 83  1  0
 43 84  1  0
M  END
$$$$
