
     RDKit          3D

 43 45  0  0  0  0  0  0  0  0999 V2000
   -5.4772    2.4001   -0.7492 C   0  0  0  0  0  0  0  0  0  0  0  0
   -4.0846    2.8651   -0.3708 C   0  0  0  0  0  0  0  0  0  0  0  0
   -3.2463    1.7092   -0.2561 O   0  0  0  0  0  0  0  0  0  0  0  0
   -1.9608    1.9762    0.1068 C   0  0  0  0  0  0  0  0  0  0  0  0
   -1.5313    3.1071    0.3132 O   0  0  0  0  0  0  0  0  0  0  0  0
   -1.1184    0.7771    0.2089 C   0  0  0  0  0  0  0  0  0  0  0  0
    0.2542    0.8659    0.4378 C   0  0  0  0  0  0  0  0  0  0  0  0
    0.9728    2.0412    0.6253 N   0  0  0  0  0  0  0  0  0  0  0  0
    2.2987    2.3199    0.8362 C   0  0  0  0  0  0  0  0  0  0  0  0
    2.6643    3.9256    1.1413 S   0  0  0  0  0  0  0  0  0  0  0  0
    3.1991    1.2864    0.7447 N   0  0  0  0  0  0  0  0  0  0  0  0
    4.5799    1.2601    0.9636 C   0  0  0  0  0  0  0  0  0  0  0  0
    5.1717    2.0778    1.6610 O   0  0  0  0  0  0  0  0  0  0  0  0
    5.2465    0.1088    0.3694 C   0  0  0  0  0  0  0  0  0  0  0  0
    4.8700   -0.8285   -0.5806 C   0  0  0  0  0  0  0  0  0  0  0  0
    5.9661   -1.7111   -0.7497 C   0  0  0  0  0  0  0  0  0  0  0  0
    6.9498   -1.2624    0.0959 C   0  0  0  0  0  0  0  0  0  0  0  0
    6.5288   -0.1658    0.7717 O   0  0  0  0  0  0  0  0  0  0  0  0
    0.9999   -0.6566    0.4880 S   0  0  0  0  0  0  0  0  0  0  0  0
   -0.4543   -1.4694    0.2033 C   0  0  0  0  0  0  0  0  0  0  0  0
   -1.5315   -0.6103    0.0952 C   0  0  0  0  0  0  0  0  0  0  0  0
   -2.9231   -1.1376   -0.1422 C   0  0  0  0  0  0  0  0  0  0  0  0
   -3.0297   -2.6504    0.1081 C   0  0  0  0  0  0  0  0  0  0  0  0
   -1.8458   -3.4139   -0.4952 C   0  0  0  0  0  0  0  0  0  0  0  0
   -0.5183   -2.9647    0.1284 C   0  0  0  0  0  0  0  0  0  0  0  0
   -5.4560    1.8491   -1.6953 H   0  0  0  0  0  0  0  0  0  0  0  0
   -5.8732    1.7158    0.0086 H   0  0  0  0  0  0  0  0  0  0  0  0
   -6.1588    3.2494   -0.8495 H   0  0  0  0  0  0  0  0  0  0  0  0
   -4.1195    3.3954    0.5875 H   0  0  0  0  0  0  0  0  0  0  0  0
   -3.6914    3.5300   -1.1477 H   0  0  0  0  0  0  0  0  0  0  0  0
    0.3927    2.8856    0.6518 H   0  0  0  0  0  0  0  0  0  0  0  0
    2.8045    0.4455    0.3579 H   0  0  0  0  0  0  0  0  0  0  0  0
    3.9292   -0.8722   -1.1101 H   0  0  0  0  0  0  0  0  0  0  0  0
    6.0355   -2.5622   -1.4129 H   0  0  0  0  0  0  0  0  0  0  0  0
    7.9554   -1.5904    0.3203 H   0  0  0  0  0  0  0  0  0  0  0  0
   -3.2036   -0.9234   -1.1808 H   0  0  0  0  0  0  0  0  0  0  0  0
   -3.6413   -0.6318    0.5123 H   0  0  0  0  0  0  0  0  0  0  0  0
   -3.9708   -3.0238   -0.3114 H   0  0  0  0  0  0  0  0  0  0  0  0
   -3.0647   -2.8404    1.1886 H   0  0  0  0  0  0  0  0  0  0  0  0
   -1.8221   -3.2443   -1.5794 H   0  0  0  0  0  0  0  0  0  0  0  0
   -1.9760   -4.4911   -0.3416 H   0  0  0  0  0  0  0  0  0  0  0  0
    0.3141   -3.3660   -0.4608 H   0  0  0  0  0  0  0  0  0  0  0  0
   -0.4349   -3.3753    1.1423 H   0  0  0  0  0  0  0  0  0  0  0  0
  1  2  1  0
  2  3  1  0
  3  4  1  0
  4  5  2  0
  4  6  1  0
  6  7  2  0
  7  8  1  0
  8  9  1  0
  9 10  2  0
  9 11  1  0
 11 12  1  0
 12 13  2  0
 12 14  1  0
 14 15  2  0
 15 16  1  0
 16 17  2  0
 17 18  1  0
  7 19  1  0
 19 20  1  0
 20 21  2  0
 21 22  1  0
 22 23  1  0
 23 24  1  0
 24 25  1  0
 21  6  1  0
 18 14  1  0
 25 20  1  0
  1 26  1  0
  1 27  1  0
  1 28  1  0
  2 29  1  0
  2 30  1  0
  8 31  1  0
 11 32  1  0
 15 33  1  0
 16 34  1  0
 17 35  1  0
 22 36  1  0
 22 37  1  0
 23 38  1  0
 23 39  1  0
 24 40  1  0
 24 41  1  0
 25 42  1  0
 25 43  1  0
M  END
$$$$
