
     RDKit          3D

 64 67  0  0  0  0  0  0  0  0999 V2000
    5.9602    2.6198    1.2053 C   0  0  0  0  0  0  0  0  0  0  0  0
    5.8325    1.4547    0.2684 C   0  0  0  0  0  0  0  0  0  0  0  0
    5.6378    0.1833    0.7646 C   0  0  0  0  0  0  0  0  0  0  0  0
    5.4620   -0.7974   -0.1787 C   0  0  0  0  0  0  0  0  0  0  0  0
    5.3145   -2.1681    0.1074 N   0  0  0  0  0  0  0  0  0  0  0  0
    4.2924   -2.6959    1.3140 S   0  0  0  0  0  6  0  0  0  0  0  0
    4.0840   -4.1114    1.0783 O   0  0  0  0  0  0  0  0  0  0  0  0
    4.7823   -2.2130    2.5892 O   0  0  0  0  0  0  0  0  0  0  0  0
    2.7543   -1.8761    0.9668 C   0  0  0  0  0  0  0  0  0  0  0  0
    2.0097   -2.2652   -0.1477 C   0  0  0  0  0  0  0  0  0  0  0  0
    0.7743   -1.6605   -0.3922 C   0  0  0  0  0  0  0  0  0  0  0  0
    0.2683   -0.6810    0.4773 C   0  0  0  0  0  0  0  0  0  0  0  0
   -1.0050   -0.1602    0.1733 N   0  0  0  0  0  0  0  0  0  0  0  0
   -1.7562    0.7456    0.9056 C   0  0  0  0  0  0  0  0  0  0  0  0
   -1.3980    1.2922    1.9453 O   0  0  0  0  0  0  0  0  0  0  0  0
   -3.1446    1.0586    0.2992 C   0  0  0  0  0  0  0  0  0  0  0  0
   -3.0789    1.6643   -1.1164 C   0  0  0  0  0  0  0  0  0  0  0  0
   -2.9055    3.1993   -1.1503 C   0  0  0  0  0  0  0  0  0  0  0  0
   -1.5786    3.6660   -0.5483 C   0  0  0  0  0  0  0  0  0  0  0  0
   -3.0081    3.6938   -2.5970 C   0  0  0  0  0  0  0  0  0  0  0  0
   -3.9429   -0.1731    0.3458 N   0  0  0  0  0  0  0  0  0  0  0  0
   -4.8828   -0.4201    1.3088 C   0  0  0  0  0  0  0  0  0  0  0  0
   -5.2557    0.2975    2.2164 O   0  0  0  0  0  0  0  0  0  0  0  0
   -5.4078   -1.7600    1.0502 C   0  0  0  0  0  0  0  0  0  0  0  0
   -6.3753   -2.4865    1.7165 C   0  0  0  0  0  0  0  0  0  0  0  0
   -6.6624   -3.7655    1.2265 C   0  0  0  0  0  0  0  0  0  0  0  0
   -5.9810   -4.2820    0.1054 C   0  0  0  0  0  0  0  0  0  0  0  0
   -5.0030   -3.5274   -0.5510 C   0  0  0  0  0  0  0  0  0  0  0  0
   -4.7416   -2.2659   -0.0498 C   0  0  0  0  0  0  0  0  0  0  0  0
   -3.7854   -1.2510   -0.4812 C   0  0  0  0  0  0  0  0  0  0  0  0
   -2.9728   -1.3956   -1.3764 O   0  0  0  0  0  0  0  0  0  0  0  0
    1.0279   -0.2995    1.5859 C   0  0  0  0  0  0  0  0  0  0  0  0
    2.2686   -0.8969    1.8359 C   0  0  0  0  0  0  0  0  0  0  0  0
    5.5166   -0.5940   -1.5025 N   0  0  0  0  0  0  0  0  0  0  0  0
    5.7158    0.6755   -1.8944 C   0  0  0  0  0  0  0  0  0  0  0  0
    5.7957    0.9418   -3.3661 C   0  0  0  0  0  0  0  0  0  0  0  0
    5.8675    1.7166   -1.0569 N   0  0  0  0  0  0  0  0  0  0  0  0
    6.6138    2.3695    2.0506 H   0  0  0  0  0  0  0  0  0  0  0  0
    4.9684    2.8919    1.5864 H   0  0  0  0  0  0  0  0  0  0  0  0
    6.3857    3.4887    0.6898 H   0  0  0  0  0  0  0  0  0  0  0  0
    5.6398   -0.0112    1.8283 H   0  0  0  0  0  0  0  0  0  0  0  0
    5.3068   -2.7494   -0.7277 H   0  0  0  0  0  0  0  0  0  0  0  0
    2.3713   -3.0435   -0.8160 H   0  0  0  0  0  0  0  0  0  0  0  0
    0.2001   -1.9809   -1.2601 H   0  0  0  0  0  0  0  0  0  0  0  0
   -1.4538   -0.5583   -0.6524 H   0  0  0  0  0  0  0  0  0  0  0  0
   -3.6293    1.7778    0.9692 H   0  0  0  0  0  0  0  0  0  0  0  0
   -4.0113    1.4265   -1.6413 H   0  0  0  0  0  0  0  0  0  0  0  0
   -2.2748    1.2099   -1.7026 H   0  0  0  0  0  0  0  0  0  0  0  0
   -3.7248    3.6588   -0.5802 H   0  0  0  0  0  0  0  0  0  0  0  0
   -0.7312    3.1357   -0.9938 H   0  0  0  0  0  0  0  0  0  0  0  0
   -1.5565    3.5112    0.5329 H   0  0  0  0  0  0  0  0  0  0  0  0
   -1.4269    4.7386   -0.7181 H   0  0  0  0  0  0  0  0  0  0  0  0
   -3.9651    3.4058   -3.0411 H   0  0  0  0  0  0  0  0  0  0  0  0
   -2.2088    3.2750   -3.2178 H   0  0  0  0  0  0  0  0  0  0  0  0
   -2.9332    4.7855   -2.6457 H   0  0  0  0  0  0  0  0  0  0  0  0
   -6.8816   -2.0823    2.5880 H   0  0  0  0  0  0  0  0  0  0  0  0
   -7.4208   -4.3756    1.7169 H   0  0  0  0  0  0  0  0  0  0  0  0
   -6.2227   -5.2839   -0.2473 H   0  0  0  0  0  0  0  0  0  0  0  0
   -4.4750   -3.9152   -1.4160 H   0  0  0  0  0  0  0  0  0  0  0  0
    0.6750    0.4500    2.2883 H   0  0  0  0  0  0  0  0  0  0  0  0
    2.8295   -0.6042    2.7210 H   0  0  0  0  0  0  0  0  0  0  0  0
    5.7854    2.0165   -3.5744 H   0  0  0  0  0  0  0  0  0  0  0  0
    4.9406    0.4843   -3.8769 H   0  0  0  0  0  0  0  0  0  0  0  0
    6.7206    0.5162   -3.7698 H   0  0  0  0  0  0  0  0  0  0  0  0
  1  2  1  0
  2  3  2  0
  3  4  1  0
  4  5  1  0
  5  6  1  0
  6  7  2  0
  6  8  2  0
  6  9  1  0
  9 10  2  0
 10 11  1  0
 11 12  2  0
 12 13  1  0
 13 14  1  0
 14 15  2  0
 14 16  1  0
 16 17  1  0
 17 18  1  0
 18 19  1  0
 18 20  1  0
 16 21  1  0
 21 22  1  0
 22 23  2  0
 22 24  1  0
 24 25  2  0
 25 26  1  0
 26 27  2  0
 27 28  1  0
 28 29  2  0
 29 30  1  0
 30 31  2  0
 12 32  1  0
 32 33  2  0
  4 34  2  0
 34 35  1  0
 35 36  1  0
 35 37  2  0
 37  2  1  0
 33  9  1  0
 30 21  1  0
 29 24  1  0
  1 38  1  0
  1 39  1  0
  1 40  1  0
  3 41  1  0
  5 42  1  0
 10 43  1  0
 11 44  1  0
 13 45  1  0
 16 46  1  0
 17 47  1  0
 17 48  1  0
 18 49  1  0
 19 50  1  0
 19 51  1  0
 19 52  1  0
 20 53  1  0
 20 54  1  0
 20 55  1  0
 25 56  1  0
 26 57  1  0
 27 58  1  0
 28 59  1  0
 32 60  1  0
 33 61  1  0
 36 62  1  0
 36 63  1  0
 36 64  1  0
M  END
$$$$
