
     RDKit          3D

 42 44  0  0  0  0  0  0  0  0999 V2000
    2.0884    2.3225    2.1681 C   0  0  0  0  0  0  0  0  0  0  0  0
    2.3303    1.1516    1.3969 O   0  0  0  0  0  0  0  0  0  0  0  0
    1.2369    0.4822    0.9145 C   0  0  0  0  0  0  0  0  0  0  0  0
   -0.0845    0.9164    1.0340 C   0  0  0  0  0  0  0  0  0  0  0  0
   -1.1546    0.1842    0.4883 C   0  0  0  0  0  0  0  0  0  0  0  0
   -2.4401    0.7303    0.6795 N   0  0  0  0  0  0  0  0  0  0  0  0
   -3.2707   -0.0415    1.6192 C   0  0  0  0  0  0  0  0  0  0  0  0
   -4.6962    0.2450    1.1637 C   0  0  0  0  0  0  0  0  0  0  0  0
   -4.5510    0.2787   -0.3464 C   0  0  0  0  0  0  0  0  0  0  0  0
   -3.2130    0.9857   -0.5509 C   0  0  0  0  0  0  0  0  0  0  0  0
   -0.8767   -1.0204   -0.1964 C   0  0  0  0  0  0  0  0  0  0  0  0
   -1.9536   -1.7094   -0.6995 O   0  0  0  0  0  0  0  0  0  0  0  0
   -1.6887   -2.7974   -1.5740 C   0  0  0  0  0  0  0  0  0  0  0  0
    0.4484   -1.4597   -0.3082 C   0  0  0  0  0  0  0  0  0  0  0  0
    1.5089   -0.7202    0.2449 C   0  0  0  0  0  0  0  0  0  0  0  0
    2.9280   -1.2208    0.0961 C   0  0  0  0  0  0  0  0  0  0  0  0
    3.7077   -0.4084   -0.8771 C   0  0  0  0  0  0  0  0  0  0  0  0
    3.5038   -0.2880   -2.1554 N   0  0  0  0  0  0  0  0  0  0  0  0
    4.4722    0.5838   -2.6103 C   0  0  0  0  0  0  0  0  0  0  0  0
    4.7094    1.0912   -4.1757 S   0  0  0  0  0  0  0  0  0  0  0  0
    5.2696    1.0073   -1.5969 N   0  0  0  0  0  0  0  0  0  0  0  0
    4.9079    0.3981   -0.4536 C   0  0  0  0  0  0  0  0  0  0  0  0
    5.4237    0.4082    0.6382 O   0  0  0  0  0  0  0  0  0  0  0  0
    1.6251    3.1053    1.5588 H   0  0  0  0  0  0  0  0  0  0  0  0
    1.4844    2.0969    3.0531 H   0  0  0  0  0  0  0  0  0  0  0  0
    3.0560    2.6995    2.5130 H   0  0  0  0  0  0  0  0  0  0  0  0
   -0.3322    1.8421    1.5441 H   0  0  0  0  0  0  0  0  0  0  0  0
   -3.0787   -1.1203    1.5729 H   0  0  0  0  0  0  0  0  0  0  0  0
   -3.1077    0.2937    2.6488 H   0  0  0  0  0  0  0  0  0  0  0  0
   -5.4069   -0.5121    1.5063 H   0  0  0  0  0  0  0  0  0  0  0  0
   -5.0256    1.2233    1.5338 H   0  0  0  0  0  0  0  0  0  0  0  0
   -5.3767    0.7982   -0.8406 H   0  0  0  0  0  0  0  0  0  0  0  0
   -4.5067   -0.7422   -0.7429 H   0  0  0  0  0  0  0  0  0  0  0  0
   -2.7250    0.6666   -1.4786 H   0  0  0  0  0  0  0  0  0  0  0  0
   -3.3749    2.0675   -0.6256 H   0  0  0  0  0  0  0  0  0  0  0  0
   -1.2238   -3.6289   -1.0348 H   0  0  0  0  0  0  0  0  0  0  0  0
   -2.6476   -3.1514   -1.9649 H   0  0  0  0  0  0  0  0  0  0  0  0
   -1.0778   -2.4847   -2.4274 H   0  0  0  0  0  0  0  0  0  0  0  0
    0.6852   -2.3845   -0.8244 H   0  0  0  0  0  0  0  0  0  0  0  0
    3.4212   -1.2327    1.0742 H   0  0  0  0  0  0  0  0  0  0  0  0
    2.9329   -2.2582   -0.2593 H   0  0  0  0  0  0  0  0  0  0  0  0
    6.0729    1.6025   -1.7057 H   0  0  0  0  0  0  0  0  0  0  0  0
  1  2  1  0
  2  3  1  0
  3  4  2  0
  4  5  1  0
  5  6  1  0
  6  7  1  0
  7  8  1  0
  8  9  1  0
  9 10  1  0
  5 11  2  0
 11 12  1  0
 12 13  1  0
 11 14  1  0
 14 15  2  0
 15 16  1  0
 16 17  1  0
 17 18  2  0
 18 19  1  0
 19 20  2  0
 19 21  1  0
 21 22  1  0
 22 23  2  0
 15  3  1  0
 22 17  1  0
 10  6  1  0
  1 24  1  0
  1 25  1  0
  1 26  1  0
  4 27  1  0
  7 28  1  0
  7 29  1  0
  8 30  1  0
  8 31  1  0
  9 32  1  0
  9 33  1  0
 10 34  1  0
 10 35  1  0
 13 36  1  0
 13 37  1  0
 13 38  1  0
 14 39  1  0
 16 40  1  0
 16 41  1  0
 21 42  1  0
M  END
$$$$
