
     RDKit          3D

 66 68  0  0  0  0  0  0  0  0999 V2000
   -4.1372   -2.7577    3.3402 C   0  0  0  0  0  0  0  0  0  0  0  0
   -3.3990   -1.9384    2.2857 C   0  0  0  0  0  0  0  0  0  0  0  0
   -1.9669   -2.2300    2.2214 N   0  0  0  0  0  0  0  0  0  0  0  0
   -1.6001   -3.6181    1.9313 C   0  0  0  0  0  0  0  0  0  0  0  0
   -2.1085   -4.2197    0.6266 C   0  0  0  0  0  0  0  0  0  0  0  0
   -1.1800   -1.2188    1.4931 C   0  0  0  0  0  0  0  0  0  0  0  0
   -1.7177   -0.7749    0.1209 C   0  0  0  0  0  0  0  0  0  0  0  0
   -0.8266    0.2128   -0.6826 C   0  0  0  0  0  0  0  0  0  0  0  0
    0.3450   -0.3653   -1.4802 C   0  0  0  0  0  0  0  0  0  0  0  0
    0.9571    0.4308   -2.4586 C   0  0  0  0  0  0  0  0  0  0  0  0
    2.0397   -0.0426   -3.2156 C   0  0  0  0  0  0  0  0  0  0  0  0
    2.5736   -1.3274   -3.0381 C   0  0  0  0  0  0  0  0  0  0  0  0
    3.6505   -1.7998   -3.7957 N   0  0  0  0  0  0  0  0  0  0  0  0
    4.3421   -3.0152   -3.3702 C   0  0  0  0  0  0  0  0  0  0  0  0
    4.4455   -0.8535   -4.5735 C   0  0  0  0  0  0  0  0  0  0  0  0
    1.9253   -2.1220   -2.0786 C   0  0  0  0  0  0  0  0  0  0  0  0
    0.8379   -1.6588   -1.3172 C   0  0  0  0  0  0  0  0  0  0  0  0
   -0.4949    1.4784    0.1170 C   0  0  0  0  0  0  0  0  0  0  0  0
    0.6448    1.5933    0.9301 C   0  0  0  0  0  0  0  0  0  0  0  0
    1.4680    0.5054    1.0743 O   0  0  0  0  0  0  0  0  0  0  0  0
    2.8304    0.7924    0.7543 C   0  0  0  0  0  0  0  0  0  0  0  0
    0.8978    2.7589    1.6702 C   0  0  0  0  0  0  0  0  0  0  0  0
    0.0358    3.8566    1.5963 C   0  0  0  0  0  0  0  0  0  0  0  0
    0.2182    5.0328    2.2795 O   0  0  0  0  0  0  0  0  0  0  0  0
    1.3864    5.1560    3.0821 C   0  0  0  0  0  0  0  0  0  0  0  0
   -1.1105    3.7717    0.7900 C   0  0  0  0  0  0  0  0  0  0  0  0
   -2.0694    4.8689    0.6718 C   0  0  0  0  0  0  0  0  0  0  0  0
   -3.1586    4.7430   -0.0905 C   0  0  0  0  0  0  0  0  0  0  0  0
   -3.4493    3.5150   -0.8405 C   0  0  0  0  0  0  0  0  0  0  0  0
   -4.4564    3.4205   -1.5316 O   0  0  0  0  0  0  0  0  0  0  0  0
   -2.5270    2.4870   -0.7208 O   0  0  0  0  0  0  0  0  0  0  0  0
   -1.3576    2.5906    0.0765 C   0  0  0  0  0  0  0  0  0  0  0  0
   -5.1677   -2.3997    3.4376 H   0  0  0  0  0  0  0  0  0  0  0  0
   -4.1832   -3.8178    3.0739 H   0  0  0  0  0  0  0  0  0  0  0  0
   -3.6579   -2.6652    4.3205 H   0  0  0  0  0  0  0  0  0  0  0  0
   -3.8833   -2.0820    1.3136 H   0  0  0  0  0  0  0  0  0  0  0  0
   -3.5346   -0.8835    2.5542 H   0  0  0  0  0  0  0  0  0  0  0  0
   -0.5073   -3.7221    1.9600 H   0  0  0  0  0  0  0  0  0  0  0  0
   -1.9482   -4.2506    2.7569 H   0  0  0  0  0  0  0  0  0  0  0  0
   -3.1927   -4.1305    0.5238 H   0  0  0  0  0  0  0  0  0  0  0  0
   -1.6324   -3.7616   -0.2413 H   0  0  0  0  0  0  0  0  0  0  0  0
   -1.8674   -5.2881    0.5965 H   0  0  0  0  0  0  0  0  0  0  0  0
   -1.1453   -0.3379    2.1463 H   0  0  0  0  0  0  0  0  0  0  0  0
   -0.1416   -1.5555    1.4184 H   0  0  0  0  0  0  0  0  0  0  0  0
   -2.6837   -0.2774    0.2852 H   0  0  0  0  0  0  0  0  0  0  0  0
   -1.9356   -1.6422   -0.5094 H   0  0  0  0  0  0  0  0  0  0  0  0
   -1.4920    0.5260   -1.5024 H   0  0  0  0  0  0  0  0  0  0  0  0
    0.5954    1.4399   -2.6471 H   0  0  0  0  0  0  0  0  0  0  0  0
    2.4494    0.6368   -3.9560 H   0  0  0  0  0  0  0  0  0  0  0  0
    4.7658   -2.8960   -2.3664 H   0  0  0  0  0  0  0  0  0  0  0  0
    5.1668   -3.2624   -4.0483 H   0  0  0  0  0  0  0  0  0  0  0  0
    3.6710   -3.8810   -3.3873 H   0  0  0  0  0  0  0  0  0  0  0  0
    5.2557   -1.3578   -5.1123 H   0  0  0  0  0  0  0  0  0  0  0  0
    4.9022   -0.0979   -3.9261 H   0  0  0  0  0  0  0  0  0  0  0  0
    3.8366   -0.3627   -5.3395 H   0  0  0  0  0  0  0  0  0  0  0  0
    2.2473   -3.1412   -1.8900 H   0  0  0  0  0  0  0  0  0  0  0  0
    0.4026   -2.3431   -0.5973 H   0  0  0  0  0  0  0  0  0  0  0  0
    2.9224    1.4738   -0.0999 H   0  0  0  0  0  0  0  0  0  0  0  0
    3.3449    1.2042    1.6291 H   0  0  0  0  0  0  0  0  0  0  0  0
    3.3179   -0.1502    0.4887 H   0  0  0  0  0  0  0  0  0  0  0  0
    1.7638    2.7729    2.3218 H   0  0  0  0  0  0  0  0  0  0  0  0
    2.2939    5.0662    2.4760 H   0  0  0  0  0  0  0  0  0  0  0  0
    1.3828    6.1560    3.5260 H   0  0  0  0  0  0  0  0  0  0  0  0
    1.3796    4.4285    3.9002 H   0  0  0  0  0  0  0  0  0  0  0  0
   -1.8811    5.7881    1.2172 H   0  0  0  0  0  0  0  0  0  0  0  0
   -3.8824    5.5422   -0.1905 H   0  0  0  0  0  0  0  0  0  0  0  0
  1  2  1  0
  2  3  1  0
  3  4  1  0
  4  5  1  0
  3  6  1  0
  6  7  1  0
  7  8  1  0
  8  9  1  0
  9 10  2  0
 10 11  1  0
 11 12  2  0
 12 13  1  0
 13 14  1  0
 13 15  1  0
 12 16  1  0
 16 17  2  0
  8 18  1  0
 18 19  2  0
 19 20  1  0
 20 21  1  0
 19 22  1  0
 22 23  2  0
 23 24  1  0
 24 25  1  0
 23 26  1  0
 26 27  1  0
 27 28  2  0
 28 29  1  0
 29 30  2  0
 29 31  1  0
 31 32  1  0
 17  9  1  0
 32 18  1  0
 32 26  2  0
  1 33  1  0
  1 34  1  0
  1 35  1  0
  2 36  1  0
  2 37  1  0
  4 38  1  0
  4 39  1  0
  5 40  1  0
  5 41  1  0
  5 42  1  0
  6 43  1  0
  6 44  1  0
  7 45  1  0
  7 46  1  0
  8 47  1  0
 10 48  1  0
 11 49  1  0
 14 50  1  0
 14 51  1  0
 14 52  1  0
 15 53  1  0
 15 54  1  0
 15 55  1  0
 16 56  1  0
 17 57  1  0
 21 58  1  0
 21 59  1  0
 21 60  1  0
 22 61  1  0
 25 62  1  0
 25 63  1  0
 25 64  1  0
 27 65  1  0
 28 66  1  0
M  END
$$$$
