
     RDKit          3D

 62 65  0  0  0  0  0  0  0  0999 V2000
    8.5570   -4.0099   -2.2470 C   0  0  0  0  0  0  0  0  0  0  0  0
    8.5866   -2.7375   -1.4230 C   0  0  0  0  0  0  0  0  0  0  0  0
    7.2817   -2.5353   -0.8683 O   0  0  0  0  0  0  0  0  0  0  0  0
    7.1693   -1.4293   -0.0844 C   0  0  0  0  0  0  0  0  0  0  0  0
    8.0899   -0.6523    0.1380 O   0  0  0  0  0  0  0  0  0  0  0  0
    5.8958   -1.2797    0.4249 N   0  0  0  0  0  0  0  0  0  0  0  0
    4.8220   -2.2397    0.1590 C   0  0  0  0  0  0  0  0  0  0  0  0
    3.6117   -2.0583    1.0831 C   0  0  0  0  0  0  0  0  0  0  0  0
    3.1323   -0.6715    1.1146 N   0  0  0  0  0  0  0  0  0  0  0  0
    1.7709   -0.4355    1.2848 C   0  0  0  0  0  0  0  0  0  0  0  0
    0.9720   -1.3594    1.4426 O   0  0  0  0  0  0  0  0  0  0  0  0
    1.3142    1.0343    1.2566 C   0  0  0  0  0  0  0  0  0  0  0  0
   -0.0906    1.2381    1.2254 O   0  0  0  0  0  0  0  0  0  0  0  0
   -0.7347    1.1799    0.0180 C   0  0  0  0  0  0  0  0  0  0  0  0
   -0.1616    0.7223   -1.1733 C   0  0  0  0  0  0  0  0  0  0  0  0
   -0.8951    0.7255   -2.3619 C   0  0  0  0  0  0  0  0  0  0  0  0
   -2.2087    1.1857   -2.3703 C   0  0  0  0  0  0  0  0  0  0  0  0
   -2.8016    1.6268   -1.1828 C   0  0  0  0  0  0  0  0  0  0  0  0
   -2.0740    1.6110    0.0213 C   0  0  0  0  0  0  0  0  0  0  0  0
   -2.7341    2.1222    1.2759 C   0  0  0  0  0  0  0  0  0  0  0  0
   -4.2340    1.8621    1.2283 C   0  0  0  0  0  0  0  0  0  0  0  0
   -4.8302    2.3659   -0.0020 N   0  0  0  0  0  0  0  0  0  0  0  0
   -6.2449    2.7241    0.0166 C   0  0  0  0  0  0  0  0  0  0  0  0
   -7.1531    1.5299    0.1539 C   0  0  0  0  0  0  0  0  0  0  0  0
   -7.4386    0.7113   -0.9487 C   0  0  0  0  0  0  0  0  0  0  0  0
   -8.2719   -0.4015   -0.8094 C   0  0  0  0  0  0  0  0  0  0  0  0
   -8.8266   -0.7109    0.4325 C   0  0  0  0  0  0  0  0  0  0  0  0
   -8.5460    0.0925    1.5361 C   0  0  0  0  0  0  0  0  0  0  0  0
   -7.7149    1.2000    1.3896 C   0  0  0  0  0  0  0  0  0  0  0  0
   -7.4508    1.9533    2.4674 F   0  0  0  0  0  0  0  0  0  0  0  0
   -4.2059    2.1325   -1.2245 C   0  0  0  0  0  0  0  0  0  0  0  0
   -4.7471    2.3290   -2.3092 O   0  0  0  0  0  0  0  0  0  0  0  0
    4.1499    0.3835    1.0131 C   0  0  0  0  0  0  0  0  0  0  0  0
    5.5767   -0.1252    1.2582 C   0  0  0  0  0  0  0  0  0  0  0  0
    8.2736   -4.8652   -1.6248 H   0  0  0  0  0  0  0  0  0  0  0  0
    9.5347   -4.2072   -2.6949 H   0  0  0  0  0  0  0  0  0  0  0  0
    7.8106   -3.9356   -3.0448 H   0  0  0  0  0  0  0  0  0  0  0  0
    8.8519   -1.8885   -2.0630 H   0  0  0  0  0  0  0  0  0  0  0  0
    9.3216   -2.8372   -0.6163 H   0  0  0  0  0  0  0  0  0  0  0  0
    4.5187   -2.0889   -0.8843 H   0  0  0  0  0  0  0  0  0  0  0  0
    5.2130   -3.2590    0.2493 H   0  0  0  0  0  0  0  0  0  0  0  0
    2.8090   -2.7374    0.7771 H   0  0  0  0  0  0  0  0  0  0  0  0
    3.8859   -2.3160    2.1134 H   0  0  0  0  0  0  0  0  0  0  0  0
    1.6588    1.4800    2.1971 H   0  0  0  0  0  0  0  0  0  0  0  0
    1.8046    1.5867    0.4472 H   0  0  0  0  0  0  0  0  0  0  0  0
    0.8536    0.3429   -1.2154 H   0  0  0  0  0  0  0  0  0  0  0  0
   -0.4411    0.3688   -3.2832 H   0  0  0  0  0  0  0  0  0  0  0  0
   -2.7715    1.1959   -3.3015 H   0  0  0  0  0  0  0  0  0  0  0  0
   -2.5370    3.1982    1.3555 H   0  0  0  0  0  0  0  0  0  0  0  0
   -2.3291    1.6351    2.1696 H   0  0  0  0  0  0  0  0  0  0  0  0
   -4.4403    0.7859    1.2815 H   0  0  0  0  0  0  0  0  0  0  0  0
   -4.7109    2.3493    2.0857 H   0  0  0  0  0  0  0  0  0  0  0  0
   -6.5045    3.2658   -0.9013 H   0  0  0  0  0  0  0  0  0  0  0  0
   -6.4023    3.4344    0.8371 H   0  0  0  0  0  0  0  0  0  0  0  0
   -7.0080    0.9389   -1.9233 H   0  0  0  0  0  0  0  0  0  0  0  0
   -8.4851   -1.0276   -1.6728 H   0  0  0  0  0  0  0  0  0  0  0  0
   -9.4734   -1.5778    0.5387 H   0  0  0  0  0  0  0  0  0  0  0  0
   -8.9668   -0.1373    2.5097 H   0  0  0  0  0  0  0  0  0  0  0  0
    4.0728    0.7930   -0.0012 H   0  0  0  0  0  0  0  0  0  0  0  0
    3.9165    1.1861    1.7193 H   0  0  0  0  0  0  0  0  0  0  0  0
    5.6835   -0.4505    2.3002 H   0  0  0  0  0  0  0  0  0  0  0  0
    6.2956    0.6834    1.0906 H   0  0  0  0  0  0  0  0  0  0  0  0
  1  2  1  0
  2  3  1  0
  3  4  1  0
  4  5  2  0
  4  6  1  0
  6  7  1  0
  7  8  1  0
  8  9  1  0
  9 10  1  0
 10 11  2  0
 10 12  1  0
 12 13  1  0
 13 14  1  0
 14 15  2  0
 15 16  1  0
 16 17  2  0
 17 18  1  0
 18 19  2  0
 19 20  1  0
 20 21  1  0
 21 22  1  0
 22 23  1  0
 23 24  1  0
 24 25  2  0
 25 26  1  0
 26 27  2  0
 27 28  1  0
 28 29  2  0
 29 30  1  0
 22 31  1  0
 31 32  2  0
  9 33  1  0
 33 34  1  0
 34  6  1  0
 19 14  1  0
 29 24  1  0
 31 18  1  0
  1 35  1  0
  1 36  1  0
  1 37  1  0
  2 38  1  0
  2 39  1  0
  7 40  1  0
  7 41  1  0
  8 42  1  0
  8 43  1  0
 12 44  1  0
 12 45  1  0
 15 46  1  0
 16 47  1  0
 17 48  1  0
 20 49  1  0
 20 50  1  0
 21 51  1  0
 21 52  1  0
 23 53  1  0
 23 54  1  0
 25 55  1  0
 26 56  1  0
 27 57  1  0
 28 58  1  0
 33 59  1  0
 33 60  1  0
 34 61  1  0
 34 62  1  0
M  END
$$$$
