
     RDKit          3D

 53 55  0  0  0  0  0  0  0  0999 V2000
   -1.8124    0.3285    2.0293 O   0  0  0  0  0  0  0  0  0  0  0  0
   -1.3067   -0.0414    0.9757 C   0  0  0  0  0  0  0  0  0  0  0  0
   -1.9787   -0.0064   -0.2232 N   0  0  0  0  0  0  0  0  0  0  0  0
   -3.3679    0.4652   -0.3111 C   0  0  0  0  0  0  0  0  0  0  0  0
   -4.3472   -0.6513    0.0740 C   0  0  0  0  0  0  0  0  0  0  0  0
   -5.7687   -0.1749    0.2519 C   0  0  0  0  0  0  0  0  0  0  0  0
   -6.1232    0.5786    1.3795 C   0  0  0  0  0  0  0  0  0  0  0  0
   -7.4331    1.0295    1.5449 C   0  0  0  0  0  0  0  0  0  0  0  0
   -8.4001    0.7310    0.5870 C   0  0  0  0  0  0  0  0  0  0  0  0
   -8.0586   -0.0200   -0.5363 C   0  0  0  0  0  0  0  0  0  0  0  0
   -6.7488   -0.4721   -0.7044 C   0  0  0  0  0  0  0  0  0  0  0  0
   -3.5893    0.8961   -1.7566 C   0  0  0  0  0  0  0  0  0  0  0  0
   -3.0562    0.3915   -2.7366 O   0  0  0  0  0  0  0  0  0  0  0  0
   -4.4406    1.9285   -1.8951 O   0  0  0  0  0  0  0  0  0  0  0  0
    0.1023   -0.5279    0.9479 C   0  0  0  0  0  0  0  0  0  0  0  0
    0.5848   -1.3803   -0.0560 C   0  0  0  0  0  0  0  0  0  0  0  0
    1.9159   -1.8090   -0.0331 C   0  0  0  0  0  0  0  0  0  0  0  0
    2.7656   -1.3804    0.9920 C   0  0  0  0  0  0  0  0  0  0  0  0
    4.4526   -1.9585    1.0402 S   0  0  0  0  0  6  0  0  0  0  0  0
    4.5089   -3.1811    0.2665 O   0  0  0  0  0  0  0  0  0  0  0  0
    4.8787   -1.9300    2.4232 O   0  0  0  0  0  0  0  0  0  0  0  0
    5.3013   -0.7493    0.1911 N   0  0  0  0  0  0  0  0  0  0  0  0
    5.0387   -0.6505   -1.2646 C   0  0  0  0  0  0  0  0  0  0  0  0
    6.1739    0.1212   -1.9332 C   0  0  0  0  0  0  0  0  0  0  0  0
    6.3639    1.4940   -1.2941 C   0  0  0  0  0  0  0  0  0  0  0  0
    6.5506    1.3651    0.2151 C   0  0  0  0  0  0  0  0  0  0  0  0
    5.4091    0.5746    0.8502 C   0  0  0  0  0  0  0  0  0  0  0  0
    2.2847   -0.5640    2.0189 C   0  0  0  0  0  0  0  0  0  0  0  0
    0.9553   -0.1361    1.9912 C   0  0  0  0  0  0  0  0  0  0  0  0
   -1.5167   -0.2291   -1.0974 H   0  0  0  0  0  0  0  0  0  0  0  0
   -3.4614    1.3413    0.3412 H   0  0  0  0  0  0  0  0  0  0  0  0
   -4.0334   -1.1263    1.0131 H   0  0  0  0  0  0  0  0  0  0  0  0
   -4.3173   -1.4525   -0.6770 H   0  0  0  0  0  0  0  0  0  0  0  0
   -5.3791    0.8158    2.1385 H   0  0  0  0  0  0  0  0  0  0  0  0
   -7.6987    1.6125    2.4229 H   0  0  0  0  0  0  0  0  0  0  0  0
   -9.4204    1.0815    0.7177 H   0  0  0  0  0  0  0  0  0  0  0  0
   -8.8143   -0.2553   -1.2812 H   0  0  0  0  0  0  0  0  0  0  0  0
   -6.5019   -1.0588   -1.5863 H   0  0  0  0  0  0  0  0  0  0  0  0
   -4.5010    2.0862   -2.8596 H   0  0  0  0  0  0  0  0  0  0  0  0
   -0.0642   -1.7515   -0.8441 H   0  0  0  0  0  0  0  0  0  0  0  0
    2.2767   -2.4867   -0.8048 H   0  0  0  0  0  0  0  0  0  0  0  0
    4.0841   -0.1421   -1.4406 H   0  0  0  0  0  0  0  0  0  0  0  0
    4.9869   -1.6460   -1.7164 H   0  0  0  0  0  0  0  0  0  0  0  0
    5.9652    0.2359   -3.0026 H   0  0  0  0  0  0  0  0  0  0  0  0
    7.1066   -0.4501   -1.8450 H   0  0  0  0  0  0  0  0  0  0  0  0
    5.4890    2.1213   -1.5039 H   0  0  0  0  0  0  0  0  0  0  0  0
    7.2329    1.9939   -1.7359 H   0  0  0  0  0  0  0  0  0  0  0  0
    7.5034    0.8605    0.4192 H   0  0  0  0  0  0  0  0  0  0  0  0
    6.6091    2.3611    0.6678 H   0  0  0  0  0  0  0  0  0  0  0  0
    5.6230    0.4588    1.9173 H   0  0  0  0  0  0  0  0  0  0  0  0
    4.4676    1.1250    0.7447 H   0  0  0  0  0  0  0  0  0  0  0  0
    2.9290   -0.2659    2.8436 H   0  0  0  0  0  0  0  0  0  0  0  0
    0.5804    0.4997    2.7924 H   0  0  0  0  0  0  0  0  0  0  0  0
  1  2  2  0
  2  3  1  0
  3  4  1  0
  4  5  1  0
  5  6  1  0
  6  7  2  0
  7  8  1  0
  8  9  2  0
  9 10  1  0
 10 11  2  0
  4 12  1  0
 12 13  2  0
 12 14  1  0
  2 15  1  0
 15 16  2  0
 16 17  1  0
 17 18  2  0
 18 19  1  0
 19 20  2  0
 19 21  2  0
 19 22  1  0
 22 23  1  0
 23 24  1  0
 24 25  1  0
 25 26  1  0
 26 27  1  0
 18 28  1  0
 28 29  2  0
 11  6  1  0
 29 15  1  0
 27 22  1  0
  3 30  1  0
  4 31  1  0
  5 32  1  0
  5 33  1  0
  7 34  1  0
  8 35  1  0
  9 36  1  0
 10 37  1  0
 11 38  1  0
 14 39  1  0
 16 40  1  0
 17 41  1  0
 23 42  1  0
 23 43  1  0
 24 44  1  0
 24 45  1  0
 25 46  1  0
 25 47  1  0
 26 48  1  0
 26 49  1  0
 27 50  1  0
 27 51  1  0
 28 52  1  0
 29 53  1  0
M  END
$$$$
