
     RDKit          3D

 47 49  0  0  0  0  0  0  0  0999 V2000
    2.5535    3.6382   -4.2534 C   0  0  0  0  0  0  0  0  0  0  0  0
    2.3383    2.6726   -3.1201 C   0  0  0  0  0  0  0  0  0  0  0  0
    2.4498    3.1282   -1.7992 C   0  0  0  0  0  0  0  0  0  0  0  0
    2.2578    2.2600   -0.7230 C   0  0  0  0  0  0  0  0  0  0  0  0
    1.9566    0.9095   -0.9405 C   0  0  0  0  0  0  0  0  0  0  0  0
    1.7120   -0.0508    0.2106 C   0  0  0  0  0  0  0  0  0  0  0  0
    2.8535   -0.0357    1.2322 C   0  0  0  0  0  0  0  0  0  0  0  0
    0.4352    0.2634    0.8305 N   0  0  0  0  0  0  0  0  0  0  0  0
   -0.2353   -0.6461    1.6174 C   0  0  0  0  0  0  0  0  0  0  0  0
    0.2177   -1.7543    1.8780 O   0  0  0  0  0  0  0  0  0  0  0  0
   -1.5335   -0.2037    2.0829 C   0  0  0  0  0  0  0  0  0  0  0  0
   -2.7170   -0.9747    2.3197 C   0  0  0  0  0  0  0  0  0  0  0  0
   -2.9678   -2.4007    2.1018 C   0  0  0  0  0  0  0  0  0  0  0  0
   -3.7354   -3.1256    3.0268 C   0  0  0  0  0  0  0  0  0  0  0  0
   -3.9970   -4.4836    2.8287 C   0  0  0  0  0  0  0  0  0  0  0  0
   -3.4987   -5.1311    1.7007 C   0  0  0  0  0  0  0  0  0  0  0  0
   -2.7433   -4.4216    0.7692 C   0  0  0  0  0  0  0  0  0  0  0  0
   -2.4820   -3.0623    0.9659 C   0  0  0  0  0  0  0  0  0  0  0  0
   -3.6989   -0.1869    2.7921 N   0  0  0  0  0  0  0  0  0  0  0  0
   -3.1802    1.0817    2.8760 O   0  0  0  0  0  0  0  0  0  0  0  0
   -1.8877    1.0757    2.4682 C   0  0  0  0  0  0  0  0  0  0  0  0
   -1.1860    2.3712    2.5643 C   0  0  0  0  0  0  0  0  0  0  0  0
    1.8348    0.4568   -2.2636 C   0  0  0  0  0  0  0  0  0  0  0  0
    2.0249    1.3206   -3.3560 C   0  0  0  0  0  0  0  0  0  0  0  0
    1.8887    0.7802   -4.7539 C   0  0  0  0  0  0  0  0  0  0  0  0
    3.3884    3.3092   -4.8803 H   0  0  0  0  0  0  0  0  0  0  0  0
    1.6475    3.7179   -4.8624 H   0  0  0  0  0  0  0  0  0  0  0  0
    2.7935    4.6419   -3.8866 H   0  0  0  0  0  0  0  0  0  0  0  0
    2.6891    4.1704   -1.5971 H   0  0  0  0  0  0  0  0  0  0  0  0
    2.3456    2.6531    0.2871 H   0  0  0  0  0  0  0  0  0  0  0  0
    1.6417   -1.0728   -0.1843 H   0  0  0  0  0  0  0  0  0  0  0  0
    2.9137    0.9192    1.7660 H   0  0  0  0  0  0  0  0  0  0  0  0
    3.8185   -0.2141    0.7452 H   0  0  0  0  0  0  0  0  0  0  0  0
    2.7133   -0.8144    1.9894 H   0  0  0  0  0  0  0  0  0  0  0  0
   -0.0742    1.0560    0.4651 H   0  0  0  0  0  0  0  0  0  0  0  0
   -4.1343   -2.6341    3.9123 H   0  0  0  0  0  0  0  0  0  0  0  0
   -4.5895   -5.0326    3.5557 H   0  0  0  0  0  0  0  0  0  0  0  0
   -3.7000   -6.1880    1.5467 H   0  0  0  0  0  0  0  0  0  0  0  0
   -2.3552   -4.9254   -0.1123 H   0  0  0  0  0  0  0  0  0  0  0  0
   -1.8980   -2.5332    0.2178 H   0  0  0  0  0  0  0  0  0  0  0  0
   -1.6807    3.0363    3.2794 H   0  0  0  0  0  0  0  0  0  0  0  0
   -1.1717    2.8705    1.5908 H   0  0  0  0  0  0  0  0  0  0  0  0
   -0.1535    2.2334    2.8999 H   0  0  0  0  0  0  0  0  0  0  0  0
    1.5875   -0.5879   -2.4492 H   0  0  0  0  0  0  0  0  0  0  0  0
    2.8294    0.8990   -5.3007 H   0  0  0  0  0  0  0  0  0  0  0  0
    1.6421   -0.2869   -4.7510 H   0  0  0  0  0  0  0  0  0  0  0  0
    1.0870    1.3016   -5.2865 H   0  0  0  0  0  0  0  0  0  0  0  0
  1  2  1  0
  2  3  2  0
  3  4  1  0
  4  5  2  0
  5  6  1  0
  6  7  1  0
  6  8  1  0
  8  9  1  0
  9 10  2  0
  9 11  1  0
 11 12  1  0
 12 13  1  0
 13 14  2  0
 14 15  1  0
 15 16  2  0
 16 17  1  0
 17 18  2  0
 12 19  2  0
 19 20  1  0
 20 21  1  0
 21 22  1  0
  5 23  1  0
 23 24  2  0
 24 25  1  0
 24  2  1  0
 21 11  2  0
 18 13  1  0
  1 26  1  0
  1 27  1  0
  1 28  1  0
  3 29  1  0
  4 30  1  0
  6 31  1  0
  7 32  1  0
  7 33  1  0
  7 34  1  0
  8 35  1  0
 14 36  1  0
 15 37  1  0
 16 38  1  0
 17 39  1  0
 18 40  1  0
 22 41  1  0
 22 42  1  0
 22 43  1  0
 23 44  1  0
 25 45  1  0
 25 46  1  0
 25 47  1  0
M  END
$$$$
