
     RDKit          3D

 53 56  0  0  0  0  0  0  0  0999 V2000
   -0.6819   -2.2600    2.9354 C   0  0  0  0  0  0  0  0  0  0  0  0
   -0.6558   -1.5289    1.6199 C   0  0  0  0  0  0  0  0  0  0  0  0
    0.5347   -1.3425    0.9083 C   0  0  0  0  0  0  0  0  0  0  0  0
    1.7418   -1.8107    1.3554 O   0  0  0  0  0  0  0  0  0  0  0  0
    2.3185   -1.0074    2.3988 C   0  0  0  0  0  0  0  0  0  0  0  0
    3.0097   -1.9677    3.3668 C   0  0  0  0  0  0  0  0  0  0  0  0
    3.3440   -0.0055    1.8271 C   0  0  0  0  0  0  0  0  0  0  0  0
    4.5616   -0.1513    1.9173 O   0  0  0  0  0  0  0  0  0  0  0  0
    2.7771    1.0955    1.2171 N   0  0  0  0  0  0  0  0  0  0  0  0
    3.5831    2.0373    0.4654 C   0  0  0  0  0  0  0  0  0  0  0  0
    3.7916    1.5789   -0.9639 C   0  0  0  0  0  0  0  0  0  0  0  0
    4.9183    0.8254   -1.2979 C   0  0  0  0  0  0  0  0  0  0  0  0
    5.0784    0.3963   -2.6136 C   0  0  0  0  0  0  0  0  0  0  0  0
    4.1103    0.7231   -3.5592 C   0  0  0  0  0  0  0  0  0  0  0  0
    3.0124    1.4618   -3.1437 C   0  0  0  0  0  0  0  0  0  0  0  0
    2.8228    1.8870   -1.8719 N   0  0  0  0  0  0  0  0  0  0  0  0
    0.5233   -0.7410   -0.3519 C   0  0  0  0  0  0  0  0  0  0  0  0
   -0.6645   -0.2259   -0.8794 C   0  0  0  0  0  0  0  0  0  0  0  0
   -1.8687   -0.3358   -0.1724 C   0  0  0  0  0  0  0  0  0  0  0  0
   -3.1497    0.2007   -0.6690 C   0  0  0  0  0  0  0  0  0  0  0  0
   -4.2605    0.0508    0.0808 C   0  0  0  0  0  0  0  0  0  0  0  0
   -4.2496   -0.6863    1.3682 C   0  0  0  0  0  0  0  0  0  0  0  0
   -5.2807   -0.8868    2.0048 O   0  0  0  0  0  0  0  0  0  0  0  0
   -3.0208   -1.1449    1.8157 O   0  0  0  0  0  0  0  0  0  0  0  0
   -1.8348   -0.9903    1.0663 C   0  0  0  0  0  0  0  0  0  0  0  0
   -5.6036    0.6145   -0.3153 C   0  0  0  0  0  0  0  0  0  0  0  0
   -5.5140    1.6709   -1.4161 C   0  0  0  0  0  0  0  0  0  0  0  0
   -4.5967    1.1967   -2.5353 C   0  0  0  0  0  0  0  0  0  0  0  0
   -3.1865    0.9084   -2.0096 C   0  0  0  0  0  0  0  0  0  0  0  0
    0.0591   -3.0714    2.9449 H   0  0  0  0  0  0  0  0  0  0  0  0
   -1.6541   -2.7340    3.1147 H   0  0  0  0  0  0  0  0  0  0  0  0
   -0.4698   -1.5667    3.7603 H   0  0  0  0  0  0  0  0  0  0  0  0
    1.5638   -0.4385    2.9598 H   0  0  0  0  0  0  0  0  0  0  0  0
    2.2809   -2.6425    3.8259 H   0  0  0  0  0  0  0  0  0  0  0  0
    3.5325   -1.4280    4.1652 H   0  0  0  0  0  0  0  0  0  0  0  0
    3.7374   -2.5982    2.8431 H   0  0  0  0  0  0  0  0  0  0  0  0
    1.7918    1.0733    0.9911 H   0  0  0  0  0  0  0  0  0  0  0  0
    3.0445    2.9927    0.4651 H   0  0  0  0  0  0  0  0  0  0  0  0
    4.5439    2.1976    0.9700 H   0  0  0  0  0  0  0  0  0  0  0  0
    5.6561    0.5685   -0.5403 H   0  0  0  0  0  0  0  0  0  0  0  0
    5.9501   -0.1908   -2.8944 H   0  0  0  0  0  0  0  0  0  0  0  0
    4.2071    0.4067   -4.5938 H   0  0  0  0  0  0  0  0  0  0  0  0
    2.2306    1.7394   -3.8499 H   0  0  0  0  0  0  0  0  0  0  0  0
    1.4460   -0.6571   -0.9270 H   0  0  0  0  0  0  0  0  0  0  0  0
   -0.6140    0.2597   -1.8521 H   0  0  0  0  0  0  0  0  0  0  0  0
   -6.1030    1.0696    0.5513 H   0  0  0  0  0  0  0  0  0  0  0  0
   -6.2393   -0.2111   -0.6584 H   0  0  0  0  0  0  0  0  0  0  0  0
   -6.5151    1.8796   -1.8109 H   0  0  0  0  0  0  0  0  0  0  0  0
   -5.1315    2.6122   -0.9993 H   0  0  0  0  0  0  0  0  0  0  0  0
   -4.5463    1.9526   -3.3287 H   0  0  0  0  0  0  0  0  0  0  0  0
   -5.0128    0.2881   -2.9899 H   0  0  0  0  0  0  0  0  0  0  0  0
   -2.6750    0.3088   -2.7775 H   0  0  0  0  0  0  0  0  0  0  0  0
   -2.6426    1.8596   -1.9173 H   0  0  0  0  0  0  0  0  0  0  0  0
  1  2  1  0
  2  3  2  0
  3  4  1  0
  4  5  1  0
  5  6  1  0
  5  7  1  0
  7  8  2  0
  7  9  1  0
  9 10  1  0
 10 11  1  0
 11 12  2  0
 12 13  1  0
 13 14  2  0
 14 15  1  0
 15 16  2  0
  3 17  1  0
 17 18  2  0
 18 19  1  0
 19 20  1  0
 20 21  2  0
 21 22  1  0
 22 23  2  0
 22 24  1  0
 24 25  1  0
 21 26  1  0
 26 27  1  0
 27 28  1  0
 28 29  1  0
 25  2  1  0
 16 11  1  0
 25 19  2  0
 29 20  1  0
  1 30  1  0
  1 31  1  0
  1 32  1  0
  5 33  1  0
  6 34  1  0
  6 35  1  0
  6 36  1  0
  9 37  1  0
 10 38  1  0
 10 39  1  0
 12 40  1  0
 13 41  1  0
 14 42  1  0
 15 43  1  0
 17 44  1  0
 18 45  1  0
 26 46  1  0
 26 47  1  0
 27 48  1  0
 27 49  1  0
 28 50  1  0
 28 51  1  0
 29 52  1  0
 29 53  1  0
M  END
$$$$
