
     RDKit          3D

 47 49  0  0  0  0  0  0  0  0999 V2000
    8.0598   -1.4084   -1.3877 C   0  0  0  0  0  0  0  0  0  0  0  0
    6.6360   -1.4405   -0.8618 C   0  0  0  0  0  0  0  0  0  0  0  0
    6.0658   -0.1472   -1.0564 O   0  0  0  0  0  0  0  0  0  0  0  0
    4.7740    0.0340   -0.6479 C   0  0  0  0  0  0  0  0  0  0  0  0
    4.2701    1.3192   -0.8650 C   0  0  0  0  0  0  0  0  0  0  0  0
    2.9641    1.6489   -0.4944 C   0  0  0  0  0  0  0  0  0  0  0  0
    2.1459    0.6815    0.0985 C   0  0  0  0  0  0  0  0  0  0  0  0
    0.8106    1.0089    0.4807 N   0  0  0  0  0  0  0  0  0  0  0  0
    0.4034    2.2007    1.0785 C   0  0  0  0  0  0  0  0  0  0  0  0
    1.2227    3.1880    1.4450 O   0  0  0  0  0  0  0  0  0  0  0  0
   -0.9555    2.1290    1.2802 C   0  0  0  0  0  0  0  0  0  0  0  0
   -1.4088    0.8611    0.8475 C   0  0  0  0  0  0  0  0  0  0  0  0
   -2.7092    0.4367    0.9156 N   0  0  0  0  0  0  0  0  0  0  0  0
   -3.5203    0.8725    2.0549 C   0  0  0  0  0  0  0  0  0  0  0  0
   -3.1524   -0.7755    0.2125 C   0  0  0  0  0  0  0  0  0  0  0  0
   -4.6026   -0.6905   -0.2315 C   0  0  0  0  0  0  0  0  0  0  0  0
   -5.5175   -1.6951    0.1162 C   0  0  0  0  0  0  0  0  0  0  0  0
   -6.8445   -1.6225   -0.3122 C   0  0  0  0  0  0  0  0  0  0  0  0
   -7.2685   -0.5507   -1.0964 C   0  0  0  0  0  0  0  0  0  0  0  0
   -6.3670    0.4494   -1.4558 C   0  0  0  0  0  0  0  0  0  0  0  0
   -5.0405    0.3784   -1.0292 C   0  0  0  0  0  0  0  0  0  0  0  0
   -0.3132    0.1871    0.3306 C   0  0  0  0  0  0  0  0  0  0  0  0
   -0.2641   -1.0150   -0.2563 O   0  0  0  0  0  0  0  0  0  0  0  0
    2.6451   -0.6089    0.3160 C   0  0  0  0  0  0  0  0  0  0  0  0
    3.9566   -0.9285   -0.0551 C   0  0  0  0  0  0  0  0  0  0  0  0
    8.5440   -2.3809   -1.2617 H   0  0  0  0  0  0  0  0  0  0  0  0
    8.0726   -1.1418   -2.4497 H   0  0  0  0  0  0  0  0  0  0  0  0
    8.6481   -0.6495   -0.8614 H   0  0  0  0  0  0  0  0  0  0  0  0
    6.0664   -2.1948   -1.4169 H   0  0  0  0  0  0  0  0  0  0  0  0
    6.6542   -1.6913    0.2051 H   0  0  0  0  0  0  0  0  0  0  0  0
    4.9008    2.0694   -1.3377 H   0  0  0  0  0  0  0  0  0  0  0  0
    2.5948    2.6481   -0.7187 H   0  0  0  0  0  0  0  0  0  0  0  0
    2.1262    2.8372    1.5358 H   0  0  0  0  0  0  0  0  0  0  0  0
   -1.5477    2.9160    1.7258 H   0  0  0  0  0  0  0  0  0  0  0  0
   -4.3849    0.2239    2.2309 H   0  0  0  0  0  0  0  0  0  0  0  0
   -2.9352    0.8637    2.9826 H   0  0  0  0  0  0  0  0  0  0  0  0
   -3.8945    1.8879    1.8844 H   0  0  0  0  0  0  0  0  0  0  0  0
   -2.5861   -0.9407   -0.7108 H   0  0  0  0  0  0  0  0  0  0  0  0
   -2.9950   -1.6470    0.8599 H   0  0  0  0  0  0  0  0  0  0  0  0
   -5.2015   -2.5390    0.7249 H   0  0  0  0  0  0  0  0  0  0  0  0
   -7.5476   -2.4036   -0.0352 H   0  0  0  0  0  0  0  0  0  0  0  0
   -8.3015   -0.4955   -1.4293 H   0  0  0  0  0  0  0  0  0  0  0  0
   -6.6947    1.2851   -2.0682 H   0  0  0  0  0  0  0  0  0  0  0  0
   -4.3397    1.1627   -1.3105 H   0  0  0  0  0  0  0  0  0  0  0  0
    0.4744   -1.0176   -0.8902 H   0  0  0  0  0  0  0  0  0  0  0  0
    2.0463   -1.3695    0.8152 H   0  0  0  0  0  0  0  0  0  0  0  0
    4.3106   -1.9353    0.1427 H   0  0  0  0  0  0  0  0  0  0  0  0
  1  2  1  0
  2  3  1  0
  3  4  1  0
  4  5  2  0
  5  6  1  0
  6  7  2  0
  7  8  1  0
  8  9  1  0
  9 10  1  0
  9 11  2  0
 11 12  1  0
 12 13  1  0
 13 14  1  0
 13 15  1  0
 15 16  1  0
 16 17  2  0
 17 18  1  0
 18 19  2  0
 19 20  1  0
 20 21  2  0
 12 22  2  0
 22 23  1  0
  7 24  1  0
 24 25  2  0
 25  4  1  0
 22  8  1  0
 21 16  1  0
  1 26  1  0
  1 27  1  0
  1 28  1  0
  2 29  1  0
  2 30  1  0
  5 31  1  0
  6 32  1  0
 10 33  1  0
 11 34  1  0
 14 35  1  0
 14 36  1  0
 14 37  1  0
 15 38  1  0
 15 39  1  0
 17 40  1  0
 18 41  1  0
 19 42  1  0
 20 43  1  0
 21 44  1  0
 23 45  1  0
 24 46  1  0
 25 47  1  0
M  END
$$$$
