
     RDKit          3D

 41 42  0  0  0  0  0  0  0  0999 V2000
   -7.0930    0.0485   -0.0744 C   0  0  0  0  0  0  0  0  0  0  0  0
   -5.5973    0.1454   -0.2863 C   0  0  0  0  0  0  0  0  0  0  0  0
   -5.1882    0.2151   -1.4468 O   0  0  0  0  0  0  0  0  0  0  0  0
   -4.7895    0.1216    0.8628 N   0  0  0  0  0  0  0  0  0  0  0  0
   -5.3560   -0.1383    2.1888 C   0  0  0  0  0  0  0  0  0  0  0  0
   -3.3503    0.2395    0.7819 C   0  0  0  0  0  0  0  0  0  0  0  0
   -2.5231   -0.2484    1.8052 C   0  0  0  0  0  0  0  0  0  0  0  0
   -1.1223   -0.1474    1.7431 C   0  0  0  0  0  0  0  0  0  0  0  0
   -0.5012    0.4521    0.6567 C   0  0  0  0  0  0  0  0  0  0  0  0
    0.8892    0.6103    0.4794 N   0  0  0  0  0  0  0  0  0  0  0  0
    1.9919    0.0894    1.1147 C   0  0  0  0  0  0  0  0  0  0  0  0
    2.0876   -1.0381    2.3409 S   0  0  0  0  0  0  0  0  0  0  0  0
    3.2083    0.5717    0.6452 N   0  0  0  0  0  0  0  0  0  0  0  0
    3.4491    1.4729   -0.3739 C   0  0  0  0  0  0  0  0  0  0  0  0
    2.5862    2.0234   -1.0491 O   0  0  0  0  0  0  0  0  0  0  0  0
    4.8781    1.7961   -0.5701 C   0  0  0  0  0  0  0  0  0  0  0  0
    5.8614    0.9471   -0.8963 C   0  0  0  0  0  0  0  0  0  0  0  0
    5.7238   -0.4371   -1.1863 C   0  0  0  0  0  0  0  0  0  0  0  0
    4.6498   -1.1973   -1.6403 C   0  0  0  0  0  0  0  0  0  0  0  0
    5.0880   -2.5373   -1.7811 C   0  0  0  0  0  0  0  0  0  0  0  0
    6.4158   -2.5360   -1.4364 C   0  0  0  0  0  0  0  0  0  0  0  0
    6.8068   -1.2891   -1.0847 O   0  0  0  0  0  0  0  0  0  0  0  0
   -1.3161    0.9741   -0.3511 C   0  0  0  0  0  0  0  0  0  0  0  0
   -2.7128    0.8655   -0.2924 C   0  0  0  0  0  0  0  0  0  0  0  0
   -7.5936    0.0274   -1.0479 H   0  0  0  0  0  0  0  0  0  0  0  0
   -7.4558    0.9280    0.4672 H   0  0  0  0  0  0  0  0  0  0  0  0
   -7.3500   -0.8781    0.4512 H   0  0  0  0  0  0  0  0  0  0  0  0
   -6.4216    0.0944    2.2438 H   0  0  0  0  0  0  0  0  0  0  0  0
   -5.2242   -1.1985    2.4265 H   0  0  0  0  0  0  0  0  0  0  0  0
   -4.8635    0.4912    2.9393 H   0  0  0  0  0  0  0  0  0  0  0  0
   -2.9336   -0.7509    2.6753 H   0  0  0  0  0  0  0  0  0  0  0  0
   -0.5669   -0.5384    2.5849 H   0  0  0  0  0  0  0  0  0  0  0  0
    1.1343    1.1884   -0.3245 H   0  0  0  0  0  0  0  0  0  0  0  0
    4.0089    0.1774    1.1241 H   0  0  0  0  0  0  0  0  0  0  0  0
    5.1026    2.8516   -0.4475 H   0  0  0  0  0  0  0  0  0  0  0  0
    6.8740    1.3424   -0.9674 H   0  0  0  0  0  0  0  0  0  0  0  0
    3.6571   -0.8349   -1.8670 H   0  0  0  0  0  0  0  0  0  0  0  0
    4.5123   -3.3898   -2.1143 H   0  0  0  0  0  0  0  0  0  0  0  0
    7.1874   -3.2963   -1.4043 H   0  0  0  0  0  0  0  0  0  0  0  0
   -0.8799    1.4694   -1.2147 H   0  0  0  0  0  0  0  0  0  0  0  0
   -3.2738    1.3130   -1.1062 H   0  0  0  0  0  0  0  0  0  0  0  0
  1  2  1  0
  2  3  2  0
  2  4  1  0
  4  5  1  0
  4  6  1  0
  6  7  2  0
  7  8  1  0
  8  9  2  0
  9 10  1  0
 10 11  1  0
 11 12  2  0
 11 13  1  0
 13 14  1  0
 14 15  2  0
 14 16  1  0
 16 17  2  3
 17 18  1  0
 18 19  2  0
 19 20  1  0
 20 21  2  0
 21 22  1  0
  9 23  1  0
 23 24  2  0
 24  6  1  0
 22 18  1  0
  1 25  1  0
  1 26  1  0
  1 27  1  0
  5 28  1  0
  5 29  1  0
  5 30  1  0
  7 31  1  0
  8 32  1  0
 10 33  1  0
 13 34  1  0
 16 35  1  0
 17 36  1  0
 19 37  1  0
 20 38  1  0
 21 39  1  0
 23 40  1  0
 24 41  1  0
M  END
$$$$
