
     RDKit          3D

 45 47  0  0  0  0  0  0  0  0999 V2000
   -2.8950   -3.0149   -0.1927 C   0  0  0  0  0  0  0  0  0  0  0  0
   -2.3962   -1.6294   -0.5968 C   0  0  0  0  0  0  0  0  0  0  0  0
   -3.1913   -0.5394   -0.0033 N   0  0  0  0  0  0  0  0  0  0  0  0
   -4.5188   -0.4345   -0.6353 C   0  0  0  0  0  0  0  0  0  0  0  0
   -5.5184    0.3174    0.2403 C   0  0  0  0  0  0  0  0  0  0  0  0
   -2.4700    0.7532   -0.1031 C   0  0  0  0  0  0  0  0  0  0  0  0
   -1.3374    0.8974    0.8968 C   0  0  0  0  0  0  0  0  0  0  0  0
   -1.6073    1.1669    2.2492 C   0  0  0  0  0  0  0  0  0  0  0  0
   -2.9030    1.3496    2.6460 O   0  0  0  0  0  0  0  0  0  0  0  0
   -0.5833    1.2779    3.1912 C   0  0  0  0  0  0  0  0  0  0  0  0
    0.7417    1.1268    2.7893 C   0  0  0  0  0  0  0  0  0  0  0  0
    1.0344    0.8729    1.4459 C   0  0  0  0  0  0  0  0  0  0  0  0
    2.4372    0.7195    1.0146 C   0  0  0  0  0  0  0  0  0  0  0  0
    3.3508    0.8051    1.8275 O   0  0  0  0  0  0  0  0  0  0  0  0
    2.6681    0.4636   -0.4337 C   0  0  0  0  0  0  0  0  0  0  0  0
    4.0155    0.2738   -1.0027 C   0  0  0  0  0  0  0  0  0  0  0  0
    4.4232    0.9790   -2.1466 C   0  0  0  0  0  0  0  0  0  0  0  0
    5.6977    0.7877   -2.6867 C   0  0  0  0  0  0  0  0  0  0  0  0
    6.5816   -0.1074   -2.0888 C   0  0  0  0  0  0  0  0  0  0  0  0
    6.1943   -0.8081   -0.9490 C   0  0  0  0  0  0  0  0  0  0  0  0
    4.9198   -0.6176   -0.4088 C   0  0  0  0  0  0  0  0  0  0  0  0
    1.5793    0.3789   -1.2128 C   0  0  0  0  0  0  0  0  0  0  0  0
    0.2716    0.5201   -0.8225 O   0  0  0  0  0  0  0  0  0  0  0  0
    0.0080    0.7629    0.5050 C   0  0  0  0  0  0  0  0  0  0  0  0
   -2.9789   -3.1006    0.8959 H   0  0  0  0  0  0  0  0  0  0  0  0
   -2.1857   -3.7772   -0.5329 H   0  0  0  0  0  0  0  0  0  0  0  0
   -3.8651   -3.2556   -0.6355 H   0  0  0  0  0  0  0  0  0  0  0  0
   -2.3621   -1.5449   -1.6902 H   0  0  0  0  0  0  0  0  0  0  0  0
   -1.3615   -1.5785   -0.2429 H   0  0  0  0  0  0  0  0  0  0  0  0
   -4.9513   -1.4272   -0.7955 H   0  0  0  0  0  0  0  0  0  0  0  0
   -4.4512    0.0358   -1.6244 H   0  0  0  0  0  0  0  0  0  0  0  0
   -6.5156    0.2688   -0.2102 H   0  0  0  0  0  0  0  0  0  0  0  0
   -5.5812   -0.1309    1.2376 H   0  0  0  0  0  0  0  0  0  0  0  0
   -5.2638    1.3746    0.3531 H   0  0  0  0  0  0  0  0  0  0  0  0
   -2.1170    0.9142   -1.1302 H   0  0  0  0  0  0  0  0  0  0  0  0
   -3.1442    1.5980    0.0823 H   0  0  0  0  0  0  0  0  0  0  0  0
   -2.9453    1.3276    3.6155 H   0  0  0  0  0  0  0  0  0  0  0  0
   -0.7987    1.4907    4.2342 H   0  0  0  0  0  0  0  0  0  0  0  0
    1.5436    1.2140    3.5196 H   0  0  0  0  0  0  0  0  0  0  0  0
    3.7575    1.6954   -2.6227 H   0  0  0  0  0  0  0  0  0  0  0  0
    6.0022    1.3429   -3.5702 H   0  0  0  0  0  0  0  0  0  0  0  0
    7.5748   -0.2533   -2.5053 H   0  0  0  0  0  0  0  0  0  0  0  0
    6.8851   -1.4995   -0.4733 H   0  0  0  0  0  0  0  0  0  0  0  0
    4.6425   -1.1688    0.4879 H   0  0  0  0  0  0  0  0  0  0  0  0
    1.6134    0.1729   -2.2763 H   0  0  0  0  0  0  0  0  0  0  0  0
  1  2  1  0
  2  3  1  0
  3  4  1  0
  4  5  1  0
  3  6  1  0
  6  7  1  0
  7  8  2  0
  8  9  1  0
  8 10  1  0
 10 11  2  0
 11 12  1  0
 12 13  1  0
 13 14  2  0
 13 15  1  0
 15 16  1  0
 16 17  2  0
 17 18  1  0
 18 19  2  0
 19 20  1  0
 20 21  2  0
 15 22  2  0
 22 23  1  0
 23 24  1  0
 24  7  1  0
 24 12  2  0
 21 16  1  0
  1 25  1  0
  1 26  1  0
  1 27  1  0
  2 28  1  0
  2 29  1  0
  4 30  1  0
  4 31  1  0
  5 32  1  0
  5 33  1  0
  5 34  1  0
  6 35  1  0
  6 36  1  0
  9 37  1  0
 10 38  1  0
 11 39  1  0
 17 40  1  0
 18 41  1  0
 19 42  1  0
 20 43  1  0
 21 44  1  0
 22 45  1  0
M  END
$$$$
