
     RDKit          3D

 53 56  0  0  0  0  0  0  0  0999 V2000
   -9.0522    1.1791    0.7214 C   0  0  0  0  0  0  0  0  0  0  0  0
   -7.9887    1.7979    0.0083 O   0  0  0  0  0  0  0  0  0  0  0  0
   -7.3997    0.9380   -0.9667 C   0  0  0  0  0  0  0  0  0  0  0  0
   -6.2827    0.1087   -0.3477 C   0  0  0  0  0  0  0  0  0  0  0  0
   -5.6145   -0.8447   -1.3377 C   0  0  0  0  0  0  0  0  0  0  0  0
   -4.2808   -1.1503   -0.6653 C   0  0  0  0  0  0  0  0  0  0  0  0
   -3.9608    0.0643    0.0728 N   0  0  0  0  0  0  0  0  0  0  0  0
   -2.7105    0.4895    0.4949 C   0  0  0  0  0  0  0  0  0  0  0  0
   -2.5379    1.6541    0.8614 O   0  0  0  0  0  0  0  0  0  0  0  0
   -1.5757   -0.4488    0.4800 C   0  0  0  0  0  0  0  0  0  0  0  0
   -0.2061   -0.0868    0.5843 C   0  0  0  0  0  0  0  0  0  0  0  0
    0.4819   -1.2740    0.5264 C   0  0  0  0  0  0  0  0  0  0  0  0
    1.9147   -1.6451    0.5636 C   0  0  0  0  0  0  0  0  0  0  0  0
    2.5833   -0.7614   -0.3378 O   0  0  0  0  0  0  0  0  0  0  0  0
    3.9501   -0.7222   -0.1947 C   0  0  0  0  0  0  0  0  0  0  0  0
    4.7083   -1.8884   -0.0819 C   0  0  0  0  0  0  0  0  0  0  0  0
    6.0975   -1.8151    0.0162 C   0  0  0  0  0  0  0  0  0  0  0  0
    6.7443   -0.5746   -0.0172 C   0  0  0  0  0  0  0  0  0  0  0  0
    8.1092   -0.4263    0.0736 O   0  0  0  0  0  0  0  0  0  0  0  0
    8.9080   -1.5905   -0.1017 C   0  0  0  0  0  0  0  0  0  0  0  0
    5.9900    0.6205   -0.1382 C   0  0  0  0  0  0  0  0  0  0  0  0
    6.5984    1.8958   -0.1722 C   0  0  0  0  0  0  0  0  0  0  0  0
    5.8488    3.0659   -0.3084 C   0  0  0  0  0  0  0  0  0  0  0  0
    4.4672    2.9910   -0.4159 C   0  0  0  0  0  0  0  0  0  0  0  0
    3.8402    1.7431   -0.3786 C   0  0  0  0  0  0  0  0  0  0  0  0
    4.5771    0.5444   -0.2405 C   0  0  0  0  0  0  0  0  0  0  0  0
   -0.4077   -2.2936    0.4245 O   0  0  0  0  0  0  0  0  0  0  0  0
   -1.6913   -1.7865    0.4047 N   0  0  0  0  0  0  0  0  0  0  0  0
   -5.1072    0.9575    0.1407 C   0  0  0  0  0  0  0  0  0  0  0  0
   -9.8911    0.9866    0.0511 H   0  0  0  0  0  0  0  0  0  0  0  0
   -9.3871    1.8682    1.4995 H   0  0  0  0  0  0  0  0  0  0  0  0
   -8.7322    0.2483    1.1956 H   0  0  0  0  0  0  0  0  0  0  0  0
   -8.1610    0.2987   -1.4297 H   0  0  0  0  0  0  0  0  0  0  0  0
   -6.9960    1.5802   -1.7584 H   0  0  0  0  0  0  0  0  0  0  0  0
   -6.6652   -0.4713    0.5018 H   0  0  0  0  0  0  0  0  0  0  0  0
   -5.4399   -0.3451   -2.2994 H   0  0  0  0  0  0  0  0  0  0  0  0
   -6.2044   -1.7478   -1.5256 H   0  0  0  0  0  0  0  0  0  0  0  0
   -4.3849   -1.9693    0.0521 H   0  0  0  0  0  0  0  0  0  0  0  0
   -3.5072   -1.3908   -1.3995 H   0  0  0  0  0  0  0  0  0  0  0  0
    0.2049    0.9088    0.6719 H   0  0  0  0  0  0  0  0  0  0  0  0
    2.2938   -1.5258    1.5877 H   0  0  0  0  0  0  0  0  0  0  0  0
    2.0407   -2.6849    0.2370 H   0  0  0  0  0  0  0  0  0  0  0  0
    4.2432   -2.8678   -0.0961 H   0  0  0  0  0  0  0  0  0  0  0  0
    6.6481   -2.7439    0.1090 H   0  0  0  0  0  0  0  0  0  0  0  0
    8.7984   -2.2702    0.7466 H   0  0  0  0  0  0  0  0  0  0  0  0
    8.6784   -2.0931   -1.0461 H   0  0  0  0  0  0  0  0  0  0  0  0
    9.9562   -1.2742   -0.1416 H   0  0  0  0  0  0  0  0  0  0  0  0
    7.6805    1.9831   -0.0963 H   0  0  0  0  0  0  0  0  0  0  0  0
    6.3469    4.0306   -0.3338 H   0  0  0  0  0  0  0  0  0  0  0  0
    3.8758    3.8958   -0.5275 H   0  0  0  0  0  0  0  0  0  0  0  0
    2.7551    1.7108   -0.4629 H   0  0  0  0  0  0  0  0  0  0  0  0
   -5.2472    1.3135    1.1670 H   0  0  0  0  0  0  0  0  0  0  0  0
   -4.9086    1.8181   -0.5100 H   0  0  0  0  0  0  0  0  0  0  0  0
  1  2  1  0
  2  3  1  0
  3  4  1  0
  4  5  1  0
  5  6  1  0
  6  7  1  0
  7  8  1  0
  8  9  2  0
  8 10  1  0
 10 11  1  0
 11 12  2  0
 12 13  1  0
 13 14  1  0
 14 15  1  0
 15 16  2  0
 16 17  1  0
 17 18  2  0
 18 19  1  0
 19 20  1  0
 18 21  1  0
 21 22  2  0
 22 23  1  0
 23 24  2  0
 24 25  1  0
 25 26  2  0
 12 27  1  0
 27 28  1  0
  7 29  1  0
 29  4  1  0
 28 10  2  0
 26 15  1  0
 26 21  1  0
  1 30  1  0
  1 31  1  0
  1 32  1  0
  3 33  1  0
  3 34  1  0
  4 35  1  0
  5 36  1  0
  5 37  1  0
  6 38  1  0
  6 39  1  0
 11 40  1  0
 13 41  1  0
 13 42  1  0
 16 43  1  0
 17 44  1  0
 20 45  1  0
 20 46  1  0
 20 47  1  0
 22 48  1  0
 23 49  1  0
 24 50  1  0
 25 51  1  0
 29 52  1  0
 29 53  1  0
M  END
$$$$
