
     RDKit          3D

 44 46  0  0  0  0  0  0  0  0999 V2000
    7.9881   -1.4952   -2.2157 C   0  0  0  0  0  0  0  0  0  0  0  0
    6.6836   -1.0081   -1.6568 C   0  0  0  0  0  0  0  0  0  0  0  0
    6.0446   -1.7142   -0.6303 C   0  0  0  0  0  0  0  0  0  0  0  0
    4.8126   -1.2814   -0.1304 C   0  0  0  0  0  0  0  0  0  0  0  0
    4.2004   -0.1385   -0.6595 C   0  0  0  0  0  0  0  0  0  0  0  0
    2.8908    0.3657   -0.1663 C   0  0  0  0  0  0  0  0  0  0  0  0
    2.2794    1.2862   -0.6869 O   0  0  0  0  0  0  0  0  0  0  0  0
    2.5015   -0.3128    0.9421 O   0  0  0  0  0  0  0  0  0  0  0  0
    1.2088    0.0552    1.4174 C   0  0  0  0  0  0  0  0  0  0  0  0
    0.0740   -0.5091    0.5575 C   0  0  0  0  0  0  0  0  0  0  0  0
    0.1990   -1.5149   -0.1366 O   0  0  0  0  0  0  0  0  0  0  0  0
   -1.1017    0.2069    0.6413 N   0  0  0  0  0  0  0  0  0  0  0  0
   -2.3218   -0.2429   -0.0134 C   0  0  0  0  0  0  0  0  0  0  0  0
   -3.2193    0.9456   -0.3923 C   0  0  0  0  0  0  0  0  0  0  0  0
   -4.4512    0.5214   -1.1872 C   0  0  0  0  0  0  0  0  0  0  0  0
   -5.3072   -0.3285   -0.4183 O   0  0  0  0  0  0  0  0  0  0  0  0
   -5.5367    0.2040    0.8239 C   0  0  0  0  0  0  0  0  0  0  0  0
   -6.6330   -0.2917    1.5268 C   0  0  0  0  0  0  0  0  0  0  0  0
   -6.9326    0.2135    2.7928 C   0  0  0  0  0  0  0  0  0  0  0  0
   -6.1324    1.2093    3.3552 C   0  0  0  0  0  0  0  0  0  0  0  0
   -5.0244    1.6932    2.6575 C   0  0  0  0  0  0  0  0  0  0  0  0
   -4.7185    1.1814    1.3977 C   0  0  0  0  0  0  0  0  0  0  0  0
   -3.5950    1.6794    0.7904 O   0  0  0  0  0  0  0  0  0  0  0  0
    4.8290    0.5576   -1.6996 C   0  0  0  0  0  0  0  0  0  0  0  0
    6.0604    0.1230   -2.1969 C   0  0  0  0  0  0  0  0  0  0  0  0
    7.8053   -2.1863   -3.0442 H   0  0  0  0  0  0  0  0  0  0  0  0
    8.5744   -2.0103   -1.4475 H   0  0  0  0  0  0  0  0  0  0  0  0
    8.5936   -0.6582   -2.5789 H   0  0  0  0  0  0  0  0  0  0  0  0
    6.5006   -2.6102   -0.2139 H   0  0  0  0  0  0  0  0  0  0  0  0
    4.3381   -1.8526    0.6637 H   0  0  0  0  0  0  0  0  0  0  0  0
    1.0971   -0.3695    2.4209 H   0  0  0  0  0  0  0  0  0  0  0  0
    1.1263    1.1445    1.5136 H   0  0  0  0  0  0  0  0  0  0  0  0
   -1.2024    0.9139    1.3603 H   0  0  0  0  0  0  0  0  0  0  0  0
   -2.0623   -0.8230   -0.9056 H   0  0  0  0  0  0  0  0  0  0  0  0
   -2.8141   -0.9148    0.6974 H   0  0  0  0  0  0  0  0  0  0  0  0
   -2.6355    1.6409   -1.0080 H   0  0  0  0  0  0  0  0  0  0  0  0
   -4.1587   -0.0273   -2.0887 H   0  0  0  0  0  0  0  0  0  0  0  0
   -5.0318    1.3968   -1.5063 H   0  0  0  0  0  0  0  0  0  0  0  0
   -7.2584   -1.0625    1.0850 H   0  0  0  0  0  0  0  0  0  0  0  0
   -7.7922   -0.1671    3.3388 H   0  0  0  0  0  0  0  0  0  0  0  0
   -6.3694    1.6053    4.3396 H   0  0  0  0  0  0  0  0  0  0  0  0
   -4.3973    2.4621    3.0998 H   0  0  0  0  0  0  0  0  0  0  0  0
    4.3601    1.4400   -2.1308 H   0  0  0  0  0  0  0  0  0  0  0  0
    6.5285    0.6732   -3.0106 H   0  0  0  0  0  0  0  0  0  0  0  0
  1  2  1  0
  2  3  2  0
  3  4  1  0
  4  5  2  0
  5  6  1  0
  6  7  2  0
  6  8  1  0
  8  9  1  0
  9 10  1  0
 10 11  2  0
 10 12  1  0
 12 13  1  0
 13 14  1  0
 14 15  1  0
 15 16  1  0
 16 17  1  0
 17 18  2  0
 18 19  1  0
 19 20  2  0
 20 21  1  0
 21 22  2  0
 22 23  1  0
  5 24  1  0
 24 25  2  0
 25  2  1  0
 23 14  1  0
 22 17  1  0
  1 26  1  0
  1 27  1  0
  1 28  1  0
  3 29  1  0
  4 30  1  0
  9 31  1  0
  9 32  1  0
 12 33  1  0
 13 34  1  0
 13 35  1  0
 14 36  1  0
 15 37  1  0
 15 38  1  0
 18 39  1  0
 19 40  1  0
 20 41  1  0
 21 42  1  0
 24 43  1  0
 25 44  1  0
M  END
$$$$
