
     RDKit          3D

 53 56  0  0  0  0  0  0  0  0999 V2000
    2.6415    3.7734    2.4434 C   0  0  0  0  0  0  0  0  0  0  0  0
    3.4248    3.1254    1.4484 O   0  0  0  0  0  0  0  0  0  0  0  0
    3.2264    1.7812    1.2854 C   0  0  0  0  0  0  0  0  0  0  0  0
    3.9753    1.1996    0.2596 C   0  0  0  0  0  0  0  0  0  0  0  0
    3.8686   -0.1661   -0.0173 C   0  0  0  0  0  0  0  0  0  0  0  0
    3.0143   -0.9755    0.7395 C   0  0  0  0  0  0  0  0  0  0  0  0
    2.8487   -2.4384    0.4106 C   0  0  0  0  0  0  0  0  0  0  0  0
    1.7387   -2.6054   -0.5001 N   0  0  0  0  0  0  0  0  0  0  0  0
    0.4900   -3.0106   -0.0614 C   0  0  0  0  0  0  0  0  0  0  0  0
    0.2972   -3.4548    1.0719 O   0  0  0  0  0  0  0  0  0  0  0  0
   -0.6554   -2.8144   -1.0501 C   0  0  0  0  0  0  0  0  0  0  0  0
   -0.3736   -3.5013   -2.3205 C   0  0  0  0  0  0  0  0  0  0  0  0
   -0.1524   -4.0540   -3.3209 N   0  0  0  0  0  0  0  0  0  0  0  0
   -0.8879   -1.3321   -1.2344 C   0  0  0  0  0  0  0  0  0  0  0  0
    0.0703   -0.6388   -1.9234 N   0  0  0  0  0  0  0  0  0  0  0  0
   -0.0897    0.6934   -2.0215 C   0  0  0  0  0  0  0  0  0  0  0  0
    0.8578    1.4520   -2.6976 C   0  0  0  0  0  0  0  0  0  0  0  0
    0.7268    2.8377   -2.8140 C   0  0  0  0  0  0  0  0  0  0  0  0
   -0.3705    3.4751   -2.2442 C   0  0  0  0  0  0  0  0  0  0  0  0
   -1.3261    2.7197   -1.5630 C   0  0  0  0  0  0  0  0  0  0  0  0
   -1.2045    1.3389   -1.4410 C   0  0  0  0  0  0  0  0  0  0  0  0
   -2.1437    0.6476   -0.7672 N   0  0  0  0  0  0  0  0  0  0  0  0
   -1.9917   -0.6929   -0.6503 C   0  0  0  0  0  0  0  0  0  0  0  0
   -2.9257   -1.4248    0.1093 N   0  0  0  0  0  0  0  0  0  0  0  0
   -2.5392   -1.4023    1.5440 C   0  0  0  0  0  0  0  0  0  0  0  0
   -3.8451   -1.1772    2.3015 C   0  0  0  0  0  0  0  0  0  0  0  0
   -4.6191   -0.2809    1.3550 C   0  0  0  0  0  0  0  0  0  0  0  0
   -4.3082   -0.9043   -0.0014 C   0  0  0  0  0  0  0  0  0  0  0  0
    2.2598   -0.3878    1.7633 C   0  0  0  0  0  0  0  0  0  0  0  0
    2.3665    0.9815    2.0375 C   0  0  0  0  0  0  0  0  0  0  0  0
    1.5708    3.6820    2.2255 H   0  0  0  0  0  0  0  0  0  0  0  0
    2.8789    3.3910    3.4402 H   0  0  0  0  0  0  0  0  0  0  0  0
    2.8937    4.8376    2.4288 H   0  0  0  0  0  0  0  0  0  0  0  0
    4.6451    1.8179   -0.3321 H   0  0  0  0  0  0  0  0  0  0  0  0
    4.4519   -0.5887   -0.8308 H   0  0  0  0  0  0  0  0  0  0  0  0
    2.7037   -3.0235    1.3260 H   0  0  0  0  0  0  0  0  0  0  0  0
    3.7457   -2.8225   -0.0884 H   0  0  0  0  0  0  0  0  0  0  0  0
    1.7532   -2.0049   -1.3234 H   0  0  0  0  0  0  0  0  0  0  0  0
   -1.5356   -3.3075   -0.6207 H   0  0  0  0  0  0  0  0  0  0  0  0
    1.7178    0.9534   -3.1422 H   0  0  0  0  0  0  0  0  0  0  0  0
    1.4813    3.4123   -3.3454 H   0  0  0  0  0  0  0  0  0  0  0  0
   -0.4851    4.5546   -2.3258 H   0  0  0  0  0  0  0  0  0  0  0  0
   -2.1850    3.2171   -1.1143 H   0  0  0  0  0  0  0  0  0  0  0  0
   -1.8377   -0.5885    1.7809 H   0  0  0  0  0  0  0  0  0  0  0  0
   -2.0747   -2.3517    1.8356 H   0  0  0  0  0  0  0  0  0  0  0  0
   -3.6857   -0.7239    3.2849 H   0  0  0  0  0  0  0  0  0  0  0  0
   -4.3734   -2.1275    2.4402 H   0  0  0  0  0  0  0  0  0  0  0  0
   -4.2335    0.7433    1.4020 H   0  0  0  0  0  0  0  0  0  0  0  0
   -5.6908   -0.2561    1.5715 H   0  0  0  0  0  0  0  0  0  0  0  0
   -4.4807   -0.2074   -0.8312 H   0  0  0  0  0  0  0  0  0  0  0  0
   -4.9684   -1.7651   -0.1702 H   0  0  0  0  0  0  0  0  0  0  0  0
    1.5736   -0.9958    2.3507 H   0  0  0  0  0  0  0  0  0  0  0  0
    1.7611    1.3901    2.8433 H   0  0  0  0  0  0  0  0  0  0  0  0
  1  2  1  0
  2  3  1  0
  3  4  2  0
  4  5  1  0
  5  6  2  0
  6  7  1  0
  7  8  1  0
  8  9  1  0
  9 10  2  0
  9 11  1  0
 11 12  1  0
 12 13  3  0
 11 14  1  0
 14 15  2  0
 15 16  1  0
 16 17  2  0
 17 18  1  0
 18 19  2  0
 19 20  1  0
 20 21  2  0
 21 22  1  0
 22 23  2  0
 23 24  1  0
 24 25  1  0
 25 26  1  0
 26 27  1  0
 27 28  1  0
  6 29  1  0
 29 30  2  0
 30  3  1  0
 23 14  1  0
 28 24  1  0
 21 16  1  0
  1 31  1  0
  1 32  1  0
  1 33  1  0
  4 34  1  0
  5 35  1  0
  7 36  1  0
  7 37  1  0
  8 38  1  0
 11 39  1  0
 17 40  1  0
 18 41  1  0
 19 42  1  0
 20 43  1  0
 25 44  1  0
 25 45  1  0
 26 46  1  0
 26 47  1  0
 27 48  1  0
 27 49  1  0
 28 50  1  0
 28 51  1  0
 29 52  1  0
 30 53  1  0
M  END
$$$$
