
     RDKit          3D

 38 40  0  0  0  0  0  0  0  0999 V2000
    2.0850   -3.7228   -0.8223 N   0  0  0  0  0  0  0  0  0  0  0  0
    1.6176   -2.7835   -0.3250 C   0  0  0  0  0  0  0  0  0  0  0  0
    1.0466   -1.5965    0.2125 C   0  0  0  0  0  0  0  0  0  0  0  0
    1.6225   -0.3793    0.1459 C   0  0  0  0  0  0  0  0  0  0  0  0
    2.8870   -0.0410   -0.5258 C   0  0  0  0  0  0  0  0  0  0  0  0
    3.1485   -0.4004   -1.8590 C   0  0  0  0  0  0  0  0  0  0  0  0
    4.3529   -0.0402   -2.4757 C   0  0  0  0  0  0  0  0  0  0  0  0
    5.2866    0.6967   -1.7602 C   0  0  0  0  0  0  0  0  0  0  0  0
    6.4803    1.0784   -2.3050 O   0  0  0  0  0  0  0  0  0  0  0  0
    5.0228    1.0756   -0.4478 C   0  0  0  0  0  0  0  0  0  0  0  0
    5.9403    1.8101    0.2476 O   0  0  0  0  0  0  0  0  0  0  0  0
    3.8337    0.7178    0.1741 C   0  0  0  0  0  0  0  0  0  0  0  0
   -0.2280   -1.7427    0.9786 C   0  0  0  0  0  0  0  0  0  0  0  0
   -0.3292   -2.6324    1.8131 O   0  0  0  0  0  0  0  0  0  0  0  0
   -1.2005   -0.8289    0.6055 N   0  0  0  0  0  0  0  0  0  0  0  0
   -2.5078   -0.6728    1.1449 C   0  0  0  0  0  0  0  0  0  0  0  0
   -2.9477   -1.4474    2.2235 C   0  0  0  0  0  0  0  0  0  0  0  0
   -4.2262   -1.2778    2.7434 C   0  0  0  0  0  0  0  0  0  0  0  0
   -5.0779   -0.3281    2.1903 C   0  0  0  0  0  0  0  0  0  0  0  0
   -4.6893    0.4644    1.1253 C   0  0  0  0  0  0  0  0  0  0  0  0
   -5.5862    1.3538    0.6654 N   0  0  0  0  0  0  0  0  0  0  0  0
   -5.2396    2.1404   -0.3710 C   0  0  0  0  0  0  0  0  0  0  0  0
   -4.0108    2.0833   -0.9881 C   0  0  0  0  0  0  0  0  0  0  0  0
   -3.0835    1.1617   -0.5096 C   0  0  0  0  0  0  0  0  0  0  0  0
   -3.3909    0.3067    0.5795 C   0  0  0  0  0  0  0  0  0  0  0  0
    1.1706    0.4628    0.6701 H   0  0  0  0  0  0  0  0  0  0  0  0
    2.4225   -0.9662   -2.4395 H   0  0  0  0  0  0  0  0  0  0  0  0
    4.5356   -0.3412   -3.5025 H   0  0  0  0  0  0  0  0  0  0  0  0
    6.5427    0.6987   -3.1987 H   0  0  0  0  0  0  0  0  0  0  0  0
    6.6866    1.9258   -0.3744 H   0  0  0  0  0  0  0  0  0  0  0  0
    3.6640    1.0267    1.2022 H   0  0  0  0  0  0  0  0  0  0  0  0
   -0.9685   -0.2223   -0.1661 H   0  0  0  0  0  0  0  0  0  0  0  0
   -2.3204   -2.1976    2.6940 H   0  0  0  0  0  0  0  0  0  0  0  0
   -4.5587   -1.8859    3.5811 H   0  0  0  0  0  0  0  0  0  0  0  0
   -6.0763   -0.2022    2.6039 H   0  0  0  0  0  0  0  0  0  0  0  0
   -6.0042    2.8385   -0.6994 H   0  0  0  0  0  0  0  0  0  0  0  0
   -3.7777    2.7373   -1.8207 H   0  0  0  0  0  0  0  0  0  0  0  0
   -2.1225    1.1303   -1.0100 H   0  0  0  0  0  0  0  0  0  0  0  0
  1  2  3  0
  2  3  1  0
  3  4  2  3
  4  5  1  0
  5  6  2  0
  6  7  1  0
  7  8  2  0
  8  9  1  0
  8 10  1  0
 10 11  1  0
 10 12  2  0
  3 13  1  0
 13 14  2  0
 13 15  1  0
 15 16  1  0
 16 17  2  0
 17 18  1  0
 18 19  2  0
 19 20  1  0
 20 21  2  0
 21 22  1  0
 22 23  2  0
 23 24  1  0
 24 25  2  0
 12  5  1  0
 25 16  1  0
 25 20  1  0
  4 26  1  0
  6 27  1  0
  7 28  1  0
  9 29  1  0
 11 30  1  0
 12 31  1  0
 15 32  1  0
 17 33  1  0
 18 34  1  0
 19 35  1  0
 22 36  1  0
 23 37  1  0
 24 38  1  0
M  END
$$$$
