
     RDKit          3D

 47 48  0  0  0  0  0  0  0  0999 V2000
    4.4914   -3.0244   -1.7281 C   0  0  0  0  0  0  0  0  0  0  0  0
    4.4945   -1.6891   -1.0436 C   0  0  0  0  0  0  0  0  0  0  0  0
    3.8821   -0.5830   -1.6414 C   0  0  0  0  0  0  0  0  0  0  0  0
    3.9081    0.6670   -1.0162 C   0  0  0  0  0  0  0  0  0  0  0  0
    4.5528    0.8363    0.2173 C   0  0  0  0  0  0  0  0  0  0  0  0
    4.5821    2.1874    0.8890 C   0  0  0  0  0  0  0  0  0  0  0  0
    3.6950    2.2429    2.4674 S   0  0  0  0  0  0  0  0  0  0  0  0
    2.0429    2.1410    1.9441 C   0  0  0  0  0  0  0  0  0  0  0  0
    1.0311    1.9284    2.7618 N   0  0  0  0  0  0  0  0  0  0  0  0
   -0.1135    1.9255    1.9934 N   0  0  0  0  0  0  0  0  0  0  0  0
    0.2751    2.1555    0.7579 C   0  0  0  0  0  0  0  0  0  0  0  0
   -0.5216    2.2676   -0.4881 C   0  0  0  0  0  0  0  0  0  0  0  0
   -1.9468    2.7516   -0.2153 C   0  0  0  0  0  0  0  0  0  0  0  0
   -2.7683    1.7593    0.4457 N   0  0  0  0  0  0  0  0  0  0  0  0
   -3.3395    0.7202   -0.2239 C   0  0  0  0  0  0  0  0  0  0  0  0
   -3.3276    0.5887   -1.4376 O   0  0  0  0  0  0  0  0  0  0  0  0
   -3.8865   -0.1284    0.6732 O   0  0  0  0  0  0  0  0  0  0  0  0
   -4.5642   -1.3339    0.2365 C   0  0  0  0  0  0  0  0  0  0  0  0
   -3.6056   -2.2810   -0.4947 C   0  0  0  0  0  0  0  0  0  0  0  0
   -5.0288   -2.0128    1.5343 C   0  0  0  0  0  0  0  0  0  0  0  0
   -5.7971   -1.0006   -0.6109 C   0  0  0  0  0  0  0  0  0  0  0  0
    1.6292    2.3163    0.6477 O   0  0  0  0  0  0  0  0  0  0  0  0
    5.1852   -0.2703    0.8018 C   0  0  0  0  0  0  0  0  0  0  0  0
    5.1581   -1.5199    0.1761 C   0  0  0  0  0  0  0  0  0  0  0  0
    4.4491   -3.8360   -0.9945 H   0  0  0  0  0  0  0  0  0  0  0  0
    5.3965   -3.1375   -2.3323 H   0  0  0  0  0  0  0  0  0  0  0  0
    3.6181   -3.1287   -2.3809 H   0  0  0  0  0  0  0  0  0  0  0  0
    3.3778   -0.6881   -2.5999 H   0  0  0  0  0  0  0  0  0  0  0  0
    3.4184    1.5073   -1.5034 H   0  0  0  0  0  0  0  0  0  0  0  0
    5.6288    2.4515    1.0814 H   0  0  0  0  0  0  0  0  0  0  0  0
    4.1941    2.9682    0.2255 H   0  0  0  0  0  0  0  0  0  0  0  0
   -0.0317    2.9838   -1.1583 H   0  0  0  0  0  0  0  0  0  0  0  0
   -0.5320    1.2968   -0.9980 H   0  0  0  0  0  0  0  0  0  0  0  0
   -2.4265    3.0080   -1.1669 H   0  0  0  0  0  0  0  0  0  0  0  0
   -1.9480    3.6483    0.4157 H   0  0  0  0  0  0  0  0  0  0  0  0
   -2.6992    1.6420    1.4499 H   0  0  0  0  0  0  0  0  0  0  0  0
   -2.6893   -2.4338    0.0872 H   0  0  0  0  0  0  0  0  0  0  0  0
   -3.2977   -1.8817   -1.4660 H   0  0  0  0  0  0  0  0  0  0  0  0
   -4.0705   -3.2566   -0.6752 H   0  0  0  0  0  0  0  0  0  0  0  0
   -4.1739   -2.2410    2.1823 H   0  0  0  0  0  0  0  0  0  0  0  0
   -5.6840   -1.3476    2.1103 H   0  0  0  0  0  0  0  0  0  0  0  0
   -5.5697   -2.9443    1.3354 H   0  0  0  0  0  0  0  0  0  0  0  0
   -6.4307   -0.2647   -0.1026 H   0  0  0  0  0  0  0  0  0  0  0  0
   -5.5237   -0.5647   -1.5766 H   0  0  0  0  0  0  0  0  0  0  0  0
   -6.3957   -1.8954   -0.8124 H   0  0  0  0  0  0  0  0  0  0  0  0
    5.7040   -0.1686    1.7532 H   0  0  0  0  0  0  0  0  0  0  0  0
    5.6576   -2.3615    0.6506 H   0  0  0  0  0  0  0  0  0  0  0  0
  1  2  1  0
  2  3  2  0
  3  4  1  0
  4  5  2  0
  5  6  1  0
  6  7  1  0
  7  8  1  0
  8  9  2  0
  9 10  1  0
 10 11  2  0
 11 12  1  0
 12 13  1  0
 13 14  1  0
 14 15  1  0
 15 16  2  0
 15 17  1  0
 17 18  1  0
 18 19  1  0
 18 20  1  0
 18 21  1  0
 11 22  1  0
  5 23  1  0
 23 24  2  0
 24  2  1  0
 22  8  1  0
  1 25  1  0
  1 26  1  0
  1 27  1  0
  3 28  1  0
  4 29  1  0
  6 30  1  0
  6 31  1  0
 12 32  1  0
 12 33  1  0
 13 34  1  0
 13 35  1  0
 14 36  1  0
 19 37  1  0
 19 38  1  0
 19 39  1  0
 20 40  1  0
 20 41  1  0
 20 42  1  0
 21 43  1  0
 21 44  1  0
 21 45  1  0
 23 46  1  0
 24 47  1  0
M  END
$$$$
