
     RDKit          3D

 49 52  0  0  0  0  0  0  0  0999 V2000
    7.0302    1.8409    0.8662 C   0  0  0  0  0  0  0  0  0  0  0  0
    6.7854    0.3657    0.7276 C   0  0  0  0  0  0  0  0  0  0  0  0
    7.8462   -0.4993    0.4182 C   0  0  0  0  0  0  0  0  0  0  0  0
    7.6212   -1.8708    0.2872 C   0  0  0  0  0  0  0  0  0  0  0  0
    8.9349   -2.9177   -0.0896 Cl  0  0  0  0  0  0  0  0  0  0  0  0
    6.3443   -2.3993    0.4624 C   0  0  0  0  0  0  0  0  0  0  0  0
    5.2811   -1.5486    0.7664 C   0  0  0  0  0  0  0  0  0  0  0  0
    5.4959   -0.1701    0.8774 C   0  0  0  0  0  0  0  0  0  0  0  0
    4.4745    0.6859    1.2179 O   0  0  0  0  0  0  0  0  0  0  0  0
    3.3366    0.7162    0.5180 C   0  0  0  0  0  0  0  0  0  0  0  0
    3.1406    0.0695   -0.6113 N   0  0  0  0  0  0  0  0  0  0  0  0
    1.8699    0.3325   -1.0807 C   0  0  0  0  0  0  0  0  0  0  0  0
    1.1034    1.1787   -0.3048 C   0  0  0  0  0  0  0  0  0  0  0  0
   -0.2917    1.6719   -0.5352 C   0  0  0  0  0  0  0  0  0  0  0  0
   -1.2480    1.1364    0.4429 N   0  0  0  0  0  0  0  0  0  0  0  0
   -1.5564   -0.2957    0.2371 C   0  0  0  0  0  0  0  0  0  0  0  0
   -2.8416   -0.6008   -0.5697 C   0  0  0  0  0  0  0  0  0  0  0  0
   -4.0179    0.0561    0.0231 N   0  0  0  0  0  0  0  0  0  0  0  0
   -5.2892   -0.4732   -0.1335 C   0  0  0  0  0  0  0  0  0  0  0  0
   -5.6088   -1.3184   -1.2096 C   0  0  0  0  0  0  0  0  0  0  0  0
   -6.8921   -1.8538   -1.3821 C   0  0  0  0  0  0  0  0  0  0  0  0
   -7.8994   -1.5543   -0.4744 C   0  0  0  0  0  0  0  0  0  0  0  0
   -7.6194   -0.7199    0.6000 C   0  0  0  0  0  0  0  0  0  0  0  0
   -6.3328   -0.1889    0.7626 C   0  0  0  0  0  0  0  0  0  0  0  0
   -3.7513    1.1975    0.9116 C   0  0  0  0  0  0  0  0  0  0  0  0
   -2.4854    1.9503    0.4428 C   0  0  0  0  0  0  0  0  0  0  0  0
    2.0233    1.6794    1.0559 S   0  0  0  0  0  0  0  0  0  0  0  0
    8.0980    2.0770    0.8098 H   0  0  0  0  0  0  0  0  0  0  0  0
    6.5223    2.3849    0.0643 H   0  0  0  0  0  0  0  0  0  0  0  0
    6.6667    2.1992    1.8348 H   0  0  0  0  0  0  0  0  0  0  0  0
    8.8497   -0.1045    0.2769 H   0  0  0  0  0  0  0  0  0  0  0  0
    6.1693   -3.4667    0.3631 H   0  0  0  0  0  0  0  0  0  0  0  0
    4.2862   -1.9633    0.9050 H   0  0  0  0  0  0  0  0  0  0  0  0
    1.5486   -0.1264   -2.0077 H   0  0  0  0  0  0  0  0  0  0  0  0
   -0.6116    1.4373   -1.5589 H   0  0  0  0  0  0  0  0  0  0  0  0
   -0.2639    2.7681   -0.4657 H   0  0  0  0  0  0  0  0  0  0  0  0
   -1.6779   -0.7356    1.2363 H   0  0  0  0  0  0  0  0  0  0  0  0
   -0.7153   -0.8354   -0.2121 H   0  0  0  0  0  0  0  0  0  0  0  0
   -2.7188   -0.2614   -1.6052 H   0  0  0  0  0  0  0  0  0  0  0  0
   -2.9675   -1.6904   -0.5795 H   0  0  0  0  0  0  0  0  0  0  0  0
   -4.8612   -1.5610   -1.9587 H   0  0  0  0  0  0  0  0  0  0  0  0
   -7.0986   -2.4995   -2.2311 H   0  0  0  0  0  0  0  0  0  0  0  0
   -8.8958   -1.9673   -0.6038 H   0  0  0  0  0  0  0  0  0  0  0  0
   -8.3973   -0.4805    1.3196 H   0  0  0  0  0  0  0  0  0  0  0  0
   -6.1596    0.4406    1.6308 H   0  0  0  0  0  0  0  0  0  0  0  0
   -3.6291    0.8488    1.9441 H   0  0  0  0  0  0  0  0  0  0  0  0
   -4.5813    1.9138    0.8876 H   0  0  0  0  0  0  0  0  0  0  0  0
   -2.3273    2.8228    1.0876 H   0  0  0  0  0  0  0  0  0  0  0  0
   -2.6887    2.3292   -0.5692 H   0  0  0  0  0  0  0  0  0  0  0  0
  1  2  1  0
  2  3  2  0
  3  4  1  0
  4  5  1  0
  4  6  2  0
  6  7  1  0
  7  8  2  0
  8  9  1  0
  9 10  1  0
 10 11  2  0
 11 12  1  0
 12 13  2  0
 13 14  1  0
 14 15  1  0
 15 16  1  0
 16 17  1  0
 17 18  1  0
 18 19  1  0
 19 20  2  0
 20 21  1  0
 21 22  2  0
 22 23  1  0
 23 24  2  0
 18 25  1  0
 25 26  1  0
 13 27  1  0
  8  2  1  0
 27 10  1  0
 26 15  1  0
 24 19  1  0
  1 28  1  0
  1 29  1  0
  1 30  1  0
  3 31  1  0
  6 32  1  0
  7 33  1  0
 12 34  1  0
 14 35  1  0
 14 36  1  0
 16 37  1  0
 16 38  1  0
 17 39  1  0
 17 40  1  0
 20 41  1  0
 21 42  1  0
 22 43  1  0
 23 44  1  0
 24 45  1  0
 25 46  1  0
 25 47  1  0
 26 48  1  0
 26 49  1  0
M  END
$$$$
