
     RDKit          3D

 79 86  0  0  0  0  0  0  0  0999 V2000
    2.6623   -5.5748    4.4818 C   0  0  0  0  0  0  0  0  0  0  0  0
    1.8039   -5.2547    3.3962 O   0  0  0  0  0  0  0  0  0  0  0  0
    1.9979   -4.0490    2.7738 C   0  0  0  0  0  0  0  0  0  0  0  0
    3.0241   -3.1417    3.0791 C   0  0  0  0  0  0  0  0  0  0  0  0
    3.1419   -1.9164    2.3980 C   0  0  0  0  0  0  0  0  0  0  0  0
    2.2459   -1.5787    1.3826 C   0  0  0  0  0  0  0  0  0  0  0  0
    1.2258   -2.4870    1.0900 C   0  0  0  0  0  0  0  0  0  0  0  0
    1.0817   -3.7104    1.7719 C   0  0  0  0  0  0  0  0  0  0  0  0
    0.0426   -4.5994    1.4780 O   0  0  0  0  0  0  0  0  0  0  0  0
   -1.1198   -3.9758    1.0640 C   0  0  0  0  0  0  0  0  0  0  0  0
   -1.8965   -3.3157    2.0134 C   0  0  0  0  0  0  0  0  0  0  0  0
   -2.7407   -2.2961    1.5924 C   0  0  0  0  0  0  0  0  0  0  0  0
   -2.7729   -1.9262    0.2377 C   0  0  0  0  0  0  0  0  0  0  0  0
   -2.1604   -2.7526   -0.7173 C   0  0  0  0  0  0  0  0  0  0  0  0
   -1.3466   -3.8066   -0.3035 C   0  0  0  0  0  0  0  0  0  0  0  0
   -3.2975   -0.5555   -0.1568 C   0  0  0  0  0  0  0  0  0  0  0  0
   -2.4647    0.5872    0.5293 C   0  0  0  0  0  0  0  0  0  0  0  0
   -2.3557    1.8358   -0.3348 C   0  0  0  0  0  0  0  0  0  0  0  0
   -3.4664    2.7052   -0.3603 C   0  0  0  0  0  0  0  0  0  0  0  0
   -3.4524    3.8675   -1.1384 C   0  0  0  0  0  0  0  0  0  0  0  0
   -2.3086    4.2069   -1.8593 C   0  0  0  0  0  0  0  0  0  0  0  0
   -2.1807    5.3372   -2.6271 O   0  0  0  0  0  0  0  0  0  0  0  0
   -3.3706    6.0558   -2.9292 C   0  0  0  0  0  0  0  0  0  0  0  0
   -1.1798    3.3716   -1.7883 C   0  0  0  0  0  0  0  0  0  0  0  0
   -1.2004    2.1803   -1.0552 C   0  0  0  0  0  0  0  0  0  0  0  0
   -0.1019    1.3471   -1.0048 O   0  0  0  0  0  0  0  0  0  0  0  0
    1.0389    1.7797   -1.6489 C   0  0  0  0  0  0  0  0  0  0  0  0
    1.0495    2.9903   -2.3423 C   0  0  0  0  0  0  0  0  0  0  0  0
    2.2008    3.4386   -2.9838 C   0  0  0  0  0  0  0  0  0  0  0  0
    3.3531    2.6616   -2.9582 C   0  0  0  0  0  0  0  0  0  0  0  0
    3.3590    1.4267   -2.2934 C   0  0  0  0  0  0  0  0  0  0  0  0
    2.1981    0.9715   -1.6234 C   0  0  0  0  0  0  0  0  0  0  0  0
    2.2009   -0.3910   -0.9308 C   0  0  0  0  0  0  0  0  0  0  0  0
    2.3279   -0.2621    0.6255 C   0  0  0  0  0  0  0  0  0  0  0  0
    3.2362   -1.3240   -1.4523 N   0  0  0  0  0  0  0  0  0  0  0  0
    2.8447   -1.9350   -2.7183 C   0  0  0  0  0  0  0  0  0  0  0  0
    4.5508   -0.6805   -1.5171 C   0  0  0  0  0  0  0  0  0  0  0  0
    4.5918    0.5610   -2.4065 C   0  0  0  0  0  0  0  0  0  0  0  0
   -0.0553    3.7881   -2.4574 O   0  0  0  0  0  0  0  0  0  0  0  0
   -4.6408    2.3559    0.5150 C   0  0  0  0  0  0  0  0  0  0  0  0
   -4.1244    1.8861    1.8847 C   0  0  0  0  0  0  0  0  0  0  0  0
   -3.0351    0.8901    1.8718 N   0  0  0  0  0  0  0  0  0  0  0  0
   -1.9882    1.2365    2.8335 C   0  0  0  0  0  0  0  0  0  0  0  0
    2.5796   -4.8327    5.2835 H   0  0  0  0  0  0  0  0  0  0  0  0
    3.6988   -5.6846    4.1461 H   0  0  0  0  0  0  0  0  0  0  0  0
    2.3421   -6.5396    4.8899 H   0  0  0  0  0  0  0  0  0  0  0  0
    3.7553   -3.3550    3.8539 H   0  0  0  0  0  0  0  0  0  0  0  0
    3.9485   -1.2369    2.6647 H   0  0  0  0  0  0  0  0  0  0  0  0
    0.5284   -2.2215    0.3051 H   0  0  0  0  0  0  0  0  0  0  0  0
   -1.7344   -3.4898    3.0733 H   0  0  0  0  0  0  0  0  0  0  0  0
   -3.2559   -1.7003    2.3428 H   0  0  0  0  0  0  0  0  0  0  0  0
   -2.2107   -2.5096   -1.7759 H   0  0  0  0  0  0  0  0  0  0  0  0
   -0.7556   -4.3599   -1.0285 H   0  0  0  0  0  0  0  0  0  0  0  0
   -3.2466   -0.4491   -1.2488 H   0  0  0  0  0  0  0  0  0  0  0  0
   -4.3613   -0.5037    0.1042 H   0  0  0  0  0  0  0  0  0  0  0  0
   -1.4485    0.1960    0.6717 H   0  0  0  0  0  0  0  0  0  0  0  0
   -4.3276    4.5085   -1.1325 H   0  0  0  0  0  0  0  0  0  0  0  0
   -3.1168    6.8209   -3.6672 H   0  0  0  0  0  0  0  0  0  0  0  0
   -4.1315    5.4051   -3.3735 H   0  0  0  0  0  0  0  0  0  0  0  0
   -3.7565    6.5631   -2.0388 H   0  0  0  0  0  0  0  0  0  0  0  0
    2.1911    4.3846   -3.5180 H   0  0  0  0  0  0  0  0  0  0  0  0
    4.2406    3.0076   -3.4839 H   0  0  0  0  0  0  0  0  0  0  0  0
    1.2253   -0.8441   -1.1469 H   0  0  0  0  0  0  0  0  0  0  0  0
    3.2659    0.2483    0.8820 H   0  0  0  0  0  0  0  0  0  0  0  0
    1.5299    0.3871    1.0116 H   0  0  0  0  0  0  0  0  0  0  0  0
    3.6091   -2.6457   -3.0514 H   0  0  0  0  0  0  0  0  0  0  0  0
    2.6808   -1.2085   -3.5195 H   0  0  0  0  0  0  0  0  0  0  0  0
    1.9224   -2.5133   -2.5895 H   0  0  0  0  0  0  0  0  0  0  0  0
    5.3119   -1.3979   -1.8476 H   0  0  0  0  0  0  0  0  0  0  0  0
    4.8620   -0.3986   -0.5046 H   0  0  0  0  0  0  0  0  0  0  0  0
    4.6904    0.2513   -3.4545 H   0  0  0  0  0  0  0  0  0  0  0  0
    5.4798    1.1512   -2.1483 H   0  0  0  0  0  0  0  0  0  0  0  0
   -5.2445    1.5833    0.0275 H   0  0  0  0  0  0  0  0  0  0  0  0
   -5.2886    3.2278    0.6612 H   0  0  0  0  0  0  0  0  0  0  0  0
   -3.8079    2.7862    2.4343 H   0  0  0  0  0  0  0  0  0  0  0  0
   -4.9631    1.4679    2.4573 H   0  0  0  0  0  0  0  0  0  0  0  0
   -2.4136    1.3727    3.8338 H   0  0  0  0  0  0  0  0  0  0  0  0
   -1.2562    0.4263    2.9198 H   0  0  0  0  0  0  0  0  0  0  0  0
   -1.4611    2.1554    2.5550 H   0  0  0  0  0  0  0  0  0  0  0  0
  1  2  1  0
  2  3  1  0
  3  4  2  0
  4  5  1  0
  5  6  2  0
  6  7  1  0
  7  8  2  0
  8  9  1  0
  9 10  1  0
 10 11  2  0
 11 12  1  0
 12 13  2  0
 13 14  1  0
 14 15  2  0
 13 16  1  0
 16 17  1  0
 17 18  1  0
 18 19  2  0
 19 20  1  0
 20 21  2  0
 21 22  1  0
 22 23  1  0
 21 24  1  0
 24 25  2  0
 25 26  1  0
 26 27  1  0
 27 28  2  0
 28 29  1  0
 29 30  2  0
 30 31  1  0
 31 32  2  0
 32 33  1  0
 33 34  1  0
 33 35  1  0
 35 36  1  0
 35 37  1  0
 37 38  1  0
 28 39  1  0
 19 40  1  0
 40 41  1  0
 41 42  1  0
 42 43  1  0
  8  3  1  0
 15 10  1  0
 42 17  1  0
 34  6  1  0
 25 18  1  0
 32 27  1  0
 39 24  1  0
 38 31  1  0
  1 44  1  0
  1 45  1  0
  1 46  1  0
  4 47  1  0
  5 48  1  0
  7 49  1  0
 11 50  1  0
 12 51  1  0
 14 52  1  0
 15 53  1  0
 16 54  1  0
 16 55  1  0
 17 56  1  0
 20 57  1  0
 23 58  1  0
 23 59  1  0
 23 60  1  0
 29 61  1  0
 30 62  1  0
 33 63  1  0
 34 64  1  0
 34 65  1  0
 36 66  1  0
 36 67  1  0
 36 68  1  0
 37 69  1  0
 37 70  1  0
 38 71  1  0
 38 72  1  0
 40 73  1  0
 40 74  1  0
 41 75  1  0
 41 76  1  0
 43 77  1  0
 43 78  1  0
 43 79  1  0
M  END
$$$$
