
     RDKit          3D

 50 53  0  0  0  0  0  0  0  0999 V2000
    7.5738    1.8267    1.0234 C   0  0  0  0  0  0  0  0  0  0  0  0
    6.8075    0.6359    0.8912 O   0  0  0  0  0  0  0  0  0  0  0  0
    5.5094    0.7799    0.4887 C   0  0  0  0  0  0  0  0  0  0  0  0
    4.8637    1.9799    0.2077 C   0  0  0  0  0  0  0  0  0  0  0  0
    3.5224    1.9781   -0.1979 C   0  0  0  0  0  0  0  0  0  0  0  0
    2.7991    0.7776   -0.3209 C   0  0  0  0  0  0  0  0  0  0  0  0
    1.4318    0.8392   -0.7376 N   0  0  0  0  0  0  0  0  0  0  0  0
    0.9416    2.0276   -1.2027 N   0  0  0  0  0  0  0  0  0  0  0  0
   -0.2937    1.7677   -1.6203 C   0  0  0  0  0  0  0  0  0  0  0  0
   -0.6738    0.4479   -1.3607 C   0  0  0  0  0  0  0  0  0  0  0  0
    0.4344   -0.1302   -0.7661 C   0  0  0  0  0  0  0  0  0  0  0  0
    0.4891   -1.5387   -0.2728 C   0  0  0  0  0  0  0  0  0  0  0  0
   -0.9364   -2.1602   -0.1410 C   0  0  0  0  0  0  0  0  0  0  0  0
   -0.8034   -3.6970   -0.1208 C   0  0  0  0  0  0  0  0  0  0  0  0
   -1.5762   -1.7328    1.1954 C   0  0  0  0  0  0  0  0  0  0  0  0
   -1.8333   -1.7625   -1.3565 C   0  0  0  0  0  0  0  0  0  0  0  0
   -1.9707   -0.2405   -1.6044 C   0  0  0  0  0  0  0  0  0  0  0  0
   -2.9602    0.3730   -0.7445 N   0  0  0  0  0  0  0  0  0  0  0  0
   -4.3074    0.2317   -0.9784 C   0  0  0  0  0  0  0  0  0  0  0  0
   -4.7529   -0.3726   -1.9481 O   0  0  0  0  0  0  0  0  0  0  0  0
   -5.1765    0.8432    0.0114 C   0  0  0  0  0  0  0  0  0  0  0  0
   -6.5913    0.8109    0.0217 C   0  0  0  0  0  0  0  0  0  0  0  0
   -7.1198    1.4627    1.0606 N   0  0  0  0  0  0  0  0  0  0  0  0
   -6.0485    1.9233    1.7213 N   0  0  0  0  0  0  0  0  0  0  0  0
   -4.8610    1.5799    1.1387 C   0  0  0  0  0  0  0  0  0  0  0  0
    3.4605   -0.4228   -0.0523 C   0  0  0  0  0  0  0  0  0  0  0  0
    4.8023   -0.4153    0.3531 C   0  0  0  0  0  0  0  0  0  0  0  0
    7.6640    2.3470    0.0641 H   0  0  0  0  0  0  0  0  0  0  0  0
    7.1531    2.4833    1.7922 H   0  0  0  0  0  0  0  0  0  0  0  0
    8.5808    1.5422    1.3436 H   0  0  0  0  0  0  0  0  0  0  0  0
    5.3675    2.9371    0.2901 H   0  0  0  0  0  0  0  0  0  0  0  0
    3.0505    2.9371   -0.4090 H   0  0  0  0  0  0  0  0  0  0  0  0
   -0.8732    2.5623   -2.0738 H   0  0  0  0  0  0  0  0  0  0  0  0
    0.9921   -1.5932    0.6990 H   0  0  0  0  0  0  0  0  0  0  0  0
    1.0692   -2.1261   -0.9957 H   0  0  0  0  0  0  0  0  0  0  0  0
   -0.3669   -4.0706   -1.0540 H   0  0  0  0  0  0  0  0  0  0  0  0
   -0.1596   -4.0281    0.7019 H   0  0  0  0  0  0  0  0  0  0  0  0
   -1.7808   -4.1764    0.0042 H   0  0  0  0  0  0  0  0  0  0  0  0
   -1.5618   -0.6490    1.3379 H   0  0  0  0  0  0  0  0  0  0  0  0
   -1.0351   -2.1671    2.0443 H   0  0  0  0  0  0  0  0  0  0  0  0
   -2.6164   -2.0709    1.2605 H   0  0  0  0  0  0  0  0  0  0  0  0
   -2.8235   -2.2251   -1.2585 H   0  0  0  0  0  0  0  0  0  0  0  0
   -1.3821   -2.2007   -2.2589 H   0  0  0  0  0  0  0  0  0  0  0  0
   -2.2858   -0.0834   -2.6435 H   0  0  0  0  0  0  0  0  0  0  0  0
   -2.6483    0.8240    0.1019 H   0  0  0  0  0  0  0  0  0  0  0  0
   -7.2500    0.3328   -0.6937 H   0  0  0  0  0  0  0  0  0  0  0  0
   -6.2024    2.4674    2.5646 H   0  0  0  0  0  0  0  0  0  0  0  0
   -3.9254    1.8948    1.5766 H   0  0  0  0  0  0  0  0  0  0  0  0
    2.9977   -1.3918   -0.1747 H   0  0  0  0  0  0  0  0  0  0  0  0
    5.3059   -1.3583    0.5558 H   0  0  0  0  0  0  0  0  0  0  0  0
  1  2  1  0
  2  3  1  0
  3  4  2  0
  4  5  1  0
  5  6  2  0
  6  7  1  0
  7  8  1  0
  8  9  2  0
  9 10  1  0
 10 11  2  0
 11 12  1  0
 12 13  1  0
 13 14  1  0
 13 15  1  0
 13 16  1  0
 16 17  1  0
 17 18  1  0
 18 19  1  0
 19 20  2  0
 19 21  1  0
 21 22  1  0
 22 23  2  0
 23 24  1  0
 24 25  1  0
  6 26  1  0
 26 27  2  0
 27  3  1  0
 11  7  1  0
 25 21  2  0
 17 10  1  0
  1 28  1  0
  1 29  1  0
  1 30  1  0
  4 31  1  0
  5 32  1  0
  9 33  1  0
 12 34  1  0
 12 35  1  0
 14 36  1  0
 14 37  1  0
 14 38  1  0
 15 39  1  0
 15 40  1  0
 15 41  1  0
 16 42  1  0
 16 43  1  0
 17 44  1  0
 18 45  1  0
 22 46  1  0
 24 47  1  0
 25 48  1  0
 26 49  1  0
 27 50  1  0
M  END
$$$$
