
     RDKit          3D

 29 31  0  0  0  0  0  0  0  0999 V2000
   -0.0098    2.4079   -0.1766 O   0  0  0  0  0  0  0  0  0  0  0  0
    0.2700    1.2136   -0.1585 C   0  0  0  0  0  0  0  0  0  0  0  0
   -0.6214    0.1801    0.0917 N   0  0  0  0  0  0  0  0  0  0  0  0
   -1.9285    0.4718    0.3624 N   0  0  0  0  0  0  0  0  0  0  0  0
   -2.7176   -0.5428    0.5237 C   0  0  0  0  0  0  0  0  0  0  0  0
   -4.1160   -0.3459    0.8118 C   0  0  0  0  0  0  0  0  0  0  0  0
   -4.8139    0.8366    0.9549 C   0  0  0  0  0  0  0  0  0  0  0  0
   -6.1932    0.6186    1.2393 C   0  0  0  0  0  0  0  0  0  0  0  0
   -6.4994   -0.7226    1.3030 C   0  0  0  0  0  0  0  0  0  0  0  0
   -5.1288   -1.7075    1.0210 S   0  0  0  0  0  0  0  0  0  0  0  0
    1.6661    0.7934   -0.4622 C   0  0  0  0  0  0  0  0  0  0  0  0
    2.4264    1.5979   -1.3415 C   0  0  0  0  0  0  0  0  0  0  0  0
    3.7431    1.2565   -1.6666 C   0  0  0  0  0  0  0  0  0  0  0  0
    4.2674    0.1197   -1.0919 C   0  0  0  0  0  0  0  0  0  0  0  0
    3.5356   -0.6571   -0.2237 C   0  0  0  0  0  0  0  0  0  0  0  0
    2.2351   -0.3492    0.1186 C   0  0  0  0  0  0  0  0  0  0  0  0
    4.2422   -1.7236    0.2385 O   0  0  0  0  0  0  0  0  0  0  0  0
    5.5063   -1.5239   -0.4305 C   0  0  0  0  0  0  0  0  0  0  0  0
    5.5231   -0.3628   -1.2864 O   0  0  0  0  0  0  0  0  0  0  0  0
   -0.3459   -0.7862   -0.0357 H   0  0  0  0  0  0  0  0  0  0  0  0
   -2.3441   -1.5801    0.4462 H   0  0  0  0  0  0  0  0  0  0  0  0
   -4.3503    1.8129    0.8588 H   0  0  0  0  0  0  0  0  0  0  0  0
   -6.9214    1.4066    1.3889 H   0  0  0  0  0  0  0  0  0  0  0  0
   -7.4624   -1.1730    1.5016 H   0  0  0  0  0  0  0  0  0  0  0  0
    1.9832    2.4953   -1.7721 H   0  0  0  0  0  0  0  0  0  0  0  0
    4.3317    1.8675   -2.3418 H   0  0  0  0  0  0  0  0  0  0  0  0
    1.7075   -0.9649    0.8368 H   0  0  0  0  0  0  0  0  0  0  0  0
    6.2905   -1.4134    0.3273 H   0  0  0  0  0  0  0  0  0  0  0  0
    5.7249   -2.4101   -1.0372 H   0  0  0  0  0  0  0  0  0  0  0  0
  1  2  2  0
  2  3  1  0
  3  4  1  0
  4  5  2  3
  5  6  1  0
  6  7  2  0
  7  8  1  0
  8  9  2  0
  9 10  1  0
  2 11  1  0
 11 12  2  0
 12 13  1  0
 13 14  2  0
 14 15  1  0
 15 16  2  0
 15 17  1  0
 17 18  1  0
 18 19  1  0
 10  6  1  0
 16 11  1  0
 19 14  1  0
  3 20  1  0
  5 21  1  0
  7 22  1  0
  8 23  1  0
  9 24  1  0
 12 25  1  0
 13 26  1  0
 16 27  1  0
 18 28  1  0
 18 29  1  0
M  END
$$$$
