
     RDKit          3D

 51 53  0  0  0  0  0  0  0  0999 V2000
    1.9523   -0.8902    2.8550 O   0  0  0  0  0  0  0  0  0  0  0  0
    1.9688   -0.7643    1.6355 C   0  0  0  0  0  0  0  0  0  0  0  0
    3.1299   -0.6413    0.9068 N   0  0  0  0  0  0  0  0  0  0  0  0
    4.4384   -0.7961    1.5198 C   0  0  0  0  0  0  0  0  0  0  0  0
    5.5354   -0.1182    0.6992 C   0  0  0  0  0  0  0  0  0  0  0  0
    5.4447    1.3989    0.6555 C   0  0  0  0  0  0  0  0  0  0  0  0
    6.1954    1.7051   -0.6164 C   0  0  0  0  0  0  0  0  0  0  0  0
    5.7657    0.5682   -1.5196 C   0  0  0  0  0  0  0  0  0  0  0  0
    5.4816   -0.5597   -0.6756 O   0  0  0  0  0  0  0  0  0  0  0  0
    0.7094   -0.7353    0.7832 C   0  0  0  0  0  0  0  0  0  0  0  0
    0.6152   -2.0044   -0.0792 C   0  0  0  0  0  0  0  0  0  0  0  0
   -0.8222   -2.4966   -0.2401 C   0  0  0  0  0  0  0  0  0  0  0  0
   -1.7880   -1.3266   -0.3717 C   0  0  0  0  0  0  0  0  0  0  0  0
   -1.7764   -0.4727    0.8504 N   0  0  0  0  0  0  0  0  0  0  0  0
   -2.3400    1.1282    0.6320 S   0  0  0  0  0  6  0  0  0  0  0  0
   -2.4392    1.7671    1.9259 O   0  0  0  0  0  0  0  0  0  0  0  0
   -1.5600    1.7161   -0.4376 O   0  0  0  0  0  0  0  0  0  0  0  0
   -3.9985    0.8775    0.0440 C   0  0  0  0  0  0  0  0  0  0  0  0
   -4.9592    0.3798    0.9280 C   0  0  0  0  0  0  0  0  0  0  0  0
   -6.2657    0.1878    0.4837 C   0  0  0  0  0  0  0  0  0  0  0  0
   -6.6083    0.4950   -0.8359 C   0  0  0  0  0  0  0  0  0  0  0  0
   -5.6478    0.9966   -1.7309 C   0  0  0  0  0  0  0  0  0  0  0  0
   -6.0235    1.3503   -3.1502 C   0  0  0  0  0  0  0  0  0  0  0  0
   -5.0523    1.0211   -4.0470 F   0  0  0  0  0  0  0  0  0  0  0  0
   -6.2492    2.6821   -3.3112 F   0  0  0  0  0  0  0  0  0  0  0  0
   -7.1527    0.7217   -3.5807 F   0  0  0  0  0  0  0  0  0  0  0  0
   -4.3343    1.1966   -1.2758 C   0  0  0  0  0  0  0  0  0  0  0  0
   -0.5244   -0.5755    1.6696 C   0  0  0  0  0  0  0  0  0  0  0  0
    3.1013   -0.7595   -0.0998 H   0  0  0  0  0  0  0  0  0  0  0  0
    4.4210   -0.4122    2.5452 H   0  0  0  0  0  0  0  0  0  0  0  0
    4.6221   -1.8756    1.5618 H   0  0  0  0  0  0  0  0  0  0  0  0
    6.5148   -0.4164    1.0940 H   0  0  0  0  0  0  0  0  0  0  0  0
    5.8781    1.8747    1.5395 H   0  0  0  0  0  0  0  0  0  0  0  0
    4.4067    1.7378    0.5577 H   0  0  0  0  0  0  0  0  0  0  0  0
    7.2750    1.6498   -0.4336 H   0  0  0  0  0  0  0  0  0  0  0  0
    5.9704    2.6897   -1.0342 H   0  0  0  0  0  0  0  0  0  0  0  0
    4.8458    0.8172   -2.0592 H   0  0  0  0  0  0  0  0  0  0  0  0
    6.5352    0.2975   -2.2481 H   0  0  0  0  0  0  0  0  0  0  0  0
    0.7793    0.1404    0.1237 H   0  0  0  0  0  0  0  0  0  0  0  0
    1.2244   -2.8192    0.3313 H   0  0  0  0  0  0  0  0  0  0  0  0
    1.0340   -1.7845   -1.0698 H   0  0  0  0  0  0  0  0  0  0  0  0
   -0.8916   -3.1455   -1.1205 H   0  0  0  0  0  0  0  0  0  0  0  0
   -1.0993   -3.1105    0.6261 H   0  0  0  0  0  0  0  0  0  0  0  0
   -1.5232   -0.7414   -1.2592 H   0  0  0  0  0  0  0  0  0  0  0  0
   -2.8016   -1.7175   -0.5110 H   0  0  0  0  0  0  0  0  0  0  0  0
   -4.6933    0.1472    1.9576 H   0  0  0  0  0  0  0  0  0  0  0  0
   -7.0205   -0.1958    1.1669 H   0  0  0  0  0  0  0  0  0  0  0  0
   -7.6364    0.3441   -1.1648 H   0  0  0  0  0  0  0  0  0  0  0  0
   -3.5816    1.6014   -1.9519 H   0  0  0  0  0  0  0  0  0  0  0  0
   -0.4154    0.2982    2.3223 H   0  0  0  0  0  0  0  0  0  0  0  0
   -0.6401   -1.4309    2.3482 H   0  0  0  0  0  0  0  0  0  0  0  0
  1  2  2  0
  2  3  1  0
  3  4  1  0
  4  5  1  0
  5  6  1  0
  6  7  1  0
  7  8  1  0
  8  9  1  0
  2 10  1  0
 10 11  1  0
 11 12  1  0
 12 13  1  0
 13 14  1  0
 14 15  1  0
 15 16  2  0
 15 17  2  0
 15 18  1  0
 18 19  2  0
 19 20  1  0
 20 21  2  0
 21 22  1  0
 22 23  1  0
 23 24  1  0
 23 25  1  0
 23 26  1  0
 22 27  2  0
 14 28  1  0
  9  5  1  0
 28 10  1  0
 27 18  1  0
  3 29  1  0
  4 30  1  0
  4 31  1  0
  5 32  1  0
  6 33  1  0
  6 34  1  0
  7 35  1  0
  7 36  1  0
  8 37  1  0
  8 38  1  0
 10 39  1  0
 11 40  1  0
 11 41  1  0
 12 42  1  0
 12 43  1  0
 13 44  1  0
 13 45  1  0
 19 46  1  0
 20 47  1  0
 21 48  1  0
 27 49  1  0
 28 50  1  0
 28 51  1  0
M  END
$$$$
