
     RDKit          3D

 40 42  0  0  0  0  0  0  0  0999 V2000
   -4.0627   -2.2420   -0.9114 C   0  0  0  0  0  0  0  0  0  0  0  0
   -3.2922   -1.1018   -1.2650 O   0  0  0  0  0  0  0  0  0  0  0  0
   -3.5974    0.0868   -0.6537 C   0  0  0  0  0  0  0  0  0  0  0  0
   -4.7010    0.2908    0.1809 C   0  0  0  0  0  0  0  0  0  0  0  0
   -4.9319    1.5445    0.7546 C   0  0  0  0  0  0  0  0  0  0  0  0
   -4.0662    2.6045    0.4978 C   0  0  0  0  0  0  0  0  0  0  0  0
   -2.9645    2.4147   -0.3347 C   0  0  0  0  0  0  0  0  0  0  0  0
   -2.7219    1.1608   -0.9123 C   0  0  0  0  0  0  0  0  0  0  0  0
   -1.5419    1.0149   -1.7761 C   0  0  0  0  0  0  0  0  0  0  0  0
   -0.4021    0.3837   -1.4574 C   0  0  0  0  0  0  0  0  0  0  0  0
   -0.1556   -0.2461   -0.1329 C   0  0  0  0  0  0  0  0  0  0  0  0
    0.8803   -0.9120    0.2777 N   0  0  0  0  0  0  0  0  0  0  0  0
    1.8568   -1.1890   -0.6357 N   0  0  0  0  0  0  0  0  0  0  0  0
    3.1892   -1.0658   -0.3428 C   0  0  0  0  0  0  0  0  0  0  0  0
    3.6569   -0.2098    0.7510 C   0  0  0  0  0  0  0  0  0  0  0  0
    4.3450   -0.8336    1.8012 C   0  0  0  0  0  0  0  0  0  0  0  0
    4.8065   -0.0759    2.8785 C   0  0  0  0  0  0  0  0  0  0  0  0
    4.5893    1.3010    2.8971 C   0  0  0  0  0  0  0  0  0  0  0  0
    5.1590    2.2347    4.2251 Cl  0  0  0  0  0  0  0  0  0  0  0  0
    3.9246    1.9307    1.8451 C   0  0  0  0  0  0  0  0  0  0  0  0
    3.4610    1.1754    0.7637 C   0  0  0  0  0  0  0  0  0  0  0  0
    2.7209    2.0242   -0.5452 Cl  0  0  0  0  0  0  0  0  0  0  0  0
    3.9844   -1.7990   -1.0743 N   0  0  0  0  0  0  0  0  0  0  0  0
    3.1341   -2.4884   -1.8978 N   0  0  0  0  0  0  0  0  0  0  0  0
    1.8060   -2.2251   -1.5568 C   0  0  0  0  0  0  0  0  0  0  0  0
    0.5260   -3.0918   -2.1626 S   0  0  0  0  0  0  0  0  0  0  0  0
   -4.0059   -2.4415    0.1639 H   0  0  0  0  0  0  0  0  0  0  0  0
   -3.6397   -3.1061   -1.4328 H   0  0  0  0  0  0  0  0  0  0  0  0
   -5.1011   -2.1309   -1.2396 H   0  0  0  0  0  0  0  0  0  0  0  0
   -5.4053   -0.5045    0.4013 H   0  0  0  0  0  0  0  0  0  0  0  0
   -5.7933    1.6931    1.4014 H   0  0  0  0  0  0  0  0  0  0  0  0
   -4.2496    3.5786    0.9441 H   0  0  0  0  0  0  0  0  0  0  0  0
   -2.2940    3.2491   -0.5283 H   0  0  0  0  0  0  0  0  0  0  0  0
   -1.6460    1.4589   -2.7633 H   0  0  0  0  0  0  0  0  0  0  0  0
    0.3969    0.3320   -2.1872 H   0  0  0  0  0  0  0  0  0  0  0  0
   -0.9453   -0.0897    0.6202 H   0  0  0  0  0  0  0  0  0  0  0  0
    4.5130   -1.9089    1.7846 H   0  0  0  0  0  0  0  0  0  0  0  0
    5.3324   -0.5637    3.6957 H   0  0  0  0  0  0  0  0  0  0  0  0
    3.7786    3.0077    1.8631 H   0  0  0  0  0  0  0  0  0  0  0  0
    3.4567   -3.2605   -2.4690 H   0  0  0  0  0  0  0  0  0  0  0  0
  1  2  1  0
  2  3  1  0
  3  4  2  0
  4  5  1  0
  5  6  2  0
  6  7  1  0
  7  8  2  0
  8  9  1  0
  9 10  2  3
 10 11  1  0
 11 12  2  3
 12 13  1  0
 13 14  1  0
 14 15  1  0
 15 16  2  0
 16 17  1  0
 17 18  2  0
 18 19  1  0
 18 20  1  0
 20 21  2  0
 21 22  1  0
 14 23  2  0
 23 24  1  0
 24 25  1  0
 25 26  2  0
  8  3  1  0
 25 13  1  0
 21 15  1  0
  1 27  1  0
  1 28  1  0
  1 29  1  0
  4 30  1  0
  5 31  1  0
  6 32  1  0
  7 33  1  0
  9 34  1  0
 10 35  1  0
 11 36  1  0
 16 37  1  0
 17 38  1  0
 20 39  1  0
 24 40  1  0
M  END
$$$$
