
     RDKit          3D

 52 55  0  0  0  0  0  0  0  0999 V2000
    8.1262   -1.0773   -0.0392 C   0  0  0  0  0  0  0  0  0  0  0  0
    7.1100   -1.8424   -0.6751 O   0  0  0  0  0  0  0  0  0  0  0  0
    5.8162   -1.4921   -0.4061 C   0  0  0  0  0  0  0  0  0  0  0  0
    4.8534   -2.2666   -1.0535 C   0  0  0  0  0  0  0  0  0  0  0  0
    3.4911   -2.0139   -0.8654 C   0  0  0  0  0  0  0  0  0  0  0  0
    3.0705   -0.9796   -0.0240 C   0  0  0  0  0  0  0  0  0  0  0  0
    1.6861   -0.7870    0.1157 N   0  0  0  0  0  0  0  0  0  0  0  0
    1.0212    0.1620    0.8710 C   0  0  0  0  0  0  0  0  0  0  0  0
    1.5295    1.0181    1.5901 O   0  0  0  0  0  0  0  0  0  0  0  0
   -0.5062    0.0218    0.7624 C   0  0  0  0  0  0  0  0  0  0  0  0
   -0.8870   -1.0203   -0.1396 O   0  0  0  0  0  0  0  0  0  0  0  0
   -2.2903   -1.2158   -0.1792 C   0  0  0  0  0  0  0  0  0  0  0  0
   -2.8232   -1.6677    1.0623 O   0  0  0  0  0  0  0  0  0  0  0  0
   -4.2216   -1.3567    0.9756 C   0  0  0  0  0  0  0  0  0  0  0  0
   -4.9970   -2.5964    0.5364 C   0  0  0  0  0  0  0  0  0  0  0  0
   -4.7031   -0.8785    2.3392 C   0  0  0  0  0  0  0  0  0  0  0  0
   -4.4257   -0.3219   -0.0004 O   0  0  0  0  0  0  0  0  0  0  0  0
   -3.1134    0.0174   -0.4935 C   0  0  0  0  0  0  0  0  0  0  0  0
   -2.6115    1.2918    0.2053 C   0  0  0  0  0  0  0  0  0  0  0  0
   -2.9167    2.4400   -0.6164 O   0  0  0  0  0  0  0  0  0  0  0  0
   -1.7129    2.7232   -1.3493 C   0  0  0  0  0  0  0  0  0  0  0  0
   -1.9692    2.5882   -2.8446 C   0  0  0  0  0  0  0  0  0  0  0  0
   -1.2563    4.1408   -1.0114 C   0  0  0  0  0  0  0  0  0  0  0  0
   -0.7056    1.7774   -0.9609 O   0  0  0  0  0  0  0  0  0  0  0  0
   -1.1090    1.3582    0.3524 C   0  0  0  0  0  0  0  0  0  0  0  0
    4.0344   -0.2062    0.6225 C   0  0  0  0  0  0  0  0  0  0  0  0
    5.4007   -0.4602    0.4331 C   0  0  0  0  0  0  0  0  0  0  0  0
    8.0675   -1.1708    1.0503 H   0  0  0  0  0  0  0  0  0  0  0  0
    9.0938   -1.4785   -0.3557 H   0  0  0  0  0  0  0  0  0  0  0  0
    8.0834   -0.0281   -0.3497 H   0  0  0  0  0  0  0  0  0  0  0  0
    5.1657   -3.0742   -1.7108 H   0  0  0  0  0  0  0  0  0  0  0  0
    2.7699   -2.6376   -1.3865 H   0  0  0  0  0  0  0  0  0  0  0  0
    1.0708   -1.4010   -0.4125 H   0  0  0  0  0  0  0  0  0  0  0  0
   -0.8443   -0.2536    1.7702 H   0  0  0  0  0  0  0  0  0  0  0  0
   -2.4852   -1.9983   -0.9220 H   0  0  0  0  0  0  0  0  0  0  0  0
   -4.6726   -2.9300   -0.4556 H   0  0  0  0  0  0  0  0  0  0  0  0
   -6.0700   -2.3884    0.4677 H   0  0  0  0  0  0  0  0  0  0  0  0
   -4.8352   -3.4307    1.2270 H   0  0  0  0  0  0  0  0  0  0  0  0
   -5.7548   -0.5755    2.3062 H   0  0  0  0  0  0  0  0  0  0  0  0
   -4.1258   -0.0103    2.6738 H   0  0  0  0  0  0  0  0  0  0  0  0
   -4.5760   -1.6563    3.0997 H   0  0  0  0  0  0  0  0  0  0  0  0
   -3.1890    0.1718   -1.5734 H   0  0  0  0  0  0  0  0  0  0  0  0
   -3.1106    1.4316    1.1687 H   0  0  0  0  0  0  0  0  0  0  0  0
   -2.2583    1.5644   -3.1025 H   0  0  0  0  0  0  0  0  0  0  0  0
   -2.7818    3.2462   -3.1696 H   0  0  0  0  0  0  0  0  0  0  0  0
   -1.0676    2.8172   -3.4227 H   0  0  0  0  0  0  0  0  0  0  0  0
   -0.3063    4.3780   -1.5015 H   0  0  0  0  0  0  0  0  0  0  0  0
   -1.1029    4.2600    0.0667 H   0  0  0  0  0  0  0  0  0  0  0  0
   -2.0088    4.8792   -1.3082 H   0  0  0  0  0  0  0  0  0  0  0  0
   -0.8192    2.1481    1.0567 H   0  0  0  0  0  0  0  0  0  0  0  0
    3.7584    0.6087    1.2845 H   0  0  0  0  0  0  0  0  0  0  0  0
    6.1084    0.1715    0.9595 H   0  0  0  0  0  0  0  0  0  0  0  0
  1  2  1  0
  2  3  1  0
  3  4  2  0
  4  5  1  0
  5  6  2  0
  6  7  1  0
  7  8  1  0
  8  9  2  0
  8 10  1  0
 10 11  1  0
 11 12  1  0
 12 13  1  0
 13 14  1  0
 14 15  1  0
 14 16  1  0
 14 17  1  0
 17 18  1  0
 18 19  1  0
 19 20  1  0
 20 21  1  0
 21 22  1  0
 21 23  1  0
 21 24  1  0
 24 25  1  0
  6 26  1  0
 26 27  2  0
 27  3  1  0
 25 10  1  0
 18 12  1  0
 25 19  1  0
  1 28  1  0
  1 29  1  0
  1 30  1  0
  4 31  1  0
  5 32  1  0
  7 33  1  0
 10 34  1  0
 12 35  1  0
 15 36  1  0
 15 37  1  0
 15 38  1  0
 16 39  1  0
 16 40  1  0
 16 41  1  0
 18 42  1  0
 19 43  1  0
 22 44  1  0
 22 45  1  0
 22 46  1  0
 23 47  1  0
 23 48  1  0
 23 49  1  0
 25 50  1  0
 26 51  1  0
 27 52  1  0
M  END
$$$$
