
     RDKit          3D

 49 52  0  0  0  0  0  0  0  0999 V2000
   -3.2055   -5.0983   -0.8979 C   0  0  0  0  0  0  0  0  0  0  0  0
   -3.0844   -4.2054   -1.9975 O   0  0  0  0  0  0  0  0  0  0  0  0
   -2.4865   -3.0003   -1.7510 C   0  0  0  0  0  0  0  0  0  0  0  0
   -1.9982   -2.5618   -0.5214 C   0  0  0  0  0  0  0  0  0  0  0  0
   -1.4068   -1.2974   -0.4075 C   0  0  0  0  0  0  0  0  0  0  0  0
   -1.2872   -0.4506   -1.5213 C   0  0  0  0  0  0  0  0  0  0  0  0
   -0.6561    0.9406   -1.4079 C   0  0  0  0  0  0  0  0  0  0  0  0
    0.6661    0.8404   -0.7511 N   0  0  0  0  0  0  0  0  0  0  0  0
    0.7652    1.2745    0.4574 C   0  0  0  0  0  0  0  0  0  0  0  0
    1.8851    1.2149    1.2488 N   0  0  0  0  0  0  0  0  0  0  0  0
    3.0993    0.5427    0.9956 C   0  0  0  0  0  0  0  0  0  0  0  0
    4.2268    0.8765    1.7641 C   0  0  0  0  0  0  0  0  0  0  0  0
    5.4530    0.2272    1.5803 C   0  0  0  0  0  0  0  0  0  0  0  0
    5.5832   -0.7779    0.6201 C   0  0  0  0  0  0  0  0  0  0  0  0
    6.8848   -1.4997    0.4393 C   0  0  0  0  0  0  0  0  0  0  0  0
    4.4603   -1.1410   -0.1270 C   0  0  0  0  0  0  0  0  0  0  0  0
    3.2357   -0.4882    0.0611 C   0  0  0  0  0  0  0  0  0  0  0  0
   -0.2813    1.8738    1.0845 N   0  0  0  0  0  0  0  0  0  0  0  0
   -1.4365    2.2623    0.4918 C   0  0  0  0  0  0  0  0  0  0  0  0
   -2.2988    2.9792    1.1479 N   0  0  0  0  0  0  0  0  0  0  0  0
   -3.4210    3.3939    0.4766 C   0  0  0  0  0  0  0  0  0  0  0  0
   -4.4030    4.1856    1.2918 C   0  0  0  0  0  0  0  0  0  0  0  0
   -3.6417    3.1412   -0.8185 C   0  0  0  0  0  0  0  0  0  0  0  0
   -2.6501    2.3487   -1.5632 C   0  0  0  0  0  0  0  0  0  0  0  0
   -2.8197    2.1557   -2.7637 O   0  0  0  0  0  0  0  0  0  0  0  0
   -1.5892    1.8913   -0.8182 N   0  0  0  0  0  0  0  0  0  0  0  0
   -1.7868   -0.9016   -2.7517 C   0  0  0  0  0  0  0  0  0  0  0  0
   -2.3788   -2.1629   -2.8620 C   0  0  0  0  0  0  0  0  0  0  0  0
   -2.2221   -5.3807   -0.5079 H   0  0  0  0  0  0  0  0  0  0  0  0
   -3.8363   -4.6720   -0.1108 H   0  0  0  0  0  0  0  0  0  0  0  0
   -3.6940   -6.0085   -1.2588 H   0  0  0  0  0  0  0  0  0  0  0  0
   -2.0589   -3.1761    0.3703 H   0  0  0  0  0  0  0  0  0  0  0  0
   -1.0313   -0.9830    0.5630 H   0  0  0  0  0  0  0  0  0  0  0  0
   -0.4491    1.2981   -2.4253 H   0  0  0  0  0  0  0  0  0  0  0  0
    1.9826    1.9499    1.9342 H   0  0  0  0  0  0  0  0  0  0  0  0
    4.1686    1.6547    2.5208 H   0  0  0  0  0  0  0  0  0  0  0  0
    6.3044    0.5140    2.1933 H   0  0  0  0  0  0  0  0  0  0  0  0
    7.7308   -0.8412    0.6624 H   0  0  0  0  0  0  0  0  0  0  0  0
    6.9270   -2.3677    1.1043 H   0  0  0  0  0  0  0  0  0  0  0  0
    7.0024   -1.8397   -0.5950 H   0  0  0  0  0  0  0  0  0  0  0  0
    4.5229   -1.9385   -0.8645 H   0  0  0  0  0  0  0  0  0  0  0  0
    2.3900   -0.8182   -0.5362 H   0  0  0  0  0  0  0  0  0  0  0  0
   -0.1926    2.1576    2.0468 H   0  0  0  0  0  0  0  0  0  0  0  0
   -5.2714    4.4998    0.7030 H   0  0  0  0  0  0  0  0  0  0  0  0
   -3.9255    5.0866    1.6910 H   0  0  0  0  0  0  0  0  0  0  0  0
   -4.7678    3.5859    2.1323 H   0  0  0  0  0  0  0  0  0  0  0  0
   -4.5159    3.4758   -1.3594 H   0  0  0  0  0  0  0  0  0  0  0  0
   -1.7295   -0.2677   -3.6350 H   0  0  0  0  0  0  0  0  0  0  0  0
   -2.7622   -2.4923   -3.8246 H   0  0  0  0  0  0  0  0  0  0  0  0
  1  2  1  0
  2  3  1  0
  3  4  2  0
  4  5  1  0
  5  6  2  0
  6  7  1  0
  7  8  1  0
  8  9  2  0
  9 10  1  0
 10 11  1  0
 11 12  2  0
 12 13  1  0
 13 14  2  0
 14 15  1  0
 14 16  1  0
 16 17  2  0
  9 18  1  0
 18 19  1  0
 19 20  2  0
 20 21  1  0
 21 22  1  0
 21 23  2  0
 23 24  1  0
 24 25  2  0
 24 26  1  0
  6 27  1  0
 27 28  2  0
 28  3  1  0
 26  7  1  0
 17 11  1  0
 26 19  1  0
  1 29  1  0
  1 30  1  0
  1 31  1  0
  4 32  1  0
  5 33  1  0
  7 34  1  0
 10 35  1  0
 12 36  1  0
 13 37  1  0
 15 38  1  0
 15 39  1  0
 15 40  1  0
 16 41  1  0
 17 42  1  0
 18 43  1  0
 22 44  1  0
 22 45  1  0
 22 46  1  0
 23 47  1  0
 27 48  1  0
 28 49  1  0
M  END
$$$$
