
     RDKit          3D

 51 53  0  0  0  0  0  0  0  0999 V2000
   -3.3532   -2.3053    0.1734 O   0  0  0  0  0  0  0  0  0  0  0  0
   -3.3538   -1.2242   -0.4071 C   0  0  0  0  0  0  0  0  0  0  0  0
   -2.1327   -0.7499   -1.2026 C   0  0  0  0  0  0  0  0  0  0  0  0
   -2.1024    0.6612   -1.4449 O   0  0  0  0  0  0  0  0  0  0  0  0
   -1.5894    1.3945   -0.4201 C   0  0  0  0  0  0  0  0  0  0  0  0
   -1.2800    0.9602    0.6796 O   0  0  0  0  0  0  0  0  0  0  0  0
   -1.4283    2.8329   -0.8241 C   0  0  0  0  0  0  0  0  0  0  0  0
   -0.1821    3.0278   -1.6810 C   0  0  0  0  0  0  0  0  0  0  0  0
    1.0658    2.7630   -0.9555 N   0  0  0  0  0  0  0  0  0  0  0  0
    1.6185    1.4912   -1.0256 C   0  0  0  0  0  0  0  0  0  0  0  0
    1.1509    0.5680   -1.6792 O   0  0  0  0  0  0  0  0  0  0  0  0
    2.8536    1.4094   -0.1953 C   0  0  0  0  0  0  0  0  0  0  0  0
    3.6608    0.3558    0.0017 C   0  0  0  0  0  0  0  0  0  0  0  0
    3.5225   -0.9753   -0.5570 C   0  0  0  0  0  0  0  0  0  0  0  0
    4.3383   -2.0170   -0.3233 C   0  0  0  0  0  0  0  0  0  0  0  0
    5.5122   -2.0095    0.5520 C   0  0  0  0  0  0  0  0  0  0  0  0
    6.7922   -1.8842    0.0025 C   0  0  0  0  0  0  0  0  0  0  0  0
    7.9139   -1.8702    0.8338 C   0  0  0  0  0  0  0  0  0  0  0  0
    7.7605   -1.9820    2.2155 C   0  0  0  0  0  0  0  0  0  0  0  0
    6.4864   -2.1082    2.7681 C   0  0  0  0  0  0  0  0  0  0  0  0
    5.3637   -2.1225    1.9387 C   0  0  0  0  0  0  0  0  0  0  0  0
    3.1489    2.9425    0.5467 S   0  0  0  0  0  0  0  0  0  0  0  0
    1.7224    3.6801   -0.1621 C   0  0  0  0  0  0  0  0  0  0  0  0
    1.3050    5.2687    0.1316 S   0  0  0  0  0  0  0  0  0  0  0  0
   -4.4195   -0.3468   -0.4922 N   0  0  0  0  0  0  0  0  0  0  0  0
   -5.6899   -0.4626    0.1082 C   0  0  0  0  0  0  0  0  0  0  0  0
   -6.0856   -1.5253    0.9193 C   0  0  0  0  0  0  0  0  0  0  0  0
   -7.3706   -1.5347    1.4618 C   0  0  0  0  0  0  0  0  0  0  0  0
   -7.7480   -2.5577    2.2398 F   0  0  0  0  0  0  0  0  0  0  0  0
   -8.2737   -0.5040    1.2140 C   0  0  0  0  0  0  0  0  0  0  0  0
   -7.8875    0.5626    0.4075 C   0  0  0  0  0  0  0  0  0  0  0  0
   -6.6048    0.5738   -0.1351 C   0  0  0  0  0  0  0  0  0  0  0  0
   -6.2377    1.6073   -0.9107 F   0  0  0  0  0  0  0  0  0  0  0  0
   -1.2174   -1.0802   -0.6972 H   0  0  0  0  0  0  0  0  0  0  0  0
   -2.1670   -1.2442   -2.1793 H   0  0  0  0  0  0  0  0  0  0  0  0
   -1.3926    3.4394    0.0872 H   0  0  0  0  0  0  0  0  0  0  0  0
   -2.3258    3.1444   -1.3708 H   0  0  0  0  0  0  0  0  0  0  0  0
   -0.2276    2.3753   -2.5612 H   0  0  0  0  0  0  0  0  0  0  0  0
   -0.1619    4.0560   -2.0573 H   0  0  0  0  0  0  0  0  0  0  0  0
    4.5242    0.4976    0.6521 H   0  0  0  0  0  0  0  0  0  0  0  0
    2.6877   -1.1544   -1.2318 H   0  0  0  0  0  0  0  0  0  0  0  0
    4.1405   -2.9696   -0.8106 H   0  0  0  0  0  0  0  0  0  0  0  0
    6.9226   -1.7933   -1.0731 H   0  0  0  0  0  0  0  0  0  0  0  0
    8.9071   -1.7720    0.4034 H   0  0  0  0  0  0  0  0  0  0  0  0
    8.6344   -1.9714    2.8620 H   0  0  0  0  0  0  0  0  0  0  0  0
    6.3663   -2.1965    3.8447 H   0  0  0  0  0  0  0  0  0  0  0  0
    4.3738   -2.2204    2.3793 H   0  0  0  0  0  0  0  0  0  0  0  0
   -4.2740    0.4887   -1.0520 H   0  0  0  0  0  0  0  0  0  0  0  0
   -5.4301   -2.3565    1.1533 H   0  0  0  0  0  0  0  0  0  0  0  0
   -9.2661   -0.5425    1.6523 H   0  0  0  0  0  0  0  0  0  0  0  0
   -8.5705    1.3797    0.1992 H   0  0  0  0  0  0  0  0  0  0  0  0
  1  2  2  0
  2  3  1  0
  3  4  1  0
  4  5  1  0
  5  6  2  0
  5  7  1  0
  7  8  1  0
  8  9  1  0
  9 10  1  0
 10 11  2  0
 10 12  1  0
 12 13  2  3
 13 14  1  0
 14 15  2  3
 15 16  1  0
 16 17  2  0
 17 18  1  0
 18 19  2  0
 19 20  1  0
 20 21  2  0
 12 22  1  0
 22 23  1  0
 23 24  2  0
  2 25  1  0
 25 26  1  0
 26 27  2  0
 27 28  1  0
 28 29  1  0
 28 30  2  0
 30 31  1  0
 31 32  2  0
 32 33  1  0
 23  9  1  0
 32 26  1  0
 21 16  1  0
  3 34  1  0
  3 35  1  0
  7 36  1  0
  7 37  1  0
  8 38  1  0
  8 39  1  0
 13 40  1  0
 14 41  1  0
 15 42  1  0
 17 43  1  0
 18 44  1  0
 19 45  1  0
 20 46  1  0
 21 47  1  0
 25 48  1  0
 27 49  1  0
 30 50  1  0
 31 51  1  0
M  END
$$$$
