
     RDKit          3D

 50 52  0  0  0  0  0  0  0  0999 V2000
    1.9197   -0.2675   -3.9229 C   0  0  0  0  0  0  0  0  0  0  0  0
    2.2206    0.1322   -2.5904 O   0  0  0  0  0  0  0  0  0  0  0  0
    3.1743    1.1113   -2.4298 C   0  0  0  0  0  0  0  0  0  0  0  0
    3.8396    1.7567   -3.4768 C   0  0  0  0  0  0  0  0  0  0  0  0
    4.7781    2.7516   -3.2007 C   0  0  0  0  0  0  0  0  0  0  0  0
    5.0549    3.1060   -1.8834 C   0  0  0  0  0  0  0  0  0  0  0  0
    4.3917    2.4712   -0.8308 C   0  0  0  0  0  0  0  0  0  0  0  0
    3.4530    1.4725   -1.0926 C   0  0  0  0  0  0  0  0  0  0  0  0
    2.7385    0.7882   -0.0851 N   0  0  0  0  0  0  0  0  0  0  0  0
    2.7315    1.0170    1.2760 C   0  0  0  0  0  0  0  0  0  0  0  0
    3.4404    1.8214    1.8785 O   0  0  0  0  0  0  0  0  0  0  0  0
    1.7422    0.1270    2.0407 C   0  0  0  0  0  0  0  0  0  0  0  0
    0.4009    0.1755    1.5484 O   0  0  0  0  0  0  0  0  0  0  0  0
    0.1088   -0.7287    0.5898 C   0  0  0  0  0  0  0  0  0  0  0  0
    0.9061   -1.4907    0.0642 O   0  0  0  0  0  0  0  0  0  0  0  0
   -1.2786   -0.5788    0.1108 C   0  0  0  0  0  0  0  0  0  0  0  0
   -1.4281   -0.4243   -1.2777 C   0  0  0  0  0  0  0  0  0  0  0  0
   -2.7066   -0.3020   -1.8209 C   0  0  0  0  0  0  0  0  0  0  0  0
   -2.8695   -0.1494   -3.2715 N   0  0  0  0  0  4  0  0  0  0  0  0
   -4.0240   -0.0592   -3.7142 O   0  0  0  0  0  0  0  0  0  0  0  0
   -1.8428   -0.1246   -3.9662 O   0  0  0  0  0  1  0  0  0  0  0  0
   -3.8312   -0.3417   -0.9922 C   0  0  0  0  0  0  0  0  0  0  0  0
   -3.6681   -0.5039    0.3883 C   0  0  0  0  0  0  0  0  0  0  0  0
   -2.3940   -0.6232    0.9760 C   0  0  0  0  0  0  0  0  0  0  0  0
   -2.2400   -0.8494    2.3454 N   0  0  0  0  0  0  0  0  0  0  0  0
   -2.1084   -2.2757    2.7014 C   0  0  0  0  0  0  0  0  0  0  0  0
   -2.6669   -2.3608    4.1178 C   0  0  0  0  0  0  0  0  0  0  0  0
   -3.7700   -1.3175    4.0973 C   0  0  0  0  0  0  0  0  0  0  0  0
   -3.1328   -0.1822    3.3072 C   0  0  0  0  0  0  0  0  0  0  0  0
    2.8056   -0.6747   -4.4238 H   0  0  0  0  0  0  0  0  0  0  0  0
    1.1726   -1.0650   -3.8717 H   0  0  0  0  0  0  0  0  0  0  0  0
    1.4848    0.5604   -4.4917 H   0  0  0  0  0  0  0  0  0  0  0  0
    3.6432    1.5158   -4.5148 H   0  0  0  0  0  0  0  0  0  0  0  0
    5.2942    3.2524   -4.0161 H   0  0  0  0  0  0  0  0  0  0  0  0
    5.7863    3.8810   -1.6680 H   0  0  0  0  0  0  0  0  0  0  0  0
    4.6393    2.7714    0.1815 H   0  0  0  0  0  0  0  0  0  0  0  0
    2.1608    0.0264   -0.4422 H   0  0  0  0  0  0  0  0  0  0  0  0
    2.1322   -0.8985    2.0743 H   0  0  0  0  0  0  0  0  0  0  0  0
    1.7058    0.4833    3.0764 H   0  0  0  0  0  0  0  0  0  0  0  0
   -0.5425   -0.4025   -1.9101 H   0  0  0  0  0  0  0  0  0  0  0  0
   -4.8378   -0.2635   -1.3983 H   0  0  0  0  0  0  0  0  0  0  0  0
   -4.5651   -0.5759    1.0015 H   0  0  0  0  0  0  0  0  0  0  0  0
   -2.7006   -2.9160    2.0348 H   0  0  0  0  0  0  0  0  0  0  0  0
   -1.0635   -2.6005    2.6656 H   0  0  0  0  0  0  0  0  0  0  0  0
   -1.8988   -2.0817    4.8486 H   0  0  0  0  0  0  0  0  0  0  0  0
   -3.0327   -3.3619    4.3642 H   0  0  0  0  0  0  0  0  0  0  0  0
   -4.6463   -1.7045    3.5671 H   0  0  0  0  0  0  0  0  0  0  0  0
   -4.0815   -1.0079    5.0987 H   0  0  0  0  0  0  0  0  0  0  0  0
   -3.8824    0.4799    2.8640 H   0  0  0  0  0  0  0  0  0  0  0  0
   -2.5131    0.4308    3.9736 H   0  0  0  0  0  0  0  0  0  0  0  0
  1  2  1  0
  2  3  1  0
  3  4  2  0
  4  5  1  0
  5  6  2  0
  6  7  1  0
  7  8  2  0
  8  9  1  0
  9 10  1  0
 10 11  2  0
 10 12  1  0
 12 13  1  0
 13 14  1  0
 14 15  2  0
 14 16  1  0
 16 17  2  0
 17 18  1  0
 18 19  1  0
 19 20  2  0
 19 21  1  0
 18 22  2  0
 22 23  1  0
 23 24  2  0
 24 25  1  0
 25 26  1  0
 26 27  1  0
 27 28  1  0
 28 29  1  0
  8  3  1  0
 24 16  1  0
 29 25  1  0
  1 30  1  0
  1 31  1  0
  1 32  1  0
  4 33  1  0
  5 34  1  0
  6 35  1  0
  7 36  1  0
  9 37  1  0
 12 38  1  0
 12 39  1  0
 17 40  1  0
 22 41  1  0
 23 42  1  0
 26 43  1  0
 26 44  1  0
 27 45  1  0
 27 46  1  0
 28 47  1  0
 28 48  1  0
 29 49  1  0
 29 50  1  0
M  CHG  2  19   1  21  -1
M  END
$$$$
