
     RDKit          3D

 56 59  0  0  0  0  0  0  0  0999 V2000
    7.0076    0.2571   -2.1302 C   0  0  0  0  0  0  0  0  0  0  0  0
    6.7924    1.5058   -1.4795 O   0  0  0  0  0  0  0  0  0  0  0  0
    5.6493    1.5251   -0.7065 C   0  0  0  0  0  0  0  0  0  0  0  0
    5.3723    2.7117   -0.0524 C   0  0  0  0  0  0  0  0  0  0  0  0
    4.2295    2.7749    0.7402 C   0  0  0  0  0  0  0  0  0  0  0  0
    3.3949    1.6550    0.8623 C   0  0  0  0  0  0  0  0  0  0  0  0
    2.1908    1.7846    1.7336 C   0  0  0  0  0  0  0  0  0  0  0  0
    1.8967    2.8802    2.2044 O   0  0  0  0  0  0  0  0  0  0  0  0
    1.4484    0.6534    1.9815 N   0  0  0  0  0  0  0  0  0  0  0  0
    0.1726    0.6966    2.6731 C   0  0  0  0  0  0  0  0  0  0  0  0
   -0.0150   -0.5816    3.5243 C   0  0  0  0  0  0  0  0  0  0  0  0
   -0.4177   -1.8070    2.6763 C   0  0  0  0  0  0  0  0  0  0  0  0
   -1.7499   -1.5833    1.9341 C   0  0  0  0  0  0  0  0  0  0  0  0
   -1.7655   -0.2304    1.3066 C   0  0  0  0  0  0  0  0  0  0  0  0
   -0.8943    0.7921    1.6352 C   0  0  0  0  0  0  0  0  0  0  0  0
   -1.2217    1.8312    0.7588 C   0  0  0  0  0  0  0  0  0  0  0  0
   -2.1982    1.4947   -0.0824 N   0  0  0  0  0  0  0  0  0  0  0  0
   -2.5641    0.2305    0.2671 N   0  0  0  0  0  0  0  0  0  0  0  0
   -3.6686   -0.4086   -0.3828 C   0  0  0  0  0  0  0  0  0  0  0  0
   -4.4857   -1.2656    0.3742 C   0  0  0  0  0  0  0  0  0  0  0  0
   -5.6034   -1.8734   -0.1911 C   0  0  0  0  0  0  0  0  0  0  0  0
   -5.9343   -1.6193   -1.5157 C   0  0  0  0  0  0  0  0  0  0  0  0
   -5.1520   -0.7568   -2.2987 C   0  0  0  0  0  0  0  0  0  0  0  0
   -5.5784   -0.5166   -3.7247 C   0  0  0  0  0  0  0  0  0  0  0  0
   -3.9858   -0.1615   -1.7476 C   0  0  0  0  0  0  0  0  0  0  0  0
   -3.1113    0.7037   -2.6272 C   0  0  0  0  0  0  0  0  0  0  0  0
    3.7615    0.5082    0.1541 C   0  0  0  0  0  0  0  0  0  0  0  0
    2.9551   -0.6140    0.2377 O   0  0  0  0  0  0  0  0  0  0  0  0
    3.3951   -1.7002   -0.5755 C   0  0  0  0  0  0  0  0  0  0  0  0
    4.8729    0.4251   -0.6209 N   0  0  0  0  0  0  0  0  0  0  0  0
    7.9310    0.3396   -2.7123 H   0  0  0  0  0  0  0  0  0  0  0  0
    6.1946    0.0293   -2.8288 H   0  0  0  0  0  0  0  0  0  0  0  0
    7.1426   -0.5524   -1.4038 H   0  0  0  0  0  0  0  0  0  0  0  0
    6.0305    3.5682   -0.1555 H   0  0  0  0  0  0  0  0  0  0  0  0
    3.9938    3.6997    1.2638 H   0  0  0  0  0  0  0  0  0  0  0  0
    1.6488   -0.1705    1.4248 H   0  0  0  0  0  0  0  0  0  0  0  0
    0.1433    1.5736    3.3301 H   0  0  0  0  0  0  0  0  0  0  0  0
   -0.8043   -0.4039    4.2664 H   0  0  0  0  0  0  0  0  0  0  0  0
    0.9030   -0.8052    4.0811 H   0  0  0  0  0  0  0  0  0  0  0  0
   -0.5046   -2.6896    3.3198 H   0  0  0  0  0  0  0  0  0  0  0  0
    0.3741   -2.0240    1.9486 H   0  0  0  0  0  0  0  0  0  0  0  0
   -1.8814   -2.3719    1.1855 H   0  0  0  0  0  0  0  0  0  0  0  0
   -2.5621   -1.6584    2.6653 H   0  0  0  0  0  0  0  0  0  0  0  0
   -0.7700    2.8127    0.6794 H   0  0  0  0  0  0  0  0  0  0  0  0
   -4.3172   -1.4279    1.4328 H   0  0  0  0  0  0  0  0  0  0  0  0
   -6.2335   -2.5235    0.4106 H   0  0  0  0  0  0  0  0  0  0  0  0
   -6.8209   -2.0908   -1.9353 H   0  0  0  0  0  0  0  0  0  0  0  0
   -4.8907   -1.0162   -4.4139 H   0  0  0  0  0  0  0  0  0  0  0  0
   -6.5833   -0.9090   -3.9135 H   0  0  0  0  0  0  0  0  0  0  0  0
   -5.6096    0.5557   -3.9424 H   0  0  0  0  0  0  0  0  0  0  0  0
   -2.0498    0.5191   -2.4318 H   0  0  0  0  0  0  0  0  0  0  0  0
   -3.3485    1.7616   -2.4776 H   0  0  0  0  0  0  0  0  0  0  0  0
   -3.2401    0.4777   -3.6893 H   0  0  0  0  0  0  0  0  0  0  0  0
    4.3774   -2.0624   -0.2525 H   0  0  0  0  0  0  0  0  0  0  0  0
    3.4038   -1.4235   -1.6360 H   0  0  0  0  0  0  0  0  0  0  0  0
    2.6800   -2.5195   -0.4507 H   0  0  0  0  0  0  0  0  0  0  0  0
  1  2  1  0
  2  3  1  0
  3  4  2  0
  4  5  1  0
  5  6  2  0
  6  7  1  0
  7  8  2  0
  7  9  1  0
  9 10  1  0
 10 11  1  0
 11 12  1  0
 12 13  1  0
 13 14  1  0
 14 15  2  0
 15 16  1  0
 16 17  2  0
 17 18  1  0
 18 19  1  0
 19 20  2  0
 20 21  1  0
 21 22  2  0
 22 23  1  0
 23 24  1  0
 23 25  2  0
 25 26  1  0
  6 27  1  0
 27 28  1  0
 28 29  1  0
 27 30  2  0
 30  3  1  0
 15 10  1  0
 25 19  1  0
 18 14  1  0
  1 31  1  0
  1 32  1  0
  1 33  1  0
  4 34  1  0
  5 35  1  0
  9 36  1  0
 10 37  1  0
 11 38  1  0
 11 39  1  0
 12 40  1  0
 12 41  1  0
 13 42  1  0
 13 43  1  0
 16 44  1  0
 20 45  1  0
 21 46  1  0
 22 47  1  0
 24 48  1  0
 24 49  1  0
 24 50  1  0
 26 51  1  0
 26 52  1  0
 26 53  1  0
 29 54  1  0
 29 55  1  0
 29 56  1  0
M  END
$$$$
