
     RDKit          3D

 58 62  0  0  0  0  0  0  0  0999 V2000
   -2.9172   -1.0193   -0.9150 O   0  0  0  0  0  0  0  0  0  0  0  0
   -3.1956    0.2142   -0.3686 C   0  0  0  0  0  0  0  0  0  0  0  0
   -2.3122    0.7900    0.5543 C   0  0  0  0  0  0  0  0  0  0  0  0
   -1.0191    0.1280    1.0524 C   0  0  0  0  0  0  0  0  0  0  0  0
   -1.3558   -0.9085    2.1411 C   0  0  0  0  0  0  0  0  0  0  0  0
   -1.7525   -2.2062    1.8139 C   0  0  0  0  0  0  0  0  0  0  0  0
   -2.0592   -3.1017    2.8344 C   0  0  0  0  0  0  0  0  0  0  0  0
   -1.9657   -2.6854    4.1556 C   0  0  0  0  0  0  0  0  0  0  0  0
   -1.5647   -1.3843    4.4032 C   0  0  0  0  0  0  0  0  0  0  0  0
   -1.2586   -0.4919    3.4360 N   0  0  0  0  0  0  0  0  0  0  0  0
   -0.0841   -0.3506   -0.0221 N   0  0  0  0  0  0  0  0  0  0  0  0
    0.2084    0.7158   -0.9967 C   0  0  0  0  0  0  0  0  0  0  0  0
    1.1348    0.2265   -2.1148 C   0  0  0  0  0  0  0  0  0  0  0  0
    2.4525   -0.3525   -1.5828 C   0  0  0  0  0  0  0  0  0  0  0  0
    3.3860    0.7713   -1.0802 C   0  0  0  0  0  0  0  0  0  0  0  0
    4.7715    0.2952   -0.7113 C   0  0  0  0  0  0  0  0  0  0  0  0
    5.1759    0.2527    0.6300 C   0  0  0  0  0  0  0  0  0  0  0  0
    6.4546   -0.1918    0.9702 C   0  0  0  0  0  0  0  0  0  0  0  0
    7.3415   -0.5960   -0.0256 C   0  0  0  0  0  0  0  0  0  0  0  0
    6.9510   -0.5557   -1.3626 C   0  0  0  0  0  0  0  0  0  0  0  0
    5.6727   -0.1118   -1.7046 C   0  0  0  0  0  0  0  0  0  0  0  0
    2.1203   -1.3971   -0.5096 C   0  0  0  0  0  0  0  0  0  0  0  0
    1.1733   -0.8573    0.5653 C   0  0  0  0  0  0  0  0  0  0  0  0
   -2.6684    2.0414    1.0815 C   0  0  0  0  0  0  0  0  0  0  0  0
   -3.8434    2.6848    0.6806 C   0  0  0  0  0  0  0  0  0  0  0  0
   -4.1777    4.2298    1.3899 Cl  0  0  0  0  0  0  0  0  0  0  0  0
   -4.7148    2.0937   -0.2633 C   0  0  0  0  0  0  0  0  0  0  0  0
   -5.9183    2.6713   -0.7268 C   0  0  0  0  0  0  0  0  0  0  0  0
   -6.7098    2.0080   -1.6577 C   0  0  0  0  0  0  0  0  0  0  0  0
   -6.2818    0.7771   -2.1084 C   0  0  0  0  0  0  0  0  0  0  0  0
   -5.1408    0.1840   -1.6968 N   0  0  0  0  0  0  0  0  0  0  0  0
   -4.3759    0.8336   -0.7908 C   0  0  0  0  0  0  0  0  0  0  0  0
   -3.6601   -1.1823   -1.5352 H   0  0  0  0  0  0  0  0  0  0  0  0
   -0.4583    0.9167    1.5785 H   0  0  0  0  0  0  0  0  0  0  0  0
   -1.8107   -2.5175    0.7754 H   0  0  0  0  0  0  0  0  0  0  0  0
   -2.3679   -4.1150    2.5952 H   0  0  0  0  0  0  0  0  0  0  0  0
   -2.1989   -3.3586    4.9723 H   0  0  0  0  0  0  0  0  0  0  0  0
   -1.4764   -1.0121    5.4198 H   0  0  0  0  0  0  0  0  0  0  0  0
   -0.7096    1.0580   -1.4860 H   0  0  0  0  0  0  0  0  0  0  0  0
    0.6474    1.5898   -0.4994 H   0  0  0  0  0  0  0  0  0  0  0  0
    1.3339    1.0476   -2.8137 H   0  0  0  0  0  0  0  0  0  0  0  0
    0.6130   -0.5494   -2.6913 H   0  0  0  0  0  0  0  0  0  0  0  0
    2.9517   -0.8669   -2.4145 H   0  0  0  0  0  0  0  0  0  0  0  0
    3.4969    1.5318   -1.8650 H   0  0  0  0  0  0  0  0  0  0  0  0
    2.9431    1.2996   -0.2280 H   0  0  0  0  0  0  0  0  0  0  0  0
    4.4962    0.5625    1.4204 H   0  0  0  0  0  0  0  0  0  0  0  0
    6.7583   -0.2229    2.0132 H   0  0  0  0  0  0  0  0  0  0  0  0
    8.3367   -0.9422    0.2401 H   0  0  0  0  0  0  0  0  0  0  0  0
    7.6420   -0.8701   -2.1401 H   0  0  0  0  0  0  0  0  0  0  0  0
    5.3830   -0.0847   -2.7525 H   0  0  0  0  0  0  0  0  0  0  0  0
    3.0315   -1.7820   -0.0391 H   0  0  0  0  0  0  0  0  0  0  0  0
    1.6444   -2.2605   -0.9945 H   0  0  0  0  0  0  0  0  0  0  0  0
    1.6737   -0.0768    1.1520 H   0  0  0  0  0  0  0  0  0  0  0  0
    0.9751   -1.6889    1.2496 H   0  0  0  0  0  0  0  0  0  0  0  0
   -2.0272    2.5166    1.8230 H   0  0  0  0  0  0  0  0  0  0  0  0
   -6.2476    3.6422   -0.3642 H   0  0  0  0  0  0  0  0  0  0  0  0
   -7.6351    2.4430   -2.0183 H   0  0  0  0  0  0  0  0  0  0  0  0
   -6.8616    0.2149   -2.8354 H   0  0  0  0  0  0  0  0  0  0  0  0
  1  2  1  0
  2  3  2  0
  3  4  1  0
  4  5  1  0
  5  6  2  0
  6  7  1  0
  7  8  2  0
  8  9  1  0
  9 10  2  0
  4 11  1  0
 11 12  1  0
 12 13  1  0
 13 14  1  0
 14 15  1  0
 15 16  1  0
 16 17  2  0
 17 18  1  0
 18 19  2  0
 19 20  1  0
 20 21  2  0
 14 22  1  0
 22 23  1  0
  3 24  1  0
 24 25  2  0
 25 26  1  0
 25 27  1  0
 27 28  2  0
 28 29  1  0
 29 30  2  0
 30 31  1  0
 31 32  2  0
 32  2  1  0
 10  5  1  0
 23 11  1  0
 32 27  1  0
 21 16  1  0
  1 33  1  0
  4 34  1  0
  6 35  1  0
  7 36  1  0
  8 37  1  0
  9 38  1  0
 12 39  1  0
 12 40  1  0
 13 41  1  0
 13 42  1  0
 14 43  1  0
 15 44  1  0
 15 45  1  0
 17 46  1  0
 18 47  1  0
 19 48  1  0
 20 49  1  0
 21 50  1  0
 22 51  1  0
 22 52  1  0
 23 53  1  0
 23 54  1  0
 24 55  1  0
 28 56  1  0
 29 57  1  0
 30 58  1  0
M  END
$$$$
