
     RDKit          3D

 45 47  0  0  0  0  0  0  0  0999 V2000
    2.2350    1.6534    0.9179 O   0  0  0  0  0  0  0  0  0  0  0  0
    1.6593    1.6608   -0.1735 C   0  0  0  0  0  0  0  0  0  0  0  0
    2.1718    2.5524   -1.2960 C   0  0  0  0  0  0  0  0  0  0  0  0
    3.2700    1.6362   -2.4295 S   0  0  0  0  0  0  0  0  0  0  0  0
    4.6106    1.2154   -1.3319 C   0  0  0  0  0  0  0  0  0  0  0  0
    5.3764    2.2013   -0.7008 C   0  0  0  0  0  0  0  0  0  0  0  0
    6.4317    1.8426    0.1427 C   0  0  0  0  0  0  0  0  0  0  0  0
    6.7262    0.4964    0.3477 C   0  0  0  0  0  0  0  0  0  0  0  0
    8.1538    0.0107    1.4873 Br  0  0  0  0  0  0  0  0  0  0  0  0
    5.9805   -0.4940   -0.2877 C   0  0  0  0  0  0  0  0  0  0  0  0
    4.9262   -0.1328   -1.1307 C   0  0  0  0  0  0  0  0  0  0  0  0
    0.5306    0.8860   -0.4027 N   0  0  0  0  0  0  0  0  0  0  0  0
    0.0106    0.0504    0.6846 C   0  0  0  0  0  0  0  0  0  0  0  0
   -1.5199   -0.0298    0.6652 C   0  0  0  0  0  0  0  0  0  0  0  0
   -2.0589   -0.5378   -0.6419 N   0  0  0  0  0  0  0  0  0  0  0  0
   -2.8037   -2.0747   -0.5798 S   0  0  0  0  0  6  0  0  0  0  0  0
   -3.3027   -2.3825   -1.9026 O   0  0  0  0  0  0  0  0  0  0  0  0
   -1.8839   -2.9586    0.1050 O   0  0  0  0  0  0  0  0  0  0  0  0
   -4.2084   -1.7854    0.4640 C   0  0  0  0  0  0  0  0  0  0  0  0
   -5.1813   -0.8703    0.0500 C   0  0  0  0  0  0  0  0  0  0  0  0
   -6.2870   -0.6306    0.8649 C   0  0  0  0  0  0  0  0  0  0  0  0
   -6.4170   -1.3052    2.0805 C   0  0  0  0  0  0  0  0  0  0  0  0
   -5.4454   -2.2234    2.4850 C   0  0  0  0  0  0  0  0  0  0  0  0
   -4.3360   -2.4690    1.6759 C   0  0  0  0  0  0  0  0  0  0  0  0
   -1.0950   -0.4136   -1.7821 C   0  0  0  0  0  0  0  0  0  0  0  0
   -0.2288    0.8461   -1.6579 C   0  0  0  0  0  0  0  0  0  0  0  0
    1.3349    2.9715   -1.8618 H   0  0  0  0  0  0  0  0  0  0  0  0
    2.7006    3.4050   -0.8573 H   0  0  0  0  0  0  0  0  0  0  0  0
    5.1659    3.2554   -0.8595 H   0  0  0  0  0  0  0  0  0  0  0  0
    7.0141    2.6187    0.6317 H   0  0  0  0  0  0  0  0  0  0  0  0
    6.2084   -1.5454   -0.1350 H   0  0  0  0  0  0  0  0  0  0  0  0
    4.3513   -0.9140   -1.6226 H   0  0  0  0  0  0  0  0  0  0  0  0
    0.3429    0.4334    1.6551 H   0  0  0  0  0  0  0  0  0  0  0  0
    0.4472   -0.9474    0.5571 H   0  0  0  0  0  0  0  0  0  0  0  0
   -1.8573   -0.6444    1.5052 H   0  0  0  0  0  0  0  0  0  0  0  0
   -1.9464    0.9695    0.8171 H   0  0  0  0  0  0  0  0  0  0  0  0
   -5.0817   -0.3506   -0.9002 H   0  0  0  0  0  0  0  0  0  0  0  0
   -7.0507    0.0773    0.5521 H   0  0  0  0  0  0  0  0  0  0  0  0
   -7.2825   -1.1190    2.7128 H   0  0  0  0  0  0  0  0  0  0  0  0
   -5.5569   -2.7503    3.4298 H   0  0  0  0  0  0  0  0  0  0  0  0
   -3.5858   -3.1898    1.9933 H   0  0  0  0  0  0  0  0  0  0  0  0
   -0.4455   -1.2970   -1.8159 H   0  0  0  0  0  0  0  0  0  0  0  0
   -1.6621   -0.3623   -2.7179 H   0  0  0  0  0  0  0  0  0  0  0  0
   -0.8613    1.7416   -1.6716 H   0  0  0  0  0  0  0  0  0  0  0  0
    0.4503    0.9036   -2.5111 H   0  0  0  0  0  0  0  0  0  0  0  0
  1  2  2  0
  2  3  1  0
  3  4  1  0
  4  5  1  0
  5  6  2  0
  6  7  1  0
  7  8  2  0
  8  9  1  0
  8 10  1  0
 10 11  2  0
  2 12  1  0
 12 13  1  0
 13 14  1  0
 14 15  1  0
 15 16  1  0
 16 17  2  0
 16 18  2  0
 16 19  1  0
 19 20  2  0
 20 21  1  0
 21 22  2  0
 22 23  1  0
 23 24  2  0
 15 25  1  0
 25 26  1  0
 11  5  1  0
 26 12  1  0
 24 19  1  0
  3 27  1  0
  3 28  1  0
  6 29  1  0
  7 30  1  0
 10 31  1  0
 11 32  1  0
 13 33  1  0
 13 34  1  0
 14 35  1  0
 14 36  1  0
 20 37  1  0
 21 38  1  0
 22 39  1  0
 23 40  1  0
 24 41  1  0
 25 42  1  0
 25 43  1  0
 26 44  1  0
 26 45  1  0
M  END
$$$$
