
     RDKit          3D

 45 47  0  0  0  0  0  0  0  0999 V2000
   -5.0694   -1.9423   -0.2167 C   0  0  0  0  0  0  0  0  0  0  0  0
   -5.3785   -0.4865   -0.5403 C   0  0  0  0  0  0  0  0  0  0  0  0
   -4.3964    0.4285    0.0582 N   0  0  0  0  0  0  0  0  0  0  0  0
   -4.8556    1.2248    1.2041 C   0  0  0  0  0  0  0  0  0  0  0  0
   -4.6897    0.4685    2.5133 C   0  0  0  0  0  0  0  0  0  0  0  0
   -3.0959    0.5357   -0.4265 C   0  0  0  0  0  0  0  0  0  0  0  0
   -2.7145    0.0135   -1.6736 C   0  0  0  0  0  0  0  0  0  0  0  0
   -1.4045    0.1191   -2.1685 C   0  0  0  0  0  0  0  0  0  0  0  0
   -0.4100    0.7486   -1.4226 C   0  0  0  0  0  0  0  0  0  0  0  0
    0.9323    0.8834   -1.9947 C   0  0  0  0  0  0  0  0  0  0  0  0
    2.0996    0.5723   -1.4153 C   0  0  0  0  0  0  0  0  0  0  0  0
    3.3841    0.7547   -2.1477 C   0  0  0  0  0  0  0  0  0  0  0  0
    3.5586    1.1866   -3.2676 O   0  0  0  0  0  0  0  0  0  0  0  0
    4.4293    0.2959   -1.2268 C   0  0  0  0  0  0  0  0  0  0  0  0
    5.7956    0.2636   -1.4379 C   0  0  0  0  0  0  0  0  0  0  0  0
    6.5982   -0.2227   -0.3992 C   0  0  0  0  0  0  0  0  0  0  0  0
    6.0280   -0.6637    0.8195 C   0  0  0  0  0  0  0  0  0  0  0  0
    6.9443   -1.1658    1.8730 C   0  0  0  0  0  0  0  0  0  0  0  0
    8.1553   -1.2365    1.7853 O   0  0  0  0  0  0  0  0  0  0  0  0
    6.2934   -1.5526    2.9821 O   0  0  0  0  0  0  0  0  0  0  0  0
    4.6387   -0.6213    1.0100 C   0  0  0  0  0  0  0  0  0  0  0  0
    3.8639   -0.1366   -0.0304 C   0  0  0  0  0  0  0  0  0  0  0  0
    2.4028    0.0058   -0.0721 C   0  0  0  0  0  0  0  0  0  0  0  0
    1.6529   -0.2902    0.8321 O   0  0  0  0  0  0  0  0  0  0  0  0
   -0.7608    1.2922   -0.1910 C   0  0  0  0  0  0  0  0  0  0  0  0
   -2.0745    1.1783    0.2936 C   0  0  0  0  0  0  0  0  0  0  0  0
   -5.8428   -2.5924   -0.6383 H   0  0  0  0  0  0  0  0  0  0  0  0
   -5.0394   -2.1111    0.8640 H   0  0  0  0  0  0  0  0  0  0  0  0
   -4.1067   -2.2592   -0.6279 H   0  0  0  0  0  0  0  0  0  0  0  0
   -6.3819   -0.2656   -0.1553 H   0  0  0  0  0  0  0  0  0  0  0  0
   -5.4534   -0.3341   -1.6227 H   0  0  0  0  0  0  0  0  0  0  0  0
   -4.3476    2.1949    1.2530 H   0  0  0  0  0  0  0  0  0  0  0  0
   -5.9159    1.4782    1.0777 H   0  0  0  0  0  0  0  0  0  0  0  0
   -4.9893    1.1016    3.3545 H   0  0  0  0  0  0  0  0  0  0  0  0
   -5.3166   -0.4283    2.5319 H   0  0  0  0  0  0  0  0  0  0  0  0
   -3.6538    0.1554    2.6744 H   0  0  0  0  0  0  0  0  0  0  0  0
   -3.4351   -0.4870   -2.3124 H   0  0  0  0  0  0  0  0  0  0  0  0
   -1.1804   -0.3027   -3.1456 H   0  0  0  0  0  0  0  0  0  0  0  0
    0.9408    1.2620   -3.0172 H   0  0  0  0  0  0  0  0  0  0  0  0
    6.2280    0.6028   -2.3749 H   0  0  0  0  0  0  0  0  0  0  0  0
    7.6794   -0.2608   -0.5355 H   0  0  0  0  0  0  0  0  0  0  0  0
    7.0028   -1.8580    3.5867 H   0  0  0  0  0  0  0  0  0  0  0  0
    4.1725   -0.9534    1.9335 H   0  0  0  0  0  0  0  0  0  0  0  0
   -0.0247    1.8052    0.4225 H   0  0  0  0  0  0  0  0  0  0  0  0
   -2.2634    1.5992    1.2762 H   0  0  0  0  0  0  0  0  0  0  0  0
  1  2  1  0
  2  3  1  0
  3  4  1  0
  4  5  1  0
  3  6  1  0
  6  7  2  0
  7  8  1  0
  8  9  2  0
  9 10  1  0
 10 11  2  3
 11 12  1  0
 12 13  2  0
 12 14  1  0
 14 15  2  0
 15 16  1  0
 16 17  2  0
 17 18  1  0
 18 19  2  0
 18 20  1  0
 17 21  1  0
 21 22  2  0
 22 23  1  0
 23 24  2  0
  9 25  1  0
 25 26  2  0
 26  6  1  0
 23 11  1  0
 22 14  1  0
  1 27  1  0
  1 28  1  0
  1 29  1  0
  2 30  1  0
  2 31  1  0
  4 32  1  0
  4 33  1  0
  5 34  1  0
  5 35  1  0
  5 36  1  0
  7 37  1  0
  8 38  1  0
 10 39  1  0
 15 40  1  0
 16 41  1  0
 20 42  1  0
 21 43  1  0
 25 44  1  0
 26 45  1  0
M  END
$$$$
