
     RDKit          3D

 44 46  0  0  0  0  0  0  0  0999 V2000
    7.7124   -1.7977   -0.9672 C   0  0  0  0  0  0  0  0  0  0  0  0
    7.0841   -0.7488   -1.6925 O   0  0  0  0  0  0  0  0  0  0  0  0
    5.8142   -0.4111   -1.3162 C   0  0  0  0  0  0  0  0  0  0  0  0
    5.0813   -0.9904   -0.2830 C   0  0  0  0  0  0  0  0  0  0  0  0
    3.7831   -0.5426   -0.0059 C   0  0  0  0  0  0  0  0  0  0  0  0
    3.2010    0.4874   -0.7546 C   0  0  0  0  0  0  0  0  0  0  0  0
    1.8929    0.8714   -0.4077 N   0  0  0  0  0  0  0  0  0  0  0  0
    1.1102    1.8565   -0.9806 C   0  0  0  0  0  0  0  0  0  0  0  0
    1.4399    2.6128   -1.8908 O   0  0  0  0  0  0  0  0  0  0  0  0
   -0.2686    1.9855   -0.3233 C   0  0  0  0  0  0  0  0  0  0  0  0
   -0.9508    0.7426   -0.1972 O   0  0  0  0  0  0  0  0  0  0  0  0
   -1.0570    0.3187    1.0862 C   0  0  0  0  0  0  0  0  0  0  0  0
    0.0818    0.2093    1.7760 N   0  0  0  0  0  0  0  0  0  0  0  0
   -0.4159   -0.3359    3.2770 S   0  0  0  0  0  0  0  0  0  0  0  0
   -2.0573   -0.4605    3.0278 N   0  0  0  0  0  0  0  0  0  0  0  0
   -2.2824   -0.1035    1.7555 C   0  0  0  0  0  0  0  0  0  0  0  0
   -3.5331   -0.1022    1.1836 N   0  0  0  0  0  0  0  0  0  0  0  0
   -4.7108   -0.2995    2.0339 C   0  0  0  0  0  0  0  0  0  0  0  0
   -5.9361    0.3373    1.3836 C   0  0  0  0  0  0  0  0  0  0  0  0
   -6.2343   -0.2545    0.0081 C   0  0  0  0  0  0  0  0  0  0  0  0
   -5.0130   -0.9137   -0.6252 C   0  0  0  0  0  0  0  0  0  0  0  0
   -3.7142   -0.1939   -0.2678 C   0  0  0  0  0  0  0  0  0  0  0  0
    3.9375    1.0635   -1.7873 C   0  0  0  0  0  0  0  0  0  0  0  0
    5.2350    0.6157   -2.0631 C   0  0  0  0  0  0  0  0  0  0  0  0
    7.8361   -1.5294    0.0872 H   0  0  0  0  0  0  0  0  0  0  0  0
    7.1609   -2.7377   -1.0743 H   0  0  0  0  0  0  0  0  0  0  0  0
    8.7098   -1.9469   -1.3917 H   0  0  0  0  0  0  0  0  0  0  0  0
    5.4857   -1.7906    0.3272 H   0  0  0  0  0  0  0  0  0  0  0  0
    3.2340   -1.0130    0.8064 H   0  0  0  0  0  0  0  0  0  0  0  0
    1.4641    0.3688    0.3680 H   0  0  0  0  0  0  0  0  0  0  0  0
   -0.8832    2.6083   -0.9840 H   0  0  0  0  0  0  0  0  0  0  0  0
   -0.1669    2.5356    0.6218 H   0  0  0  0  0  0  0  0  0  0  0  0
   -4.8764   -1.3706    2.2028 H   0  0  0  0  0  0  0  0  0  0  0  0
   -4.5715    0.1729    3.0142 H   0  0  0  0  0  0  0  0  0  0  0  0
   -6.8122    0.2277    2.0327 H   0  0  0  0  0  0  0  0  0  0  0  0
   -5.7617    1.4158    1.2745 H   0  0  0  0  0  0  0  0  0  0  0  0
   -7.0377   -0.9968    0.0858 H   0  0  0  0  0  0  0  0  0  0  0  0
   -6.6131    0.5397   -0.6465 H   0  0  0  0  0  0  0  0  0  0  0  0
   -5.1363   -0.9550   -1.7134 H   0  0  0  0  0  0  0  0  0  0  0  0
   -4.9512   -1.9542   -0.2798 H   0  0  0  0  0  0  0  0  0  0  0  0
   -2.8966   -0.7581   -0.7317 H   0  0  0  0  0  0  0  0  0  0  0  0
   -3.7169    0.8153   -0.6964 H   0  0  0  0  0  0  0  0  0  0  0  0
    3.5365    1.8639   -2.4003 H   0  0  0  0  0  0  0  0  0  0  0  0
    5.7968    1.0768   -2.8720 H   0  0  0  0  0  0  0  0  0  0  0  0
  1  2  1  0
  2  3  1  0
  3  4  2  0
  4  5  1  0
  5  6  2  0
  6  7  1  0
  7  8  1  0
  8  9  2  0
  8 10  1  0
 10 11  1  0
 11 12  1  0
 12 13  2  0
 13 14  1  0
 14 15  1  0
 15 16  2  0
 16 17  1  0
 17 18  1  0
 18 19  1  0
 19 20  1  0
 20 21  1  0
 21 22  1  0
  6 23  1  0
 23 24  2  0
 24  3  1  0
 16 12  1  0
 22 17  1  0
  1 25  1  0
  1 26  1  0
  1 27  1  0
  4 28  1  0
  5 29  1  0
  7 30  1  0
 10 31  1  0
 10 32  1  0
 18 33  1  0
 18 34  1  0
 19 35  1  0
 19 36  1  0
 20 37  1  0
 20 38  1  0
 21 39  1  0
 21 40  1  0
 22 41  1  0
 22 42  1  0
 23 43  1  0
 24 44  1  0
M  END
$$$$
