
     RDKit          3D

 45 47  0  0  0  0  0  0  0  0999 V2000
    1.6839   -3.5393    1.5859 C   0  0  0  0  0  0  0  0  0  0  0  0
    2.6791   -2.5434    1.0599 C   0  0  0  0  0  0  0  0  0  0  0  0
    4.0298   -2.6627    1.4424 C   0  0  0  0  0  0  0  0  0  0  0  0
    4.9940   -1.7676    0.9877 C   0  0  0  0  0  0  0  0  0  0  0  0
    4.6481   -0.7195    0.1345 C   0  0  0  0  0  0  0  0  0  0  0  0
    3.3036   -0.5952   -0.2473 C   0  0  0  0  0  0  0  0  0  0  0  0
    2.5802    0.5734   -1.2811 S   0  0  0  0  0  0  0  0  0  0  0  0
    1.0416   -0.1258   -1.0143 C   0  0  0  0  0  0  0  0  0  0  0  0
   -0.0979    0.3533   -1.6602 N   0  0  0  0  0  0  0  0  0  0  0  0
   -1.2064   -0.5682   -1.9260 C   0  0  0  0  0  0  0  0  0  0  0  0
   -2.4362   -0.2951   -1.0514 C   0  0  0  0  0  0  0  0  0  0  0  0
   -2.2017   -0.6679    0.4206 C   0  0  0  0  0  0  0  0  0  0  0  0
   -3.3394   -0.4738    1.3328 N   0  0  0  0  0  0  0  0  0  0  0  0
   -4.4916   -1.3044    0.9993 C   0  0  0  0  0  0  0  0  0  0  0  0
   -3.7217    0.9280    1.4738 C   0  0  0  0  0  0  0  0  0  0  0  0
   -0.2046    1.6487   -2.1902 C   0  0  0  0  0  0  0  0  0  0  0  0
   -0.8438    1.8450   -3.2274 O   0  0  0  0  0  0  0  0  0  0  0  0
    0.3399    2.7864   -1.4526 C   0  0  0  0  0  0  0  0  0  0  0  0
    0.9030    3.9338   -1.9877 C   0  0  0  0  0  0  0  0  0  0  0  0
    1.2815    4.8747   -0.9841 C   0  0  0  0  0  0  0  0  0  0  0  0
    0.9473    4.4212    0.2648 C   0  0  0  0  0  0  0  0  0  0  0  0
    1.2105    5.2341    1.7538 Cl  0  0  0  0  0  0  0  0  0  0  0  0
    0.1838    2.9130    0.2554 S   0  0  0  0  0  0  0  0  0  0  0  0
    1.0451   -1.2166   -0.2844 N   0  0  0  0  0  0  0  0  0  0  0  0
    2.3196   -1.4801    0.1953 C   0  0  0  0  0  0  0  0  0  0  0  0
    1.6558   -3.5002    2.6796 H   0  0  0  0  0  0  0  0  0  0  0  0
    1.9617   -4.5502    1.2709 H   0  0  0  0  0  0  0  0  0  0  0  0
    0.6745   -3.3357    1.2153 H   0  0  0  0  0  0  0  0  0  0  0  0
    4.3306   -3.4703    2.1083 H   0  0  0  0  0  0  0  0  0  0  0  0
    6.0293   -1.8860    1.3009 H   0  0  0  0  0  0  0  0  0  0  0  0
    5.3993   -0.0212   -0.2217 H   0  0  0  0  0  0  0  0  0  0  0  0
   -1.4987   -0.4590   -2.9776 H   0  0  0  0  0  0  0  0  0  0  0  0
   -0.8779   -1.6082   -1.8122 H   0  0  0  0  0  0  0  0  0  0  0  0
   -2.7220    0.7588   -1.1394 H   0  0  0  0  0  0  0  0  0  0  0  0
   -3.2651   -0.8891   -1.4529 H   0  0  0  0  0  0  0  0  0  0  0  0
   -1.3546   -0.0948    0.8154 H   0  0  0  0  0  0  0  0  0  0  0  0
   -1.8898   -1.7189    0.4783 H   0  0  0  0  0  0  0  0  0  0  0  0
   -5.2403   -1.2526    1.7979 H   0  0  0  0  0  0  0  0  0  0  0  0
   -4.2003   -2.3570    0.9128 H   0  0  0  0  0  0  0  0  0  0  0  0
   -4.9758   -1.0000    0.0653 H   0  0  0  0  0  0  0  0  0  0  0  0
   -2.8579    1.5403    1.7552 H   0  0  0  0  0  0  0  0  0  0  0  0
   -4.4587    1.0416    2.2768 H   0  0  0  0  0  0  0  0  0  0  0  0
   -4.1563    1.3413    0.5575 H   0  0  0  0  0  0  0  0  0  0  0  0
    1.0422    4.0806   -3.0532 H   0  0  0  0  0  0  0  0  0  0  0  0
    1.7562    5.8288   -1.1763 H   0  0  0  0  0  0  0  0  0  0  0  0
  1  2  1  0
  2  3  2  0
  3  4  1  0
  4  5  2  0
  5  6  1  0
  6  7  1  0
  7  8  1  0
  8  9  1  0
  9 10  1  0
 10 11  1  0
 11 12  1  0
 12 13  1  0
 13 14  1  0
 13 15  1  0
  9 16  1  0
 16 17  2  0
 16 18  1  0
 18 19  2  0
 19 20  1  0
 20 21  2  0
 21 22  1  0
 21 23  1  0
  8 24  2  0
 24 25  1  0
 25  2  1  0
 25  6  2  0
 23 18  1  0
  1 26  1  0
  1 27  1  0
  1 28  1  0
  3 29  1  0
  4 30  1  0
  5 31  1  0
 10 32  1  0
 10 33  1  0
 11 34  1  0
 11 35  1  0
 12 36  1  0
 12 37  1  0
 14 38  1  0
 14 39  1  0
 14 40  1  0
 15 41  1  0
 15 42  1  0
 15 43  1  0
 19 44  1  0
 20 45  1  0
M  END
$$$$
