
     RDKit          3D

 42 46  0  0  0  0  0  0  0  0999 V2000
   -2.8396   -0.9292    2.8082 O   0  0  0  0  0  0  0  0  0  0  0  0
   -2.1416   -0.6670    1.8219 C   0  0  0  0  0  0  0  0  0  0  0  0
   -2.5308   -1.2754    0.5174 C   0  0  0  0  0  0  0  0  0  0  0  0
   -2.3917   -0.5945   -0.6974 C   0  0  0  0  0  0  0  0  0  0  0  0
   -2.7929   -1.2015   -1.8901 C   0  0  0  0  0  0  0  0  0  0  0  0
   -3.3439   -2.4826   -1.8733 C   0  0  0  0  0  0  0  0  0  0  0  0
   -3.5015   -3.1588   -0.6645 C   0  0  0  0  0  0  0  0  0  0  0  0
   -3.1015   -2.5554    0.5290 C   0  0  0  0  0  0  0  0  0  0  0  0
   -0.9853    0.3448    1.9027 C   0  0  0  0  0  0  0  0  0  0  0  0
   -1.5916    1.6376    1.6866 O   0  0  0  0  0  0  0  0  0  0  0  0
   -0.8166    2.6477    1.1811 C   0  0  0  0  0  0  0  0  0  0  0  0
   -1.4416    3.8878    1.0533 C   0  0  0  0  0  0  0  0  0  0  0  0
   -0.7394    4.9755    0.5353 C   0  0  0  0  0  0  0  0  0  0  0  0
    0.5904    4.8241    0.1458 C   0  0  0  0  0  0  0  0  0  0  0  0
    1.2194    3.5842    0.2696 C   0  0  0  0  0  0  0  0  0  0  0  0
    0.5147    2.4841    0.7757 C   0  0  0  0  0  0  0  0  0  0  0  0
    1.1473    1.1491    0.9682 C   0  0  0  0  0  0  0  0  0  0  0  0
    2.0834    0.6044   -0.0946 C   0  0  0  0  0  0  0  0  0  0  0  0
    1.7556   -0.8643    0.0642 C   0  0  0  0  0  0  0  0  0  0  0  0
    2.6174   -1.8928   -0.4683 C   0  0  0  0  0  0  0  0  0  0  0  0
    3.7811   -1.7516   -1.2027 C   0  0  0  0  0  0  0  0  0  0  0  0
    4.3617   -3.0056   -1.5559 C   0  0  0  0  0  0  0  0  0  0  0  0
    3.6231   -4.0651   -1.0821 C   0  0  0  0  0  0  0  0  0  0  0  0
    2.2418   -3.5476   -0.2204 S   0  0  0  0  0  0  0  0  0  0  0  0
    0.6351   -1.0948    0.6918 N   0  0  0  0  0  0  0  0  0  0  0  0
    0.1180    0.1390    0.9889 N   0  0  0  0  0  0  0  0  0  0  0  0
   -1.9792    0.4093   -0.7352 H   0  0  0  0  0  0  0  0  0  0  0  0
   -2.6779   -0.6722   -2.8324 H   0  0  0  0  0  0  0  0  0  0  0  0
   -3.6552   -2.9527   -2.8026 H   0  0  0  0  0  0  0  0  0  0  0  0
   -3.9365   -4.1547   -0.6488 H   0  0  0  0  0  0  0  0  0  0  0  0
   -3.2319   -3.0862    1.4698 H   0  0  0  0  0  0  0  0  0  0  0  0
   -0.5831    0.3086    2.9231 H   0  0  0  0  0  0  0  0  0  0  0  0
   -2.4781    4.0063    1.3591 H   0  0  0  0  0  0  0  0  0  0  0  0
   -1.2299    5.9408    0.4393 H   0  0  0  0  0  0  0  0  0  0  0  0
    1.1380    5.6756   -0.2510 H   0  0  0  0  0  0  0  0  0  0  0  0
    2.2608    3.4899   -0.0280 H   0  0  0  0  0  0  0  0  0  0  0  0
    1.6460    1.1329    1.9480 H   0  0  0  0  0  0  0  0  0  0  0  0
    3.1315    0.8320    0.1132 H   0  0  0  0  0  0  0  0  0  0  0  0
    1.8207    0.9197   -1.1100 H   0  0  0  0  0  0  0  0  0  0  0  0
    4.2064   -0.7960   -1.4842 H   0  0  0  0  0  0  0  0  0  0  0  0
    5.2729   -3.1242   -2.1297 H   0  0  0  0  0  0  0  0  0  0  0  0
    3.8244   -5.1212   -1.2004 H   0  0  0  0  0  0  0  0  0  0  0  0
  1  2  2  0
  2  3  1  0
  3  4  2  0
  4  5  1  0
  5  6  2  0
  6  7  1  0
  7  8  2  0
  2  9  1  0
  9 10  1  0
 10 11  1  0
 11 12  2  0
 12 13  1  0
 13 14  2  0
 14 15  1  0
 15 16  2  0
 16 17  1  0
 17 18  1  0
 18 19  1  0
 19 20  1  0
 20 21  2  0
 21 22  1  0
 22 23  2  0
 23 24  1  0
 19 25  2  0
 25 26  1  0
  8  3  1  0
 26  9  1  0
 16 11  1  0
 26 17  1  0
 24 20  1  0
  4 27  1  0
  5 28  1  0
  6 29  1  0
  7 30  1  0
  8 31  1  0
  9 32  1  0
 12 33  1  0
 13 34  1  0
 14 35  1  0
 15 36  1  0
 17 37  1  0
 18 38  1  0
 18 39  1  0
 21 40  1  0
 22 41  1  0
 23 42  1  0
M  END
$$$$
