
     RDKit          3D

 35 36  0  0  0  0  0  0  0  0999 V2000
    3.9785    2.3944    1.1978 C   0  0  0  0  0  0  0  0  0  0  0  0
    3.7030    2.1148   -0.2691 C   0  0  0  0  0  0  0  0  0  0  0  0
    3.6471    0.6904   -0.5593 N   0  0  0  0  0  0  0  0  0  0  0  0
    4.7929    0.0893   -0.9570 N   0  0  0  0  0  0  0  0  0  0  0  0
    4.4369   -1.1756   -1.1648 C   0  0  0  0  0  0  0  0  0  0  0  0
    3.0764   -1.3777   -0.9104 C   0  0  0  0  0  0  0  0  0  0  0  0
    2.2636   -3.0582   -1.0886 Br  0  0  0  0  0  0  0  0  0  0  0  0
    2.5531   -0.1583   -0.5169 C   0  0  0  0  0  0  0  0  0  0  0  0
    1.2169    0.2528   -0.1138 C   0  0  0  0  0  0  0  0  0  0  0  0
    1.0160    1.3360    0.4244 O   0  0  0  0  0  0  0  0  0  0  0  0
    0.2231   -0.6633   -0.4008 N   0  0  0  0  0  0  0  0  0  0  0  0
   -1.1603   -0.5711   -0.1379 C   0  0  0  0  0  0  0  0  0  0  0  0
   -1.7720    0.5147    0.4905 C   0  0  0  0  0  0  0  0  0  0  0  0
   -3.1554    0.5218    0.7301 C   0  0  0  0  0  0  0  0  0  0  0  0
   -3.8006    1.7085    1.3848 C   0  0  0  0  0  0  0  0  0  0  0  0
   -3.9329   -0.5612    0.3052 C   0  0  0  0  0  0  0  0  0  0  0  0
   -3.3415   -1.6519   -0.3394 C   0  0  0  0  0  0  0  0  0  0  0  0
   -4.1725   -2.8296   -0.7553 C   0  0  0  0  0  0  0  0  0  0  0  0
   -1.9545   -1.6538   -0.5420 C   0  0  0  0  0  0  0  0  0  0  0  0
    4.0152    3.4733    1.3777 H   0  0  0  0  0  0  0  0  0  0  0  0
    3.2044    1.9667    1.8425 H   0  0  0  0  0  0  0  0  0  0  0  0
    4.9382    1.9653    1.5051 H   0  0  0  0  0  0  0  0  0  0  0  0
    4.5036    2.5420   -0.8851 H   0  0  0  0  0  0  0  0  0  0  0  0
    2.7728    2.5796   -0.6064 H   0  0  0  0  0  0  0  0  0  0  0  0
    5.1869   -1.8858   -1.4887 H   0  0  0  0  0  0  0  0  0  0  0  0
    0.5197   -1.5132   -0.8610 H   0  0  0  0  0  0  0  0  0  0  0  0
   -1.1956    1.3756    0.8140 H   0  0  0  0  0  0  0  0  0  0  0  0
   -3.1200    2.1759    2.1042 H   0  0  0  0  0  0  0  0  0  0  0  0
   -4.0786    2.4477    0.6273 H   0  0  0  0  0  0  0  0  0  0  0  0
   -4.6992    1.4111    1.9355 H   0  0  0  0  0  0  0  0  0  0  0  0
   -5.0074   -0.5537    0.4789 H   0  0  0  0  0  0  0  0  0  0  0  0
   -3.7477   -3.3144   -1.6406 H   0  0  0  0  0  0  0  0  0  0  0  0
   -5.1902   -2.5185   -1.0134 H   0  0  0  0  0  0  0  0  0  0  0  0
   -4.2211   -3.5591    0.0589 H   0  0  0  0  0  0  0  0  0  0  0  0
   -1.4988   -2.5145   -1.0263 H   0  0  0  0  0  0  0  0  0  0  0  0
  1  2  1  0
  2  3  1  0
  3  4  1  0
  4  5  2  0
  5  6  1  0
  6  7  1  0
  6  8  2  0
  8  9  1  0
  9 10  2  0
  9 11  1  0
 11 12  1  0
 12 13  2  0
 13 14  1  0
 14 15  1  0
 14 16  2  0
 16 17  1  0
 17 18  1  0
 17 19  2  0
  8  3  1  0
 19 12  1  0
  1 20  1  0
  1 21  1  0
  1 22  1  0
  2 23  1  0
  2 24  1  0
  5 25  1  0
 11 26  1  0
 13 27  1  0
 15 28  1  0
 15 29  1  0
 15 30  1  0
 16 31  1  0
 18 32  1  0
 18 33  1  0
 18 34  1  0
 19 35  1  0
M  END
$$$$
