
     RDKit          3D

 32 34  0  0  0  0  0  0  0  0999 V2000
    4.8079    2.7288    0.2513 O   0  0  0  0  0  0  0  0  0  0  0  0
    3.9128    2.6044    1.0979 N   0  0  0  0  0  4  0  0  0  0  0  0
    3.7314    3.3742    2.0512 O   0  0  0  0  0  1  0  0  0  0  0  0
    3.0037    1.4583    0.9639 C   0  0  0  0  0  0  0  0  0  0  0  0
    2.0233    1.2342    1.9430 C   0  0  0  0  0  0  0  0  0  0  0  0
    1.1512    0.1487    1.8164 C   0  0  0  0  0  0  0  0  0  0  0  0
    1.2475   -0.7067    0.7110 C   0  0  0  0  0  0  0  0  0  0  0  0
    0.3797   -1.7669    0.5935 O   0  0  0  0  0  0  0  0  0  0  0  0
   -0.9626   -1.4469    0.4522 C   0  0  0  0  0  0  0  0  0  0  0  0
   -1.8275   -2.1308    1.3164 C   0  0  0  0  0  0  0  0  0  0  0  0
   -3.1959   -1.9073    1.2450 C   0  0  0  0  0  0  0  0  0  0  0  0
   -3.6958   -1.0169    0.2985 C   0  0  0  0  0  0  0  0  0  0  0  0
   -2.8308   -0.3522   -0.5899 C   0  0  0  0  0  0  0  0  0  0  0  0
   -3.3349    0.5240   -1.5609 C   0  0  0  0  0  0  0  0  0  0  0  0
   -2.4708    1.1551   -2.4456 C   0  0  0  0  0  0  0  0  0  0  0  0
   -1.1226    0.8918   -2.3273 C   0  0  0  0  0  0  0  0  0  0  0  0
   -0.5996    0.0648   -1.3964 N   0  0  0  0  0  0  0  0  0  0  0  0
   -1.4347   -0.5610   -0.5314 C   0  0  0  0  0  0  0  0  0  0  0  0
    2.2492   -0.4875   -0.2422 C   0  0  0  0  0  0  0  0  0  0  0  0
    2.3870   -1.3744   -1.3885 N   0  0  0  0  0  4  0  0  0  0  0  0
    2.6118   -0.8443   -2.4870 O   0  0  0  0  0  0  0  0  0  0  0  0
    2.3488   -2.5951   -1.1818 O   0  0  0  0  0  1  0  0  0  0  0  0
    3.1292    0.5991   -0.1347 C   0  0  0  0  0  0  0  0  0  0  0  0
    1.9234    1.8933    2.8041 H   0  0  0  0  0  0  0  0  0  0  0  0
    0.3928   -0.0221    2.5775 H   0  0  0  0  0  0  0  0  0  0  0  0
   -1.4266   -2.8343    2.0416 H   0  0  0  0  0  0  0  0  0  0  0  0
   -3.8724   -2.4300    1.9166 H   0  0  0  0  0  0  0  0  0  0  0  0
   -4.7706   -0.8535    0.2463 H   0  0  0  0  0  0  0  0  0  0  0  0
   -4.4032    0.7108   -1.6397 H   0  0  0  0  0  0  0  0  0  0  0  0
   -2.8413    1.8282   -3.2104 H   0  0  0  0  0  0  0  0  0  0  0  0
   -0.4002    1.3489   -2.9982 H   0  0  0  0  0  0  0  0  0  0  0  0
    3.8900    0.7652   -0.8957 H   0  0  0  0  0  0  0  0  0  0  0  0
  1  2  2  0
  2  3  1  0
  2  4  1  0
  4  5  2  0
  5  6  1  0
  6  7  2  0
  7  8  1  0
  8  9  1  0
  9 10  2  0
 10 11  1  0
 11 12  2  0
 12 13  1  0
 13 14  2  0
 14 15  1  0
 15 16  2  0
 16 17  1  0
 17 18  2  0
  7 19  1  0
 19 20  1  0
 20 21  2  0
 20 22  1  0
 19 23  2  0
 23  4  1  0
 18  9  1  0
 18 13  1  0
  5 24  1  0
  6 25  1  0
 10 26  1  0
 11 27  1  0
 12 28  1  0
 14 29  1  0
 15 30  1  0
 16 31  1  0
 23 32  1  0
M  CHG  4   2   1   3  -1  20   1  22  -1
M  END
$$$$
