
     RDKit          3D

 47 50  0  0  0  0  0  0  0  0999 V2000
   -6.2744    0.3543    2.3429 C   0  0  0  0  0  0  0  0  0  0  0  0
   -5.8420    0.9247    0.9999 C   0  0  0  0  0  0  0  0  0  0  0  0
   -5.0627   -0.0585    0.2355 N   0  0  0  0  0  0  0  0  0  0  0  0
   -5.8327   -0.9021   -0.6884 C   0  0  0  0  0  0  0  0  0  0  0  0
   -5.9079   -0.2728   -2.0723 C   0  0  0  0  0  0  0  0  0  0  0  0
   -3.6814   -0.1652    0.3596 C   0  0  0  0  0  0  0  0  0  0  0  0
   -2.9563    0.5476    1.3314 C   0  0  0  0  0  0  0  0  0  0  0  0
   -1.5626    0.4451    1.4638 C   0  0  0  0  0  0  0  0  0  0  0  0
   -0.8357   -0.3820    0.6141 C   0  0  0  0  0  0  0  0  0  0  0  0
    0.6170   -0.4850    0.7558 C   0  0  0  0  0  0  0  0  0  0  0  0
    1.5151    0.0931   -0.0531 C   0  0  0  0  0  0  0  0  0  0  0  0
    1.1935    1.1026   -1.4445 S   0  0  0  0  0  0  0  0  0  0  0  0
    2.8815    1.2868   -1.6858 C   0  0  0  0  0  0  0  0  0  0  0  0
    3.6216    1.9630   -2.5164 N   0  0  0  0  0  0  0  0  0  0  0  0
    4.9361    1.7018   -2.1515 N   0  0  0  0  0  0  0  0  0  0  0  0
    4.9378    0.8553   -1.1270 C   0  0  0  0  0  0  0  0  0  0  0  0
    6.1132    0.3138   -0.4576 C   0  0  0  0  0  0  0  0  0  0  0  0
    6.9927    1.2085    0.1732 C   0  0  0  0  0  0  0  0  0  0  0  0
    8.1321    0.7432    0.8334 C   0  0  0  0  0  0  0  0  0  0  0  0
    8.4126   -0.6208    0.8620 C   0  0  0  0  0  0  0  0  0  0  0  0
    7.5598   -1.5202    0.2217 C   0  0  0  0  0  0  0  0  0  0  0  0
    6.4182   -1.0574   -0.4415 C   0  0  0  0  0  0  0  0  0  0  0  0
    5.4408   -2.2274   -1.2631 Cl  0  0  0  0  0  0  0  0  0  0  0  0
    3.6327    0.6131   -0.7871 N   0  0  0  0  0  0  0  0  0  0  0  0
    2.9755   -0.0753    0.2015 C   0  0  0  0  0  0  0  0  0  0  0  0
    3.5477   -0.6628    1.0995 O   0  0  0  0  0  0  0  0  0  0  0  0
   -1.5182   -1.1068   -0.3576 C   0  0  0  0  0  0  0  0  0  0  0  0
   -2.9125   -0.9953   -0.4758 C   0  0  0  0  0  0  0  0  0  0  0  0
   -6.8847   -0.5452    2.2099 H   0  0  0  0  0  0  0  0  0  0  0  0
   -5.4159    0.0831    2.9648 H   0  0  0  0  0  0  0  0  0  0  0  0
   -6.8709    1.0902    2.8910 H   0  0  0  0  0  0  0  0  0  0  0  0
   -6.7428    1.2005    0.4366 H   0  0  0  0  0  0  0  0  0  0  0  0
   -5.2965    1.8661    1.1303 H   0  0  0  0  0  0  0  0  0  0  0  0
   -6.8552   -1.0251   -0.3086 H   0  0  0  0  0  0  0  0  0  0  0  0
   -5.4316   -1.9202   -0.7416 H   0  0  0  0  0  0  0  0  0  0  0  0
   -6.3748    0.7168   -2.0301 H   0  0  0  0  0  0  0  0  0  0  0  0
   -6.5054   -0.9008   -2.7407 H   0  0  0  0  0  0  0  0  0  0  0  0
   -4.9160   -0.1519   -2.5177 H   0  0  0  0  0  0  0  0  0  0  0  0
   -3.4599    1.2058    2.0326 H   0  0  0  0  0  0  0  0  0  0  0  0
   -1.0640    1.0234    2.2381 H   0  0  0  0  0  0  0  0  0  0  0  0
    0.9478   -1.0781    1.6073 H   0  0  0  0  0  0  0  0  0  0  0  0
    6.7935    2.2791    0.1512 H   0  0  0  0  0  0  0  0  0  0  0  0
    8.8026    1.4472    1.3210 H   0  0  0  0  0  0  0  0  0  0  0  0
    9.3003   -0.9838    1.3745 H   0  0  0  0  0  0  0  0  0  0  0  0
    7.7943   -2.5818    0.2363 H   0  0  0  0  0  0  0  0  0  0  0  0
   -0.9846   -1.7661   -1.0379 H   0  0  0  0  0  0  0  0  0  0  0  0
   -3.3775   -1.5803   -1.2634 H   0  0  0  0  0  0  0  0  0  0  0  0
  1  2  1  0
  2  3  1  0
  3  4  1  0
  4  5  1  0
  3  6  1  0
  6  7  2  0
  7  8  1  0
  8  9  2  0
  9 10  1  0
 10 11  2  3
 11 12  1  0
 12 13  1  0
 13 14  2  0
 14 15  1  0
 15 16  2  0
 16 17  1  0
 17 18  2  0
 18 19  1  0
 19 20  2  0
 20 21  1  0
 21 22  2  0
 22 23  1  0
 16 24  1  0
 24 25  1  0
 25 26  2  0
  9 27  1  0
 27 28  2  0
 28  6  1  0
 25 11  1  0
 24 13  1  0
 22 17  1  0
  1 29  1  0
  1 30  1  0
  1 31  1  0
  2 32  1  0
  2 33  1  0
  4 34  1  0
  4 35  1  0
  5 36  1  0
  5 37  1  0
  5 38  1  0
  7 39  1  0
  8 40  1  0
 10 41  1  0
 18 42  1  0
 19 43  1  0
 20 44  1  0
 21 45  1  0
 27 46  1  0
 28 47  1  0
M  END
$$$$
