
     RDKit          3D

 48 51  0  0  0  0  0  0  0  0999 V2000
    3.8428    0.6402   -1.7480 C   0  0  0  0  0  0  0  0  0  0  0  0
    3.2408    1.4495   -0.5983 C   0  0  0  0  0  0  0  0  0  0  0  0
    1.9110    2.0641   -1.0337 C   0  0  0  0  0  0  0  0  0  0  0  0
    3.0740    0.5888    0.6615 C   0  0  0  0  0  0  0  0  0  0  0  0
    2.1797   -0.4984    0.4012 O   0  0  0  0  0  0  0  0  0  0  0  0
    2.0434   -1.3627    1.4386 C   0  0  0  0  0  0  0  0  0  0  0  0
    2.6405   -1.3179    2.5029 O   0  0  0  0  0  0  0  0  0  0  0  0
    1.1704   -2.4852    1.0230 C   0  0  0  0  0  0  0  0  0  0  0  0
    1.6991   -3.7674    1.2563 C   0  0  0  0  0  0  0  0  0  0  0  0
    1.0518   -4.9024    0.7698 C   0  0  0  0  0  0  0  0  0  0  0  0
   -0.1249   -4.7662    0.0400 C   0  0  0  0  0  0  0  0  0  0  0  0
   -0.6707   -3.4991   -0.1825 C   0  0  0  0  0  0  0  0  0  0  0  0
   -0.0432   -2.3472    0.3254 C   0  0  0  0  0  0  0  0  0  0  0  0
   -0.7041   -1.0896    0.1691 N   0  0  0  0  0  0  0  0  0  0  0  0
   -0.8273   -0.0942    1.1627 C   0  0  0  0  0  0  0  0  0  0  0  0
   -0.3521   -0.2481    2.3934 O   0  0  0  0  0  0  0  0  0  0  0  0
   -1.5501    0.9252    0.6181 C   0  0  0  0  0  0  0  0  0  0  0  0
   -1.9315    0.5654   -0.6855 C   0  0  0  0  0  0  0  0  0  0  0  0
   -1.4303   -0.6710   -0.9688 C   0  0  0  0  0  0  0  0  0  0  0  0
   -1.5111   -1.3940   -2.0821 O   0  0  0  0  0  0  0  0  0  0  0  0
   -2.7561    1.6882   -1.2324 C   0  0  0  0  0  0  0  0  0  0  0  0
   -4.1002    1.7082   -0.4588 C   0  0  0  0  0  0  0  0  0  0  0  0
   -3.6810    2.1034    0.9957 C   0  0  0  0  0  0  0  0  0  0  0  0
   -2.1422    2.2702    0.8990 C   0  0  0  0  0  0  0  0  0  0  0  0
   -2.0516    2.8956   -0.5318 C   0  0  0  0  0  0  0  0  0  0  0  0
    4.8028    0.2032   -1.4535 H   0  0  0  0  0  0  0  0  0  0  0  0
    4.0206    1.2801   -2.6189 H   0  0  0  0  0  0  0  0  0  0  0  0
    3.1806   -0.1744   -2.0602 H   0  0  0  0  0  0  0  0  0  0  0  0
    3.9317    2.2670   -0.3570 H   0  0  0  0  0  0  0  0  0  0  0  0
    1.1958    1.2975   -1.3480 H   0  0  0  0  0  0  0  0  0  0  0  0
    2.0591    2.7472   -1.8769 H   0  0  0  0  0  0  0  0  0  0  0  0
    1.4621    2.6364   -0.2154 H   0  0  0  0  0  0  0  0  0  0  0  0
    4.0522    0.1967    0.9665 H   0  0  0  0  0  0  0  0  0  0  0  0
    2.6681    1.1996    1.4771 H   0  0  0  0  0  0  0  0  0  0  0  0
    2.6363   -3.8789    1.7993 H   0  0  0  0  0  0  0  0  0  0  0  0
    1.4724   -5.8884    0.9495 H   0  0  0  0  0  0  0  0  0  0  0  0
   -0.6314   -5.6476   -0.3458 H   0  0  0  0  0  0  0  0  0  0  0  0
   -1.6161   -3.4344   -0.7166 H   0  0  0  0  0  0  0  0  0  0  0  0
   -0.5649    0.5586    2.8940 H   0  0  0  0  0  0  0  0  0  0  0  0
   -2.0058   -0.8631   -2.7304 H   0  0  0  0  0  0  0  0  0  0  0  0
   -2.8281    1.7449   -2.3183 H   0  0  0  0  0  0  0  0  0  0  0  0
   -4.7771    2.4658   -0.8693 H   0  0  0  0  0  0  0  0  0  0  0  0
   -4.6099    0.7388   -0.4765 H   0  0  0  0  0  0  0  0  0  0  0  0
   -4.1603    3.0478    1.2768 H   0  0  0  0  0  0  0  0  0  0  0  0
   -3.9756    1.3341    1.7177 H   0  0  0  0  0  0  0  0  0  0  0  0
   -1.6714    2.8429    1.6977 H   0  0  0  0  0  0  0  0  0  0  0  0
   -1.0173    3.0322   -0.8689 H   0  0  0  0  0  0  0  0  0  0  0  0
   -2.6006    3.8385   -0.6311 H   0  0  0  0  0  0  0  0  0  0  0  0
  1  2  1  0
  2  3  1  0
  2  4  1  0
  4  5  1  0
  5  6  1  0
  6  7  2  0
  6  8  1  0
  8  9  2  0
  9 10  1  0
 10 11  2  0
 11 12  1  0
 12 13  2  0
 13 14  1  0
 14 15  1  0
 15 16  1  0
 15 17  2  0
 17 18  1  0
 18 19  2  0
 19 20  1  0
 18 21  1  0
 21 22  1  0
 22 23  1  0
 23 24  1  0
 24 25  1  0
 13  8  1  0
 19 14  1  0
 25 21  1  0
 24 17  1  0
  1 26  1  0
  1 27  1  0
  1 28  1  0
  2 29  1  0
  3 30  1  0
  3 31  1  0
  3 32  1  0
  4 33  1  0
  4 34  1  0
  9 35  1  0
 10 36  1  0
 11 37  1  0
 12 38  1  0
 16 39  1  0
 20 40  1  0
 21 41  1  0
 22 42  1  0
 22 43  1  0
 23 44  1  0
 23 45  1  0
 24 46  1  0
 25 47  1  0
 25 48  1  0
M  END
$$$$
