
     RDKit          3D

 43 44  0  0  0  0  0  0  0  0999 V2000
    7.6462   -1.0741    0.5098 C   0  0  0  0  0  0  0  0  0  0  0  0
    6.5454   -0.3916   -0.0989 O   0  0  0  0  0  0  0  0  0  0  0  0
    5.3338   -0.7164    0.4232 C   0  0  0  0  0  0  0  0  0  0  0  0
    5.1377   -1.5176    1.3207 O   0  0  0  0  0  0  0  0  0  0  0  0
    4.2489    0.0646   -0.2308 C   0  0  0  0  0  0  0  0  0  0  0  0
    4.4590    0.8066   -1.4030 C   0  0  0  0  0  0  0  0  0  0  0  0
    3.4097    1.5345   -1.9739 C   0  0  0  0  0  0  0  0  0  0  0  0
    2.1411    1.5198   -1.3898 C   0  0  0  0  0  0  0  0  0  0  0  0
    1.1258    2.3351   -1.9225 N   0  0  0  0  0  0  0  0  0  0  0  0
    1.9269    0.7717   -0.2057 C   0  0  0  0  0  0  0  0  0  0  0  0
    0.6569    0.7352    0.4047 N   0  0  0  0  0  0  0  0  0  0  0  0
   -0.1834   -0.0979   -0.1227 C   0  0  0  0  0  0  0  0  0  0  0  0
   -1.6011   -0.1589    0.3730 C   0  0  0  0  0  0  0  0  0  0  0  0
   -2.5134    0.6862   -0.4797 C   0  0  0  0  0  0  0  0  0  0  0  0
   -2.0942    1.3720   -1.4139 O   0  0  0  0  0  0  0  0  0  0  0  0
   -3.9878    0.7018   -0.1180 C   0  0  0  0  0  0  0  0  0  0  0  0
   -4.4685   -0.5741    0.6097 C   0  0  0  0  0  0  0  0  0  0  0  0
   -5.9256   -0.8673    0.1906 C   0  0  0  0  0  0  0  0  0  0  0  0
   -4.4606   -0.3668    2.1368 C   0  0  0  0  0  0  0  0  0  0  0  0
   -3.6053   -1.7908    0.2221 C   0  0  0  0  0  0  0  0  0  0  0  0
   -2.1189   -1.5729    0.4409 C   0  0  0  0  0  0  0  0  0  0  0  0
   -1.3717   -2.5340    0.6210 O   0  0  0  0  0  0  0  0  0  0  0  0
    2.9800    0.0492    0.3619 C   0  0  0  0  0  0  0  0  0  0  0  0
    8.5685   -0.7495    0.0182 H   0  0  0  0  0  0  0  0  0  0  0  0
    7.5470   -2.1549    0.3750 H   0  0  0  0  0  0  0  0  0  0  0  0
    7.7127   -0.8161    1.5712 H   0  0  0  0  0  0  0  0  0  0  0  0
    5.4375    0.8391   -1.8769 H   0  0  0  0  0  0  0  0  0  0  0  0
    3.5939    2.1357   -2.8618 H   0  0  0  0  0  0  0  0  0  0  0  0
    1.0129    2.2434   -2.9359 H   0  0  0  0  0  0  0  0  0  0  0  0
    0.2354    2.2056   -1.4296 H   0  0  0  0  0  0  0  0  0  0  0  0
    0.0795   -0.7368   -0.9872 H   0  0  0  0  0  0  0  0  0  0  0  0
   -1.6157    0.2635    1.3838 H   0  0  0  0  0  0  0  0  0  0  0  0
   -4.5305    0.8197   -1.0664 H   0  0  0  0  0  0  0  0  0  0  0  0
   -4.1833    1.5987    0.4804 H   0  0  0  0  0  0  0  0  0  0  0  0
   -6.5953   -0.0446    0.4711 H   0  0  0  0  0  0  0  0  0  0  0  0
   -6.0001   -1.0041   -0.8955 H   0  0  0  0  0  0  0  0  0  0  0  0
   -6.3006   -1.7825    0.6646 H   0  0  0  0  0  0  0  0  0  0  0  0
   -4.8171   -1.2647    2.6550 H   0  0  0  0  0  0  0  0  0  0  0  0
   -3.4649   -0.1381    2.5263 H   0  0  0  0  0  0  0  0  0  0  0  0
   -5.1206    0.4606    2.4248 H   0  0  0  0  0  0  0  0  0  0  0  0
   -3.7340   -2.0248   -0.8433 H   0  0  0  0  0  0  0  0  0  0  0  0
   -3.9099   -2.6740    0.7969 H   0  0  0  0  0  0  0  0  0  0  0  0
    2.8037   -0.5201    1.2733 H   0  0  0  0  0  0  0  0  0  0  0  0
  1  2  1  0
  2  3  1  0
  3  4  2  0
  3  5  1  0
  5  6  2  0
  6  7  1  0
  7  8  2  0
  8  9  1  0
  8 10  1  0
 10 11  1  0
 11 12  2  3
 12 13  1  0
 13 14  1  0
 14 15  2  0
 14 16  1  0
 16 17  1  0
 17 18  1  0
 17 19  1  0
 17 20  1  0
 20 21  1  0
 21 22  2  0
 10 23  2  0
 23  5  1  0
 21 13  1  0
  1 24  1  0
  1 25  1  0
  1 26  1  0
  6 27  1  0
  7 28  1  0
  9 29  1  0
  9 30  1  0
 12 31  1  0
 13 32  1  0
 16 33  1  0
 16 34  1  0
 18 35  1  0
 18 36  1  0
 18 37  1  0
 19 38  1  0
 19 39  1  0
 19 40  1  0
 20 41  1  0
 20 42  1  0
 23 43  1  0
M  END
$$$$
