
     RDKit          3D

 42 44  0  0  0  0  0  0  0  0999 V2000
   -6.5134   -1.0941    1.1401 C   0  0  0  0  0  0  0  0  0  0  0  0
   -5.2126   -0.5536    0.6233 C   0  0  0  0  0  0  0  0  0  0  0  0
   -4.6248   -1.1003   -0.5224 C   0  0  0  0  0  0  0  0  0  0  0  0
   -3.3925   -0.6274   -1.0017 C   0  0  0  0  0  0  0  0  0  0  0  0
   -2.8024   -1.2506   -2.2400 C   0  0  0  0  0  0  0  0  0  0  0  0
   -2.7354    0.4130   -0.3078 C   0  0  0  0  0  0  0  0  0  0  0  0
   -1.4658    0.9223   -0.8025 C   0  0  0  0  0  0  0  0  0  0  0  0
   -1.3665    2.0518   -1.5897 C   0  0  0  0  0  0  0  0  0  0  0  0
    0.2801    2.3301   -1.9727 S   0  0  0  0  0  0  0  0  0  0  0  0
    0.7144    0.9420   -1.0859 C   0  0  0  0  0  0  0  0  0  0  0  0
    2.0086    0.5158   -0.9392 N   0  0  0  0  0  0  0  0  0  0  0  0
    3.1272    1.0597   -1.5118 C   0  0  0  0  0  0  0  0  0  0  0  0
    3.1987    1.9815   -2.3132 O   0  0  0  0  0  0  0  0  0  0  0  0
    4.3846    0.3618   -1.1302 C   0  0  0  0  0  0  0  0  0  0  0  0
    4.6540    0.0091    0.1367 C   0  0  0  0  0  0  0  0  0  0  0  0
    5.8665   -0.6241    0.5519 C   0  0  0  0  0  0  0  0  0  0  0  0
    6.2972   -0.8065    1.8587 C   0  0  0  0  0  0  0  0  0  0  0  0
    7.5470   -1.4836    1.9563 C   0  0  0  0  0  0  0  0  0  0  0  0
    8.0449   -1.8149    0.7190 C   0  0  0  0  0  0  0  0  0  0  0  0
    7.0101   -1.3126   -0.5409 S   0  0  0  0  0  0  0  0  0  0  0  0
   -0.2709    0.2896   -0.5153 N   0  0  0  0  0  0  0  0  0  0  0  0
   -3.3040    0.9492    0.8690 C   0  0  0  0  0  0  0  0  0  0  0  0
   -2.6249    2.0398    1.6558 C   0  0  0  0  0  0  0  0  0  0  0  0
   -4.5413    0.4586    1.3173 C   0  0  0  0  0  0  0  0  0  0  0  0
   -6.3255   -1.9240    1.8288 H   0  0  0  0  0  0  0  0  0  0  0  0
   -7.0785   -0.3172    1.6667 H   0  0  0  0  0  0  0  0  0  0  0  0
   -7.1424   -1.4520    0.3175 H   0  0  0  0  0  0  0  0  0  0  0  0
   -5.1335   -1.9066   -1.0483 H   0  0  0  0  0  0  0  0  0  0  0  0
   -2.6777   -0.4986   -3.0260 H   0  0  0  0  0  0  0  0  0  0  0  0
   -3.4513   -2.0364   -2.6415 H   0  0  0  0  0  0  0  0  0  0  0  0
   -1.8350   -1.7106   -2.0130 H   0  0  0  0  0  0  0  0  0  0  0  0
   -2.1521    2.7034   -1.9448 H   0  0  0  0  0  0  0  0  0  0  0  0
    2.0795   -0.3239   -0.3833 H   0  0  0  0  0  0  0  0  0  0  0  0
    5.0864    0.2470   -1.9489 H   0  0  0  0  0  0  0  0  0  0  0  0
    3.9397    0.2403    0.9242 H   0  0  0  0  0  0  0  0  0  0  0  0
    5.7370   -0.4604    2.7198 H   0  0  0  0  0  0  0  0  0  0  0  0
    8.0520   -1.7157    2.8862 H   0  0  0  0  0  0  0  0  0  0  0  0
    8.9682   -2.3303    0.4923 H   0  0  0  0  0  0  0  0  0  0  0  0
   -2.6257    2.9754    1.0876 H   0  0  0  0  0  0  0  0  0  0  0  0
   -1.5952    1.7577    1.8999 H   0  0  0  0  0  0  0  0  0  0  0  0
   -3.1387    2.2274    2.6048 H   0  0  0  0  0  0  0  0  0  0  0  0
   -4.9861    0.8676    2.2232 H   0  0  0  0  0  0  0  0  0  0  0  0
  1  2  1  0
  2  3  2  0
  3  4  1  0
  4  5  1  0
  4  6  2  0
  6  7  1  0
  7  8  2  0
  8  9  1  0
  9 10  1  0
 10 11  1  0
 11 12  1  0
 12 13  2  0
 12 14  1  0
 14 15  2  3
 15 16  1  0
 16 17  2  0
 17 18  1  0
 18 19  2  0
 19 20  1  0
 10 21  2  0
  6 22  1  0
 22 23  1  0
 22 24  2  0
 24  2  1  0
 21  7  1  0
 20 16  1  0
  1 25  1  0
  1 26  1  0
  1 27  1  0
  3 28  1  0
  5 29  1  0
  5 30  1  0
  5 31  1  0
  8 32  1  0
 11 33  1  0
 14 34  1  0
 15 35  1  0
 17 36  1  0
 18 37  1  0
 19 38  1  0
 23 39  1  0
 23 40  1  0
 23 41  1  0
 24 42  1  0
M  END
$$$$
