
     RDKit          3D

 41 42  0  0  0  0  0  0  0  0999 V2000
    4.3302   -2.5491    0.9730 C   0  0  0  0  0  0  0  0  0  0  0  0
    3.2757   -1.6402    0.6747 O   0  0  0  0  0  0  0  0  0  0  0  0
    3.6193   -0.4533    0.0671 C   0  0  0  0  0  0  0  0  0  0  0  0
    4.9161   -0.0995   -0.3163 C   0  0  0  0  0  0  0  0  0  0  0  0
    5.1393    1.1409   -0.9323 C   0  0  0  0  0  0  0  0  0  0  0  0
    6.5012    1.5143   -1.3364 N   0  0  0  0  0  4  0  0  0  0  0  0
    7.4125    0.7087   -1.0975 O   0  0  0  0  0  0  0  0  0  0  0  0
    6.6599    2.6094   -1.8932 O   0  0  0  0  0  1  0  0  0  0  0  0
    4.0812    2.0241   -1.1696 C   0  0  0  0  0  0  0  0  0  0  0  0
    2.7859    1.6666   -0.7865 C   0  0  0  0  0  0  0  0  0  0  0  0
    2.5460    0.4374   -0.1655 C   0  0  0  0  0  0  0  0  0  0  0  0
    1.2640    0.0104    0.2418 N   0  0  0  0  0  0  0  0  0  0  0  0
    0.0880    0.7365    0.2678 C   0  0  0  0  0  0  0  0  0  0  0  0
   -0.0271    1.9245   -0.0097 O   0  0  0  0  0  0  0  0  0  0  0  0
   -0.9746   -0.0822    0.6652 N   0  0  0  0  0  0  0  0  0  0  0  0
   -2.2791    0.4553    0.7317 N   0  0  0  0  0  0  0  0  0  0  0  0
   -3.0407   -0.1233    1.8524 C   0  0  0  0  0  0  0  0  0  0  0  0
   -4.5611    0.0232    1.6528 C   0  0  0  0  0  0  0  0  0  0  0  0
   -5.0489   -0.7374    0.4828 N   0  0  0  0  0  0  0  0  0  0  0  0
   -6.3394   -0.2159    0.0391 C   0  0  0  0  0  0  0  0  0  0  0  0
   -4.0558   -0.7524   -0.6103 C   0  0  0  0  0  0  0  0  0  0  0  0
   -3.0026    0.3741   -0.5513 C   0  0  0  0  0  0  0  0  0  0  0  0
    5.0523   -2.1027    1.6645 H   0  0  0  0  0  0  0  0  0  0  0  0
    4.8185   -2.8989    0.0577 H   0  0  0  0  0  0  0  0  0  0  0  0
    3.8893   -3.4195    1.4683 H   0  0  0  0  0  0  0  0  0  0  0  0
    5.7534   -0.7688   -0.1468 H   0  0  0  0  0  0  0  0  0  0  0  0
    4.2403    2.9885   -1.6484 H   0  0  0  0  0  0  0  0  0  0  0  0
    1.9813    2.3684   -0.9887 H   0  0  0  0  0  0  0  0  0  0  0  0
    1.2572   -0.8869    0.7099 H   0  0  0  0  0  0  0  0  0  0  0  0
   -0.8837   -1.0710    0.4629 H   0  0  0  0  0  0  0  0  0  0  0  0
   -2.7450    0.3818    2.7793 H   0  0  0  0  0  0  0  0  0  0  0  0
   -2.8054   -1.1895    1.9776 H   0  0  0  0  0  0  0  0  0  0  0  0
   -5.0775   -0.3420    2.5483 H   0  0  0  0  0  0  0  0  0  0  0  0
   -4.7985    1.0919    1.5577 H   0  0  0  0  0  0  0  0  0  0  0  0
   -6.2643    0.8124   -0.3326 H   0  0  0  0  0  0  0  0  0  0  0  0
   -7.0656   -0.2359    0.8594 H   0  0  0  0  0  0  0  0  0  0  0  0
   -6.7518   -0.8424   -0.7597 H   0  0  0  0  0  0  0  0  0  0  0  0
   -4.5426   -0.7459   -1.5937 H   0  0  0  0  0  0  0  0  0  0  0  0
   -3.5283   -1.7137   -0.5525 H   0  0  0  0  0  0  0  0  0  0  0  0
   -2.3081    0.2680   -1.3943 H   0  0  0  0  0  0  0  0  0  0  0  0
   -3.5117    1.3342   -0.7052 H   0  0  0  0  0  0  0  0  0  0  0  0
  1  2  1  0
  2  3  1  0
  3  4  2  0
  4  5  1  0
  5  6  1  0
  6  7  2  0
  6  8  1  0
  5  9  2  0
  9 10  1  0
 10 11  2  0
 11 12  1  0
 12 13  1  0
 13 14  2  0
 13 15  1  0
 15 16  1  0
 16 17  1  0
 17 18  1  0
 18 19  1  0
 19 20  1  0
 19 21  1  0
 21 22  1  0
 11  3  1  0
 22 16  1  0
  1 23  1  0
  1 24  1  0
  1 25  1  0
  4 26  1  0
  9 27  1  0
 10 28  1  0
 12 29  1  0
 15 30  1  0
 17 31  1  0
 17 32  1  0
 18 33  1  0
 18 34  1  0
 20 35  1  0
 20 36  1  0
 20 37  1  0
 21 38  1  0
 21 39  1  0
 22 40  1  0
 22 41  1  0
M  CHG  2   6   1   8  -1
M  END
$$$$
