
     RDKit          3D

 57 61  0  0  0  0  0  0  0  0999 V2000
   -8.0715   -1.0698    3.1870 C   0  0  0  0  0  0  0  0  0  0  0  0
   -6.9746   -0.7270    2.2239 C   0  0  0  0  0  0  0  0  0  0  0  0
   -7.2794   -0.2119    0.9627 C   0  0  0  0  0  0  0  0  0  0  0  0
   -6.2570    0.1341    0.0725 C   0  0  0  0  0  0  0  0  0  0  0  0
   -4.8998   -0.0176    0.4101 C   0  0  0  0  0  0  0  0  0  0  0  0
   -3.8384    0.3493   -0.5530 C   0  0  0  0  0  0  0  0  0  0  0  0
   -2.5955   -0.2602   -0.5800 C   0  0  0  0  0  0  0  0  0  0  0  0
   -1.6656    0.1621   -1.5337 C   0  0  0  0  0  0  0  0  0  0  0  0
   -0.3401   -0.5011   -1.5345 C   0  0  0  0  0  0  0  0  0  0  0  0
    0.0153   -1.0985   -2.5401 O   0  0  0  0  0  0  0  0  0  0  0  0
    0.3554   -0.3447   -0.3496 N   0  0  0  0  0  0  0  0  0  0  0  0
    1.6192   -0.8793   -0.0244 C   0  0  0  0  0  0  0  0  0  0  0  0
    2.3527   -1.7153   -0.8709 C   0  0  0  0  0  0  0  0  0  0  0  0
    3.6000   -2.2102   -0.4751 C   0  0  0  0  0  0  0  0  0  0  0  0
    4.1190   -1.8618    0.7731 C   0  0  0  0  0  0  0  0  0  0  0  0
    5.6873   -2.5250    1.2797 S   0  0  0  0  0  6  0  0  0  0  0  0
    5.7131   -3.9024    0.8269 O   0  0  0  0  0  0  0  0  0  0  0  0
    5.9060   -2.2197    2.6779 O   0  0  0  0  0  0  0  0  0  0  0  0
    6.7818   -1.7131    0.3336 N   0  0  0  0  0  0  0  0  0  0  0  0
    7.1851   -0.4518    0.7503 C   0  0  0  0  0  0  0  0  0  0  0  0
    6.2674    0.4237    1.1650 N   0  0  0  0  0  0  0  0  0  0  0  0
    6.7189    1.6679    1.4033 C   0  0  0  0  0  0  0  0  0  0  0  0
    8.0215    2.0550    1.1929 C   0  0  0  0  0  0  0  0  0  0  0  0
    8.8590    1.0771    0.7078 C   0  0  0  0  0  0  0  0  0  0  0  0
    8.4624   -0.1850    0.4598 N   0  0  0  0  0  0  0  0  0  0  0  0
    3.3923   -1.0416    1.6363 C   0  0  0  0  0  0  0  0  0  0  0  0
    2.1481   -0.5490    1.2323 C   0  0  0  0  0  0  0  0  0  0  0  0
   -1.9801    1.1696   -2.4683 C   0  0  0  0  0  0  0  0  0  0  0  0
   -1.1025    1.6520   -3.4727 C   0  0  0  0  0  0  0  0  0  0  0  0
   -1.4997    2.6578   -4.3516 C   0  0  0  0  0  0  0  0  0  0  0  0
   -2.7724    3.1978   -4.2389 C   0  0  0  0  0  0  0  0  0  0  0  0
   -3.6377    2.7270   -3.2483 C   0  0  0  0  0  0  0  0  0  0  0  0
   -3.2667    1.7242   -2.3615 C   0  0  0  0  0  0  0  0  0  0  0  0
   -4.1568    1.3304   -1.4339 N   0  0  0  0  0  0  0  0  0  0  0  0
   -4.6131   -0.5172    1.6933 C   0  0  0  0  0  0  0  0  0  0  0  0
   -5.6333   -0.8635    2.5883 C   0  0  0  0  0  0  0  0  0  0  0  0
   -8.4241   -0.1647    3.6900 H   0  0  0  0  0  0  0  0  0  0  0  0
   -7.7238   -1.7786    3.9457 H   0  0  0  0  0  0  0  0  0  0  0  0
   -8.9116   -1.5386    2.6643 H   0  0  0  0  0  0  0  0  0  0  0  0
   -8.3143   -0.0747    0.6589 H   0  0  0  0  0  0  0  0  0  0  0  0
   -6.5298    0.5288   -0.9057 H   0  0  0  0  0  0  0  0  0  0  0  0
   -2.3536   -1.0739    0.0953 H   0  0  0  0  0  0  0  0  0  0  0  0
   -0.0650    0.2518    0.3531 H   0  0  0  0  0  0  0  0  0  0  0  0
    1.9800   -2.0071   -1.8482 H   0  0  0  0  0  0  0  0  0  0  0  0
    4.1531   -2.8666   -1.1433 H   0  0  0  0  0  0  0  0  0  0  0  0
    7.5442   -2.2891   -0.0024 H   0  0  0  0  0  0  0  0  0  0  0  0
    5.9776    2.3682    1.7777 H   0  0  0  0  0  0  0  0  0  0  0  0
    8.3617    3.0623    1.3872 H   0  0  0  0  0  0  0  0  0  0  0  0
    9.9032    1.2868    0.4945 H   0  0  0  0  0  0  0  0  0  0  0  0
    3.7898   -0.7748    2.6131 H   0  0  0  0  0  0  0  0  0  0  0  0
    1.6018    0.0962    1.9156 H   0  0  0  0  0  0  0  0  0  0  0  0
   -0.1028    1.2347   -3.5846 H   0  0  0  0  0  0  0  0  0  0  0  0
   -0.8187    3.0106   -5.1221 H   0  0  0  0  0  0  0  0  0  0  0  0
   -3.0990    3.9807   -4.9187 H   0  0  0  0  0  0  0  0  0  0  0  0
   -4.6347    3.1548   -3.1671 H   0  0  0  0  0  0  0  0  0  0  0  0
   -3.5857   -0.6306    2.0304 H   0  0  0  0  0  0  0  0  0  0  0  0
   -5.3689   -1.2389    3.5745 H   0  0  0  0  0  0  0  0  0  0  0  0
  1  2  1  0
  2  3  2  0
  3  4  1  0
  4  5  2  0
  5  6  1  0
  6  7  2  0
  7  8  1  0
  8  9  1  0
  9 10  2  0
  9 11  1  0
 11 12  1  0
 12 13  2  0
 13 14  1  0
 14 15  2  0
 15 16  1  0
 16 17  2  0
 16 18  2  0
 16 19  1  0
 19 20  1  0
 20 21  2  0
 21 22  1  0
 22 23  2  0
 23 24  1  0
 24 25  2  0
 15 26  1  0
 26 27  2  0
  8 28  2  0
 28 29  1  0
 29 30  2  0
 30 31  1  0
 31 32  2  0
 32 33  1  0
 33 34  2  0
  5 35  1  0
 35 36  2  0
 36  2  1  0
 34  6  1  0
 27 12  1  0
 33 28  1  0
 25 20  1  0
  1 37  1  0
  1 38  1  0
  1 39  1  0
  3 40  1  0
  4 41  1  0
  7 42  1  0
 11 43  1  0
 13 44  1  0
 14 45  1  0
 19 46  1  0
 22 47  1  0
 23 48  1  0
 24 49  1  0
 26 50  1  0
 27 51  1  0
 29 52  1  0
 30 53  1  0
 31 54  1  0
 32 55  1  0
 35 56  1  0
 36 57  1  0
M  END
$$$$
