
     RDKit          3D

 65 69  0  0  0  0  0  0  0  0999 V2000
    5.0899   -0.1310    3.1634 C   0  0  0  0  0  0  0  0  0  0  0  0
    4.3132    0.4619    2.1300 O   0  0  0  0  0  0  0  0  0  0  0  0
    2.9519    0.4524    2.2867 C   0  0  0  0  0  0  0  0  0  0  0  0
    2.3016    0.1701    3.4885 C   0  0  0  0  0  0  0  0  0  0  0  0
    0.9066    0.1942    3.5652 C   0  0  0  0  0  0  0  0  0  0  0  0
    0.1192    0.5138    2.4482 C   0  0  0  0  0  0  0  0  0  0  0  0
   -1.4036    0.5468    2.6102 C   0  0  0  0  0  0  0  0  0  0  0  0
   -1.9995    1.9144    2.2259 C   0  0  0  0  0  0  0  0  0  0  0  0
   -3.2155    2.1783    3.0225 C   0  0  0  0  0  0  0  0  0  0  0  0
   -4.1567    2.3781    3.6705 N   0  0  0  0  0  0  0  0  0  0  0  0
   -2.3687    2.0478    0.7368 C   0  0  0  0  0  0  0  0  0  0  0  0
   -2.6016    3.2492    0.2773 N   0  0  0  0  0  0  0  0  0  0  0  0
   -2.4440    0.8914   -0.0701 N   0  0  0  0  0  0  0  0  0  0  0  0
   -2.8931    1.0683   -1.4277 C   0  0  0  0  0  0  0  0  0  0  0  0
   -2.0596    1.7285   -2.3513 C   0  0  0  0  0  0  0  0  0  0  0  0
   -2.4638    1.9043   -3.6759 C   0  0  0  0  0  0  0  0  0  0  0  0
   -3.7058    1.4293   -4.0973 C   0  0  0  0  0  0  0  0  0  0  0  0
   -4.5468    0.7755   -3.1961 C   0  0  0  0  0  0  0  0  0  0  0  0
   -4.1486    0.5911   -1.8638 C   0  0  0  0  0  0  0  0  0  0  0  0
   -5.0355   -0.0845   -0.9621 C   0  0  0  0  0  0  0  0  0  0  0  0
   -5.7266   -0.6605   -0.2288 N   0  0  0  0  0  0  0  0  0  0  0  0
   -2.1327   -0.4099    0.3896 C   0  0  0  0  0  0  0  0  0  0  0  0
   -1.7779   -1.4419   -0.4069 C   0  0  0  0  0  0  0  0  0  0  0  0
   -1.4355   -2.8205    0.0752 C   0  0  0  0  0  0  0  0  0  0  0  0
   -1.9820   -3.1310    1.4567 C   0  0  0  0  0  0  0  0  0  0  0  0
   -1.7399   -1.9719    2.3863 C   0  0  0  0  0  0  0  0  0  0  0  0
   -1.3564   -2.1632    3.5427 O   0  0  0  0  0  0  0  0  0  0  0  0
   -2.1694   -0.5862    1.8956 C   0  0  0  0  0  0  0  0  0  0  0  0
    0.7803    0.8092    1.2465 C   0  0  0  0  0  0  0  0  0  0  0  0
    2.1882    0.7775    1.1517 C   0  0  0  0  0  0  0  0  0  0  0  0
    2.8466    1.0546   -0.1900 C   0  0  0  0  0  0  0  0  0  0  0  0
    3.3208   -0.1658   -0.8527 N   0  0  0  0  0  0  0  0  0  0  0  0
    2.2570   -1.0416   -1.3328 C   0  0  0  0  0  0  0  0  0  0  0  0
    2.9901   -1.9914   -2.2737 C   0  0  0  0  0  0  0  0  0  0  0  0
    4.2445   -1.2375   -2.7017 C   0  0  0  0  0  0  0  0  0  0  0  0
    4.1375    0.1246   -2.0288 C   0  0  0  0  0  0  0  0  0  0  0  0
    6.1211   -0.2041    2.8074 H   0  0  0  0  0  0  0  0  0  0  0  0
    4.7521   -1.1476    3.3933 H   0  0  0  0  0  0  0  0  0  0  0  0
    5.0886    0.4975    4.0608 H   0  0  0  0  0  0  0  0  0  0  0  0
    2.8511   -0.0799    4.3895 H   0  0  0  0  0  0  0  0  0  0  0  0
    0.4412   -0.0523    4.5197 H   0  0  0  0  0  0  0  0  0  0  0  0
   -1.5869    0.4134    3.6909 H   0  0  0  0  0  0  0  0  0  0  0  0
   -1.2779    2.7091    2.4545 H   0  0  0  0  0  0  0  0  0  0  0  0
   -2.5186    3.9729    0.9996 H   0  0  0  0  0  0  0  0  0  0  0  0
   -1.0896    2.1110   -2.0310 H   0  0  0  0  0  0  0  0  0  0  0  0
   -1.8139    2.4232   -4.3758 H   0  0  0  0  0  0  0  0  0  0  0  0
   -4.0239    1.5726   -5.1278 H   0  0  0  0  0  0  0  0  0  0  0  0
   -5.5215    0.4234   -3.5396 H   0  0  0  0  0  0  0  0  0  0  0  0
   -1.6929   -1.3002   -1.4839 H   0  0  0  0  0  0  0  0  0  0  0  0
   -0.3436   -2.9304    0.0634 H   0  0  0  0  0  0  0  0  0  0  0  0
   -1.8366   -3.5537   -0.6365 H   0  0  0  0  0  0  0  0  0  0  0  0
   -3.0610   -3.3083    1.4186 H   0  0  0  0  0  0  0  0  0  0  0  0
   -1.5063   -4.0330    1.8576 H   0  0  0  0  0  0  0  0  0  0  0  0
   -3.2308   -0.5231    2.1795 H   0  0  0  0  0  0  0  0  0  0  0  0
    0.2223    1.0614    0.3454 H   0  0  0  0  0  0  0  0  0  0  0  0
    3.6883    1.7368   -0.0129 H   0  0  0  0  0  0  0  0  0  0  0  0
    2.1535    1.6087   -0.8407 H   0  0  0  0  0  0  0  0  0  0  0  0
    1.4887   -0.4881   -1.8905 H   0  0  0  0  0  0  0  0  0  0  0  0
    1.7717   -1.5935   -0.5188 H   0  0  0  0  0  0  0  0  0  0  0  0
    3.2721   -2.9173   -1.7564 H   0  0  0  0  0  0  0  0  0  0  0  0
    2.3671   -2.2590   -3.1329 H   0  0  0  0  0  0  0  0  0  0  0  0
    5.1360   -1.7752   -2.3581 H   0  0  0  0  0  0  0  0  0  0  0  0
    4.3079   -1.1419   -3.7881 H   0  0  0  0  0  0  0  0  0  0  0  0
    3.6357    0.8297   -2.7098 H   0  0  0  0  0  0  0  0  0  0  0  0
    5.1220    0.5236   -1.7666 H   0  0  0  0  0  0  0  0  0  0  0  0
  1  2  1  0
  2  3  1  0
  3  4  2  0
  4  5  1  0
  5  6  2  0
  6  7  1  0
  7  8  1  0
  8  9  1  0
  9 10  3  0
  8 11  1  0
 11 12  2  3
 11 13  1  0
 13 14  1  0
 14 15  2  0
 15 16  1  0
 16 17  2  0
 17 18  1  0
 18 19  2  0
 19 20  1  0
 20 21  3  0
 13 22  1  0
 22 23  2  0
 23 24  1  0
 24 25  1  0
 25 26  1  0
 26 27  2  0
 26 28  1  0
  6 29  1  0
 29 30  2  0
 30 31  1  0
 31 32  1  0
 32 33  1  0
 33 34  1  0
 34 35  1  0
 35 36  1  0
 30  3  1  0
 36 32  1  0
 28  7  1  0
 19 14  1  0
 28 22  1  0
  1 37  1  0
  1 38  1  0
  1 39  1  0
  4 40  1  0
  5 41  1  0
  7 42  1  0
  8 43  1  0
 12 44  1  0
 15 45  1  0
 16 46  1  0
 17 47  1  0
 18 48  1  0
 23 49  1  0
 24 50  1  0
 24 51  1  0
 25 52  1  0
 25 53  1  0
 28 54  1  0
 29 55  1  0
 31 56  1  0
 31 57  1  0
 33 58  1  0
 33 59  1  0
 34 60  1  0
 34 61  1  0
 35 62  1  0
 35 63  1  0
 36 64  1  0
 36 65  1  0
M  END
$$$$
