
     RDKit          3D

 48 50  0  0  0  0  0  0  0  0999 V2000
   -2.6505    1.9488    0.5370 O   0  0  0  0  0  0  0  0  0  0  0  0
   -1.9152    1.1795   -0.0771 C   0  0  0  0  0  0  0  0  0  0  0  0
   -0.4424    1.4238   -0.3291 C   0  0  0  0  0  0  0  0  0  0  0  0
    0.0247    2.7574    0.2537 C   0  0  0  0  0  0  0  0  0  0  0  0
    1.4740    3.1001   -0.1059 C   0  0  0  0  0  0  0  0  0  0  0  0
    2.4554    2.2187    0.5303 N   0  0  0  0  0  0  0  0  0  0  0  0
    2.9099    1.1106   -0.1648 C   0  0  0  0  0  0  0  0  0  0  0  0
    2.5426    0.7593   -1.2782 O   0  0  0  0  0  0  0  0  0  0  0  0
    3.9061    0.3644    0.6449 C   0  0  0  0  0  0  0  0  0  0  0  0
    4.5184   -0.7318    0.1788 C   0  0  0  0  0  0  0  0  0  0  0  0
    5.5244   -1.5082    0.9156 C   0  0  0  0  0  0  0  0  0  0  0  0
    5.0907   -2.5943    1.6895 C   0  0  0  0  0  0  0  0  0  0  0  0
    6.0075   -3.3576    2.4158 C   0  0  0  0  0  0  0  0  0  0  0  0
    7.3648   -3.0442    2.3764 C   0  0  0  0  0  0  0  0  0  0  0  0
    7.8089   -1.9667    1.6096 C   0  0  0  0  0  0  0  0  0  0  0  0
    6.8945   -1.2003    0.8813 C   0  0  0  0  0  0  0  0  0  0  0  0
    7.5076    0.1184   -0.0553 Cl  0  0  0  0  0  0  0  0  0  0  0  0
    4.1113    1.1162    2.1733 S   0  0  0  0  0  0  0  0  0  0  0  0
    2.9713    2.4036    1.7983 C   0  0  0  0  0  0  0  0  0  0  0  0
    2.6313    3.6233    2.8844 S   0  0  0  0  0  0  0  0  0  0  0  0
   -2.3609   -0.0206   -0.5994 N   0  0  0  0  0  0  0  0  0  0  0  0
   -3.7560   -0.2174   -0.6237 N   0  0  0  0  0  0  0  0  0  0  0  0
   -4.2884   -0.7291   -1.7932 C   0  0  0  0  0  0  0  0  0  0  0  0
   -3.5840   -1.1627   -2.7021 O   0  0  0  0  0  0  0  0  0  0  0  0
   -5.7721   -0.6988   -1.9230 C   0  0  0  0  0  0  0  0  0  0  0  0
   -6.3265   -0.7702   -3.2093 C   0  0  0  0  0  0  0  0  0  0  0  0
   -7.7130   -0.7479   -3.3830 C   0  0  0  0  0  0  0  0  0  0  0  0
   -8.5476   -0.6623   -2.2707 C   0  0  0  0  0  0  0  0  0  0  0  0
  -10.2543   -0.6362   -2.4819 Cl  0  0  0  0  0  0  0  0  0  0  0  0
   -8.0080   -0.6043   -0.9861 C   0  0  0  0  0  0  0  0  0  0  0  0
   -6.6203   -0.6261   -0.8090 C   0  0  0  0  0  0  0  0  0  0  0  0
   -0.2757    1.4090   -1.4123 H   0  0  0  0  0  0  0  0  0  0  0  0
    0.1138    0.5955    0.1228 H   0  0  0  0  0  0  0  0  0  0  0  0
   -0.1082    2.7461    1.3419 H   0  0  0  0  0  0  0  0  0  0  0  0
   -0.6189    3.5596   -0.1294 H   0  0  0  0  0  0  0  0  0  0  0  0
    1.6028    3.0584   -1.1941 H   0  0  0  0  0  0  0  0  0  0  0  0
    1.6814    4.1334    0.1920 H   0  0  0  0  0  0  0  0  0  0  0  0
    4.2985   -1.1014   -0.8211 H   0  0  0  0  0  0  0  0  0  0  0  0
    4.0347   -2.8529    1.7356 H   0  0  0  0  0  0  0  0  0  0  0  0
    5.6610   -4.1968    3.0148 H   0  0  0  0  0  0  0  0  0  0  0  0
    8.0776   -3.6382    2.9434 H   0  0  0  0  0  0  0  0  0  0  0  0
    8.8692   -1.7284    1.5839 H   0  0  0  0  0  0  0  0  0  0  0  0
   -1.8553   -0.4669   -1.3670 H   0  0  0  0  0  0  0  0  0  0  0  0
   -4.2850    0.4388   -0.0491 H   0  0  0  0  0  0  0  0  0  0  0  0
   -5.6791   -0.8418   -4.0820 H   0  0  0  0  0  0  0  0  0  0  0  0
   -8.1316   -0.8001   -4.3849 H   0  0  0  0  0  0  0  0  0  0  0  0
   -8.6619   -0.5499   -0.1189 H   0  0  0  0  0  0  0  0  0  0  0  0
   -6.2274   -0.6095    0.2040 H   0  0  0  0  0  0  0  0  0  0  0  0
  1  2  2  0
  2  3  1  0
  3  4  1  0
  4  5  1  0
  5  6  1  0
  6  7  1  0
  7  8  2  0
  7  9  1  0
  9 10  2  3
 10 11  1  0
 11 12  2  0
 12 13  1  0
 13 14  2  0
 14 15  1  0
 15 16  2  0
 16 17  1  0
  9 18  1  0
 18 19  1  0
 19 20  2  0
  2 21  1  0
 21 22  1  0
 22 23  1  0
 23 24  2  0
 23 25  1  0
 25 26  2  0
 26 27  1  0
 27 28  2  0
 28 29  1  0
 28 30  1  0
 30 31  2  0
 19  6  1  0
 31 25  1  0
 16 11  1  0
  3 32  1  0
  3 33  1  0
  4 34  1  0
  4 35  1  0
  5 36  1  0
  5 37  1  0
 10 38  1  0
 12 39  1  0
 13 40  1  0
 14 41  1  0
 15 42  1  0
 21 43  1  0
 22 44  1  0
 26 45  1  0
 27 46  1  0
 30 47  1  0
 31 48  1  0
M  END
$$$$
