
     RDKit          3D

 53 58  0  0  0  0  0  0  0  0999 V2000
    7.5635    1.4318    1.2931 C   0  0  0  0  0  0  0  0  0  0  0  0
    6.7543    0.4258    2.0930 C   0  0  0  0  0  0  0  0  0  0  0  0
    5.9175   -0.3452    1.2327 O   0  0  0  0  0  0  0  0  0  0  0  0
    4.6412    0.0847    1.0011 C   0  0  0  0  0  0  0  0  0  0  0  0
    4.1107    1.3260    1.3479 C   0  0  0  0  0  0  0  0  0  0  0  0
    2.7804    1.6383    1.0401 C   0  0  0  0  0  0  0  0  0  0  0  0
    1.9565    0.7131    0.3815 C   0  0  0  0  0  0  0  0  0  0  0  0
    0.5057    1.0648    0.0493 C   0  0  0  0  0  0  0  0  0  0  0  0
    0.4161    0.9344   -1.4194 N   0  0  0  0  0  0  0  0  0  0  0  0
   -0.8775    0.9005   -1.9525 C   0  0  0  0  0  0  0  0  0  0  0  0
   -1.0821    1.3266   -3.2647 C   0  0  0  0  0  0  0  0  0  0  0  0
   -2.3622    1.3475   -3.8079 C   0  0  0  0  0  0  0  0  0  0  0  0
   -3.4688    0.9802   -3.0370 C   0  0  0  0  0  0  0  0  0  0  0  0
   -4.7592    1.1022   -3.5801 C   0  0  0  0  0  0  0  0  0  0  0  0
   -5.8891    0.8049   -2.8230 C   0  0  0  0  0  0  0  0  0  0  0  0
   -5.7413    0.3969   -1.5067 C   0  0  0  0  0  0  0  0  0  0  0  0
   -4.4622    0.2598   -0.9604 C   0  0  0  0  0  0  0  0  0  0  0  0
   -3.2846    0.5058   -1.7125 C   0  0  0  0  0  0  0  0  0  0  0  0
   -1.9493    0.3525   -1.2172 C   0  0  0  0  0  0  0  0  0  0  0  0
   -1.6007   -0.3125    0.0820 C   0  0  0  0  0  0  0  0  0  0  0  0
   -0.5207    0.1851    0.7230 C   0  0  0  0  0  0  0  0  0  0  0  0
   -0.3457   -0.0200    2.1796 C   0  0  0  0  0  0  0  0  0  0  0  0
    0.3794    0.7053    2.8531 O   0  0  0  0  0  0  0  0  0  0  0  0
   -1.1051   -1.0057    2.7863 O   0  0  0  0  0  0  0  0  0  0  0  0
   -1.9673   -1.8029    2.0249 C   0  0  0  0  0  0  0  0  0  0  0  0
   -2.5145   -2.9177    2.6620 C   0  0  0  0  0  0  0  0  0  0  0  0
   -3.3170   -3.7916    1.9359 C   0  0  0  0  0  0  0  0  0  0  0  0
   -3.5452   -3.5525    0.5825 C   0  0  0  0  0  0  0  0  0  0  0  0
   -2.9908   -2.4262   -0.0370 C   0  0  0  0  0  0  0  0  0  0  0  0
   -2.2247   -1.5048    0.6912 C   0  0  0  0  0  0  0  0  0  0  0  0
    2.5033   -0.5315    0.0285 C   0  0  0  0  0  0  0  0  0  0  0  0
    3.8318   -0.8364    0.3335 C   0  0  0  0  0  0  0  0  0  0  0  0
    6.9168    2.1552    0.7880 H   0  0  0  0  0  0  0  0  0  0  0  0
    8.2545    1.9762    1.9431 H   0  0  0  0  0  0  0  0  0  0  0  0
    8.1407    0.9246    0.5128 H   0  0  0  0  0  0  0  0  0  0  0  0
    7.4486   -0.2800    2.5630 H   0  0  0  0  0  0  0  0  0  0  0  0
    6.2007    0.8931    2.9149 H   0  0  0  0  0  0  0  0  0  0  0  0
    4.7012    2.0799    1.8566 H   0  0  0  0  0  0  0  0  0  0  0  0
    2.3875    2.6084    1.3380 H   0  0  0  0  0  0  0  0  0  0  0  0
    0.3086    2.1111    0.3192 H   0  0  0  0  0  0  0  0  0  0  0  0
    1.0311    1.5898   -1.8927 H   0  0  0  0  0  0  0  0  0  0  0  0
   -0.2451    1.6632   -3.8706 H   0  0  0  0  0  0  0  0  0  0  0  0
   -2.4895    1.6983   -4.8298 H   0  0  0  0  0  0  0  0  0  0  0  0
   -4.8958    1.4492   -4.6026 H   0  0  0  0  0  0  0  0  0  0  0  0
   -6.8802    0.9128   -3.2551 H   0  0  0  0  0  0  0  0  0  0  0  0
   -6.6165    0.1901   -0.8962 H   0  0  0  0  0  0  0  0  0  0  0  0
   -4.4004   -0.0240    0.0874 H   0  0  0  0  0  0  0  0  0  0  0  0
   -2.2994   -3.1108    3.7092 H   0  0  0  0  0  0  0  0  0  0  0  0
   -3.7439   -4.6683    2.4158 H   0  0  0  0  0  0  0  0  0  0  0  0
   -4.1468   -4.2474    0.0011 H   0  0  0  0  0  0  0  0  0  0  0  0
   -3.1602   -2.2909   -1.1033 H   0  0  0  0  0  0  0  0  0  0  0  0
    1.8969   -1.2661   -0.4984 H   0  0  0  0  0  0  0  0  0  0  0  0
    4.2389   -1.8038    0.0495 H   0  0  0  0  0  0  0  0  0  0  0  0
  1  2  1  0
  2  3  1  0
  3  4  1  0
  4  5  2  0
  5  6  1  0
  6  7  2  0
  7  8  1  0
  8  9  1  0
  9 10  1  0
 10 11  2  0
 11 12  1  0
 12 13  2  0
 13 14  1  0
 14 15  2  0
 15 16  1  0
 16 17  2  0
 17 18  1  0
 18 19  2  0
 19 20  1  0
 20 21  2  0
 21 22  1  0
 22 23  2  0
 22 24  1  0
 24 25  1  0
 25 26  2  0
 26 27  1  0
 27 28  2  0
 28 29  1  0
 29 30  2  0
  7 31  1  0
 31 32  2  0
 32  4  1  0
 21  8  1  0
 30 25  1  0
 19 10  1  0
 30 20  1  0
 18 13  1  0
  1 33  1  0
  1 34  1  0
  1 35  1  0
  2 36  1  0
  2 37  1  0
  5 38  1  0
  6 39  1  0
  8 40  1  0
  9 41  1  0
 11 42  1  0
 12 43  1  0
 14 44  1  0
 15 45  1  0
 16 46  1  0
 17 47  1  0
 26 48  1  0
 27 49  1  0
 28 50  1  0
 29 51  1  0
 31 52  1  0
 32 53  1  0
M  END
$$$$
