
     RDKit          3D

 51 53  0  0  0  0  0  0  0  0999 V2000
    5.2579   -1.2953    2.0843 O   0  0  0  0  0  0  0  0  0  0  0  0
    4.7121   -1.2766    0.9890 C   0  0  0  0  0  0  0  0  0  0  0  0
    3.6252   -2.0246    0.6098 N   0  0  0  0  0  0  0  0  0  0  0  0
    2.8820   -2.8322    1.5415 C   0  0  0  0  0  0  0  0  0  0  0  0
    1.7439   -2.0336    2.0553 C   0  0  0  0  0  0  0  0  0  0  0  0
    1.5972   -1.1661    3.1168 C   0  0  0  0  0  0  0  0  0  0  0  0
    0.2582   -0.7073    3.0736 C   0  0  0  0  0  0  0  0  0  0  0  0
   -0.3377   -1.3207    1.9885 C   0  0  0  0  0  0  0  0  0  0  0  0
   -1.6774   -1.2276    1.4684 C   0  0  0  0  0  0  0  0  0  0  0  0
   -2.0413   -1.9137    0.4314 N   0  0  0  0  0  0  0  0  0  0  0  0
   -3.3132   -1.7837   -0.0640 N   0  0  0  0  0  0  0  0  0  0  0  0
   -4.1790   -0.7173    0.1019 C   0  0  0  0  0  0  0  0  0  0  0  0
   -4.0487    0.2761    0.8057 O   0  0  0  0  0  0  0  0  0  0  0  0
   -5.4509   -0.8627   -0.7576 C   0  0  0  0  0  0  0  0  0  0  0  0
   -5.5653   -1.8478   -1.4731 O   0  0  0  0  0  0  0  0  0  0  0  0
   -6.3161    0.1953   -0.5881 N   0  0  0  0  0  0  0  0  0  0  0  0
   -7.5655    0.4152   -1.2040 C   0  0  0  0  0  0  0  0  0  0  0  0
   -8.1273   -0.4824   -2.1170 C   0  0  0  0  0  0  0  0  0  0  0  0
   -9.3702   -0.2185   -2.7032 C   0  0  0  0  0  0  0  0  0  0  0  0
  -10.0666    0.9447   -2.3846 C   0  0  0  0  0  0  0  0  0  0  0  0
   -9.5226    1.8496   -1.4761 C   0  0  0  0  0  0  0  0  0  0  0  0
   -8.2809    1.5857   -0.8894 C   0  0  0  0  0  0  0  0  0  0  0  0
   -7.5998    2.8633    0.3453 Br  0  0  0  0  0  0  0  0  0  0  0  0
    0.5719   -2.1296    1.3659 O   0  0  0  0  0  0  0  0  0  0  0  0
    5.2455   -0.3389   -0.1172 C   0  0  0  0  0  0  0  0  0  0  0  0
    4.6579   -0.2974   -1.1884 O   0  0  0  0  0  0  0  0  0  0  0  0
    6.3670    0.3477    0.2958 N   0  0  0  0  0  0  0  0  0  0  0  0
    7.1309    1.2743   -0.4328 C   0  0  0  0  0  0  0  0  0  0  0  0
    6.8495    1.6476   -1.7482 C   0  0  0  0  0  0  0  0  0  0  0  0
    7.6621    2.5751   -2.4086 C   0  0  0  0  0  0  0  0  0  0  0  0
    8.7597    3.1358   -1.7591 C   0  0  0  0  0  0  0  0  0  0  0  0
    9.0471    2.7701   -0.4468 C   0  0  0  0  0  0  0  0  0  0  0  0
    8.2363    1.8428    0.2131 C   0  0  0  0  0  0  0  0  0  0  0  0
    3.2076   -1.7996   -0.2896 H   0  0  0  0  0  0  0  0  0  0  0  0
    2.5280   -3.7176    1.0048 H   0  0  0  0  0  0  0  0  0  0  0  0
    3.5288   -3.1576    2.3622 H   0  0  0  0  0  0  0  0  0  0  0  0
    2.3681   -0.8965    3.8263 H   0  0  0  0  0  0  0  0  0  0  0  0
   -0.2163   -0.0100    3.7501 H   0  0  0  0  0  0  0  0  0  0  0  0
   -2.3538   -0.5651    2.0299 H   0  0  0  0  0  0  0  0  0  0  0  0
   -3.5562   -2.4507   -0.7985 H   0  0  0  0  0  0  0  0  0  0  0  0
   -5.9963    0.9140    0.0618 H   0  0  0  0  0  0  0  0  0  0  0  0
   -7.6248   -1.4034   -2.3975 H   0  0  0  0  0  0  0  0  0  0  0  0
   -9.7922   -0.9276   -3.4121 H   0  0  0  0  0  0  0  0  0  0  0  0
  -11.0315    1.1452   -2.8438 H   0  0  0  0  0  0  0  0  0  0  0  0
  -10.0717    2.7554   -1.2317 H   0  0  0  0  0  0  0  0  0  0  0  0
    6.6569    0.1408    1.2493 H   0  0  0  0  0  0  0  0  0  0  0  0
    6.0048    1.2346   -2.2911 H   0  0  0  0  0  0  0  0  0  0  0  0
    7.4336    2.8569   -3.4335 H   0  0  0  0  0  0  0  0  0  0  0  0
    9.3887    3.8561   -2.2758 H   0  0  0  0  0  0  0  0  0  0  0  0
    9.9022    3.2052    0.0642 H   0  0  0  0  0  0  0  0  0  0  0  0
    8.4819    1.5728    1.2371 H   0  0  0  0  0  0  0  0  0  0  0  0
  1  2  2  0
  2  3  1  0
  3  4  1  0
  4  5  1  0
  5  6  2  0
  6  7  1  0
  7  8  2  0
  8  9  1  0
  9 10  2  3
 10 11  1  0
 11 12  1  0
 12 13  2  0
 12 14  1  0
 14 15  2  0
 14 16  1  0
 16 17  1  0
 17 18  2  0
 18 19  1  0
 19 20  2  0
 20 21  1  0
 21 22  2  0
 22 23  1  0
  8 24  1  0
  2 25  1  0
 25 26  2  0
 25 27  1  0
 27 28  1  0
 28 29  2  0
 29 30  1  0
 30 31  2  0
 31 32  1  0
 32 33  2  0
 24  5  1  0
 33 28  1  0
 22 17  1  0
  3 34  1  0
  4 35  1  0
  4 36  1  0
  6 37  1  0
  7 38  1  0
  9 39  1  0
 11 40  1  0
 16 41  1  0
 18 42  1  0
 19 43  1  0
 20 44  1  0
 21 45  1  0
 27 46  1  0
 29 47  1  0
 30 48  1  0
 31 49  1  0
 32 50  1  0
 33 51  1  0
M  END
$$$$
