
     RDKit          3D

 38 40  0  0  0  0  0  0  0  0999 V2000
    1.2420    2.4165    0.4257 O   0  0  0  0  0  0  0  0  0  0  0  0
    1.7146    1.3426    0.0613 C   0  0  0  0  0  0  0  0  0  0  0  0
    0.9553    0.1934   -0.0558 N   0  0  0  0  0  0  0  0  0  0  0  0
   -0.3549    0.2468    0.4479 N   0  0  0  0  0  0  0  0  0  0  0  0
   -0.7685   -0.7892    1.2658 C   0  0  0  0  0  0  0  0  0  0  0  0
   -0.1059   -1.8184    1.4025 O   0  0  0  0  0  0  0  0  0  0  0  0
   -2.0581   -0.4960    2.0458 C   0  0  0  0  0  0  0  0  0  0  0  0
   -2.8842   -1.7603    2.2493 C   0  0  0  0  0  0  0  0  0  0  0  0
   -3.4640   -2.2238    1.0242 O   0  0  0  0  0  0  0  0  0  0  0  0
   -4.0007   -1.1976    0.2948 C   0  0  0  0  0  0  0  0  0  0  0  0
   -4.8646   -1.5508   -0.7400 C   0  0  0  0  0  0  0  0  0  0  0  0
   -5.4629   -0.5577   -1.5171 C   0  0  0  0  0  0  0  0  0  0  0  0
   -5.1935    0.7871   -1.2600 C   0  0  0  0  0  0  0  0  0  0  0  0
   -4.3170    1.1400   -0.2326 C   0  0  0  0  0  0  0  0  0  0  0  0
   -3.7107    0.1469    0.5353 C   0  0  0  0  0  0  0  0  0  0  0  0
   -2.8384    0.5696    1.5030 O   0  0  0  0  0  0  0  0  0  0  0  0
    3.1668    1.2194   -0.2453 C   0  0  0  0  0  0  0  0  0  0  0  0
    4.0410    2.1696    0.3047 C   0  0  0  0  0  0  0  0  0  0  0  0
    5.4125    2.1089    0.0471 C   0  0  0  0  0  0  0  0  0  0  0  0
    5.9236    1.1020   -0.7707 C   0  0  0  0  0  0  0  0  0  0  0  0
    5.0507    0.1606   -1.3332 C   0  0  0  0  0  0  0  0  0  0  0  0
    5.5864   -0.8924   -2.2062 N   0  0  0  0  0  4  0  0  0  0  0  0
    6.7994   -0.8735   -2.4561 O   0  0  0  0  0  0  0  0  0  0  0  0
    4.7907   -1.7381   -2.6378 O   0  0  0  0  0  1  0  0  0  0  0  0
    3.6713    0.2132   -1.0785 C   0  0  0  0  0  0  0  0  0  0  0  0
    1.3805   -0.7333   -0.0312 H   0  0  0  0  0  0  0  0  0  0  0  0
   -0.7581    1.1791    0.5594 H   0  0  0  0  0  0  0  0  0  0  0  0
   -1.7201   -0.1497    3.0308 H   0  0  0  0  0  0  0  0  0  0  0  0
   -3.7026   -1.5751    2.9571 H   0  0  0  0  0  0  0  0  0  0  0  0
   -2.2768   -2.5757    2.6560 H   0  0  0  0  0  0  0  0  0  0  0  0
   -5.0780   -2.5982   -0.9354 H   0  0  0  0  0  0  0  0  0  0  0  0
   -6.1411   -0.8333   -2.3208 H   0  0  0  0  0  0  0  0  0  0  0  0
   -5.6623    1.5604   -1.8634 H   0  0  0  0  0  0  0  0  0  0  0  0
   -4.1013    2.1873   -0.0399 H   0  0  0  0  0  0  0  0  0  0  0  0
    3.6525    2.9647    0.9408 H   0  0  0  0  0  0  0  0  0  0  0  0
    6.0795    2.8503    0.4827 H   0  0  0  0  0  0  0  0  0  0  0  0
    6.9945    1.0686   -0.9640 H   0  0  0  0  0  0  0  0  0  0  0  0
    3.0024   -0.5051   -1.5464 H   0  0  0  0  0  0  0  0  0  0  0  0
  1  2  2  0
  2  3  1  0
  3  4  1  0
  4  5  1  0
  5  6  2  0
  5  7  1  0
  7  8  1  0
  8  9  1  0
  9 10  1  0
 10 11  2  0
 11 12  1  0
 12 13  2  0
 13 14  1  0
 14 15  2  0
 15 16  1  0
  2 17  1  0
 17 18  2  0
 18 19  1  0
 19 20  2  0
 20 21  1  0
 21 22  1  0
 22 23  2  0
 22 24  1  0
 21 25  2  0
 16  7  1  0
 25 17  1  0
 15 10  1  0
  3 26  1  0
  4 27  1  0
  7 28  1  0
  8 29  1  0
  8 30  1  0
 11 31  1  0
 12 32  1  0
 13 33  1  0
 14 34  1  0
 18 35  1  0
 19 36  1  0
 20 37  1  0
 25 38  1  0
M  CHG  2  22   1  24  -1
M  END
$$$$
