
     RDKit          3D

 48 50  0  0  0  0  0  0  0  0999 V2000
   -0.4735   -2.5355    0.2796 C   0  0  0  0  0  0  0  0  0  0  0  0
   -0.1332   -1.2746   -0.0241 C   0  0  0  0  0  0  0  0  0  0  0  0
    1.2472   -0.7663   -0.2041 C   0  0  0  0  0  0  0  0  0  0  0  0
    2.3833   -1.4641   -0.0269 C   0  0  0  0  0  0  0  0  0  0  0  0
    3.6826   -0.9211   -0.2337 C   0  0  0  0  0  0  0  0  0  0  0  0
    4.8364   -0.9677    1.0525 S   0  0  0  0  0  0  0  0  0  0  0  0
    5.9732   -0.1870    0.0496 C   0  0  0  0  0  0  0  0  0  0  0  0
    7.1705    0.0553    0.6642 N   0  0  0  0  0  0  0  0  0  0  0  0
    8.2225    0.6707    0.0258 C   0  0  0  0  0  0  0  0  0  0  0  0
    9.4286    0.8174    0.9209 C   0  0  0  0  0  0  0  0  0  0  0  0
    8.2660    1.0611   -1.1346 O   0  0  0  0  0  0  0  0  0  0  0  0
    5.5868    0.0843   -1.1656 N   0  0  0  0  0  0  0  0  0  0  0  0
    4.2944   -0.3448   -1.3415 C   0  0  0  0  0  0  0  0  0  0  0  0
    3.6774   -0.2119   -2.5313 O   0  0  0  0  0  0  0  0  0  0  0  0
    1.1417    0.6415   -0.5807 C   0  0  0  0  0  0  0  0  0  0  0  0
   -0.1704    0.9470   -0.6285 C   0  0  0  0  0  0  0  0  0  0  0  0
   -0.7154    2.3092   -0.9003 C   0  0  0  0  0  0  0  0  0  0  0  0
   -0.9624   -0.1747   -0.3032 N   0  0  0  0  0  0  0  0  0  0  0  0
   -2.3722   -0.1504   -0.1636 C   0  0  0  0  0  0  0  0  0  0  0  0
   -3.1964    0.2254   -1.2315 C   0  0  0  0  0  0  0  0  0  0  0  0
   -4.5911    0.2566   -1.0976 C   0  0  0  0  0  0  0  0  0  0  0  0
   -5.1934   -0.0861    0.1120 C   0  0  0  0  0  0  0  0  0  0  0  0
   -6.5861   -0.0791    0.3318 N   0  0  0  0  0  0  0  0  0  0  0  0
   -7.5787    0.2675   -0.5673 C   0  0  0  0  0  0  0  0  0  0  0  0
   -8.9570    0.1560    0.0361 C   0  0  0  0  0  0  0  0  0  0  0  0
   -7.4299    0.6522   -1.7213 O   0  0  0  0  0  0  0  0  0  0  0  0
   -4.3784   -0.4647    1.1845 C   0  0  0  0  0  0  0  0  0  0  0  0
   -2.9856   -0.4972    1.0471 C   0  0  0  0  0  0  0  0  0  0  0  0
   -1.5147   -2.8325    0.3445 H   0  0  0  0  0  0  0  0  0  0  0  0
    0.2555   -3.3170    0.4506 H   0  0  0  0  0  0  0  0  0  0  0  0
    2.3435   -2.4942    0.3146 H   0  0  0  0  0  0  0  0  0  0  0  0
    7.2511   -0.2448    1.6230 H   0  0  0  0  0  0  0  0  0  0  0  0
    9.9085    1.7800    0.7218 H   0  0  0  0  0  0  0  0  0  0  0  0
   10.1310    0.0064    0.7115 H   0  0  0  0  0  0  0  0  0  0  0  0
    9.1526    0.7909    1.9789 H   0  0  0  0  0  0  0  0  0  0  0  0
    2.7878   -0.5988   -2.5020 H   0  0  0  0  0  0  0  0  0  0  0  0
    1.9589    1.3262   -0.7451 H   0  0  0  0  0  0  0  0  0  0  0  0
   -1.2495    2.3331   -1.8544 H   0  0  0  0  0  0  0  0  0  0  0  0
    0.0867    3.0534   -0.9568 H   0  0  0  0  0  0  0  0  0  0  0  0
   -1.3958    2.6248   -0.1031 H   0  0  0  0  0  0  0  0  0  0  0  0
   -2.7575    0.4786   -2.1935 H   0  0  0  0  0  0  0  0  0  0  0  0
   -5.1742    0.5507   -1.9646 H   0  0  0  0  0  0  0  0  0  0  0  0
   -6.8882   -0.3500    1.2588 H   0  0  0  0  0  0  0  0  0  0  0  0
   -9.1747    1.0592    0.6120 H   0  0  0  0  0  0  0  0  0  0  0  0
   -9.6960    0.0479   -0.7631 H   0  0  0  0  0  0  0  0  0  0  0  0
   -9.0291   -0.7217    0.6850 H   0  0  0  0  0  0  0  0  0  0  0  0
   -4.8085   -0.7351    2.1450 H   0  0  0  0  0  0  0  0  0  0  0  0
   -2.3743   -0.7762    1.9019 H   0  0  0  0  0  0  0  0  0  0  0  0
  1  2  2  0
  2  3  1  0
  3  4  2  3
  4  5  1  0
  5  6  1  0
  6  7  1  0
  7  8  1  0
  8  9  1  0
  9 10  1  0
  9 11  2  0
  7 12  2  0
 12 13  1  0
 13 14  1  0
  3 15  1  0
 15 16  2  0
 16 17  1  0
 16 18  1  0
 18 19  1  0
 19 20  2  0
 20 21  1  0
 21 22  2  0
 22 23  1  0
 23 24  1  0
 24 25  1  0
 24 26  2  0
 22 27  1  0
 27 28  2  0
 18  2  1  0
 28 19  1  0
 13  5  2  0
  1 29  1  0
  1 30  1  0
  4 31  1  0
  8 32  1  0
 10 33  1  0
 10 34  1  0
 10 35  1  0
 14 36  1  0
 15 37  1  0
 17 38  1  0
 17 39  1  0
 17 40  1  0
 20 41  1  0
 21 42  1  0
 23 43  1  0
 25 44  1  0
 25 45  1  0
 25 46  1  0
 27 47  1  0
 28 48  1  0
M  END
$$$$
