
     RDKit          3D

 40 41  0  0  0  0  0  0  0  0999 V2000
    5.5344   -3.0295    0.5364 C   0  0  0  0  0  0  0  0  0  0  0  0
    5.2061   -2.0636   -0.4544 O   0  0  0  0  0  0  0  0  0  0  0  0
    4.5369   -0.9476   -0.0313 C   0  0  0  0  0  0  0  0  0  0  0  0
    4.2762   -0.0107   -1.0324 C   0  0  0  0  0  0  0  0  0  0  0  0
    3.5935    1.1726   -0.7443 C   0  0  0  0  0  0  0  0  0  0  0  0
    3.1605    1.4351    0.5600 C   0  0  0  0  0  0  0  0  0  0  0  0
    2.3882    2.6955    0.8765 C   0  0  0  0  0  0  0  0  0  0  0  0
    0.9061    2.4779    1.0894 C   0  0  0  0  0  0  0  0  0  0  0  0
    0.2592    3.0831    1.9398 O   0  0  0  0  0  0  0  0  0  0  0  0
    0.4277    1.5721    0.1765 O   0  0  0  0  0  0  0  0  0  0  0  0
   -0.9615    1.4092    0.3216 N   0  0  0  0  0  0  0  0  0  0  0  0
   -1.4026    0.4590   -0.4515 C   0  0  0  0  0  0  0  0  0  0  0  0
   -0.5812   -0.2890   -1.2684 N   0  0  0  0  0  0  0  0  0  0  0  0
   -2.8716    0.1608   -0.4300 C   0  0  0  0  0  0  0  0  0  0  0  0
   -3.4756   -0.5357   -1.4833 C   0  0  0  0  0  0  0  0  0  0  0  0
   -4.8464   -0.8092   -1.4493 C   0  0  0  0  0  0  0  0  0  0  0  0
   -5.6287   -0.3920   -0.3648 C   0  0  0  0  0  0  0  0  0  0  0  0
   -7.1018   -0.6753   -0.3494 C   0  0  0  0  0  0  0  0  0  0  0  0
   -5.0235    0.3168    0.6798 C   0  0  0  0  0  0  0  0  0  0  0  0
   -3.6537    0.5920    0.6478 C   0  0  0  0  0  0  0  0  0  0  0  0
    3.4232    0.4940    1.5637 C   0  0  0  0  0  0  0  0  0  0  0  0
    4.1089   -0.6893    1.2703 C   0  0  0  0  0  0  0  0  0  0  0  0
    6.0696   -3.8464    0.0427 H   0  0  0  0  0  0  0  0  0  0  0  0
    6.1996   -2.6049    1.2956 H   0  0  0  0  0  0  0  0  0  0  0  0
    4.6320   -3.4504    0.9921 H   0  0  0  0  0  0  0  0  0  0  0  0
    4.6104   -0.2035   -2.0480 H   0  0  0  0  0  0  0  0  0  0  0  0
    3.4042    1.8830   -1.5469 H   0  0  0  0  0  0  0  0  0  0  0  0
    2.8086    3.1401    1.7870 H   0  0  0  0  0  0  0  0  0  0  0  0
    2.5076    3.4358    0.0767 H   0  0  0  0  0  0  0  0  0  0  0  0
   -0.8286   -1.2689   -1.3418 H   0  0  0  0  0  0  0  0  0  0  0  0
    0.3977   -0.1724   -1.0230 H   0  0  0  0  0  0  0  0  0  0  0  0
   -2.8982   -0.8474   -2.3488 H   0  0  0  0  0  0  0  0  0  0  0  0
   -5.3050   -1.3413   -2.2800 H   0  0  0  0  0  0  0  0  0  0  0  0
   -7.5509   -0.4134    0.6148 H   0  0  0  0  0  0  0  0  0  0  0  0
   -7.2843   -1.7402   -0.5191 H   0  0  0  0  0  0  0  0  0  0  0  0
   -7.6043   -0.0932   -1.1280 H   0  0  0  0  0  0  0  0  0  0  0  0
   -5.6124    0.6652    1.5263 H   0  0  0  0  0  0  0  0  0  0  0  0
   -3.2020    1.1449    1.4690 H   0  0  0  0  0  0  0  0  0  0  0  0
    3.0931    0.6738    2.5849 H   0  0  0  0  0  0  0  0  0  0  0  0
    4.2888   -1.3868    2.0814 H   0  0  0  0  0  0  0  0  0  0  0  0
  1  2  1  0
  2  3  1  0
  3  4  2  0
  4  5  1  0
  5  6  2  0
  6  7  1  0
  7  8  1  0
  8  9  2  0
  8 10  1  0
 10 11  1  0
 11 12  2  3
 12 13  1  0
 12 14  1  0
 14 15  2  0
 15 16  1  0
 16 17  2  0
 17 18  1  0
 17 19  1  0
 19 20  2  0
  6 21  1  0
 21 22  2  0
 22  3  1  0
 20 14  1  0
  1 23  1  0
  1 24  1  0
  1 25  1  0
  4 26  1  0
  5 27  1  0
  7 28  1  0
  7 29  1  0
 13 30  1  0
 13 31  1  0
 15 32  1  0
 16 33  1  0
 18 34  1  0
 18 35  1  0
 18 36  1  0
 19 37  1  0
 20 38  1  0
 21 39  1  0
 22 40  1  0
M  END
$$$$
