
     RDKit          3D

 45 47  0  0  0  0  0  0  0  0999 V2000
   -1.3466   -0.2225   -3.6446 C   0  0  0  0  0  0  0  0  0  0  0  0
   -2.4401    0.3461   -2.7897 C   0  0  0  0  0  0  0  0  0  0  0  0
   -3.7752    0.2823   -3.2020 C   0  0  0  0  0  0  0  0  0  0  0  0
   -4.7837    0.8162   -2.4000 C   0  0  0  0  0  0  0  0  0  0  0  0
   -4.4701    1.3943   -1.1689 C   0  0  0  0  0  0  0  0  0  0  0  0
   -3.1450    1.4269   -0.7137 C   0  0  0  0  0  0  0  0  0  0  0  0
   -2.7948    2.0128    0.6306 C   0  0  0  0  0  0  0  0  0  0  0  0
   -3.4460    1.0086    1.9710 S   0  0  0  0  0  6  0  0  0  0  0  0
   -4.8994    1.1030    1.9291 O   0  0  0  0  0  0  0  0  0  0  0  0
   -2.7759    1.4034    3.1977 O   0  0  0  0  0  0  0  0  0  0  0  0
   -3.0415   -0.6960    1.6267 C   0  0  0  0  0  0  0  0  0  0  0  0
   -1.6201   -0.9419    1.2813 C   0  0  0  0  0  0  0  0  0  0  0  0
   -1.0037   -2.0058    0.6558 C   0  0  0  0  0  0  0  0  0  0  0  0
    0.3797   -1.7029    0.6127 C   0  0  0  0  0  0  0  0  0  0  0  0
    0.5391   -0.4623    1.2058 C   0  0  0  0  0  0  0  0  0  0  0  0
    1.6884    0.3917    1.4424 C   0  0  0  0  0  0  0  0  0  0  0  0
    1.6130    1.5165    1.9289 O   0  0  0  0  0  0  0  0  0  0  0  0
    2.9010   -0.1340    1.0505 N   0  0  0  0  0  0  0  0  0  0  0  0
    4.0974    0.6709    1.1058 C   0  0  0  0  0  0  0  0  0  0  0  0
    5.2597   -0.1919    0.7916 C   0  0  0  0  0  0  0  0  0  0  0  0
    6.3475   -0.6246    1.5208 C   0  0  0  0  0  0  0  0  0  0  0  0
    7.1186   -1.4297    0.6475 C   0  0  0  0  0  0  0  0  0  0  0  0
    6.4478   -1.4486   -0.5526 C   0  0  0  0  0  0  0  0  0  0  0  0
    5.3144   -0.7052   -0.4741 O   0  0  0  0  0  0  0  0  0  0  0  0
   -0.6873   -0.0143    1.6228 O   0  0  0  0  0  0  0  0  0  0  0  0
   -2.1352    0.9152   -1.5446 C   0  0  0  0  0  0  0  0  0  0  0  0
   -0.4574    0.4094   -3.5991 H   0  0  0  0  0  0  0  0  0  0  0  0
   -1.0874   -1.2278   -3.3039 H   0  0  0  0  0  0  0  0  0  0  0  0
   -1.6519   -0.2775   -4.6921 H   0  0  0  0  0  0  0  0  0  0  0  0
   -4.0401   -0.1722   -4.1553 H   0  0  0  0  0  0  0  0  0  0  0  0
   -5.8189    0.7824   -2.7332 H   0  0  0  0  0  0  0  0  0  0  0  0
   -5.2755    1.8122   -0.5644 H   0  0  0  0  0  0  0  0  0  0  0  0
   -3.2311    3.0117    0.7333 H   0  0  0  0  0  0  0  0  0  0  0  0
   -1.7148    2.1116    0.7678 H   0  0  0  0  0  0  0  0  0  0  0  0
   -3.3087   -1.2618    2.5241 H   0  0  0  0  0  0  0  0  0  0  0  0
   -3.6945   -1.0284    0.8143 H   0  0  0  0  0  0  0  0  0  0  0  0
   -1.4927   -2.8950    0.2799 H   0  0  0  0  0  0  0  0  0  0  0  0
    1.1596   -2.3212    0.1910 H   0  0  0  0  0  0  0  0  0  0  0  0
    2.9308   -0.9673    0.4834 H   0  0  0  0  0  0  0  0  0  0  0  0
    4.0054    1.4767    0.3708 H   0  0  0  0  0  0  0  0  0  0  0  0
    4.1883    1.1211    2.0999 H   0  0  0  0  0  0  0  0  0  0  0  0
    6.5579   -0.3870    2.5560 H   0  0  0  0  0  0  0  0  0  0  0  0
    8.0477   -1.9373    0.8660 H   0  0  0  0  0  0  0  0  0  0  0  0
    6.6361   -1.9162   -1.5093 H   0  0  0  0  0  0  0  0  0  0  0  0
   -1.0947    0.9582   -1.2216 H   0  0  0  0  0  0  0  0  0  0  0  0
  1  2  1  0
  2  3  2  0
  3  4  1  0
  4  5  2  0
  5  6  1  0
  6  7  1  0
  7  8  1  0
  8  9  2  0
  8 10  2  0
  8 11  1  0
 11 12  1  0
 12 13  2  0
 13 14  1  0
 14 15  2  0
 15 16  1  0
 16 17  2  0
 16 18  1  0
 18 19  1  0
 19 20  1  0
 20 21  2  0
 21 22  1  0
 22 23  2  0
 23 24  1  0
 15 25  1  0
  6 26  2  0
 26  2  1  0
 25 12  1  0
 24 20  1  0
  1 27  1  0
  1 28  1  0
  1 29  1  0
  3 30  1  0
  4 31  1  0
  5 32  1  0
  7 33  1  0
  7 34  1  0
 11 35  1  0
 11 36  1  0
 13 37  1  0
 14 38  1  0
 18 39  1  0
 19 40  1  0
 19 41  1  0
 21 42  1  0
 22 43  1  0
 23 44  1  0
 26 45  1  0
M  END
$$$$
