
     RDKit          3D

 49 52  0  0  0  0  0  0  0  0999 V2000
    2.1634    2.0317    0.6037 N   0  0  0  0  0  0  0  0  0  0  0  0
    0.9276    2.2260    1.0800 C   0  0  0  0  0  0  0  0  0  0  0  0
    0.6937    3.0738    2.0399 N   0  0  0  0  0  0  0  0  0  0  0  0
   -0.7593    2.9420    2.3022 C   0  0  0  0  0  0  0  0  0  0  0  0
   -1.3413    2.0375    1.1941 C   0  0  0  0  0  0  0  0  0  0  0  0
   -2.2381    0.9457    1.7985 C   0  0  0  0  0  0  0  0  0  0  0  0
   -3.1350    0.2349    0.8077 C   0  0  0  0  0  0  0  0  0  0  0  0
   -4.0939    0.9426    0.0659 C   0  0  0  0  0  0  0  0  0  0  0  0
   -4.9228    0.2802   -0.8432 C   0  0  0  0  0  0  0  0  0  0  0  0
   -4.8006   -1.0952   -1.0039 C   0  0  0  0  0  0  0  0  0  0  0  0
   -5.5869   -1.7815   -1.8808 O   0  0  0  0  0  0  0  0  0  0  0  0
   -3.8715   -1.8165   -0.2662 C   0  0  0  0  0  0  0  0  0  0  0  0
   -3.0460   -1.1548    0.6440 C   0  0  0  0  0  0  0  0  0  0  0  0
   -0.1174    1.5092    0.5767 N   0  0  0  0  0  0  0  0  0  0  0  0
   -0.2030    1.0017   -0.7918 C   0  0  0  0  0  0  0  0  0  0  0  0
    0.1144   -0.4978   -0.8791 C   0  0  0  0  0  0  0  0  0  0  0  0
    1.5625   -0.8176   -1.2045 C   0  0  0  0  0  0  0  0  0  0  0  0
    1.9524   -0.7278   -2.5549 C   0  0  0  0  0  0  0  0  0  0  0  0
    3.2531   -1.0233   -2.9448 C   0  0  0  0  0  0  0  0  0  0  0  0
    4.1871   -1.4161   -1.9921 C   0  0  0  0  0  0  0  0  0  0  0  0
    3.8383   -1.5113   -0.6375 C   0  0  0  0  0  0  0  0  0  0  0  0
    4.8030   -1.9053    0.3049 C   0  0  0  0  0  0  0  0  0  0  0  0
    4.4900   -1.9936    1.6595 C   0  0  0  0  0  0  0  0  0  0  0  0
    3.2076   -1.6842    2.0888 C   0  0  0  0  0  0  0  0  0  0  0  0
    2.2361   -1.2962    1.1625 C   0  0  0  0  0  0  0  0  0  0  0  0
    2.5164   -1.2053   -0.2207 C   0  0  0  0  0  0  0  0  0  0  0  0
    2.3041    1.6533   -0.3188 H   0  0  0  0  0  0  0  0  0  0  0  0
    2.8484    2.7086    0.9108 H   0  0  0  0  0  0  0  0  0  0  0  0
   -0.8987    2.5208    3.3042 H   0  0  0  0  0  0  0  0  0  0  0  0
   -1.2321    3.9298    2.2818 H   0  0  0  0  0  0  0  0  0  0  0  0
   -1.8834    2.6700    0.4802 H   0  0  0  0  0  0  0  0  0  0  0  0
   -2.9000    1.3908    2.5535 H   0  0  0  0  0  0  0  0  0  0  0  0
   -1.6180    0.2127    2.3312 H   0  0  0  0  0  0  0  0  0  0  0  0
   -4.2083    2.0167    0.1936 H   0  0  0  0  0  0  0  0  0  0  0  0
   -5.6540    0.8498   -1.4080 H   0  0  0  0  0  0  0  0  0  0  0  0
   -6.2063   -1.1593   -2.2956 H   0  0  0  0  0  0  0  0  0  0  0  0
   -3.7922   -2.8925   -0.3942 H   0  0  0  0  0  0  0  0  0  0  0  0
   -2.3286   -1.7347    1.2211 H   0  0  0  0  0  0  0  0  0  0  0  0
    0.4259    1.5925   -1.4688 H   0  0  0  0  0  0  0  0  0  0  0  0
   -1.2253    1.1440   -1.1623 H   0  0  0  0  0  0  0  0  0  0  0  0
   -0.2139   -1.0306    0.0172 H   0  0  0  0  0  0  0  0  0  0  0  0
   -0.4945   -0.9269   -1.6878 H   0  0  0  0  0  0  0  0  0  0  0  0
    1.2316   -0.4364   -3.3166 H   0  0  0  0  0  0  0  0  0  0  0  0
    3.5385   -0.9569   -3.9913 H   0  0  0  0  0  0  0  0  0  0  0  0
    5.1989   -1.6493   -2.3171 H   0  0  0  0  0  0  0  0  0  0  0  0
    5.8162   -2.1437   -0.0114 H   0  0  0  0  0  0  0  0  0  0  0  0
    5.2487   -2.2933    2.3770 H   0  0  0  0  0  0  0  0  0  0  0  0
    2.9579   -1.7308    3.1454 H   0  0  0  0  0  0  0  0  0  0  0  0
    1.2553   -1.0336    1.5505 H   0  0  0  0  0  0  0  0  0  0  0  0
  1  2  1  0
  2  3  2  0
  3  4  1  0
  4  5  1  0
  5  6  1  0
  6  7  1  0
  7  8  2  0
  8  9  1  0
  9 10  2  0
 10 11  1  0
 10 12  1  0
 12 13  2  0
  5 14  1  0
 14 15  1  0
 15 16  1  0
 16 17  1  0
 17 18  2  0
 18 19  1  0
 19 20  2  0
 20 21  1  0
 21 22  2  0
 22 23  1  0
 23 24  2  0
 24 25  1  0
 25 26  2  0
 14  2  1  0
 26 17  1  0
 13  7  1  0
 26 21  1  0
  1 27  1  0
  1 28  1  0
  4 29  1  0
  4 30  1  0
  5 31  1  0
  6 32  1  0
  6 33  1  0
  8 34  1  0
  9 35  1  0
 11 36  1  0
 12 37  1  0
 13 38  1  0
 15 39  1  0
 15 40  1  0
 16 41  1  0
 16 42  1  0
 18 43  1  0
 19 44  1  0
 20 45  1  0
 22 46  1  0
 23 47  1  0
 24 48  1  0
 25 49  1  0
M  END
$$$$
