
     RDKit          3D

 54 56  0  0  0  0  0  0  0  0999 V2000
    6.9227    2.7952   -1.6418 C   0  0  0  0  0  0  0  0  0  0  0  0
    6.9119    1.5083   -1.0378 O   0  0  0  0  0  0  0  0  0  0  0  0
    5.7170    0.8429   -1.0218 C   0  0  0  0  0  0  0  0  0  0  0  0
    4.5086    1.3120   -1.5371 C   0  0  0  0  0  0  0  0  0  0  0  0
    3.3536    0.5248   -1.4541 C   0  0  0  0  0  0  0  0  0  0  0  0
    3.3924   -0.7434   -0.8591 C   0  0  0  0  0  0  0  0  0  0  0  0
    2.1464   -1.5924   -0.7621 C   0  0  0  0  0  0  0  0  0  0  0  0
    1.6924   -1.6800    0.6219 N   0  0  0  0  0  0  0  0  0  0  0  0
    0.4856   -2.4829    0.7967 C   0  0  0  0  0  0  0  0  0  0  0  0
   -0.8005   -1.9467    0.1443 C   0  0  0  0  0  0  0  0  0  0  0  0
   -1.2302   -0.5315    0.6052 C   0  0  0  0  0  0  0  0  0  0  0  0
   -1.5623   -0.4921    2.0949 C   0  0  0  0  0  0  0  0  0  0  0  0
   -2.6554   -1.2035    2.6207 C   0  0  0  0  0  0  0  0  0  0  0  0
   -2.9409   -1.1593    3.9863 C   0  0  0  0  0  0  0  0  0  0  0  0
   -2.1369   -0.4052    4.8309 C   0  0  0  0  0  0  0  0  0  0  0  0
   -2.4118   -0.3642    6.1413 F   0  0  0  0  0  0  0  0  0  0  0  0
   -1.0530    0.3081    4.3362 C   0  0  0  0  0  0  0  0  0  0  0  0
   -0.7659    0.2671    2.9708 C   0  0  0  0  0  0  0  0  0  0  0  0
   -2.3484    0.0881   -0.2371 C   0  0  0  0  0  0  0  0  0  0  0  0
   -3.3071   -0.6743   -0.9205 C   0  0  0  0  0  0  0  0  0  0  0  0
   -4.3183   -0.0596   -1.6715 C   0  0  0  0  0  0  0  0  0  0  0  0
   -4.3938    1.3296   -1.7479 C   0  0  0  0  0  0  0  0  0  0  0  0
   -5.3251    2.0501   -2.4428 O   0  0  0  0  0  0  0  0  0  0  0  0
   -6.3187    1.3114   -3.1418 C   0  0  0  0  0  0  0  0  0  0  0  0
   -3.4520    2.0974   -1.0640 C   0  0  0  0  0  0  0  0  0  0  0  0
   -2.4429    1.4872   -0.3145 C   0  0  0  0  0  0  0  0  0  0  0  0
    4.6078   -1.2049   -0.3385 C   0  0  0  0  0  0  0  0  0  0  0  0
    5.7581   -0.4172   -0.4220 C   0  0  0  0  0  0  0  0  0  0  0  0
    6.2650    3.4881   -1.1066 H   0  0  0  0  0  0  0  0  0  0  0  0
    7.9424    3.1869   -1.5758 H   0  0  0  0  0  0  0  0  0  0  0  0
    6.6570    2.7361   -2.7024 H   0  0  0  0  0  0  0  0  0  0  0  0
    4.4283    2.2851   -2.0093 H   0  0  0  0  0  0  0  0  0  0  0  0
    2.4220    0.9121   -1.8609 H   0  0  0  0  0  0  0  0  0  0  0  0
    1.3714   -1.1592   -1.4041 H   0  0  0  0  0  0  0  0  0  0  0  0
    2.3724   -2.5900   -1.1584 H   0  0  0  0  0  0  0  0  0  0  0  0
    1.5735   -0.7452    1.0047 H   0  0  0  0  0  0  0  0  0  0  0  0
    0.3189   -2.6034    1.8733 H   0  0  0  0  0  0  0  0  0  0  0  0
    0.6737   -3.4961    0.4196 H   0  0  0  0  0  0  0  0  0  0  0  0
   -0.6751   -1.9534   -0.9460 H   0  0  0  0  0  0  0  0  0  0  0  0
   -1.5967   -2.6729    0.3541 H   0  0  0  0  0  0  0  0  0  0  0  0
   -0.3615    0.1191    0.4320 H   0  0  0  0  0  0  0  0  0  0  0  0
   -3.2982   -1.7908    1.9692 H   0  0  0  0  0  0  0  0  0  0  0  0
   -3.7857   -1.7045    4.3944 H   0  0  0  0  0  0  0  0  0  0  0  0
   -0.4392    0.8911    5.0152 H   0  0  0  0  0  0  0  0  0  0  0  0
    0.0855    0.8319    2.5974 H   0  0  0  0  0  0  0  0  0  0  0  0
   -3.2922   -1.7602   -0.8797 H   0  0  0  0  0  0  0  0  0  0  0  0
   -5.0318   -0.6984   -2.1814 H   0  0  0  0  0  0  0  0  0  0  0  0
   -5.8701    0.6839   -3.9190 H   0  0  0  0  0  0  0  0  0  0  0  0
   -6.9256    0.7150   -2.4526 H   0  0  0  0  0  0  0  0  0  0  0  0
   -6.9827    2.0278   -3.6350 H   0  0  0  0  0  0  0  0  0  0  0  0
   -3.5063    3.1823   -1.1101 H   0  0  0  0  0  0  0  0  0  0  0  0
   -1.7316    2.1172    0.2157 H   0  0  0  0  0  0  0  0  0  0  0  0
    4.6589   -2.1791    0.1433 H   0  0  0  0  0  0  0  0  0  0  0  0
    6.6940   -0.7886   -0.0120 H   0  0  0  0  0  0  0  0  0  0  0  0
  1  2  1  0
  2  3  1  0
  3  4  2  0
  4  5  1  0
  5  6  2  0
  6  7  1  0
  7  8  1  0
  8  9  1  0
  9 10  1  0
 10 11  1  0
 11 12  1  0
 12 13  2  0
 13 14  1  0
 14 15  2  0
 15 16  1  0
 15 17  1  0
 17 18  2  0
 11 19  1  0
 19 20  2  0
 20 21  1  0
 21 22  2  0
 22 23  1  0
 23 24  1  0
 22 25  1  0
 25 26  2  0
  6 27  1  0
 27 28  2  0
 28  3  1  0
 18 12  1  0
 26 19  1  0
  1 29  1  0
  1 30  1  0
  1 31  1  0
  4 32  1  0
  5 33  1  0
  7 34  1  0
  7 35  1  0
  8 36  1  0
  9 37  1  0
  9 38  1  0
 10 39  1  0
 10 40  1  0
 11 41  1  0
 13 42  1  0
 14 43  1  0
 17 44  1  0
 18 45  1  0
 20 46  1  0
 21 47  1  0
 24 48  1  0
 24 49  1  0
 24 50  1  0
 25 51  1  0
 26 52  1  0
 27 53  1  0
 28 54  1  0
M  END
$$$$
