
     RDKit          3D

 43 44  0  0  0  0  0  0  0  0999 V2000
   -5.9732    1.6558    1.6541 C   0  0  0  0  0  0  0  0  0  0  0  0
   -5.0424    2.3140    0.6528 C   0  0  0  0  0  0  0  0  0  0  0  0
   -4.0252    1.3921    0.2396 O   0  0  0  0  0  0  0  0  0  0  0  0
   -2.9232    1.3180    1.0468 C   0  0  0  0  0  0  0  0  0  0  0  0
   -2.7478    2.0272    2.0324 O   0  0  0  0  0  0  0  0  0  0  0  0
   -1.9450    0.3327    0.5571 C   0  0  0  0  0  0  0  0  0  0  0  0
   -0.6296    0.5105    0.7501 N   0  0  0  0  0  0  0  0  0  0  0  0
   -0.0091   -0.4768    0.0621 N   0  0  0  0  0  0  0  0  0  0  0  0
    1.4105   -0.4103   -0.0946 C   0  0  0  0  0  0  0  0  0  0  0  0
    2.0945   -1.1420   -1.0686 C   0  0  0  0  0  0  0  0  0  0  0  0
    3.4861   -1.0307   -1.1834 C   0  0  0  0  0  0  0  0  0  0  0  0
    4.2165   -0.1875   -0.3433 C   0  0  0  0  0  0  0  0  0  0  0  0
    5.5620   -0.1831   -0.5765 O   0  0  0  0  0  0  0  0  0  0  0  0
    6.4111    0.5503    0.3051 C   0  0  0  0  0  0  0  0  0  0  0  0
    6.5786    1.9818   -0.1740 C   0  0  0  0  0  0  0  0  0  0  0  0
    3.5369    0.5654    0.6093 C   0  0  0  0  0  0  0  0  0  0  0  0
    2.1448    0.4600    0.7292 C   0  0  0  0  0  0  0  0  0  0  0  0
   -0.9286   -1.4199   -0.3887 C   0  0  0  0  0  0  0  0  0  0  0  0
   -0.5755   -2.7725   -0.8989 C   0  0  0  0  0  0  0  0  0  0  0  0
   -2.1873   -0.8742   -0.1534 C   0  0  0  0  0  0  0  0  0  0  0  0
   -3.4863   -1.4565   -0.4661 C   0  0  0  0  0  0  0  0  0  0  0  0
   -3.6709   -2.1596   -1.7870 C   0  0  0  0  0  0  0  0  0  0  0  0
   -4.4150   -1.3986    0.3381 O   0  0  0  0  0  0  0  0  0  0  0  0
   -5.4337    1.3646    2.5608 H   0  0  0  0  0  0  0  0  0  0  0  0
   -6.4059    0.7422    1.2335 H   0  0  0  0  0  0  0  0  0  0  0  0
   -6.7845    2.3340    1.9330 H   0  0  0  0  0  0  0  0  0  0  0  0
   -5.6063    2.5899   -0.2444 H   0  0  0  0  0  0  0  0  0  0  0  0
   -4.6075    3.2367    1.0535 H   0  0  0  0  0  0  0  0  0  0  0  0
    1.5895   -1.7738   -1.7883 H   0  0  0  0  0  0  0  0  0  0  0  0
    4.0081   -1.6024   -1.9481 H   0  0  0  0  0  0  0  0  0  0  0  0
    6.0846    0.4933    1.3493 H   0  0  0  0  0  0  0  0  0  0  0  0
    7.3901    0.0586    0.2707 H   0  0  0  0  0  0  0  0  0  0  0  0
    7.2860    2.5218    0.4618 H   0  0  0  0  0  0  0  0  0  0  0  0
    5.6262    2.5199   -0.1699 H   0  0  0  0  0  0  0  0  0  0  0  0
    6.9478    1.9997   -1.2049 H   0  0  0  0  0  0  0  0  0  0  0  0
    4.0481    1.2547    1.2724 H   0  0  0  0  0  0  0  0  0  0  0  0
    1.6463    1.0645    1.4868 H   0  0  0  0  0  0  0  0  0  0  0  0
    0.3310   -3.1642   -0.4283 H   0  0  0  0  0  0  0  0  0  0  0  0
   -0.4495   -2.7575   -1.9854 H   0  0  0  0  0  0  0  0  0  0  0  0
   -1.3658   -3.4926   -0.6636 H   0  0  0  0  0  0  0  0  0  0  0  0
   -4.6984   -2.0081   -2.1314 H   0  0  0  0  0  0  0  0  0  0  0  0
   -3.4875   -3.2295   -1.6665 H   0  0  0  0  0  0  0  0  0  0  0  0
   -2.9999   -1.7478   -2.5457 H   0  0  0  0  0  0  0  0  0  0  0  0
  1  2  1  0
  2  3  1  0
  3  4  1  0
  4  5  2  0
  4  6  1  0
  6  7  2  0
  7  8  1  0
  8  9  1  0
  9 10  2  0
 10 11  1  0
 11 12  2  0
 12 13  1  0
 13 14  1  0
 14 15  1  0
 12 16  1  0
 16 17  2  0
  8 18  1  0
 18 19  1  0
 18 20  2  0
 20 21  1  0
 21 22  1  0
 21 23  2  0
 20  6  1  0
 17  9  1  0
  1 24  1  0
  1 25  1  0
  1 26  1  0
  2 27  1  0
  2 28  1  0
 10 29  1  0
 11 30  1  0
 14 31  1  0
 14 32  1  0
 15 33  1  0
 15 34  1  0
 15 35  1  0
 16 36  1  0
 17 37  1  0
 19 38  1  0
 19 39  1  0
 19 40  1  0
 22 41  1  0
 22 42  1  0
 22 43  1  0
M  END
$$$$
