
     RDKit          3D

 39 41  0  0  0  0  0  0  0  0999 V2000
    4.7519    1.3214   -0.5563 C   0  0  0  0  0  0  0  0  0  0  0  0
    4.2980    0.3232    0.5086 C   0  0  0  0  0  0  0  0  0  0  0  0
    4.8904   -1.0589    0.2340 C   0  0  0  0  0  0  0  0  0  0  0  0
    2.7661    0.2845    0.6605 C   0  0  0  0  0  0  0  0  0  0  0  0
    1.9956   -0.1738   -0.5846 C   0  0  0  0  0  0  0  0  0  0  0  0
    0.5528   -0.1782   -0.3448 N   0  0  0  0  0  0  0  0  0  0  0  0
   -0.0088   -1.3334    0.1935 C   0  0  0  0  0  0  0  0  0  0  0  0
    0.6377   -2.3406    0.4723 O   0  0  0  0  0  0  0  0  0  0  0  0
   -1.4694   -1.3200    0.4414 C   0  0  0  0  0  0  0  0  0  0  0  0
   -2.0805   -2.4816    0.9285 C   0  0  0  0  0  0  0  0  0  0  0  0
   -3.4486   -2.4987    1.1598 C   0  0  0  0  0  0  0  0  0  0  0  0
   -4.2063   -1.3532    0.9137 C   0  0  0  0  0  0  0  0  0  0  0  0
   -3.6187   -0.1594    0.4329 C   0  0  0  0  0  0  0  0  0  0  0  0
   -4.3575    1.0320    0.1934 C   0  0  0  0  0  0  0  0  0  0  0  0
   -5.7624    1.0998    0.3039 N   0  0  0  0  0  0  0  0  0  0  0  0
   -3.7192    2.1464   -0.3618 C   0  0  0  0  0  0  0  0  0  0  0  0
   -2.3496    2.1372   -0.5989 C   0  0  0  0  0  0  0  0  0  0  0  0
   -1.6025    0.9898   -0.3188 C   0  0  0  0  0  0  0  0  0  0  0  0
   -2.2177   -0.1623    0.1853 C   0  0  0  0  0  0  0  0  0  0  0  0
   -0.1445    1.0041   -0.5811 C   0  0  0  0  0  0  0  0  0  0  0  0
    0.3830    2.0386   -0.9831 O   0  0  0  0  0  0  0  0  0  0  0  0
    4.3170    2.3098   -0.3751 H   0  0  0  0  0  0  0  0  0  0  0  0
    4.4671    1.0009   -1.5634 H   0  0  0  0  0  0  0  0  0  0  0  0
    5.8420    1.4290   -0.5405 H   0  0  0  0  0  0  0  0  0  0  0  0
    4.7024    0.6661    1.4703 H   0  0  0  0  0  0  0  0  0  0  0  0
    4.5552   -1.7829    0.9839 H   0  0  0  0  0  0  0  0  0  0  0  0
    4.6088   -1.4342   -0.7549 H   0  0  0  0  0  0  0  0  0  0  0  0
    5.9845   -1.0211    0.2730 H   0  0  0  0  0  0  0  0  0  0  0  0
    2.5136   -0.3738    1.5021 H   0  0  0  0  0  0  0  0  0  0  0  0
    2.4171    1.2839    0.9517 H   0  0  0  0  0  0  0  0  0  0  0  0
    2.3074   -1.1820   -0.8769 H   0  0  0  0  0  0  0  0  0  0  0  0
    2.2102    0.4870   -1.4311 H   0  0  0  0  0  0  0  0  0  0  0  0
   -1.4912   -3.3758    1.1240 H   0  0  0  0  0  0  0  0  0  0  0  0
   -3.9270   -3.4008    1.5338 H   0  0  0  0  0  0  0  0  0  0  0  0
   -5.2738   -1.4110    1.1087 H   0  0  0  0  0  0  0  0  0  0  0  0
   -6.1525    0.4523    0.9794 H   0  0  0  0  0  0  0  0  0  0  0  0
   -6.2053    0.9684   -0.6036 H   0  0  0  0  0  0  0  0  0  0  0  0
   -4.2947    3.0414   -0.5900 H   0  0  0  0  0  0  0  0  0  0  0  0
   -1.8708    3.0258   -1.0061 H   0  0  0  0  0  0  0  0  0  0  0  0
  1  2  1  0
  2  3  1  0
  2  4  1  0
  4  5  1  0
  5  6  1  0
  6  7  1  0
  7  8  2  0
  7  9  1  0
  9 10  1  0
 10 11  2  0
 11 12  1  0
 12 13  2  0
 13 14  1  0
 14 15  1  0
 14 16  2  0
 16 17  1  0
 17 18  2  0
 18 19  1  0
 18 20  1  0
 20 21  2  0
 20  6  1  0
 19  9  2  0
 19 13  1  0
  1 22  1  0
  1 23  1  0
  1 24  1  0
  2 25  1  0
  3 26  1  0
  3 27  1  0
  3 28  1  0
  4 29  1  0
  4 30  1  0
  5 31  1  0
  5 32  1  0
 10 33  1  0
 11 34  1  0
 12 35  1  0
 15 36  1  0
 15 37  1  0
 16 38  1  0
 17 39  1  0
M  END
$$$$
