
     RDKit          3D

 31 34  0  0  0  0  0  0  0  0999 V2000
    3.2640    0.2495    2.1773 O   0  0  0  0  0  0  0  0  0  0  0  0
    3.2532   -0.7182    1.4325 C   0  0  0  0  0  0  0  0  0  0  0  0
    4.2122   -1.6617    1.5176 O   0  0  0  0  0  0  0  0  0  0  0  0
    2.2401   -0.9930    0.3313 C   0  0  0  0  0  0  0  0  0  0  0  0
    2.9586   -0.3237   -1.2305 S   0  0  0  0  0  0  0  0  0  0  0  0
    1.7309    0.7332   -1.7455 C   0  0  0  0  0  0  0  0  0  0  0  0
    2.0557    1.7698   -2.5639 N   0  0  0  0  0  0  0  0  0  0  0  0
    1.0372    2.6204   -2.8969 C   0  0  0  0  0  0  0  0  0  0  0  0
    1.0993    3.6073   -3.6066 O   0  0  0  0  0  0  0  0  0  0  0  0
   -0.4210    2.0317   -2.0937 S   0  0  0  0  0  0  0  0  0  0  0  0
    0.4358    0.6689   -1.4037 C   0  0  0  0  0  0  0  0  0  0  0  0
   -0.1149   -0.3798   -0.4578 C   0  0  0  0  0  0  0  0  0  0  0  0
   -1.5474   -0.2331    0.0129 C   0  0  0  0  0  0  0  0  0  0  0  0
   -2.6176   -0.0578   -0.8817 C   0  0  0  0  0  0  0  0  0  0  0  0
   -3.9277    0.0889   -0.4150 C   0  0  0  0  0  0  0  0  0  0  0  0
   -5.3341    0.3672   -1.6472 Br  0  0  0  0  0  0  0  0  0  0  0  0
   -4.2069    0.0223    0.9461 C   0  0  0  0  0  0  0  0  0  0  0  0
   -3.1715   -0.2328    1.8403 C   0  0  0  0  0  0  0  0  0  0  0  0
   -1.8662   -0.3838    1.3638 C   0  0  0  0  0  0  0  0  0  0  0  0
   -0.9312   -0.8156    2.3142 O   0  0  0  0  0  0  0  0  0  0  0  0
    0.2978   -1.2483    1.8594 C   0  0  0  0  0  0  0  0  0  0  0  0
    0.9053   -2.1571    2.4126 O   0  0  0  0  0  0  0  0  0  0  0  0
    0.8597   -0.4212    0.7314 C   0  0  0  0  0  0  0  0  0  0  0  0
    4.7794   -1.3745    2.2640 H   0  0  0  0  0  0  0  0  0  0  0  0
    2.1630   -2.0796    0.1996 H   0  0  0  0  0  0  0  0  0  0  0  0
    2.9949    1.9310   -2.8964 H   0  0  0  0  0  0  0  0  0  0  0  0
   -0.0864   -1.3513   -0.9747 H   0  0  0  0  0  0  0  0  0  0  0  0
   -2.4396   -0.0321   -1.9550 H   0  0  0  0  0  0  0  0  0  0  0  0
   -5.2235    0.1325    1.3138 H   0  0  0  0  0  0  0  0  0  0  0  0
   -3.3849   -0.3483    2.9002 H   0  0  0  0  0  0  0  0  0  0  0  0
    0.9858    0.5895    1.1514 H   0  0  0  0  0  0  0  0  0  0  0  0
  1  2  2  0
  2  3  1  0
  2  4  1  0
  4  5  1  0
  5  6  1  0
  6  7  1  0
  7  8  1  0
  8  9  2  0
  8 10  1  0
 10 11  1  0
 11 12  1  0
 12 13  1  0
 13 14  2  0
 14 15  1  0
 15 16  1  0
 15 17  2  0
 17 18  1  0
 18 19  2  0
 19 20  1  0
 20 21  1  0
 21 22  2  0
 21 23  1  0
 23  4  1  0
 11  6  2  0
 23 12  1  0
 19 13  1  0
  3 24  1  0
  4 25  1  0
  7 26  1  0
 12 27  1  0
 14 28  1  0
 17 29  1  0
 18 30  1  0
 23 31  1  0
M  END
$$$$
