
     RDKit          3D

 60 63  0  0  0  0  0  0  0  0999 V2000
   -8.6575    1.1236   -0.0563 C   0  0  0  0  0  0  0  0  0  0  0  0
   -8.0864    0.8858    1.3383 C   0  0  0  0  0  0  0  0  0  0  0  0
   -9.0130    1.4909    2.3909 C   0  0  0  0  0  0  0  0  0  0  0  0
   -6.8268    1.5523    1.4682 O   0  0  0  0  0  0  0  0  0  0  0  0
   -5.6836    0.8910    1.1222 C   0  0  0  0  0  0  0  0  0  0  0  0
   -5.5961   -0.3549    0.5109 C   0  0  0  0  0  0  0  0  0  0  0  0
   -4.3418   -0.9074    0.2121 C   0  0  0  0  0  0  0  0  0  0  0  0
   -3.1413   -0.2339    0.5051 C   0  0  0  0  0  0  0  0  0  0  0  0
   -1.8340   -0.8432    0.1758 C   0  0  0  0  0  0  0  0  0  0  0  0
   -0.6974   -0.1026   -0.0967 C   0  0  0  0  0  0  0  0  0  0  0  0
    0.4893   -0.7803   -0.3803 C   0  0  0  0  0  0  0  0  0  0  0  0
    1.6819    0.0656   -0.5983 C   0  0  0  0  0  0  0  0  0  0  0  0
    1.6669    0.9398   -1.4540 O   0  0  0  0  0  0  0  0  0  0  0  0
    2.7360   -0.1718    0.2553 N   0  0  0  0  0  0  0  0  0  0  0  0
    3.9701    0.5892    0.1682 C   0  0  0  0  0  0  0  0  0  0  0  0
    4.8881    0.0737   -0.9592 C   0  0  0  0  0  0  0  0  0  0  0  0
    6.1865    0.7358   -1.1469 N   0  0  0  0  0  0  0  0  0  0  0  0
    7.0711    0.6475    0.0271 C   0  0  0  0  0  0  0  0  0  0  0  0
    8.4300    1.3060   -0.2648 C   0  0  0  0  0  0  0  0  0  0  0  0
    8.2670    2.6801   -0.6426 O   0  0  0  0  0  0  0  0  0  0  0  0
    7.4361    2.7744   -1.8088 C   0  0  0  0  0  0  0  0  0  0  0  0
    6.0546    2.1461   -1.5594 C   0  0  0  0  0  0  0  0  0  0  0  0
    0.5328   -2.1887   -0.4450 C   0  0  0  0  0  0  0  0  0  0  0  0
    1.6709   -2.9585   -0.8011 C   0  0  0  0  0  0  0  0  0  0  0  0
    1.6174   -4.3505   -0.8304 C   0  0  0  0  0  0  0  0  0  0  0  0
    0.4299   -4.9931   -0.5142 C   0  0  0  0  0  0  0  0  0  0  0  0
   -0.6977   -4.2382   -0.1835 C   0  0  0  0  0  0  0  0  0  0  0  0
   -0.6720   -2.8502   -0.1515 C   0  0  0  0  0  0  0  0  0  0  0  0
   -1.8073   -2.2001    0.1553 N   0  0  0  0  0  0  0  0  0  0  0  0
   -3.2542    1.0229    1.1222 C   0  0  0  0  0  0  0  0  0  0  0  0
   -4.5061    1.5759    1.4214 C   0  0  0  0  0  0  0  0  0  0  0  0
   -8.7439    2.1958   -0.2648 H   0  0  0  0  0  0  0  0  0  0  0  0
   -8.0032    0.7091   -0.8287 H   0  0  0  0  0  0  0  0  0  0  0  0
   -9.6460    0.6663   -0.1620 H   0  0  0  0  0  0  0  0  0  0  0  0
   -8.0056   -0.1850    1.5560 H   0  0  0  0  0  0  0  0  0  0  0  0
  -10.0058    1.0309    2.3598 H   0  0  0  0  0  0  0  0  0  0  0  0
   -9.1214    2.5721    2.2469 H   0  0  0  0  0  0  0  0  0  0  0  0
   -8.5939    1.3478    3.3932 H   0  0  0  0  0  0  0  0  0  0  0  0
   -6.4750   -0.9293    0.2413 H   0  0  0  0  0  0  0  0  0  0  0  0
   -4.3069   -1.8860   -0.2666 H   0  0  0  0  0  0  0  0  0  0  0  0
   -0.7123    0.9825   -0.1006 H   0  0  0  0  0  0  0  0  0  0  0  0
    2.6515   -0.8834    0.9714 H   0  0  0  0  0  0  0  0  0  0  0  0
    3.7108    1.6408    0.0095 H   0  0  0  0  0  0  0  0  0  0  0  0
    4.4575    0.4978    1.1434 H   0  0  0  0  0  0  0  0  0  0  0  0
    5.0738   -0.9958   -0.7917 H   0  0  0  0  0  0  0  0  0  0  0  0
    4.3431    0.1104   -1.9117 H   0  0  0  0  0  0  0  0  0  0  0  0
    7.2364   -0.4015    0.2968 H   0  0  0  0  0  0  0  0  0  0  0  0
    6.6187    1.1559    0.8867 H   0  0  0  0  0  0  0  0  0  0  0  0
    9.0531    1.2829    0.6348 H   0  0  0  0  0  0  0  0  0  0  0  0
    8.9697    0.7737   -1.0574 H   0  0  0  0  0  0  0  0  0  0  0  0
    7.9445    2.2954   -2.6542 H   0  0  0  0  0  0  0  0  0  0  0  0
    7.3219    3.8365   -2.0478 H   0  0  0  0  0  0  0  0  0  0  0  0
    5.4627    2.2178   -2.4785 H   0  0  0  0  0  0  0  0  0  0  0  0
    5.5467    2.7258   -0.7794 H   0  0  0  0  0  0  0  0  0  0  0  0
    2.6052   -2.4763   -1.0812 H   0  0  0  0  0  0  0  0  0  0  0  0
    2.4958   -4.9278   -1.1081 H   0  0  0  0  0  0  0  0  0  0  0  0
    0.3695   -6.0783   -0.5350 H   0  0  0  0  0  0  0  0  0  0  0  0
   -1.6294   -4.7496    0.0502 H   0  0  0  0  0  0  0  0  0  0  0  0
   -2.3705    1.5928    1.3981 H   0  0  0  0  0  0  0  0  0  0  0  0
   -4.5604    2.5513    1.8995 H   0  0  0  0  0  0  0  0  0  0  0  0
  1  2  1  0
  2  3  1  0
  2  4  1  0
  4  5  1  0
  5  6  2  0
  6  7  1  0
  7  8  2  0
  8  9  1  0
  9 10  2  0
 10 11  1  0
 11 12  1  0
 12 13  2  0
 12 14  1  0
 14 15  1  0
 15 16  1  0
 16 17  1  0
 17 18  1  0
 18 19  1  0
 19 20  1  0
 20 21  1  0
 21 22  1  0
 11 23  2  0
 23 24  1  0
 24 25  2  0
 25 26  1  0
 26 27  2  0
 27 28  1  0
 28 29  2  0
  8 30  1  0
 30 31  2  0
 31  5  1  0
 29  9  1  0
 22 17  1  0
 28 23  1  0
  1 32  1  0
  1 33  1  0
  1 34  1  0
  2 35  1  0
  3 36  1  0
  3 37  1  0
  3 38  1  0
  6 39  1  0
  7 40  1  0
 10 41  1  0
 14 42  1  0
 15 43  1  0
 15 44  1  0
 16 45  1  0
 16 46  1  0
 18 47  1  0
 18 48  1  0
 19 49  1  0
 19 50  1  0
 21 51  1  0
 21 52  1  0
 22 53  1  0
 22 54  1  0
 24 55  1  0
 25 56  1  0
 26 57  1  0
 27 58  1  0
 30 59  1  0
 31 60  1  0
M  END
$$$$
