
     RDKit          3D

 55 58  0  0  0  0  0  0  0  0999 V2000
    3.5015   -3.3362   -3.9009 C   0  0  0  0  0  0  0  0  0  0  0  0
    2.5306   -2.3237   -4.1788 O   0  0  0  0  0  0  0  0  0  0  0  0
    1.4090   -2.4932   -3.4034 C   0  0  0  0  0  0  0  0  0  0  0  0
    0.5967   -3.6014   -3.6789 C   0  0  0  0  0  0  0  0  0  0  0  0
   -0.5506   -3.8355   -2.9332 C   0  0  0  0  0  0  0  0  0  0  0  0
   -0.9026   -2.9490   -1.9215 C   0  0  0  0  0  0  0  0  0  0  0  0
   -0.1319   -1.7972   -1.6535 C   0  0  0  0  0  0  0  0  0  0  0  0
   -0.5936   -0.9114   -0.5012 C   0  0  0  0  0  0  0  0  0  0  0  0
   -0.5836    0.6010   -0.7535 C   0  0  0  0  0  0  0  0  0  0  0  0
    0.5141    1.0858    0.1610 C   0  0  0  0  0  0  0  0  0  0  0  0
    0.9998    2.4848    0.1191 C   0  0  0  0  0  0  0  0  0  0  0  0
    0.3838    3.4504   -0.6844 C   0  0  0  0  0  0  0  0  0  0  0  0
    0.8613    4.7637   -0.6898 C   0  0  0  0  0  0  0  0  0  0  0  0
    1.9524    5.1167    0.1038 C   0  0  0  0  0  0  0  0  0  0  0  0
    2.5700    4.1581    0.9046 C   0  0  0  0  0  0  0  0  0  0  0  0
    2.0951    2.8455    0.9142 C   0  0  0  0  0  0  0  0  0  0  0  0
    0.9617    0.2126    1.0113 N   0  0  0  0  0  0  0  0  0  0  0  0
    0.2587   -1.0766    0.7034 N   0  0  0  0  0  0  0  0  0  0  0  0
   -0.3854   -1.9827    2.0055 S   0  0  0  0  0  6  0  0  0  0  0  0
    0.6226   -2.1597    3.0307 O   0  0  0  0  0  0  0  0  0  0  0  0
   -1.0993   -3.1234    1.4621 O   0  0  0  0  0  0  0  0  0  0  0  0
   -1.6105   -0.8678    2.6706 C   0  0  0  0  0  0  0  0  0  0  0  0
   -2.9702   -1.1114    2.4598 C   0  0  0  0  0  0  0  0  0  0  0  0
   -3.9166   -0.2410    3.0048 C   0  0  0  0  0  0  0  0  0  0  0  0
   -3.5110    0.8715    3.7546 C   0  0  0  0  0  0  0  0  0  0  0  0
   -4.5273    1.7863    4.3745 C   0  0  0  0  0  0  0  0  0  0  0  0
   -2.1439    1.0897    3.9769 C   0  0  0  0  0  0  0  0  0  0  0  0
   -1.1936    0.2209    3.4405 C   0  0  0  0  0  0  0  0  0  0  0  0
    1.0414   -1.5622   -2.4132 C   0  0  0  0  0  0  0  0  0  0  0  0
    1.7075   -0.4123   -2.0899 O   0  0  0  0  0  0  0  0  0  0  0  0
    2.9530   -0.1113   -2.6944 C   0  0  0  0  0  0  0  0  0  0  0  0
    3.6796   -3.4373   -2.8242 H   0  0  0  0  0  0  0  0  0  0  0  0
    3.2073   -4.2987   -4.3303 H   0  0  0  0  0  0  0  0  0  0  0  0
    4.4430   -3.0323   -4.3692 H   0  0  0  0  0  0  0  0  0  0  0  0
    0.8598   -4.2885   -4.4783 H   0  0  0  0  0  0  0  0  0  0  0  0
   -1.1633   -4.7106   -3.1308 H   0  0  0  0  0  0  0  0  0  0  0  0
   -1.7887   -3.1708   -1.3265 H   0  0  0  0  0  0  0  0  0  0  0  0
   -1.6355   -1.1699   -0.2762 H   0  0  0  0  0  0  0  0  0  0  0  0
   -0.4278    0.8831   -1.7979 H   0  0  0  0  0  0  0  0  0  0  0  0
   -1.5250    1.0471   -0.4072 H   0  0  0  0  0  0  0  0  0  0  0  0
   -0.4703    3.2092   -1.3094 H   0  0  0  0  0  0  0  0  0  0  0  0
    0.3805    5.5144   -1.3130 H   0  0  0  0  0  0  0  0  0  0  0  0
    2.3215    6.1393    0.0980 H   0  0  0  0  0  0  0  0  0  0  0  0
    3.4224    4.4303    1.5231 H   0  0  0  0  0  0  0  0  0  0  0  0
    2.5887    2.1068    1.5426 H   0  0  0  0  0  0  0  0  0  0  0  0
   -3.3017   -1.9763    1.8897 H   0  0  0  0  0  0  0  0  0  0  0  0
   -4.9751   -0.4410    2.8486 H   0  0  0  0  0  0  0  0  0  0  0  0
   -5.4854    1.7249    3.8495 H   0  0  0  0  0  0  0  0  0  0  0  0
   -4.1948    2.8272    4.3189 H   0  0  0  0  0  0  0  0  0  0  0  0
   -4.6839    1.5154    5.4229 H   0  0  0  0  0  0  0  0  0  0  0  0
   -1.8120    1.9344    4.5769 H   0  0  0  0  0  0  0  0  0  0  0  0
   -0.1341    0.3935    3.6226 H   0  0  0  0  0  0  0  0  0  0  0  0
    3.7011   -0.8732   -2.4625 H   0  0  0  0  0  0  0  0  0  0  0  0
    3.3094    0.8286   -2.2621 H   0  0  0  0  0  0  0  0  0  0  0  0
    2.8453    0.0533   -3.7699 H   0  0  0  0  0  0  0  0  0  0  0  0
  1  2  1  0
  2  3  1  0
  3  4  2  0
  4  5  1  0
  5  6  2  0
  6  7  1  0
  7  8  1  0
  8  9  1  0
  9 10  1  0
 10 11  1  0
 11 12  2  0
 12 13  1  0
 13 14  2  0
 14 15  1  0
 15 16  2  0
 10 17  2  0
 17 18  1  0
 18 19  1  0
 19 20  2  0
 19 21  2  0
 19 22  1  0
 22 23  2  0
 23 24  1  0
 24 25  2  0
 25 26  1  0
 25 27  1  0
 27 28  2  0
  7 29  2  0
 29 30  1  0
 30 31  1  0
 29  3  1  0
 18  8  1  0
 28 22  1  0
 16 11  1  0
  1 32  1  0
  1 33  1  0
  1 34  1  0
  4 35  1  0
  5 36  1  0
  6 37  1  0
  8 38  1  0
  9 39  1  0
  9 40  1  0
 12 41  1  0
 13 42  1  0
 14 43  1  0
 15 44  1  0
 16 45  1  0
 23 46  1  0
 24 47  1  0
 26 48  1  0
 26 49  1  0
 26 50  1  0
 27 51  1  0
 28 52  1  0
 31 53  1  0
 31 54  1  0
 31 55  1  0
M  END
$$$$
