
     RDKit          3D

 49 52  0  0  0  0  0  0  0  0999 V2000
   -5.9253    2.7361   -0.6970 C   0  0  0  0  0  0  0  0  0  0  0  0
   -4.6682    3.2634   -0.0273 C   0  0  0  0  0  0  0  0  0  0  0  0
   -4.2529    2.3955    1.0257 O   0  0  0  0  0  0  0  0  0  0  0  0
   -3.3954    1.3716    0.7376 C   0  0  0  0  0  0  0  0  0  0  0  0
   -2.9392    0.6686    1.8557 C   0  0  0  0  0  0  0  0  0  0  0  0
   -2.0586   -0.4072    1.7155 C   0  0  0  0  0  0  0  0  0  0  0  0
   -1.6309   -0.8004    0.4444 C   0  0  0  0  0  0  0  0  0  0  0  0
   -0.7077   -1.9170    0.2896 C   0  0  0  0  0  0  0  0  0  0  0  0
    0.6679   -1.9172    0.0970 C   0  0  0  0  0  0  0  0  0  0  0  0
    1.5756   -0.7772   -0.0293 C   0  0  0  0  0  0  0  0  0  0  0  0
    1.1776    0.3829   -0.0497 O   0  0  0  0  0  0  0  0  0  0  0  0
    2.9049   -1.1788   -0.1422 N   0  0  0  0  0  0  0  0  0  0  0  0
    3.9805   -0.3806   -0.4402 N   0  0  0  0  0  0  0  0  0  0  0  0
    3.9769    0.8453   -0.0204 C   0  0  0  0  0  0  0  0  0  0  0  0
    5.0780    1.7776   -0.3425 C   0  0  0  0  0  0  0  0  0  0  0  0
    6.1706    1.3654   -1.1110 C   0  0  0  0  0  0  0  0  0  0  0  0
    7.1961    2.2676   -1.3982 C   0  0  0  0  0  0  0  0  0  0  0  0
    7.1290    3.5767   -0.9196 C   0  0  0  0  0  0  0  0  0  0  0  0
    6.0372    3.9878   -0.1538 C   0  0  0  0  0  0  0  0  0  0  0  0
    5.0089    3.0894    0.1365 C   0  0  0  0  0  0  0  0  0  0  0  0
    1.1176   -3.2109    0.0383 N   0  0  0  0  0  0  0  0  0  0  0  0
    0.0828   -4.0178    0.1803 N   0  0  0  0  0  0  0  0  0  0  0  0
   -1.0541   -3.2712    0.3190 N   0  0  0  0  0  0  0  0  0  0  0  0
   -2.3274   -3.8842    0.4399 C   0  0  0  0  0  0  0  0  0  0  0  0
   -3.4449   -3.1592    0.4932 N   0  0  0  0  0  0  0  0  0  0  0  0
   -4.4624   -4.1060    0.5868 O   0  0  0  0  0  0  0  0  0  0  0  0
   -3.9502   -5.3992    0.5817 N   0  0  0  0  0  0  0  0  0  0  0  0
   -2.6280   -5.2584    0.4976 C   0  0  0  0  0  0  0  0  0  0  0  0
   -1.7565   -6.2850    0.4766 N   0  0  0  0  0  0  0  0  0  0  0  0
   -2.0844   -0.0968   -0.6760 C   0  0  0  0  0  0  0  0  0  0  0  0
   -2.9654    0.9820   -0.5299 C   0  0  0  0  0  0  0  0  0  0  0  0
   -6.7179    2.5831    0.0430 H   0  0  0  0  0  0  0  0  0  0  0  0
   -5.7487    1.7684   -1.1758 H   0  0  0  0  0  0  0  0  0  0  0  0
   -6.2831    3.4390   -1.4547 H   0  0  0  0  0  0  0  0  0  0  0  0
   -3.8663    3.4701   -0.7444 H   0  0  0  0  0  0  0  0  0  0  0  0
   -4.9054    4.2255    0.4412 H   0  0  0  0  0  0  0  0  0  0  0  0
   -3.2713    0.9650    2.8478 H   0  0  0  0  0  0  0  0  0  0  0  0
   -1.7174   -0.9282    2.6063 H   0  0  0  0  0  0  0  0  0  0  0  0
    3.0676   -2.1707   -0.3040 H   0  0  0  0  0  0  0  0  0  0  0  0
    3.1803    1.2569    0.6214 H   0  0  0  0  0  0  0  0  0  0  0  0
    6.2284    0.3472   -1.4877 H   0  0  0  0  0  0  0  0  0  0  0  0
    8.0467    1.9493   -1.9957 H   0  0  0  0  0  0  0  0  0  0  0  0
    7.9287    4.2780   -1.1453 H   0  0  0  0  0  0  0  0  0  0  0  0
    5.9871    5.0092    0.2154 H   0  0  0  0  0  0  0  0  0  0  0  0
    4.1615    3.4217    0.7308 H   0  0  0  0  0  0  0  0  0  0  0  0
   -0.7832   -6.1468    0.2098 H   0  0  0  0  0  0  0  0  0  0  0  0
   -2.1076   -7.2237    0.3174 H   0  0  0  0  0  0  0  0  0  0  0  0
   -1.7557   -0.3759   -1.6744 H   0  0  0  0  0  0  0  0  0  0  0  0
   -3.2956    1.4888   -1.4296 H   0  0  0  0  0  0  0  0  0  0  0  0
  1  2  1  0
  2  3  1  0
  3  4  1  0
  4  5  2  0
  5  6  1  0
  6  7  2  0
  7  8  1  0
  8  9  2  0
  9 10  1  0
 10 11  2  0
 10 12  1  0
 12 13  1  0
 13 14  2  3
 14 15  1  0
 15 16  2  0
 16 17  1  0
 17 18  2  0
 18 19  1  0
 19 20  2  0
  9 21  1  0
 21 22  2  0
 22 23  1  0
 23 24  1  0
 24 25  2  0
 25 26  1  0
 26 27  1  0
 27 28  2  0
 28 29  1  0
  7 30  1  0
 30 31  2  0
 31  4  1  0
 23  8  1  0
 28 24  1  0
 20 15  1  0
  1 32  1  0
  1 33  1  0
  1 34  1  0
  2 35  1  0
  2 36  1  0
  5 37  1  0
  6 38  1  0
 12 39  1  0
 14 40  1  0
 16 41  1  0
 17 42  1  0
 18 43  1  0
 19 44  1  0
 20 45  1  0
 29 46  1  0
 29 47  1  0
 30 48  1  0
 31 49  1  0
M  END
$$$$
