
     RDKit          3D

 44 46  0  0  0  0  0  0  0  0999 V2000
    3.0700    3.8964   -3.6001 C   0  0  0  0  0  0  0  0  0  0  0  0
    2.7435    3.2343   -2.3393 N   0  0  0  0  0  0  0  0  0  0  0  0
    3.2387    1.8421   -2.3370 C   0  0  0  0  0  0  0  0  0  0  0  0
    2.8752    1.0785   -1.0433 C   0  0  0  0  0  0  0  0  0  0  0  0
    1.4108    1.0927   -0.7970 N   0  0  0  0  0  0  0  0  0  0  0  0
    0.7726    0.0893   -0.0412 C   0  0  0  0  0  0  0  0  0  0  0  0
   -0.5673   -0.0742   -0.0234 C   0  0  0  0  0  0  0  0  0  0  0  0
   -1.2661   -1.1167    0.7137 C   0  0  0  0  0  0  0  0  0  0  0  0
   -2.6103   -1.1209    0.7984 C   0  0  0  0  0  0  0  0  0  0  0  0
   -3.3814   -2.1449    1.5135 C   0  0  0  0  0  0  0  0  0  0  0  0
   -4.7239   -2.0630    1.7004 C   0  0  0  0  0  0  0  0  0  0  0  0
   -5.4938   -0.9583    1.2295 C   0  0  0  0  0  0  0  0  0  0  0  0
   -6.1105   -0.0552    0.8403 N   0  0  0  0  0  0  0  0  0  0  0  0
   -5.4456   -3.0916    2.3752 C   0  0  0  0  0  0  0  0  0  0  0  0
   -6.0208   -3.9365    2.9251 N   0  0  0  0  0  0  0  0  0  0  0  0
   -2.5523   -3.3192    2.0205 C   0  0  0  0  0  0  0  0  0  0  0  0
   -1.1685   -2.8837    2.5006 C   0  0  0  0  0  0  0  0  0  0  0  0
   -0.4088   -2.1735    1.3747 C   0  0  0  0  0  0  0  0  0  0  0  0
    0.8908   -1.5641    1.9029 C   0  0  0  0  0  0  0  0  0  0  0  0
    1.6468   -0.8478    0.7821 C   0  0  0  0  0  0  0  0  0  0  0  0
    0.8802    2.4827   -0.8242 C   0  0  0  0  0  0  0  0  0  0  0  0
    1.2814    3.2158   -2.1232 C   0  0  0  0  0  0  0  0  0  0  0  0
    2.7224    4.9353   -3.5882 H   0  0  0  0  0  0  0  0  0  0  0  0
    4.1555    3.9291   -3.7454 H   0  0  0  0  0  0  0  0  0  0  0  0
    2.6219    3.3932   -4.4645 H   0  0  0  0  0  0  0  0  0  0  0  0
    4.3308    1.8437   -2.4366 H   0  0  0  0  0  0  0  0  0  0  0  0
    2.8319    1.2928   -3.1971 H   0  0  0  0  0  0  0  0  0  0  0  0
    3.3942    1.5239   -0.1854 H   0  0  0  0  0  0  0  0  0  0  0  0
    3.2346    0.0495   -1.1583 H   0  0  0  0  0  0  0  0  0  0  0  0
   -1.1890    0.5877   -0.6195 H   0  0  0  0  0  0  0  0  0  0  0  0
   -3.1583   -0.3147    0.3115 H   0  0  0  0  0  0  0  0  0  0  0  0
   -3.0423   -3.8382    2.8511 H   0  0  0  0  0  0  0  0  0  0  0  0
   -2.4436   -4.0487    1.2071 H   0  0  0  0  0  0  0  0  0  0  0  0
   -0.6022   -3.7613    2.8351 H   0  0  0  0  0  0  0  0  0  0  0  0
   -1.2743   -2.2229    3.3717 H   0  0  0  0  0  0  0  0  0  0  0  0
   -0.1532   -2.9197    0.6081 H   0  0  0  0  0  0  0  0  0  0  0  0
    0.6756   -0.8501    2.7096 H   0  0  0  0  0  0  0  0  0  0  0  0
    1.5311   -2.3436    2.3331 H   0  0  0  0  0  0  0  0  0  0  0  0
    2.4679   -0.2890    1.2467 H   0  0  0  0  0  0  0  0  0  0  0  0
    2.0933   -1.5930    0.1119 H   0  0  0  0  0  0  0  0  0  0  0  0
   -0.2118    2.5020   -0.7527 H   0  0  0  0  0  0  0  0  0  0  0  0
    1.2679    3.0262    0.0471 H   0  0  0  0  0  0  0  0  0  0  0  0
    0.9102    4.2460   -2.0623 H   0  0  0  0  0  0  0  0  0  0  0  0
    0.7765    2.7341   -2.9716 H   0  0  0  0  0  0  0  0  0  0  0  0
  1  2  1  0
  2  3  1  0
  3  4  1  0
  4  5  1  0
  5  6  1  0
  6  7  2  0
  7  8  1  0
  8  9  2  0
  9 10  1  0
 10 11  2  3
 11 12  1  0
 12 13  3  0
 11 14  1  0
 14 15  3  0
 10 16  1  0
 16 17  1  0
 17 18  1  0
 18 19  1  0
 19 20  1  0
  5 21  1  0
 21 22  1  0
 22  2  1  0
 20  6  1  0
 18  8  1  0
  1 23  1  0
  1 24  1  0
  1 25  1  0
  3 26  1  0
  3 27  1  0
  4 28  1  0
  4 29  1  0
  7 30  1  0
  9 31  1  0
 16 32  1  0
 16 33  1  0
 17 34  1  0
 17 35  1  0
 18 36  1  0
 19 37  1  0
 19 38  1  0
 20 39  1  0
 20 40  1  0
 21 41  1  0
 21 42  1  0
 22 43  1  0
 22 44  1  0
M  END
$$$$
