
     RDKit          3D

 34 36  0  0  0  0  0  0  0  0999 V2000
   -5.4074   -0.5302    0.2731 C   0  0  0  0  0  0  0  0  0  0  0  0
   -4.0772    0.0782   -0.0081 C   0  0  0  0  0  0  0  0  0  0  0  0
   -2.8402   -0.5270   -0.0087 C   0  0  0  0  0  0  0  0  0  0  0  0
   -1.7642    0.3784   -0.3255 C   0  0  0  0  0  0  0  0  0  0  0  0
   -0.2988   -0.0167   -0.4074 C   0  0  0  0  0  0  0  0  0  0  0  0
   -0.0733   -1.2184   -1.3007 C   0  0  0  0  0  0  0  0  0  0  0  0
    1.2236   -1.1111   -2.0337 C   0  0  0  0  0  0  0  0  0  0  0  0
    1.2564   -1.3044   -3.2545 O   0  0  0  0  0  0  0  0  0  0  0  0
    2.4026   -0.8522   -1.4243 N   0  0  0  0  0  0  0  0  0  0  0  0
    2.8293   -0.6040   -0.1047 C   0  0  0  0  0  0  0  0  0  0  0  0
    4.2366   -0.5148    0.0081 C   0  0  0  0  0  0  0  0  0  0  0  0
    4.8748   -0.2998    1.2295 C   0  0  0  0  0  0  0  0  0  0  0  0
    4.1161   -0.1671    2.3773 C   0  0  0  0  0  0  0  0  0  0  0  0
    2.7270   -0.2402    2.2889 C   0  0  0  0  0  0  0  0  0  0  0  0
    2.0583   -0.4458    1.0591 C   0  0  0  0  0  0  0  0  0  0  0  0
    0.2873   -0.4492    1.2593 S   0  0  0  0  0  0  0  0  0  0  0  0
   -2.2589    1.6575   -0.5492 C   0  0  0  0  0  0  0  0  0  0  0  0
   -1.5024    2.8991   -0.8964 C   0  0  0  0  0  0  0  0  0  0  0  0
   -3.9605    1.7351   -0.3868 S   0  0  0  0  0  0  0  0  0  0  0  0
   -5.8799   -0.0499    1.1363 H   0  0  0  0  0  0  0  0  0  0  0  0
   -6.0719   -0.4287   -0.5912 H   0  0  0  0  0  0  0  0  0  0  0  0
   -5.3099   -1.5979    0.4964 H   0  0  0  0  0  0  0  0  0  0  0  0
   -2.7020   -1.5793    0.2135 H   0  0  0  0  0  0  0  0  0  0  0  0
    0.2742    0.8502   -0.7567 H   0  0  0  0  0  0  0  0  0  0  0  0
   -0.1146   -2.1854   -0.7847 H   0  0  0  0  0  0  0  0  0  0  0  0
   -0.8518   -1.2561   -2.0759 H   0  0  0  0  0  0  0  0  0  0  0  0
    3.1391   -0.8856   -2.1224 H   0  0  0  0  0  0  0  0  0  0  0  0
    4.8701   -0.6252   -0.8711 H   0  0  0  0  0  0  0  0  0  0  0  0
    5.9592   -0.2430    1.2784 H   0  0  0  0  0  0  0  0  0  0  0  0
    4.5943   -0.0037    3.3395 H   0  0  0  0  0  0  0  0  0  0  0  0
    2.1561   -0.1234    3.2108 H   0  0  0  0  0  0  0  0  0  0  0  0
   -2.1493    3.7798   -0.9662 H   0  0  0  0  0  0  0  0  0  0  0  0
   -0.7431    3.1044   -0.1345 H   0  0  0  0  0  0  0  0  0  0  0  0
   -0.9994    2.7761   -1.8612 H   0  0  0  0  0  0  0  0  0  0  0  0
  1  2  1  0
  2  3  2  0
  3  4  1  0
  4  5  1  0
  5  6  1  0
  6  7  1  0
  7  8  2  0
  7  9  1  0
  9 10  1  0
 10 11  2  0
 11 12  1  0
 12 13  2  0
 13 14  1  0
 14 15  2  0
 15 16  1  0
  4 17  2  0
 17 18  1  0
 17 19  1  0
 19  2  1  0
 16  5  1  0
 15 10  1  0
  1 20  1  0
  1 21  1  0
  1 22  1  0
  3 23  1  0
  5 24  1  0
  6 25  1  0
  6 26  1  0
  9 27  1  0
 11 28  1  0
 12 29  1  0
 13 30  1  0
 14 31  1  0
 18 32  1  0
 18 33  1  0
 18 34  1  0
M  END
$$$$
