
     RDKit          3D

 46 48  0  0  0  0  0  0  0  0999 V2000
    5.2846   -1.8306   -4.1557 C   0  0  0  0  0  0  0  0  0  0  0  0
    4.1174   -2.2540   -3.2856 C   0  0  0  0  0  0  0  0  0  0  0  0
    3.9871   -1.3047   -2.2198 O   0  0  0  0  0  0  0  0  0  0  0  0
    3.0036   -1.5919   -1.3303 C   0  0  0  0  0  0  0  0  0  0  0  0
    2.2729   -2.5728   -1.3775 O   0  0  0  0  0  0  0  0  0  0  0  0
    2.9201   -0.5547   -0.2555 C   0  0  0  0  0  0  0  0  0  0  0  0
    3.8051    0.5405   -0.2673 C   0  0  0  0  0  0  0  0  0  0  0  0
    3.7456    1.5131    0.7295 C   0  0  0  0  0  0  0  0  0  0  0  0
    2.8051    1.4001    1.7464 C   0  0  0  0  0  0  0  0  0  0  0  0
    1.9209    0.3176    1.7717 C   0  0  0  0  0  0  0  0  0  0  0  0
    1.9594   -0.6717    0.7798 C   0  0  0  0  0  0  0  0  0  0  0  0
    1.0636   -1.7701    0.7817 N   0  0  0  0  0  0  0  0  0  0  0  0
    0.0637   -2.0719    1.6852 C   0  0  0  0  0  0  0  0  0  0  0  0
   -0.2024   -1.4614    2.7179 O   0  0  0  0  0  0  0  0  0  0  0  0
   -0.7261   -3.3169    1.3112 C   0  0  0  0  0  0  0  0  0  0  0  0
   -1.6802   -3.0911   -0.2223 S   0  0  0  0  0  0  0  0  0  0  0  0
   -2.4754   -1.5444    0.1353 C   0  0  0  0  0  0  0  0  0  0  0  0
   -3.3654   -1.3952    1.1830 C   0  0  0  0  0  0  0  0  0  0  0  0
   -3.9195   -0.1372    1.4241 C   0  0  0  0  0  0  0  0  0  0  0  0
   -3.5780    0.9324    0.6032 C   0  0  0  0  0  0  0  0  0  0  0  0
   -4.0907    2.3018    0.7698 C   0  0  0  0  0  0  0  0  0  0  0  0
   -3.3734    3.4190    0.3111 C   0  0  0  0  0  0  0  0  0  0  0  0
   -3.8738    4.7098    0.4792 C   0  0  0  0  0  0  0  0  0  0  0  0
   -5.0956    4.8610    1.1078 C   0  0  0  0  0  0  0  0  0  0  0  0
   -5.8308    3.8269    1.5638 N   0  0  0  0  0  0  0  0  0  0  0  0
   -5.3148    2.5849    1.3788 C   0  0  0  0  0  0  0  0  0  0  0  0
   -2.7125    0.7395   -0.4187 N   0  0  0  0  0  0  0  0  0  0  0  0
   -2.1606   -0.5020   -0.6554 N   0  0  0  0  0  0  0  0  0  0  0  0
    5.1187   -0.8270   -4.5623 H   0  0  0  0  0  0  0  0  0  0  0  0
    6.2074   -1.7880   -3.5682 H   0  0  0  0  0  0  0  0  0  0  0  0
    5.4261   -2.5292   -4.9854 H   0  0  0  0  0  0  0  0  0  0  0  0
    4.3060   -3.2519   -2.8739 H   0  0  0  0  0  0  0  0  0  0  0  0
    3.1968   -2.2668   -3.8793 H   0  0  0  0  0  0  0  0  0  0  0  0
    4.5503    0.6522   -1.0520 H   0  0  0  0  0  0  0  0  0  0  0  0
    4.4304    2.3571    0.7114 H   0  0  0  0  0  0  0  0  0  0  0  0
    2.7507    2.1565    2.5265 H   0  0  0  0  0  0  0  0  0  0  0  0
    1.2026    0.2833    2.5849 H   0  0  0  0  0  0  0  0  0  0  0  0
    1.1400   -2.3901   -0.0300 H   0  0  0  0  0  0  0  0  0  0  0  0
   -1.4049   -3.5715    2.1316 H   0  0  0  0  0  0  0  0  0  0  0  0
   -0.0340   -4.1557    1.1849 H   0  0  0  0  0  0  0  0  0  0  0  0
   -3.6242   -2.2311    1.8240 H   0  0  0  0  0  0  0  0  0  0  0  0
   -4.5910   -0.0141    2.2669 H   0  0  0  0  0  0  0  0  0  0  0  0
   -2.4104    3.2887   -0.1816 H   0  0  0  0  0  0  0  0  0  0  0  0
   -3.3206    5.5724    0.1255 H   0  0  0  0  0  0  0  0  0  0  0  0
   -5.5291    5.8447    1.2625 H   0  0  0  0  0  0  0  0  0  0  0  0
   -5.9646    1.7946    1.7455 H   0  0  0  0  0  0  0  0  0  0  0  0
  1  2  1  0
  2  3  1  0
  3  4  1  0
  4  5  2  0
  4  6  1  0
  6  7  2  0
  7  8  1  0
  8  9  2  0
  9 10  1  0
 10 11  2  0
 11 12  1  0
 12 13  1  0
 13 14  2  0
 13 15  1  0
 15 16  1  0
 16 17  1  0
 17 18  2  0
 18 19  1  0
 19 20  2  0
 20 21  1  0
 21 22  2  0
 22 23  1  0
 23 24  2  0
 24 25  1  0
 25 26  2  0
 20 27  1  0
 27 28  2  0
 11  6  1  0
 28 17  1  0
 26 21  1  0
  1 29  1  0
  1 30  1  0
  1 31  1  0
  2 32  1  0
  2 33  1  0
  7 34  1  0
  8 35  1  0
  9 36  1  0
 10 37  1  0
 12 38  1  0
 15 39  1  0
 15 40  1  0
 18 41  1  0
 19 42  1  0
 22 43  1  0
 23 44  1  0
 24 45  1  0
 26 46  1  0
M  END
$$$$
