
     RDKit          3D

 37 38  0  0  0  0  0  0  0  0999 V2000
    3.6975   -2.7353    1.1509 C   0  0  0  0  0  0  0  0  0  0  0  0
    2.6562   -2.2072    0.3107 N   0  0  0  0  0  0  0  0  0  0  0  0
    1.8156   -1.2196    0.7618 C   0  0  0  0  0  0  0  0  0  0  0  0
    1.7736   -0.8400    1.9274 O   0  0  0  0  0  0  0  0  0  0  0  0
    0.9969   -0.7120   -0.2258 N   0  0  0  0  0  0  0  0  0  0  0  0
    1.3295   -1.0361   -1.5634 O   0  0  0  0  0  0  0  0  0  0  0  0
    0.2591    0.5517   -0.0442 C   0  0  0  0  0  0  0  0  0  0  0  0
   -0.9347    0.6034   -0.9021 N   0  0  0  0  0  0  0  0  0  0  0  0
   -2.1599    0.0118   -0.4472 C   0  0  0  0  0  0  0  0  0  0  0  0
   -3.4073    0.4776   -0.8861 C   0  0  0  0  0  0  0  0  0  0  0  0
   -4.6028   -0.0838   -0.4210 C   0  0  0  0  0  0  0  0  0  0  0  0
   -4.5758   -1.1159    0.5085 C   0  0  0  0  0  0  0  0  0  0  0  0
   -3.3535   -1.5774    0.9805 C   0  0  0  0  0  0  0  0  0  0  0  0
   -2.1599   -1.0136    0.5138 C   0  0  0  0  0  0  0  0  0  0  0  0
   -0.7028    1.2212   -2.1363 C   0  0  0  0  0  0  0  0  0  0  0  0
   -1.5559    1.1066   -3.5694 S   0  0  0  0  0  0  0  0  0  0  0  0
    0.7909    2.1690   -2.0767 S   0  0  0  0  0  0  0  0  0  0  0  0
    1.0747    1.8466   -0.3023 C   0  0  0  0  0  0  0  0  0  0  0  0
    2.5783    1.7670   -0.0352 C   0  0  0  0  0  0  0  0  0  0  0  0
    0.4815    3.0250    0.4899 C   0  0  0  0  0  0  0  0  0  0  0  0
    4.1097   -3.6279    0.6753 H   0  0  0  0  0  0  0  0  0  0  0  0
    3.2933   -2.9874    2.1350 H   0  0  0  0  0  0  0  0  0  0  0  0
    4.4786   -1.9785    1.2629 H   0  0  0  0  0  0  0  0  0  0  0  0
    2.8132   -2.1568   -0.6897 H   0  0  0  0  0  0  0  0  0  0  0  0
    0.5600   -1.5824   -1.8197 H   0  0  0  0  0  0  0  0  0  0  0  0
   -0.0604    0.5797    1.0062 H   0  0  0  0  0  0  0  0  0  0  0  0
   -3.4943    1.3205   -1.5648 H   0  0  0  0  0  0  0  0  0  0  0  0
   -5.5545    0.2991   -0.7817 H   0  0  0  0  0  0  0  0  0  0  0  0
   -5.5034   -1.5514    0.8702 H   0  0  0  0  0  0  0  0  0  0  0  0
   -3.3226   -2.3794    1.7143 H   0  0  0  0  0  0  0  0  0  0  0  0
   -1.2393   -1.4269    0.9148 H   0  0  0  0  0  0  0  0  0  0  0  0
    2.7745    1.5473    1.0198 H   0  0  0  0  0  0  0  0  0  0  0  0
    3.0745    2.7196   -0.2582 H   0  0  0  0  0  0  0  0  0  0  0  0
    3.0737    0.9974   -0.6368 H   0  0  0  0  0  0  0  0  0  0  0  0
    0.6123    2.8651    1.5667 H   0  0  0  0  0  0  0  0  0  0  0  0
    0.9763    3.9713    0.2406 H   0  0  0  0  0  0  0  0  0  0  0  0
   -0.5927    3.1512    0.3114 H   0  0  0  0  0  0  0  0  0  0  0  0
  1  2  1  0
  2  3  1  0
  3  4  2  0
  3  5  1  0
  5  6  1  0
  5  7  1  0
  7  8  1  0
  8  9  1  0
  9 10  2  0
 10 11  1  0
 11 12  2  0
 12 13  1  0
 13 14  2  0
  8 15  1  0
 15 16  2  0
 15 17  1  0
 17 18  1  0
 18 19  1  0
 18 20  1  0
 18  7  1  0
 14  9  1  0
  1 21  1  0
  1 22  1  0
  1 23  1  0
  2 24  1  0
  6 25  1  0
  7 26  1  0
 10 27  1  0
 11 28  1  0
 12 29  1  0
 13 30  1  0
 14 31  1  0
 19 32  1  0
 19 33  1  0
 19 34  1  0
 20 35  1  0
 20 36  1  0
 20 37  1  0
M  END
$$$$
