
     RDKit          3D

 41 42  0  0  0  0  0  0  0  0999 V2000
    4.3112   -2.6847    0.5583 C   0  0  0  0  0  0  0  0  0  0  0  0
    3.2591   -1.7509    0.3391 O   0  0  0  0  0  0  0  0  0  0  0  0
    3.6178   -0.4585    0.0277 C   0  0  0  0  0  0  0  0  0  0  0  0
    4.9331    0.0093   -0.0434 C   0  0  0  0  0  0  0  0  0  0  0  0
    5.1709    1.3531   -0.3680 C   0  0  0  0  0  0  0  0  0  0  0  0
    6.5523    1.8468   -0.4424 N   0  0  0  0  0  4  0  0  0  0  0  0
    6.7256    3.0437   -0.7102 O   0  0  0  0  0  0  0  0  0  0  0  0
    7.4647    1.0349   -0.2300 O   0  0  0  0  0  1  0  0  0  0  0  0
    4.1095    2.2289   -0.6177 C   0  0  0  0  0  0  0  0  0  0  0  0
    2.7960    1.7583   -0.5446 C   0  0  0  0  0  0  0  0  0  0  0  0
    2.5406    0.4207   -0.2287 C   0  0  0  0  0  0  0  0  0  0  0  0
    1.2404   -0.1196   -0.1319 N   0  0  0  0  0  0  0  0  0  0  0  0
    0.0392    0.4734   -0.4730 C   0  0  0  0  0  0  0  0  0  0  0  0
   -0.0944    1.5773   -0.9879 O   0  0  0  0  0  0  0  0  0  0  0  0
   -1.0255   -0.3742   -0.1485 N   0  0  0  0  0  0  0  0  0  0  0  0
   -2.3508    0.0507   -0.3889 N   0  0  0  0  0  0  0  0  0  0  0  0
   -3.2081   -1.0744   -0.8011 C   0  0  0  0  0  0  0  0  0  0  0  0
   -4.7015   -0.7769   -0.5677 C   0  0  0  0  0  0  0  0  0  0  0  0
   -5.0233   -0.6127    0.8658 N   0  0  0  0  0  0  0  0  0  0  0  0
   -6.2755    0.1228    1.0249 C   0  0  0  0  0  0  0  0  0  0  0  0
   -3.9137    0.0237    1.6042 C   0  0  0  0  0  0  0  0  0  0  0  0
   -2.9219    0.8216    0.7317 C   0  0  0  0  0  0  0  0  0  0  0  0
    4.9121   -2.4029    1.4290 H   0  0  0  0  0  0  0  0  0  0  0  0
    4.9331   -2.7960   -0.3360 H   0  0  0  0  0  0  0  0  0  0  0  0
    3.8551   -3.6567    0.7694 H   0  0  0  0  0  0  0  0  0  0  0  0
    5.7739   -0.6492    0.1498 H   0  0  0  0  0  0  0  0  0  0  0  0
    4.2801    3.2742   -0.8686 H   0  0  0  0  0  0  0  0  0  0  0  0
    1.9900    2.4614   -0.7366 H   0  0  0  0  0  0  0  0  0  0  0  0
    1.2195   -1.1115    0.0682 H   0  0  0  0  0  0  0  0  0  0  0  0
   -0.8710   -1.0227    0.6146 H   0  0  0  0  0  0  0  0  0  0  0  0
   -3.0394   -1.2766   -1.8652 H   0  0  0  0  0  0  0  0  0  0  0  0
   -2.9441   -1.9898   -0.2535 H   0  0  0  0  0  0  0  0  0  0  0  0
   -4.9710    0.1218   -1.1398 H   0  0  0  0  0  0  0  0  0  0  0  0
   -5.2991   -1.6040   -0.9685 H   0  0  0  0  0  0  0  0  0  0  0  0
   -6.5696    0.1554    2.0798 H   0  0  0  0  0  0  0  0  0  0  0  0
   -6.2004    1.1519    0.6555 H   0  0  0  0  0  0  0  0  0  0  0  0
   -7.0882   -0.3796    0.4884 H   0  0  0  0  0  0  0  0  0  0  0  0
   -3.3564   -0.7800    2.1033 H   0  0  0  0  0  0  0  0  0  0  0  0
   -4.2866    0.6651    2.4126 H   0  0  0  0  0  0  0  0  0  0  0  0
   -2.1334    1.2425    1.3686 H   0  0  0  0  0  0  0  0  0  0  0  0
   -3.4503    1.6837    0.3047 H   0  0  0  0  0  0  0  0  0  0  0  0
  1  2  1  0
  2  3  1  0
  3  4  2  0
  4  5  1  0
  5  6  1  0
  6  7  2  0
  6  8  1  0
  5  9  2  0
  9 10  1  0
 10 11  2  0
 11 12  1  0
 12 13  1  0
 13 14  2  0
 13 15  1  0
 15 16  1  0
 16 17  1  0
 17 18  1  0
 18 19  1  0
 19 20  1  0
 19 21  1  0
 21 22  1  0
 11  3  1  0
 22 16  1  0
  1 23  1  0
  1 24  1  0
  1 25  1  0
  4 26  1  0
  9 27  1  0
 10 28  1  0
 12 29  1  0
 15 30  1  0
 17 31  1  0
 17 32  1  0
 18 33  1  0
 18 34  1  0
 20 35  1  0
 20 36  1  0
 20 37  1  0
 21 38  1  0
 21 39  1  0
 22 40  1  0
 22 41  1  0
M  CHG  2   6   1   8  -1
M  END
$$$$
