
     RDKit          3D

 45 48  0  0  0  0  0  0  0  0999 V2000
   -2.9666   -2.7841   -1.0161 C   0  0  0  0  0  0  0  0  0  0  0  0
   -2.9716   -1.4116   -0.4444 C   0  0  0  0  0  0  0  0  0  0  0  0
   -4.0086   -0.8070    0.2573 C   0  0  0  0  0  0  0  0  0  0  0  0
   -5.2164   -1.2369    0.6006 O   0  0  0  0  0  0  0  0  0  0  0  0
   -3.6001    0.4486    0.5945 N   0  0  0  0  0  0  0  0  0  0  0  0
   -2.3338    0.6816    0.1261 C   0  0  0  0  0  0  0  0  0  0  0  0
   -1.6045    1.8617    0.2854 C   0  0  0  0  0  0  0  0  0  0  0  0
   -0.3383    1.8871   -0.3003 C   0  0  0  0  0  0  0  0  0  0  0  0
    0.1430    0.7552   -0.9733 C   0  0  0  0  0  0  0  0  0  0  0  0
    1.7661    0.7839   -1.6954 S   0  0  0  0  0  6  0  0  0  0  0  0
    2.4147    2.0287   -1.3376 O   0  0  0  0  0  0  0  0  0  0  0  0
    1.6275    0.3803   -3.0786 O   0  0  0  0  0  0  0  0  0  0  0  0
    2.5716   -0.4651   -0.8504 N   0  0  0  0  0  0  0  0  0  0  0  0
    2.7349   -0.2659    0.6183 C   0  0  0  0  0  0  0  0  0  0  0  0
    4.1942   -0.0635    1.0027 C   0  0  0  0  0  0  0  0  0  0  0  0
    5.0556   -1.2584    0.6003 C   0  0  0  0  0  0  0  0  0  0  0  0
    4.5459   -1.9412   -0.6672 C   0  0  0  0  0  0  0  0  0  0  0  0
    3.7823   -0.9675   -1.5554 C   0  0  0  0  0  0  0  0  0  0  0  0
   -0.6191   -0.4234   -1.1063 C   0  0  0  0  0  0  0  0  0  0  0  0
   -1.9035   -0.4545   -0.5338 C   0  0  0  0  0  0  0  0  0  0  0  0
   -2.2503    3.0106    1.0046 C   0  0  0  0  0  0  0  0  0  0  0  0
   -3.3481    2.4976    1.9658 C   0  0  0  0  0  0  0  0  0  0  0  0
   -4.3179    1.4924    1.3081 C   0  0  0  0  0  0  0  0  0  0  0  0
   -1.9482   -3.1330   -1.2126 H   0  0  0  0  0  0  0  0  0  0  0  0
   -3.4320   -3.4947   -0.3254 H   0  0  0  0  0  0  0  0  0  0  0  0
   -3.5234   -2.8022   -1.9584 H   0  0  0  0  0  0  0  0  0  0  0  0
   -5.3135   -2.1382    0.2472 H   0  0  0  0  0  0  0  0  0  0  0  0
    0.2707    2.7862   -0.2305 H   0  0  0  0  0  0  0  0  0  0  0  0
    2.3268   -1.1502    1.1226 H   0  0  0  0  0  0  0  0  0  0  0  0
    2.1507    0.5883    0.9741 H   0  0  0  0  0  0  0  0  0  0  0  0
    4.2832    0.1070    2.0815 H   0  0  0  0  0  0  0  0  0  0  0  0
    4.5770    0.8397    0.5105 H   0  0  0  0  0  0  0  0  0  0  0  0
    5.0841   -1.9934    1.4137 H   0  0  0  0  0  0  0  0  0  0  0  0
    6.0881   -0.9188    0.4554 H   0  0  0  0  0  0  0  0  0  0  0  0
    5.3877   -2.3792   -1.2149 H   0  0  0  0  0  0  0  0  0  0  0  0
    3.8852   -2.7720   -0.3877 H   0  0  0  0  0  0  0  0  0  0  0  0
    4.4309   -0.1327   -1.8458 H   0  0  0  0  0  0  0  0  0  0  0  0
    3.4680   -1.4929   -2.4638 H   0  0  0  0  0  0  0  0  0  0  0  0
   -0.2234   -1.2809   -1.6429 H   0  0  0  0  0  0  0  0  0  0  0  0
   -1.5019    3.5696    1.5772 H   0  0  0  0  0  0  0  0  0  0  0  0
   -2.6909    3.6890    0.2648 H   0  0  0  0  0  0  0  0  0  0  0  0
   -3.9112    3.3453    2.3720 H   0  0  0  0  0  0  0  0  0  0  0  0
   -2.8610    2.0022    2.8169 H   0  0  0  0  0  0  0  0  0  0  0  0
   -4.9470    1.0188    2.0684 H   0  0  0  0  0  0  0  0  0  0  0  0
   -4.9568    1.9937    0.5728 H   0  0  0  0  0  0  0  0  0  0  0  0
  1  2  1  0
  2  3  2  0
  3  4  1  0
  3  5  1  0
  5  6  1  0
  6  7  2  0
  7  8  1  0
  8  9  2  0
  9 10  1  0
 10 11  2  0
 10 12  2  0
 10 13  1  0
 13 14  1  0
 14 15  1  0
 15 16  1  0
 16 17  1  0
 17 18  1  0
  9 19  1  0
 19 20  2  0
  7 21  1  0
 21 22  1  0
 22 23  1  0
 20  2  1  0
 23  5  1  0
 20  6  1  0
 18 13  1  0
  1 24  1  0
  1 25  1  0
  1 26  1  0
  4 27  1  0
  8 28  1  0
 14 29  1  0
 14 30  1  0
 15 31  1  0
 15 32  1  0
 16 33  1  0
 16 34  1  0
 17 35  1  0
 17 36  1  0
 18 37  1  0
 18 38  1  0
 19 39  1  0
 21 40  1  0
 21 41  1  0
 22 42  1  0
 22 43  1  0
 23 44  1  0
 23 45  1  0
M  END
$$$$
