
     RDKit          3D

 77 83  0  0  0  0  0  0  0  0999 V2000
   -7.1556   -1.3728   -2.2697 C   0  0  0  0  0  0  0  0  0  0  0  0
   -6.7766   -0.8792   -0.8690 C   0  0  0  0  0  0  0  0  0  0  0  0
   -7.4581   -1.6976    0.2339 C   0  0  0  0  0  0  0  0  0  0  0  0
   -7.2161    0.5868   -0.7315 C   0  0  0  0  0  0  0  0  0  0  0  0
   -5.3367   -0.8469   -0.6921 O   0  0  0  0  0  0  0  0  0  0  0  0
   -4.5991   -1.9862   -0.7446 C   0  0  0  0  0  0  0  0  0  0  0  0
   -5.0620   -3.1022   -0.9403 O   0  0  0  0  0  0  0  0  0  0  0  0
   -3.2502   -1.7427   -0.5463 N   0  0  0  0  0  0  0  0  0  0  0  0
   -2.3130   -2.8508   -0.7994 C   0  0  0  0  0  0  0  0  0  0  0  0
   -0.9162   -2.6643   -0.1545 C   0  0  0  0  0  0  0  0  0  0  0  0
   -0.4373   -1.3242   -0.4478 N   0  0  0  0  0  0  0  0  0  0  0  0
   -1.3626   -0.2999    0.1266 C   0  0  2  0  0  0  0  0  0  0  0  0
   -2.6935   -0.3758   -0.6138 C   0  0  0  0  0  0  0  0  0  0  0  0
   -0.5281    0.9137   -0.0068 C   0  0  0  0  0  0  0  0  0  0  0  0
    0.8242    0.5441   -0.1069 C   0  0  0  0  0  0  0  0  0  0  0  0
    1.5824    1.6790   -0.2005 C   0  0  0  0  0  0  0  0  0  0  0  0
    2.8932    1.7724   -0.4173 O   0  0  0  0  0  0  0  0  0  0  0  0
    0.7046    2.7774   -0.0862 N   0  0  0  0  0  0  0  0  0  0  0  0
    1.0929    4.1529   -0.0085 C   0  0  0  0  0  0  0  0  0  0  0  0
    2.2973    4.5114    0.6176 C   0  0  0  0  0  0  0  0  0  0  0  0
    2.6840    5.8519    0.6878 C   0  0  0  0  0  0  0  0  0  0  0  0
    1.8721    6.8424    0.1403 C   0  0  0  0  0  0  0  0  0  0  0  0
    0.6679    6.4960   -0.4701 C   0  0  0  0  0  0  0  0  0  0  0  0
    0.2742    5.1569   -0.5404 C   0  0  0  0  0  0  0  0  0  0  0  0
   -0.6151    2.2801   -0.0220 C   0  0  0  0  0  0  0  0  0  0  0  0
   -1.6755    3.0755    0.0935 O   0  0  0  0  0  0  0  0  0  0  0  0
    0.9572   -0.9375   -0.1203 C   0  0  1  0  0  0  0  0  0  0  0  0
    1.5046   -1.4989    1.2151 C   0  0  0  0  0  0  0  0  0  0  0  0
    0.9761   -1.4372    2.3188 O   0  0  0  0  0  0  0  0  0  0  0  0
    2.7293   -2.1171    0.9128 N   0  0  0  0  0  0  0  0  0  0  0  0
    3.5992   -2.6890    1.9130 C   0  0  0  0  0  0  0  0  0  0  0  0
    4.6886   -1.7396    2.3582 C   0  0  0  0  0  0  0  0  0  0  0  0
    6.0375   -2.0214    2.0970 C   0  0  0  0  0  0  0  0  0  0  0  0
    7.0393   -1.1404    2.5101 C   0  0  0  0  0  0  0  0  0  0  0  0
    6.7055    0.0293    3.1904 C   0  0  0  0  0  0  0  0  0  0  0  0
    5.3700    0.3191    3.4599 C   0  0  0  0  0  0  0  0  0  0  0  0
    4.3673   -0.5603    3.0484 C   0  0  0  0  0  0  0  0  0  0  0  0
    3.0182   -2.0279   -0.4595 C   0  0  0  0  0  0  0  0  0  0  0  0
    4.1146   -2.5185   -1.1455 C   0  0  0  0  0  0  0  0  0  0  0  0
    4.1621   -2.3312   -2.5305 C   0  0  0  0  0  0  0  0  0  0  0  0
    3.1237   -1.6663   -3.2030 C   0  0  0  0  0  0  0  0  0  0  0  0
    2.0235   -1.1725   -2.5002 C   0  0  0  0  0  0  0  0  0  0  0  0
    1.9864   -1.3530   -1.1241 C   0  0  0  0  0  0  0  0  0  0  0  0
   -6.5951   -0.8284   -3.0376 H   0  0  0  0  0  0  0  0  0  0  0  0
   -8.2262   -1.2428   -2.4617 H   0  0  0  0  0  0  0  0  0  0  0  0
   -6.9265   -2.4336   -2.4062 H   0  0  0  0  0  0  0  0  0  0  0  0
   -7.1083   -1.3837    1.2236 H   0  0  0  0  0  0  0  0  0  0  0  0
   -7.2385   -2.7659    0.1482 H   0  0  0  0  0  0  0  0  0  0  0  0
   -8.5470   -1.5851    0.1977 H   0  0  0  0  0  0  0  0  0  0  0  0
   -6.7198    1.2144   -1.4809 H   0  0  0  0  0  0  0  0  0  0  0  0
   -6.9296    0.9891    0.2473 H   0  0  0  0  0  0  0  0  0  0  0  0
   -8.2993    0.6998   -0.8482 H   0  0  0  0  0  0  0  0  0  0  0  0
   -2.7530   -3.7918   -0.4500 H   0  0  0  0  0  0  0  0  0  0  0  0
   -2.2072   -2.9255   -1.8897 H   0  0  0  0  0  0  0  0  0  0  0  0
   -0.2392   -3.4220   -0.5640 H   0  0  0  0  0  0  0  0  0  0  0  0
   -0.9901   -2.8324    0.9266 H   0  0  0  0  0  0  0  0  0  0  0  0
   -1.5240   -0.4955    1.1968 H   0  0  0  0  0  0  0  0  0  0  0  0
   -3.3987    0.3421   -0.1820 H   0  0  0  0  0  0  0  0  0  0  0  0
   -2.5822   -0.1210   -1.6756 H   0  0  0  0  0  0  0  0  0  0  0  0
    3.0836    2.6359   -0.8242 H   0  0  0  0  0  0  0  0  0  0  0  0
    2.9260    3.7697    1.1063 H   0  0  0  0  0  0  0  0  0  0  0  0
    3.6122    6.1232    1.1851 H   0  0  0  0  0  0  0  0  0  0  0  0
    2.1715    7.8858    0.1979 H   0  0  0  0  0  0  0  0  0  0  0  0
    0.0314    7.2688   -0.8941 H   0  0  0  0  0  0  0  0  0  0  0  0
   -0.6600    4.9204   -1.0427 H   0  0  0  0  0  0  0  0  0  0  0  0
   -2.4611    2.5204    0.2332 H   0  0  0  0  0  0  0  0  0  0  0  0
    3.0033   -2.9631    2.7930 H   0  0  0  0  0  0  0  0  0  0  0  0
    4.0204   -3.6244    1.5259 H   0  0  0  0  0  0  0  0  0  0  0  0
    6.3206   -2.9281    1.5682 H   0  0  0  0  0  0  0  0  0  0  0  0
    8.0817   -1.3659    2.3000 H   0  0  0  0  0  0  0  0  0  0  0  0
    7.4849    0.7156    3.5100 H   0  0  0  0  0  0  0  0  0  0  0  0
    5.1054    1.2307    3.9897 H   0  0  0  0  0  0  0  0  0  0  0  0
    3.3285   -0.3183    3.2681 H   0  0  0  0  0  0  0  0  0  0  0  0
    4.9215   -3.0378   -0.6440 H   0  0  0  0  0  0  0  0  0  0  0  0
    5.0131   -2.7044   -3.0957 H   0  0  0  0  0  0  0  0  0  0  0  0
    3.1805   -1.5300   -4.2806 H   0  0  0  0  0  0  0  0  0  0  0  0
    1.2207   -0.6516   -3.0132 H   0  0  0  0  0  0  0  0  0  0  0  0
  1  2  1  0
  2  3  1  0
  2  4  1  0
  2  5  1  0
  5  6  1  0
  6  7  2  0
  6  8  1  0
  8  9  1  0
  9 10  1  0
 10 11  1  0
 11 12  1  0
 12 13  1  0
 12 14  1  0
 14 15  1  0
 15 16  2  0
 16 17  1  0
 16 18  1  0
 18 19  1  0
 19 20  2  0
 20 21  1  0
 21 22  2  0
 22 23  1  0
 23 24  2  0
 18 25  1  0
 25 26  1  0
 15 27  1  0
 27 28  1  0
 28 29  2  0
 28 30  1  0
 30 31  1  0
 31 32  1  0
 32 33  2  0
 33 34  1  0
 34 35  2  0
 35 36  1  0
 36 37  2  0
 30 38  1  0
 38 39  2  0
 39 40  1  0
 40 41  2  0
 41 42  1  0
 42 43  2  0
 13  8  1  0
 25 14  2  0
 43 27  1  0
 27 11  1  6
 37 32  1  0
 43 38  1  0
 24 19  1  0
  1 44  1  0
  1 45  1  0
  1 46  1  0
  3 47  1  0
  3 48  1  0
  3 49  1  0
  4 50  1  0
  4 51  1  0
  4 52  1  0
  9 53  1  0
  9 54  1  0
 10 55  1  0
 10 56  1  0
 12 57  1  1
 13 58  1  0
 13 59  1  0
 17 60  1  0
 20 61  1  0
 21 62  1  0
 22 63  1  0
 23 64  1  0
 24 65  1  0
 26 66  1  0
 31 67  1  0
 31 68  1  0
 33 69  1  0
 34 70  1  0
 35 71  1  0
 36 72  1  0
 37 73  1  0
 39 74  1  0
 40 75  1  0
 41 76  1  0
 42 77  1  0
M  END
$$$$
