
     RDKit          3D

 59 62  0  0  0  0  0  0  0  0999 V2000
    4.8402   -1.9130   -3.5086 C   0  0  0  0  0  0  0  0  0  0  0  0
    5.5730   -1.4635   -2.3754 O   0  0  0  0  0  0  0  0  0  0  0  0
    4.8506   -1.0369   -1.2900 C   0  0  0  0  0  0  0  0  0  0  0  0
    3.4715   -0.8030   -1.2930 C   0  0  0  0  0  0  0  0  0  0  0  0
    2.8171   -0.3748   -0.1337 C   0  0  0  0  0  0  0  0  0  0  0  0
    1.4249   -0.1390   -0.0621 N   0  0  0  0  0  0  0  0  0  0  0  0
    0.5112   -0.1885   -1.0990 C   0  0  0  0  0  0  0  0  0  0  0  0
    0.7481   -0.3400   -2.2906 O   0  0  0  0  0  0  0  0  0  0  0  0
   -0.8947    0.0225   -0.6980 C   0  0  0  0  0  0  0  0  0  0  0  0
   -1.7254    0.8183   -1.4967 C   0  0  0  0  0  0  0  0  0  0  0  0
   -3.0518    1.0331   -1.1194 C   0  0  0  0  0  0  0  0  0  0  0  0
   -3.9695    1.8739   -1.9217 C   0  0  0  0  0  0  0  0  0  0  0  0
   -5.3396    1.5596   -2.0066 C   0  0  0  0  0  0  0  0  0  0  0  0
   -6.2235    2.3374   -2.7609 C   0  0  0  0  0  0  0  0  0  0  0  0
   -5.7559    3.4542   -3.4458 C   0  0  0  0  0  0  0  0  0  0  0  0
   -4.4082    3.7943   -3.3736 C   0  0  0  0  0  0  0  0  0  0  0  0
   -3.5260    3.0137   -2.6185 C   0  0  0  0  0  0  0  0  0  0  0  0
   -3.6034    0.4899   -0.0035 N   0  0  0  0  0  0  0  0  0  0  0  0
   -2.7772   -0.2930    0.7141 C   0  0  0  0  0  0  0  0  0  0  0  0
   -1.4484   -0.5762    0.4404 C   0  0  0  0  0  0  0  0  0  0  0  0
   -1.0670   -1.4727    1.4614 C   0  0  0  0  0  0  0  0  0  0  0  0
   -2.0427   -1.7018    2.3444 N   0  0  0  0  0  0  0  0  0  0  0  0
   -3.0839   -0.9803    1.8612 N   0  0  0  0  0  0  0  0  0  0  0  0
   -4.3784   -1.0089    2.5323 C   0  0  0  0  0  0  0  0  0  0  0  0
   -4.2679   -0.5749    3.9943 C   0  0  0  0  0  0  0  0  0  0  0  0
   -5.0302   -2.3858    2.4093 C   0  0  0  0  0  0  0  0  0  0  0  0
    3.5549   -0.1831    1.0454 C   0  0  0  0  0  0  0  0  0  0  0  0
    4.9349   -0.4020    1.0701 C   0  0  0  0  0  0  0  0  0  0  0  0
    5.7368   -0.2424    2.1700 O   0  0  0  0  0  0  0  0  0  0  0  0
    5.1221    0.1625    3.3854 C   0  0  0  0  0  0  0  0  0  0  0  0
    5.5757   -0.8131   -0.1090 C   0  0  0  0  0  0  0  0  0  0  0  0
    6.9276   -1.0774   -0.0774 O   0  0  0  0  0  0  0  0  0  0  0  0
    7.6552    0.0744   -0.5003 C   0  0  0  0  0  0  0  0  0  0  0  0
    4.1431   -2.7152   -3.2417 H   0  0  0  0  0  0  0  0  0  0  0  0
    5.5563   -2.3214   -4.2273 H   0  0  0  0  0  0  0  0  0  0  0  0
    4.3203   -1.0810   -3.9945 H   0  0  0  0  0  0  0  0  0  0  0  0
    2.9054   -0.9603   -2.2010 H   0  0  0  0  0  0  0  0  0  0  0  0
    1.0772    0.1564    0.8422 H   0  0  0  0  0  0  0  0  0  0  0  0
   -1.3285    1.2491   -2.4121 H   0  0  0  0  0  0  0  0  0  0  0  0
   -5.7292    0.6899   -1.4796 H   0  0  0  0  0  0  0  0  0  0  0  0
   -7.2757    2.0684   -2.8089 H   0  0  0  0  0  0  0  0  0  0  0  0
   -6.4410    4.0617   -4.0308 H   0  0  0  0  0  0  0  0  0  0  0  0
   -4.0408    4.6712   -3.9007 H   0  0  0  0  0  0  0  0  0  0  0  0
   -2.4846    3.3241   -2.5701 H   0  0  0  0  0  0  0  0  0  0  0  0
   -0.1170   -1.9735    1.6025 H   0  0  0  0  0  0  0  0  0  0  0  0
   -5.0197   -0.2828    2.0174 H   0  0  0  0  0  0  0  0  0  0  0  0
   -3.6594   -1.2725    4.5800 H   0  0  0  0  0  0  0  0  0  0  0  0
   -5.2584   -0.5228    4.4584 H   0  0  0  0  0  0  0  0  0  0  0  0
   -3.8057    0.4160    4.0738 H   0  0  0  0  0  0  0  0  0  0  0  0
   -4.4460   -3.1555    2.9256 H   0  0  0  0  0  0  0  0  0  0  0  0
   -6.0360   -2.3785    2.8421 H   0  0  0  0  0  0  0  0  0  0  0  0
   -5.1168   -2.6848    1.3583 H   0  0  0  0  0  0  0  0  0  0  0  0
    3.0364    0.1376    1.9420 H   0  0  0  0  0  0  0  0  0  0  0  0
    5.9035    0.2369    4.1475 H   0  0  0  0  0  0  0  0  0  0  0  0
    4.6625    1.1511    3.2843 H   0  0  0  0  0  0  0  0  0  0  0  0
    4.3935   -0.5806    3.7267 H   0  0  0  0  0  0  0  0  0  0  0  0
    7.4614    0.3040   -1.5537 H   0  0  0  0  0  0  0  0  0  0  0  0
    8.7214   -0.1463   -0.3944 H   0  0  0  0  0  0  0  0  0  0  0  0
    7.4277    0.9452    0.1257 H   0  0  0  0  0  0  0  0  0  0  0  0
  1  2  1  0
  2  3  1  0
  3  4  2  0
  4  5  1  0
  5  6  1  0
  6  7  1  0
  7  8  2  0
  7  9  1  0
  9 10  2  0
 10 11  1  0
 11 12  1  0
 12 13  2  0
 13 14  1  0
 14 15  2  0
 15 16  1  0
 16 17  2  0
 11 18  2  0
 18 19  1  0
 19 20  2  0
 20 21  1  0
 21 22  2  0
 22 23  1  0
 23 24  1  0
 24 25  1  0
 24 26  1  0
  5 27  2  0
 27 28  1  0
 28 29  1  0
 29 30  1  0
 28 31  2  0
 31 32  1  0
 32 33  1  0
 31  3  1  0
 20  9  1  0
 17 12  1  0
 23 19  1  0
  1 34  1  0
  1 35  1  0
  1 36  1  0
  4 37  1  0
  6 38  1  0
 10 39  1  0
 13 40  1  0
 14 41  1  0
 15 42  1  0
 16 43  1  0
 17 44  1  0
 21 45  1  0
 24 46  1  0
 25 47  1  0
 25 48  1  0
 25 49  1  0
 26 50  1  0
 26 51  1  0
 26 52  1  0
 27 53  1  0
 30 54  1  0
 30 55  1  0
 30 56  1  0
 33 57  1  0
 33 58  1  0
 33 59  1  0
M  END
$$$$
