
     RDKit          3D

 33 36  0  0  0  0  0  0  0  0999 V2000
    7.1753    1.7420    0.2636 C   0  0  0  0  0  0  0  0  0  0  0  0
    5.9052    1.1541   -0.2038 C   0  0  0  0  0  0  0  0  0  0  0  0
    5.4156    0.8121   -1.4390 C   0  0  0  0  0  0  0  0  0  0  0  0
    4.1222    0.2820   -1.2107 C   0  0  0  0  0  0  0  0  0  0  0  0
    3.8629    0.3367    0.1551 C   0  0  0  0  0  0  0  0  0  0  0  0
    2.7495   -0.0667    0.9431 C   0  0  0  0  0  0  0  0  0  0  0  0
    1.4654   -0.1008    0.5633 C   0  0  0  0  0  0  0  0  0  0  0  0
    0.7512    0.3519   -0.9718 S   0  0  0  0  0  0  0  0  0  0  0  0
   -0.8044   -0.0147   -0.3561 C   0  0  0  0  0  0  0  0  0  0  0  0
   -2.0177    0.0084   -0.8231 N   0  0  0  0  0  0  0  0  0  0  0  0
   -2.7578   -0.4154    0.2747 C   0  0  0  0  0  0  0  0  0  0  0  0
   -4.2073   -0.5751    0.2307 C   0  0  0  0  0  0  0  0  0  0  0  0
   -4.7676   -1.7221    0.8256 C   0  0  0  0  0  0  0  0  0  0  0  0
   -6.1455   -1.9488    0.8008 C   0  0  0  0  0  0  0  0  0  0  0  0
   -6.9876   -1.0295    0.1846 C   0  0  0  0  0  0  0  0  0  0  0  0
   -6.4532    0.1195   -0.3979 C   0  0  0  0  0  0  0  0  0  0  0  0
   -5.0702    0.3528   -0.3744 C   0  0  0  0  0  0  0  0  0  0  0  0
   -4.4816    1.9960   -1.1339 Br  0  0  0  0  0  0  0  0  0  0  0  0
   -2.0153   -0.7345    1.3601 N   0  0  0  0  0  0  0  0  0  0  0  0
   -0.7802   -0.4444    0.9181 N   0  0  0  0  0  0  0  0  0  0  0  0
    0.4356   -0.5427    1.5583 C   0  0  0  0  0  0  0  0  0  0  0  0
    0.5755   -0.9278    2.7048 O   0  0  0  0  0  0  0  0  0  0  0  0
    4.9892    0.8625    0.7545 O   0  0  0  0  0  0  0  0  0  0  0  0
    6.9907    2.6834    0.7901 H   0  0  0  0  0  0  0  0  0  0  0  0
    7.8460    1.9473   -0.5765 H   0  0  0  0  0  0  0  0  0  0  0  0
    7.6855    1.0570    0.9476 H   0  0  0  0  0  0  0  0  0  0  0  0
    5.9266    0.9197   -2.3855 H   0  0  0  0  0  0  0  0  0  0  0  0
    3.4628   -0.1102   -1.9719 H   0  0  0  0  0  0  0  0  0  0  0  0
    2.9973   -0.3321    1.9708 H   0  0  0  0  0  0  0  0  0  0  0  0
   -4.1242   -2.4535    1.3134 H   0  0  0  0  0  0  0  0  0  0  0  0
   -6.5571   -2.8424    1.2638 H   0  0  0  0  0  0  0  0  0  0  0  0
   -8.0611   -1.2014    0.1641 H   0  0  0  0  0  0  0  0  0  0  0  0
   -7.1262    0.8366   -0.8629 H   0  0  0  0  0  0  0  0  0  0  0  0
  1  2  1  0
  2  3  2  0
  3  4  1  0
  4  5  2  0
  5  6  1  0
  6  7  2  3
  7  8  1  0
  8  9  1  0
  9 10  2  0
 10 11  1  0
 11 12  1  0
 12 13  2  0
 13 14  1  0
 14 15  2  0
 15 16  1  0
 16 17  2  0
 17 18  1  0
 11 19  2  0
 19 20  1  0
 20 21  1  0
 21 22  2  0
  5 23  1  0
 23  2  1  0
 21  7  1  0
 20  9  1  0
 17 12  1  0
  1 24  1  0
  1 25  1  0
  1 26  1  0
  3 27  1  0
  4 28  1  0
  6 29  1  0
 13 30  1  0
 14 31  1  0
 15 32  1  0
 16 33  1  0
M  END
$$$$
