
     RDKit          3D

 42 46  0  0  0  0  0  0  0  0999 V2000
   -2.5080    0.8624   -1.6299 O   0  0  0  0  0  0  0  0  0  0  0  0
   -2.1918    0.1640   -0.6626 C   0  0  0  0  0  0  0  0  0  0  0  0
   -2.7253   -1.2324   -0.6000 C   0  0  0  0  0  0  0  0  0  0  0  0
   -3.8434   -1.5481   -1.3867 C   0  0  0  0  0  0  0  0  0  0  0  0
   -4.3922   -2.8317   -1.3578 C   0  0  0  0  0  0  0  0  0  0  0  0
   -3.8251   -3.8124   -0.5472 C   0  0  0  0  0  0  0  0  0  0  0  0
   -2.7069   -3.5127    0.2294 C   0  0  0  0  0  0  0  0  0  0  0  0
   -2.1560   -2.2281    0.2034 C   0  0  0  0  0  0  0  0  0  0  0  0
   -1.2991    0.6639    0.4910 C   0  0  0  0  0  0  0  0  0  0  0  0
   -1.6345    2.0544    0.6891 O   0  0  0  0  0  0  0  0  0  0  0  0
   -0.6643    2.9101    1.1344 C   0  0  0  0  0  0  0  0  0  0  0  0
   -1.0730    4.2228    1.3704 C   0  0  0  0  0  0  0  0  0  0  0  0
   -0.1573    5.1722    1.8229 C   0  0  0  0  0  0  0  0  0  0  0  0
    1.1702    4.8089    2.0411 C   0  0  0  0  0  0  0  0  0  0  0  0
    1.5847    3.4978    1.8018 C   0  0  0  0  0  0  0  0  0  0  0  0
    0.6717    2.5431    1.3329 C   0  0  0  0  0  0  0  0  0  0  0  0
    1.0559    1.1239    1.0961 C   0  0  0  0  0  0  0  0  0  0  0  0
    2.3737    0.8217    0.4053 C   0  0  0  0  0  0  0  0  0  0  0  0
    1.9473   -0.4210   -0.3437 C   0  0  0  0  0  0  0  0  0  0  0  0
    2.8675   -1.3626   -0.9340 C   0  0  0  0  0  0  0  0  0  0  0  0
    2.5572   -2.5079   -1.6449 C   0  0  0  0  0  0  0  0  0  0  0  0
    3.7152   -3.2088   -2.0892 C   0  0  0  0  0  0  0  0  0  0  0  0
    4.8753   -2.5757   -1.7057 C   0  0  0  0  0  0  0  0  0  0  0  0
    4.5616   -1.1485   -0.8190 S   0  0  0  0  0  0  0  0  0  0  0  0
    0.6538   -0.5737   -0.4378 N   0  0  0  0  0  0  0  0  0  0  0  0
    0.1094    0.5084    0.1996 N   0  0  0  0  0  0  0  0  0  0  0  0
   -4.2929   -0.7914   -2.0278 H   0  0  0  0  0  0  0  0  0  0  0  0
   -5.2588   -3.0640   -1.9717 H   0  0  0  0  0  0  0  0  0  0  0  0
   -4.2493   -4.8132   -0.5279 H   0  0  0  0  0  0  0  0  0  0  0  0
   -2.2559   -4.2838    0.8494 H   0  0  0  0  0  0  0  0  0  0  0  0
   -1.2663   -2.0411    0.7976 H   0  0  0  0  0  0  0  0  0  0  0  0
   -1.5397    0.1420    1.4231 H   0  0  0  0  0  0  0  0  0  0  0  0
   -2.1076    4.5063    1.1951 H   0  0  0  0  0  0  0  0  0  0  0  0
   -0.4807    6.1941    2.0024 H   0  0  0  0  0  0  0  0  0  0  0  0
    1.8828    5.5492    2.3965 H   0  0  0  0  0  0  0  0  0  0  0  0
    2.6233    3.2323    1.9835 H   0  0  0  0  0  0  0  0  0  0  0  0
    1.0002    0.5808    2.0502 H   0  0  0  0  0  0  0  0  0  0  0  0
    3.1798    0.6404    1.1196 H   0  0  0  0  0  0  0  0  0  0  0  0
    2.6712    1.5889   -0.3175 H   0  0  0  0  0  0  0  0  0  0  0  0
    1.5378   -2.8229   -1.8403 H   0  0  0  0  0  0  0  0  0  0  0  0
    3.6959   -4.1269   -2.6639 H   0  0  0  0  0  0  0  0  0  0  0  0
    5.8934   -2.8804   -1.9064 H   0  0  0  0  0  0  0  0  0  0  0  0
  1  2  2  0
  2  3  1  0
  3  4  2  0
  4  5  1  0
  5  6  2  0
  6  7  1  0
  7  8  2  0
  2  9  1  0
  9 10  1  0
 10 11  1  0
 11 12  2  0
 12 13  1  0
 13 14  2  0
 14 15  1  0
 15 16  2  0
 16 17  1  0
 17 18  1  0
 18 19  1  0
 19 20  1  0
 20 21  2  0
 21 22  1  0
 22 23  2  0
 23 24  1  0
 19 25  2  0
 25 26  1  0
  8  3  1  0
 26  9  1  0
 16 11  1  0
 26 17  1  0
 24 20  1  0
  4 27  1  0
  5 28  1  0
  6 29  1  0
  7 30  1  0
  8 31  1  0
  9 32  1  0
 12 33  1  0
 13 34  1  0
 14 35  1  0
 15 36  1  0
 17 37  1  0
 18 38  1  0
 18 39  1  0
 21 40  1  0
 22 41  1  0
 23 42  1  0
M  END
$$$$
