
     RDKit          3D

 42 46  0  0  0  0  0  0  0  0999 V2000
   -1.1182    0.6985   -0.9330 O   0  0  0  0  0  0  0  0  0  0  0  0
   -1.4389   -0.0438   -0.0021 C   0  0  0  0  0  0  0  0  0  0  0  0
   -2.3932   -1.1440   -0.2873 C   0  0  0  0  0  0  0  0  0  0  0  0
   -3.4714   -0.8863   -1.1422 C   0  0  0  0  0  0  0  0  0  0  0  0
   -4.3856   -1.8986   -1.4361 C   0  0  0  0  0  0  0  0  0  0  0  0
   -4.2169   -3.1702   -0.8882 C   0  0  0  0  0  0  0  0  0  0  0  0
   -3.1301   -3.4352   -0.0540 C   0  0  0  0  0  0  0  0  0  0  0  0
   -2.2132   -2.4254    0.2445 C   0  0  0  0  0  0  0  0  0  0  0  0
   -0.9122    0.0968    1.4522 C   0  0  0  0  0  0  0  0  0  0  0  0
   -1.3688    1.3048    2.0704 O   0  0  0  0  0  0  0  0  0  0  0  0
   -0.7327    2.4367    1.6406 C   0  0  0  0  0  0  0  0  0  0  0  0
   -1.4538    3.6281    1.6987 C   0  0  0  0  0  0  0  0  0  0  0  0
   -0.8637    4.8179    1.2757 C   0  0  0  0  0  0  0  0  0  0  0  0
    0.4504    4.8149    0.8109 C   0  0  0  0  0  0  0  0  0  0  0  0
    1.1785    3.6237    0.7768 C   0  0  0  0  0  0  0  0  0  0  0  0
    0.5893    2.4210    1.1921 C   0  0  0  0  0  0  0  0  0  0  0  0
    1.3645    1.1442    1.2592 C   0  0  0  0  0  0  0  0  0  0  0  0
    2.1665    0.7532    0.0321 C   0  0  0  0  0  0  0  0  0  0  0  0
    2.0475   -0.7433    0.1394 C   0  0  0  0  0  0  0  0  0  0  0  0
    2.8832   -1.6229   -0.6448 C   0  0  0  0  0  0  0  0  0  0  0  0
    3.8419   -1.2924   -1.5856 C   0  0  0  0  0  0  0  0  0  0  0  0
    4.4669   -2.4395   -2.1578 C   0  0  0  0  0  0  0  0  0  0  0  0
    3.9659   -3.6105   -1.6376 C   0  0  0  0  0  0  0  0  0  0  0  0
    2.7512   -3.3242   -0.4710 S   0  0  0  0  0  0  0  0  0  0  0  0
    1.0984   -1.1566    0.9319 N   0  0  0  0  0  0  0  0  0  0  0  0
    0.5453   -0.0316    1.5253 N   0  0  0  0  0  0  0  0  0  0  0  0
   -3.5993    0.1016   -1.5802 H   0  0  0  0  0  0  0  0  0  0  0  0
   -5.2248   -1.6972   -2.0972 H   0  0  0  0  0  0  0  0  0  0  0  0
   -4.9266   -3.9602   -1.1220 H   0  0  0  0  0  0  0  0  0  0  0  0
   -2.9899   -4.4331    0.3547 H   0  0  0  0  0  0  0  0  0  0  0  0
   -1.3522   -2.6635    0.8657 H   0  0  0  0  0  0  0  0  0  0  0  0
   -1.3130   -0.7141    2.0675 H   0  0  0  0  0  0  0  0  0  0  0  0
   -2.4774    3.6268    2.0620 H   0  0  0  0  0  0  0  0  0  0  0  0
   -1.4284    5.7457    1.3093 H   0  0  0  0  0  0  0  0  0  0  0  0
    0.9115    5.7437    0.4844 H   0  0  0  0  0  0  0  0  0  0  0  0
    2.2106    3.6467    0.4362 H   0  0  0  0  0  0  0  0  0  0  0  0
    2.0436    1.2155    2.1205 H   0  0  0  0  0  0  0  0  0  0  0  0
    1.7102    1.0810   -0.9077 H   0  0  0  0  0  0  0  0  0  0  0  0
    3.2029    1.0967    0.0826 H   0  0  0  0  0  0  0  0  0  0  0  0
    4.0887   -0.2750   -1.8641 H   0  0  0  0  0  0  0  0  0  0  0  0
    5.2418   -2.4067   -2.9141 H   0  0  0  0  0  0  0  0  0  0  0  0
    4.2515   -4.6233   -1.8869 H   0  0  0  0  0  0  0  0  0  0  0  0
  1  2  2  0
  2  3  1  0
  3  4  2  0
  4  5  1  0
  5  6  2  0
  6  7  1  0
  7  8  2  0
  2  9  1  0
  9 10  1  0
 10 11  1  0
 11 12  2  0
 12 13  1  0
 13 14  2  0
 14 15  1  0
 15 16  2  0
 16 17  1  0
 17 18  1  0
 18 19  1  0
 19 20  1  0
 20 21  2  0
 21 22  1  0
 22 23  2  0
 23 24  1  0
 19 25  2  0
 25 26  1  0
  8  3  1  0
 26  9  1  0
 16 11  1  0
 26 17  1  0
 24 20  1  0
  4 27  1  0
  5 28  1  0
  6 29  1  0
  7 30  1  0
  8 31  1  0
  9 32  1  0
 12 33  1  0
 13 34  1  0
 14 35  1  0
 15 36  1  0
 17 37  1  0
 18 38  1  0
 18 39  1  0
 21 40  1  0
 22 41  1  0
 23 42  1  0
M  END
$$$$
