
     RDKit          3D

 57 61  0  0  0  0  0  0  0  0999 V2000
   -6.1397    1.3263    2.2206 C   0  0  0  0  0  0  0  0  0  0  0  0
   -5.2036    2.4534    2.0511 N   0  0  0  0  0  0  0  0  0  0  0  0
   -4.1331    2.4677    3.0697 C   0  0  0  0  0  0  0  0  0  0  0  0
   -4.7782    2.8797    0.4596 S   0  0  0  0  0  6  0  0  0  0  0  0
   -3.9187    4.0432    0.5047 O   0  0  0  0  0  0  0  0  0  0  0  0
   -5.9818    2.8747   -0.3431 O   0  0  0  0  0  0  0  0  0  0  0  0
   -3.7777    1.5063   -0.0815 C   0  0  0  0  0  0  0  0  0  0  0  0
   -4.3392    0.5040   -0.8699 C   0  0  0  0  0  0  0  0  0  0  0  0
   -3.5359   -0.5382   -1.3470 C   0  0  0  0  0  0  0  0  0  0  0  0
   -2.1577   -0.5956   -1.0709 C   0  0  0  0  0  0  0  0  0  0  0  0
   -1.3457   -1.6597   -1.5107 N   0  0  0  0  0  0  0  0  0  0  0  0
   -1.7333   -2.4763   -2.6827 C   0  0  0  0  0  0  0  0  0  0  0  0
   -2.0237   -3.8606   -2.1135 C   0  0  0  0  0  0  0  0  0  0  0  0
   -0.9830   -3.9744   -1.0123 C   0  0  0  0  0  0  0  0  0  0  0  0
   -1.0073   -2.5813   -0.3822 C   0  0  0  0  0  0  0  0  0  0  0  0
   -1.6094    0.4553   -0.2922 C   0  0  0  0  0  0  0  0  0  0  0  0
   -0.1537    0.5519    0.0274 C   0  0  0  0  0  0  0  0  0  0  0  0
    0.1718    0.9134    1.1545 O   0  0  0  0  0  0  0  0  0  0  0  0
    0.6619    0.2299   -1.0300 N   0  0  0  0  0  0  0  0  0  0  0  0
    2.0238    0.1994   -0.9491 C   0  0  0  0  0  0  0  0  0  0  0  0
    2.8062    0.5377    0.0365 N   0  0  0  0  0  0  0  0  0  0  0  0
    4.1380    0.3426   -0.3291 C   0  0  0  0  0  0  0  0  0  0  0  0
    4.3232   -0.1581   -1.6209 C   0  0  0  0  0  0  0  0  0  0  0  0
    5.6011   -0.4121   -2.1515 C   0  0  0  0  0  0  0  0  0  0  0  0
    6.7189   -0.1385   -1.3548 C   0  0  0  0  0  0  0  0  0  0  0  0
    6.5810    0.3689   -0.0551 C   0  0  0  0  0  0  0  0  0  0  0  0
    7.6948    0.6576    0.7535 C   0  0  0  0  0  0  0  0  0  0  0  0
    7.5324    1.1633    2.0512 C   0  0  0  0  0  0  0  0  0  0  0  0
    6.2563    1.3896    2.5610 C   0  0  0  0  0  0  0  0  0  0  0  0
    5.1341    1.1141    1.7765 C   0  0  0  0  0  0  0  0  0  0  0  0
    5.2873    0.6070    0.4681 C   0  0  0  0  0  0  0  0  0  0  0  0
    2.7833   -0.3786   -2.3586 S   0  0  0  0  0  0  0  0  0  0  0  0
   -2.4146    1.4965    0.2029 C   0  0  0  0  0  0  0  0  0  0  0  0
   -5.6149    0.3660    2.1317 H   0  0  0  0  0  0  0  0  0  0  0  0
   -6.9493    1.3688    1.4901 H   0  0  0  0  0  0  0  0  0  0  0  0
   -6.6052    1.3889    3.2129 H   0  0  0  0  0  0  0  0  0  0  0  0
   -3.5103    1.5702    3.0057 H   0  0  0  0  0  0  0  0  0  0  0  0
   -4.5744    2.5086    4.0696 H   0  0  0  0  0  0  0  0  0  0  0  0
   -3.5067    3.3546    2.9724 H   0  0  0  0  0  0  0  0  0  0  0  0
   -5.3985    0.5227   -1.1168 H   0  0  0  0  0  0  0  0  0  0  0  0
   -4.0260   -1.3110   -1.9309 H   0  0  0  0  0  0  0  0  0  0  0  0
   -2.5554   -2.0735   -3.2866 H   0  0  0  0  0  0  0  0  0  0  0  0
   -0.8556   -2.5329   -3.3449 H   0  0  0  0  0  0  0  0  0  0  0  0
   -1.9320   -4.6533   -2.8621 H   0  0  0  0  0  0  0  0  0  0  0  0
   -3.0362   -3.8970   -1.6840 H   0  0  0  0  0  0  0  0  0  0  0  0
    0.0062   -4.1777   -1.4424 H   0  0  0  0  0  0  0  0  0  0  0  0
   -1.2043   -4.7657   -0.2841 H   0  0  0  0  0  0  0  0  0  0  0  0
   -1.7733   -2.5530    0.4113 H   0  0  0  0  0  0  0  0  0  0  0  0
   -0.0326   -2.3343    0.0591 H   0  0  0  0  0  0  0  0  0  0  0  0
    0.2435   -0.2063   -1.8403 H   0  0  0  0  0  0  0  0  0  0  0  0
    5.7231   -0.8093   -3.1559 H   0  0  0  0  0  0  0  0  0  0  0  0
    7.7117   -0.3258   -1.7654 H   0  0  0  0  0  0  0  0  0  0  0  0
    8.7018    0.4947    0.3777 H   0  0  0  0  0  0  0  0  0  0  0  0
    8.4050    1.3795    2.6643 H   0  0  0  0  0  0  0  0  0  0  0  0
    6.1319    1.7809    3.5703 H   0  0  0  0  0  0  0  0  0  0  0  0
    4.1391    1.2951    2.1807 H   0  0  0  0  0  0  0  0  0  0  0  0
   -1.9656    2.3010    0.7857 H   0  0  0  0  0  0  0  0  0  0  0  0
  1  2  1  0
  2  3  1  0
  2  4  1  0
  4  5  2  0
  4  6  2  0
  4  7  1  0
  7  8  2  0
  8  9  1  0
  9 10  2  0
 10 11  1  0
 11 12  1  0
 12 13  1  0
 13 14  1  0
 14 15  1  0
 10 16  1  0
 16 17  1  0
 17 18  2  0
 17 19  1  0
 19 20  1  0
 20 21  2  0
 21 22  1  0
 22 23  2  0
 23 24  1  0
 24 25  2  0
 25 26  1  0
 26 27  2  0
 27 28  1  0
 28 29  2  0
 29 30  1  0
 30 31  2  0
 23 32  1  0
 16 33  2  0
 33  7  1  0
 15 11  1  0
 32 20  1  0
 31 22  1  0
 31 26  1  0
  1 34  1  0
  1 35  1  0
  1 36  1  0
  3 37  1  0
  3 38  1  0
  3 39  1  0
  8 40  1  0
  9 41  1  0
 12 42  1  0
 12 43  1  0
 13 44  1  0
 13 45  1  0
 14 46  1  0
 14 47  1  0
 15 48  1  0
 15 49  1  0
 19 50  1  0
 24 51  1  0
 25 52  1  0
 27 53  1  0
 28 54  1  0
 29 55  1  0
 30 56  1  0
 33 57  1  0
M  END
$$$$
