
     RDKit          3D

 46 48  0  0  0  0  0  0  0  0999 V2000
   -1.2879   -2.8049    2.3883 O   0  0  0  0  0  0  0  0  0  0  0  0
   -0.5686   -1.8649    2.0683 C   0  0  0  0  0  0  0  0  0  0  0  0
    0.7625   -1.6321    2.7638 C   0  0  0  0  0  0  0  0  0  0  0  0
    1.9444   -1.6636    1.7924 C   0  0  0  0  0  0  0  0  0  0  0  0
    1.9569   -0.4995    0.8698 N   0  0  0  0  0  0  0  0  0  0  0  0
    2.5330    0.7056    1.4833 C   0  0  0  0  0  0  0  0  0  0  0  0
    4.0185    0.9958    1.2349 C   0  0  0  0  0  0  0  0  0  0  0  0
    4.2821    1.7167   -0.0859 C   0  0  0  0  0  0  0  0  0  0  0  0
    4.0919    0.8602   -1.3259 C   0  0  0  0  0  0  0  0  0  0  0  0
    2.7155    0.2113   -1.4461 C   0  0  0  0  0  0  0  0  0  0  0  0
    2.5049   -0.9066   -0.4343 C   0  0  0  0  0  0  0  0  0  0  0  0
   -0.8597   -0.8732    1.1436 N   0  0  0  0  0  0  0  0  0  0  0  0
   -2.0343   -0.7191    0.3919 C   0  0  0  0  0  0  0  0  0  0  0  0
   -3.0075   -1.7185    0.2627 C   0  0  0  0  0  0  0  0  0  0  0  0
   -4.1526   -1.4925   -0.5063 C   0  0  0  0  0  0  0  0  0  0  0  0
   -4.3378   -0.2597   -1.1339 C   0  0  0  0  0  0  0  0  0  0  0  0
   -3.3859    0.7541   -0.9767 C   0  0  0  0  0  0  0  0  0  0  0  0
   -2.2237    0.5140   -0.2453 C   0  0  0  0  0  0  0  0  0  0  0  0
   -3.5313    2.0160   -1.5164 O   0  0  0  0  0  0  0  0  0  0  0  0
   -4.9035    2.2607   -1.8466 C   0  0  0  0  0  0  0  0  0  0  0  0
   -5.4561    1.1001   -2.6614 C   0  0  0  0  0  0  0  0  0  0  0  0
   -5.4793   -0.1074   -1.8805 O   0  0  0  0  0  0  0  0  0  0  0  0
    0.8931   -2.4323    3.5029 H   0  0  0  0  0  0  0  0  0  0  0  0
    0.7052   -0.6944    3.3252 H   0  0  0  0  0  0  0  0  0  0  0  0
    2.8897   -1.7167    2.3490 H   0  0  0  0  0  0  0  0  0  0  0  0
    1.8678   -2.6002    1.2275 H   0  0  0  0  0  0  0  0  0  0  0  0
    1.9383    1.5717    1.1409 H   0  0  0  0  0  0  0  0  0  0  0  0
    2.3692    0.6784    2.5763 H   0  0  0  0  0  0  0  0  0  0  0  0
    4.6203    0.0849    1.3178 H   0  0  0  0  0  0  0  0  0  0  0  0
    4.3652    1.6600    2.0357 H   0  0  0  0  0  0  0  0  0  0  0  0
    3.6417    2.6075   -0.1571 H   0  0  0  0  0  0  0  0  0  0  0  0
    5.3196    2.0845   -0.0839 H   0  0  0  0  0  0  0  0  0  0  0  0
    4.2606    1.4911   -2.2070 H   0  0  0  0  0  0  0  0  0  0  0  0
    4.8683    0.0835   -1.3527 H   0  0  0  0  0  0  0  0  0  0  0  0
    2.6417   -0.2311   -2.4449 H   0  0  0  0  0  0  0  0  0  0  0  0
    1.9219    0.9589   -1.3821 H   0  0  0  0  0  0  0  0  0  0  0  0
    3.4372   -1.4663   -0.3037 H   0  0  0  0  0  0  0  0  0  0  0  0
    1.7865   -1.6038   -0.8848 H   0  0  0  0  0  0  0  0  0  0  0  0
   -0.0889   -0.2237    0.9324 H   0  0  0  0  0  0  0  0  0  0  0  0
   -2.8742   -2.6948    0.7067 H   0  0  0  0  0  0  0  0  0  0  0  0
   -4.8891   -2.2820   -0.6271 H   0  0  0  0  0  0  0  0  0  0  0  0
   -1.4976    1.3194   -0.1331 H   0  0  0  0  0  0  0  0  0  0  0  0
   -5.4693    2.3998   -0.9171 H   0  0  0  0  0  0  0  0  0  0  0  0
   -4.9499    3.1948   -2.4244 H   0  0  0  0  0  0  0  0  0  0  0  0
   -4.8542    0.9227   -3.5662 H   0  0  0  0  0  0  0  0  0  0  0  0
   -6.4844    1.3147   -2.9699 H   0  0  0  0  0  0  0  0  0  0  0  0
  1  2  2  0
  2  3  1  0
  3  4  1  0
  4  5  1  0
  5  6  1  0
  6  7  1  0
  7  8  1  0
  8  9  1  0
  9 10  1  0
 10 11  1  0
  2 12  1  0
 12 13  1  0
 13 14  2  0
 14 15  1  0
 15 16  2  0
 16 17  1  0
 17 18  2  0
 17 19  1  0
 19 20  1  0
 20 21  1  0
 21 22  1  0
 11  5  1  0
 18 13  1  0
 22 16  1  0
  3 23  1  0
  3 24  1  0
  4 25  1  0
  4 26  1  0
  6 27  1  0
  6 28  1  0
  7 29  1  0
  7 30  1  0
  8 31  1  0
  8 32  1  0
  9 33  1  0
  9 34  1  0
 10 35  1  0
 10 36  1  0
 11 37  1  0
 11 38  1  0
 12 39  1  0
 14 40  1  0
 15 41  1  0
 18 42  1  0
 20 43  1  0
 20 44  1  0
 21 45  1  0
 21 46  1  0
M  END
$$$$
