
     RDKit          3D

 44 47  0  0  0  0  0  0  0  0999 V2000
   -6.6671   -0.0024   -2.4698 C   0  0  0  0  0  0  0  0  0  0  0  0
   -5.7963   -0.9084   -1.8044 O   0  0  0  0  0  0  0  0  0  0  0  0
   -4.6654   -0.3808   -1.2454 C   0  0  0  0  0  0  0  0  0  0  0  0
   -4.2877    0.9608   -1.2649 C   0  0  0  0  0  0  0  0  0  0  0  0
   -3.0972    1.3677   -0.6501 C   0  0  0  0  0  0  0  0  0  0  0  0
   -2.2643    0.4402   -0.0075 C   0  0  0  0  0  0  0  0  0  0  0  0
   -0.9807    0.9058    0.6622 C   0  0  0  0  0  0  0  0  0  0  0  0
    0.2346    0.1682    0.1454 C   0  0  0  0  0  0  0  0  0  0  0  0
    1.2679   -0.1858    0.9306 C   0  0  0  0  0  0  0  0  0  0  0  0
    2.4101   -0.9118    0.3437 C   0  0  0  0  0  0  0  0  0  0  0  0
    2.3489   -2.3060    0.3276 C   0  0  0  0  0  0  0  0  0  0  0  0
    3.4071   -2.9988   -0.2217 C   0  0  0  0  0  0  0  0  0  0  0  0
    4.4986   -2.4070   -0.7465 N   0  0  0  0  0  0  0  0  0  0  0  0
    4.5611   -1.0666   -0.7416 C   0  0  0  0  0  0  0  0  0  0  0  0
    5.6847   -0.4611   -1.2891 C   0  0  0  0  0  0  0  0  0  0  0  0
    5.8307    0.9278   -1.3286 C   0  0  0  0  0  0  0  0  0  0  0  0
    4.8286    1.7325   -0.8079 C   0  0  0  0  0  0  0  0  0  0  0  0
    4.9909    3.4433   -0.8519 Cl  0  0  0  0  0  0  0  0  0  0  0  0
    3.6903    1.1561   -0.2505 C   0  0  0  0  0  0  0  0  0  0  0  0
    3.5372   -0.2519   -0.2068 C   0  0  0  0  0  0  0  0  0  0  0  0
    1.3577    0.1326    2.3985 C   0  0  0  0  0  0  0  0  0  0  0  0
    0.2302    1.0563    2.8254 C   0  0  0  0  0  0  0  0  0  0  0  0
    0.3807    1.8886    3.7202 O   0  0  0  0  0  0  0  0  0  0  0  0
   -1.1157    0.8235    2.1863 C   0  0  0  0  0  0  0  0  0  0  0  0
   -2.6543   -0.9069    0.0088 C   0  0  0  0  0  0  0  0  0  0  0  0
   -3.8426   -1.3091   -0.6059 C   0  0  0  0  0  0  0  0  0  0  0  0
   -7.0627    0.7466   -1.7758 H   0  0  0  0  0  0  0  0  0  0  0  0
   -7.5140   -0.5766   -2.8576 H   0  0  0  0  0  0  0  0  0  0  0  0
   -6.1681    0.4714   -3.3216 H   0  0  0  0  0  0  0  0  0  0  0  0
   -4.8951    1.7185   -1.7486 H   0  0  0  0  0  0  0  0  0  0  0  0
   -2.8286    2.4220   -0.6794 H   0  0  0  0  0  0  0  0  0  0  0  0
   -0.8167    1.9594    0.3933 H   0  0  0  0  0  0  0  0  0  0  0  0
    0.2521   -0.0601   -0.9207 H   0  0  0  0  0  0  0  0  0  0  0  0
    1.4978   -2.8444    0.7303 H   0  0  0  0  0  0  0  0  0  0  0  0
    3.4080   -4.0847   -0.2579 H   0  0  0  0  0  0  0  0  0  0  0  0
    6.4714   -1.0911   -1.6994 H   0  0  0  0  0  0  0  0  0  0  0  0
    6.7244    1.3641   -1.7662 H   0  0  0  0  0  0  0  0  0  0  0  0
    2.9172    1.8067    0.1505 H   0  0  0  0  0  0  0  0  0  0  0  0
    2.3054    0.6352    2.6218 H   0  0  0  0  0  0  0  0  0  0  0  0
    1.2912   -0.7832    2.9955 H   0  0  0  0  0  0  0  0  0  0  0  0
   -1.4782   -0.1539    2.5271 H   0  0  0  0  0  0  0  0  0  0  0  0
   -1.8239    1.5785    2.5475 H   0  0  0  0  0  0  0  0  0  0  0  0
   -2.0372   -1.6578    0.4969 H   0  0  0  0  0  0  0  0  0  0  0  0
   -4.1308   -2.3575   -0.5865 H   0  0  0  0  0  0  0  0  0  0  0  0
  1  2  1  0
  2  3  1  0
  3  4  2  0
  4  5  1  0
  5  6  2  0
  6  7  1  0
  7  8  1  0
  8  9  2  0
  9 10  1  0
 10 11  2  0
 11 12  1  0
 12 13  2  0
 13 14  1  0
 14 15  2  0
 15 16  1  0
 16 17  2  0
 17 18  1  0
 17 19  1  0
 19 20  2  0
  9 21  1  0
 21 22  1  0
 22 23  2  0
 22 24  1  0
  6 25  1  0
 25 26  2  0
 26  3  1  0
 24  7  1  0
 20 10  1  0
 20 14  1  0
  1 27  1  0
  1 28  1  0
  1 29  1  0
  4 30  1  0
  5 31  1  0
  7 32  1  0
  8 33  1  0
 11 34  1  0
 12 35  1  0
 15 36  1  0
 16 37  1  0
 19 38  1  0
 21 39  1  0
 21 40  1  0
 24 41  1  0
 24 42  1  0
 25 43  1  0
 26 44  1  0
M  END
$$$$
