
     RDKit          3D

 55 57  0  0  0  0  0  0  0  0999 V2000
    3.8830   -0.9052    1.2062 O   0  0  0  0  0  0  0  0  0  0  0  0
    2.8282   -0.2846    1.1083 C   0  0  0  0  0  0  0  0  0  0  0  0
    1.6718   -0.4898    2.0778 C   0  0  0  0  0  0  0  0  0  0  0  0
    0.4515   -0.5986    1.3421 O   0  0  0  0  0  0  0  0  0  0  0  0
   -0.6457   -0.7917    2.1211 C   0  0  0  0  0  0  0  0  0  0  0  0
   -0.6404   -0.8261    3.3471 O   0  0  0  0  0  0  0  0  0  0  0  0
   -1.9017   -0.9566    1.2671 C   0  0  0  0  0  0  0  0  0  0  0  0
   -2.5403    0.4112    0.9916 C   0  0  0  0  0  0  0  0  0  0  0  0
   -1.7363    1.2746    0.0479 C   0  0  0  0  0  0  0  0  0  0  0  0
   -1.6245    0.9278   -1.3059 C   0  0  0  0  0  0  0  0  0  0  0  0
   -0.8860    1.7243   -2.1810 C   0  0  0  0  0  0  0  0  0  0  0  0
   -0.2591    2.8768   -1.7136 C   0  0  0  0  0  0  0  0  0  0  0  0
   -0.3635    3.2307   -0.3696 C   0  0  0  0  0  0  0  0  0  0  0  0
   -1.0976    2.4333    0.5092 C   0  0  0  0  0  0  0  0  0  0  0  0
   -2.8189   -1.8279    2.0031 N   0  0  0  0  0  0  0  0  0  0  0  0
   -3.8354   -2.5191    1.3853 C   0  0  0  0  0  0  0  0  0  0  0  0
   -4.0021   -2.4395    0.1696 O   0  0  0  0  0  0  0  0  0  0  0  0
   -4.6825   -3.3266    2.2519 C   0  0  0  0  0  0  0  0  0  0  0  0
   -5.7564   -4.1066    1.8608 C   0  0  0  0  0  0  0  0  0  0  0  0
   -6.3797   -4.7744    2.9541 C   0  0  0  0  0  0  0  0  0  0  0  0
   -5.7633   -4.4845    4.1499 C   0  0  0  0  0  0  0  0  0  0  0  0
   -4.4452   -3.4151    3.9486 S   0  0  0  0  0  0  0  0  0  0  0  0
    2.5978    0.6931    0.1587 N   0  0  0  0  0  0  0  0  0  0  0  0
    3.5270    0.9241   -0.9378 C   0  0  0  0  0  0  0  0  0  0  0  0
    3.1577    0.0574   -2.1442 C   0  0  0  0  0  0  0  0  0  0  0  0
    4.1519    0.2219   -3.2950 C   0  0  0  0  0  0  0  0  0  0  0  0
    4.7826    1.6132   -3.3672 C   0  0  0  0  0  0  0  0  0  0  0  0
    3.8725    2.6807   -2.7770 C   0  0  0  0  0  0  0  0  0  0  0  0
    3.5756    2.4167   -1.2997 C   0  0  0  0  0  0  0  0  0  0  0  0
    1.8502   -1.4155    2.6361 H   0  0  0  0  0  0  0  0  0  0  0  0
    1.6372    0.3681    2.7584 H   0  0  0  0  0  0  0  0  0  0  0  0
   -1.6336   -1.4783    0.3407 H   0  0  0  0  0  0  0  0  0  0  0  0
   -3.5414    0.2860    0.5584 H   0  0  0  0  0  0  0  0  0  0  0  0
   -2.6992    0.9450    1.9384 H   0  0  0  0  0  0  0  0  0  0  0  0
   -2.1244    0.0398   -1.6908 H   0  0  0  0  0  0  0  0  0  0  0  0
   -0.8109    1.4511   -3.2308 H   0  0  0  0  0  0  0  0  0  0  0  0
    0.3060    3.5037   -2.3990 H   0  0  0  0  0  0  0  0  0  0  0  0
    0.1208    4.1345   -0.0076 H   0  0  0  0  0  0  0  0  0  0  0  0
   -1.1757    2.7315    1.5529 H   0  0  0  0  0  0  0  0  0  0  0  0
   -2.7207   -1.8925    3.0128 H   0  0  0  0  0  0  0  0  0  0  0  0
   -6.0758   -4.1899    0.8276 H   0  0  0  0  0  0  0  0  0  0  0  0
   -7.2352   -5.4332    2.8664 H   0  0  0  0  0  0  0  0  0  0  0  0
   -6.0232   -4.8495    5.1344 H   0  0  0  0  0  0  0  0  0  0  0  0
    1.6304    0.9743    0.0234 H   0  0  0  0  0  0  0  0  0  0  0  0
    4.5286    0.6245   -0.6023 H   0  0  0  0  0  0  0  0  0  0  0  0
    3.0994   -1.0010   -1.8624 H   0  0  0  0  0  0  0  0  0  0  0  0
    2.1527    0.3303   -2.4931 H   0  0  0  0  0  0  0  0  0  0  0  0
    3.6366   -0.0010   -4.2373 H   0  0  0  0  0  0  0  0  0  0  0  0
    4.9525   -0.5221   -3.2028 H   0  0  0  0  0  0  0  0  0  0  0  0
    5.7333    1.6094   -2.8191 H   0  0  0  0  0  0  0  0  0  0  0  0
    5.0251    1.8532   -4.4086 H   0  0  0  0  0  0  0  0  0  0  0  0
    2.9307    2.7036   -3.3397 H   0  0  0  0  0  0  0  0  0  0  0  0
    4.3273    3.6714   -2.8882 H   0  0  0  0  0  0  0  0  0  0  0  0
    2.6406    2.9229   -1.0360 H   0  0  0  0  0  0  0  0  0  0  0  0
    4.3477    2.8947   -0.6826 H   0  0  0  0  0  0  0  0  0  0  0  0
  1  2  2  0
  2  3  1  0
  3  4  1  0
  4  5  1  0
  5  6  2  0
  5  7  1  0
  7  8  1  0
  8  9  1  0
  9 10  2  0
 10 11  1  0
 11 12  2  0
 12 13  1  0
 13 14  2  0
  7 15  1  0
 15 16  1  0
 16 17  2  0
 16 18  1  0
 18 19  2  0
 19 20  1  0
 20 21  2  0
 21 22  1  0
  2 23  1  0
 23 24  1  0
 24 25  1  0
 25 26  1  0
 26 27  1  0
 27 28  1  0
 28 29  1  0
 14  9  1  0
 22 18  1  0
 29 24  1  0
  3 30  1  0
  3 31  1  0
  7 32  1  0
  8 33  1  0
  8 34  1  0
 10 35  1  0
 11 36  1  0
 12 37  1  0
 13 38  1  0
 14 39  1  0
 15 40  1  0
 19 41  1  0
 20 42  1  0
 21 43  1  0
 23 44  1  0
 24 45  1  0
 25 46  1  0
 25 47  1  0
 26 48  1  0
 26 49  1  0
 27 50  1  0
 27 51  1  0
 28 52  1  0
 28 53  1  0
 29 54  1  0
 29 55  1  0
M  END
$$$$
