
     RDKit          3D

 34 35  0  0  0  0  0  0  0  0999 V2000
   -1.3318    1.3539    2.2025 O   0  0  0  0  0  0  0  0  0  0  0  0
   -0.8075    0.2689    1.9633 C   0  0  0  0  0  0  0  0  0  0  0  0
    0.5144   -0.1396    2.6188 C   0  0  0  0  0  0  0  0  0  0  0  0
    1.6590    0.3803    1.9381 O   0  0  0  0  0  0  0  0  0  0  0  0
    1.9415   -0.2308    0.7645 C   0  0  0  0  0  0  0  0  0  0  0  0
    1.3102   -1.1638    0.2911 O   0  0  0  0  0  0  0  0  0  0  0  0
    3.1123    0.3842    0.1047 C   0  0  0  0  0  0  0  0  0  0  0  0
    3.5224   -0.0876   -1.1464 C   0  0  0  0  0  0  0  0  0  0  0  0
    4.6277    0.4898   -1.7704 C   0  0  0  0  0  0  0  0  0  0  0  0
    5.2811    1.5191   -1.1136 C   0  0  0  0  0  0  0  0  0  0  0  0
    6.6494    2.2804   -1.8092 Cl  0  0  0  0  0  0  0  0  0  0  0  0
    4.9174    2.0016    0.0928 N   0  0  0  0  0  0  0  0  0  0  0  0
    3.8367    1.4244    0.6754 C   0  0  0  0  0  0  0  0  0  0  0  0
   -1.2821   -0.6642    1.0458 N   0  0  0  0  0  0  0  0  0  0  0  0
   -2.5222   -0.4960    0.3716 C   0  0  0  0  0  0  0  0  0  0  0  0
   -3.7208   -0.2372    1.0755 C   0  0  0  0  0  0  0  0  0  0  0  0
   -3.8318   -0.3124    2.8055 Cl  0  0  0  0  0  0  0  0  0  0  0  0
   -4.9256   -0.0453    0.3903 C   0  0  0  0  0  0  0  0  0  0  0  0
   -4.9658   -0.1351   -0.9961 C   0  0  0  0  0  0  0  0  0  0  0  0
   -3.8038   -0.4402   -1.6996 C   0  0  0  0  0  0  0  0  0  0  0  0
   -2.5763   -0.6354   -1.0322 C   0  0  0  0  0  0  0  0  0  0  0  0
   -1.3497   -0.9444   -1.8505 C   0  0  0  0  0  0  0  0  0  0  0  0
   -0.3940    0.0216   -1.7572 F   0  0  0  0  0  0  0  0  0  0  0  0
   -0.7526   -2.1062   -1.4661 F   0  0  0  0  0  0  0  0  0  0  0  0
   -1.5982   -1.0862   -3.1836 F   0  0  0  0  0  0  0  0  0  0  0  0
    0.5201    0.2637    3.6374 H   0  0  0  0  0  0  0  0  0  0  0  0
    0.5805   -1.2302    2.7176 H   0  0  0  0  0  0  0  0  0  0  0  0
    2.9857   -0.8972   -1.6369 H   0  0  0  0  0  0  0  0  0  0  0  0
    4.9640    0.1425   -2.7410 H   0  0  0  0  0  0  0  0  0  0  0  0
    3.5757    1.8463    1.6427 H   0  0  0  0  0  0  0  0  0  0  0  0
   -0.5306   -1.1682    0.5663 H   0  0  0  0  0  0  0  0  0  0  0  0
   -5.8432    0.1521    0.9401 H   0  0  0  0  0  0  0  0  0  0  0  0
   -5.9045    0.0129   -1.5252 H   0  0  0  0  0  0  0  0  0  0  0  0
   -3.8575   -0.5218   -2.7857 H   0  0  0  0  0  0  0  0  0  0  0  0
  1  2  2  0
  2  3  1  0
  3  4  1  0
  4  5  1  0
  5  6  2  0
  5  7  1  0
  7  8  2  0
  8  9  1  0
  9 10  2  0
 10 11  1  0
 10 12  1  0
 12 13  2  0
  2 14  1  0
 14 15  1  0
 15 16  2  0
 16 17  1  0
 16 18  1  0
 18 19  2  0
 19 20  1  0
 20 21  2  0
 21 22  1  0
 22 23  1  0
 22 24  1  0
 22 25  1  0
 13  7  1  0
 21 15  1  0
  3 26  1  0
  3 27  1  0
  8 28  1  0
  9 29  1  0
 13 30  1  0
 14 31  1  0
 18 32  1  0
 19 33  1  0
 20 34  1  0
M  END
$$$$
