
     RDKit          3D

 30 31  0  0  0  0  0  0  0  0999 V2000
   -1.4600    2.3732   -0.0271 N   0  0  0  0  0  0  0  0  0  0  0  0
   -1.5043    1.2184    0.5655 C   0  0  0  0  0  0  0  0  0  0  0  0
   -0.3827    0.6284    1.1179 N   0  0  0  0  0  0  0  0  0  0  0  0
    0.8104    1.1613    0.5865 O   0  0  0  0  0  0  0  0  0  0  0  0
    1.4508    0.2596   -0.2255 C   0  0  0  0  0  0  0  0  0  0  0  0
    1.0815   -0.9033   -0.3595 O   0  0  0  0  0  0  0  0  0  0  0  0
    2.6177    0.9266   -0.9146 C   0  0  0  0  0  0  0  0  0  0  0  0
    3.8183    0.0321   -0.9005 C   0  0  0  0  0  0  0  0  0  0  0  0
    4.7753   -0.0904    0.0889 C   0  0  0  0  0  0  0  0  0  0  0  0
    5.7860   -1.0363   -0.2490 C   0  0  0  0  0  0  0  0  0  0  0  0
    5.5651   -1.6107   -1.4809 C   0  0  0  0  0  0  0  0  0  0  0  0
    4.1570   -0.9943   -2.2307 S   0  0  0  0  0  0  0  0  0  0  0  0
   -2.7978    0.4766    0.6694 C   0  0  0  0  0  0  0  0  0  0  0  0
   -3.1181   -0.1994    1.8534 C   0  0  0  0  0  0  0  0  0  0  0  0
   -4.3186   -0.9085    1.9466 C   0  0  0  0  0  0  0  0  0  0  0  0
   -5.1965   -0.9324    0.8622 C   0  0  0  0  0  0  0  0  0  0  0  0
   -6.6772   -1.7994    0.9826 Cl  0  0  0  0  0  0  0  0  0  0  0  0
   -4.8804   -0.2615   -0.3189 C   0  0  0  0  0  0  0  0  0  0  0  0
   -3.6773    0.4423   -0.4189 C   0  0  0  0  0  0  0  0  0  0  0  0
   -2.3903    2.6773   -0.3263 H   0  0  0  0  0  0  0  0  0  0  0  0
   -0.3811   -0.3957    1.0856 H   0  0  0  0  0  0  0  0  0  0  0  0
    2.8682    1.8576   -0.3910 H   0  0  0  0  0  0  0  0  0  0  0  0
    2.3103    1.1976   -1.9300 H   0  0  0  0  0  0  0  0  0  0  0  0
    4.7571    0.4744    1.0147 H   0  0  0  0  0  0  0  0  0  0  0  0
    6.6292   -1.2875    0.3823 H   0  0  0  0  0  0  0  0  0  0  0  0
    6.1640   -2.3583   -1.9811 H   0  0  0  0  0  0  0  0  0  0  0  0
   -2.4536   -0.1618    2.7131 H   0  0  0  0  0  0  0  0  0  0  0  0
   -4.5680   -1.4286    2.8687 H   0  0  0  0  0  0  0  0  0  0  0  0
   -5.5603   -0.2921   -1.1675 H   0  0  0  0  0  0  0  0  0  0  0  0
   -3.4248    0.9349   -1.3543 H   0  0  0  0  0  0  0  0  0  0  0  0
  1  2  2  3
  2  3  1  0
  3  4  1  0
  4  5  1  0
  5  6  2  0
  5  7  1  0
  7  8  1  0
  8  9  2  0
  9 10  1  0
 10 11  2  0
 11 12  1  0
  2 13  1  0
 13 14  2  0
 14 15  1  0
 15 16  2  0
 16 17  1  0
 16 18  1  0
 18 19  2  0
 12  8  1  0
 19 13  1  0
  1 20  1  0
  3 21  1  0
  7 22  1  0
  7 23  1  0
  9 24  1  0
 10 25  1  0
 11 26  1  0
 14 27  1  0
 15 28  1  0
 18 29  1  0
 19 30  1  0
M  END
$$$$
