
     RDKit          3D

 62 64  0  0  0  0  0  0  0  0999 V2000
   -5.0604    1.8508   -2.1778 C   0  0  0  0  0  0  0  0  0  0  0  0
   -3.9876    0.9957   -1.5547 C   0  0  0  0  0  0  0  0  0  0  0  0
   -2.7387    1.0352   -2.2186 C   0  0  0  0  0  0  0  0  0  0  0  0
   -1.6497    0.2964   -1.7761 C   0  0  0  0  0  0  0  0  0  0  0  0
   -0.4699    0.4228   -2.5238 O   0  0  0  0  0  0  0  0  0  0  0  0
    0.6689   -0.2841   -2.1873 C   0  0  0  0  0  0  0  0  0  0  0  0
    1.7007   -0.1669   -2.8448 O   0  0  0  0  0  0  0  0  0  0  0  0
    0.6062   -1.1773   -0.9956 C   0  0  0  0  0  0  0  0  0  0  0  0
    1.8996   -1.9192   -0.7551 C   0  0  0  0  0  0  0  0  0  0  0  0
    2.8668   -1.0337    0.0143 C   0  0  0  0  0  0  0  0  0  0  0  0
    2.9257   -1.0423    1.2405 O   0  0  0  0  0  0  0  0  0  0  0  0
    3.6435   -0.2213   -0.7820 N   0  0  0  0  0  0  0  0  0  0  0  0
    4.6177    0.7015   -0.2389 C   0  0  0  0  0  0  0  0  0  0  0  0
    6.0174    0.0915   -0.2439 C   0  0  0  0  0  0  0  0  0  0  0  0
    7.0317    1.0530    0.3860 C   0  0  0  0  0  0  0  0  0  0  0  0
    8.4301    0.6199    0.2122 N   0  0  0  0  0  0  0  0  0  0  0  0
    9.3384    1.6755    0.6687 C   0  0  0  0  0  0  0  0  0  0  0  0
    8.7202   -0.6253    0.9300 C   0  0  0  0  0  0  0  0  0  0  0  0
   -0.5124   -1.2842   -0.2429 C   0  0  0  0  0  0  0  0  0  0  0  0
   -0.5849   -2.1135    1.0133 C   0  0  0  0  0  0  0  0  0  0  0  0
   -1.7063   -0.5271   -0.6647 C   0  0  0  0  0  0  0  0  0  0  0  0
   -2.9628   -0.5811   -0.0325 C   0  0  0  0  0  0  0  0  0  0  0  0
   -3.2408   -1.3456    1.0542 O   0  0  0  0  0  0  0  0  0  0  0  0
   -4.5259   -1.1556    1.3809 C   0  0  0  0  0  0  0  0  0  0  0  0
   -5.1594   -0.2738    0.5215 C   0  0  0  0  0  0  0  0  0  0  0  0
   -6.6363    0.1159    0.6564 C   0  0  0  0  0  0  0  0  0  0  0  0
   -7.4151   -0.1305   -0.6486 C   0  0  0  0  0  0  0  0  0  0  0  0
   -6.7719    1.5741    1.1368 C   0  0  0  0  0  0  0  0  0  0  0  0
   -7.3630   -0.7499    1.7290 C   0  0  0  0  0  0  0  0  0  0  0  0
   -4.1152    0.1306   -0.4230 C   0  0  0  0  0  0  0  0  0  0  0  0
   -5.7777    2.2141   -1.4467 H   0  0  0  0  0  0  0  0  0  0  0  0
   -4.6276    2.7455   -2.6416 H   0  0  0  0  0  0  0  0  0  0  0  0
   -5.5801    1.2840   -2.9563 H   0  0  0  0  0  0  0  0  0  0  0  0
   -2.6146    1.6615   -3.1024 H   0  0  0  0  0  0  0  0  0  0  0  0
    1.7598   -2.8476   -0.1948 H   0  0  0  0  0  0  0  0  0  0  0  0
    2.3583   -2.2428   -1.6969 H   0  0  0  0  0  0  0  0  0  0  0  0
    3.4263   -0.1690   -1.7772 H   0  0  0  0  0  0  0  0  0  0  0  0
    4.5900    1.6011   -0.8630 H   0  0  0  0  0  0  0  0  0  0  0  0
    4.3242    0.9867    0.7777 H   0  0  0  0  0  0  0  0  0  0  0  0
    6.3088   -0.1405   -1.2775 H   0  0  0  0  0  0  0  0  0  0  0  0
    5.9978   -0.8593    0.3043 H   0  0  0  0  0  0  0  0  0  0  0  0
    6.7966    1.1933    1.4503 H   0  0  0  0  0  0  0  0  0  0  0  0
    6.9080    2.0298   -0.0989 H   0  0  0  0  0  0  0  0  0  0  0  0
   10.3800    1.3884    0.4941 H   0  0  0  0  0  0  0  0  0  0  0  0
    9.2143    1.8968    1.7362 H   0  0  0  0  0  0  0  0  0  0  0  0
    9.1720    2.5983    0.1018 H   0  0  0  0  0  0  0  0  0  0  0  0
    9.7740   -0.8978    0.8115 H   0  0  0  0  0  0  0  0  0  0  0  0
    8.5054   -0.5464    2.0024 H   0  0  0  0  0  0  0  0  0  0  0  0
    8.1477   -1.4640    0.5186 H   0  0  0  0  0  0  0  0  0  0  0  0
    0.3755   -2.5407    1.3104 H   0  0  0  0  0  0  0  0  0  0  0  0
   -1.2789   -2.9530    0.8846 H   0  0  0  0  0  0  0  0  0  0  0  0
   -0.9041   -1.5001    1.8640 H   0  0  0  0  0  0  0  0  0  0  0  0
   -4.8551   -1.7158    2.2448 H   0  0  0  0  0  0  0  0  0  0  0  0
   -7.3085   -1.1718   -0.9798 H   0  0  0  0  0  0  0  0  0  0  0  0
   -7.0897    0.5002   -1.4722 H   0  0  0  0  0  0  0  0  0  0  0  0
   -8.4860    0.0651   -0.5135 H   0  0  0  0  0  0  0  0  0  0  0  0
   -7.8233    1.8837    1.1764 H   0  0  0  0  0  0  0  0  0  0  0  0
   -6.3543    1.6938    2.1452 H   0  0  0  0  0  0  0  0  0  0  0  0
   -6.2411    2.2852    0.5020 H   0  0  0  0  0  0  0  0  0  0  0  0
   -7.3141   -1.8184    1.4855 H   0  0  0  0  0  0  0  0  0  0  0  0
   -6.9268   -0.6121    2.7249 H   0  0  0  0  0  0  0  0  0  0  0  0
   -8.4239   -0.4799    1.8048 H   0  0  0  0  0  0  0  0  0  0  0  0
  1  2  1  0
  2  3  2  0
  3  4  1  0
  4  5  1  0
  5  6  1  0
  6  7  2  0
  6  8  1  0
  8  9  1  0
  9 10  1  0
 10 11  2  0
 10 12  1  0
 12 13  1  0
 13 14  1  0
 14 15  1  0
 15 16  1  0
 16 17  1  0
 16 18  1  0
  8 19  2  0
 19 20  1  0
 19 21  1  0
 21 22  1  0
 22 23  1  0
 23 24  1  0
 24 25  2  0
 25 26  1  0
 26 27  1  0
 26 28  1  0
 26 29  1  0
 25 30  1  0
 30  2  1  0
 21  4  2  0
 30 22  2  0
  1 31  1  0
  1 32  1  0
  1 33  1  0
  3 34  1  0
  9 35  1  0
  9 36  1  0
 12 37  1  0
 13 38  1  0
 13 39  1  0
 14 40  1  0
 14 41  1  0
 15 42  1  0
 15 43  1  0
 17 44  1  0
 17 45  1  0
 17 46  1  0
 18 47  1  0
 18 48  1  0
 18 49  1  0
 20 50  1  0
 20 51  1  0
 20 52  1  0
 24 53  1  0
 27 54  1  0
 27 55  1  0
 27 56  1  0
 28 57  1  0
 28 58  1  0
 28 59  1  0
 29 60  1  0
 29 61  1  0
 29 62  1  0
M  END
$$$$
