
     RDKit          3D

 46 50  0  0  0  0  0  0  0  0999 V2000
    4.5651    1.4973    0.0778 O   0  0  0  0  0  0  0  0  0  0  0  0
    5.1508    0.4395   -0.0963 C   0  0  0  0  0  0  0  0  0  0  0  0
    4.6700   -0.8328    0.1447 O   0  0  0  0  0  0  0  0  0  0  0  0
    3.3650   -0.8423    0.6425 C   0  0  0  0  0  0  0  0  0  0  0  0
    3.1753   -1.0689    2.0056 C   0  0  0  0  0  0  0  0  0  0  0  0
    1.8766   -1.1229    2.5120 C   0  0  0  0  0  0  0  0  0  0  0  0
    0.7867   -0.9624    1.6463 C   0  0  0  0  0  0  0  0  0  0  0  0
   -0.5931   -1.0147    2.1623 C   0  0  0  0  0  0  0  0  0  0  0  0
   -0.8152   -1.2114    3.3513 O   0  0  0  0  0  0  0  0  0  0  0  0
   -1.6822   -0.8127    1.1697 C   0  0  0  0  0  0  0  0  0  0  0  0
   -2.9840   -0.8826    1.6452 O   0  0  0  0  0  0  0  0  0  0  0  0
   -3.9688   -0.2215    0.9541 C   0  0  0  0  0  0  0  0  0  0  0  0
   -3.9722    1.1684    0.8591 C   0  0  0  0  0  0  0  0  0  0  0  0
   -5.0022    1.8081    0.1683 C   0  0  0  0  0  0  0  0  0  0  0  0
   -6.0418    1.0661   -0.4175 C   0  0  0  0  0  0  0  0  0  0  0  0
   -7.0838    1.6952   -1.1170 C   0  0  0  0  0  0  0  0  0  0  0  0
   -8.1142    0.9461   -1.6876 C   0  0  0  0  0  0  0  0  0  0  0  0
   -8.1174   -0.4403   -1.5652 C   0  0  0  0  0  0  0  0  0  0  0  0
   -7.0897   -1.0823   -0.8726 C   0  0  0  0  0  0  0  0  0  0  0  0
   -6.0444   -0.3443   -0.2947 C   0  0  0  0  0  0  0  0  0  0  0  0
   -5.0038   -0.9758    0.4033 C   0  0  0  0  0  0  0  0  0  0  0  0
   -1.3216   -0.6441   -0.1136 C   0  0  0  0  0  0  0  0  0  0  0  0
   -0.0402   -0.6030   -0.6087 O   0  0  0  0  0  0  0  0  0  0  0  0
    0.9917   -0.7555    0.2819 C   0  0  0  0  0  0  0  0  0  0  0  0
    2.2866   -0.7019   -0.2311 C   0  0  0  0  0  0  0  0  0  0  0  0
    6.5346    0.3675   -0.6177 C   0  0  0  0  0  0  0  0  0  0  0  0
    7.1999   -0.8350   -0.8311 C   0  0  0  0  0  0  0  0  0  0  0  0
    8.4668   -0.9222   -1.3089 N   0  0  0  0  0  0  0  0  0  0  0  0
    9.0961    0.2454   -1.5853 C   0  0  0  0  0  0  0  0  0  0  0  0
    8.5136    1.4905   -1.4049 C   0  0  0  0  0  0  0  0  0  0  0  0
    9.4623    3.0666   -1.8158 Br  0  0  0  0  0  0  0  0  0  0  0  0
    7.2134    1.5547   -0.9140 C   0  0  0  0  0  0  0  0  0  0  0  0
    4.0252   -1.1966    2.6699 H   0  0  0  0  0  0  0  0  0  0  0  0
    1.7134   -1.2893    3.5750 H   0  0  0  0  0  0  0  0  0  0  0  0
   -3.1860    1.7558    1.3249 H   0  0  0  0  0  0  0  0  0  0  0  0
   -4.9931    2.8936    0.0966 H   0  0  0  0  0  0  0  0  0  0  0  0
   -7.1019    2.7778   -1.2210 H   0  0  0  0  0  0  0  0  0  0  0  0
   -8.9154    1.4465   -2.2254 H   0  0  0  0  0  0  0  0  0  0  0  0
   -8.9210   -1.0238   -2.0072 H   0  0  0  0  0  0  0  0  0  0  0  0
   -7.1115   -2.1665   -0.7862 H   0  0  0  0  0  0  0  0  0  0  0  0
   -4.9916   -2.0566    0.5189 H   0  0  0  0  0  0  0  0  0  0  0  0
   -2.0253   -0.5242   -0.9277 H   0  0  0  0  0  0  0  0  0  0  0  0
    2.4498   -0.5443   -1.2925 H   0  0  0  0  0  0  0  0  0  0  0  0
    6.7404   -1.7984   -0.6259 H   0  0  0  0  0  0  0  0  0  0  0  0
   10.1087    0.1402   -1.9657 H   0  0  0  0  0  0  0  0  0  0  0  0
    6.7282    2.5164   -0.7613 H   0  0  0  0  0  0  0  0  0  0  0  0
  1  2  2  0
  2  3  1  0
  3  4  1  0
  4  5  2  0
  5  6  1  0
  6  7  2  0
  7  8  1  0
  8  9  2  0
  8 10  1  0
 10 11  1  0
 11 12  1  0
 12 13  2  0
 13 14  1  0
 14 15  2  0
 15 16  1  0
 16 17  2  0
 17 18  1  0
 18 19  2  0
 19 20  1  0
 20 21  2  0
 10 22  2  0
 22 23  1  0
 23 24  1  0
 24 25  2  0
  2 26  1  0
 26 27  2  0
 27 28  1  0
 28 29  2  0
 29 30  1  0
 30 31  1  0
 30 32  2  0
 25  4  1  0
 32 26  1  0
 24  7  1  0
 21 12  1  0
 20 15  1  0
  5 33  1  0
  6 34  1  0
 13 35  1  0
 14 36  1  0
 16 37  1  0
 17 38  1  0
 18 39  1  0
 19 40  1  0
 21 41  1  0
 22 42  1  0
 25 43  1  0
 27 44  1  0
 29 45  1  0
 32 46  1  0
M  END
$$$$
