
     RDKit          3D

 46 49  0  0  0  0  0  0  0  0999 V2000
    5.5298   -1.4363   -3.4076 N   0  0  0  0  0  0  0  0  0  0  0  0
    5.6769   -0.6541   -1.9219 S   0  0  0  0  0  6  0  0  0  0  0  0
    6.1577    0.6841   -2.1670 O   0  0  0  0  0  0  0  0  0  0  0  0
    6.3722   -1.5880   -1.0657 O   0  0  0  0  0  0  0  0  0  0  0  0
    3.9861   -0.5606   -1.4044 C   0  0  0  0  0  0  0  0  0  0  0  0
    3.1664    0.4357   -1.9281 C   0  0  0  0  0  0  0  0  0  0  0  0
    1.8291    0.5035   -1.5246 C   0  0  0  0  0  0  0  0  0  0  0  0
    1.2818   -0.4002   -0.5934 C   0  0  0  0  0  0  0  0  0  0  0  0
   -0.0555   -0.3045   -0.2136 N   0  0  0  0  0  0  0  0  0  0  0  0
   -0.8752    0.6344   -0.7725 N   0  0  0  0  0  0  0  0  0  0  0  0
   -2.0793    0.3971   -0.3474 C   0  0  0  0  0  0  0  0  0  0  0  0
   -3.2490    1.2262   -0.7215 C   0  0  0  0  0  0  0  0  0  0  0  0
   -4.5470    0.8809   -0.3284 C   0  0  0  0  0  0  0  0  0  0  0  0
   -5.6273    1.6869   -0.6981 C   0  0  0  0  0  0  0  0  0  0  0  0
   -5.4165    2.8358   -1.4596 C   0  0  0  0  0  0  0  0  0  0  0  0
   -4.1260    3.1828   -1.8551 C   0  0  0  0  0  0  0  0  0  0  0  0
   -3.0442    2.3804   -1.4880 C   0  0  0  0  0  0  0  0  0  0  0  0
   -2.2148   -0.8127    0.5357 C   0  0  0  0  0  0  0  0  0  0  0  0
   -0.7407   -1.1537    0.7631 C   0  0  0  0  0  0  0  0  0  0  0  0
   -0.3326   -0.8724    2.2038 C   0  0  0  0  0  0  0  0  0  0  0  0
    0.0054    0.4204    2.6443 C   0  0  0  0  0  0  0  0  0  0  0  0
    0.3528    0.6510    3.9763 C   0  0  0  0  0  0  0  0  0  0  0  0
    0.3566   -0.4064    4.8760 C   0  0  0  0  0  0  0  0  0  0  0  0
    0.6872   -0.1854    6.1549 F   0  0  0  0  0  0  0  0  0  0  0  0
    0.0187   -1.6912    4.4696 C   0  0  0  0  0  0  0  0  0  0  0  0
   -0.3282   -1.9251    3.1375 C   0  0  0  0  0  0  0  0  0  0  0  0
    2.1449   -1.3818   -0.0768 C   0  0  0  0  0  0  0  0  0  0  0  0
    3.4865   -1.4661   -0.4711 C   0  0  0  0  0  0  0  0  0  0  0  0
    5.9891   -2.3463   -3.3452 H   0  0  0  0  0  0  0  0  0  0  0  0
    4.5637   -1.5171   -3.7228 H   0  0  0  0  0  0  0  0  0  0  0  0
    3.5521    1.1634   -2.6389 H   0  0  0  0  0  0  0  0  0  0  0  0
    1.2003    1.2885   -1.9415 H   0  0  0  0  0  0  0  0  0  0  0  0
   -4.7455   -0.0087    0.2611 H   0  0  0  0  0  0  0  0  0  0  0  0
   -6.6358    1.4185   -0.3924 H   0  0  0  0  0  0  0  0  0  0  0  0
   -6.2585    3.4614   -1.7458 H   0  0  0  0  0  0  0  0  0  0  0  0
   -3.9597    4.0780   -2.4492 H   0  0  0  0  0  0  0  0  0  0  0  0
   -2.0415    2.6629   -1.8026 H   0  0  0  0  0  0  0  0  0  0  0  0
   -2.7178   -1.6045   -0.0297 H   0  0  0  0  0  0  0  0  0  0  0  0
   -2.7714   -0.5954    1.4513 H   0  0  0  0  0  0  0  0  0  0  0  0
   -0.5739   -2.2130    0.5295 H   0  0  0  0  0  0  0  0  0  0  0  0
    0.0101    1.2563    1.9454 H   0  0  0  0  0  0  0  0  0  0  0  0
    0.6220    1.6470    4.3131 H   0  0  0  0  0  0  0  0  0  0  0  0
    0.0278   -2.5006    5.1928 H   0  0  0  0  0  0  0  0  0  0  0  0
   -0.5932   -2.9357    2.8338 H   0  0  0  0  0  0  0  0  0  0  0  0
    1.7923   -2.1016    0.6561 H   0  0  0  0  0  0  0  0  0  0  0  0
    4.1243   -2.2340   -0.0391 H   0  0  0  0  0  0  0  0  0  0  0  0
  1  2  1  0
  2  3  2  0
  2  4  2  0
  2  5  1  0
  5  6  2  0
  6  7  1  0
  7  8  2  0
  8  9  1  0
  9 10  1  0
 10 11  2  0
 11 12  1  0
 12 13  2  0
 13 14  1  0
 14 15  2  0
 15 16  1  0
 16 17  2  0
 11 18  1  0
 18 19  1  0
 19 20  1  0
 20 21  2  0
 21 22  1  0
 22 23  2  0
 23 24  1  0
 23 25  1  0
 25 26  2  0
  8 27  1  0
 27 28  2  0
 28  5  1  0
 19  9  1  0
 26 20  1  0
 17 12  1  0
  1 29  1  0
  1 30  1  0
  6 31  1  0
  7 32  1  0
 13 33  1  0
 14 34  1  0
 15 35  1  0
 16 36  1  0
 17 37  1  0
 18 38  1  0
 18 39  1  0
 19 40  1  0
 21 41  1  0
 22 42  1  0
 25 43  1  0
 26 44  1  0
 27 45  1  0
 28 46  1  0
M  END
$$$$
