
     RDKit          3D

 48 48  0  0  0  0  0  0  0  0999 V2000
    3.1517   -1.1481   -1.2994 C   0  0  0  0  0  0  0  0  0  0  0  0
    3.3041    0.1412   -0.4883 C   0  0  0  0  0  0  0  0  0  0  0  0
    2.6022    0.0275    0.8759 C   0  0  0  0  0  0  0  0  0  0  0  0
    1.1603   -0.1016    0.7603 N   0  0  0  0  0  0  0  0  0  0  0  0
    0.3529    0.9909    0.5220 C   0  0  0  0  0  0  0  0  0  0  0  0
    0.7782    2.1344    0.4000 O   0  0  0  0  0  0  0  0  0  0  0  0
   -1.1029    0.7142    0.3789 C   0  0  0  0  0  0  0  0  0  0  0  0
   -1.7244   -0.3501    1.0341 C   0  0  0  0  0  0  0  0  0  0  0  0
   -3.0991   -0.5630    0.8772 C   0  0  0  0  0  0  0  0  0  0  0  0
   -3.8906    0.2776    0.0694 C   0  0  0  0  0  0  0  0  0  0  0  0
   -5.4014    0.0163   -0.0700 C   0  0  0  0  0  0  0  0  0  0  0  0
   -6.0773    0.1784    1.3087 C   0  0  0  0  0  0  0  0  0  0  0  0
   -6.1140    0.9766   -1.0491 C   0  0  0  0  0  0  0  0  0  0  0  0
   -5.6431   -1.4189   -0.5876 C   0  0  0  0  0  0  0  0  0  0  0  0
   -3.2463    1.3516   -0.5663 C   0  0  0  0  0  0  0  0  0  0  0  0
   -1.8720    1.5707   -0.4106 C   0  0  0  0  0  0  0  0  0  0  0  0
    4.7801    0.5600   -0.3080 C   0  0  0  0  0  0  0  0  0  0  0  0
    5.5586   -0.4049    0.4900 N   0  0  0  0  0  0  0  0  0  0  0  0
    6.4624   -1.1909   -0.3539 C   0  0  0  0  0  0  0  0  0  0  0  0
    6.3331    0.2783    1.5297 C   0  0  0  0  0  0  0  0  0  0  0  0
    3.5145   -2.0204   -0.7464 H   0  0  0  0  0  0  0  0  0  0  0  0
    3.7054   -1.0821   -2.2418 H   0  0  0  0  0  0  0  0  0  0  0  0
    2.1010   -1.3289   -1.5501 H   0  0  0  0  0  0  0  0  0  0  0  0
    2.8199    0.9402   -1.0658 H   0  0  0  0  0  0  0  0  0  0  0  0
    2.9537   -0.8485    1.4318 H   0  0  0  0  0  0  0  0  0  0  0  0
    2.8100    0.9162    1.4833 H   0  0  0  0  0  0  0  0  0  0  0  0
    0.7815   -1.0321    0.6537 H   0  0  0  0  0  0  0  0  0  0  0  0
   -1.1660   -1.0053    1.6958 H   0  0  0  0  0  0  0  0  0  0  0  0
   -3.5503   -1.3963    1.4122 H   0  0  0  0  0  0  0  0  0  0  0  0
   -5.6996   -0.5438    2.0410 H   0  0  0  0  0  0  0  0  0  0  0  0
   -7.1612    0.0285    1.2381 H   0  0  0  0  0  0  0  0  0  0  0  0
   -5.9052    1.1814    1.7176 H   0  0  0  0  0  0  0  0  0  0  0  0
   -5.6932    0.9062   -2.0593 H   0  0  0  0  0  0  0  0  0  0  0  0
   -6.0403    2.0201   -0.7200 H   0  0  0  0  0  0  0  0  0  0  0  0
   -7.1824    0.7407   -1.1264 H   0  0  0  0  0  0  0  0  0  0  0  0
   -5.2853   -2.1802    0.1143 H   0  0  0  0  0  0  0  0  0  0  0  0
   -6.7119   -1.6081   -0.7431 H   0  0  0  0  0  0  0  0  0  0  0  0
   -5.1316   -1.5868   -1.5435 H   0  0  0  0  0  0  0  0  0  0  0  0
   -3.7921    2.0511   -1.1933 H   0  0  0  0  0  0  0  0  0  0  0  0
   -1.4038    2.4164   -0.9104 H   0  0  0  0  0  0  0  0  0  0  0  0
    5.2390    0.7281   -1.2907 H   0  0  0  0  0  0  0  0  0  0  0  0
    4.7766    1.5464    0.1752 H   0  0  0  0  0  0  0  0  0  0  0  0
    5.9129   -1.7295   -1.1321 H   0  0  0  0  0  0  0  0  0  0  0  0
    6.9782   -1.9502    0.2444 H   0  0  0  0  0  0  0  0  0  0  0  0
    7.2198   -0.5643   -0.8408 H   0  0  0  0  0  0  0  0  0  0  0  0
    6.8688   -0.4489    2.1489 H   0  0  0  0  0  0  0  0  0  0  0  0
    5.6680    0.8284    2.2048 H   0  0  0  0  0  0  0  0  0  0  0  0
    7.0610    0.9818    1.1094 H   0  0  0  0  0  0  0  0  0  0  0  0
  1  2  1  0
  2  3  1  0
  3  4  1  0
  4  5  1  0
  5  6  2  0
  5  7  1  0
  7  8  2  0
  8  9  1  0
  9 10  2  0
 10 11  1  0
 11 12  1  0
 11 13  1  0
 11 14  1  0
 10 15  1  0
 15 16  2  0
  2 17  1  0
 17 18  1  0
 18 19  1  0
 18 20  1  0
 16  7  1  0
  1 21  1  0
  1 22  1  0
  1 23  1  0
  2 24  1  0
  3 25  1  0
  3 26  1  0
  4 27  1  0
  8 28  1  0
  9 29  1  0
 12 30  1  0
 12 31  1  0
 12 32  1  0
 13 33  1  0
 13 34  1  0
 13 35  1  0
 14 36  1  0
 14 37  1  0
 14 38  1  0
 15 39  1  0
 16 40  1  0
 17 41  1  0
 17 42  1  0
 19 43  1  0
 19 44  1  0
 19 45  1  0
 20 46  1  0
 20 47  1  0
 20 48  1  0
M  END
$$$$
