
     RDKit          3D

 33 36  0  0  0  0  0  0  0  0999 V2000
    5.2053    0.0733   -0.0407 C   0  0  0  0  0  0  0  0  0  0  0  0
    4.8300   -0.9745    0.7896 C   0  0  0  0  0  0  0  0  0  0  0  0
    3.4773   -1.1890    1.0585 C   0  0  0  0  0  0  0  0  0  0  0  0
    2.4916   -0.3754    0.5133 C   0  0  0  0  0  0  0  0  0  0  0  0
    1.1996   -0.6204    0.8029 N   0  0  0  0  0  0  0  0  0  0  0  0
    0.2724    0.2067    0.2694 C   0  0  0  0  0  0  0  0  0  0  0  0
    0.6736    1.2507   -0.5947 C   0  0  0  0  0  0  0  0  0  0  0  0
    1.9654    1.5058   -0.8953 N   0  0  0  0  0  0  0  0  0  0  0  0
    2.8749    0.6927   -0.3344 C   0  0  0  0  0  0  0  0  0  0  0  0
    4.2244    0.8969   -0.5951 C   0  0  0  0  0  0  0  0  0  0  0  0
   -0.2129    2.0814   -1.2406 O   0  0  0  0  0  0  0  0  0  0  0  0
   -1.5514    1.5697   -1.2240 C   0  0  0  0  0  0  0  0  0  0  0  0
   -1.9314    1.1144    0.1891 C   0  0  0  0  0  0  0  0  0  0  0  0
   -3.4223    0.8001    0.3474 C   0  0  0  0  0  0  0  0  0  0  0  0
   -3.8118   -0.5586   -0.2198 C   0  0  0  0  0  0  0  0  0  0  0  0
   -2.9456   -1.6437    0.4056 C   0  0  0  0  0  0  0  0  0  0  0  0
   -1.4672   -1.3740    0.1480 C   0  0  0  0  0  0  0  0  0  0  0  0
   -1.0912   -0.0267    0.5975 N   0  0  0  0  0  0  0  0  0  0  0  0
    6.2548    0.2536   -0.2588 H   0  0  0  0  0  0  0  0  0  0  0  0
    5.5825   -1.6238    1.2300 H   0  0  0  0  0  0  0  0  0  0  0  0
    3.1813   -2.0071    1.7110 H   0  0  0  0  0  0  0  0  0  0  0  0
    4.5155    1.7179   -1.2462 H   0  0  0  0  0  0  0  0  0  0  0  0
   -1.6355    0.7651   -1.9650 H   0  0  0  0  0  0  0  0  0  0  0  0
   -2.2069    2.3849   -1.5486 H   0  0  0  0  0  0  0  0  0  0  0  0
   -1.7093    1.9450    0.8754 H   0  0  0  0  0  0  0  0  0  0  0  0
   -4.0304    1.5864   -0.1147 H   0  0  0  0  0  0  0  0  0  0  0  0
   -3.6683    0.8079    1.4179 H   0  0  0  0  0  0  0  0  0  0  0  0
   -4.8677   -0.7592   -0.0071 H   0  0  0  0  0  0  0  0  0  0  0  0
   -3.6952   -0.5630   -1.3098 H   0  0  0  0  0  0  0  0  0  0  0  0
   -3.2201   -2.6216   -0.0054 H   0  0  0  0  0  0  0  0  0  0  0  0
   -3.1313   -1.6841    1.4862 H   0  0  0  0  0  0  0  0  0  0  0  0
   -0.8867   -2.1359    0.6834 H   0  0  0  0  0  0  0  0  0  0  0  0
   -1.2635   -1.4955   -0.9248 H   0  0  0  0  0  0  0  0  0  0  0  0
  1  2  2  0
  2  3  1  0
  3  4  2  0
  4  5  1  0
  5  6  2  0
  6  7  1  0
  7  8  2  0
  8  9  1  0
  9 10  2  0
  7 11  1  0
 11 12  1  0
 12 13  1  0
 13 14  1  0
 14 15  1  0
 15 16  1  0
 16 17  1  0
 17 18  1  0
 10  1  1  0
 18 13  1  0
  9  4  1  0
 18  6  1  0
  1 19  1  0
  2 20  1  0
  3 21  1  0
 10 22  1  0
 12 23  1  0
 12 24  1  0
 13 25  1  0
 14 26  1  0
 14 27  1  0
 15 28  1  0
 15 29  1  0
 16 30  1  0
 16 31  1  0
 17 32  1  0
 17 33  1  0
M  END
$$$$
