
     RDKit          3D

 62 65  0  0  0  0  0  0  0  0999 V2000
   -4.0799   -4.4759   -2.0619 C   0  0  0  0  0  0  0  0  0  0  0  0
   -4.1649   -3.3899   -1.0056 C   0  0  0  0  0  0  0  0  0  0  0  0
   -3.0388   -2.5088   -1.1054 O   0  0  0  0  0  0  0  0  0  0  0  0
   -3.1335   -1.5263   -2.0378 C   0  0  0  0  0  0  0  0  0  0  0  0
   -4.0741   -1.3159   -2.7860 O   0  0  0  0  0  0  0  0  0  0  0  0
   -1.8651   -0.7577   -2.0243 C   0  0  0  0  0  0  0  0  0  0  0  0
   -0.9800   -0.9617   -3.0395 C   0  0  0  0  0  0  0  0  0  0  0  0
   -1.3013   -1.7569   -4.2833 C   0  0  0  0  0  0  0  0  0  0  0  0
    0.3486   -0.5352   -3.0013 N   0  0  0  0  0  0  0  0  0  0  0  0
    0.7991   -0.2114   -1.8322 C   0  0  0  0  0  0  0  0  0  0  0  0
    2.4786    0.0724   -1.4816 S   0  0  0  0  0  0  0  0  0  0  0  0
    2.2117   -0.2671    0.2166 C   0  0  0  0  0  0  0  0  0  0  0  0
    3.1874   -0.5802    1.0977 C   0  0  0  0  0  0  0  0  0  0  0  0
    2.9105   -1.0228    2.3832 O   0  0  0  0  0  0  0  0  0  0  0  0
    4.6312   -0.5793    0.8010 C   0  0  0  0  0  0  0  0  0  0  0  0
    5.3655   -1.7672    0.8963 C   0  0  0  0  0  0  0  0  0  0  0  0
    6.7327   -1.7805    0.6093 C   0  0  0  0  0  0  0  0  0  0  0  0
    7.3912   -0.6083    0.2295 C   0  0  0  0  0  0  0  0  0  0  0  0
    8.7231   -0.7598   -0.0422 O   0  0  0  0  0  0  0  0  0  0  0  0
    9.4467    0.4148   -0.3870 C   0  0  0  0  0  0  0  0  0  0  0  0
    6.6706    0.5828    0.1542 C   0  0  0  0  0  0  0  0  0  0  0  0
    5.3002    0.5978    0.4446 C   0  0  0  0  0  0  0  0  0  0  0  0
    0.7669   -0.2406    0.5096 C   0  0  0  0  0  0  0  0  0  0  0  0
    0.3342   -0.3343    1.8301 N   0  0  0  0  0  0  0  0  0  0  0  0
   -0.0026   -0.1121   -0.5886 C   0  0  0  0  0  0  0  0  0  0  0  0
   -1.4383    0.0274   -0.8387 C   0  0  0  0  0  0  0  0  0  0  0  0
   -2.2365    0.9294   -0.1879 C   0  0  0  0  0  0  0  0  0  0  0  0
   -3.6683    1.1218   -0.5098 C   0  0  0  0  0  0  0  0  0  0  0  0
   -4.4737    1.8617    0.2772 C   0  0  0  0  0  0  0  0  0  0  0  0
   -3.9421    2.5521    1.4599 C   0  0  0  0  0  0  0  0  0  0  0  0
   -4.7322    3.1851    2.3629 C   0  0  0  0  0  0  0  0  0  0  0  0
   -6.1063    3.2615    2.2263 O   0  0  0  0  0  0  0  0  0  0  0  0
   -4.1560    3.7671    3.4820 O   0  0  0  0  0  0  0  0  0  0  0  0
   -5.0231    4.6571    4.1788 C   0  0  0  0  0  0  0  0  0  0  0  0
   -2.4803    2.6171    1.5954 C   0  0  0  0  0  0  0  0  0  0  0  0
   -1.6816    1.8818    0.8026 C   0  0  0  0  0  0  0  0  0  0  0  0
   -4.8726   -5.2147   -1.9212 H   0  0  0  0  0  0  0  0  0  0  0  0
   -4.1725   -4.0530   -3.0672 H   0  0  0  0  0  0  0  0  0  0  0  0
   -3.1077   -4.9811   -2.0208 H   0  0  0  0  0  0  0  0  0  0  0  0
   -5.1060   -2.8313   -1.0717 H   0  0  0  0  0  0  0  0  0  0  0  0
   -4.1246   -3.8444   -0.0105 H   0  0  0  0  0  0  0  0  0  0  0  0
   -1.0476   -2.8116   -4.1330 H   0  0  0  0  0  0  0  0  0  0  0  0
   -0.7157   -1.3875   -5.1320 H   0  0  0  0  0  0  0  0  0  0  0  0
   -2.3518   -1.6825   -4.5780 H   0  0  0  0  0  0  0  0  0  0  0  0
    1.9443   -1.1947    2.4234 H   0  0  0  0  0  0  0  0  0  0  0  0
    4.8755   -2.6914    1.1947 H   0  0  0  0  0  0  0  0  0  0  0  0
    7.2874   -2.7128    0.6781 H   0  0  0  0  0  0  0  0  0  0  0  0
   10.4925    0.1322   -0.5421 H   0  0  0  0  0  0  0  0  0  0  0  0
    9.4209    1.1478    0.4250 H   0  0  0  0  0  0  0  0  0  0  0  0
    9.0750    0.8437   -1.3236 H   0  0  0  0  0  0  0  0  0  0  0  0
    7.1364    1.5174   -0.1412 H   0  0  0  0  0  0  0  0  0  0  0  0
    4.7572    1.5385    0.3761 H   0  0  0  0  0  0  0  0  0  0  0  0
    0.7470    0.4132    2.3985 H   0  0  0  0  0  0  0  0  0  0  0  0
   -0.6854   -0.2696    1.9036 H   0  0  0  0  0  0  0  0  0  0  0  0
   -4.1018    0.6944   -1.4062 H   0  0  0  0  0  0  0  0  0  0  0  0
   -5.5196    1.9523    0.0080 H   0  0  0  0  0  0  0  0  0  0  0  0
   -6.2989    3.3436    1.2805 H   0  0  0  0  0  0  0  0  0  0  0  0
   -4.4418    5.1383    4.9713 H   0  0  0  0  0  0  0  0  0  0  0  0
   -5.3984    5.4440    3.5152 H   0  0  0  0  0  0  0  0  0  0  0  0
   -5.8503    4.1132    4.6476 H   0  0  0  0  0  0  0  0  0  0  0  0
   -2.0483    3.3167    2.3071 H   0  0  0  0  0  0  0  0  0  0  0  0
   -0.6128    2.0415    0.8744 H   0  0  0  0  0  0  0  0  0  0  0  0
  1  2  1  0
  2  3  1  0
  3  4  1  0
  4  5  2  0
  4  6  1  0
  6  7  2  0
  7  8  1  0
  7  9  1  0
  9 10  2  0
 10 11  1  0
 11 12  1  0
 12 13  2  3
 13 14  1  0
 13 15  1  0
 15 16  2  0
 16 17  1  0
 17 18  2  0
 18 19  1  0
 19 20  1  0
 18 21  1  0
 21 22  2  0
 12 23  1  0
 23 24  1  0
 23 25  2  0
 25 26  1  0
 26 27  2  3
 27 28  1  0
 28 29  2  0
 29 30  1  0
 30 31  2  3
 31 32  1  0
 31 33  1  0
 33 34  1  0
 30 35  1  0
 35 36  2  0
 26  6  1  0
 36 27  1  0
 25 10  1  0
 22 15  1  0
  1 37  1  0
  1 38  1  0
  1 39  1  0
  2 40  1  0
  2 41  1  0
  8 42  1  0
  8 43  1  0
  8 44  1  0
 14 45  1  0
 16 46  1  0
 17 47  1  0
 20 48  1  0
 20 49  1  0
 20 50  1  0
 21 51  1  0
 22 52  1  0
 24 53  1  0
 24 54  1  0
 28 55  1  0
 29 56  1  0
 32 57  1  0
 34 58  1  0
 34 59  1  0
 34 60  1  0
 35 61  1  0
 36 62  1  0
M  END
$$$$
