
     RDKit          3D

 43 45  0  0  0  0  0  0  0  0999 V2000
    7.6064   -1.2146   -1.4130 C   0  0  0  0  0  0  0  0  0  0  0  0
    6.6440   -0.1685   -1.4528 O   0  0  0  0  0  0  0  0  0  0  0  0
    5.3503   -0.5076   -1.1710 C   0  0  0  0  0  0  0  0  0  0  0  0
    4.8853   -1.7798   -0.8477 C   0  0  0  0  0  0  0  0  0  0  0  0
    3.5245   -1.9848   -0.5812 C   0  0  0  0  0  0  0  0  0  0  0  0
    2.6036   -0.9287   -0.6364 C   0  0  0  0  0  0  0  0  0  0  0  0
    1.2507   -1.1808   -0.3199 N   0  0  0  0  0  0  0  0  0  0  0  0
    0.2942   -0.3561    0.1722 C   0  0  0  0  0  0  0  0  0  0  0  0
    0.4673    0.8179    0.9314 C   0  0  0  0  0  0  0  0  0  0  0  0
   -0.7833    1.2744    1.2923 C   0  0  0  0  0  0  0  0  0  0  0  0
   -1.1105    2.2817    2.0993 O   0  0  0  0  0  0  0  0  0  0  0  0
   -1.7391    0.4313    0.7272 N   0  0  0  0  0  0  0  0  0  0  0  0
   -3.1590    0.5365    0.8614 C   0  0  0  0  0  0  0  0  0  0  0  0
   -3.8681   -0.6358    1.1850 C   0  0  0  0  0  0  0  0  0  0  0  0
   -5.2529   -0.5855    1.3800 C   0  0  0  0  0  0  0  0  0  0  0  0
   -5.9844   -1.8076    1.7347 N   0  0  0  0  0  4  0  0  0  0  0  0
   -7.2198   -1.7370    1.8146 O   0  0  0  0  0  0  0  0  0  0  0  0
   -5.3281   -2.8395    1.9364 O   0  0  0  0  0  1  0  0  0  0  0  0
   -5.9447    0.6212    1.2535 C   0  0  0  0  0  0  0  0  0  0  0  0
   -5.2444    1.7782    0.9090 C   0  0  0  0  0  0  0  0  0  0  0  0
   -3.8533    1.7537    0.6847 C   0  0  0  0  0  0  0  0  0  0  0  0
   -3.2175    3.0364    0.2172 C   0  0  0  0  0  0  0  0  0  0  0  0
   -1.0613   -0.5917    0.0616 C   0  0  0  0  0  0  0  0  0  0  0  0
   -1.7090   -1.5456   -0.6114 O   0  0  0  0  0  0  0  0  0  0  0  0
    3.0858    0.3440   -0.9540 C   0  0  0  0  0  0  0  0  0  0  0  0
    4.4432    0.5507   -1.2231 C   0  0  0  0  0  0  0  0  0  0  0  0
    7.6792   -1.6459   -0.4092 H   0  0  0  0  0  0  0  0  0  0  0  0
    7.3840   -1.9842   -2.1596 H   0  0  0  0  0  0  0  0  0  0  0  0
    8.5806   -0.7822   -1.6609 H   0  0  0  0  0  0  0  0  0  0  0  0
    5.5504   -2.6345   -0.7877 H   0  0  0  0  0  0  0  0  0  0  0  0
    3.1940   -2.9858   -0.3143 H   0  0  0  0  0  0  0  0  0  0  0  0
    1.0179   -2.1609   -0.4487 H   0  0  0  0  0  0  0  0  0  0  0  0
    1.4059    1.2526    1.2463 H   0  0  0  0  0  0  0  0  0  0  0  0
   -0.2832    2.6765    2.4279 H   0  0  0  0  0  0  0  0  0  0  0  0
   -3.3358   -1.5762    1.3187 H   0  0  0  0  0  0  0  0  0  0  0  0
   -7.0198    0.6787    1.4092 H   0  0  0  0  0  0  0  0  0  0  0  0
   -5.7973    2.7098    0.7933 H   0  0  0  0  0  0  0  0  0  0  0  0
   -2.3273    2.8556   -0.3918 H   0  0  0  0  0  0  0  0  0  0  0  0
   -2.9651    3.6730    1.0697 H   0  0  0  0  0  0  0  0  0  0  0  0
   -3.9107    3.5921   -0.4254 H   0  0  0  0  0  0  0  0  0  0  0  0
   -1.0552   -1.9684   -1.1949 H   0  0  0  0  0  0  0  0  0  0  0  0
    2.4091    1.1900   -1.0307 H   0  0  0  0  0  0  0  0  0  0  0  0
    4.7932    1.5476   -1.4798 H   0  0  0  0  0  0  0  0  0  0  0  0
  1  2  1  0
  2  3  1  0
  3  4  2  0
  4  5  1  0
  5  6  2  0
  6  7  1  0
  7  8  1  0
  8  9  1  0
  9 10  2  0
 10 11  1  0
 10 12  1  0
 12 13  1  0
 13 14  2  0
 14 15  1  0
 15 16  1  0
 16 17  2  0
 16 18  1  0
 15 19  2  0
 19 20  1  0
 20 21  2  0
 21 22  1  0
 12 23  1  0
 23 24  1  0
  6 25  1  0
 25 26  2  0
 26  3  1  0
 23  8  2  0
 21 13  1  0
  1 27  1  0
  1 28  1  0
  1 29  1  0
  4 30  1  0
  5 31  1  0
  7 32  1  0
  9 33  1  0
 11 34  1  0
 14 35  1  0
 19 36  1  0
 20 37  1  0
 22 38  1  0
 22 39  1  0
 22 40  1  0
 24 41  1  0
 25 42  1  0
 26 43  1  0
M  CHG  2  16   1  18  -1
M  END
$$$$
