
     RDKit          3D

 46 49  0  0  0  0  0  0  0  0999 V2000
    5.7008    1.0840    0.5620 O   0  0  0  0  0  0  0  0  0  0  0  0
    5.8034   -0.1116    0.8730 N   0  0  0  0  0  4  0  0  0  0  0  0
    6.6797   -0.5685    1.6214 O   0  0  0  0  0  1  0  0  0  0  0  0
    4.8210   -1.0505    0.3176 C   0  0  0  0  0  0  0  0  0  0  0  0
    4.8710   -2.4019    0.6816 C   0  0  0  0  0  0  0  0  0  0  0  0
    3.9293   -3.2879    0.1582 C   0  0  0  0  0  0  0  0  0  0  0  0
    2.9472   -2.8291   -0.7231 C   0  0  0  0  0  0  0  0  0  0  0  0
    2.8955   -1.4784   -1.0992 C   0  0  0  0  0  0  0  0  0  0  0  0
    1.8159   -0.9780   -2.0346 C   0  0  0  0  0  0  0  0  0  0  0  0
    0.6694   -0.3448   -1.3107 C   0  0  0  0  0  0  0  0  0  0  0  0
   -0.6015   -1.3047   -0.5853 S   0  0  0  0  0  0  0  0  0  0  0  0
   -1.4936    0.1755   -0.0711 C   0  0  0  0  0  0  0  0  0  0  0  0
   -2.6140    0.1566    0.5852 N   0  0  0  0  0  0  0  0  0  0  0  0
   -3.2215   -1.0516    0.9436 C   0  0  0  0  0  0  0  0  0  0  0  0
   -2.9494   -1.6364    2.1833 C   0  0  0  0  0  0  0  0  0  0  0  0
   -3.5756   -2.8273    2.5565 C   0  0  0  0  0  0  0  0  0  0  0  0
   -4.4900   -3.4324    1.6951 C   0  0  0  0  0  0  0  0  0  0  0  0
   -4.7834   -2.8438    0.4656 C   0  0  0  0  0  0  0  0  0  0  0  0
   -4.1556   -1.6527    0.0954 C   0  0  0  0  0  0  0  0  0  0  0  0
   -0.7562    1.2960   -0.4888 N   0  0  0  0  0  0  0  0  0  0  0  0
   -1.1003    2.6140   -0.0702 C   0  0  0  0  0  0  0  0  0  0  0  0
   -0.1315    3.4878    0.4577 C   0  0  0  0  0  0  0  0  0  0  0  0
   -0.4655    4.7863    0.8522 C   0  0  0  0  0  0  0  0  0  0  0  0
   -1.7775    5.2345    0.7312 C   0  0  0  0  0  0  0  0  0  0  0  0
   -2.7552    4.3839    0.2230 C   0  0  0  0  0  0  0  0  0  0  0  0
   -2.4191    3.0855   -0.1711 C   0  0  0  0  0  0  0  0  0  0  0  0
    0.4141    0.9689   -1.1819 C   0  0  0  0  0  0  0  0  0  0  0  0
    1.2164    1.9197   -1.7661 O   0  0  0  0  0  0  0  0  0  0  0  0
    3.8394   -0.5849   -0.5683 C   0  0  0  0  0  0  0  0  0  0  0  0
    5.6265   -2.7761    1.3692 H   0  0  0  0  0  0  0  0  0  0  0  0
    3.9549   -4.3382    0.4407 H   0  0  0  0  0  0  0  0  0  0  0  0
    2.2136   -3.5345   -1.1110 H   0  0  0  0  0  0  0  0  0  0  0  0
    2.2700   -0.2702   -2.7405 H   0  0  0  0  0  0  0  0  0  0  0  0
    1.4550   -1.8027   -2.6631 H   0  0  0  0  0  0  0  0  0  0  0  0
   -2.2463   -1.1589    2.8599 H   0  0  0  0  0  0  0  0  0  0  0  0
   -3.3532   -3.2777    3.5200 H   0  0  0  0  0  0  0  0  0  0  0  0
   -4.9798   -4.3582    1.9856 H   0  0  0  0  0  0  0  0  0  0  0  0
   -5.5038   -3.3076   -0.2026 H   0  0  0  0  0  0  0  0  0  0  0  0
   -4.3939   -1.1892   -0.8574 H   0  0  0  0  0  0  0  0  0  0  0  0
    0.8952    3.1531    0.5965 H   0  0  0  0  0  0  0  0  0  0  0  0
    0.2971    5.4415    1.2662 H   0  0  0  0  0  0  0  0  0  0  0  0
   -2.0412    6.2417    1.0440 H   0  0  0  0  0  0  0  0  0  0  0  0
   -3.7838    4.7251    0.1375 H   0  0  0  0  0  0  0  0  0  0  0  0
   -3.2038    2.4433   -0.5663 H   0  0  0  0  0  0  0  0  0  0  0  0
    0.6846    2.7332   -1.8225 H   0  0  0  0  0  0  0  0  0  0  0  0
    3.7955    0.4672   -0.8480 H   0  0  0  0  0  0  0  0  0  0  0  0
  1  2  2  0
  2  3  1  0
  2  4  1  0
  4  5  2  0
  5  6  1  0
  6  7  2  0
  7  8  1  0
  8  9  1  0
  9 10  1  0
 10 11  1  0
 11 12  1  0
 12 13  2  3
 13 14  1  0
 14 15  2  0
 15 16  1  0
 16 17  2  0
 17 18  1  0
 18 19  2  0
 12 20  1  0
 20 21  1  0
 21 22  2  0
 22 23  1  0
 23 24  2  0
 24 25  1  0
 25 26  2  0
 20 27  1  0
 27 28  1  0
  8 29  2  0
 29  4  1  0
 27 10  2  0
 19 14  1  0
 26 21  1  0
  5 30  1  0
  6 31  1  0
  7 32  1  0
  9 33  1  0
  9 34  1  0
 15 35  1  0
 16 36  1  0
 17 37  1  0
 18 38  1  0
 19 39  1  0
 22 40  1  0
 23 41  1  0
 24 42  1  0
 25 43  1  0
 26 44  1  0
 28 45  1  0
 29 46  1  0
M  CHG  2   2   1   3  -1
M  END
$$$$
