
     RDKit          3D

 55 57  0  0  0  0  0  0  0  0999 V2000
    7.7917    0.5745    0.3251 C   0  0  0  0  0  0  0  0  0  0  0  0
    6.6072    1.3477    0.1800 O   0  0  0  0  0  0  0  0  0  0  0  0
    5.4189    0.6977    0.3673 C   0  0  0  0  0  0  0  0  0  0  0  0
    4.2858    1.4994    0.2253 C   0  0  0  0  0  0  0  0  0  0  0  0
    3.0044    0.9655    0.3896 C   0  0  0  0  0  0  0  0  0  0  0  0
    2.8306   -0.3925    0.6952 C   0  0  0  0  0  0  0  0  0  0  0  0
    1.4491   -1.0161    0.8881 C   0  0  0  0  0  0  0  0  0  0  0  0
    0.8030   -0.5811    2.5549 S   0  0  0  0  0  0  0  0  0  0  0  0
   -0.2098    0.8407    2.1577 C   0  0  0  0  0  0  0  0  0  0  0  0
    0.1374    2.0437    2.7926 C   0  0  0  0  0  0  0  0  0  0  0  0
   -0.6577    3.1791    2.6520 C   0  0  0  0  0  0  0  0  0  0  0  0
   -1.8211    3.1160    1.8952 C   0  0  0  0  0  0  0  0  0  0  0  0
   -2.1851    1.9209    1.2699 C   0  0  0  0  0  0  0  0  0  0  0  0
   -1.3822    0.7720    1.3720 C   0  0  0  0  0  0  0  0  0  0  0  0
   -1.7867   -0.4284    0.7043 N   0  0  0  0  0  0  0  0  0  0  0  0
   -3.2117   -0.7924    0.7014 C   0  0  0  0  0  0  0  0  0  0  0  0
   -3.8738   -0.5819   -0.6790 C   0  0  0  0  0  0  0  0  0  0  0  0
   -5.3334   -0.8155   -0.6753 N   0  0  0  0  0  0  0  0  0  0  0  0
   -6.0580    0.2751   -0.0199 C   0  0  0  0  0  0  0  0  0  0  0  0
   -5.8148   -0.9667   -2.0522 C   0  0  0  0  0  0  0  0  0  0  0  0
   -0.9029   -1.2892    0.0471 C   0  0  0  0  0  0  0  0  0  0  0  0
   -1.2387   -2.4147   -0.3348 O   0  0  0  0  0  0  0  0  0  0  0  0
    0.4942   -0.7357   -0.2798 C   0  0  0  0  0  0  0  0  0  0  0  0
    1.0075   -1.4127   -1.4522 O   0  0  0  0  0  0  0  0  0  0  0  0
    0.3934   -1.0669   -2.6159 C   0  0  0  0  0  0  0  0  0  0  0  0
    0.9435   -1.8759   -3.7491 C   0  0  0  0  0  0  0  0  0  0  0  0
   -0.4740   -0.2116   -2.7284 O   0  0  0  0  0  0  0  0  0  0  0  0
    3.9778   -1.1892    0.8443 C   0  0  0  0  0  0  0  0  0  0  0  0
    5.2598   -0.6505    0.6796 C   0  0  0  0  0  0  0  0  0  0  0  0
    7.8825    0.1779    1.3418 H   0  0  0  0  0  0  0  0  0  0  0  0
    8.6459    1.2352    0.1483 H   0  0  0  0  0  0  0  0  0  0  0  0
    7.8325   -0.2285   -0.4184 H   0  0  0  0  0  0  0  0  0  0  0  0
    4.4017    2.5543   -0.0125 H   0  0  0  0  0  0  0  0  0  0  0  0
    2.1532    1.6331    0.2814 H   0  0  0  0  0  0  0  0  0  0  0  0
    1.5923   -2.1046    0.9280 H   0  0  0  0  0  0  0  0  0  0  0  0
    1.0270    2.1000    3.4181 H   0  0  0  0  0  0  0  0  0  0  0  0
   -0.3768    4.1051    3.1477 H   0  0  0  0  0  0  0  0  0  0  0  0
   -2.4497    3.9972    1.7896 H   0  0  0  0  0  0  0  0  0  0  0  0
   -3.0932    1.9195    0.6737 H   0  0  0  0  0  0  0  0  0  0  0  0
   -3.2915   -1.8527    0.9747 H   0  0  0  0  0  0  0  0  0  0  0  0
   -3.7266   -0.2402    1.4943 H   0  0  0  0  0  0  0  0  0  0  0  0
   -3.6464    0.4193   -1.0670 H   0  0  0  0  0  0  0  0  0  0  0  0
   -3.4020   -1.2865   -1.3762 H   0  0  0  0  0  0  0  0  0  0  0  0
   -5.8719    1.2427   -0.5001 H   0  0  0  0  0  0  0  0  0  0  0  0
   -5.7866    0.3565    1.0368 H   0  0  0  0  0  0  0  0  0  0  0  0
   -7.1374    0.0852   -0.0411 H   0  0  0  0  0  0  0  0  0  0  0  0
   -5.3312   -1.8213   -2.5384 H   0  0  0  0  0  0  0  0  0  0  0  0
   -6.8911   -1.1720   -2.0640 H   0  0  0  0  0  0  0  0  0  0  0  0
   -5.6265   -0.0717   -2.6564 H   0  0  0  0  0  0  0  0  0  0  0  0
    0.4332    0.3339   -0.5112 H   0  0  0  0  0  0  0  0  0  0  0  0
    0.4257   -1.6039   -4.6733 H   0  0  0  0  0  0  0  0  0  0  0  0
    0.7788   -2.9395   -3.5591 H   0  0  0  0  0  0  0  0  0  0  0  0
    2.0092   -1.6666   -3.8704 H   0  0  0  0  0  0  0  0  0  0  0  0
    3.8851   -2.2450    1.0938 H   0  0  0  0  0  0  0  0  0  0  0  0
    6.1095   -1.3131    0.8052 H   0  0  0  0  0  0  0  0  0  0  0  0
  1  2  1  0
  2  3  1  0
  3  4  2  0
  4  5  1  0
  5  6  2  0
  6  7  1  0
  7  8  1  0
  8  9  1  0
  9 10  2  0
 10 11  1  0
 11 12  2  0
 12 13  1  0
 13 14  2  0
 14 15  1  0
 15 16  1  0
 16 17  1  0
 17 18  1  0
 18 19  1  0
 18 20  1  0
 15 21  1  0
 21 22  2  0
 21 23  1  0
 23 24  1  0
 24 25  1  0
 25 26  1  0
 25 27  2  0
  6 28  1  0
 28 29  2  0
 29  3  1  0
 23  7  1  0
 14  9  1  0
  1 30  1  0
  1 31  1  0
  1 32  1  0
  4 33  1  0
  5 34  1  0
  7 35  1  0
 10 36  1  0
 11 37  1  0
 12 38  1  0
 13 39  1  0
 16 40  1  0
 16 41  1  0
 17 42  1  0
 17 43  1  0
 19 44  1  0
 19 45  1  0
 19 46  1  0
 20 47  1  0
 20 48  1  0
 20 49  1  0
 23 50  1  0
 26 51  1  0
 26 52  1  0
 26 53  1  0
 28 54  1  0
 29 55  1  0
M  END
$$$$
