
     RDKit          3D

 56 59  0  0  0  0  0  0  0  0999 V2000
    2.2738   -1.0005   -4.9937 C   0  0  0  0  0  0  0  0  0  0  0  0
    1.9985   -0.6159   -3.5513 C   0  0  0  0  0  0  0  0  0  0  0  0
    3.1563    0.0600   -3.0474 O   0  0  0  0  0  0  0  0  0  0  0  0
    3.2067    0.0364   -1.6741 C   0  0  0  0  0  0  0  0  0  0  0  0
    2.1812    0.6098   -0.9150 C   0  0  0  0  0  0  0  0  0  0  0  0
    2.2413    0.5792    0.4798 C   0  0  0  0  0  0  0  0  0  0  0  0
    1.1876    1.1769    1.3042 C   0  0  0  0  0  0  0  0  0  0  0  0
   -0.1024    0.8101    1.3605 C   0  0  0  0  0  0  0  0  0  0  0  0
   -1.2244    1.6227    2.3764 S   0  0  0  0  0  0  0  0  0  0  0  0
   -2.5835    0.6744    1.7994 C   0  0  0  0  0  0  0  0  0  0  0  0
   -3.8226    0.8892    2.1115 N   0  0  0  0  0  0  0  0  0  0  0  0
   -4.1818    1.9148    2.9938 C   0  0  0  0  0  0  0  0  0  0  0  0
   -4.5163    3.1809    2.5054 C   0  0  0  0  0  0  0  0  0  0  0  0
   -4.8975    4.1979    3.3828 C   0  0  0  0  0  0  0  0  0  0  0  0
   -4.9588    3.9488    4.7533 C   0  0  0  0  0  0  0  0  0  0  0  0
   -4.6482    2.6818    5.2456 C   0  0  0  0  0  0  0  0  0  0  0  0
   -4.2685    1.6662    4.3660 C   0  0  0  0  0  0  0  0  0  0  0  0
   -2.1529   -0.3116    0.9218 N   0  0  0  0  0  0  0  0  0  0  0  0
   -3.0367   -1.2907    0.3383 C   0  0  0  0  0  0  0  0  0  0  0  0
   -4.2061   -1.7146    0.9936 C   0  0  0  0  0  0  0  0  0  0  0  0
   -5.0640   -2.6647    0.4261 C   0  0  0  0  0  0  0  0  0  0  0  0
   -4.7689   -3.2207   -0.8121 C   0  0  0  0  0  0  0  0  0  0  0  0
   -3.6138   -2.8308   -1.4771 C   0  0  0  0  0  0  0  0  0  0  0  0
   -2.7580   -1.8797   -0.9067 C   0  0  0  0  0  0  0  0  0  0  0  0
   -0.7868   -0.3046    0.6358 C   0  0  0  0  0  0  0  0  0  0  0  0
   -0.1682   -1.0964   -0.0646 O   0  0  0  0  0  0  0  0  0  0  0  0
    3.3601    0.0148    1.1004 C   0  0  0  0  0  0  0  0  0  0  0  0
    4.4019   -0.5309    0.3391 C   0  0  0  0  0  0  0  0  0  0  0  0
    4.3377   -0.5214   -1.0564 C   0  0  0  0  0  0  0  0  0  0  0  0
    5.2896   -1.0311   -1.8994 O   0  0  0  0  0  0  0  0  0  0  0  0
    6.4739   -1.5724   -1.3432 C   0  0  0  0  0  0  0  0  0  0  0  0
    7.4665   -0.5516   -0.8145 C   0  0  0  0  0  0  0  0  0  0  0  0
    7.9631   -0.5488    0.3022 O   0  0  0  0  0  0  0  0  0  0  0  0
    7.8012    0.3940   -1.7148 O   0  0  0  0  0  0  0  0  0  0  0  0
    1.4083   -1.5024   -5.4350 H   0  0  0  0  0  0  0  0  0  0  0  0
    2.5176   -0.1153   -5.5922 H   0  0  0  0  0  0  0  0  0  0  0  0
    3.1376   -1.6732   -5.0530 H   0  0  0  0  0  0  0  0  0  0  0  0
    1.1331    0.0564   -3.5151 H   0  0  0  0  0  0  0  0  0  0  0  0
    1.7797   -1.5232   -2.9717 H   0  0  0  0  0  0  0  0  0  0  0  0
    1.3390    1.0780   -1.4154 H   0  0  0  0  0  0  0  0  0  0  0  0
    1.5404    1.9985    1.9266 H   0  0  0  0  0  0  0  0  0  0  0  0
   -4.4820    3.3731    1.4366 H   0  0  0  0  0  0  0  0  0  0  0  0
   -5.1514    5.1814    2.9958 H   0  0  0  0  0  0  0  0  0  0  0  0
   -5.2573    4.7396    5.4367 H   0  0  0  0  0  0  0  0  0  0  0  0
   -4.7067    2.4817    6.3116 H   0  0  0  0  0  0  0  0  0  0  0  0
   -4.0406    0.6764    4.7511 H   0  0  0  0  0  0  0  0  0  0  0  0
   -4.4700   -1.3466    1.9816 H   0  0  0  0  0  0  0  0  0  0  0  0
   -5.9607   -2.9674    0.9600 H   0  0  0  0  0  0  0  0  0  0  0  0
   -5.4345   -3.9570   -1.2543 H   0  0  0  0  0  0  0  0  0  0  0  0
   -3.3758   -3.2576   -2.4490 H   0  0  0  0  0  0  0  0  0  0  0  0
   -1.8838   -1.5977   -1.4859 H   0  0  0  0  0  0  0  0  0  0  0  0
    3.4349   -0.0092    2.1859 H   0  0  0  0  0  0  0  0  0  0  0  0
    5.2421   -0.9558    0.8786 H   0  0  0  0  0  0  0  0  0  0  0  0
    6.2496   -2.3159   -0.5693 H   0  0  0  0  0  0  0  0  0  0  0  0
    6.9882   -2.1241   -2.1392 H   0  0  0  0  0  0  0  0  0  0  0  0
    8.4123    0.9893   -1.2347 H   0  0  0  0  0  0  0  0  0  0  0  0
  1  2  1  0
  2  3  1  0
  3  4  1  0
  4  5  2  0
  5  6  1  0
  6  7  1  0
  7  8  2  3
  8  9  1  0
  9 10  1  0
 10 11  2  3
 11 12  1  0
 12 13  2  0
 13 14  1  0
 14 15  2  0
 15 16  1  0
 16 17  2  0
 10 18  1  0
 18 19  1  0
 19 20  2  0
 20 21  1  0
 21 22  2  0
 22 23  1  0
 23 24  2  0
 18 25  1  0
 25 26  2  0
  6 27  2  0
 27 28  1  0
 28 29  2  0
 29 30  1  0
 30 31  1  0
 31 32  1  0
 32 33  2  0
 32 34  1  0
 29  4  1  0
 25  8  1  0
 17 12  1  0
 24 19  1  0
  1 35  1  0
  1 36  1  0
  1 37  1  0
  2 38  1  0
  2 39  1  0
  5 40  1  0
  7 41  1  0
 13 42  1  0
 14 43  1  0
 15 44  1  0
 16 45  1  0
 17 46  1  0
 20 47  1  0
 21 48  1  0
 22 49  1  0
 23 50  1  0
 24 51  1  0
 27 52  1  0
 28 53  1  0
 31 54  1  0
 31 55  1  0
 34 56  1  0
M  END
$$$$
