
     RDKit          3D

 51 54  0  0  0  0  0  0  0  0999 V2000
   -5.4060   -2.9814   -3.2745 C   0  0  0  0  0  0  0  0  0  0  0  0
   -5.3413   -2.6793   -1.8862 O   0  0  0  0  0  0  0  0  0  0  0  0
   -4.3750   -1.7971   -1.4886 C   0  0  0  0  0  0  0  0  0  0  0  0
   -4.3867   -1.5001   -0.1209 C   0  0  0  0  0  0  0  0  0  0  0  0
   -3.4540   -0.6166    0.4249 C   0  0  0  0  0  0  0  0  0  0  0  0
   -2.4882   -0.0445   -0.4041 C   0  0  0  0  0  0  0  0  0  0  0  0
   -1.5035    0.9139    0.1464 C   0  0  0  0  0  0  0  0  0  0  0  0
   -1.6334    2.1532   -0.2079 N   0  0  0  0  0  0  0  0  0  0  0  0
   -0.7335    3.0956    0.2964 C   0  0  0  0  0  0  0  0  0  0  0  0
   -0.8565    4.4280   -0.1059 C   0  0  0  0  0  0  0  0  0  0  0  0
    0.0190    5.4036    0.3795 C   0  0  0  0  0  0  0  0  0  0  0  0
    1.0279    5.0522    1.2754 C   0  0  0  0  0  0  0  0  0  0  0  0
    1.1592    3.7258    1.6845 C   0  0  0  0  0  0  0  0  0  0  0  0
    0.2754    2.7575    1.1912 C   0  0  0  0  0  0  0  0  0  0  0  0
    0.3889    1.3472    1.5955 C   0  0  0  0  0  0  0  0  0  0  0  0
    1.2344    1.0353    2.4313 O   0  0  0  0  0  0  0  0  0  0  0  0
   -0.5053    0.4521    1.0029 N   0  0  0  0  0  0  0  0  0  0  0  0
   -0.2520   -0.9773    1.2576 C   0  0  0  0  0  0  0  0  0  0  0  0
    0.5042   -1.6600    0.1075 C   0  0  0  0  0  0  0  0  0  0  0  0
    1.7522   -1.0301   -0.1744 O   0  0  0  0  0  0  0  0  0  0  0  0
    2.8679   -1.3797    0.5365 C   0  0  0  0  0  0  0  0  0  0  0  0
    2.9230   -2.3649    1.5259 C   0  0  0  0  0  0  0  0  0  0  0  0
    4.1250   -2.6421    2.1835 C   0  0  0  0  0  0  0  0  0  0  0  0
    5.2798   -1.9369    1.8598 C   0  0  0  0  0  0  0  0  0  0  0  0
    5.2352   -0.9488    0.8791 C   0  0  0  0  0  0  0  0  0  0  0  0
    4.0349   -0.6622    0.2113 C   0  0  0  0  0  0  0  0  0  0  0  0
    4.0034    0.4226   -0.8303 C   0  0  0  0  0  0  0  0  0  0  0  0
   -2.4856   -0.3088   -1.7758 C   0  0  0  0  0  0  0  0  0  0  0  0
   -3.4241   -1.1939   -2.3155 C   0  0  0  0  0  0  0  0  0  0  0  0
   -6.2329   -3.6820   -3.4259 H   0  0  0  0  0  0  0  0  0  0  0  0
   -4.4878   -3.4716   -3.6144 H   0  0  0  0  0  0  0  0  0  0  0  0
   -5.6177   -2.0838   -3.8649 H   0  0  0  0  0  0  0  0  0  0  0  0
   -5.1392   -1.9539    0.5203 H   0  0  0  0  0  0  0  0  0  0  0  0
   -3.4913   -0.3733    1.4833 H   0  0  0  0  0  0  0  0  0  0  0  0
   -1.6438    4.7038   -0.8028 H   0  0  0  0  0  0  0  0  0  0  0  0
   -0.0891    6.4362    0.0574 H   0  0  0  0  0  0  0  0  0  0  0  0
    1.7105    5.8088    1.6541 H   0  0  0  0  0  0  0  0  0  0  0  0
    1.9459    3.4455    2.3812 H   0  0  0  0  0  0  0  0  0  0  0  0
   -1.1989   -1.4967    1.4210 H   0  0  0  0  0  0  0  0  0  0  0  0
    0.3188   -1.0867    2.1852 H   0  0  0  0  0  0  0  0  0  0  0  0
    0.6147   -2.7362    0.2791 H   0  0  0  0  0  0  0  0  0  0  0  0
   -0.0812   -1.5790   -0.8133 H   0  0  0  0  0  0  0  0  0  0  0  0
    2.0513   -2.9354    1.8225 H   0  0  0  0  0  0  0  0  0  0  0  0
    4.1564   -3.4072    2.9547 H   0  0  0  0  0  0  0  0  0  0  0  0
    6.2121   -2.1500    2.3755 H   0  0  0  0  0  0  0  0  0  0  0  0
    6.1417   -0.3972    0.6411 H   0  0  0  0  0  0  0  0  0  0  0  0
    3.6676    0.0182   -1.7908 H   0  0  0  0  0  0  0  0  0  0  0  0
    3.3295    1.2271   -0.5177 H   0  0  0  0  0  0  0  0  0  0  0  0
    4.9954    0.8600   -0.9855 H   0  0  0  0  0  0  0  0  0  0  0  0
   -1.7571    0.1740   -2.4234 H   0  0  0  0  0  0  0  0  0  0  0  0
   -3.3902   -1.3837   -3.3833 H   0  0  0  0  0  0  0  0  0  0  0  0
  1  2  1  0
  2  3  1  0
  3  4  2  0
  4  5  1  0
  5  6  2  0
  6  7  1  0
  7  8  2  0
  8  9  1  0
  9 10  2  0
 10 11  1  0
 11 12  2  0
 12 13  1  0
 13 14  2  0
 14 15  1  0
 15 16  2  0
 15 17  1  0
 17 18  1  0
 18 19  1  0
 19 20  1  0
 20 21  1  0
 21 22  2  0
 22 23  1  0
 23 24  2  0
 24 25  1  0
 25 26  2  0
 26 27  1  0
  6 28  1  0
 28 29  2  0
 29  3  1  0
 17  7  1  0
 26 21  1  0
 14  9  1  0
  1 30  1  0
  1 31  1  0
  1 32  1  0
  4 33  1  0
  5 34  1  0
 10 35  1  0
 11 36  1  0
 12 37  1  0
 13 38  1  0
 18 39  1  0
 18 40  1  0
 19 41  1  0
 19 42  1  0
 22 43  1  0
 23 44  1  0
 24 45  1  0
 25 46  1  0
 27 47  1  0
 27 48  1  0
 27 49  1  0
 28 50  1  0
 29 51  1  0
M  END
$$$$
