
     RDKit          3D

 53 55  0  0  0  0  0  0  0  0999 V2000
    5.9939   -3.6183    2.7693 C   0  0  0  0  0  0  0  0  0  0  0  0
    6.1197   -2.3279    2.1851 O   0  0  0  0  0  0  0  0  0  0  0  0
    5.1839   -1.9754    1.2498 C   0  0  0  0  0  0  0  0  0  0  0  0
    5.3991   -0.7342    0.6512 C   0  0  0  0  0  0  0  0  0  0  0  0
    4.5194   -0.2496   -0.3200 C   0  0  0  0  0  0  0  0  0  0  0  0
    3.4017   -1.0022   -0.7087 C   0  0  0  0  0  0  0  0  0  0  0  0
    2.5053   -0.5292   -1.6826 C   0  0  0  0  0  0  0  0  0  0  0  0
    1.3814   -1.2814   -2.0662 C   0  0  0  0  0  0  0  0  0  0  0  0
    0.4088   -0.7581   -3.1140 C   0  0  0  0  0  0  0  0  0  0  0  0
    1.0565   -0.7593   -4.5008 C   0  0  0  0  0  0  0  0  0  0  0  0
   -0.1475    0.6299   -2.7473 C   0  0  0  0  0  0  0  0  0  0  0  0
    0.0107    1.6056   -3.4756 O   0  0  0  0  0  0  0  0  0  0  0  0
   -0.8478    0.6144   -1.5475 N   0  0  0  0  0  0  0  0  0  0  0  0
   -1.4865    1.6943   -0.9054 C   0  0  0  0  0  0  0  0  0  0  0  0
   -1.4851    3.0068   -1.3860 C   0  0  0  0  0  0  0  0  0  0  0  0
   -2.1307    4.0299   -0.6784 C   0  0  0  0  0  0  0  0  0  0  0  0
   -2.7980    3.7494    0.5114 C   0  0  0  0  0  0  0  0  0  0  0  0
   -2.8209    2.4353    0.9789 C   0  0  0  0  0  0  0  0  0  0  0  0
   -3.6859    2.0284    2.4757 S   0  0  0  0  0  6  0  0  0  0  0  0
   -2.8505    1.1028    3.2155 O   0  0  0  0  0  0  0  0  0  0  0  0
   -4.1706    3.2516    3.0799 O   0  0  0  0  0  0  0  0  0  0  0  0
   -5.0486    1.1681    1.8897 N   0  0  0  0  0  0  0  0  0  0  0  0
   -6.0090    1.9768    1.1051 C   0  0  0  0  0  0  0  0  0  0  0  0
   -5.7322    0.3845    2.9438 C   0  0  0  0  0  0  0  0  0  0  0  0
   -2.1571    1.4136    0.2891 C   0  0  0  0  0  0  0  0  0  0  0  0
    1.1669   -2.5290   -1.4665 C   0  0  0  0  0  0  0  0  0  0  0  0
    2.0524   -3.0100   -0.4971 C   0  0  0  0  0  0  0  0  0  0  0  0
    3.1739   -2.2589   -0.1057 C   0  0  0  0  0  0  0  0  0  0  0  0
    4.0719   -2.7321    0.8719 C   0  0  0  0  0  0  0  0  0  0  0  0
    6.0492   -4.4035    2.0086 H   0  0  0  0  0  0  0  0  0  0  0  0
    5.0725   -3.6970    3.3554 H   0  0  0  0  0  0  0  0  0  0  0  0
    6.8365   -3.7603    3.4532 H   0  0  0  0  0  0  0  0  0  0  0  0
    6.2608   -0.1367    0.9440 H   0  0  0  0  0  0  0  0  0  0  0  0
    4.7162    0.7227   -0.7674 H   0  0  0  0  0  0  0  0  0  0  0  0
    2.6857    0.4428   -2.1440 H   0  0  0  0  0  0  0  0  0  0  0  0
   -0.4624   -1.4266   -3.1633 H   0  0  0  0  0  0  0  0  0  0  0  0
    0.3397   -0.4332   -5.2639 H   0  0  0  0  0  0  0  0  0  0  0  0
    1.4035   -1.7628   -4.7717 H   0  0  0  0  0  0  0  0  0  0  0  0
    1.9188   -0.0834   -4.5499 H   0  0  0  0  0  0  0  0  0  0  0  0
   -0.8574   -0.2664   -1.0465 H   0  0  0  0  0  0  0  0  0  0  0  0
   -0.9769    3.2750   -2.3077 H   0  0  0  0  0  0  0  0  0  0  0  0
   -2.1046    5.0476   -1.0631 H   0  0  0  0  0  0  0  0  0  0  0  0
   -3.2956    4.5486    1.0566 H   0  0  0  0  0  0  0  0  0  0  0  0
   -6.5355    2.6916    1.7426 H   0  0  0  0  0  0  0  0  0  0  0  0
   -6.7500    1.3165    0.6410 H   0  0  0  0  0  0  0  0  0  0  0  0
   -5.5088    2.5086    0.2928 H   0  0  0  0  0  0  0  0  0  0  0  0
   -6.0790    1.0294    3.7550 H   0  0  0  0  0  0  0  0  0  0  0  0
   -5.0595   -0.3784    3.3431 H   0  0  0  0  0  0  0  0  0  0  0  0
   -6.5972   -0.1387    2.5225 H   0  0  0  0  0  0  0  0  0  0  0  0
   -2.1808    0.4027    0.6912 H   0  0  0  0  0  0  0  0  0  0  0  0
    0.3124   -3.1438   -1.7469 H   0  0  0  0  0  0  0  0  0  0  0  0
    1.8594   -3.9836   -0.0486 H   0  0  0  0  0  0  0  0  0  0  0  0
    3.8783   -3.6968    1.3288 H   0  0  0  0  0  0  0  0  0  0  0  0
  1  2  1  0
  2  3  1  0
  3  4  2  0
  4  5  1  0
  5  6  2  0
  6  7  1  0
  7  8  2  0
  8  9  1  0
  9 10  1  0
  9 11  1  0
 11 12  2  0
 11 13  1  0
 13 14  1  0
 14 15  2  0
 15 16  1  0
 16 17  2  0
 17 18  1  0
 18 19  1  0
 19 20  2  0
 19 21  2  0
 19 22  1  0
 22 23  1  0
 22 24  1  0
 18 25  2  0
  8 26  1  0
 26 27  2  0
 27 28  1  0
 28 29  2  0
 29  3  1  0
 28  6  1  0
 25 14  1  0
  1 30  1  0
  1 31  1  0
  1 32  1  0
  4 33  1  0
  5 34  1  0
  7 35  1  0
  9 36  1  0
 10 37  1  0
 10 38  1  0
 10 39  1  0
 13 40  1  0
 15 41  1  0
 16 42  1  0
 17 43  1  0
 23 44  1  0
 23 45  1  0
 23 46  1  0
 24 47  1  0
 24 48  1  0
 24 49  1  0
 25 50  1  0
 26 51  1  0
 27 52  1  0
 29 53  1  0
M  END
$$$$
