
     RDKit          3D

 45 47  0  0  0  0  0  0  0  0999 V2000
   -3.7062   -2.6206    1.7885 C   0  0  0  0  0  0  0  0  0  0  0  0
   -4.3472   -0.9939    2.2534 S   0  0  0  0  0  0  0  0  0  0  0  0
   -4.5589   -0.3109    0.6108 C   0  0  0  0  0  0  0  0  0  0  0  0
   -5.7884   -0.4983   -0.0343 C   0  0  0  0  0  0  0  0  0  0  0  0
   -6.0041    0.0273   -1.3095 C   0  0  0  0  0  0  0  0  0  0  0  0
   -5.0033    0.7672   -1.9364 C   0  0  0  0  0  0  0  0  0  0  0  0
   -3.7758    0.9628   -1.3005 C   0  0  0  0  0  0  0  0  0  0  0  0
   -3.5374    0.4049   -0.0393 C   0  0  0  0  0  0  0  0  0  0  0  0
   -2.3580    0.5939    0.6343 O   0  0  0  0  0  0  0  0  0  0  0  0
   -1.1539    0.4706   -0.1415 C   0  0  0  0  0  0  0  0  0  0  0  0
   -0.2374   -0.4849    0.6220 C   0  0  0  0  0  0  0  0  0  0  0  0
    1.2030   -0.3966    0.1285 C   0  0  0  0  0  0  0  0  0  0  0  0
    1.7432    0.9708    0.0760 N   0  0  0  0  0  0  0  0  0  0  0  0
    3.0008    1.1110    0.8293 C   0  0  0  0  0  0  0  0  0  0  0  0
    4.1514    0.3255    0.2319 C   0  0  0  0  0  0  0  0  0  0  0  0
    4.8659   -0.5986    1.0075 C   0  0  0  0  0  0  0  0  0  0  0  0
    5.9366   -1.3082    0.4589 C   0  0  0  0  0  0  0  0  0  0  0  0
    6.3060   -1.0990   -0.8686 C   0  0  0  0  0  0  0  0  0  0  0  0
    5.6069   -0.1790   -1.6489 C   0  0  0  0  0  0  0  0  0  0  0  0
    4.5374    0.5307   -1.1011 C   0  0  0  0  0  0  0  0  0  0  0  0
    0.7780    2.0014    0.4730 C   0  0  0  0  0  0  0  0  0  0  0  0
   -0.5208    1.8560   -0.3175 C   0  0  0  0  0  0  0  0  0  0  0  0
   -2.8653   -2.5308    1.0945 H   0  0  0  0  0  0  0  0  0  0  0  0
   -4.4990   -3.2140    1.3256 H   0  0  0  0  0  0  0  0  0  0  0  0
   -3.3638   -3.1420    2.6868 H   0  0  0  0  0  0  0  0  0  0  0  0
   -6.5856   -1.0569    0.4522 H   0  0  0  0  0  0  0  0  0  0  0  0
   -6.9588   -0.1251   -1.8053 H   0  0  0  0  0  0  0  0  0  0  0  0
   -5.1839    1.2074   -2.9158 H   0  0  0  0  0  0  0  0  0  0  0  0
   -3.0245    1.5718   -1.7941 H   0  0  0  0  0  0  0  0  0  0  0  0
   -1.3515    0.0265   -1.1274 H   0  0  0  0  0  0  0  0  0  0  0  0
   -0.6084   -1.5107    0.5091 H   0  0  0  0  0  0  0  0  0  0  0  0
   -0.2803   -0.2778    1.6999 H   0  0  0  0  0  0  0  0  0  0  0  0
    1.8099   -1.0604    0.7569 H   0  0  0  0  0  0  0  0  0  0  0  0
    1.2545   -0.8083   -0.8873 H   0  0  0  0  0  0  0  0  0  0  0  0
    2.8461    0.8285    1.8796 H   0  0  0  0  0  0  0  0  0  0  0  0
    3.3201    2.1617    0.8390 H   0  0  0  0  0  0  0  0  0  0  0  0
    4.5902   -0.7733    2.0461 H   0  0  0  0  0  0  0  0  0  0  0  0
    6.4838   -2.0213    1.0705 H   0  0  0  0  0  0  0  0  0  0  0  0
    7.1406   -1.6512   -1.2939 H   0  0  0  0  0  0  0  0  0  0  0  0
    5.8926   -0.0132   -2.6845 H   0  0  0  0  0  0  0  0  0  0  0  0
    3.9938    1.2440   -1.7169 H   0  0  0  0  0  0  0  0  0  0  0  0
    1.1941    2.9937    0.2599 H   0  0  0  0  0  0  0  0  0  0  0  0
    0.5734    1.9607    1.5503 H   0  0  0  0  0  0  0  0  0  0  0  0
   -1.2162    2.6518   -0.0240 H   0  0  0  0  0  0  0  0  0  0  0  0
   -0.2995    2.0069   -1.3832 H   0  0  0  0  0  0  0  0  0  0  0  0
  1  2  1  0
  2  3  1  0
  3  4  2  0
  4  5  1  0
  5  6  2  0
  6  7  1  0
  7  8  2  0
  8  9  1  0
  9 10  1  0
 10 11  1  0
 11 12  1  0
 12 13  1  0
 13 14  1  0
 14 15  1  0
 15 16  2  0
 16 17  1  0
 17 18  2  0
 18 19  1  0
 19 20  2  0
 13 21  1  0
 21 22  1  0
  8  3  1  0
 22 10  1  0
 20 15  1  0
  1 23  1  0
  1 24  1  0
  1 25  1  0
  4 26  1  0
  5 27  1  0
  6 28  1  0
  7 29  1  0
 10 30  1  0
 11 31  1  0
 11 32  1  0
 12 33  1  0
 12 34  1  0
 14 35  1  0
 14 36  1  0
 16 37  1  0
 17 38  1  0
 18 39  1  0
 19 40  1  0
 20 41  1  0
 21 42  1  0
 21 43  1  0
 22 44  1  0
 22 45  1  0
M  END
$$$$
