
     RDKit          3D

 59 63  0  0  0  0  0  0  0  0999 V2000
   -5.4166   -2.7383   -1.1758 C   0  0  0  0  0  0  0  0  0  0  0  0
   -4.8681   -1.5587   -0.6055 O   0  0  0  0  0  0  0  0  0  0  0  0
   -4.4341   -1.6243    0.6951 C   0  0  0  0  0  0  0  0  0  0  0  0
   -4.4008   -2.7973    1.4588 C   0  0  0  0  0  0  0  0  0  0  0  0
   -3.9254   -2.7760    2.7734 C   0  0  0  0  0  0  0  0  0  0  0  0
   -3.4762   -1.5861    3.3381 C   0  0  0  0  0  0  0  0  0  0  0  0
   -3.5029   -0.4116    2.5886 C   0  0  0  0  0  0  0  0  0  0  0  0
   -3.9823   -0.4175    1.2684 C   0  0  0  0  0  0  0  0  0  0  0  0
   -3.9815    0.8435    0.5151 C   0  0  0  0  0  0  0  0  0  0  0  0
   -5.4139    1.7757    0.4933 S   0  0  0  0  0  0  0  0  0  0  0  0
   -4.7020    3.0060   -0.4728 C   0  0  0  0  0  0  0  0  0  0  0  0
   -5.3241    4.1847   -0.9314 C   0  0  0  0  0  0  0  0  0  0  0  0
   -4.5909    5.0798   -1.7129 C   0  0  0  0  0  0  0  0  0  0  0  0
   -3.2688    4.8125   -2.0352 C   0  0  0  0  0  0  0  0  0  0  0  0
   -2.6560    3.6422   -1.5778 C   0  0  0  0  0  0  0  0  0  0  0  0
   -3.3710    2.7122   -0.7781 C   0  0  0  0  0  0  0  0  0  0  0  0
   -2.9614    1.4535   -0.1957 C   0  0  0  0  0  0  0  0  0  0  0  0
   -1.6371    0.8527   -0.3006 C   0  0  0  0  0  0  0  0  0  0  0  0
   -0.5597    1.4084    0.3970 C   0  0  0  0  0  0  0  0  0  0  0  0
    0.7160    0.8413    0.2968 C   0  0  0  0  0  0  0  0  0  0  0  0
    0.9226   -0.2828   -0.5042 C   0  0  0  0  0  0  0  0  0  0  0  0
    2.1123   -0.9317   -0.6891 O   0  0  0  0  0  0  0  0  0  0  0  0
    3.2557   -0.4001   -0.0117 C   0  0  0  0  0  0  0  0  0  0  0  0
    4.4631   -1.2889   -0.3554 C   0  0  0  0  0  0  0  0  0  0  0  0
    5.7039   -0.8951    0.3363 N   0  0  0  0  0  0  0  0  0  0  0  0
    6.2971    0.3529   -0.1965 C   0  0  0  0  0  0  0  0  0  0  0  0
    6.9691    0.1979   -1.5727 C   0  0  0  0  0  0  0  0  0  0  0  0
    7.9590   -0.8374   -1.5577 O   0  0  0  0  0  0  0  0  0  0  0  0
    7.3844   -2.0825   -1.1428 C   0  0  0  0  0  0  0  0  0  0  0  0
    6.7301   -1.9604    0.2439 C   0  0  0  0  0  0  0  0  0  0  0  0
   -0.1557   -0.8334   -1.2023 C   0  0  0  0  0  0  0  0  0  0  0  0
   -1.4301   -0.2701   -1.1055 C   0  0  0  0  0  0  0  0  0  0  0  0
   -4.6585   -3.5238   -1.2594 H   0  0  0  0  0  0  0  0  0  0  0  0
   -6.2875   -3.0852   -0.6099 H   0  0  0  0  0  0  0  0  0  0  0  0
   -5.7539   -2.4942   -2.1877 H   0  0  0  0  0  0  0  0  0  0  0  0
   -4.7325   -3.7494    1.0589 H   0  0  0  0  0  0  0  0  0  0  0  0
   -3.9028   -3.6940    3.3557 H   0  0  0  0  0  0  0  0  0  0  0  0
   -3.1033   -1.5717    4.3588 H   0  0  0  0  0  0  0  0  0  0  0  0
   -3.1472    0.5143    3.0350 H   0  0  0  0  0  0  0  0  0  0  0  0
   -6.3606    4.3939   -0.6824 H   0  0  0  0  0  0  0  0  0  0  0  0
   -5.0635    5.9907   -2.0724 H   0  0  0  0  0  0  0  0  0  0  0  0
   -2.7053    5.5118   -2.6478 H   0  0  0  0  0  0  0  0  0  0  0  0
   -1.6206    3.4421   -1.8436 H   0  0  0  0  0  0  0  0  0  0  0  0
   -0.7077    2.2825    1.0271 H   0  0  0  0  0  0  0  0  0  0  0  0
    1.5214    1.3008    0.8596 H   0  0  0  0  0  0  0  0  0  0  0  0
    3.4317    0.6263   -0.3506 H   0  0  0  0  0  0  0  0  0  0  0  0
    3.0909   -0.4176    1.0726 H   0  0  0  0  0  0  0  0  0  0  0  0
    4.5869   -1.3312   -1.4442 H   0  0  0  0  0  0  0  0  0  0  0  0
    4.1923   -2.3111   -0.0571 H   0  0  0  0  0  0  0  0  0  0  0  0
    5.5614    1.1626   -0.2272 H   0  0  0  0  0  0  0  0  0  0  0  0
    7.0625    0.6757    0.5217 H   0  0  0  0  0  0  0  0  0  0  0  0
    7.4761    1.1309   -1.8393 H   0  0  0  0  0  0  0  0  0  0  0  0
    6.2380   -0.0133   -2.3609 H   0  0  0  0  0  0  0  0  0  0  0  0
    6.6689   -2.4205   -1.9009 H   0  0  0  0  0  0  0  0  0  0  0  0
    8.1931   -2.8194   -1.1033 H   0  0  0  0  0  0  0  0  0  0  0  0
    7.5130   -1.7220    0.9757 H   0  0  0  0  0  0  0  0  0  0  0  0
    6.3128   -2.9264    0.5518 H   0  0  0  0  0  0  0  0  0  0  0  0
   -0.0038   -1.7099   -1.8269 H   0  0  0  0  0  0  0  0  0  0  0  0
   -2.2566   -0.7130   -1.6565 H   0  0  0  0  0  0  0  0  0  0  0  0
  1  2  1  0
  2  3  1  0
  3  4  2  0
  4  5  1  0
  5  6  2  0
  6  7  1  0
  7  8  2  0
  8  9  1  0
  9 10  1  0
 10 11  1  0
 11 12  2  0
 12 13  1  0
 13 14  2  0
 14 15  1  0
 15 16  2  0
 16 17  1  0
 17 18  1  0
 18 19  2  0
 19 20  1  0
 20 21  2  0
 21 22  1  0
 22 23  1  0
 23 24  1  0
 24 25  1  0
 25 26  1  0
 26 27  1  0
 27 28  1  0
 28 29  1  0
 29 30  1  0
 21 31  1  0
 31 32  2  0
  8  3  1  0
 17  9  2  0
 32 18  1  0
 16 11  1  0
 30 25  1  0
  1 33  1  0
  1 34  1  0
  1 35  1  0
  4 36  1  0
  5 37  1  0
  6 38  1  0
  7 39  1  0
 12 40  1  0
 13 41  1  0
 14 42  1  0
 15 43  1  0
 19 44  1  0
 20 45  1  0
 23 46  1  0
 23 47  1  0
 24 48  1  0
 24 49  1  0
 26 50  1  0
 26 51  1  0
 27 52  1  0
 27 53  1  0
 29 54  1  0
 29 55  1  0
 30 56  1  0
 30 57  1  0
 31 58  1  0
 32 59  1  0
M  END
$$$$
