
     RDKit          3D

 35 37  0  0  0  0  0  0  0  0999 V2000
   -3.7068   -2.1589   -1.9379 C   0  0  0  0  0  0  0  0  0  0  0  0
   -3.0787   -0.9596   -1.5068 O   0  0  0  0  0  0  0  0  0  0  0  0
   -3.9292   -0.1902   -0.6559 C   0  0  0  0  0  0  0  0  0  0  0  0
   -3.2159    1.0998   -0.2257 C   0  0  0  0  0  0  0  0  0  0  0  0
   -2.0054    0.8338    0.5715 N   0  0  0  0  0  0  0  0  0  0  0  0
   -2.0901    0.5593    1.9503 C   0  0  0  0  0  0  0  0  0  0  0  0
   -3.4822    0.5749    2.8941 S   0  0  0  0  0  0  0  0  0  0  0  0
   -0.9238    0.2502    2.6067 N   0  0  0  0  0  0  0  0  0  0  0  0
    0.2474    0.2085    1.9212 C   0  0  0  0  0  0  0  0  0  0  0  0
    1.6639   -0.1868    2.7287 S   0  0  0  0  0  0  0  0  0  0  0  0
    2.5543   -0.0105    1.2803 C   0  0  0  0  0  0  0  0  0  0  0  0
    1.7549    0.3357    0.1990 C   0  0  0  0  0  0  0  0  0  0  0  0
    0.3836    0.4739    0.5937 C   0  0  0  0  0  0  0  0  0  0  0  0
   -0.7949    0.8421   -0.1676 C   0  0  0  0  0  0  0  0  0  0  0  0
   -0.7066    1.1689   -1.3485 O   0  0  0  0  0  0  0  0  0  0  0  0
    2.3257    0.5528   -1.1721 C   0  0  0  0  0  0  0  0  0  0  0  0
    3.7484   -0.0170   -1.2958 C   0  0  0  0  0  0  0  0  0  0  0  0
    4.6138    0.3348   -0.0772 C   0  0  0  0  0  0  0  0  0  0  0  0
    4.0315   -0.2457    1.2210 C   0  0  0  0  0  0  0  0  0  0  0  0
   -3.0103   -2.6992   -2.5846 H   0  0  0  0  0  0  0  0  0  0  0  0
   -4.6120   -1.9333   -2.5098 H   0  0  0  0  0  0  0  0  0  0  0  0
   -3.9507   -2.7930   -1.0802 H   0  0  0  0  0  0  0  0  0  0  0  0
   -4.8412    0.0730   -1.2042 H   0  0  0  0  0  0  0  0  0  0  0  0
   -4.2074   -0.7959    0.2123 H   0  0  0  0  0  0  0  0  0  0  0  0
   -2.9510    1.6736   -1.1208 H   0  0  0  0  0  0  0  0  0  0  0  0
   -3.9038    1.7274    0.3496 H   0  0  0  0  0  0  0  0  0  0  0  0
   -0.9394    0.0418    3.5976 H   0  0  0  0  0  0  0  0  0  0  0  0
    2.3478    1.6310   -1.3731 H   0  0  0  0  0  0  0  0  0  0  0  0
    1.6877    0.0876   -1.9316 H   0  0  0  0  0  0  0  0  0  0  0  0
    4.2158    0.3653   -2.2103 H   0  0  0  0  0  0  0  0  0  0  0  0
    3.6980   -1.1091   -1.3948 H   0  0  0  0  0  0  0  0  0  0  0  0
    5.6328   -0.0420   -0.2202 H   0  0  0  0  0  0  0  0  0  0  0  0
    4.6850    1.4269    0.0078 H   0  0  0  0  0  0  0  0  0  0  0  0
    4.2205   -1.3258    1.2527 H   0  0  0  0  0  0  0  0  0  0  0  0
    4.5381    0.2059    2.0813 H   0  0  0  0  0  0  0  0  0  0  0  0
  1  2  1  0
  2  3  1  0
  3  4  1  0
  4  5  1  0
  5  6  1  0
  6  7  2  0
  6  8  1  0
  8  9  1  0
  9 10  1  0
 10 11  1  0
 11 12  2  0
 12 13  1  0
 13 14  1  0
 14 15  2  0
 12 16  1  0
 16 17  1  0
 17 18  1  0
 18 19  1  0
 14  5  1  0
 13  9  2  0
 19 11  1  0
  1 20  1  0
  1 21  1  0
  1 22  1  0
  3 23  1  0
  3 24  1  0
  4 25  1  0
  4 26  1  0
  8 27  1  0
 16 28  1  0
 16 29  1  0
 17 30  1  0
 17 31  1  0
 18 32  1  0
 18 33  1  0
 19 34  1  0
 19 35  1  0
M  END
$$$$
