
     RDKit          3D

 68 71  0  0  0  0  0  0  0  0999 V2000
    4.9901    3.5125   -2.6116 C   0  0  0  0  0  0  0  0  0  0  0  0
    3.6582    4.1736   -1.5784 S   0  0  0  0  0  0  0  0  0  0  0  0
    3.5406    2.8278   -0.3505 C   0  0  0  0  0  0  0  0  0  0  0  0
    2.8170    1.6118   -0.9248 C   0  0  0  0  0  0  0  0  0  0  0  0
    2.6177    0.5108    0.1251 C   0  0  0  0  0  0  0  0  0  0  0  0
    3.8880   -0.1431    0.4364 N   0  0  0  0  0  0  0  0  0  0  0  0
    4.6464    0.1736    1.5334 C   0  0  0  0  0  0  0  0  0  0  0  0
    4.3321    1.0402    2.3417 O   0  0  0  0  0  0  0  0  0  0  0  0
    5.8711   -0.6343    1.7488 C   0  0  0  0  0  0  0  0  0  0  0  0
    6.1245   -1.0489    3.0666 C   0  0  0  0  0  0  0  0  0  0  0  0
    7.2484   -1.8214    3.3624 C   0  0  0  0  0  0  0  0  0  0  0  0
    8.1330   -2.1766    2.3469 C   0  0  0  0  0  0  0  0  0  0  0  0
    7.8998   -1.7506    1.0377 C   0  0  0  0  0  0  0  0  0  0  0  0
    6.7744   -0.9748    0.7334 C   0  0  0  0  0  0  0  0  0  0  0  0
    6.6099   -0.4388   -0.9023 Cl  0  0  0  0  0  0  0  0  0  0  0  0
    1.6734   -0.5830   -0.4272 C   0  0  0  0  0  0  0  0  0  0  0  0
    2.1451   -1.6480   -0.8457 O   0  0  0  0  0  0  0  0  0  0  0  0
    0.3136   -0.3238   -0.4901 N   0  0  0  0  0  0  0  0  0  0  0  0
   -0.3686    0.8332    0.0997 C   0  0  0  0  0  0  0  0  0  0  0  0
   -1.8141    0.4917    0.5108 C   0  0  0  0  0  0  0  0  0  0  0  0
   -2.6703    0.0451   -0.6148 N   0  0  0  0  0  0  0  0  0  0  0  0
   -3.8569   -0.7276   -0.1373 C   0  0  0  0  0  0  0  0  0  0  0  0
   -4.6206   -0.0360    1.0007 C   0  0  0  0  0  0  0  0  0  0  0  0
   -4.8474   -0.7168    2.2094 C   0  0  0  0  0  0  0  0  0  0  0  0
   -5.5444   -0.1040    3.2527 C   0  0  0  0  0  0  0  0  0  0  0  0
   -6.0272    1.1942    3.1025 C   0  0  0  0  0  0  0  0  0  0  0  0
   -5.8153    1.8817    1.9098 C   0  0  0  0  0  0  0  0  0  0  0  0
   -5.1187    1.2714    0.8655 C   0  0  0  0  0  0  0  0  0  0  0  0
   -4.8395   -1.0982   -1.2588 C   0  0  0  0  0  0  0  0  0  0  0  0
   -5.1379   -0.2132   -2.3096 C   0  0  0  0  0  0  0  0  0  0  0  0
   -6.0452   -0.5700   -3.3087 C   0  0  0  0  0  0  0  0  0  0  0  0
   -6.6740   -1.8123   -3.2687 C   0  0  0  0  0  0  0  0  0  0  0  0
   -6.3997   -2.6978   -2.2288 C   0  0  0  0  0  0  0  0  0  0  0  0
   -5.4920   -2.3433   -1.2288 C   0  0  0  0  0  0  0  0  0  0  0  0
   -1.8761   -0.7060   -1.6209 C   0  0  0  0  0  0  0  0  0  0  0  0
   -0.5604   -1.3201   -1.1094 C   0  0  0  0  0  0  0  0  0  0  0  0
    5.2607    4.2585   -3.3641 H   0  0  0  0  0  0  0  0  0  0  0  0
    5.8742    3.2984   -2.0060 H   0  0  0  0  0  0  0  0  0  0  0  0
    4.6672    2.6063   -3.1291 H   0  0  0  0  0  0  0  0  0  0  0  0
    4.5486    2.5804   -0.0059 H   0  0  0  0  0  0  0  0  0  0  0  0
    2.9846    3.2194    0.5077 H   0  0  0  0  0  0  0  0  0  0  0  0
    1.8449    1.9266   -1.3213 H   0  0  0  0  0  0  0  0  0  0  0  0
    3.3768    1.1999   -1.7742 H   0  0  0  0  0  0  0  0  0  0  0  0
    2.2095    0.9133    1.0553 H   0  0  0  0  0  0  0  0  0  0  0  0
    4.1284   -0.9467   -0.1395 H   0  0  0  0  0  0  0  0  0  0  0  0
    5.4393   -0.7702    3.8660 H   0  0  0  0  0  0  0  0  0  0  0  0
    7.4334   -2.1422    4.3852 H   0  0  0  0  0  0  0  0  0  0  0  0
    9.0109   -2.7766    2.5755 H   0  0  0  0  0  0  0  0  0  0  0  0
    8.6086   -2.0204    0.2577 H   0  0  0  0  0  0  0  0  0  0  0  0
   -0.3691    1.6334   -0.6490 H   0  0  0  0  0  0  0  0  0  0  0  0
    0.1766    1.1912    0.9754 H   0  0  0  0  0  0  0  0  0  0  0  0
   -2.2509    1.3853    0.9694 H   0  0  0  0  0  0  0  0  0  0  0  0
   -1.7610   -0.2884    1.2826 H   0  0  0  0  0  0  0  0  0  0  0  0
   -3.4595   -1.6736    0.2608 H   0  0  0  0  0  0  0  0  0  0  0  0
   -4.4832   -1.7322    2.3468 H   0  0  0  0  0  0  0  0  0  0  0  0
   -5.7136   -0.6413    4.1821 H   0  0  0  0  0  0  0  0  0  0  0  0
   -6.5718    1.6694    3.9140 H   0  0  0  0  0  0  0  0  0  0  0  0
   -6.1936    2.8933    1.7898 H   0  0  0  0  0  0  0  0  0  0  0  0
   -4.9575    1.8228   -0.0579 H   0  0  0  0  0  0  0  0  0  0  0  0
   -4.6561    0.7613   -2.3546 H   0  0  0  0  0  0  0  0  0  0  0  0
   -6.2623    0.1245   -4.1159 H   0  0  0  0  0  0  0  0  0  0  0  0
   -7.3827   -2.0878   -4.0451 H   0  0  0  0  0  0  0  0  0  0  0  0
   -6.8972   -3.6635   -2.1932 H   0  0  0  0  0  0  0  0  0  0  0  0
   -5.3002   -3.0444   -0.4198 H   0  0  0  0  0  0  0  0  0  0  0  0
   -2.4537   -1.4942   -2.1150 H   0  0  0  0  0  0  0  0  0  0  0  0
   -1.6251    0.0122   -2.4127 H   0  0  0  0  0  0  0  0  0  0  0  0
   -0.0346   -1.8050   -1.9395 H   0  0  0  0  0  0  0  0  0  0  0  0
   -0.7666   -2.0891   -0.3552 H   0  0  0  0  0  0  0  0  0  0  0  0
  1  2  1  0
  2  3  1  0
  3  4  1  0
  4  5  1  0
  5  6  1  0
  6  7  1  0
  7  8  2  0
  7  9  1  0
  9 10  2  0
 10 11  1  0
 11 12  2  0
 12 13  1  0
 13 14  2  0
 14 15  1  0
  5 16  1  0
 16 17  2  0
 16 18  1  0
 18 19  1  0
 19 20  1  0
 20 21  1  0
 21 22  1  0
 22 23  1  0
 23 24  2  0
 24 25  1  0
 25 26  2  0
 26 27  1  0
 27 28  2  0
 22 29  1  0
 29 30  2  0
 30 31  1  0
 31 32  2  0
 32 33  1  0
 33 34  2  0
 21 35  1  0
 35 36  1  0
 14  9  1  0
 36 18  1  0
 28 23  1  0
 34 29  1  0
  1 37  1  0
  1 38  1  0
  1 39  1  0
  3 40  1  0
  3 41  1  0
  4 42  1  0
  4 43  1  0
  5 44  1  0
  6 45  1  0
 10 46  1  0
 11 47  1  0
 12 48  1  0
 13 49  1  0
 19 50  1  0
 19 51  1  0
 20 52  1  0
 20 53  1  0
 22 54  1  0
 24 55  1  0
 25 56  1  0
 26 57  1  0
 27 58  1  0
 28 59  1  0
 30 60  1  0
 31 61  1  0
 32 62  1  0
 33 63  1  0
 34 64  1  0
 35 65  1  0
 35 66  1  0
 36 67  1  0
 36 68  1  0
M  END
$$$$
