
     RDKit          3D

 41 44  0  0  0  0  0  0  0  0999 V2000
    1.2720    1.6100    0.5393 N   0  0  0  0  0  0  0  0  0  0  0  0
    1.4978    0.6697   -0.1051 C   0  0  0  0  0  0  0  0  0  0  0  0
    1.8325   -0.4703   -0.9028 C   0  0  0  0  0  0  0  0  0  0  0  0
    0.9396   -1.4351   -1.2157 C   0  0  0  0  0  0  0  0  0  0  0  0
   -0.4279   -1.4562   -0.8164 C   0  0  0  0  0  0  0  0  0  0  0  0
   -1.4083   -2.3787   -1.1638 C   0  0  0  0  0  0  0  0  0  0  0  0
   -2.6146   -1.9959   -0.5271 C   0  0  0  0  0  0  0  0  0  0  0  0
   -2.3296   -0.8573    0.1933 C   0  0  0  0  0  0  0  0  0  0  0  0
   -3.0997    0.0364    1.0560 C   0  0  0  0  0  0  0  0  0  0  0  0
   -2.4692    1.0479    1.7996 C   0  0  0  0  0  0  0  0  0  0  0  0
   -3.2045    1.8995    2.6287 C   0  0  0  0  0  0  0  0  0  0  0  0
   -4.5892    1.7517    2.7113 C   0  0  0  0  0  0  0  0  0  0  0  0
   -5.5080    2.8161    3.7834 S   0  0  0  0  0  6  0  0  0  0  0  0
   -5.5053    4.2642    2.9327 N   0  0  0  0  0  0  0  0  0  0  0  0
   -6.8873    2.3886    3.8154 O   0  0  0  0  0  0  0  0  0  0  0  0
   -4.7411    3.0508    4.9835 O   0  0  0  0  0  0  0  0  0  0  0  0
   -5.2393    0.7505    1.9881 C   0  0  0  0  0  0  0  0  0  0  0  0
   -4.4939   -0.1008    1.1647 C   0  0  0  0  0  0  0  0  0  0  0  0
   -1.0180   -0.5368    0.0143 O   0  0  0  0  0  0  0  0  0  0  0  0
    3.1795   -0.6420   -1.3914 C   0  0  0  0  0  0  0  0  0  0  0  0
    3.6702   -1.7520   -1.9229 N   0  0  0  0  0  0  0  0  0  0  0  0
    5.0007   -1.6009   -2.2773 C   0  0  0  0  0  0  0  0  0  0  0  0
    5.8244   -2.5970   -2.8426 C   0  0  0  0  0  0  0  0  0  0  0  0
    7.1574   -2.3022   -3.1526 C   0  0  0  0  0  0  0  0  0  0  0  0
    7.6734   -1.0316   -2.9097 C   0  0  0  0  0  0  0  0  0  0  0  0
    6.8752   -0.0284   -2.3479 C   0  0  0  0  0  0  0  0  0  0  0  0
    5.5399   -0.3383   -2.0377 C   0  0  0  0  0  0  0  0  0  0  0  0
    4.3308    0.6617   -1.3422 S   0  0  0  0  0  0  0  0  0  0  0  0
    1.2597   -2.2796   -1.8261 H   0  0  0  0  0  0  0  0  0  0  0  0
   -1.2653   -3.2340   -1.8114 H   0  0  0  0  0  0  0  0  0  0  0  0
   -3.5705   -2.4967   -0.5882 H   0  0  0  0  0  0  0  0  0  0  0  0
   -1.3891    1.1804    1.7453 H   0  0  0  0  0  0  0  0  0  0  0  0
   -2.6894    2.6705    3.2002 H   0  0  0  0  0  0  0  0  0  0  0  0
   -5.0075    4.9754    3.4693 H   0  0  0  0  0  0  0  0  0  0  0  0
   -6.4619    4.5246    2.6902 H   0  0  0  0  0  0  0  0  0  0  0  0
   -6.3173    0.6220    2.0582 H   0  0  0  0  0  0  0  0  0  0  0  0
   -5.0204   -0.8719    0.6075 H   0  0  0  0  0  0  0  0  0  0  0  0
    5.4203   -3.5882   -3.0293 H   0  0  0  0  0  0  0  0  0  0  0  0
    7.7917   -3.0739   -3.5856 H   0  0  0  0  0  0  0  0  0  0  0  0
    8.7117   -0.8142   -3.1558 H   0  0  0  0  0  0  0  0  0  0  0  0
    7.2806    0.9619   -2.1553 H   0  0  0  0  0  0  0  0  0  0  0  0
  1  2  3  0
  2  3  1  0
  3  4  2  3
  4  5  1  0
  5  6  2  0
  6  7  1  0
  7  8  2  0
  8  9  1  0
  9 10  2  0
 10 11  1  0
 11 12  2  0
 12 13  1  0
 13 14  1  0
 13 15  2  0
 13 16  2  0
 12 17  1  0
 17 18  2  0
  8 19  1  0
  3 20  1  0
 20 21  2  0
 21 22  1  0
 22 23  2  0
 23 24  1  0
 24 25  2  0
 25 26  1  0
 26 27  2  0
 27 28  1  0
 19  5  1  0
 28 20  1  0
 18  9  1  0
 27 22  1  0
  4 29  1  0
  6 30  1  0
  7 31  1  0
 10 32  1  0
 11 33  1  0
 14 34  1  0
 14 35  1  0
 17 36  1  0
 18 37  1  0
 23 38  1  0
 24 39  1  0
 25 40  1  0
 26 41  1  0
M  END
$$$$
