
     RDKit          3D

 71 75  0  0  0  0  0  0  0  0999 V2000
   -2.3248    5.2054    4.1040 C   0  0  0  0  0  0  0  0  0  0  0  0
   -2.1049    3.8189    4.3277 O   0  0  0  0  0  0  0  0  0  0  0  0
   -1.9546    3.0310    3.2202 C   0  0  0  0  0  0  0  0  0  0  0  0
   -2.0131    3.4565    1.8954 C   0  0  0  0  0  0  0  0  0  0  0  0
   -1.8394    2.5372    0.8539 C   0  0  0  0  0  0  0  0  0  0  0  0
   -1.6092    1.1741    1.1122 C   0  0  0  0  0  0  0  0  0  0  0  0
   -1.4148    0.2242   -0.0710 C   0  0  0  0  0  0  0  0  0  0  0  0
   -1.7773   -1.2680    0.1527 C   0  0  0  0  0  0  0  0  0  0  0  0
   -3.2862   -1.4707    0.3814 C   0  0  0  0  0  0  0  0  0  0  0  0
   -3.6404   -2.8770    0.6379 N   0  0  0  0  0  0  0  0  0  0  0  0
   -5.0580   -3.0186    1.0394 C   0  0  0  0  0  0  0  0  0  0  0  0
   -5.9787   -3.4506   -0.1125 C   0  0  0  0  0  0  0  0  0  0  0  0
   -5.6099   -4.7097   -0.6928 O   0  0  0  0  0  0  0  0  0  0  0  0
   -4.2170   -5.0134   -0.5324 C   0  0  0  0  0  0  0  0  0  0  0  0
   -3.3383   -3.7532   -0.5159 C   0  0  0  0  0  0  0  0  0  0  0  0
   -0.0203    0.3726   -0.7025 C   0  0  0  0  0  0  0  0  0  0  0  0
    0.1265    0.9232   -1.9889 C   0  0  0  0  0  0  0  0  0  0  0  0
   -1.0294    1.2914   -2.6293 O   0  0  0  0  0  0  0  0  0  0  0  0
   -0.9283    1.8945   -3.9126 C   0  0  0  0  0  0  0  0  0  0  0  0
    1.4037    1.0617   -2.5470 C   0  0  0  0  0  0  0  0  0  0  0  0
    2.5571    0.6729   -1.8472 C   0  0  0  0  0  0  0  0  0  0  0  0
    3.8185    0.7910   -2.3697 O   0  0  0  0  0  0  0  0  0  0  0  0
    3.9887    1.4026   -3.6395 C   0  0  0  0  0  0  0  0  0  0  0  0
    2.4447    0.1237   -0.5541 C   0  0  0  0  0  0  0  0  0  0  0  0
    3.5995   -0.3054    0.2767 C   0  0  0  0  0  0  0  0  0  0  0  0
    5.0346   -0.2158   -0.0664 C   0  0  0  0  0  0  0  0  0  0  0  0
    5.7624    0.9418    0.2410 C   0  0  0  0  0  0  0  0  0  0  0  0
    7.1231    1.0178   -0.0618 C   0  0  0  0  0  0  0  0  0  0  0  0
    7.7643   -0.0614   -0.6691 C   0  0  0  0  0  0  0  0  0  0  0  0
    7.0475   -1.2177   -0.9758 C   0  0  0  0  0  0  0  0  0  0  0  0
    5.6866   -1.2970   -0.6744 C   0  0  0  0  0  0  0  0  0  0  0  0
    3.3679   -0.8262    1.4926 C   0  0  0  0  0  0  0  0  0  0  0  0
    2.0293   -1.0021    2.0534 C   0  0  0  0  0  0  0  0  0  0  0  0
    1.8657   -1.5000    3.1606 O   0  0  0  0  0  0  0  0  0  0  0  0
    0.9796   -0.5836    1.2650 O   0  0  0  0  0  0  0  0  0  0  0  0
    1.1533   -0.0184   -0.0202 C   0  0  0  0  0  0  0  0  0  0  0  0
   -1.5478    0.7621    2.4491 C   0  0  0  0  0  0  0  0  0  0  0  0
   -1.7205    1.6821    3.4883 C   0  0  0  0  0  0  0  0  0  0  0  0
   -1.4770    5.6611    3.5819 H   0  0  0  0  0  0  0  0  0  0  0  0
   -2.4143    5.6916    5.0802 H   0  0  0  0  0  0  0  0  0  0  0  0
   -3.2608    5.3741    3.5613 H   0  0  0  0  0  0  0  0  0  0  0  0
   -2.1885    4.4941    1.6340 H   0  0  0  0  0  0  0  0  0  0  0  0
   -1.8822    2.8952   -0.1735 H   0  0  0  0  0  0  0  0  0  0  0  0
   -2.1595    0.5586   -0.8058 H   0  0  0  0  0  0  0  0  0  0  0  0
   -1.4738   -1.8294   -0.7408 H   0  0  0  0  0  0  0  0  0  0  0  0
   -1.2216   -1.7035    0.9899 H   0  0  0  0  0  0  0  0  0  0  0  0
   -3.8508   -1.0842   -0.4769 H   0  0  0  0  0  0  0  0  0  0  0  0
   -3.5841   -0.8758    1.2521 H   0  0  0  0  0  0  0  0  0  0  0  0
   -5.0925   -3.7926    1.8168 H   0  0  0  0  0  0  0  0  0  0  0  0
   -5.4421   -2.1037    1.5055 H   0  0  0  0  0  0  0  0  0  0  0  0
   -5.9812   -2.6976   -0.9092 H   0  0  0  0  0  0  0  0  0  0  0  0
   -7.0086   -3.5467    0.2460 H   0  0  0  0  0  0  0  0  0  0  0  0
   -4.0926   -5.5927    0.3901 H   0  0  0  0  0  0  0  0  0  0  0  0
   -3.9269   -5.6628   -1.3646 H   0  0  0  0  0  0  0  0  0  0  0  0
   -3.5064   -3.2143   -1.4577 H   0  0  0  0  0  0  0  0  0  0  0  0
   -2.2849   -4.0506   -0.4763 H   0  0  0  0  0  0  0  0  0  0  0  0
   -0.4987    1.1999   -4.6415 H   0  0  0  0  0  0  0  0  0  0  0  0
   -0.3578    2.8278   -3.8669 H   0  0  0  0  0  0  0  0  0  0  0  0
   -1.9411    2.1406   -4.2458 H   0  0  0  0  0  0  0  0  0  0  0  0
    1.5039    1.4754   -3.5418 H   0  0  0  0  0  0  0  0  0  0  0  0
    3.5119    0.8113   -4.4278 H   0  0  0  0  0  0  0  0  0  0  0  0
    5.0615    1.4359   -3.8528 H   0  0  0  0  0  0  0  0  0  0  0  0
    3.6187    2.4331   -3.6357 H   0  0  0  0  0  0  0  0  0  0  0  0
    5.2709    1.7899    0.7116 H   0  0  0  0  0  0  0  0  0  0  0  0
    7.6819    1.9190    0.1761 H   0  0  0  0  0  0  0  0  0  0  0  0
    8.8238   -0.0011   -0.9041 H   0  0  0  0  0  0  0  0  0  0  0  0
    7.5476   -2.0579   -1.4502 H   0  0  0  0  0  0  0  0  0  0  0  0
    5.1361   -2.2014   -0.9216 H   0  0  0  0  0  0  0  0  0  0  0  0
    4.1697   -1.1532    2.1472 H   0  0  0  0  0  0  0  0  0  0  0  0
   -1.3552   -0.2752    2.7128 H   0  0  0  0  0  0  0  0  0  0  0  0
   -1.6651    1.3394    4.5189 H   0  0  0  0  0  0  0  0  0  0  0  0
  1  2  1  0
  2  3  1  0
  3  4  2  0
  4  5  1  0
  5  6  2  0
  6  7  1  0
  7  8  1  0
  8  9  1  0
  9 10  1  0
 10 11  1  0
 11 12  1  0
 12 13  1  0
 13 14  1  0
 14 15  1  0
  7 16  1  0
 16 17  2  0
 17 18  1  0
 18 19  1  0
 17 20  1  0
 20 21  2  0
 21 22  1  0
 22 23  1  0
 21 24  1  0
 24 25  1  0
 25 26  1  0
 26 27  2  0
 27 28  1  0
 28 29  2  0
 29 30  1  0
 30 31  2  0
 25 32  2  0
 32 33  1  0
 33 34  2  0
 33 35  1  0
 35 36  1  0
  6 37  1  0
 37 38  2  0
 38  3  1  0
 15 10  1  0
 36 16  1  0
 36 24  2  0
 31 26  1  0
  1 39  1  0
  1 40  1  0
  1 41  1  0
  4 42  1  0
  5 43  1  0
  7 44  1  0
  8 45  1  0
  8 46  1  0
  9 47  1  0
  9 48  1  0
 11 49  1  0
 11 50  1  0
 12 51  1  0
 12 52  1  0
 14 53  1  0
 14 54  1  0
 15 55  1  0
 15 56  1  0
 19 57  1  0
 19 58  1  0
 19 59  1  0
 20 60  1  0
 23 61  1  0
 23 62  1  0
 23 63  1  0
 27 64  1  0
 28 65  1  0
 29 66  1  0
 30 67  1  0
 31 68  1  0
 32 69  1  0
 37 70  1  0
 38 71  1  0
M  END
$$$$
