
     RDKit          3D

 53 54  0  0  0  0  0  0  0  0999 V2000
   -1.0441    5.7614    2.9418 C   0  0  0  0  0  0  0  0  0  0  0  0
   -2.0912    4.2848    2.9006 S   0  0  0  0  0  0  0  0  0  0  0  0
   -0.8175    3.0052    3.1765 C   0  0  0  0  0  0  0  0  0  0  0  0
    0.0611    2.7305    1.9557 C   0  0  0  0  0  0  0  0  0  0  0  0
   -0.6912    2.1965    0.7230 C   0  0  0  0  0  0  0  0  0  0  0  0
   -1.5527    1.0387    0.9933 N   0  0  0  0  0  0  0  0  0  0  0  0
   -1.0420   -0.1481    1.4949 C   0  0  0  0  0  0  0  0  0  0  0  0
    0.1283   -0.2626    1.8452 O   0  0  0  0  0  0  0  0  0  0  0  0
   -2.0781   -1.2746    1.5588 C   0  0  0  0  0  0  0  0  0  0  0  0
   -1.5422   -2.4228    2.1966 O   0  0  0  0  0  0  0  0  0  0  0  0
   -2.3589   -3.5126    2.3115 C   0  0  0  0  0  0  0  0  0  0  0  0
   -3.6779   -3.6048    1.8645 C   0  0  0  0  0  0  0  0  0  0  0  0
   -4.3998   -4.7887    2.0489 C   0  0  0  0  0  0  0  0  0  0  0  0
   -3.8082   -5.8821    2.6792 C   0  0  0  0  0  0  0  0  0  0  0  0
   -2.4930   -5.7945    3.1282 C   0  0  0  0  0  0  0  0  0  0  0  0
   -1.7734   -4.6130    2.9437 C   0  0  0  0  0  0  0  0  0  0  0  0
    0.2141    1.8588   -0.4775 C   0  0  0  0  0  0  0  0  0  0  0  0
   -0.1359    1.1369   -1.4076 O   0  0  0  0  0  0  0  0  0  0  0  0
    1.4131    2.4996   -0.4141 O   0  0  0  0  0  0  0  0  0  0  0  0
    2.3226    2.2140   -1.4880 C   0  0  0  0  0  0  0  0  0  0  0  0
    3.0276    0.8739   -1.2794 C   0  0  0  0  0  0  0  0  0  0  0  0
    3.9987    0.6397   -2.2989 O   0  0  0  0  0  0  0  0  0  0  0  0
    3.5955    0.0494   -3.4633 C   0  0  0  0  0  0  0  0  0  0  0  0
    4.6259   -0.1735   -4.3828 C   0  0  0  0  0  0  0  0  0  0  0  0
    4.3651   -0.7653   -5.6208 C   0  0  0  0  0  0  0  0  0  0  0  0
    3.0629   -1.1360   -5.9418 C   0  0  0  0  0  0  0  0  0  0  0  0
    2.6978   -1.9369   -7.6138 Br  0  0  0  0  0  0  0  0  0  0  0  0
    2.0269   -0.9187   -5.0363 C   0  0  0  0  0  0  0  0  0  0  0  0
    2.2933   -0.3259   -3.7965 C   0  0  0  0  0  0  0  0  0  0  0  0
   -1.6779    6.6496    2.8695 H   0  0  0  0  0  0  0  0  0  0  0  0
   -0.3498    5.7672    2.0984 H   0  0  0  0  0  0  0  0  0  0  0  0
   -0.4876    5.8101    3.8812 H   0  0  0  0  0  0  0  0  0  0  0  0
   -0.1938    3.3130    4.0227 H   0  0  0  0  0  0  0  0  0  0  0  0
   -1.3314    2.0904    3.4887 H   0  0  0  0  0  0  0  0  0  0  0  0
    0.8447    2.0238    2.2538 H   0  0  0  0  0  0  0  0  0  0  0  0
    0.6003    3.6466    1.6838 H   0  0  0  0  0  0  0  0  0  0  0  0
   -1.3613    2.9829    0.3551 H   0  0  0  0  0  0  0  0  0  0  0  0
   -2.3999    0.9784    0.4419 H   0  0  0  0  0  0  0  0  0  0  0  0
   -2.3621   -1.5112    0.5262 H   0  0  0  0  0  0  0  0  0  0  0  0
   -2.9401   -0.8980    2.1221 H   0  0  0  0  0  0  0  0  0  0  0  0
   -4.1766   -2.7793    1.3697 H   0  0  0  0  0  0  0  0  0  0  0  0
   -5.4265   -4.8577    1.6982 H   0  0  0  0  0  0  0  0  0  0  0  0
   -4.3711   -6.8011    2.8198 H   0  0  0  0  0  0  0  0  0  0  0  0
   -2.0250   -6.6429    3.6199 H   0  0  0  0  0  0  0  0  0  0  0  0
   -0.7459   -4.5476    3.2942 H   0  0  0  0  0  0  0  0  0  0  0  0
    1.8108    2.2708   -2.4559 H   0  0  0  0  0  0  0  0  0  0  0  0
    3.0680    3.0176   -1.5042 H   0  0  0  0  0  0  0  0  0  0  0  0
    3.5737    0.9205   -0.3290 H   0  0  0  0  0  0  0  0  0  0  0  0
    2.3367    0.0325   -1.1544 H   0  0  0  0  0  0  0  0  0  0  0  0
    5.6437    0.1155   -4.1302 H   0  0  0  0  0  0  0  0  0  0  0  0
    5.1807   -0.9312   -6.3187 H   0  0  0  0  0  0  0  0  0  0  0  0
    1.0073   -1.2062   -5.2805 H   0  0  0  0  0  0  0  0  0  0  0  0
    1.4563   -0.1733   -3.1225 H   0  0  0  0  0  0  0  0  0  0  0  0
  1  2  1  0
  2  3  1  0
  3  4  1  0
  4  5  1  0
  5  6  1  0
  6  7  1  0
  7  8  2  0
  7  9  1  0
  9 10  1  0
 10 11  1  0
 11 12  2  0
 12 13  1  0
 13 14  2  0
 14 15  1  0
 15 16  2  0
  5 17  1  0
 17 18  2  0
 17 19  1  0
 19 20  1  0
 20 21  1  0
 21 22  1  0
 22 23  1  0
 23 24  2  0
 24 25  1  0
 25 26  2  0
 26 27  1  0
 26 28  1  0
 28 29  2  0
 16 11  1  0
 29 23  1  0
  1 30  1  0
  1 31  1  0
  1 32  1  0
  3 33  1  0
  3 34  1  0
  4 35  1  0
  4 36  1  0
  5 37  1  0
  6 38  1  0
  9 39  1  0
  9 40  1  0
 12 41  1  0
 13 42  1  0
 14 43  1  0
 15 44  1  0
 16 45  1  0
 20 46  1  0
 20 47  1  0
 21 48  1  0
 21 49  1  0
 24 50  1  0
 25 51  1  0
 28 52  1  0
 29 53  1  0
M  END
$$$$
