
     RDKit          3D

 40 44  0  0  0  0  0  0  0  0999 V2000
    6.2057    0.9134    0.4971 C   0  0  0  0  0  0  0  0  0  0  0  0
    5.3064    1.7056   -0.2121 C   0  0  0  0  0  0  0  0  0  0  0  0
    3.9770    1.2989   -0.3542 C   0  0  0  0  0  0  0  0  0  0  0  0
    3.5240    0.0939    0.2083 C   0  0  0  0  0  0  0  0  0  0  0  0
    2.1228   -0.3334    0.0573 C   0  0  0  0  0  0  0  0  0  0  0  0
    1.8091   -1.5878   -0.4876 C   0  0  0  0  0  0  0  0  0  0  0  0
    0.4873   -2.0247   -0.6442 C   0  0  0  0  0  0  0  0  0  0  0  0
   -0.5373   -1.1617   -0.2403 C   0  0  0  0  0  0  0  0  0  0  0  0
   -0.2731    0.1042    0.3136 C   0  0  0  0  0  0  0  0  0  0  0  0
    1.0694    0.5105    0.4599 C   0  0  0  0  0  0  0  0  0  0  0  0
   -1.5281    0.7032    0.6308 C   0  0  0  0  0  0  0  0  0  0  0  0
   -2.4915   -0.1919    0.2439 C   0  0  0  0  0  0  0  0  0  0  0  0
   -1.8996   -1.3025   -0.2560 N   0  0  0  0  0  0  0  0  0  0  0  0
   -2.7339   -2.4271   -0.6196 C   0  0  0  0  0  0  0  0  0  0  0  0
   -4.1375   -1.9395   -1.0189 C   0  0  0  0  0  0  0  0  0  0  0  0
   -4.7291   -0.8895   -0.1423 N   0  0  0  0  0  0  0  0  0  0  0  0
   -3.9035   -0.0397    0.3716 C   0  0  0  0  0  0  0  0  0  0  0  0
   -4.3437    1.1623    1.1868 C   0  0  0  0  0  0  0  0  0  0  0  0
   -3.3744    2.3507    0.9885 C   0  0  0  0  0  0  0  0  0  0  0  0
   -1.8923    1.9981    1.2732 C   0  0  0  0  0  0  0  0  0  0  0  0
    4.4475   -0.6903    0.9193 C   0  0  0  0  0  0  0  0  0  0  0  0
    5.7771   -0.2845    1.0634 C   0  0  0  0  0  0  0  0  0  0  0  0
    7.2395    1.2293    0.6085 H   0  0  0  0  0  0  0  0  0  0  0  0
    5.6378    2.6397   -0.6579 H   0  0  0  0  0  0  0  0  0  0  0  0
    3.2924    1.9267   -0.9212 H   0  0  0  0  0  0  0  0  0  0  0  0
    2.6117   -2.2485   -0.8127 H   0  0  0  0  0  0  0  0  0  0  0  0
    0.2763   -3.0004   -1.0690 H   0  0  0  0  0  0  0  0  0  0  0  0
    1.2854    1.4806    0.8998 H   0  0  0  0  0  0  0  0  0  0  0  0
   -2.7860   -3.0757    0.2620 H   0  0  0  0  0  0  0  0  0  0  0  0
   -2.2620   -2.9717   -1.4426 H   0  0  0  0  0  0  0  0  0  0  0  0
   -4.8191   -2.7972   -1.0327 H   0  0  0  0  0  0  0  0  0  0  0  0
   -4.1121   -1.5406   -2.0409 H   0  0  0  0  0  0  0  0  0  0  0  0
   -5.3579    1.4496    0.8902 H   0  0  0  0  0  0  0  0  0  0  0  0
   -4.3686    0.8681    2.2423 H   0  0  0  0  0  0  0  0  0  0  0  0
   -3.4570    2.6945   -0.0514 H   0  0  0  0  0  0  0  0  0  0  0  0
   -3.6793    3.1878    1.6266 H   0  0  0  0  0  0  0  0  0  0  0  0
   -1.2468    2.8049    0.9092 H   0  0  0  0  0  0  0  0  0  0  0  0
   -1.7415    1.9125    2.3558 H   0  0  0  0  0  0  0  0  0  0  0  0
    4.1296   -1.6239    1.3790 H   0  0  0  0  0  0  0  0  0  0  0  0
    6.4752   -0.9038    1.6204 H   0  0  0  0  0  0  0  0  0  0  0  0
  1  2  2  0
  2  3  1  0
  3  4  2  0
  4  5  1  0
  5  6  2  0
  6  7  1  0
  7  8  2  0
  8  9  1  0
  9 10  2  0
  9 11  1  0
 11 12  2  0
 12 13  1  0
 13 14  1  0
 14 15  1  0
 15 16  1  0
 16 17  2  0
 17 18  1  0
 18 19  1  0
 19 20  1  0
  4 21  1  0
 21 22  2  0
 22  1  1  0
 10  5  1  0
 20 11  1  0
 13  8  1  0
 17 12  1  0
  1 23  1  0
  2 24  1  0
  3 25  1  0
  6 26  1  0
  7 27  1  0
 10 28  1  0
 14 29  1  0
 14 30  1  0
 15 31  1  0
 15 32  1  0
 18 33  1  0
 18 34  1  0
 19 35  1  0
 19 36  1  0
 20 37  1  0
 20 38  1  0
 21 39  1  0
 22 40  1  0
M  END
$$$$
