
     RDKit          3D

 61 64  0  0  0  0  0  0  0  0999 V2000
    9.2632    1.3198    1.0377 C   0  0  0  0  0  0  0  0  0  0  0  0
    7.9540    1.4543    0.3012 C   0  0  0  0  0  0  0  0  0  0  0  0
    7.6174    2.5221   -0.1964 O   0  0  0  0  0  0  0  0  0  0  0  0
    7.2531    0.2615    0.2718 N   0  0  0  0  0  0  0  0  0  0  0  0
    6.0073    0.0122   -0.3396 C   0  0  0  0  0  0  0  0  0  0  0  0
    5.4836   -1.2832   -0.2147 C   0  0  0  0  0  0  0  0  0  0  0  0
    4.2537   -1.6146   -0.7889 C   0  0  0  0  0  0  0  0  0  0  0  0
    3.5406   -0.6425   -1.4919 C   0  0  0  0  0  0  0  0  0  0  0  0
    1.9762   -1.0757   -2.2124 S   0  0  0  0  0  6  0  0  0  0  0  0
    2.1822   -2.2957   -2.9626 O   0  0  0  0  0  0  0  0  0  0  0  0
    1.4218    0.1031   -2.8417 O   0  0  0  0  0  0  0  0  0  0  0  0
    1.0351   -1.4387   -0.8457 N   0  0  0  0  0  0  0  0  0  0  0  0
    0.7210   -0.3109    0.0918 C   0  0  0  0  0  0  0  0  0  0  0  0
   -0.4579    0.5624   -0.3894 C   0  0  0  0  0  0  0  0  0  0  0  0
   -1.6692   -0.2372   -0.6954 N   0  0  0  0  0  0  0  0  0  0  0  0
   -2.4313   -0.5650    0.3843 C   0  0  0  0  0  0  0  0  0  0  0  0
   -2.4076   -1.6876    1.0639 N   0  0  0  0  0  0  0  0  0  0  0  0
   -3.3341   -1.5385    2.0631 C   0  0  0  0  0  0  0  0  0  0  0  0
   -3.6925   -2.4301    3.0852 C   0  0  0  0  0  0  0  0  0  0  0  0
   -4.6789   -2.0454    4.0010 C   0  0  0  0  0  0  0  0  0  0  0  0
   -5.2977   -0.7981    3.9004 C   0  0  0  0  0  0  0  0  0  0  0  0
   -4.9549    0.1036    2.8861 C   0  0  0  0  0  0  0  0  0  0  0  0
   -3.9642   -0.3008    1.9822 C   0  0  0  0  0  0  0  0  0  0  0  0
   -3.3921    0.2920    0.8776 N   0  0  0  0  0  0  0  0  0  0  0  0
   -3.7689    1.5815    0.3289 C   0  0  0  0  0  0  0  0  0  0  0  0
   -5.0676    1.5535   -0.4967 C   0  0  0  0  0  0  0  0  0  0  0  0
   -5.4945    2.9834   -0.8344 C   0  0  0  0  0  0  0  0  0  0  0  0
   -4.9138    0.7418   -1.7846 C   0  0  0  0  0  0  0  0  0  0  0  0
   -1.3656   -1.3607   -1.6176 C   0  0  0  0  0  0  0  0  0  0  0  0
   -0.2032   -2.2413   -1.1220 C   0  0  0  0  0  0  0  0  0  0  0  0
    4.0510    0.6474   -1.6349 C   0  0  0  0  0  0  0  0  0  0  0  0
    5.2826    0.9708   -1.0546 C   0  0  0  0  0  0  0  0  0  0  0  0
    9.9501    0.6999    0.4551 H   0  0  0  0  0  0  0  0  0  0  0  0
    9.7081    2.3090    1.1787 H   0  0  0  0  0  0  0  0  0  0  0  0
    9.0999    0.8709    2.0216 H   0  0  0  0  0  0  0  0  0  0  0  0
    7.6810   -0.5252    0.7438 H   0  0  0  0  0  0  0  0  0  0  0  0
    6.0241   -2.0536    0.3297 H   0  0  0  0  0  0  0  0  0  0  0  0
    3.8571   -2.6227   -0.6878 H   0  0  0  0  0  0  0  0  0  0  0  0
    1.6058    0.3129    0.2506 H   0  0  0  0  0  0  0  0  0  0  0  0
    0.4844   -0.7524    1.0681 H   0  0  0  0  0  0  0  0  0  0  0  0
   -0.6754    1.3196    0.3745 H   0  0  0  0  0  0  0  0  0  0  0  0
   -0.1833    1.1205   -1.2895 H   0  0  0  0  0  0  0  0  0  0  0  0
   -3.2083   -3.3976    3.1555 H   0  0  0  0  0  0  0  0  0  0  0  0
   -4.9651   -2.7284    4.7972 H   0  0  0  0  0  0  0  0  0  0  0  0
   -6.0638   -0.5222    4.6225 H   0  0  0  0  0  0  0  0  0  0  0  0
   -5.4436    1.0688    2.8102 H   0  0  0  0  0  0  0  0  0  0  0  0
   -2.9401    1.9701   -0.2715 H   0  0  0  0  0  0  0  0  0  0  0  0
   -3.8739    2.2622    1.1831 H   0  0  0  0  0  0  0  0  0  0  0  0
   -5.8684    1.0956    0.0971 H   0  0  0  0  0  0  0  0  0  0  0  0
   -5.6464    3.5696    0.0778 H   0  0  0  0  0  0  0  0  0  0  0  0
   -4.7379    3.4912   -1.4423 H   0  0  0  0  0  0  0  0  0  0  0  0
   -6.4363    2.9872   -1.3928 H   0  0  0  0  0  0  0  0  0  0  0  0
   -4.7135   -0.3119   -1.5680 H   0  0  0  0  0  0  0  0  0  0  0  0
   -4.0949    1.1263   -2.4019 H   0  0  0  0  0  0  0  0  0  0  0  0
   -5.8323    0.7823   -2.3800 H   0  0  0  0  0  0  0  0  0  0  0  0
   -1.1156   -0.9354   -2.5968 H   0  0  0  0  0  0  0  0  0  0  0  0
   -2.2599   -1.9775   -1.7739 H   0  0  0  0  0  0  0  0  0  0  0  0
    0.0087   -3.0276   -1.8541 H   0  0  0  0  0  0  0  0  0  0  0  0
   -0.4701   -2.7649   -0.1973 H   0  0  0  0  0  0  0  0  0  0  0  0
    3.5086    1.4064   -2.1942 H   0  0  0  0  0  0  0  0  0  0  0  0
    5.6522    1.9835   -1.1866 H   0  0  0  0  0  0  0  0  0  0  0  0
  1  2  1  0
  2  3  2  0
  2  4  1  0
  4  5  1  0
  5  6  2  0
  6  7  1  0
  7  8  2  0
  8  9  1  0
  9 10  2  0
  9 11  2  0
  9 12  1  0
 12 13  1  0
 13 14  1  0
 14 15  1  0
 15 16  1  0
 16 17  2  0
 17 18  1  0
 18 19  2  0
 19 20  1  0
 20 21  2  0
 21 22  1  0
 22 23  2  0
 23 24  1  0
 24 25  1  0
 25 26  1  0
 26 27  1  0
 26 28  1  0
 15 29  1  0
 29 30  1  0
  8 31  1  0
 31 32  2  0
 32  5  1  0
 30 12  1  0
 24 16  1  0
 23 18  1  0
  1 33  1  0
  1 34  1  0
  1 35  1  0
  4 36  1  0
  6 37  1  0
  7 38  1  0
 13 39  1  0
 13 40  1  0
 14 41  1  0
 14 42  1  0
 19 43  1  0
 20 44  1  0
 21 45  1  0
 22 46  1  0
 25 47  1  0
 25 48  1  0
 26 49  1  0
 27 50  1  0
 27 51  1  0
 27 52  1  0
 28 53  1  0
 28 54  1  0
 28 55  1  0
 29 56  1  0
 29 57  1  0
 30 58  1  0
 30 59  1  0
 31 60  1  0
 32 61  1  0
M  END
$$$$
