
     RDKit          3D

 49 53  0  0  0  0  0  0  0  0999 V2000
    6.2558    2.5500    1.6237 C   0  0  0  0  0  0  0  0  0  0  0  0
    5.9926    1.4184    0.7648 N   0  0  0  0  0  0  0  0  0  0  0  0
    6.9130    0.6699    0.0964 C   0  0  0  0  0  0  0  0  0  0  0  0
    6.1846   -0.2732   -0.5985 C   0  0  0  0  0  0  0  0  0  0  0  0
    6.7226   -1.2519   -1.4807 N   0  0  0  0  0  4  0  0  0  0  0  0
    6.2917   -1.2526   -2.6386 O   0  0  0  0  0  0  0  0  0  0  0  0
    7.6279   -1.9652   -1.0281 O   0  0  0  0  0  1  0  0  0  0  0  0
    4.8316   -0.0479   -0.2609 C   0  0  0  0  0  0  0  0  0  0  0  0
    3.6569   -0.8340   -0.6666 C   0  0  0  0  0  0  0  0  0  0  0  0
    3.7696   -1.8979   -1.2638 O   0  0  0  0  0  0  0  0  0  0  0  0
    2.4813   -0.2499   -0.2667 N   0  0  0  0  0  0  0  0  0  0  0  0
    1.2208   -0.7407   -0.4759 C   0  0  0  0  0  0  0  0  0  0  0  0
    0.8124   -1.9100   -1.1474 C   0  0  0  0  0  0  0  0  0  0  0  0
   -0.5589   -1.9167   -1.0581 C   0  0  0  0  0  0  0  0  0  0  0  0
   -0.9013   -0.7897   -0.3603 N   0  0  0  0  0  0  0  0  0  0  0  0
   -2.2609   -0.3553   -0.0043 C   0  0  0  0  0  0  0  0  0  0  0  0
   -3.1146   -0.1552   -1.2865 C   0  0  0  0  0  0  0  0  0  0  0  0
   -4.5511    0.2642   -0.9286 C   0  0  0  0  0  0  0  0  0  0  0  0
   -5.1930   -0.8229   -0.0507 C   0  0  0  0  0  0  0  0  0  0  0  0
   -4.3834   -1.0034    1.2441 C   0  0  0  0  0  0  0  0  0  0  0  0
   -4.3482    0.3275    2.0102 C   0  0  0  0  0  0  0  0  0  0  0  0
   -3.7016    1.4161    1.1402 C   0  0  0  0  0  0  0  0  0  0  0  0
   -4.5155    1.5884   -0.1511 C   0  0  0  0  0  0  0  0  0  0  0  0
   -2.2677    0.9912    0.7817 C   0  0  0  0  0  0  0  0  0  0  0  0
   -2.9469   -1.4251    0.8888 C   0  0  0  0  0  0  0  0  0  0  0  0
    0.1755   -0.0609   -0.0007 N   0  0  0  0  0  0  0  0  0  0  0  0
    4.7206    1.0224    0.5612 N   0  0  0  0  0  0  0  0  0  0  0  0
    5.8973    3.4510    1.1189 H   0  0  0  0  0  0  0  0  0  0  0  0
    7.3313    2.6235    1.8064 H   0  0  0  0  0  0  0  0  0  0  0  0
    5.7268    2.3993    2.5693 H   0  0  0  0  0  0  0  0  0  0  0  0
    7.9752    0.8669    0.1487 H   0  0  0  0  0  0  0  0  0  0  0  0
    2.5334    0.6162    0.2565 H   0  0  0  0  0  0  0  0  0  0  0  0
    1.4278   -2.6527   -1.6359 H   0  0  0  0  0  0  0  0  0  0  0  0
   -1.2966   -2.6158   -1.4246 H   0  0  0  0  0  0  0  0  0  0  0  0
   -2.6546    0.6055   -1.9315 H   0  0  0  0  0  0  0  0  0  0  0  0
   -3.1508   -1.0791   -1.8782 H   0  0  0  0  0  0  0  0  0  0  0  0
   -5.1367    0.3908   -1.8460 H   0  0  0  0  0  0  0  0  0  0  0  0
   -6.2267   -0.5461    0.1905 H   0  0  0  0  0  0  0  0  0  0  0  0
   -5.2379   -1.7710   -0.6002 H   0  0  0  0  0  0  0  0  0  0  0  0
   -4.8499   -1.7753    1.8665 H   0  0  0  0  0  0  0  0  0  0  0  0
   -5.3658    0.6265    2.2895 H   0  0  0  0  0  0  0  0  0  0  0  0
   -3.7839    0.2083    2.9433 H   0  0  0  0  0  0  0  0  0  0  0  0
   -3.6788    2.3631    1.6909 H   0  0  0  0  0  0  0  0  0  0  0  0
   -5.5364    1.9096    0.0893 H   0  0  0  0  0  0  0  0  0  0  0  0
   -4.0722    2.3765   -0.7723 H   0  0  0  0  0  0  0  0  0  0  0  0
   -1.6782    0.8981    1.7041 H   0  0  0  0  0  0  0  0  0  0  0  0
   -1.7951    1.7838    0.1857 H   0  0  0  0  0  0  0  0  0  0  0  0
   -2.9765   -2.3962    0.3781 H   0  0  0  0  0  0  0  0  0  0  0  0
   -2.3655   -1.5786    1.8079 H   0  0  0  0  0  0  0  0  0  0  0  0
  1  2  1  0
  2  3  1  0
  3  4  2  0
  4  5  1  0
  5  6  2  0
  5  7  1  0
  4  8  1  0
  8  9  1  0
  9 10  2  0
  9 11  1  0
 11 12  1  0
 12 13  1  0
 13 14  2  0
 14 15  1  0
 15 16  1  0
 16 17  1  0
 17 18  1  0
 18 19  1  0
 19 20  1  0
 20 21  1  0
 21 22  1  0
 22 23  1  0
 22 24  1  0
 20 25  1  0
 15 26  1  0
  8 27  2  0
 27  2  1  0
 26 12  2  0
 24 16  1  0
 25 16  1  0
 23 18  1  0
  1 28  1  0
  1 29  1  0
  1 30  1  0
  3 31  1  0
 11 32  1  0
 13 33  1  0
 14 34  1  0
 17 35  1  0
 17 36  1  0
 18 37  1  0
 19 38  1  0
 19 39  1  0
 20 40  1  0
 21 41  1  0
 21 42  1  0
 22 43  1  0
 23 44  1  0
 23 45  1  0
 24 46  1  0
 24 47  1  0
 25 48  1  0
 25 49  1  0
M  CHG  2   5   1   7  -1
M  END
$$$$
