
     RDKit          3D

 62 66  0  0  0  0  0  0  0  0999 V2000
   -9.4159   -2.7325   -1.0857 C   0  0  0  0  0  0  0  0  0  0  0  0
   -8.5869   -1.5222   -0.7312 C   0  0  0  0  0  0  0  0  0  0  0  0
   -9.1926   -0.3916   -0.3220 C   0  0  0  0  0  0  0  0  0  0  0  0
   -8.4305    0.8115    0.0329 C   0  0  0  0  0  0  0  0  0  0  0  0
   -9.1122    1.9650    0.4430 C   0  0  0  0  0  0  0  0  0  0  0  0
   -8.4034    3.1172    0.7740 C   0  0  0  0  0  0  0  0  0  0  0  0
   -7.0134    3.1213    0.6962 C   0  0  0  0  0  0  0  0  0  0  0  0
   -6.3213    1.9755    0.2912 C   0  0  0  0  0  0  0  0  0  0  0  0
   -7.0231    0.8137   -0.0411 C   0  0  0  0  0  0  0  0  0  0  0  0
   -6.4159   -0.4009   -0.4710 N   0  0  0  0  0  0  0  0  0  0  0  0
   -5.1066   -0.8074   -0.6716 C   0  0  0  0  0  0  0  0  0  0  0  0
   -3.6637    0.1035   -0.3821 S   0  0  0  0  0  0  0  0  0  0  0  0
   -2.4977   -0.7831   -1.4611 C   0  0  0  0  0  0  0  0  0  0  0  0
   -1.1380   -0.0921   -1.4430 C   0  0  0  0  0  0  0  0  0  0  0  0
   -1.0269    1.1154   -1.6393 O   0  0  0  0  0  0  0  0  0  0  0  0
   -0.0912   -0.9752   -1.2057 N   0  0  0  0  0  0  0  0  0  0  0  0
    1.2865   -0.6775   -1.1351 C   0  0  0  0  0  0  0  0  0  0  0  0
    1.8208    0.6051   -1.2894 C   0  0  0  0  0  0  0  0  0  0  0  0
    3.2012    0.8158   -1.2056 C   0  0  0  0  0  0  0  0  0  0  0  0
    4.0526   -0.2626   -0.9609 C   0  0  0  0  0  0  0  0  0  0  0  0
    5.8030    0.0244   -0.8688 S   0  0  0  0  0  6  0  0  0  0  0  0
    6.4590   -1.2470   -0.6454 O   0  0  0  0  0  0  0  0  0  0  0  0
    6.1502    0.8521   -2.0041 O   0  0  0  0  0  0  0  0  0  0  0  0
    5.9528    0.9576    0.5467 N   0  0  0  0  0  0  0  0  0  0  0  0
    5.5585    0.3447    1.8383 C   0  0  0  0  0  0  0  0  0  0  0  0
    6.6926   -0.4607    2.4642 C   0  0  0  0  0  0  0  0  0  0  0  0
    7.9844    0.3584    2.5733 C   0  0  0  0  0  0  0  0  0  0  0  0
    9.1304   -0.5013    3.1034 C   0  0  0  0  0  0  0  0  0  0  0  0
    8.3432    0.9670    1.2121 C   0  0  0  0  0  0  0  0  0  0  0  0
    7.1819    1.7801    0.6548 C   0  0  0  0  0  0  0  0  0  0  0  0
    3.5392   -1.5509   -0.8147 C   0  0  0  0  0  0  0  0  0  0  0  0
    2.1580   -1.7518   -0.8979 C   0  0  0  0  0  0  0  0  0  0  0  0
   -5.0747   -2.0478   -1.1090 N   0  0  0  0  0  0  0  0  0  0  0  0
   -6.3576   -2.5008   -1.1984 N   0  0  0  0  0  0  0  0  0  0  0  0
   -7.1613   -1.5293   -0.8154 C   0  0  0  0  0  0  0  0  0  0  0  0
   -9.2565   -3.0051   -2.1336 H   0  0  0  0  0  0  0  0  0  0  0  0
   -9.1300   -3.5845   -0.4602 H   0  0  0  0  0  0  0  0  0  0  0  0
  -10.4884   -2.5614   -0.9443 H   0  0  0  0  0  0  0  0  0  0  0  0
  -10.2751   -0.3363   -0.2456 H   0  0  0  0  0  0  0  0  0  0  0  0
  -10.1984    1.9788    0.5066 H   0  0  0  0  0  0  0  0  0  0  0  0
   -8.9336    4.0130    1.0884 H   0  0  0  0  0  0  0  0  0  0  0  0
   -6.4593    4.0231    0.9491 H   0  0  0  0  0  0  0  0  0  0  0  0
   -5.2443    2.0560    0.2504 H   0  0  0  0  0  0  0  0  0  0  0  0
   -2.8581   -0.7928   -2.4946 H   0  0  0  0  0  0  0  0  0  0  0  0
   -2.4103   -1.8136   -1.1079 H   0  0  0  0  0  0  0  0  0  0  0  0
   -0.3324   -1.9502   -1.0699 H   0  0  0  0  0  0  0  0  0  0  0  0
    1.1920    1.4694   -1.4807 H   0  0  0  0  0  0  0  0  0  0  0  0
    3.6026    1.8187   -1.3363 H   0  0  0  0  0  0  0  0  0  0  0  0
    5.2608    1.1551    2.5148 H   0  0  0  0  0  0  0  0  0  0  0  0
    4.6721   -0.2854    1.7207 H   0  0  0  0  0  0  0  0  0  0  0  0
    6.8768   -1.3678    1.8783 H   0  0  0  0  0  0  0  0  0  0  0  0
    6.3845   -0.7973    3.4607 H   0  0  0  0  0  0  0  0  0  0  0  0
    7.8171    1.1768    3.2850 H   0  0  0  0  0  0  0  0  0  0  0  0
    9.3545   -1.3284    2.4195 H   0  0  0  0  0  0  0  0  0  0  0  0
   10.0399    0.0960    3.2205 H   0  0  0  0  0  0  0  0  0  0  0  0
    8.8782   -0.9274    4.0802 H   0  0  0  0  0  0  0  0  0  0  0  0
    8.6156    0.1728    0.5064 H   0  0  0  0  0  0  0  0  0  0  0  0
    9.2221    1.6145    1.3134 H   0  0  0  0  0  0  0  0  0  0  0  0
    6.9659    2.6310    1.3119 H   0  0  0  0  0  0  0  0  0  0  0  0
    7.4490    2.2121   -0.3139 H   0  0  0  0  0  0  0  0  0  0  0  0
    4.1984   -2.3981   -0.6403 H   0  0  0  0  0  0  0  0  0  0  0  0
    1.7755   -2.7630   -0.7800 H   0  0  0  0  0  0  0  0  0  0  0  0
  1  2  1  0
  2  3  2  0
  3  4  1  0
  4  5  2  0
  5  6  1  0
  6  7  2  0
  7  8  1  0
  8  9  2  0
  9 10  1  0
 10 11  1  0
 11 12  1  0
 12 13  1  0
 13 14  1  0
 14 15  2  0
 14 16  1  0
 16 17  1  0
 17 18  2  0
 18 19  1  0
 19 20  2  0
 20 21  1  0
 21 22  2  0
 21 23  2  0
 21 24  1  0
 24 25  1  0
 25 26  1  0
 26 27  1  0
 27 28  1  0
 27 29  1  0
 29 30  1  0
 20 31  1  0
 31 32  2  0
 11 33  2  0
 33 34  1  0
 34 35  2  0
 35  2  1  0
  9  4  1  0
 35 10  1  0
 32 17  1  0
 30 24  1  0
  1 36  1  0
  1 37  1  0
  1 38  1  0
  3 39  1  0
  5 40  1  0
  6 41  1  0
  7 42  1  0
  8 43  1  0
 13 44  1  0
 13 45  1  0
 16 46  1  0
 18 47  1  0
 19 48  1  0
 25 49  1  0
 25 50  1  0
 26 51  1  0
 26 52  1  0
 27 53  1  0
 28 54  1  0
 28 55  1  0
 28 56  1  0
 29 57  1  0
 29 58  1  0
 30 59  1  0
 30 60  1  0
 31 61  1  0
 32 62  1  0
M  END
$$$$
