
     RDKit          3D

 56 59  0  0  0  0  0  0  0  0999 V2000
    4.1303   -4.4459    1.2578 C   0  0  0  0  0  0  0  0  0  0  0  0
    3.9504   -3.1164    1.7417 O   0  0  0  0  0  0  0  0  0  0  0  0
    3.6962   -2.1489    0.8108 C   0  0  0  0  0  0  0  0  0  0  0  0
    3.6602   -2.3297   -0.5723 C   0  0  0  0  0  0  0  0  0  0  0  0
    3.3812   -1.2464   -1.4141 C   0  0  0  0  0  0  0  0  0  0  0  0
    3.1216    0.0178   -0.8816 C   0  0  0  0  0  0  0  0  0  0  0  0
    2.8060    1.1256   -1.7338 N   0  0  0  0  0  0  0  0  0  0  0  0
    1.3374    1.0463   -2.5986 S   0  0  0  0  0  6  0  0  0  0  0  0
    1.2492   -0.2409   -3.2625 O   0  0  0  0  0  0  0  0  0  0  0  0
    1.2045    2.2620   -3.3755 O   0  0  0  0  0  0  0  0  0  0  0  0
    0.1132    1.0831   -1.3050 C   0  0  0  0  0  0  0  0  0  0  0  0
   -0.8117    0.0232   -1.2730 C   0  0  0  0  0  0  0  0  0  0  0  0
   -1.7809   -0.0488   -0.2731 C   0  0  0  0  0  0  0  0  0  0  0  0
   -2.6641   -1.1477   -0.3144 N   0  0  0  0  0  0  0  0  0  0  0  0
   -3.7188   -1.4138    0.5378 C   0  0  0  0  0  0  0  0  0  0  0  0
   -4.1074   -0.6977    1.4551 O   0  0  0  0  0  0  0  0  0  0  0  0
   -4.4979   -2.6467    0.2587 C   0  0  0  0  0  0  0  0  0  0  0  0
   -5.8795   -2.6065    0.4864 C   0  0  0  0  0  0  0  0  0  0  0  0
   -6.6632   -3.7301    0.2322 C   0  0  0  0  0  0  0  0  0  0  0  0
   -6.0392   -4.8699   -0.2406 C   0  0  0  0  0  0  0  0  0  0  0  0
   -4.7096   -4.9533   -0.4619 N   0  0  0  0  0  0  0  0  0  0  0  0
   -3.9692   -3.8477   -0.1966 C   0  0  0  0  0  0  0  0  0  0  0  0
   -2.2936   -4.1291   -0.4731 Cl  0  0  0  0  0  0  0  0  0  0  0  0
   -1.8135    0.9511    0.6924 C   0  0  0  0  0  0  0  0  0  0  0  0
   -0.8891    2.0068    0.6599 C   0  0  0  0  0  0  0  0  0  0  0  0
    0.1049    2.0986   -0.3301 C   0  0  0  0  0  0  0  0  0  0  0  0
    1.0196    3.1742   -0.3585 N   0  0  0  0  0  0  0  0  0  0  0  0
    1.5324    3.6715    0.9405 C   0  0  0  0  0  0  0  0  0  0  0  0
    0.9903    5.0860    1.0859 C   0  0  0  0  0  0  0  0  0  0  0  0
    0.9484    5.5662   -0.3503 C   0  0  0  0  0  0  0  0  0  0  0  0
    0.4437    4.3353   -1.0962 C   0  0  0  0  0  0  0  0  0  0  0  0
    3.1826    0.2052    0.4972 C   0  0  0  0  0  0  0  0  0  0  0  0
    3.4657   -0.8754    1.3367 C   0  0  0  0  0  0  0  0  0  0  0  0
    5.0094   -4.5132    0.6076 H   0  0  0  0  0  0  0  0  0  0  0  0
    3.2280   -4.7985    0.7513 H   0  0  0  0  0  0  0  0  0  0  0  0
    4.3027   -5.1016    2.1188 H   0  0  0  0  0  0  0  0  0  0  0  0
    3.8433   -3.2959   -1.0321 H   0  0  0  0  0  0  0  0  0  0  0  0
    3.3693   -1.4023   -2.4913 H   0  0  0  0  0  0  0  0  0  0  0  0
    2.8046    2.0397   -1.2644 H   0  0  0  0  0  0  0  0  0  0  0  0
   -0.7644   -0.7490   -2.0383 H   0  0  0  0  0  0  0  0  0  0  0  0
   -2.4914   -1.8099   -1.0675 H   0  0  0  0  0  0  0  0  0  0  0  0
   -6.3475   -1.6984    0.8614 H   0  0  0  0  0  0  0  0  0  0  0  0
   -7.7355   -3.7131    0.4010 H   0  0  0  0  0  0  0  0  0  0  0  0
   -6.6062   -5.7720   -0.4583 H   0  0  0  0  0  0  0  0  0  0  0  0
   -2.5462    0.9481    1.4931 H   0  0  0  0  0  0  0  0  0  0  0  0
   -0.9800    2.7707    1.4284 H   0  0  0  0  0  0  0  0  0  0  0  0
    1.2929    3.0411    1.8038 H   0  0  0  0  0  0  0  0  0  0  0  0
    2.6261    3.7087    0.8674 H   0  0  0  0  0  0  0  0  0  0  0  0
   -0.0193    5.0685    1.5127 H   0  0  0  0  0  0  0  0  0  0  0  0
    1.6228    5.7111    1.7231 H   0  0  0  0  0  0  0  0  0  0  0  0
    0.2990    6.4346   -0.4891 H   0  0  0  0  0  0  0  0  0  0  0  0
    1.9559    5.8314   -0.6925 H   0  0  0  0  0  0  0  0  0  0  0  0
   -0.6539    4.3274   -1.0873 H   0  0  0  0  0  0  0  0  0  0  0  0
    0.7804    4.3581   -2.1345 H   0  0  0  0  0  0  0  0  0  0  0  0
    3.0078    1.1794    0.9374 H   0  0  0  0  0  0  0  0  0  0  0  0
    3.5021   -0.7230    2.4128 H   0  0  0  0  0  0  0  0  0  0  0  0
  1  2  1  0
  2  3  1  0
  3  4  2  0
  4  5  1  0
  5  6  2  0
  6  7  1  0
  7  8  1  0
  8  9  2  0
  8 10  2  0
  8 11  1  0
 11 12  2  0
 12 13  1  0
 13 14  1  0
 14 15  1  0
 15 16  2  0
 15 17  1  0
 17 18  2  0
 18 19  1  0
 19 20  2  0
 20 21  1  0
 21 22  2  0
 22 23  1  0
 13 24  2  0
 24 25  1  0
 25 26  2  0
 26 27  1  0
 27 28  1  0
 28 29  1  0
 29 30  1  0
 30 31  1  0
  6 32  1  0
 32 33  2  0
 33  3  1  0
 26 11  1  0
 31 27  1  0
 22 17  1  0
  1 34  1  0
  1 35  1  0
  1 36  1  0
  4 37  1  0
  5 38  1  0
  7 39  1  0
 12 40  1  0
 14 41  1  0
 18 42  1  0
 19 43  1  0
 20 44  1  0
 24 45  1  0
 25 46  1  0
 28 47  1  0
 28 48  1  0
 29 49  1  0
 29 50  1  0
 30 51  1  0
 30 52  1  0
 31 53  1  0
 31 54  1  0
 32 55  1  0
 33 56  1  0
M  END
$$$$
