
     RDKit          3D

 51 54  0  0  0  0  0  0  0  0999 V2000
    2.4658    0.3856   -2.3632 C   0  0  0  0  0  0  0  0  0  0  0  0
    2.2645   -0.9206   -1.5902 C   0  0  0  0  0  0  0  0  0  0  0  0
    0.9044   -1.5560   -1.9562 C   0  0  0  0  0  0  0  0  0  0  0  0
    0.1092   -1.3290   -0.7115 C   0  0  0  0  0  0  0  0  0  0  0  0
   -1.2400   -1.5969   -0.5240 C   0  0  0  0  0  0  0  0  0  0  0  0
   -1.7811   -1.3753    0.7465 C   0  0  0  0  0  0  0  0  0  0  0  0
   -3.5018   -1.7363    1.0441 S   0  0  0  0  0  6  0  0  0  0  0  0
   -3.9357   -2.6475    0.0073 O   0  0  0  0  0  0  0  0  0  0  0  0
   -3.6365   -2.0808    2.4424 O   0  0  0  0  0  0  0  0  0  0  0  0
   -4.2664   -0.2348    0.7866 N   0  0  0  0  0  0  0  0  0  0  0  0
   -4.0031    0.8226    1.7931 C   0  0  0  0  0  0  0  0  0  0  0  0
   -5.0834    1.8970    1.6892 C   0  0  0  0  0  0  0  0  0  0  0  0
   -5.1582    2.4699    0.2775 C   0  0  0  0  0  0  0  0  0  0  0  0
   -5.3423    1.3541   -0.7481 C   0  0  0  0  0  0  0  0  0  0  0  0
   -4.2657    0.2808   -0.6038 C   0  0  0  0  0  0  0  0  0  0  0  0
   -0.9723   -0.9399    1.8097 C   0  0  0  0  0  0  0  0  0  0  0  0
    0.3868   -0.6790    1.5992 C   0  0  0  0  0  0  0  0  0  0  0  0
    0.9177   -0.8684    0.3319 C   0  0  0  0  0  0  0  0  0  0  0  0
    2.2450   -0.6878   -0.1220 N   0  0  0  0  0  0  0  0  0  0  0  0
    3.3226   -0.3198    0.6858 C   0  0  0  0  0  0  0  0  0  0  0  0
    3.1869   -0.0239    1.8816 O   0  0  0  0  0  0  0  0  0  0  0  0
    4.7396   -0.3074    0.0356 C   0  0  0  0  0  0  0  0  0  0  0  0
    5.9263   -0.7728    0.9316 C   0  0  0  0  0  0  0  0  0  0  0  0
    6.7823    0.3131    0.2539 C   0  0  0  0  0  0  0  0  0  0  0  0
    5.4718    1.0642   -0.0398 C   0  0  0  0  0  0  0  0  0  0  0  0
    3.4305    0.8459   -2.1342 H   0  0  0  0  0  0  0  0  0  0  0  0
    1.6887    1.1188   -2.1220 H   0  0  0  0  0  0  0  0  0  0  0  0
    2.4356    0.2041   -3.4433 H   0  0  0  0  0  0  0  0  0  0  0  0
    3.0708   -1.6189   -1.8382 H   0  0  0  0  0  0  0  0  0  0  0  0
    1.0176   -2.6326   -2.1284 H   0  0  0  0  0  0  0  0  0  0  0  0
    0.4374   -1.0947   -2.8325 H   0  0  0  0  0  0  0  0  0  0  0  0
   -1.8492   -1.9846   -1.3357 H   0  0  0  0  0  0  0  0  0  0  0  0
   -4.0273    0.4073    2.8053 H   0  0  0  0  0  0  0  0  0  0  0  0
   -3.0155    1.2662    1.6251 H   0  0  0  0  0  0  0  0  0  0  0  0
   -6.0566    1.4673    1.9558 H   0  0  0  0  0  0  0  0  0  0  0  0
   -4.8779    2.6998    2.4055 H   0  0  0  0  0  0  0  0  0  0  0  0
   -5.9886    3.1814    0.2073 H   0  0  0  0  0  0  0  0  0  0  0  0
   -4.2378    3.0239    0.0571 H   0  0  0  0  0  0  0  0  0  0  0  0
   -6.3325    0.8986   -0.6125 H   0  0  0  0  0  0  0  0  0  0  0  0
   -5.3153    1.7741   -1.7604 H   0  0  0  0  0  0  0  0  0  0  0  0
   -4.4842   -0.5227   -1.3140 H   0  0  0  0  0  0  0  0  0  0  0  0
   -3.2829    0.7002   -0.8487 H   0  0  0  0  0  0  0  0  0  0  0  0
   -1.3897   -0.8102    2.8072 H   0  0  0  0  0  0  0  0  0  0  0  0
    0.9926   -0.3435    2.4324 H   0  0  0  0  0  0  0  0  0  0  0  0
    4.7860   -0.8276   -0.9266 H   0  0  0  0  0  0  0  0  0  0  0  0
    5.7829   -0.6075    2.0065 H   0  0  0  0  0  0  0  0  0  0  0  0
    6.2612   -1.8015    0.7764 H   0  0  0  0  0  0  0  0  0  0  0  0
    7.4947    0.8348    0.8976 H   0  0  0  0  0  0  0  0  0  0  0  0
    7.3024   -0.0353   -0.6461 H   0  0  0  0  0  0  0  0  0  0  0  0
    5.4361    1.5704   -1.0072 H   0  0  0  0  0  0  0  0  0  0  0  0
    5.1846    1.7754    0.7419 H   0  0  0  0  0  0  0  0  0  0  0  0
  1  2  1  0
  2  3  1  0
  3  4  1  0
  4  5  2  0
  5  6  1  0
  6  7  1  0
  7  8  2  0
  7  9  2  0
  7 10  1  0
 10 11  1  0
 11 12  1  0
 12 13  1  0
 13 14  1  0
 14 15  1  0
  6 16  2  0
 16 17  1  0
 17 18  2  0
 18 19  1  0
 19 20  1  0
 20 21  2  0
 20 22  1  0
 22 23  1  0
 23 24  1  0
 24 25  1  0
 19  2  1  0
 25 22  1  0
 18  4  1  0
 15 10  1  0
  1 26  1  0
  1 27  1  0
  1 28  1  0
  2 29  1  0
  3 30  1  0
  3 31  1  0
  5 32  1  0
 11 33  1  0
 11 34  1  0
 12 35  1  0
 12 36  1  0
 13 37  1  0
 13 38  1  0
 14 39  1  0
 14 40  1  0
 15 41  1  0
 15 42  1  0
 16 43  1  0
 17 44  1  0
 22 45  1  0
 23 46  1  0
 23 47  1  0
 24 48  1  0
 24 49  1  0
 25 50  1  0
 25 51  1  0
M  END
$$$$
