
     RDKit          3D

 39 41  0  0  0  0  0  0  0  0999 V2000
   -3.2589   -1.5234    1.7673 C   0  0  0  0  0  0  0  0  0  0  0  0
   -2.8086   -0.4953    0.8881 O   0  0  0  0  0  0  0  0  0  0  0  0
   -3.7818    0.1419    0.1628 C   0  0  0  0  0  0  0  0  0  0  0  0
   -4.9855   -0.4665   -0.2128 C   0  0  0  0  0  0  0  0  0  0  0  0
   -5.9234    0.2315   -0.9749 C   0  0  0  0  0  0  0  0  0  0  0  0
   -5.6626    1.5372   -1.3757 C   0  0  0  0  0  0  0  0  0  0  0  0
   -4.4594    2.1449   -1.0193 C   0  0  0  0  0  0  0  0  0  0  0  0
   -3.5026    1.4573   -0.2492 C   0  0  0  0  0  0  0  0  0  0  0  0
   -2.2143    2.1616    0.1134 C   0  0  0  0  0  0  0  0  0  0  0  0
   -1.0483    2.2265   -1.2778 S   0  0  0  0  0  0  0  0  0  0  0  0
    0.1024    1.0179   -0.8507 C   0  0  0  0  0  0  0  0  0  0  0  0
    1.4046    1.1596   -0.8480 N   0  0  0  0  0  0  0  0  0  0  0  0
    1.9063   -0.0701   -0.4767 C   0  0  0  0  0  0  0  0  0  0  0  0
    3.3320   -0.3350   -0.3484 C   0  0  0  0  0  0  0  0  0  0  0  0
    3.8226   -1.5310    0.1967 C   0  0  0  0  0  0  0  0  0  0  0  0
    5.2001   -1.7551    0.3082 C   0  0  0  0  0  0  0  0  0  0  0  0
    6.0986   -0.7746   -0.1294 C   0  0  0  0  0  0  0  0  0  0  0  0
    7.5434   -1.0088   -0.0165 N   0  0  0  0  0  4  0  0  0  0  0  0
    7.9171   -2.1057    0.4246 O   0  0  0  0  0  0  0  0  0  0  0  0
    8.3049   -0.0982   -0.3698 O   0  0  0  0  0  1  0  0  0  0  0  0
    5.6287    0.4246   -0.6741 C   0  0  0  0  0  0  0  0  0  0  0  0
    4.2506    0.6368   -0.7785 C   0  0  0  0  0  0  0  0  0  0  0  0
    0.8744   -0.9619   -0.2665 C   0  0  0  0  0  0  0  0  0  0  0  0
   -0.2693   -0.2511   -0.5219 N   0  0  0  0  0  0  0  0  0  0  0  0
   -4.1126   -1.1942    2.3702 H   0  0  0  0  0  0  0  0  0  0  0  0
   -2.4387   -1.7589    2.4506 H   0  0  0  0  0  0  0  0  0  0  0  0
   -3.4963   -2.4334    1.2086 H   0  0  0  0  0  0  0  0  0  0  0  0
   -5.2167   -1.4906    0.0610 H   0  0  0  0  0  0  0  0  0  0  0  0
   -6.8569   -0.2476   -1.2612 H   0  0  0  0  0  0  0  0  0  0  0  0
   -6.3938    2.0821   -1.9677 H   0  0  0  0  0  0  0  0  0  0  0  0
   -4.2649    3.1644   -1.3496 H   0  0  0  0  0  0  0  0  0  0  0  0
   -1.7476    1.7276    1.0043 H   0  0  0  0  0  0  0  0  0  0  0  0
   -2.4523    3.1953    0.3918 H   0  0  0  0  0  0  0  0  0  0  0  0
    3.1437   -2.3037    0.5482 H   0  0  0  0  0  0  0  0  0  0  0  0
    5.5505   -2.6920    0.7369 H   0  0  0  0  0  0  0  0  0  0  0  0
    6.3097    1.1990   -1.0201 H   0  0  0  0  0  0  0  0  0  0  0  0
    3.8889    1.5731   -1.2052 H   0  0  0  0  0  0  0  0  0  0  0  0
    0.8384   -2.0018    0.0224 H   0  0  0  0  0  0  0  0  0  0  0  0
   -1.2224   -0.5824   -0.4538 H   0  0  0  0  0  0  0  0  0  0  0  0
  1  2  1  0
  2  3  1  0
  3  4  2  0
  4  5  1  0
  5  6  2  0
  6  7  1  0
  7  8  2  0
  8  9  1  0
  9 10  1  0
 10 11  1  0
 11 12  2  0
 12 13  1  0
 13 14  1  0
 14 15  2  0
 15 16  1  0
 16 17  2  0
 17 18  1  0
 18 19  2  0
 18 20  1  0
 17 21  1  0
 21 22  2  0
 13 23  2  0
 23 24  1  0
  8  3  1  0
 24 11  1  0
 22 14  1  0
  1 25  1  0
  1 26  1  0
  1 27  1  0
  4 28  1  0
  5 29  1  0
  6 30  1  0
  7 31  1  0
  9 32  1  0
  9 33  1  0
 15 34  1  0
 16 35  1  0
 21 36  1  0
 22 37  1  0
 23 38  1  0
 24 39  1  0
M  CHG  2  18   1  20  -1
M  END
$$$$
