
     RDKit          3D

 49 51  0  0  0  0  0  0  0  0999 V2000
   -1.8767   -1.0023    3.4580 C   0  0  0  0  0  0  0  0  0  0  0  0
   -2.4465   -1.1907    2.0746 C   0  0  0  0  0  0  0  0  0  0  0  0
   -3.5221   -2.2154    1.9244 C   0  0  0  0  0  0  0  0  0  0  0  0
   -4.0470   -2.3142    0.6942 C   0  0  0  0  0  0  0  0  0  0  0  0
   -5.1270   -3.2941    0.3513 C   0  0  0  0  0  0  0  0  0  0  0  0
   -3.5717   -1.4984   -0.3042 N   0  0  0  0  0  0  0  0  0  0  0  0
   -2.5158   -0.6477   -0.1343 C   0  0  0  0  0  0  0  0  0  0  0  0
   -2.0283   -0.0333   -1.1661 N   0  0  0  0  0  0  0  0  0  0  0  0
   -0.9177    0.7528   -1.0259 C   0  0  0  0  0  0  0  0  0  0  0  0
    0.1382    0.4818   -1.7231 N   0  0  0  0  0  0  0  0  0  0  0  0
    0.1939   -0.7988   -2.7038 S   0  0  0  0  0  6  0  0  0  0  0  0
   -0.0597   -2.0359   -1.9840 O   0  0  0  0  0  0  0  0  0  0  0  0
   -0.5484   -0.5070   -3.9195 O   0  0  0  0  0  0  0  0  0  0  0  0
    1.9199   -0.7934   -3.1761 C   0  0  0  0  0  0  0  0  0  0  0  0
    2.8266   -0.9215   -1.9778 C   0  0  0  0  0  0  0  0  0  0  0  0
    3.4018    0.2173   -1.3951 C   0  0  0  0  0  0  0  0  0  0  0  0
    4.2364    0.1016   -0.2826 C   0  0  0  0  0  0  0  0  0  0  0  0
    4.5100   -1.1533    0.2568 C   0  0  0  0  0  0  0  0  0  0  0  0
    3.9469   -2.2928   -0.3137 C   0  0  0  0  0  0  0  0  0  0  0  0
    3.1098   -2.1787   -1.4248 C   0  0  0  0  0  0  0  0  0  0  0  0
   -0.9922    1.8323   -0.1715 N   0  0  0  0  0  0  0  0  0  0  0  0
    0.0031    2.7876    0.1202 C   0  0  0  0  0  0  0  0  0  0  0  0
    0.9214    3.2247   -0.8457 C   0  0  0  0  0  0  0  0  0  0  0  0
    1.8950    4.1836   -0.5456 C   0  0  0  0  0  0  0  0  0  0  0  0
    1.9620    4.7364    0.7292 C   0  0  0  0  0  0  0  0  0  0  0  0
    1.0481    4.3394    1.7017 C   0  0  0  0  0  0  0  0  0  0  0  0
    0.0751    3.3808    1.3962 C   0  0  0  0  0  0  0  0  0  0  0  0
   -1.1505    2.9042    2.7717 Br  0  0  0  0  0  0  0  0  0  0  0  0
   -1.9860   -0.4410    1.1183 N   0  0  0  0  0  0  0  0  0  0  0  0
   -2.0521   -1.8831    4.0813 H   0  0  0  0  0  0  0  0  0  0  0  0
   -0.7982   -0.8302    3.3932 H   0  0  0  0  0  0  0  0  0  0  0  0
   -2.3505   -0.1342    3.9244 H   0  0  0  0  0  0  0  0  0  0  0  0
   -3.8265   -2.8144    2.7704 H   0  0  0  0  0  0  0  0  0  0  0  0
   -5.4249   -3.8948    1.2172 H   0  0  0  0  0  0  0  0  0  0  0  0
   -6.0157   -2.7685   -0.0135 H   0  0  0  0  0  0  0  0  0  0  0  0
   -4.7850   -3.9802   -0.4306 H   0  0  0  0  0  0  0  0  0  0  0  0
   -3.8425   -1.6785   -1.2625 H   0  0  0  0  0  0  0  0  0  0  0  0
    2.0743   -1.6280   -3.8684 H   0  0  0  0  0  0  0  0  0  0  0  0
    2.1140    0.1339   -3.7258 H   0  0  0  0  0  0  0  0  0  0  0  0
    3.1939    1.2069   -1.7955 H   0  0  0  0  0  0  0  0  0  0  0  0
    4.6667    0.9925    0.1671 H   0  0  0  0  0  0  0  0  0  0  0  0
    5.1561   -1.2428    1.1258 H   0  0  0  0  0  0  0  0  0  0  0  0
    4.1521   -3.2718    0.1113 H   0  0  0  0  0  0  0  0  0  0  0  0
    2.6667   -3.0794   -1.8465 H   0  0  0  0  0  0  0  0  0  0  0  0
   -1.6117    1.6411    0.6111 H   0  0  0  0  0  0  0  0  0  0  0  0
    0.8769    2.8393   -1.8610 H   0  0  0  0  0  0  0  0  0  0  0  0
    2.5933    4.5026   -1.3153 H   0  0  0  0  0  0  0  0  0  0  0  0
    2.7171    5.4829    0.9617 H   0  0  0  0  0  0  0  0  0  0  0  0
    1.0974    4.7828    2.6928 H   0  0  0  0  0  0  0  0  0  0  0  0
  1  2  1  0
  2  3  1  0
  3  4  2  0
  4  5  1  0
  4  6  1  0
  6  7  1  0
  7  8  2  3
  8  9  1  0
  9 10  2  3
 10 11  1  0
 11 12  2  0
 11 13  2  0
 11 14  1  0
 14 15  1  0
 15 16  2  0
 16 17  1  0
 17 18  2  0
 18 19  1  0
 19 20  2  0
  9 21  1  0
 21 22  1  0
 22 23  2  0
 23 24  1  0
 24 25  2  0
 25 26  1  0
 26 27  2  0
 27 28  1  0
  7 29  1  0
 29  2  2  0
 20 15  1  0
 27 22  1  0
  1 30  1  0
  1 31  1  0
  1 32  1  0
  3 33  1  0
  5 34  1  0
  5 35  1  0
  5 36  1  0
  6 37  1  0
 14 38  1  0
 14 39  1  0
 16 40  1  0
 17 41  1  0
 18 42  1  0
 19 43  1  0
 20 44  1  0
 21 45  1  0
 23 46  1  0
 24 47  1  0
 25 48  1  0
 26 49  1  0
M  END
$$$$
