
     RDKit          3D

 72 75  0  0  0  0  0  0  0  0999 V2000
   -4.1450    1.4300   -3.6766 C   0  0  0  0  0  0  0  0  0  0  0  0
   -4.8110    0.9598   -2.4153 C   0  0  0  0  0  0  0  0  0  0  0  0
   -6.0122    1.5633   -2.0243 C   0  0  0  0  0  0  0  0  0  0  0  0
   -6.6903    1.1483   -0.8721 C   0  0  0  0  0  0  0  0  0  0  0  0
   -6.2116    0.0983   -0.0697 C   0  0  0  0  0  0  0  0  0  0  0  0
   -6.9920   -0.3452    1.1803 C   0  0  0  0  0  0  0  0  0  0  0  0
   -6.9612    0.7894    2.2262 C   0  0  0  0  0  0  0  0  0  0  0  0
   -8.4602   -0.6542    0.8099 C   0  0  0  0  0  0  0  0  0  0  0  0
   -6.4247   -1.6165    1.8535 C   0  0  0  0  0  0  0  0  0  0  0  0
   -5.0046   -0.5013   -0.4604 C   0  0  0  0  0  0  0  0  0  0  0  0
   -4.3091   -0.0763   -1.6100 C   0  0  0  0  0  0  0  0  0  0  0  0
   -2.7682   -0.9015   -1.9910 S   0  0  0  0  0  6  0  0  0  0  0  0
   -2.5224   -1.9060   -0.9778 O   0  0  0  0  0  0  0  0  0  0  0  0
   -2.7987   -1.2687   -3.3908 O   0  0  0  0  0  0  0  0  0  0  0  0
   -1.6011    0.3251   -1.7807 N   0  0  0  0  0  0  0  0  0  0  0  0
   -1.5216    1.0020   -0.4635 C   0  0  0  0  0  0  0  0  0  0  0  0
   -0.6093    0.2693    0.5085 C   0  0  0  0  0  0  0  0  0  0  0  0
    0.7848    0.0556   -0.0989 C   0  0  0  0  0  0  0  0  0  0  0  0
    1.6988   -0.6887    0.8759 C   0  0  0  0  0  0  0  0  0  0  0  0
    1.2223   -1.2928    1.8400 O   0  0  0  0  0  0  0  0  0  0  0  0
    3.0688   -0.6529    0.6570 N   0  0  0  0  0  0  0  0  0  0  0  0
    3.9262   -1.5290    1.4708 C   0  0  0  0  0  0  0  0  0  0  0  0
    5.2838   -0.8921    1.8236 C   0  0  0  0  0  0  0  0  0  0  0  0
    5.9438   -0.3574    0.6044 N   0  0  0  0  0  0  0  0  0  0  0  0
    7.2876   -0.0029    0.8137 C   0  0  0  0  0  0  0  0  0  0  0  0
    8.2202   -1.0097    1.1205 C   0  0  0  0  0  0  0  0  0  0  0  0
    9.5744   -0.7219    1.3238 C   0  0  0  0  0  0  0  0  0  0  0  0
   10.0141    0.5898    1.2192 C   0  0  0  0  0  0  0  0  0  0  0  0
   11.3218    0.9227    1.4071 O   0  0  0  0  0  0  0  0  0  0  0  0
    9.1239    1.6071    0.9113 C   0  0  0  0  0  0  0  0  0  0  0  0
    7.7716    1.3098    0.7063 C   0  0  0  0  0  0  0  0  0  0  0  0
    5.0884    0.6024   -0.1191 C   0  0  0  0  0  0  0  0  0  0  0  0
    3.7487   -0.0545   -0.5012 C   0  0  0  0  0  0  0  0  0  0  0  0
    0.6335   -0.7080   -1.4202 C   0  0  0  0  0  0  0  0  0  0  0  0
   -0.2732    0.0531   -2.3803 C   0  0  0  0  0  0  0  0  0  0  0  0
   -3.1016    1.7005   -3.4982 H   0  0  0  0  0  0  0  0  0  0  0  0
   -4.6354    2.3252   -4.0752 H   0  0  0  0  0  0  0  0  0  0  0  0
   -4.2025    0.6581   -4.4500 H   0  0  0  0  0  0  0  0  0  0  0  0
   -6.4420    2.3699   -2.6175 H   0  0  0  0  0  0  0  0  0  0  0  0
   -7.6127    1.6652   -0.6152 H   0  0  0  0  0  0  0  0  0  0  0  0
   -7.4238    1.7088    1.8478 H   0  0  0  0  0  0  0  0  0  0  0  0
   -7.5018    0.5024    3.1364 H   0  0  0  0  0  0  0  0  0  0  0  0
   -5.9322    1.0354    2.5151 H   0  0  0  0  0  0  0  0  0  0  0  0
   -8.9976    0.2354    0.4602 H   0  0  0  0  0  0  0  0  0  0  0  0
   -9.0158   -1.0388    1.6739 H   0  0  0  0  0  0  0  0  0  0  0  0
   -8.5143   -1.4084    0.0149 H   0  0  0  0  0  0  0  0  0  0  0  0
   -5.4059   -1.4597    2.2291 H   0  0  0  0  0  0  0  0  0  0  0  0
   -6.4070   -2.4648    1.1577 H   0  0  0  0  0  0  0  0  0  0  0  0
   -7.0371   -1.9161    2.7125 H   0  0  0  0  0  0  0  0  0  0  0  0
   -4.5788   -1.3105    0.1278 H   0  0  0  0  0  0  0  0  0  0  0  0
   -2.5131    1.1286   -0.0233 H   0  0  0  0  0  0  0  0  0  0  0  0
   -1.1415    2.0170   -0.6347 H   0  0  0  0  0  0  0  0  0  0  0  0
   -1.0554   -0.6920    0.7882 H   0  0  0  0  0  0  0  0  0  0  0  0
   -0.5264    0.8508    1.4353 H   0  0  0  0  0  0  0  0  0  0  0  0
    1.2106    1.0512   -0.2742 H   0  0  0  0  0  0  0  0  0  0  0  0
    4.0871   -2.4396    0.8802 H   0  0  0  0  0  0  0  0  0  0  0  0
    3.4223   -1.8262    2.3959 H   0  0  0  0  0  0  0  0  0  0  0  0
    5.1275   -0.0736    2.5394 H   0  0  0  0  0  0  0  0  0  0  0  0
    5.8957   -1.6552    2.3187 H   0  0  0  0  0  0  0  0  0  0  0  0
    7.8929   -2.0461    1.1765 H   0  0  0  0  0  0  0  0  0  0  0  0
   10.2584   -1.5322    1.5527 H   0  0  0  0  0  0  0  0  0  0  0  0
   11.8211    0.1125    1.6006 H   0  0  0  0  0  0  0  0  0  0  0  0
    9.4754    2.6313    0.8322 H   0  0  0  0  0  0  0  0  0  0  0  0
    7.1087    2.1373    0.4771 H   0  0  0  0  0  0  0  0  0  0  0  0
    5.5776    0.9382   -1.0418 H   0  0  0  0  0  0  0  0  0  0  0  0
    4.8882    1.4801    0.5095 H   0  0  0  0  0  0  0  0  0  0  0  0
    3.9230   -0.8655   -1.2185 H   0  0  0  0  0  0  0  0  0  0  0  0
    3.1227    0.6926   -0.9901 H   0  0  0  0  0  0  0  0  0  0  0  0
    0.2259   -1.7085   -1.2273 H   0  0  0  0  0  0  0  0  0  0  0  0
    1.6019   -0.8683   -1.9018 H   0  0  0  0  0  0  0  0  0  0  0  0
    0.1824    1.0161   -2.6442 H   0  0  0  0  0  0  0  0  0  0  0  0
   -0.3727   -0.4973   -3.3221 H   0  0  0  0  0  0  0  0  0  0  0  0
  1  2  1  0
  2  3  2  0
  3  4  1  0
  4  5  2  0
  5  6  1  0
  6  7  1  0
  6  8  1  0
  6  9  1  0
  5 10  1  0
 10 11  2  0
 11 12  1  0
 12 13  2  0
 12 14  2  0
 12 15  1  0
 15 16  1  0
 16 17  1  0
 17 18  1  0
 18 19  1  0
 19 20  2  0
 19 21  1  0
 21 22  1  0
 22 23  1  0
 23 24  1  0
 24 25  1  0
 25 26  2  0
 26 27  1  0
 27 28  2  0
 28 29  1  0
 28 30  1  0
 30 31  2  0
 24 32  1  0
 32 33  1  0
 18 34  1  0
 34 35  1  0
 11  2  1  0
 35 15  1  0
 33 21  1  0
 31 25  1  0
  1 36  1  0
  1 37  1  0
  1 38  1  0
  3 39  1  0
  4 40  1  0
  7 41  1  0
  7 42  1  0
  7 43  1  0
  8 44  1  0
  8 45  1  0
  8 46  1  0
  9 47  1  0
  9 48  1  0
  9 49  1  0
 10 50  1  0
 16 51  1  0
 16 52  1  0
 17 53  1  0
 17 54  1  0
 18 55  1  0
 22 56  1  0
 22 57  1  0
 23 58  1  0
 23 59  1  0
 26 60  1  0
 27 61  1  0
 29 62  1  0
 30 63  1  0
 31 64  1  0
 32 65  1  0
 32 66  1  0
 33 67  1  0
 33 68  1  0
 34 69  1  0
 34 70  1  0
 35 71  1  0
 35 72  1  0
M  END
$$$$
