
     RDKit          3D

 50 52  0  0  0  0  0  0  0  0999 V2000
   -4.8349    0.7137    2.1591 C   0  0  0  0  0  0  0  0  0  0  0  0
   -3.4523    1.0968    1.6411 C   0  0  0  0  0  0  0  0  0  0  0  0
   -2.6499   -0.0868    1.0559 C   0  0  0  0  0  0  0  0  0  0  0  0
   -3.3014   -0.7584   -0.1522 C   0  0  0  0  0  0  0  0  0  0  0  0
   -3.4941   -2.1498   -0.2260 C   0  0  0  0  0  0  0  0  0  0  0  0
   -4.0949   -2.7377   -1.3431 C   0  0  0  0  0  0  0  0  0  0  0  0
   -4.5083   -1.9496   -2.4124 C   0  0  0  0  0  0  0  0  0  0  0  0
   -4.3130   -0.5733   -2.3706 C   0  0  0  0  0  0  0  0  0  0  0  0
   -3.7122    0.0151   -1.2550 C   0  0  0  0  0  0  0  0  0  0  0  0
   -2.3074   -1.0162    2.1175 N   0  0  0  0  0  0  0  0  0  0  0  0
   -0.9545   -1.1252    2.3204 C   0  0  0  0  0  0  0  0  0  0  0  0
   -0.4478   -1.8781    3.1351 O   0  0  0  0  0  0  0  0  0  0  0  0
   -0.3207   -0.2557    1.4960 N   0  0  0  0  0  0  0  0  0  0  0  0
    1.1131   -0.1362    1.3759 C   0  0  0  0  0  0  0  0  0  0  0  0
    1.6278   -1.1070    0.3030 C   0  0  0  0  0  0  0  0  0  0  0  0
    0.8743   -1.9255   -0.2309 O   0  0  0  0  0  0  0  0  0  0  0  0
    2.9811   -1.0362   -0.0249 N   0  0  0  0  0  0  0  0  0  0  0  0
    3.4909   -1.9248   -1.0608 C   0  0  0  0  0  0  0  0  0  0  0  0
    3.9018   -0.0086    0.4638 C   0  0  0  0  0  0  0  0  0  0  0  0
    4.1935    1.0854   -0.5390 C   0  0  0  0  0  0  0  0  0  0  0  0
    3.1783    1.6867   -1.2991 C   0  0  0  0  0  0  0  0  0  0  0  0
    3.4735    2.7186   -2.1926 C   0  0  0  0  0  0  0  0  0  0  0  0
    4.7835    3.1699   -2.3321 C   0  0  0  0  0  0  0  0  0  0  0  0
    5.8003    2.5916   -1.5766 C   0  0  0  0  0  0  0  0  0  0  0  0
    5.5073    1.5595   -0.6828 C   0  0  0  0  0  0  0  0  0  0  0  0
   -1.2188    0.4067    0.7069 C   0  0  0  0  0  0  0  0  0  0  0  0
   -0.9341    1.2672   -0.1192 O   0  0  0  0  0  0  0  0  0  0  0  0
   -5.4702    0.3213    1.3596 H   0  0  0  0  0  0  0  0  0  0  0  0
   -4.7713   -0.0383    2.9513 H   0  0  0  0  0  0  0  0  0  0  0  0
   -5.3331    1.5950    2.5764 H   0  0  0  0  0  0  0  0  0  0  0  0
   -2.8912    1.5480    2.4711 H   0  0  0  0  0  0  0  0  0  0  0  0
   -3.5658    1.8940    0.8965 H   0  0  0  0  0  0  0  0  0  0  0  0
   -3.1664   -2.8081    0.5752 H   0  0  0  0  0  0  0  0  0  0  0  0
   -4.2287   -3.8161   -1.3803 H   0  0  0  0  0  0  0  0  0  0  0  0
   -4.9686   -2.4094   -3.2827 H   0  0  0  0  0  0  0  0  0  0  0  0
   -4.6174    0.0447   -3.2114 H   0  0  0  0  0  0  0  0  0  0  0  0
   -3.5516    1.0919   -1.2677 H   0  0  0  0  0  0  0  0  0  0  0  0
   -2.9568   -1.6199    2.6012 H   0  0  0  0  0  0  0  0  0  0  0  0
    1.5787   -0.3900    2.3333 H   0  0  0  0  0  0  0  0  0  0  0  0
    1.3490    0.8922    1.0908 H   0  0  0  0  0  0  0  0  0  0  0  0
    4.4697   -2.3077   -0.7569 H   0  0  0  0  0  0  0  0  0  0  0  0
    2.8259   -2.7754   -1.2318 H   0  0  0  0  0  0  0  0  0  0  0  0
    3.5895   -1.3652   -1.9953 H   0  0  0  0  0  0  0  0  0  0  0  0
    4.8288   -0.5259    0.7411 H   0  0  0  0  0  0  0  0  0  0  0  0
    3.5263    0.4561    1.3794 H   0  0  0  0  0  0  0  0  0  0  0  0
    2.1449    1.3565   -1.2158 H   0  0  0  0  0  0  0  0  0  0  0  0
    2.6768    3.1688   -2.7799 H   0  0  0  0  0  0  0  0  0  0  0  0
    5.0105    3.9728   -3.0285 H   0  0  0  0  0  0  0  0  0  0  0  0
    6.8226    2.9457   -1.6823 H   0  0  0  0  0  0  0  0  0  0  0  0
    6.3174    1.1268   -0.0993 H   0  0  0  0  0  0  0  0  0  0  0  0
  1  2  1  0
  2  3  1  0
  3  4  1  0
  4  5  2  0
  5  6  1  0
  6  7  2  0
  7  8  1  0
  8  9  2  0
  3 10  1  0
 10 11  1  0
 11 12  2  0
 11 13  1  0
 13 14  1  0
 14 15  1  0
 15 16  2  0
 15 17  1  0
 17 18  1  0
 17 19  1  0
 19 20  1  0
 20 21  2  0
 21 22  1  0
 22 23  2  0
 23 24  1  0
 24 25  2  0
 13 26  1  0
 26 27  2  0
 26  3  1  0
  9  4  1  0
 25 20  1  0
  1 28  1  0
  1 29  1  0
  1 30  1  0
  2 31  1  0
  2 32  1  0
  5 33  1  0
  6 34  1  0
  7 35  1  0
  8 36  1  0
  9 37  1  0
 10 38  1  0
 14 39  1  0
 14 40  1  0
 18 41  1  0
 18 42  1  0
 18 43  1  0
 19 44  1  0
 19 45  1  0
 21 46  1  0
 22 47  1  0
 23 48  1  0
 24 49  1  0
 25 50  1  0
M  END
$$$$
