
     RDKit          3D

 38 40  0  0  0  0  0  0  0  0999 V2000
   -3.5307   -2.6141   -2.6719 C   0  0  0  0  0  0  0  0  0  0  0  0
   -3.1084   -1.7379   -1.5302 C   0  0  0  0  0  0  0  0  0  0  0  0
   -2.6611   -0.4325   -1.7570 C   0  0  0  0  0  0  0  0  0  0  0  0
   -2.2907    0.3856   -0.6867 C   0  0  0  0  0  0  0  0  0  0  0  0
   -2.3569   -0.0858    0.6331 C   0  0  0  0  0  0  0  0  0  0  0  0
   -1.9735    0.7893    1.8030 C   0  0  0  0  0  0  0  0  0  0  0  0
   -0.5298    1.1578    1.6511 C   0  0  0  0  0  0  0  0  0  0  0  0
   -0.0338    2.4936    1.5468 C   0  0  0  0  0  0  0  0  0  0  0  0
    1.3390    2.4399    1.4679 C   0  0  0  0  0  0  0  0  0  0  0  0
    2.2456    3.4028    1.3582 O   0  0  0  0  0  0  0  0  0  0  0  0
    1.7063    1.1168    1.5173 N   0  0  0  0  0  0  0  0  0  0  0  0
    3.0764    0.6203    1.4671 C   0  0  0  0  0  0  0  0  0  0  0  0
    3.5091    0.2858    0.0836 C   0  0  0  0  0  0  0  0  0  0  0  0
    2.9539    0.4285   -1.1740 C   0  0  0  0  0  0  0  0  0  0  0  0
    3.8912   -0.0999   -2.0934 C   0  0  0  0  0  0  0  0  0  0  0  0
    4.9627   -0.5237   -1.3454 C   0  0  0  0  0  0  0  0  0  0  0  0
    4.7429   -0.2947   -0.0260 O   0  0  0  0  0  0  0  0  0  0  0  0
    0.5828    0.3296    1.6345 C   0  0  0  0  0  0  0  0  0  0  0  0
    0.6960   -0.9927    1.6936 O   0  0  0  0  0  0  0  0  0  0  0  0
   -2.8362   -1.3852    0.8562 C   0  0  0  0  0  0  0  0  0  0  0  0
   -3.2048   -2.2033   -0.2146 C   0  0  0  0  0  0  0  0  0  0  0  0
   -3.1400   -3.6280   -2.5407 H   0  0  0  0  0  0  0  0  0  0  0  0
   -4.6227   -2.6555   -2.7283 H   0  0  0  0  0  0  0  0  0  0  0  0
   -3.1468   -2.2379   -3.6257 H   0  0  0  0  0  0  0  0  0  0  0  0
   -2.5950   -0.0412   -2.7696 H   0  0  0  0  0  0  0  0  0  0  0  0
   -1.9428    1.3964   -0.8914 H   0  0  0  0  0  0  0  0  0  0  0  0
   -2.6159    1.6774    1.8177 H   0  0  0  0  0  0  0  0  0  0  0  0
   -2.1175    0.2663    2.7557 H   0  0  0  0  0  0  0  0  0  0  0  0
   -0.6309    3.3960    1.5388 H   0  0  0  0  0  0  0  0  0  0  0  0
    1.7669    4.2501    1.3298 H   0  0  0  0  0  0  0  0  0  0  0  0
    3.1365   -0.2613    2.1150 H   0  0  0  0  0  0  0  0  0  0  0  0
    3.7312    1.3857    1.8978 H   0  0  0  0  0  0  0  0  0  0  0  0
    1.9874    0.8625   -1.3946 H   0  0  0  0  0  0  0  0  0  0  0  0
    3.7982   -0.1608   -3.1679 H   0  0  0  0  0  0  0  0  0  0  0  0
    5.9094   -0.9854   -1.5872 H   0  0  0  0  0  0  0  0  0  0  0  0
   -0.1920   -1.3659    1.5511 H   0  0  0  0  0  0  0  0  0  0  0  0
   -2.9316   -1.7721    1.8685 H   0  0  0  0  0  0  0  0  0  0  0  0
   -3.5745   -3.2069   -0.0157 H   0  0  0  0  0  0  0  0  0  0  0  0
  1  2  1  0
  2  3  2  0
  3  4  1  0
  4  5  2  0
  5  6  1  0
  6  7  1  0
  7  8  1  0
  8  9  2  0
  9 10  1  0
  9 11  1  0
 11 12  1  0
 12 13  1  0
 13 14  2  0
 14 15  1  0
 15 16  2  0
 16 17  1  0
 11 18  1  0
 18 19  1  0
  5 20  1  0
 20 21  2  0
 21  2  1  0
 18  7  2  0
 17 13  1  0
  1 22  1  0
  1 23  1  0
  1 24  1  0
  3 25  1  0
  4 26  1  0
  6 27  1  0
  6 28  1  0
  8 29  1  0
 10 30  1  0
 12 31  1  0
 12 32  1  0
 14 33  1  0
 15 34  1  0
 16 35  1  0
 19 36  1  0
 20 37  1  0
 21 38  1  0
M  END
$$$$
