
     RDKit          3D

 49 52  0  0  0  0  0  0  0  0999 V2000
   -7.2281    1.5945   -1.1521 C   0  0  0  0  0  0  0  0  0  0  0  0
   -6.1842    0.8147   -0.4074 C   0  0  0  0  0  0  0  0  0  0  0  0
   -6.5379    0.0307    0.6964 C   0  0  0  0  0  0  0  0  0  0  0  0
   -5.5721   -0.7181    1.3764 C   0  0  0  0  0  0  0  0  0  0  0  0
   -5.9614   -1.5785    2.5419 C   0  0  0  0  0  0  0  0  0  0  0  0
   -4.2476   -0.7007    0.9168 C   0  0  0  0  0  0  0  0  0  0  0  0
   -3.8762    0.0699   -0.1937 C   0  0  0  0  0  0  0  0  0  0  0  0
   -2.5204    0.0208   -0.5856 N   0  0  0  0  0  0  0  0  0  0  0  0
   -1.9106    0.7441   -1.5950 C   0  0  0  0  0  0  0  0  0  0  0  0
   -2.4228    1.6147   -2.2881 O   0  0  0  0  0  0  0  0  0  0  0  0
   -0.4630    0.4426   -1.8035 C   0  0  0  0  0  0  0  0  0  0  0  0
    0.3737    1.4724   -2.2541 C   0  0  0  0  0  0  0  0  0  0  0  0
    1.7347    1.2334   -2.4633 C   0  0  0  0  0  0  0  0  0  0  0  0
    2.2746   -0.0313   -2.2205 C   0  0  0  0  0  0  0  0  0  0  0  0
    3.6356   -0.2712   -2.4339 N   0  0  0  0  0  0  0  0  0  0  0  0
    4.4441   -0.1289   -1.4460 C   0  0  0  0  0  0  0  0  0  0  0  0
    4.2194    0.2614   -0.1492 N   0  0  0  0  0  0  0  0  0  0  0  0
    5.4110    0.6923    0.5713 C   0  0  0  0  0  0  0  0  0  0  0  0
    5.2765    0.5129    2.0741 C   0  0  0  0  0  0  0  0  0  0  0  0
    6.1294   -0.9954    2.4760 S   0  0  0  0  0  6  0  0  0  0  0  0
    5.1921   -1.9298    3.0605 O   0  0  0  0  0  0  0  0  0  0  0  0
    7.3738   -0.6403    3.1274 O   0  0  0  0  0  0  0  0  0  0  0  0
    6.5049   -1.5015    0.8166 C   0  0  0  0  0  0  0  0  0  0  0  0
    6.5567   -0.1894    0.0516 C   0  0  0  0  0  0  0  0  0  0  0  0
    6.1618   -0.4426   -1.7086 S   0  0  0  0  0  0  0  0  0  0  0  0
    1.4329   -1.0669   -1.8053 C   0  0  0  0  0  0  0  0  0  0  0  0
    0.0689   -0.8370   -1.5978 C   0  0  0  0  0  0  0  0  0  0  0  0
   -4.8528    0.8187   -0.8521 C   0  0  0  0  0  0  0  0  0  0  0  0
   -6.8043    2.5143   -1.5690 H   0  0  0  0  0  0  0  0  0  0  0  0
   -7.6356    0.9896   -1.9678 H   0  0  0  0  0  0  0  0  0  0  0  0
   -8.0468    1.8880   -0.4866 H   0  0  0  0  0  0  0  0  0  0  0  0
   -7.5743    0.0045    1.0279 H   0  0  0  0  0  0  0  0  0  0  0  0
   -6.8108   -1.1460    3.0811 H   0  0  0  0  0  0  0  0  0  0  0  0
   -5.1355   -1.6660    3.2556 H   0  0  0  0  0  0  0  0  0  0  0  0
   -6.2359   -2.5788    2.1932 H   0  0  0  0  0  0  0  0  0  0  0  0
   -3.5058   -1.3007    1.4381 H   0  0  0  0  0  0  0  0  0  0  0  0
   -1.9288   -0.5659   -0.0140 H   0  0  0  0  0  0  0  0  0  0  0  0
   -0.0354    2.4614   -2.4537 H   0  0  0  0  0  0  0  0  0  0  0  0
    2.3744    2.0317   -2.8308 H   0  0  0  0  0  0  0  0  0  0  0  0
    3.3628    0.7888   -0.0095 H   0  0  0  0  0  0  0  0  0  0  0  0
    5.5850    1.7494    0.3344 H   0  0  0  0  0  0  0  0  0  0  0  0
    4.2388    0.4439    2.4102 H   0  0  0  0  0  0  0  0  0  0  0  0
    5.7832    1.3204    2.6113 H   0  0  0  0  0  0  0  0  0  0  0  0
    5.6997   -2.1689    0.4925 H   0  0  0  0  0  0  0  0  0  0  0  0
    7.4565   -2.0382    0.8047 H   0  0  0  0  0  0  0  0  0  0  0  0
    7.5255    0.3054    0.1777 H   0  0  0  0  0  0  0  0  0  0  0  0
    1.8439   -2.0634   -1.6610 H   0  0  0  0  0  0  0  0  0  0  0  0
   -0.5630   -1.6745   -1.3161 H   0  0  0  0  0  0  0  0  0  0  0  0
   -4.6065    1.4134   -1.7266 H   0  0  0  0  0  0  0  0  0  0  0  0
  1  2  1  0
  2  3  2  0
  3  4  1  0
  4  5  1  0
  4  6  2  0
  6  7  1  0
  7  8  1  0
  8  9  1  0
  9 10  2  0
  9 11  1  0
 11 12  2  0
 12 13  1  0
 13 14  2  0
 14 15  1  0
 15 16  2  3
 16 17  1  0
 17 18  1  0
 18 19  1  0
 19 20  1  0
 20 21  2  0
 20 22  2  0
 20 23  1  0
 23 24  1  0
 24 25  1  0
 14 26  1  0
 26 27  2  0
  7 28  2  0
 28  2  1  0
 27 11  1  0
 25 16  1  0
 24 18  1  0
  1 29  1  0
  1 30  1  0
  1 31  1  0
  3 32  1  0
  5 33  1  0
  5 34  1  0
  5 35  1  0
  6 36  1  0
  8 37  1  0
 12 38  1  0
 13 39  1  0
 17 40  1  0
 18 41  1  0
 19 42  1  0
 19 43  1  0
 23 44  1  0
 23 45  1  0
 24 46  1  0
 26 47  1  0
 27 48  1  0
 28 49  1  0
M  END
$$$$
