
     RDKit          3D

 63 68  0  0  0  0  0  0  0  0999 V2000
   -4.2902    4.1060    4.5073 C   0  0  0  0  0  0  0  0  0  0  0  0
   -3.9023    2.7385    4.5337 O   0  0  0  0  0  0  0  0  0  0  0  0
   -3.3885    2.2208    3.3765 C   0  0  0  0  0  0  0  0  0  0  0  0
   -3.1842    2.9161    2.1857 C   0  0  0  0  0  0  0  0  0  0  0  0
   -2.6479    2.2613    1.0706 C   0  0  0  0  0  0  0  0  0  0  0  0
   -2.3079    0.9008    1.1249 C   0  0  0  0  0  0  0  0  0  0  0  0
   -1.7220    0.2069   -0.1087 C   0  0  0  0  0  0  0  0  0  0  0  0
   -2.5616   -0.9893   -0.5233 C   0  0  0  0  0  0  0  0  0  0  0  0
   -3.8501   -0.8164   -1.0435 C   0  0  0  0  0  0  0  0  0  0  0  0
   -4.6256   -1.9235   -1.3882 C   0  0  0  0  0  0  0  0  0  0  0  0
   -4.1352   -3.2269   -1.2199 C   0  0  0  0  0  0  0  0  0  0  0  0
   -4.9214   -4.3395   -1.5636 C   0  0  0  0  0  0  0  0  0  0  0  0
   -4.4378   -5.6375   -1.3982 C   0  0  0  0  0  0  0  0  0  0  0  0
   -3.1614   -5.8409   -0.8874 C   0  0  0  0  0  0  0  0  0  0  0  0
   -2.3684   -4.7454   -0.5410 C   0  0  0  0  0  0  0  0  0  0  0  0
   -2.8349   -3.4222   -0.6975 C   0  0  0  0  0  0  0  0  0  0  0  0
   -2.0606   -2.2870   -0.3594 C   0  0  0  0  0  0  0  0  0  0  0  0
   -0.7974   -2.5085    0.1498 O   0  0  0  0  0  0  0  0  0  0  0  0
    0.1145   -1.4586    0.2241 C   0  0  0  0  0  0  0  0  0  0  0  0
    1.4175   -1.8559    0.4562 N   0  0  0  0  0  0  0  0  0  0  0  0
    2.2999   -0.9140    0.5334 C   0  0  0  0  0  0  0  0  0  0  0  0
    2.0663    0.4373    0.4068 N   0  0  0  0  0  0  0  0  0  0  0  0
    3.2052    1.3542    0.5000 C   0  0  0  0  0  0  0  0  0  0  0  0
    3.8369    1.6184   -0.8854 C   0  0  0  0  0  0  0  0  0  0  0  0
    4.4910    0.4330   -1.4713 N   0  0  0  0  0  0  0  0  0  0  0  0
    5.8254    0.1526   -0.8933 C   0  0  0  0  0  0  0  0  0  0  0  0
    6.9356    1.1108   -1.3636 C   0  0  0  0  0  0  0  0  0  0  0  0
    7.0174    1.1642   -2.7915 O   0  0  0  0  0  0  0  0  0  0  0  0
    5.7574    1.5343   -3.3636 C   0  0  0  0  0  0  0  0  0  0  0  0
    4.6467    0.5601   -2.9391 C   0  0  0  0  0  0  0  0  0  0  0  0
    0.7820    0.8693    0.1094 C   0  0  0  0  0  0  0  0  0  0  0  0
    0.4377    2.0899   -0.1698 N   0  0  0  0  0  0  0  0  0  0  0  0
   -0.2861   -0.1777    0.0906 C   0  0  0  0  0  0  0  0  0  0  0  0
   -2.5101    0.2126    2.3314 C   0  0  0  0  0  0  0  0  0  0  0  0
   -3.0469    0.8691    3.4420 C   0  0  0  0  0  0  0  0  0  0  0  0
   -4.6918    4.3586    5.4934 H   0  0  0  0  0  0  0  0  0  0  0  0
   -5.0826    4.2785    3.7714 H   0  0  0  0  0  0  0  0  0  0  0  0
   -3.4291    4.7567    4.3224 H   0  0  0  0  0  0  0  0  0  0  0  0
   -3.4240    3.9692    2.0885 H   0  0  0  0  0  0  0  0  0  0  0  0
   -2.4801    2.8278    0.1564 H   0  0  0  0  0  0  0  0  0  0  0  0
   -1.7629    0.8976   -0.9635 H   0  0  0  0  0  0  0  0  0  0  0  0
   -4.2616    0.1828   -1.1705 H   0  0  0  0  0  0  0  0  0  0  0  0
   -5.6253   -1.7591   -1.7850 H   0  0  0  0  0  0  0  0  0  0  0  0
   -5.9231   -4.2017   -1.9650 H   0  0  0  0  0  0  0  0  0  0  0  0
   -5.0582   -6.4877   -1.6687 H   0  0  0  0  0  0  0  0  0  0  0  0
   -2.7783   -6.8494   -0.7571 H   0  0  0  0  0  0  0  0  0  0  0  0
   -1.3711   -4.9292   -0.1444 H   0  0  0  0  0  0  0  0  0  0  0  0
    3.3540   -1.1782    0.7208 H   0  0  0  0  0  0  0  0  0  0  0  0
    3.9540    0.9626    1.1990 H   0  0  0  0  0  0  0  0  0  0  0  0
    2.8899    2.3068    0.9419 H   0  0  0  0  0  0  0  0  0  0  0  0
    3.0322    1.9538   -1.5521 H   0  0  0  0  0  0  0  0  0  0  0  0
    4.5355    2.4586   -0.8035 H   0  0  0  0  0  0  0  0  0  0  0  0
    6.1005   -0.8653   -1.1996 H   0  0  0  0  0  0  0  0  0  0  0  0
    5.7864    0.1352    0.2007 H   0  0  0  0  0  0  0  0  0  0  0  0
    6.7867    2.1244   -0.9751 H   0  0  0  0  0  0  0  0  0  0  0  0
    7.9038    0.7590   -0.9926 H   0  0  0  0  0  0  0  0  0  0  0  0
    5.8715    1.5106   -4.4521 H   0  0  0  0  0  0  0  0  0  0  0  0
    5.5208    2.5660   -3.0788 H   0  0  0  0  0  0  0  0  0  0  0  0
    4.8919   -0.4366   -3.3286 H   0  0  0  0  0  0  0  0  0  0  0  0
    3.6956    0.8414   -3.4060 H   0  0  0  0  0  0  0  0  0  0  0  0
    1.2283    2.7275   -0.1356 H   0  0  0  0  0  0  0  0  0  0  0  0
   -2.2555   -0.8417    2.4180 H   0  0  0  0  0  0  0  0  0  0  0  0
   -3.2006    0.3188    4.3669 H   0  0  0  0  0  0  0  0  0  0  0  0
  1  2  1  0
  2  3  1  0
  3  4  2  0
  4  5  1  0
  5  6  2  0
  6  7  1  0
  7  8  1  0
  8  9  2  0
  9 10  1  0
 10 11  2  0
 11 12  1  0
 12 13  2  0
 13 14  1  0
 14 15  2  0
 15 16  1  0
 16 17  2  0
 17 18  1  0
 18 19  1  0
 19 20  1  0
 20 21  2  0
 21 22  1  0
 22 23  1  0
 23 24  1  0
 24 25  1  0
 25 26  1  0
 26 27  1  0
 27 28  1  0
 28 29  1  0
 29 30  1  0
 22 31  1  0
 31 32  2  3
 31 33  1  0
  6 34  1  0
 34 35  2  0
 35  3  1  0
 33  7  1  0
 17  8  1  0
 33 19  2  0
 16 11  1  0
 30 25  1  0
  1 36  1  0
  1 37  1  0
  1 38  1  0
  4 39  1  0
  5 40  1  0
  7 41  1  0
  9 42  1  0
 10 43  1  0
 12 44  1  0
 13 45  1  0
 14 46  1  0
 15 47  1  0
 21 48  1  0
 23 49  1  0
 23 50  1  0
 24 51  1  0
 24 52  1  0
 26 53  1  0
 26 54  1  0
 27 55  1  0
 27 56  1  0
 29 57  1  0
 29 58  1  0
 30 59  1  0
 30 60  1  0
 32 61  1  0
 34 62  1  0
 35 63  1  0
M  END
$$$$
