
     RDKit          3D

 55 58  0  0  0  0  0  0  0  0999 V2000
   -6.5988   -1.4005   -1.0653 C   0  0  0  0  0  0  0  0  0  0  0  0
   -7.5822   -0.5752   -1.8794 C   0  0  0  0  0  0  0  0  0  0  0  0
   -7.5405    0.9286   -1.5887 C   0  0  0  0  0  0  0  0  0  0  0  0
   -6.2539    1.6240   -2.0280 C   0  0  0  0  0  0  0  0  0  0  0  0
   -5.1575    1.3966   -1.1102 N   0  0  0  0  0  0  0  0  0  0  0  0
   -3.8552    1.6407   -1.4998 C   0  0  0  0  0  0  0  0  0  0  0  0
   -3.5389    1.9768   -2.6350 O   0  0  0  0  0  0  0  0  0  0  0  0
   -2.8179    1.5127   -0.4388 C   0  0  0  0  0  0  0  0  0  0  0  0
   -2.9777    0.6555    0.6550 C   0  0  0  0  0  0  0  0  0  0  0  0
   -1.9755    0.5640    1.6267 C   0  0  0  0  0  0  0  0  0  0  0  0
   -0.7939    1.3128    1.5150 C   0  0  0  0  0  0  0  0  0  0  0  0
    0.2952    1.2032    2.5677 C   0  0  0  0  0  0  0  0  0  0  0  0
    1.5022    0.5257    2.0778 N   0  0  0  0  0  0  0  0  0  0  0  0
    1.6293   -0.8784    2.1171 C   0  0  0  0  0  0  0  0  0  0  0  0
    0.5230   -1.9783    2.7437 S   0  0  0  0  0  0  0  0  0  0  0  0
    2.7846   -1.4275    1.6012 N   0  0  0  0  0  0  0  0  0  0  0  0
    3.7909   -0.6578    1.0842 C   0  0  0  0  0  0  0  0  0  0  0  0
    3.6555    0.6973    1.0837 C   0  0  0  0  0  0  0  0  0  0  0  0
    4.7836    1.2321    0.5278 N   0  0  0  0  0  0  0  0  0  0  0  0
    5.6487    0.2176    0.1682 C   0  0  0  0  0  0  0  0  0  0  0  0
    6.9104    0.2806   -0.4283 C   0  0  0  0  0  0  0  0  0  0  0  0
    7.5629   -0.9313   -0.6790 C   0  0  0  0  0  0  0  0  0  0  0  0
    6.9859   -2.1603   -0.3513 C   0  0  0  0  0  0  0  0  0  0  0  0
    7.7576   -3.2478   -0.6647 O   0  0  0  0  0  0  0  0  0  0  0  0
    7.2148   -4.5293   -0.3745 C   0  0  0  0  0  0  0  0  0  0  0  0
    5.7208   -2.2028    0.2471 C   0  0  0  0  0  0  0  0  0  0  0  0
    5.0393   -0.9950    0.5115 C   0  0  0  0  0  0  0  0  0  0  0  0
    2.5112    1.3838    1.5910 C   0  0  0  0  0  0  0  0  0  0  0  0
    2.4479    2.6101    1.5971 O   0  0  0  0  0  0  0  0  0  0  0  0
   -0.6428    2.1657    0.4113 C   0  0  0  0  0  0  0  0  0  0  0  0
   -1.6423    2.2594   -0.5611 C   0  0  0  0  0  0  0  0  0  0  0  0
   -6.7983   -2.4675   -1.2085 H   0  0  0  0  0  0  0  0  0  0  0  0
   -6.6862   -1.1808    0.0032 H   0  0  0  0  0  0  0  0  0  0  0  0
   -5.5670   -1.2189   -1.3780 H   0  0  0  0  0  0  0  0  0  0  0  0
   -8.5949   -0.9353   -1.6606 H   0  0  0  0  0  0  0  0  0  0  0  0
   -7.4105   -0.7535   -2.9474 H   0  0  0  0  0  0  0  0  0  0  0  0
   -7.7270    1.1066   -0.5226 H   0  0  0  0  0  0  0  0  0  0  0  0
   -8.3731    1.3893   -2.1352 H   0  0  0  0  0  0  0  0  0  0  0  0
   -6.4152    2.7078   -2.0531 H   0  0  0  0  0  0  0  0  0  0  0  0
   -5.9634    1.3121   -3.0374 H   0  0  0  0  0  0  0  0  0  0  0  0
   -5.3632    1.4298   -0.1208 H   0  0  0  0  0  0  0  0  0  0  0  0
   -3.8601    0.0295    0.7529 H   0  0  0  0  0  0  0  0  0  0  0  0
   -2.1238   -0.1111    2.4676 H   0  0  0  0  0  0  0  0  0  0  0  0
    0.5373    2.2154    2.9154 H   0  0  0  0  0  0  0  0  0  0  0  0
   -0.0867    0.6857    3.4546 H   0  0  0  0  0  0  0  0  0  0  0  0
    2.8868   -2.4353    1.6126 H   0  0  0  0  0  0  0  0  0  0  0  0
    4.9521    2.2219    0.4013 H   0  0  0  0  0  0  0  0  0  0  0  0
    7.3739    1.2260   -0.6911 H   0  0  0  0  0  0  0  0  0  0  0  0
    8.5471   -0.9145   -1.1437 H   0  0  0  0  0  0  0  0  0  0  0  0
    7.9436   -5.2809   -0.6929 H   0  0  0  0  0  0  0  0  0  0  0  0
    6.2903   -4.7035   -0.9353 H   0  0  0  0  0  0  0  0  0  0  0  0
    7.0551   -4.6553    0.7015 H   0  0  0  0  0  0  0  0  0  0  0  0
    5.2443   -3.1373    0.5149 H   0  0  0  0  0  0  0  0  0  0  0  0
    0.2539    2.7714    0.2951 H   0  0  0  0  0  0  0  0  0  0  0  0
   -1.5019    2.9205   -1.4145 H   0  0  0  0  0  0  0  0  0  0  0  0
  1  2  1  0
  2  3  1  0
  3  4  1  0
  4  5  1  0
  5  6  1  0
  6  7  2  0
  6  8  1  0
  8  9  2  0
  9 10  1  0
 10 11  2  0
 11 12  1  0
 12 13  1  0
 13 14  1  0
 14 15  2  0
 14 16  1  0
 16 17  1  0
 17 18  2  0
 18 19  1  0
 19 20  1  0
 20 21  2  0
 21 22  1  0
 22 23  2  0
 23 24  1  0
 24 25  1  0
 23 26  1  0
 26 27  2  0
 18 28  1  0
 28 29  2  0
 11 30  1  0
 30 31  2  0
 31  8  1  0
 28 13  1  0
 27 17  1  0
 27 20  1  0
  1 32  1  0
  1 33  1  0
  1 34  1  0
  2 35  1  0
  2 36  1  0
  3 37  1  0
  3 38  1  0
  4 39  1  0
  4 40  1  0
  5 41  1  0
  9 42  1  0
 10 43  1  0
 12 44  1  0
 12 45  1  0
 16 46  1  0
 19 47  1  0
 21 48  1  0
 22 49  1  0
 25 50  1  0
 25 51  1  0
 25 52  1  0
 26 53  1  0
 30 54  1  0
 31 55  1  0
M  END
$$$$
