
     RDKit          3D

 37 39  0  0  0  0  0  0  0  0999 V2000
   -4.7336   -0.3922    2.3164 C   0  0  0  0  0  0  0  0  0  0  0  0
   -3.9558    0.3393    1.2625 C   0  0  0  0  0  0  0  0  0  0  0  0
   -4.4078    1.4852    0.7287 C   0  0  0  0  0  0  0  0  0  0  0  0
   -3.6852    2.2416   -0.3050 C   0  0  0  0  0  0  0  0  0  0  0  0
   -4.1480    3.2843   -0.7541 O   0  0  0  0  0  0  0  0  0  0  0  0
   -2.4768    1.7191   -0.7309 O   0  0  0  0  0  0  0  0  0  0  0  0
   -1.9752    0.5153   -0.1988 C   0  0  0  0  0  0  0  0  0  0  0  0
   -0.7516    0.0794   -0.7073 C   0  0  0  0  0  0  0  0  0  0  0  0
   -0.2039   -1.0948   -0.2079 C   0  0  0  0  0  0  0  0  0  0  0  0
    0.9775   -1.5713   -0.7029 O   0  0  0  0  0  0  0  0  0  0  0  0
    2.1060   -0.9655   -0.0437 C   0  0  0  0  0  0  0  0  0  0  0  0
    3.0925   -2.0706    0.3567 C   0  0  0  0  0  0  0  0  0  0  0  0
    4.3033   -2.1002    0.1920 O   0  0  0  0  0  0  0  0  0  0  0  0
    2.4988   -3.0938    1.0195 O   0  0  0  0  0  0  0  0  0  0  0  0
    2.7314    0.0705   -0.9660 C   0  0  0  0  0  0  0  0  0  0  0  0
    3.0486    1.3501   -0.4813 C   0  0  0  0  0  0  0  0  0  0  0  0
    3.6140    2.3086   -1.3241 C   0  0  0  0  0  0  0  0  0  0  0  0
    3.8757    1.9995   -2.6585 C   0  0  0  0  0  0  0  0  0  0  0  0
    3.5716    0.7316   -3.1520 C   0  0  0  0  0  0  0  0  0  0  0  0
    3.0051   -0.2284   -2.3114 C   0  0  0  0  0  0  0  0  0  0  0  0
   -0.8777   -1.8393    0.7583 C   0  0  0  0  0  0  0  0  0  0  0  0
   -2.1038   -1.3863    1.2584 C   0  0  0  0  0  0  0  0  0  0  0  0
   -2.6710   -0.1936    0.7871 C   0  0  0  0  0  0  0  0  0  0  0  0
   -5.0062   -1.3965    1.9750 H   0  0  0  0  0  0  0  0  0  0  0  0
   -4.1501   -0.4774    3.2395 H   0  0  0  0  0  0  0  0  0  0  0  0
   -5.6635    0.1280    2.5703 H   0  0  0  0  0  0  0  0  0  0  0  0
   -5.3492    1.9295    1.0335 H   0  0  0  0  0  0  0  0  0  0  0  0
   -0.2442    0.6465   -1.4837 H   0  0  0  0  0  0  0  0  0  0  0  0
    1.8111   -0.4823    0.9008 H   0  0  0  0  0  0  0  0  0  0  0  0
    3.2410   -3.7103    1.1979 H   0  0  0  0  0  0  0  0  0  0  0  0
    2.8550    1.6149    0.5562 H   0  0  0  0  0  0  0  0  0  0  0  0
    3.8525    3.2980   -0.9394 H   0  0  0  0  0  0  0  0  0  0  0  0
    4.3197    2.7469   -3.3136 H   0  0  0  0  0  0  0  0  0  0  0  0
    3.7759    0.4890   -4.1919 H   0  0  0  0  0  0  0  0  0  0  0  0
    2.7776   -1.2150   -2.7143 H   0  0  0  0  0  0  0  0  0  0  0  0
   -0.4524   -2.7722    1.1215 H   0  0  0  0  0  0  0  0  0  0  0  0
   -2.6015   -1.9879    2.0138 H   0  0  0  0  0  0  0  0  0  0  0  0
  1  2  1  0
  2  3  2  0
  3  4  1  0
  4  5  2  0
  4  6  1  0
  6  7  1  0
  7  8  2  0
  8  9  1  0
  9 10  1  0
 10 11  1  0
 11 12  1  0
 12 13  2  0
 12 14  1  0
 11 15  1  0
 15 16  2  0
 16 17  1  0
 17 18  2  0
 18 19  1  0
 19 20  2  0
  9 21  2  0
 21 22  1  0
 22 23  2  0
 23  2  1  0
 23  7  1  0
 20 15  1  0
  1 24  1  0
  1 25  1  0
  1 26  1  0
  3 27  1  0
  8 28  1  0
 11 29  1  0
 14 30  1  0
 16 31  1  0
 17 32  1  0
 18 33  1  0
 19 34  1  0
 20 35  1  0
 21 36  1  0
 22 37  1  0
M  END
$$$$
