
     RDKit          3D

 43 44  0  0  0  0  0  0  0  0999 V2000
    5.0792   -0.6577   -3.1684 C   0  0  0  0  0  0  0  0  0  0  0  0
    5.3837    0.7449   -2.6765 C   0  0  0  0  0  0  0  0  0  0  0  0
    4.1957    1.3537   -2.1497 O   0  0  0  0  0  0  0  0  0  0  0  0
    3.9255    1.0898   -0.8406 C   0  0  0  0  0  0  0  0  0  0  0  0
    4.6056    0.3889   -0.1004 O   0  0  0  0  0  0  0  0  0  0  0  0
    2.6327    1.7761   -0.4284 C   0  0  0  0  0  0  0  0  0  0  0  0
    2.3518    1.5426    0.9792 N   0  0  0  0  0  0  0  0  0  0  0  0
    1.2616    2.1249    1.5827 C   0  0  0  0  0  0  0  0  0  0  0  0
    0.5404    2.9364    1.0066 O   0  0  0  0  0  0  0  0  0  0  0  0
    1.0047    1.6630    3.0079 C   0  0  0  0  0  0  0  0  0  0  0  0
   -0.5510    0.7279    3.0915 S   0  0  0  0  0  0  0  0  0  0  0  0
   -0.1854   -0.5848    2.0183 C   0  0  0  0  0  0  0  0  0  0  0  0
    1.0115   -1.1164    1.8967 N   0  0  0  0  0  0  0  0  0  0  0  0
    0.8531   -2.2214    1.1126 N   0  0  0  0  0  0  0  0  0  0  0  0
   -0.4125   -2.3782    0.7586 N   0  0  0  0  0  0  0  0  0  0  0  0
   -1.0981   -1.3220    1.2732 N   0  0  0  0  0  0  0  0  0  0  0  0
   -2.4640   -1.0940    0.9397 C   0  0  0  0  0  0  0  0  0  0  0  0
   -2.9313    0.2310    0.8377 C   0  0  0  0  0  0  0  0  0  0  0  0
   -4.2553    0.5116    0.4709 C   0  0  0  0  0  0  0  0  0  0  0  0
   -4.7245    1.9347    0.3852 C   0  0  0  0  0  0  0  0  0  0  0  0
   -5.1238   -0.5453    0.2067 C   0  0  0  0  0  0  0  0  0  0  0  0
   -4.6725   -1.8624    0.2890 C   0  0  0  0  0  0  0  0  0  0  0  0
   -3.3482   -2.1622    0.6595 C   0  0  0  0  0  0  0  0  0  0  0  0
   -2.9750   -3.6194    0.7532 C   0  0  0  0  0  0  0  0  0  0  0  0
    4.7460   -1.2993   -2.3466 H   0  0  0  0  0  0  0  0  0  0  0  0
    4.2696   -0.6390   -3.9056 H   0  0  0  0  0  0  0  0  0  0  0  0
    5.9633   -1.1091   -3.6272 H   0  0  0  0  0  0  0  0  0  0  0  0
    6.1929    0.7448   -1.9371 H   0  0  0  0  0  0  0  0  0  0  0  0
    5.7152    1.3649   -3.5158 H   0  0  0  0  0  0  0  0  0  0  0  0
    2.7150    2.8546   -0.5929 H   0  0  0  0  0  0  0  0  0  0  0  0
    1.8031    1.3652   -1.0123 H   0  0  0  0  0  0  0  0  0  0  0  0
    2.7386    0.6896    1.3794 H   0  0  0  0  0  0  0  0  0  0  0  0
    1.8325    1.0561    3.3878 H   0  0  0  0  0  0  0  0  0  0  0  0
    0.9286    2.5501    3.6444 H   0  0  0  0  0  0  0  0  0  0  0  0
   -2.2679    1.0815    0.9805 H   0  0  0  0  0  0  0  0  0  0  0  0
   -4.0115    2.5384   -0.1864 H   0  0  0  0  0  0  0  0  0  0  0  0
   -5.6939    2.0060   -0.1192 H   0  0  0  0  0  0  0  0  0  0  0  0
   -4.8281    2.3555    1.3902 H   0  0  0  0  0  0  0  0  0  0  0  0
   -6.1568   -0.3548   -0.0758 H   0  0  0  0  0  0  0  0  0  0  0  0
   -5.3746   -2.6650    0.0673 H   0  0  0  0  0  0  0  0  0  0  0  0
   -3.8665   -4.2565    0.7800 H   0  0  0  0  0  0  0  0  0  0  0  0
   -2.4268   -3.8249    1.6781 H   0  0  0  0  0  0  0  0  0  0  0  0
   -2.3826   -3.9197   -0.1163 H   0  0  0  0  0  0  0  0  0  0  0  0
  1  2  1  0
  2  3  1  0
  3  4  1  0
  4  5  2  0
  4  6  1  0
  6  7  1  0
  7  8  1  0
  8  9  2  0
  8 10  1  0
 10 11  1  0
 11 12  1  0
 12 13  2  0
 13 14  1  0
 14 15  2  0
 15 16  1  0
 16 17  1  0
 17 18  2  0
 18 19  1  0
 19 20  1  0
 19 21  2  0
 21 22  1  0
 22 23  2  0
 23 24  1  0
 16 12  1  0
 23 17  1  0
  1 25  1  0
  1 26  1  0
  1 27  1  0
  2 28  1  0
  2 29  1  0
  6 30  1  0
  6 31  1  0
  7 32  1  0
 10 33  1  0
 10 34  1  0
 18 35  1  0
 20 36  1  0
 20 37  1  0
 20 38  1  0
 21 39  1  0
 22 40  1  0
 24 41  1  0
 24 42  1  0
 24 43  1  0
M  END
$$$$
