
     RDKit          3D

 41 43  0  0  0  0  0  0  0  0999 V2000
    3.5644   -1.3012    0.8349 Cl  0  0  0  0  0  0  0  0  0  0  0  0
    4.0529   -1.9501   -0.6919 C   0  0  0  0  0  0  0  0  0  0  0  0
    5.4244   -2.1280   -0.9026 C   0  0  0  0  0  0  0  0  0  0  0  0
    5.8893   -2.6568   -2.1056 C   0  0  0  0  0  0  0  0  0  0  0  0
    4.9843   -3.0097   -3.1016 C   0  0  0  0  0  0  0  0  0  0  0  0
    3.6149   -2.8327   -2.8957 C   0  0  0  0  0  0  0  0  0  0  0  0
    3.1250   -2.2993   -1.6877 C   0  0  0  0  0  0  0  0  0  0  0  0
    1.6366   -2.1179   -1.5235 C   0  0  0  0  0  0  0  0  0  0  0  0
    0.9398   -0.7502   -2.4979 S   0  0  0  0  0  0  0  0  0  0  0  0
    1.7425    0.6021   -1.7825 C   0  0  0  0  0  0  0  0  0  0  0  0
    2.8791    1.1320   -2.1745 N   0  0  0  0  0  0  0  0  0  0  0  0
    3.1746    2.1685   -1.3104 N   0  0  0  0  0  0  0  0  0  0  0  0
    2.2022    2.2395   -0.4274 C   0  0  0  0  0  0  0  0  0  0  0  0
    1.2555    1.2959   -0.7034 N   0  0  0  0  0  0  0  0  0  0  0  0
    0.0423    1.0791    0.0377 N   0  0  0  0  0  0  0  0  0  0  0  0
   -1.0356    1.9035   -0.5083 C   0  0  0  0  0  0  0  0  0  0  0  0
   -2.3205    1.8074    0.2668 C   0  0  0  0  0  0  0  0  0  0  0  0
   -2.5210    1.1753    1.4364 C   0  0  0  0  0  0  0  0  0  0  0  0
   -3.8169    1.1180    2.1282 C   0  0  0  0  0  0  0  0  0  0  0  0
   -4.1727   -0.0578    2.8018 C   0  0  0  0  0  0  0  0  0  0  0  0
   -5.3835   -0.1435    3.4939 C   0  0  0  0  0  0  0  0  0  0  0  0
   -6.2456    0.9503    3.5293 C   0  0  0  0  0  0  0  0  0  0  0  0
   -5.8953    2.1310    2.8781 C   0  0  0  0  0  0  0  0  0  0  0  0
   -4.6846    2.2165    2.1854 C   0  0  0  0  0  0  0  0  0  0  0  0
    6.1388   -1.8482   -0.1323 H   0  0  0  0  0  0  0  0  0  0  0  0
    6.9564   -2.7851   -2.2673 H   0  0  0  0  0  0  0  0  0  0  0  0
    5.3440   -3.4138   -4.0449 H   0  0  0  0  0  0  0  0  0  0  0  0
    2.9263   -3.1040   -3.6944 H   0  0  0  0  0  0  0  0  0  0  0  0
    1.3399   -1.9968   -0.4779 H   0  0  0  0  0  0  0  0  0  0  0  0
    1.1402   -3.0391   -1.8526 H   0  0  0  0  0  0  0  0  0  0  0  0
    2.1287    2.9308    0.3983 H   0  0  0  0  0  0  0  0  0  0  0  0
   -0.2452    0.1045   -0.0359 H   0  0  0  0  0  0  0  0  0  0  0  0
   -1.2436    1.6084   -1.5443 H   0  0  0  0  0  0  0  0  0  0  0  0
   -0.7382    2.9596   -0.5205 H   0  0  0  0  0  0  0  0  0  0  0  0
   -3.1583    2.3129   -0.2114 H   0  0  0  0  0  0  0  0  0  0  0  0
   -1.7063    0.6552    1.9343 H   0  0  0  0  0  0  0  0  0  0  0  0
   -3.5127   -0.9220    2.7878 H   0  0  0  0  0  0  0  0  0  0  0  0
   -5.6514   -1.0636    4.0067 H   0  0  0  0  0  0  0  0  0  0  0  0
   -7.1865    0.8848    4.0693 H   0  0  0  0  0  0  0  0  0  0  0  0
   -6.5610    2.9895    2.9139 H   0  0  0  0  0  0  0  0  0  0  0  0
   -4.4231    3.1549    1.7031 H   0  0  0  0  0  0  0  0  0  0  0  0
  1  2  1  0
  2  3  2  0
  3  4  1  0
  4  5  2  0
  5  6  1  0
  6  7  2  0
  7  8  1  0
  8  9  1  0
  9 10  1  0
 10 11  2  0
 11 12  1  0
 12 13  2  0
 13 14  1  0
 14 15  1  0
 15 16  1  0
 16 17  1  0
 17 18  2  3
 18 19  1  0
 19 20  2  0
 20 21  1  0
 21 22  2  0
 22 23  1  0
 23 24  2  0
  7  2  1  0
 14 10  1  0
 24 19  1  0
  3 25  1  0
  4 26  1  0
  5 27  1  0
  6 28  1  0
  8 29  1  0
  8 30  1  0
 13 31  1  0
 15 32  1  0
 16 33  1  0
 16 34  1  0
 17 35  1  0
 18 36  1  0
 20 37  1  0
 21 38  1  0
 22 39  1  0
 23 40  1  0
 24 41  1  0
M  END
$$$$
