
     RDKit          3D

 43 45  0  0  0  0  0  0  0  0999 V2000
    6.8875   -2.4577    0.0610 C   0  0  0  0  0  0  0  0  0  0  0  0
    5.5830   -2.5986   -0.4865 O   0  0  0  0  0  0  0  0  0  0  0  0
    4.7397   -1.5307   -0.3544 C   0  0  0  0  0  0  0  0  0  0  0  0
    3.4652   -1.7206   -0.8876 C   0  0  0  0  0  0  0  0  0  0  0  0
    2.5018   -0.7074   -0.8198 C   0  0  0  0  0  0  0  0  0  0  0  0
    2.7941    0.5226   -0.2287 C   0  0  0  0  0  0  0  0  0  0  0  0
    1.8568    1.5735   -0.1063 N   0  0  0  0  0  0  0  0  0  0  0  0
    0.5021    1.5835   -0.1782 C   0  0  0  0  0  0  0  0  0  0  0  0
   -0.2334    2.6966   -0.6422 C   0  0  0  0  0  0  0  0  0  0  0  0
   -1.5710    2.3738   -0.5826 C   0  0  0  0  0  0  0  0  0  0  0  0
   -2.6379    3.0962   -0.9211 O   0  0  0  0  0  0  0  0  0  0  0  0
   -1.6852    1.1153    0.0014 N   0  0  0  0  0  0  0  0  0  0  0  0
   -2.9162    0.4647    0.3173 C   0  0  0  0  0  0  0  0  0  0  0  0
   -3.9024    0.4155   -0.6838 C   0  0  0  0  0  0  0  0  0  0  0  0
   -5.1067   -0.2537   -0.4397 C   0  0  0  0  0  0  0  0  0  0  0  0
   -6.1309   -0.3186   -1.4894 N   0  0  0  0  0  4  0  0  0  0  0  0
   -7.2233   -0.8263   -1.1970 O   0  0  0  0  0  0  0  0  0  0  0  0
   -5.8430    0.1312   -2.6075 O   0  0  0  0  0  1  0  0  0  0  0  0
   -5.3384   -0.8736    0.7915 C   0  0  0  0  0  0  0  0  0  0  0  0
   -4.3673   -0.7989    1.7925 C   0  0  0  0  0  0  0  0  0  0  0  0
   -3.1573   -0.1101    1.5851 C   0  0  0  0  0  0  0  0  0  0  0  0
   -2.2248    0.0148    2.7635 C   0  0  0  0  0  0  0  0  0  0  0  0
   -0.3996    0.6007    0.1908 C   0  0  0  0  0  0  0  0  0  0  0  0
   -0.1665   -0.6360    0.6403 O   0  0  0  0  0  0  0  0  0  0  0  0
    4.0762    0.6996    0.3134 C   0  0  0  0  0  0  0  0  0  0  0  0
    5.0429   -0.3133    0.2500 C   0  0  0  0  0  0  0  0  0  0  0  0
    7.4286   -3.3915   -0.1200 H   0  0  0  0  0  0  0  0  0  0  0  0
    7.4389   -1.6522   -0.4351 H   0  0  0  0  0  0  0  0  0  0  0  0
    6.8468   -2.3012    1.1440 H   0  0  0  0  0  0  0  0  0  0  0  0
    3.2131   -2.6661   -1.3606 H   0  0  0  0  0  0  0  0  0  0  0  0
    1.5259   -0.8897   -1.2585 H   0  0  0  0  0  0  0  0  0  0  0  0
    2.3344    2.4679   -0.1724 H   0  0  0  0  0  0  0  0  0  0  0  0
    0.1723    3.6294   -1.0084 H   0  0  0  0  0  0  0  0  0  0  0  0
   -2.3198    3.9448   -1.2784 H   0  0  0  0  0  0  0  0  0  0  0  0
   -3.7191    0.8744   -1.6545 H   0  0  0  0  0  0  0  0  0  0  0  0
   -6.2678   -1.4026    0.9936 H   0  0  0  0  0  0  0  0  0  0  0  0
   -4.5738   -1.2612    2.7576 H   0  0  0  0  0  0  0  0  0  0  0  0
   -1.5781   -0.8640    2.8363 H   0  0  0  0  0  0  0  0  0  0  0  0
   -2.7972    0.0935    3.6950 H   0  0  0  0  0  0  0  0  0  0  0  0
   -1.6143    0.9206    2.7080 H   0  0  0  0  0  0  0  0  0  0  0  0
   -0.9829   -1.1604    0.5868 H   0  0  0  0  0  0  0  0  0  0  0  0
    4.3322    1.6330    0.8085 H   0  0  0  0  0  0  0  0  0  0  0  0
    6.0153   -0.1171    0.6880 H   0  0  0  0  0  0  0  0  0  0  0  0
  1  2  1  0
  2  3  1  0
  3  4  2  0
  4  5  1  0
  5  6  2  0
  6  7  1  0
  7  8  1  0
  8  9  1  0
  9 10  2  0
 10 11  1  0
 10 12  1  0
 12 13  1  0
 13 14  2  0
 14 15  1  0
 15 16  1  0
 16 17  2  0
 16 18  1  0
 15 19  2  0
 19 20  1  0
 20 21  2  0
 21 22  1  0
 12 23  1  0
 23 24  1  0
  6 25  1  0
 25 26  2  0
 26  3  1  0
 23  8  2  0
 21 13  1  0
  1 27  1  0
  1 28  1  0
  1 29  1  0
  4 30  1  0
  5 31  1  0
  7 32  1  0
  9 33  1  0
 11 34  1  0
 14 35  1  0
 19 36  1  0
 20 37  1  0
 22 38  1  0
 22 39  1  0
 22 40  1  0
 24 41  1  0
 25 42  1  0
 26 43  1  0
M  CHG  2  16   1  18  -1
M  END
$$$$
