
     RDKit          3D

 46 48  0  0  0  0  0  0  0  0999 V2000
    8.1837    0.6269    0.7445 C   0  0  0  0  0  0  0  0  0  0  0  0
    7.3843   -0.4889    0.3714 O   0  0  0  0  0  0  0  0  0  0  0  0
    6.0314   -0.2975    0.3410 C   0  0  0  0  0  0  0  0  0  0  0  0
    5.2912   -1.4227   -0.0304 C   0  0  0  0  0  0  0  0  0  0  0  0
    3.8946   -1.3740   -0.1049 C   0  0  0  0  0  0  0  0  0  0  0  0
    3.2210   -0.1856    0.1937 C   0  0  0  0  0  0  0  0  0  0  0  0
    1.7318   -0.0674    0.1341 C   0  0  0  0  0  0  0  0  0  0  0  0
    1.2020    0.9864    0.4893 O   0  0  0  0  0  0  0  0  0  0  0  0
    0.9314   -1.2706   -0.3565 C   0  0  0  0  0  0  0  0  0  0  0  0
   -0.4638   -0.9095   -0.4486 N   0  0  0  0  0  0  0  0  0  0  0  0
   -1.0361   -0.3329   -1.5352 C   0  0  0  0  0  0  0  0  0  0  0  0
   -0.5083   -0.0877   -2.6068 O   0  0  0  0  0  0  0  0  0  0  0  0
   -2.3532   -0.0672   -1.2460 N   0  0  0  0  0  0  0  0  0  0  0  0
   -2.6909   -0.3451    0.1330 C   0  0  0  0  0  0  0  0  0  0  0  0
   -2.9053    0.9231    0.9674 C   0  0  0  0  0  0  0  0  0  0  0  0
   -3.8230    1.9930    0.3786 C   0  0  0  0  0  0  0  0  0  0  0  0
   -5.1125    1.5398   -0.2995 C   0  0  0  0  0  0  0  0  0  0  0  0
   -5.7614    0.2874    0.2770 C   0  0  0  0  0  0  0  0  0  0  0  0
   -5.1668   -1.0008   -0.2878 C   0  0  0  0  0  0  0  0  0  0  0  0
   -3.8044   -1.3861    0.2805 C   0  0  0  0  0  0  0  0  0  0  0  0
   -1.3561   -0.9878    0.5814 C   0  0  0  0  0  0  0  0  0  0  0  0
   -1.1373   -1.4719    1.6848 O   0  0  0  0  0  0  0  0  0  0  0  0
    3.9650    0.9420    0.5680 C   0  0  0  0  0  0  0  0  0  0  0  0
    5.3622    0.8874    0.6409 C   0  0  0  0  0  0  0  0  0  0  0  0
    7.9581    0.9497    1.7662 H   0  0  0  0  0  0  0  0  0  0  0  0
    9.2311    0.3110    0.7189 H   0  0  0  0  0  0  0  0  0  0  0  0
    8.0669    1.4515    0.0336 H   0  0  0  0  0  0  0  0  0  0  0  0
    5.8108   -2.3500   -0.2639 H   0  0  0  0  0  0  0  0  0  0  0  0
    3.3714   -2.2797   -0.3949 H   0  0  0  0  0  0  0  0  0  0  0  0
    1.0421   -2.0914    0.3585 H   0  0  0  0  0  0  0  0  0  0  0  0
    1.2844   -1.5624   -1.3503 H   0  0  0  0  0  0  0  0  0  0  0  0
   -2.9226    0.4417   -1.9088 H   0  0  0  0  0  0  0  0  0  0  0  0
   -3.2827    0.6380    1.9590 H   0  0  0  0  0  0  0  0  0  0  0  0
   -1.9387    1.4073    1.1673 H   0  0  0  0  0  0  0  0  0  0  0  0
   -4.0832    2.6844    1.1911 H   0  0  0  0  0  0  0  0  0  0  0  0
   -3.2547    2.5964   -0.3412 H   0  0  0  0  0  0  0  0  0  0  0  0
   -4.9349    1.4036   -1.3732 H   0  0  0  0  0  0  0  0  0  0  0  0
   -5.8294    2.3684   -0.2299 H   0  0  0  0  0  0  0  0  0  0  0  0
   -5.7318    0.2912    1.3724 H   0  0  0  0  0  0  0  0  0  0  0  0
   -6.8223    0.3056   -0.0040 H   0  0  0  0  0  0  0  0  0  0  0  0
   -5.1106   -0.9411   -1.3816 H   0  0  0  0  0  0  0  0  0  0  0  0
   -5.8615   -1.8214   -0.0671 H   0  0  0  0  0  0  0  0  0  0  0  0
   -3.9282   -1.6355    1.3432 H   0  0  0  0  0  0  0  0  0  0  0  0
   -3.4954   -2.3232   -0.2034 H   0  0  0  0  0  0  0  0  0  0  0  0
    3.4601    1.8774    0.8063 H   0  0  0  0  0  0  0  0  0  0  0  0
    5.8915    1.7879    0.9348 H   0  0  0  0  0  0  0  0  0  0  0  0
  1  2  1  0
  2  3  1  0
  3  4  2  0
  4  5  1  0
  5  6  2  0
  6  7  1  0
  7  8  2  0
  7  9  1  0
  9 10  1  0
 10 11  1  0
 11 12  2  0
 11 13  1  0
 13 14  1  0
 14 15  1  0
 15 16  1  0
 16 17  1  0
 17 18  1  0
 18 19  1  0
 19 20  1  0
 14 21  1  0
 21 22  2  0
  6 23  1  0
 23 24  2  0
 24  3  1  0
 21 10  1  0
 20 14  1  0
  1 25  1  0
  1 26  1  0
  1 27  1  0
  4 28  1  0
  5 29  1  0
  9 30  1  0
  9 31  1  0
 13 32  1  0
 15 33  1  0
 15 34  1  0
 16 35  1  0
 16 36  1  0
 17 37  1  0
 17 38  1  0
 18 39  1  0
 18 40  1  0
 19 41  1  0
 19 42  1  0
 20 43  1  0
 20 44  1  0
 23 45  1  0
 24 46  1  0
M  END
$$$$
