
     RDKit          3D

 47 49  0  0  0  0  0  0  0  0999 V2000
   -7.0927    0.7353   -0.7809 C   0  0  0  0  0  0  0  0  0  0  0  0
   -7.0247   -0.1538    0.4484 C   0  0  0  0  0  0  0  0  0  0  0  0
   -5.9126    0.2024    1.2682 O   0  0  0  0  0  0  0  0  0  0  0  0
   -4.7136   -0.4196    1.0628 C   0  0  0  0  0  0  0  0  0  0  0  0
   -3.7433   -0.1336    2.0305 C   0  0  0  0  0  0  0  0  0  0  0  0
   -2.4668   -0.6918    1.9498 C   0  0  0  0  0  0  0  0  0  0  0  0
   -2.1590   -1.5369    0.8830 C   0  0  0  0  0  0  0  0  0  0  0  0
   -0.5313   -2.2341    0.7782 S   0  0  0  0  0  6  0  0  0  0  0  0
   -0.2519   -2.8718    2.0463 O   0  0  0  0  0  0  0  0  0  0  0  0
   -0.4122   -2.9539   -0.4724 O   0  0  0  0  0  0  0  0  0  0  0  0
    0.4623   -0.8508    0.6512 N   0  0  0  0  0  0  0  0  0  0  0  0
    0.2726   -0.0308   -0.5935 C   0  0  0  0  0  0  0  0  0  0  0  0
    1.4849   -0.0841   -1.5282 C   0  0  0  0  0  0  0  0  0  0  0  0
    2.7151    0.3445   -0.8595 N   0  0  0  0  0  0  0  0  0  0  0  0
    3.7666    0.7956   -1.6490 C   0  0  0  0  0  0  0  0  0  0  0  0
    3.7361    0.7918   -2.8768 O   0  0  0  0  0  0  0  0  0  0  0  0
    4.9876    1.3097   -0.9940 C   0  0  0  0  0  0  0  0  0  0  0  0
    6.2216    0.7971   -1.3864 C   0  0  0  0  0  0  0  0  0  0  0  0
    7.3494    1.3069   -0.7734 C   0  0  0  0  0  0  0  0  0  0  0  0
    7.3159    2.2739    0.1705 N   0  0  0  0  0  0  0  0  0  0  0  0
    6.1052    2.7731    0.5019 C   0  0  0  0  0  0  0  0  0  0  0  0
    4.9175    2.3321   -0.0499 C   0  0  0  0  0  0  0  0  0  0  0  0
    2.8159    0.0199    0.5700 C   0  0  0  0  0  0  0  0  0  0  0  0
    1.8976   -1.1431    0.9691 C   0  0  0  0  0  0  0  0  0  0  0  0
   -3.1156   -1.8325   -0.0903 C   0  0  0  0  0  0  0  0  0  0  0  0
   -4.3929   -1.2685    0.0011 C   0  0  0  0  0  0  0  0  0  0  0  0
   -7.9839    0.5084   -1.3730 H   0  0  0  0  0  0  0  0  0  0  0  0
   -6.2110    0.6091   -1.4160 H   0  0  0  0  0  0  0  0  0  0  0  0
   -7.1239    1.7903   -0.4888 H   0  0  0  0  0  0  0  0  0  0  0  0
   -7.9226    0.0223    1.0519 H   0  0  0  0  0  0  0  0  0  0  0  0
   -7.0384   -1.2197    0.1956 H   0  0  0  0  0  0  0  0  0  0  0  0
   -3.9904    0.5269    2.8589 H   0  0  0  0  0  0  0  0  0  0  0  0
   -1.7254   -0.4686    2.7133 H   0  0  0  0  0  0  0  0  0  0  0  0
    0.0985    1.0025   -0.2686 H   0  0  0  0  0  0  0  0  0  0  0  0
   -0.6204   -0.3388   -1.1456 H   0  0  0  0  0  0  0  0  0  0  0  0
    1.6494   -1.1076   -1.8865 H   0  0  0  0  0  0  0  0  0  0  0  0
    1.3065    0.5481   -2.4051 H   0  0  0  0  0  0  0  0  0  0  0  0
    6.2978    0.0290   -2.1482 H   0  0  0  0  0  0  0  0  0  0  0  0
    8.3409    0.9459   -1.0324 H   0  0  0  0  0  0  0  0  0  0  0  0
    6.1205    3.5674    1.2431 H   0  0  0  0  0  0  0  0  0  0  0  0
    3.9744    2.7835    0.2335 H   0  0  0  0  0  0  0  0  0  0  0  0
    3.8502   -0.2283    0.8267 H   0  0  0  0  0  0  0  0  0  0  0  0
    2.5294    0.9226    1.1217 H   0  0  0  0  0  0  0  0  0  0  0  0
    1.9906   -1.3139    2.0470 H   0  0  0  0  0  0  0  0  0  0  0  0
    2.2155   -2.0515    0.4429 H   0  0  0  0  0  0  0  0  0  0  0  0
   -2.8799   -2.4959   -0.9197 H   0  0  0  0  0  0  0  0  0  0  0  0
   -5.1093   -1.5089   -0.7774 H   0  0  0  0  0  0  0  0  0  0  0  0
  1  2  1  0
  2  3  1  0
  3  4  1  0
  4  5  2  0
  5  6  1  0
  6  7  2  0
  7  8  1  0
  8  9  2  0
  8 10  2  0
  8 11  1  0
 11 12  1  0
 12 13  1  0
 13 14  1  0
 14 15  1  0
 15 16  2  0
 15 17  1  0
 17 18  2  0
 18 19  1  0
 19 20  2  0
 20 21  1  0
 21 22  2  0
 14 23  1  0
 23 24  1  0
  7 25  1  0
 25 26  2  0
 26  4  1  0
 24 11  1  0
 22 17  1  0
  1 27  1  0
  1 28  1  0
  1 29  1  0
  2 30  1  0
  2 31  1  0
  5 32  1  0
  6 33  1  0
 12 34  1  0
 12 35  1  0
 13 36  1  0
 13 37  1  0
 18 38  1  0
 19 39  1  0
 21 40  1  0
 22 41  1  0
 23 42  1  0
 23 43  1  0
 24 44  1  0
 24 45  1  0
 25 46  1  0
 26 47  1  0
M  END
$$$$
