
     RDKit          3D

 52 55  0  0  0  0  0  0  0  0999 V2000
   -2.5573    3.5656    1.4978 C   0  0  0  0  0  0  0  0  0  0  0  0
   -1.6203    2.5781    2.1513 C   0  0  0  0  0  0  0  0  0  0  0  0
   -1.5001    2.5554    3.3700 O   0  0  0  0  0  0  0  0  0  0  0  0
   -1.0166    1.7615    1.2104 N   0  0  0  0  0  0  0  0  0  0  0  0
   -0.0518    0.7859    1.4221 C   0  0  0  0  0  0  0  0  0  0  0  0
    0.5913    0.5483    2.9758 S   0  0  0  0  0  0  0  0  0  0  0  0
    1.6994   -0.6018    2.4296 C   0  0  0  0  0  0  0  0  0  0  0  0
    1.5807   -0.8527    1.0775 C   0  0  0  0  0  0  0  0  0  0  0  0
    0.5167   -0.0620    0.4652 C   0  0  0  0  0  0  0  0  0  0  0  0
    0.1684   -0.1759   -1.0216 C   0  0  0  0  0  0  0  0  0  0  0  0
    0.1317    1.2304   -1.6407 C   0  0  0  0  0  0  0  0  0  0  0  0
   -0.8835    1.6218   -2.5345 C   0  0  0  0  0  0  0  0  0  0  0  0
   -0.8919    2.8964   -3.1103 C   0  0  0  0  0  0  0  0  0  0  0  0
    0.1298    3.7949   -2.8212 C   0  0  0  0  0  0  0  0  0  0  0  0
    0.1157    5.3632   -3.5259 Cl  0  0  0  0  0  0  0  0  0  0  0  0
    1.1675    3.4247   -1.9731 C   0  0  0  0  0  0  0  0  0  0  0  0
    1.1755    2.1493   -1.4003 C   0  0  0  0  0  0  0  0  0  0  0  0
   -1.0143   -1.0220   -1.3001 N   0  0  0  0  0  0  0  0  0  0  0  0
   -2.2185   -0.7836   -0.4821 C   0  0  0  0  0  0  0  0  0  0  0  0
   -3.3916   -1.6580   -0.9608 C   0  0  0  0  0  0  0  0  0  0  0  0
   -3.0566   -3.0496   -0.9113 O   0  0  0  0  0  0  0  0  0  0  0  0
   -1.9038   -3.3076   -1.7202 C   0  0  0  0  0  0  0  0  0  0  0  0
   -0.7012   -2.4647   -1.2645 C   0  0  0  0  0  0  0  0  0  0  0  0
    2.5148   -1.8131    0.3886 C   0  0  0  0  0  0  0  0  0  0  0  0
    3.2473   -2.7292    1.3804 C   0  0  0  0  0  0  0  0  0  0  0  0
    3.7943   -1.9431    2.5773 C   0  0  0  0  0  0  0  0  0  0  0  0
    2.6658   -1.2630    3.3633 C   0  0  0  0  0  0  0  0  0  0  0  0
   -3.4869    3.0592    1.2246 H   0  0  0  0  0  0  0  0  0  0  0  0
   -2.0977    4.0022    0.6061 H   0  0  0  0  0  0  0  0  0  0  0  0
   -2.7796    4.3765    2.1974 H   0  0  0  0  0  0  0  0  0  0  0  0
   -1.2802    1.9147    0.2470 H   0  0  0  0  0  0  0  0  0  0  0  0
    1.0191   -0.6349   -1.5447 H   0  0  0  0  0  0  0  0  0  0  0  0
   -1.6786    0.9303   -2.8073 H   0  0  0  0  0  0  0  0  0  0  0  0
   -1.6916    3.1737   -3.7925 H   0  0  0  0  0  0  0  0  0  0  0  0
    1.9767    4.1174   -1.7560 H   0  0  0  0  0  0  0  0  0  0  0  0
    2.0088    1.8808   -0.7513 H   0  0  0  0  0  0  0  0  0  0  0  0
   -2.5369    0.2603   -0.5475 H   0  0  0  0  0  0  0  0  0  0  0  0
   -2.0273   -1.0285    0.5692 H   0  0  0  0  0  0  0  0  0  0  0  0
   -4.2576   -1.5032   -0.3092 H   0  0  0  0  0  0  0  0  0  0  0  0
   -3.6925   -1.3937   -1.9819 H   0  0  0  0  0  0  0  0  0  0  0  0
   -2.1491   -3.1123   -2.7713 H   0  0  0  0  0  0  0  0  0  0  0  0
   -1.6658   -4.3721   -1.6275 H   0  0  0  0  0  0  0  0  0  0  0  0
   -0.4268   -2.7665   -0.2464 H   0  0  0  0  0  0  0  0  0  0  0  0
    0.1397   -2.6891   -1.9305 H   0  0  0  0  0  0  0  0  0  0  0  0
    1.9778   -2.4367   -0.3308 H   0  0  0  0  0  0  0  0  0  0  0  0
    3.2525   -1.2274   -0.1743 H   0  0  0  0  0  0  0  0  0  0  0  0
    4.0657   -3.2444    0.8650 H   0  0  0  0  0  0  0  0  0  0  0  0
    2.5586   -3.5034    1.7426 H   0  0  0  0  0  0  0  0  0  0  0  0
    4.5015   -1.1851    2.2166 H   0  0  0  0  0  0  0  0  0  0  0  0
    4.3527   -2.6113    3.2425 H   0  0  0  0  0  0  0  0  0  0  0  0
    2.1292   -2.0165    3.9531 H   0  0  0  0  0  0  0  0  0  0  0  0
    3.0973   -0.5395    4.0645 H   0  0  0  0  0  0  0  0  0  0  0  0
  1  2  1  0
  2  3  2  0
  2  4  1  0
  4  5  1  0
  5  6  1  0
  6  7  1  0
  7  8  2  0
  8  9  1  0
  9 10  1  0
 10 11  1  0
 11 12  2  0
 12 13  1  0
 13 14  2  0
 14 15  1  0
 14 16  1  0
 16 17  2  0
 10 18  1  0
 18 19  1  0
 19 20  1  0
 20 21  1  0
 21 22  1  0
 22 23  1  0
  8 24  1  0
 24 25  1  0
 25 26  1  0
 26 27  1  0
  9  5  2  0
 17 11  1  0
 23 18  1  0
 27  7  1  0
  1 28  1  0
  1 29  1  0
  1 30  1  0
  4 31  1  0
 10 32  1  0
 12 33  1  0
 13 34  1  0
 16 35  1  0
 17 36  1  0
 19 37  1  0
 19 38  1  0
 20 39  1  0
 20 40  1  0
 22 41  1  0
 22 42  1  0
 23 43  1  0
 23 44  1  0
 24 45  1  0
 24 46  1  0
 25 47  1  0
 25 48  1  0
 26 49  1  0
 26 50  1  0
 27 51  1  0
 27 52  1  0
M  END
$$$$
