
     RDKit          3D

 39 42  0  0  0  0  0  0  0  0999 V2000
    0.3917   -5.0786   -1.6426 N   0  0  0  0  0  0  0  0  0  0  0  0
    0.4102   -3.9335   -1.4492 C   0  0  0  0  0  0  0  0  0  0  0  0
    0.4591   -2.4873   -1.1980 C   0  0  0  0  0  0  0  0  0  0  0  0
   -1.2034   -1.7541   -1.0752 S   0  0  0  0  0  0  0  0  0  0  0  0
   -0.7816   -0.1163   -0.5825 C   0  0  0  0  0  0  0  0  0  0  0  0
    0.4199    0.2691   -0.8811 N   0  0  0  0  0  0  0  0  0  0  0  0
    0.8175    1.4738   -0.4036 C   0  0  0  0  0  0  0  0  0  0  0  0
    0.0705    2.2705    0.3532 C   0  0  0  0  0  0  0  0  0  0  0  0
    0.8581    3.7145    0.8261 S   0  0  0  0  0  0  0  0  0  0  0  0
    2.3275    3.2170   -0.0494 C   0  0  0  0  0  0  0  0  0  0  0  0
    3.7080    4.1465   -0.0923 S   0  0  0  0  0  0  0  0  0  0  0  0
    2.0854    1.9754   -0.6440 N   0  0  0  0  0  0  0  0  0  0  0  0
    3.0664    1.2120   -1.4187 C   0  0  0  0  0  0  0  0  0  0  0  0
    3.7235    0.1874   -0.5593 C   0  0  0  0  0  0  0  0  0  0  0  0
    4.5783    0.2564    0.5228 C   0  0  0  0  0  0  0  0  0  0  0  0
    4.8731   -1.0790    0.8881 C   0  0  0  0  0  0  0  0  0  0  0  0
    4.1876   -1.8786    0.0054 C   0  0  0  0  0  0  0  0  0  0  0  0
    3.4824   -1.1210   -0.8736 O   0  0  0  0  0  0  0  0  0  0  0  0
   -1.3016    1.8805    0.6967 C   0  0  0  0  0  0  0  0  0  0  0  0
   -2.0003    2.6266    1.3794 O   0  0  0  0  0  0  0  0  0  0  0  0
   -1.7021    0.6490    0.1500 N   0  0  0  0  0  0  0  0  0  0  0  0
   -3.0723    0.2628    0.3453 C   0  0  0  0  0  0  0  0  0  0  0  0
   -3.8841   -0.1037   -0.7420 C   0  0  0  0  0  0  0  0  0  0  0  0
   -5.2217   -0.4595   -0.5453 C   0  0  0  0  0  0  0  0  0  0  0  0
   -5.7573   -0.4367    0.7354 C   0  0  0  0  0  0  0  0  0  0  0  0
   -7.0392   -0.7755    0.9217 F   0  0  0  0  0  0  0  0  0  0  0  0
   -4.9833   -0.0569    1.8231 C   0  0  0  0  0  0  0  0  0  0  0  0
   -3.6459    0.2988    1.6281 C   0  0  0  0  0  0  0  0  0  0  0  0
    1.0075   -2.0016   -2.0115 H   0  0  0  0  0  0  0  0  0  0  0  0
    0.9941   -2.3074   -0.2601 H   0  0  0  0  0  0  0  0  0  0  0  0
    2.5653    0.7486   -2.2768 H   0  0  0  0  0  0  0  0  0  0  0  0
    3.8284    1.8803   -1.8312 H   0  0  0  0  0  0  0  0  0  0  0  0
    4.9516    1.1589    0.9876 H   0  0  0  0  0  0  0  0  0  0  0  0
    5.5151   -1.4175    1.6896 H   0  0  0  0  0  0  0  0  0  0  0  0
    4.1057   -2.9492   -0.1247 H   0  0  0  0  0  0  0  0  0  0  0  0
   -3.5023   -0.0892   -1.7602 H   0  0  0  0  0  0  0  0  0  0  0  0
   -5.8496   -0.7440   -1.3841 H   0  0  0  0  0  0  0  0  0  0  0  0
   -5.4237   -0.0337    2.8150 H   0  0  0  0  0  0  0  0  0  0  0  0
   -3.0584    0.5951    2.4949 H   0  0  0  0  0  0  0  0  0  0  0  0
  1  2  3  0
  2  3  1  0
  3  4  1  0
  4  5  1  0
  5  6  2  0
  6  7  1  0
  7  8  2  0
  8  9  1  0
  9 10  1  0
 10 11  2  0
 10 12  1  0
 12 13  1  0
 13 14  1  0
 14 15  2  0
 15 16  1  0
 16 17  2  0
 17 18  1  0
  8 19  1  0
 19 20  2  0
 19 21  1  0
 21 22  1  0
 22 23  2  0
 23 24  1  0
 24 25  2  0
 25 26  1  0
 25 27  1  0
 27 28  2  0
 21  5  1  0
 28 22  1  0
 12  7  1  0
 18 14  1  0
  3 29  1  0
  3 30  1  0
 13 31  1  0
 13 32  1  0
 15 33  1  0
 16 34  1  0
 17 35  1  0
 23 36  1  0
 24 37  1  0
 27 38  1  0
 28 39  1  0
M  END
$$$$
