
     RDKit          3D

 60 65  0  0  0  0  0  0  0  0999 V2000
    1.4348   -2.4212   -0.4311 O   0  0  0  0  0  0  0  0  0  0  0  0
    2.2445   -1.6565    0.0890 C   0  0  0  0  0  0  0  0  0  0  0  0
    2.7679   -1.9455    1.4888 C   0  0  0  0  0  0  0  0  0  0  0  0
    1.9968   -0.8873    2.7481 S   0  0  0  0  0  0  0  0  0  0  0  0
    0.3761   -0.7615    2.0629 C   0  0  0  0  0  0  0  0  0  0  0  0
    0.1489    0.3746    1.4945 N   0  0  0  0  0  0  0  0  0  0  0  0
   -1.0198    0.5101    0.7548 C   0  0  0  0  0  0  0  0  0  0  0  0
   -1.1754    1.7227    0.1819 N   0  0  0  0  0  0  0  0  0  0  0  0
   -2.2616    1.9014   -0.6037 C   0  0  0  0  0  0  0  0  0  0  0  0
   -3.2142    0.9054   -0.8389 C   0  0  0  0  0  0  0  0  0  0  0  0
   -3.0289   -0.3390   -0.2425 C   0  0  0  0  0  0  0  0  0  0  0  0
   -1.9104   -0.5300    0.5711 C   0  0  0  0  0  0  0  0  0  0  0  0
   -1.6527   -1.7913    1.2761 C   0  0  0  0  0  0  0  0  0  0  0  0
   -2.4986   -2.6762    1.1663 O   0  0  0  0  0  0  0  0  0  0  0  0
   -0.4930   -1.8507    2.0602 N   0  0  0  0  0  0  0  0  0  0  0  0
   -0.2717   -3.0348    2.8412 C   0  0  0  0  0  0  0  0  0  0  0  0
    0.0632   -2.9532    4.2026 C   0  0  0  0  0  0  0  0  0  0  0  0
    0.2925   -4.1096    4.9543 C   0  0  0  0  0  0  0  0  0  0  0  0
    0.1779   -5.3633    4.3585 C   0  0  0  0  0  0  0  0  0  0  0  0
   -0.1777   -5.4622    3.0154 C   0  0  0  0  0  0  0  0  0  0  0  0
   -0.4079   -4.3061    2.2635 C   0  0  0  0  0  0  0  0  0  0  0  0
   -4.3670    1.2139   -1.7485 C   0  0  0  0  0  0  0  0  0  0  0  0
   -4.9385    2.6000   -1.4391 C   0  0  0  0  0  0  0  0  0  0  0  0
   -3.8836    3.7025   -1.2417 C   0  0  0  0  0  0  0  0  0  0  0  0
   -2.4308    3.2233   -1.3041 C   0  0  0  0  0  0  0  0  0  0  0  0
    2.7415   -0.4825   -0.4485 N   0  0  0  0  0  0  0  0  0  0  0  0
    2.4829    0.0704   -1.7339 C   0  0  0  0  0  0  0  0  0  0  0  0
    1.8103   -0.6709   -2.7158 C   0  0  0  0  0  0  0  0  0  0  0  0
    1.5700   -0.1381   -3.9798 C   0  0  0  0  0  0  0  0  0  0  0  0
    2.0089    1.1442   -4.2882 C   0  0  0  0  0  0  0  0  0  0  0  0
    2.6903    1.9154   -3.3390 C   0  0  0  0  0  0  0  0  0  0  0  0
    3.1196    3.2067   -3.6881 C   0  0  0  0  0  0  0  0  0  0  0  0
    3.7941    4.0130   -2.7754 C   0  0  0  0  0  0  0  0  0  0  0  0
    4.0464    3.5358   -1.4981 C   0  0  0  0  0  0  0  0  0  0  0  0
    3.6267    2.2509   -1.1356 C   0  0  0  0  0  0  0  0  0  0  0  0
    2.9400    1.3957   -2.0388 C   0  0  0  0  0  0  0  0  0  0  0  0
    2.5768   -2.9960    1.7250 H   0  0  0  0  0  0  0  0  0  0  0  0
    3.8516   -1.8009    1.5107 H   0  0  0  0  0  0  0  0  0  0  0  0
   -3.7385   -1.1486   -0.4033 H   0  0  0  0  0  0  0  0  0  0  0  0
    0.1222   -1.9912    4.7081 H   0  0  0  0  0  0  0  0  0  0  0  0
    0.5513   -4.0299    6.0085 H   0  0  0  0  0  0  0  0  0  0  0  0
    0.3548   -6.2637    4.9429 H   0  0  0  0  0  0  0  0  0  0  0  0
   -0.2787   -6.4386    2.5481 H   0  0  0  0  0  0  0  0  0  0  0  0
   -0.6720   -4.4128    1.2118 H   0  0  0  0  0  0  0  0  0  0  0  0
   -5.1600    0.4646   -1.6416 H   0  0  0  0  0  0  0  0  0  0  0  0
   -4.0181    1.1721   -2.7872 H   0  0  0  0  0  0  0  0  0  0  0  0
   -5.6409    2.8915   -2.2292 H   0  0  0  0  0  0  0  0  0  0  0  0
   -5.5360    2.5353   -0.5184 H   0  0  0  0  0  0  0  0  0  0  0  0
   -4.0585    4.1694   -0.2615 H   0  0  0  0  0  0  0  0  0  0  0  0
   -4.0349    4.4984   -1.9811 H   0  0  0  0  0  0  0  0  0  0  0  0
   -1.7725    3.9792   -0.8595 H   0  0  0  0  0  0  0  0  0  0  0  0
   -2.1231    3.1006   -2.3505 H   0  0  0  0  0  0  0  0  0  0  0  0
    3.2169    0.1222    0.2078 H   0  0  0  0  0  0  0  0  0  0  0  0
    1.4604   -1.6815   -2.5334 H   0  0  0  0  0  0  0  0  0  0  0  0
    1.0425   -0.7292   -4.7245 H   0  0  0  0  0  0  0  0  0  0  0  0
    1.8098    1.5370   -5.2827 H   0  0  0  0  0  0  0  0  0  0  0  0
    2.9258    3.6001   -4.6846 H   0  0  0  0  0  0  0  0  0  0  0  0
    4.1133    5.0111   -3.0608 H   0  0  0  0  0  0  0  0  0  0  0  0
    4.5631    4.1609   -0.7759 H   0  0  0  0  0  0  0  0  0  0  0  0
    3.8435    1.9439   -0.1170 H   0  0  0  0  0  0  0  0  0  0  0  0
  1  2  2  0
  2  3  1  0
  3  4  1  0
  4  5  1  0
  5  6  2  0
  6  7  1  0
  7  8  2  0
  8  9  1  0
  9 10  2  0
 10 11  1  0
 11 12  2  0
 12 13  1  0
 13 14  2  0
 13 15  1  0
 15 16  1  0
 16 17  2  0
 17 18  1  0
 18 19  2  0
 19 20  1  0
 20 21  2  0
 10 22  1  0
 22 23  1  0
 23 24  1  0
 24 25  1  0
  2 26  1  0
 26 27  1  0
 27 28  2  0
 28 29  1  0
 29 30  2  0
 30 31  1  0
 31 32  2  0
 32 33  1  0
 33 34  2  0
 34 35  1  0
 35 36  2  0
 15  5  1  0
 21 16  1  0
 36 27  1  0
 12  7  1  0
 36 31  1  0
 25  9  1  0
  3 37  1  0
  3 38  1  0
 11 39  1  0
 17 40  1  0
 18 41  1  0
 19 42  1  0
 20 43  1  0
 21 44  1  0
 22 45  1  0
 22 46  1  0
 23 47  1  0
 23 48  1  0
 24 49  1  0
 24 50  1  0
 25 51  1  0
 25 52  1  0
 26 53  1  0
 28 54  1  0
 29 55  1  0
 30 56  1  0
 32 57  1  0
 33 58  1  0
 34 59  1  0
 35 60  1  0
M  END
$$$$
