
     RDKit          3D

 42 44  0  0  0  0  0  0  0  0999 V2000
   -2.7058    1.0130    1.8326 O   0  0  0  0  0  0  0  0  0  0  0  0
   -2.5588    0.6970    0.6494 C   0  0  0  0  0  0  0  0  0  0  0  0
   -3.6971    0.9024   -0.3816 C   0  0  0  0  0  0  0  0  0  0  0  0
   -4.5056   -0.3756   -0.5475 C   0  0  0  0  0  0  0  0  0  0  0  0
   -5.5770   -0.2146    0.5035 C   0  0  0  0  0  0  0  0  0  0  0  0
   -5.8346    1.2756    0.4803 C   0  0  0  0  0  0  0  0  0  0  0  0
   -4.6332    1.9099    0.0241 O   0  0  0  0  0  0  0  0  0  0  0  0
   -1.3783    0.1136    0.1982 N   0  0  0  0  0  0  0  0  0  0  0  0
   -0.2670   -0.0623    1.1398 C   0  0  0  0  0  0  0  0  0  0  0  0
    1.0827    0.2822    0.4994 C   0  0  0  0  0  0  0  0  0  0  0  0
    1.3610   -0.5291   -0.7352 N   0  0  0  0  0  0  0  0  0  0  0  0
    2.6361   -1.6581   -0.5983 S   0  0  0  0  0  6  0  0  0  0  0  0
    2.7943   -2.3088   -1.8811 O   0  0  0  0  0  0  0  0  0  0  0  0
    2.3926   -2.4202    0.6087 O   0  0  0  0  0  0  0  0  0  0  0  0
    4.0528   -0.6210   -0.3488 C   0  0  0  0  0  0  0  0  0  0  0  0
    4.4146    0.2826   -1.3526 C   0  0  0  0  0  0  0  0  0  0  0  0
    5.5238    1.1063   -1.1651 C   0  0  0  0  0  0  0  0  0  0  0  0
    6.2644    1.0214    0.0156 C   0  0  0  0  0  0  0  0  0  0  0  0
    5.9021    0.1116    1.0114 C   0  0  0  0  0  0  0  0  0  0  0  0
    4.7940   -0.7163    0.8320 C   0  0  0  0  0  0  0  0  0  0  0  0
    0.1345   -1.1220   -1.3576 C   0  0  0  0  0  0  0  0  0  0  0  0
   -1.0821   -0.2009   -1.2033 C   0  0  0  0  0  0  0  0  0  0  0  0
   -3.2627    1.2349   -1.3286 H   0  0  0  0  0  0  0  0  0  0  0  0
   -4.9703   -0.3928   -1.5407 H   0  0  0  0  0  0  0  0  0  0  0  0
   -3.9310   -1.2974   -0.4209 H   0  0  0  0  0  0  0  0  0  0  0  0
   -5.1871   -0.5115    1.4842 H   0  0  0  0  0  0  0  0  0  0  0  0
   -6.4761   -0.8048    0.3072 H   0  0  0  0  0  0  0  0  0  0  0  0
   -6.1083    1.6683    1.4637 H   0  0  0  0  0  0  0  0  0  0  0  0
   -6.6314    1.5270   -0.2275 H   0  0  0  0  0  0  0  0  0  0  0  0
   -0.2815   -1.1123    1.4553 H   0  0  0  0  0  0  0  0  0  0  0  0
   -0.4130    0.5518    2.0340 H   0  0  0  0  0  0  0  0  0  0  0  0
    1.8743    0.1625    1.2451 H   0  0  0  0  0  0  0  0  0  0  0  0
    1.0937    1.3366    0.1966 H   0  0  0  0  0  0  0  0  0  0  0  0
    3.8403    0.3432   -2.2743 H   0  0  0  0  0  0  0  0  0  0  0  0
    5.8153    1.8117   -1.9396 H   0  0  0  0  0  0  0  0  0  0  0  0
    7.1312    1.6629    0.1581 H   0  0  0  0  0  0  0  0  0  0  0  0
    6.4877    0.0462    1.9255 H   0  0  0  0  0  0  0  0  0  0  0  0
    4.5203   -1.4269    1.6085 H   0  0  0  0  0  0  0  0  0  0  0  0
   -0.0853   -2.0910   -0.8928 H   0  0  0  0  0  0  0  0  0  0  0  0
    0.3240   -1.2829   -2.4244 H   0  0  0  0  0  0  0  0  0  0  0  0
   -1.9554   -0.6655   -1.6689 H   0  0  0  0  0  0  0  0  0  0  0  0
   -0.8980    0.7533   -1.7116 H   0  0  0  0  0  0  0  0  0  0  0  0
  1  2  2  0
  2  3  1  0
  3  4  1  0
  4  5  1  0
  5  6  1  0
  6  7  1  0
  2  8  1  0
  8  9  1  0
  9 10  1  0
 10 11  1  0
 11 12  1  0
 12 13  2  0
 12 14  2  0
 12 15  1  0
 15 16  2  0
 16 17  1  0
 17 18  2  0
 18 19  1  0
 19 20  2  0
 11 21  1  0
 21 22  1  0
  7  3  1  0
 22  8  1  0
 20 15  1  0
  3 23  1  0
  4 24  1  0
  4 25  1  0
  5 26  1  0
  5 27  1  0
  6 28  1  0
  6 29  1  0
  9 30  1  0
  9 31  1  0
 10 32  1  0
 10 33  1  0
 16 34  1  0
 17 35  1  0
 18 36  1  0
 19 37  1  0
 20 38  1  0
 21 39  1  0
 21 40  1  0
 22 41  1  0
 22 42  1  0
M  END
$$$$
