
     RDKit          3D

 37 40  0  0  0  0  0  0  0  0999 V2000
    2.9407    2.0135    1.7134 C   0  0  0  0  0  0  0  0  0  0  0  0
    3.2263    0.8617    0.8171 C   0  0  0  0  0  0  0  0  0  0  0  0
    4.5144    0.5873    0.5559 N   0  0  0  0  0  0  0  0  0  0  0  0
    4.4625   -0.4074   -0.3361 N   0  0  0  0  0  0  0  0  0  0  0  0
    5.6894   -0.9608   -0.8544 C   0  0  0  0  0  0  0  0  0  0  0  0
    3.1960   -0.7774   -0.6611 C   0  0  0  0  0  0  0  0  0  0  0  0
    2.3329    0.0049    0.0847 C   0  0  0  0  0  0  0  0  0  0  0  0
    0.9147   -0.0572    0.0595 N   0  0  0  0  0  0  0  0  0  0  0  0
    0.2173    0.2831    1.2244 C   0  0  0  0  0  0  0  0  0  0  0  0
    0.7129    0.4613    2.3358 O   0  0  0  0  0  0  0  0  0  0  0  0
   -1.2600    0.3533    1.1404 C   0  0  0  0  0  0  0  0  0  0  0  0
   -1.9752    0.8609    2.2342 C   0  0  0  0  0  0  0  0  0  0  0  0
   -3.3604    0.9259    2.1906 C   0  0  0  0  0  0  0  0  0  0  0  0
   -4.0366    0.4644    1.0624 C   0  0  0  0  0  0  0  0  0  0  0  0
   -3.3489   -0.0735   -0.0493 C   0  0  0  0  0  0  0  0  0  0  0  0
   -4.0154   -0.5853   -1.1965 C   0  0  0  0  0  0  0  0  0  0  0  0
   -5.4135   -0.5101   -1.3495 N   0  0  0  0  0  0  0  0  0  0  0  0
   -3.2610   -0.9958   -2.3002 C   0  0  0  0  0  0  0  0  0  0  0  0
   -1.8708   -1.0104   -2.2467 C   0  0  0  0  0  0  0  0  0  0  0  0
   -1.2038   -0.5739   -1.0960 C   0  0  0  0  0  0  0  0  0  0  0  0
   -1.9258   -0.1002   -0.0009 C   0  0  0  0  0  0  0  0  0  0  0  0
    0.2808   -0.5684   -1.0853 C   0  0  0  0  0  0  0  0  0  0  0  0
    0.8342   -0.9876   -2.1019 O   0  0  0  0  0  0  0  0  0  0  0  0
    2.8834    1.6875    2.7561 H   0  0  0  0  0  0  0  0  0  0  0  0
    2.0086    2.5146    1.4361 H   0  0  0  0  0  0  0  0  0  0  0  0
    3.7356    2.7652    1.6460 H   0  0  0  0  0  0  0  0  0  0  0  0
    5.4585   -1.7568   -1.5665 H   0  0  0  0  0  0  0  0  0  0  0  0
    6.2659   -1.3646   -0.0183 H   0  0  0  0  0  0  0  0  0  0  0  0
    6.2439   -0.1626   -1.3543 H   0  0  0  0  0  0  0  0  0  0  0  0
    3.0189   -1.5719   -1.3721 H   0  0  0  0  0  0  0  0  0  0  0  0
   -1.4527    1.2115    3.1230 H   0  0  0  0  0  0  0  0  0  0  0  0
   -3.9155    1.3312    3.0333 H   0  0  0  0  0  0  0  0  0  0  0  0
   -5.1211    0.5406    1.0610 H   0  0  0  0  0  0  0  0  0  0  0  0
   -5.9308   -0.6110   -0.4830 H   0  0  0  0  0  0  0  0  0  0  0  0
   -5.7805   -1.1266   -2.0689 H   0  0  0  0  0  0  0  0  0  0  0  0
   -3.7535   -1.3155   -3.2158 H   0  0  0  0  0  0  0  0  0  0  0  0
   -1.3115   -1.3499   -3.1171 H   0  0  0  0  0  0  0  0  0  0  0  0
  1  2  1  0
  2  3  2  0
  3  4  1  0
  4  5  1  0
  4  6  1  0
  6  7  2  0
  7  8  1  0
  8  9  1  0
  9 10  2  0
  9 11  1  0
 11 12  2  0
 12 13  1  0
 13 14  2  0
 14 15  1  0
 15 16  2  0
 16 17  1  0
 16 18  1  0
 18 19  2  0
 19 20  1  0
 20 21  2  0
 20 22  1  0
 22 23  2  0
  7  2  1  0
 22  8  1  0
 21 11  1  0
 21 15  1  0
  1 24  1  0
  1 25  1  0
  1 26  1  0
  5 27  1  0
  5 28  1  0
  5 29  1  0
  6 30  1  0
 12 31  1  0
 13 32  1  0
 14 33  1  0
 17 34  1  0
 17 35  1  0
 18 36  1  0
 19 37  1  0
M  END
$$$$
