
     RDKit          3D

 46 50  0  0  0  0  0  0  0  0999 V2000
   -7.3093   -1.0417    2.3174 C   0  0  0  0  0  0  0  0  0  0  0  0
   -5.9998   -0.7895    1.6143 C   0  0  0  0  0  0  0  0  0  0  0  0
   -4.8231   -1.3276    2.1644 C   0  0  0  0  0  0  0  0  0  0  0  0
   -3.5730   -1.1368    1.5712 C   0  0  0  0  0  0  0  0  0  0  0  0
   -3.5452   -0.3819    0.3990 C   0  0  0  0  0  0  0  0  0  0  0  0
   -4.6907    0.1732   -0.1838 C   0  0  0  0  0  0  0  0  0  0  0  0
   -4.3766    0.8729   -1.3379 N   0  0  0  0  0  0  0  0  0  0  0  0
   -3.0851    0.7381   -1.4359 C   0  0  0  0  0  0  0  0  0  0  0  0
   -1.9369    1.3059   -2.5783 S   0  0  0  0  0  0  0  0  0  0  0  0
   -0.6401    0.5047   -1.6839 C   0  0  0  0  0  0  0  0  0  0  0  0
    0.6271    0.6024   -2.1114 C   0  0  0  0  0  0  0  0  0  0  0  0
    1.7742    0.0215   -1.5090 C   0  0  0  0  0  0  0  0  0  0  0  0
    1.9915   -1.2155   -0.9167 C   0  0  0  0  0  0  0  0  0  0  0  0
    3.3463   -1.2775   -0.5091 C   0  0  0  0  0  0  0  0  0  0  0  0
    3.9175   -0.0828   -0.8820 C   0  0  0  0  0  0  0  0  0  0  0  0
    5.2529    0.4983   -0.7768 C   0  0  0  0  0  0  0  0  0  0  0  0
    5.7461    1.2712   -1.8444 C   0  0  0  0  0  0  0  0  0  0  0  0
    7.0452    1.7891   -1.8277 C   0  0  0  0  0  0  0  0  0  0  0  0
    7.8821    1.5406   -0.7439 C   0  0  0  0  0  0  0  0  0  0  0  0
    7.4144    0.7878    0.3309 C   0  0  0  0  0  0  0  0  0  0  0  0
    6.1031    0.2849    0.3224 C   0  0  0  0  0  0  0  0  0  0  0  0
    5.6844   -0.4538    1.5249 C   0  0  0  0  0  0  0  0  0  0  0  0
    6.2529   -1.4139    2.0074 O   0  0  0  0  0  0  0  0  0  0  0  0
    4.6176    0.1219    2.1027 O   0  0  0  0  0  0  0  0  0  0  0  0
    2.9824    0.6853   -1.5093 O   0  0  0  0  0  0  0  0  0  0  0  0
   -1.1683   -0.1929   -0.4676 C   0  0  0  0  0  0  0  0  0  0  0  0
   -0.6022   -0.8318    0.3974 O   0  0  0  0  0  0  0  0  0  0  0  0
   -2.5327    0.0057   -0.4427 N   0  0  0  0  0  0  0  0  0  0  0  0
   -5.9534   -0.0223    0.4193 C   0  0  0  0  0  0  0  0  0  0  0  0
   -7.2056    0.5588   -0.1775 C   0  0  0  0  0  0  0  0  0  0  0  0
   -7.1725   -1.6494    3.2182 H   0  0  0  0  0  0  0  0  0  0  0  0
   -7.7634   -0.0947    2.6258 H   0  0  0  0  0  0  0  0  0  0  0  0
   -7.9966   -1.5815    1.6585 H   0  0  0  0  0  0  0  0  0  0  0  0
   -4.8721   -1.9135    3.0818 H   0  0  0  0  0  0  0  0  0  0  0  0
   -2.6713   -1.5573    2.0070 H   0  0  0  0  0  0  0  0  0  0  0  0
    0.8424    1.2154   -2.9846 H   0  0  0  0  0  0  0  0  0  0  0  0
    1.2567   -1.9989   -0.7909 H   0  0  0  0  0  0  0  0  0  0  0  0
    3.8402   -2.1030   -0.0155 H   0  0  0  0  0  0  0  0  0  0  0  0
    5.1186    1.4624   -2.7138 H   0  0  0  0  0  0  0  0  0  0  0  0
    7.4032    2.3788   -2.6685 H   0  0  0  0  0  0  0  0  0  0  0  0
    8.8949    1.9361   -0.7338 H   0  0  0  0  0  0  0  0  0  0  0  0
    8.0660    0.6007    1.1822 H   0  0  0  0  0  0  0  0  0  0  0  0
    4.4381   -0.4180    2.8995 H   0  0  0  0  0  0  0  0  0  0  0  0
   -6.9912    1.1193   -1.0929 H   0  0  0  0  0  0  0  0  0  0  0  0
   -7.6793    1.2478    0.5287 H   0  0  0  0  0  0  0  0  0  0  0  0
   -7.9096   -0.2385   -0.4354 H   0  0  0  0  0  0  0  0  0  0  0  0
  1  2  1  0
  2  3  2  0
  3  4  1  0
  4  5  2  0
  5  6  1  0
  6  7  1  0
  7  8  2  0
  8  9  1  0
  9 10  1  0
 10 11  2  3
 11 12  1  0
 12 13  2  0
 13 14  1  0
 14 15  2  0
 15 16  1  0
 16 17  2  0
 17 18  1  0
 18 19  2  0
 19 20  1  0
 20 21  2  0
 21 22  1  0
 22 23  2  0
 22 24  1  0
 15 25  1  0
 10 26  1  0
 26 27  2  0
 26 28  1  0
  6 29  2  0
 29 30  1  0
 29  2  1  0
 28  5  1  0
 28  8  1  0
 25 12  1  0
 21 16  1  0
  1 31  1  0
  1 32  1  0
  1 33  1  0
  3 34  1  0
  4 35  1  0
 11 36  1  0
 13 37  1  0
 14 38  1  0
 17 39  1  0
 18 40  1  0
 19 41  1  0
 20 42  1  0
 24 43  1  0
 30 44  1  0
 30 45  1  0
 30 46  1  0
M  END
$$$$
