
     RDKit          3D

 37 37  0  0  0  0  0  0  0  0999 V2000
   -3.7886   -2.5746    0.7600 C   0  0  0  0  0  0  0  0  0  0  0  0
   -2.7502   -1.5622    1.2237 C   0  0  0  0  0  0  0  0  0  0  0  0
   -2.4081   -0.5979    0.1647 N   0  0  0  0  0  0  0  0  0  0  0  0
   -3.4922    0.2513   -0.3710 C   0  0  0  0  0  0  0  0  0  0  0  0
   -3.9732    1.2910    0.6330 C   0  0  0  0  0  0  0  0  0  0  0  0
   -1.1525    0.0268    0.2320 C   0  0  0  0  0  0  0  0  0  0  0  0
   -0.5501    0.5078   -0.9448 C   0  0  0  0  0  0  0  0  0  0  0  0
    0.7023    1.1285   -0.9310 C   0  0  0  0  0  0  0  0  0  0  0  0
    1.3802    1.2611    0.2765 C   0  0  0  0  0  0  0  0  0  0  0  0
    2.6976    1.9086    0.3303 C   0  0  0  0  0  0  0  0  0  0  0  0
    3.8086    1.4891   -0.1727 N   0  0  0  0  0  0  0  0  0  0  0  0
    3.8779    0.1874   -0.8750 C   0  0  0  0  0  0  0  0  0  0  0  0
    3.7745    0.4224   -2.3239 C   0  0  0  0  0  0  0  0  0  0  0  0
    3.6607    0.5987   -3.4660 N   0  0  0  0  0  0  0  0  0  0  0  0
    5.2276   -0.4076   -0.5633 C   0  0  0  0  0  0  0  0  0  0  0  0
    6.1987    0.1879    0.0612 N   0  0  0  0  0  0  0  0  0  0  0  0
    5.5014   -1.7712   -0.9500 C   0  0  0  0  0  0  0  0  0  0  0  0
    5.6555   -2.8780   -1.2686 N   0  0  0  0  0  0  0  0  0  0  0  0
    0.8092    0.8144    1.4644 C   0  0  0  0  0  0  0  0  0  0  0  0
   -0.4446    0.1941    1.4339 C   0  0  0  0  0  0  0  0  0  0  0  0
   -3.4946   -3.0369   -0.1879 H   0  0  0  0  0  0  0  0  0  0  0  0
   -4.7712   -2.1127    0.6258 H   0  0  0  0  0  0  0  0  0  0  0  0
   -3.9006   -3.3668    1.5074 H   0  0  0  0  0  0  0  0  0  0  0  0
   -1.8587   -2.1383    1.5036 H   0  0  0  0  0  0  0  0  0  0  0  0
   -3.1066   -1.0486    2.1238 H   0  0  0  0  0  0  0  0  0  0  0  0
   -3.1823    0.7594   -1.2915 H   0  0  0  0  0  0  0  0  0  0  0  0
   -4.3391   -0.3747   -0.6711 H   0  0  0  0  0  0  0  0  0  0  0  0
   -3.1638    1.9622    0.9367 H   0  0  0  0  0  0  0  0  0  0  0  0
   -4.3793    0.8213    1.5340 H   0  0  0  0  0  0  0  0  0  0  0  0
   -4.7665    1.9011    0.1890 H   0  0  0  0  0  0  0  0  0  0  0  0
   -1.0530    0.3767   -1.9010 H   0  0  0  0  0  0  0  0  0  0  0  0
    1.1205    1.5040   -1.8613 H   0  0  0  0  0  0  0  0  0  0  0  0
    2.7200    2.8577    0.8951 H   0  0  0  0  0  0  0  0  0  0  0  0
    3.1171   -0.5210   -0.5297 H   0  0  0  0  0  0  0  0  0  0  0  0
    5.8690    1.1429    0.2899 H   0  0  0  0  0  0  0  0  0  0  0  0
    1.3254    0.9328    2.4137 H   0  0  0  0  0  0  0  0  0  0  0  0
   -0.8710   -0.1368    2.3772 H   0  0  0  0  0  0  0  0  0  0  0  0
  1  2  1  0
  2  3  1  0
  3  4  1  0
  4  5  1  0
  3  6  1  0
  6  7  2  0
  7  8  1  0
  8  9  2  0
  9 10  1  0
 10 11  2  3
 11 12  1  0
 12 13  1  0
 13 14  3  0
 12 15  1  0
 15 16  2  3
 15 17  1  0
 17 18  3  0
  9 19  1  0
 19 20  2  0
 20  6  1  0
  1 21  1  0
  1 22  1  0
  1 23  1  0
  2 24  1  0
  2 25  1  0
  4 26  1  0
  4 27  1  0
  5 28  1  0
  5 29  1  0
  5 30  1  0
  7 31  1  0
  8 32  1  0
 10 33  1  0
 12 34  1  0
 16 35  1  0
 19 36  1  0
 20 37  1  0
M  END
$$$$
