
     RDKit          3D

 59 63  0  0  0  0  0  0  0  0999 V2000
   -3.5915    0.6478   -1.7455 C   0  0  0  0  0  0  0  0  0  0  0  0
   -2.3057    1.4674   -1.6535 C   0  0  0  0  0  0  0  0  0  0  0  0
   -1.6341    1.4328   -0.2575 C   0  0  0  0  0  0  0  0  0  0  0  0
   -0.8974    0.1645    0.0588 N   0  0  0  0  0  0  0  0  0  0  0  0
   -1.5994   -0.5856    1.0318 C   0  0  0  0  0  0  0  0  0  0  0  0
   -2.5679   -1.4250    0.6053 N   0  0  0  0  0  0  0  0  0  0  0  0
   -3.2704   -2.1181    1.5168 C   0  0  0  0  0  0  0  0  0  0  0  0
   -4.2769   -2.9798    1.0997 C   0  0  0  0  0  0  0  0  0  0  0  0
   -5.0280   -3.7157    2.0200 C   0  0  0  0  0  0  0  0  0  0  0  0
   -4.7613   -3.5932    3.3808 C   0  0  0  0  0  0  0  0  0  0  0  0
   -3.7561   -2.7269    3.8076 C   0  0  0  0  0  0  0  0  0  0  0  0
   -3.0133   -1.9849    2.8972 C   0  0  0  0  0  0  0  0  0  0  0  0
   -2.0564   -1.1560    3.3409 N   0  0  0  0  0  0  0  0  0  0  0  0
   -1.3368   -0.4551    2.4087 C   0  0  0  0  0  0  0  0  0  0  0  0
   -0.2374    0.4067    2.9842 C   0  0  0  0  0  0  0  0  0  0  0  0
   -0.3602    1.8299    2.6800 C   0  0  0  0  0  0  0  0  0  0  0  0
   -0.4822    2.9563    2.4649 N   0  0  0  0  0  0  0  0  0  0  0  0
    1.1581   -0.1190    2.6911 C   0  0  0  0  0  0  0  0  0  0  0  0
    1.8585   -0.6103    3.5880 O   0  0  0  0  0  0  0  0  0  0  0  0
    1.6146   -0.0109    1.4032 N   0  0  0  0  0  0  0  0  0  0  0  0
    2.8808   -0.5785    0.9950 C   0  0  0  0  0  0  0  0  0  0  0  0
    3.5212    0.2496   -0.0886 C   0  0  0  0  0  0  0  0  0  0  0  0
    3.5283   -0.2006   -1.4258 C   0  0  0  0  0  0  0  0  0  0  0  0
    4.1524    0.5489   -2.4353 C   0  0  0  0  0  0  0  0  0  0  0  0
    4.7649    1.7284   -2.0730 C   0  0  0  0  0  0  0  0  0  0  0  0
    4.7471    2.1847   -0.7764 C   0  0  0  0  0  0  0  0  0  0  0  0
    4.1275    1.4799    0.2323 C   0  0  0  0  0  0  0  0  0  0  0  0
    5.4004    3.3729   -0.6370 O   0  0  0  0  0  0  0  0  0  0  0  0
    5.9201    3.5541   -1.9715 C   0  0  0  0  0  0  0  0  0  0  0  0
    5.4440    2.5652   -2.9103 O   0  0  0  0  0  0  0  0  0  0  0  0
   -0.6030   -0.6319   -1.1697 C   0  0  0  0  0  0  0  0  0  0  0  0
   -0.2926    0.3147   -2.3456 C   0  0  0  0  0  0  0  0  0  0  0  0
    0.1644   -0.4565   -3.5843 C   0  0  0  0  0  0  0  0  0  0  0  0
   -1.4331    1.1034   -2.7316 O   0  0  0  0  0  0  0  0  0  0  0  0
   -4.2224    0.7842   -0.8579 H   0  0  0  0  0  0  0  0  0  0  0  0
   -4.1828    0.9554   -2.6177 H   0  0  0  0  0  0  0  0  0  0  0  0
   -3.3972   -0.4153   -1.8866 H   0  0  0  0  0  0  0  0  0  0  0  0
   -2.5998    2.5037   -1.8451 H   0  0  0  0  0  0  0  0  0  0  0  0
   -0.8724    2.2238   -0.2497 H   0  0  0  0  0  0  0  0  0  0  0  0
   -2.3662    1.6981    0.5117 H   0  0  0  0  0  0  0  0  0  0  0  0
   -4.4827   -3.0759    0.0353 H   0  0  0  0  0  0  0  0  0  0  0  0
   -5.8120   -4.3844    1.6757 H   0  0  0  0  0  0  0  0  0  0  0  0
   -5.3292   -4.1695    4.1086 H   0  0  0  0  0  0  0  0  0  0  0  0
   -3.5411   -2.6294    4.8725 H   0  0  0  0  0  0  0  0  0  0  0  0
   -0.3257    0.3404    4.0836 H   0  0  0  0  0  0  0  0  0  0  0  0
    0.9635    0.2842    0.6821 H   0  0  0  0  0  0  0  0  0  0  0  0
    2.6832   -1.5945    0.6398 H   0  0  0  0  0  0  0  0  0  0  0  0
    3.5660   -0.6707    1.8478 H   0  0  0  0  0  0  0  0  0  0  0  0
    3.0605   -1.1478   -1.6896 H   0  0  0  0  0  0  0  0  0  0  0  0
    4.1614    0.2066   -3.4682 H   0  0  0  0  0  0  0  0  0  0  0  0
    4.1280    1.8612    1.2457 H   0  0  0  0  0  0  0  0  0  0  0  0
    5.6357    4.5515   -2.3291 H   0  0  0  0  0  0  0  0  0  0  0  0
    7.0147    3.4943   -1.9235 H   0  0  0  0  0  0  0  0  0  0  0  0
   -1.4311   -1.2869   -1.4571 H   0  0  0  0  0  0  0  0  0  0  0  0
    0.2644   -1.2676   -0.9730 H   0  0  0  0  0  0  0  0  0  0  0  0
    0.4981    1.0067   -2.0583 H   0  0  0  0  0  0  0  0  0  0  0  0
    0.3137    0.2274   -4.4304 H   0  0  0  0  0  0  0  0  0  0  0  0
    1.0978   -0.9953   -3.4092 H   0  0  0  0  0  0  0  0  0  0  0  0
   -0.6030   -1.1593   -3.9080 H   0  0  0  0  0  0  0  0  0  0  0  0
  1  2  1  0
  2  3  1  0
  3  4  1  0
  4  5  1  0
  5  6  2  0
  6  7  1  0
  7  8  2  0
  8  9  1  0
  9 10  2  0
 10 11  1  0
 11 12  2  0
 12 13  1  0
 13 14  2  0
 14 15  1  0
 15 16  1  0
 16 17  3  0
 15 18  1  0
 18 19  2  0
 18 20  1  0
 20 21  1  0
 21 22  1  0
 22 23  2  0
 23 24  1  0
 24 25  2  0
 25 26  1  0
 26 27  2  0
 26 28  1  0
 28 29  1  0
 29 30  1  0
  4 31  1  0
 31 32  1  0
 32 33  1  0
 32 34  1  0
 34  2  1  0
 14  5  1  0
 27 22  1  0
 12  7  1  0
 30 25  1  0
  1 35  1  0
  1 36  1  0
  1 37  1  0
  2 38  1  0
  3 39  1  0
  3 40  1  0
  8 41  1  0
  9 42  1  0
 10 43  1  0
 11 44  1  0
 15 45  1  0
 20 46  1  0
 21 47  1  0
 21 48  1  0
 23 49  1  0
 24 50  1  0
 27 51  1  0
 29 52  1  0
 29 53  1  0
 31 54  1  0
 31 55  1  0
 32 56  1  0
 33 57  1  0
 33 58  1  0
 33 59  1  0
M  END
$$$$
