
     RDKit          3D

 55 56  0  0  0  0  0  0  0  0999 V2000
   -6.5084   -0.5810    0.7335 C   0  0  0  0  0  0  0  0  0  0  0  0
   -5.4007    0.4397    0.4667 C   0  0  0  0  0  0  0  0  0  0  0  0
   -4.1954    0.0582    1.1872 N   0  0  0  0  0  0  0  0  0  0  0  0
   -2.9479    0.1231    0.5998 C   0  0  0  0  0  0  0  0  0  0  0  0
   -2.7702    0.3758   -0.5865 O   0  0  0  0  0  0  0  0  0  0  0  0
   -1.8243   -0.1103    1.5917 C   0  0  0  0  0  0  0  0  0  0  0  0
   -0.4726   -0.3420    0.9282 C   0  0  0  0  0  0  0  0  0  0  0  0
   -0.3662   -2.0261    0.2166 S   0  0  0  0  0  0  0  0  0  0  0  0
   -0.0274   -1.6046   -1.5325 C   0  0  0  0  0  0  0  0  0  0  0  0
    1.4353   -1.8345   -1.8919 C   0  0  0  0  0  0  0  0  0  0  0  0
    2.3717   -0.7641   -1.3690 C   0  0  0  0  0  0  0  0  0  0  0  0
    2.0096    0.3591   -1.0394 O   0  0  0  0  0  0  0  0  0  0  0  0
    3.6899   -1.1631   -1.3582 N   0  0  0  0  0  0  0  0  0  0  0  0
    4.7563   -0.2982   -0.8808 C   0  0  0  0  0  0  0  0  0  0  0  0
    5.1092    0.7773   -1.9127 C   0  0  0  0  0  0  0  0  0  0  0  0
    5.9557   -1.1447   -0.4908 C   0  0  0  0  0  0  0  0  0  0  0  0
    6.7615   -1.7751   -1.4534 C   0  0  0  0  0  0  0  0  0  0  0  0
    7.8424   -2.5704   -1.0680 C   0  0  0  0  0  0  0  0  0  0  0  0
    8.1282   -2.7528    0.2829 C   0  0  0  0  0  0  0  0  0  0  0  0
    7.3327   -2.1428    1.2500 C   0  0  0  0  0  0  0  0  0  0  0  0
    6.2521   -1.3467    0.8666 C   0  0  0  0  0  0  0  0  0  0  0  0
   -5.7634    1.8721    0.8259 C   0  0  0  0  0  0  0  0  0  0  0  0
   -5.1914    2.9218    0.0852 C   0  0  0  0  0  0  0  0  0  0  0  0
   -5.4692    4.2543    0.3940 C   0  0  0  0  0  0  0  0  0  0  0  0
   -6.3171    4.5602    1.4550 C   0  0  0  0  0  0  0  0  0  0  0  0
   -6.8819    3.5341    2.2092 C   0  0  0  0  0  0  0  0  0  0  0  0
   -6.6031    2.1995    1.9019 C   0  0  0  0  0  0  0  0  0  0  0  0
   -6.2150   -1.5661    0.3538 H   0  0  0  0  0  0  0  0  0  0  0  0
   -7.4415   -0.2915    0.2385 H   0  0  0  0  0  0  0  0  0  0  0  0
   -6.7114   -0.7031    1.8033 H   0  0  0  0  0  0  0  0  0  0  0  0
   -5.2001    0.4020   -0.6117 H   0  0  0  0  0  0  0  0  0  0  0  0
   -4.2425    0.0777    2.1962 H   0  0  0  0  0  0  0  0  0  0  0  0
   -2.0822   -0.9382    2.2618 H   0  0  0  0  0  0  0  0  0  0  0  0
   -1.7595    0.7967    2.2056 H   0  0  0  0  0  0  0  0  0  0  0  0
   -0.2705    0.4281    0.1789 H   0  0  0  0  0  0  0  0  0  0  0  0
    0.3144   -0.2722    1.6866 H   0  0  0  0  0  0  0  0  0  0  0  0
   -0.3567   -0.5888   -1.7709 H   0  0  0  0  0  0  0  0  0  0  0  0
   -0.6413   -2.2851   -2.1330 H   0  0  0  0  0  0  0  0  0  0  0  0
    1.7679   -2.8231   -1.5529 H   0  0  0  0  0  0  0  0  0  0  0  0
    1.5324   -1.8201   -2.9847 H   0  0  0  0  0  0  0  0  0  0  0  0
    3.9171   -2.1285   -1.5577 H   0  0  0  0  0  0  0  0  0  0  0  0
    4.3815    0.2212    0.0111 H   0  0  0  0  0  0  0  0  0  0  0  0
    4.2565    1.4415   -2.0930 H   0  0  0  0  0  0  0  0  0  0  0  0
    5.3839    0.3431   -2.8805 H   0  0  0  0  0  0  0  0  0  0  0  0
    5.9462    1.3943   -1.5671 H   0  0  0  0  0  0  0  0  0  0  0  0
    6.5520   -1.6564   -2.5142 H   0  0  0  0  0  0  0  0  0  0  0  0
    8.4605   -3.0499   -1.8228 H   0  0  0  0  0  0  0  0  0  0  0  0
    8.9689   -3.3729    0.5824 H   0  0  0  0  0  0  0  0  0  0  0  0
    7.5514   -2.2893    2.3045 H   0  0  0  0  0  0  0  0  0  0  0  0
    5.6380   -0.8855    1.6380 H   0  0  0  0  0  0  0  0  0  0  0  0
   -4.5138    2.7000   -0.7393 H   0  0  0  0  0  0  0  0  0  0  0  0
   -5.0184    5.0511   -0.1921 H   0  0  0  0  0  0  0  0  0  0  0  0
   -6.5331    5.5975    1.6968 H   0  0  0  0  0  0  0  0  0  0  0  0
   -7.5388    3.7731    3.0420 H   0  0  0  0  0  0  0  0  0  0  0  0
   -7.0514    1.4258    2.5191 H   0  0  0  0  0  0  0  0  0  0  0  0
  1  2  1  0
  2  3  1  0
  3  4  1  0
  4  5  2  0
  4  6  1  0
  6  7  1  0
  7  8  1  0
  8  9  1  0
  9 10  1  0
 10 11  1  0
 11 12  2  0
 11 13  1  0
 13 14  1  0
 14 15  1  0
 14 16  1  0
 16 17  2  0
 17 18  1  0
 18 19  2  0
 19 20  1  0
 20 21  2  0
  2 22  1  0
 22 23  2  0
 23 24  1  0
 24 25  2  0
 25 26  1  0
 26 27  2  0
 21 16  1  0
 27 22  1  0
  1 28  1  0
  1 29  1  0
  1 30  1  0
  2 31  1  0
  3 32  1  0
  6 33  1  0
  6 34  1  0
  7 35  1  0
  7 36  1  0
  9 37  1  0
  9 38  1  0
 10 39  1  0
 10 40  1  0
 13 41  1  0
 14 42  1  0
 15 43  1  0
 15 44  1  0
 15 45  1  0
 17 46  1  0
 18 47  1  0
 19 48  1  0
 20 49  1  0
 21 50  1  0
 23 51  1  0
 24 52  1  0
 25 53  1  0
 26 54  1  0
 27 55  1  0
M  END
$$$$
