
     RDKit          3D

 34 35  0  0  0  0  0  0  0  0999 V2000
   -3.9440   -2.7478    0.8751 O   0  0  0  0  0  0  0  0  0  0  0  0
   -2.9177   -2.3181    0.3277 N   0  0  0  0  0  4  0  0  0  0  0  0
   -1.9468   -3.0186   -0.0015 O   0  0  0  0  0  1  0  0  0  0  0  0
   -2.8658   -0.8864    0.0209 C   0  0  0  0  0  0  0  0  0  0  0  0
   -4.0821   -0.2593   -0.3182 C   0  0  0  0  0  0  0  0  0  0  0  0
   -4.1107    1.1070   -0.6204 C   0  0  0  0  0  0  0  0  0  0  0  0
   -5.4102    1.7947   -0.9629 C   0  0  0  0  0  0  0  0  0  0  0  0
   -5.2409    2.9064   -1.7305 F   0  0  0  0  0  0  0  0  0  0  0  0
   -6.0866    2.2006    0.1451 F   0  0  0  0  0  0  0  0  0  0  0  0
   -6.2650    0.9916   -1.6542 F   0  0  0  0  0  0  0  0  0  0  0  0
   -2.9132    1.8265   -0.5502 C   0  0  0  0  0  0  0  0  0  0  0  0
   -1.7082    1.1932   -0.2086 C   0  0  0  0  0  0  0  0  0  0  0  0
   -1.6382   -0.1847    0.0557 C   0  0  0  0  0  0  0  0  0  0  0  0
   -0.4450   -0.7894    0.4869 N   0  0  0  0  0  0  0  0  0  0  0  0
    0.8514   -0.1680    0.1785 C   0  0  0  0  0  0  0  0  0  0  0  0
    1.9904   -1.0789    0.6511 C   0  0  0  0  0  0  0  0  0  0  0  0
    3.3657   -0.4995    0.4239 C   0  0  0  0  0  0  0  0  0  0  0  0
    4.4685   -1.1018    1.0275 C   0  0  0  0  0  0  0  0  0  0  0  0
    5.7368   -0.5772    0.7947 C   0  0  0  0  0  0  0  0  0  0  0  0
    5.8744    0.5268   -0.0363 C   0  0  0  0  0  0  0  0  0  0  0  0
    4.7313    1.0610   -0.6039 C   0  0  0  0  0  0  0  0  0  0  0  0
    3.4879    0.5728   -0.3956 N   0  0  0  0  0  0  0  0  0  0  0  0
   -5.0091   -0.8332   -0.3454 H   0  0  0  0  0  0  0  0  0  0  0  0
   -2.9051    2.8979   -0.7527 H   0  0  0  0  0  0  0  0  0  0  0  0
   -0.8199    1.8181   -0.1499 H   0  0  0  0  0  0  0  0  0  0  0  0
   -0.4457   -1.7939    0.2727 H   0  0  0  0  0  0  0  0  0  0  0  0
    0.9341    0.7968    0.6928 H   0  0  0  0  0  0  0  0  0  0  0  0
    0.9303    0.0019   -0.9024 H   0  0  0  0  0  0  0  0  0  0  0  0
    1.9305   -2.0436    0.1318 H   0  0  0  0  0  0  0  0  0  0  0  0
    1.8633   -1.2795    1.7229 H   0  0  0  0  0  0  0  0  0  0  0  0
    4.3465   -1.9678    1.6707 H   0  0  0  0  0  0  0  0  0  0  0  0
    6.6099   -1.0289    1.2570 H   0  0  0  0  0  0  0  0  0  0  0  0
    6.8478    0.9587   -0.2387 H   0  0  0  0  0  0  0  0  0  0  0  0
    4.7855    1.9224   -1.2636 H   0  0  0  0  0  0  0  0  0  0  0  0
  1  2  2  0
  2  3  1  0
  2  4  1  0
  4  5  2  0
  5  6  1  0
  6  7  1  0
  7  8  1  0
  7  9  1  0
  7 10  1  0
  6 11  2  0
 11 12  1  0
 12 13  2  0
 13 14  1  0
 14 15  1  0
 15 16  1  0
 16 17  1  0
 17 18  2  0
 18 19  1  0
 19 20  2  0
 20 21  1  0
 21 22  2  0
 13  4  1  0
 22 17  1  0
  5 23  1  0
 11 24  1  0
 12 25  1  0
 14 26  1  0
 15 27  1  0
 15 28  1  0
 16 29  1  0
 16 30  1  0
 18 31  1  0
 19 32  1  0
 20 33  1  0
 21 34  1  0
M  CHG  2   2   1   3  -1
M  END
$$$$
