
     RDKit          3D

 62 63  0  0  0  0  0  0  0  0999 V2000
   -7.6143    1.1142    0.5102 C   0  0  0  0  0  0  0  0  0  0  0  0
   -6.6709   -0.1007    0.6661 C   0  0  0  0  0  0  0  0  0  0  0  0
   -7.2274   -1.2303   -0.2282 C   0  0  0  0  0  0  0  0  0  0  0  0
   -6.7360   -0.5382    2.1462 C   0  0  0  0  0  0  0  0  0  0  0  0
   -5.2122    0.1917    0.2702 C   0  0  0  0  0  0  0  0  0  0  0  0
   -4.7972    1.4345   -0.2296 C   0  0  0  0  0  0  0  0  0  0  0  0
   -3.4642    1.6685   -0.5895 C   0  0  0  0  0  0  0  0  0  0  0  0
   -2.5124    0.6585   -0.4650 C   0  0  0  0  0  0  0  0  0  0  0  0
   -1.1849    0.7794   -0.7985 O   0  0  0  0  0  0  0  0  0  0  0  0
   -0.7708    1.9951   -1.4354 C   0  0  0  0  0  0  0  0  0  0  0  0
    0.7140    1.8657   -1.7756 C   0  0  0  0  0  0  0  0  0  0  0  0
    1.4507    1.8842   -0.5471 O   0  0  0  0  0  0  0  0  0  0  0  0
    2.6798    1.2714   -0.5903 C   0  0  0  0  0  0  0  0  0  0  0  0
    3.5120    1.2941   -1.7071 C   0  0  0  0  0  0  0  0  0  0  0  0
    4.7516    0.6476   -1.6709 C   0  0  0  0  0  0  0  0  0  0  0  0
    5.1913   -0.0284   -0.5207 C   0  0  0  0  0  0  0  0  0  0  0  0
    6.5383   -0.7722   -0.4571 C   0  0  0  0  0  0  0  0  0  0  0  0
    7.3643   -0.6805   -1.7611 C   0  0  0  0  0  0  0  0  0  0  0  0
    6.2864   -2.2694   -0.1805 C   0  0  0  0  0  0  0  0  0  0  0  0
    7.4079   -0.1852    0.6745 C   0  0  0  0  0  0  0  0  0  0  0  0
    4.3417   -0.0126    0.6078 C   0  0  0  0  0  0  0  0  0  0  0  0
    3.1019    0.6347    0.5879 C   0  0  0  0  0  0  0  0  0  0  0  0
    2.2202    0.6767    1.6899 N   0  0  0  0  0  0  0  0  0  0  0  0
    2.4031    0.1521    2.9450 C   0  0  0  0  0  0  0  0  0  0  0  0
    3.3525   -0.4780    3.3868 O   0  0  0  0  0  0  0  0  0  0  0  0
   -2.8984   -0.5965    0.0386 C   0  0  0  0  0  0  0  0  0  0  0  0
   -1.8874   -1.5757    0.1589 N   0  0  0  0  0  0  0  0  0  0  0  0
   -2.0082   -2.8793    0.5683 C   0  0  0  0  0  0  0  0  0  0  0  0
   -3.0122   -3.4942    0.8942 O   0  0  0  0  0  0  0  0  0  0  0  0
   -4.2332   -0.8169    0.3961 C   0  0  0  0  0  0  0  0  0  0  0  0
   -7.2921    1.9558    1.1353 H   0  0  0  0  0  0  0  0  0  0  0  0
   -8.6368    0.8602    0.8102 H   0  0  0  0  0  0  0  0  0  0  0  0
   -7.6614    1.4591   -0.5292 H   0  0  0  0  0  0  0  0  0  0  0  0
   -8.2753   -1.4440    0.0094 H   0  0  0  0  0  0  0  0  0  0  0  0
   -7.1778   -0.9537   -1.2875 H   0  0  0  0  0  0  0  0  0  0  0  0
   -6.6749   -2.1679   -0.1093 H   0  0  0  0  0  0  0  0  0  0  0  0
   -6.1802   -1.4637    2.3335 H   0  0  0  0  0  0  0  0  0  0  0  0
   -6.3192    0.2339    2.8047 H   0  0  0  0  0  0  0  0  0  0  0  0
   -7.7709   -0.7198    2.4607 H   0  0  0  0  0  0  0  0  0  0  0  0
   -5.4970    2.2564   -0.3552 H   0  0  0  0  0  0  0  0  0  0  0  0
   -3.2097    2.6541   -0.9619 H   0  0  0  0  0  0  0  0  0  0  0  0
   -1.3384    2.1440   -2.3623 H   0  0  0  0  0  0  0  0  0  0  0  0
   -0.9164    2.8376   -0.7476 H   0  0  0  0  0  0  0  0  0  0  0  0
    1.0260    2.7187   -2.3875 H   0  0  0  0  0  0  0  0  0  0  0  0
    0.8800    0.9259   -2.3180 H   0  0  0  0  0  0  0  0  0  0  0  0
    3.2276    1.8169   -2.6143 H   0  0  0  0  0  0  0  0  0  0  0  0
    5.3623    0.6909   -2.5692 H   0  0  0  0  0  0  0  0  0  0  0  0
    7.6128    0.3574   -2.0056 H   0  0  0  0  0  0  0  0  0  0  0  0
    8.3094   -1.2261   -1.6681 H   0  0  0  0  0  0  0  0  0  0  0  0
    6.8277   -1.1125   -2.6125 H   0  0  0  0  0  0  0  0  0  0  0  0
    5.6406   -2.7086   -0.9483 H   0  0  0  0  0  0  0  0  0  0  0  0
    5.8046   -2.4357    0.7883 H   0  0  0  0  0  0  0  0  0  0  0  0
    7.2252   -2.8347   -0.1702 H   0  0  0  0  0  0  0  0  0  0  0  0
    6.9470   -0.3143    1.6605 H   0  0  0  0  0  0  0  0  0  0  0  0
    8.3872   -0.6743    0.7153 H   0  0  0  0  0  0  0  0  0  0  0  0
    7.5768    0.8874    0.5277 H   0  0  0  0  0  0  0  0  0  0  0  0
    4.6648   -0.5250    1.5086 H   0  0  0  0  0  0  0  0  0  0  0  0
    1.3598    1.1877    1.5156 H   0  0  0  0  0  0  0  0  0  0  0  0
    1.5304    0.3732    3.5832 H   0  0  0  0  0  0  0  0  0  0  0  0
   -0.9679   -1.2600   -0.1323 H   0  0  0  0  0  0  0  0  0  0  0  0
   -1.0191   -3.3742    0.5615 H   0  0  0  0  0  0  0  0  0  0  0  0
   -4.5313   -1.7873    0.7803 H   0  0  0  0  0  0  0  0  0  0  0  0
  1  2  1  0
  2  3  1  0
  2  4  1  0
  2  5  1  0
  5  6  2  0
  6  7  1  0
  7  8  2  0
  8  9  1  0
  9 10  1  0
 10 11  1  0
 11 12  1  0
 12 13  1  0
 13 14  2  0
 14 15  1  0
 15 16  2  0
 16 17  1  0
 17 18  1  0
 17 19  1  0
 17 20  1  0
 16 21  1  0
 21 22  2  0
 22 23  1  0
 23 24  1  0
 24 25  2  0
  8 26  1  0
 26 27  1  0
 27 28  1  0
 28 29  2  0
 26 30  2  0
 30  5  1  0
 22 13  1  0
  1 31  1  0
  1 32  1  0
  1 33  1  0
  3 34  1  0
  3 35  1  0
  3 36  1  0
  4 37  1  0
  4 38  1  0
  4 39  1  0
  6 40  1  0
  7 41  1  0
 10 42  1  0
 10 43  1  0
 11 44  1  0
 11 45  1  0
 14 46  1  0
 15 47  1  0
 18 48  1  0
 18 49  1  0
 18 50  1  0
 19 51  1  0
 19 52  1  0
 19 53  1  0
 20 54  1  0
 20 55  1  0
 20 56  1  0
 21 57  1  0
 23 58  1  0
 24 59  1  0
 27 60  1  0
 28 61  1  0
 30 62  1  0
M  END
$$$$
