
     RDKit          3D

 53 56  0  0  0  0  0  0  0  0999 V2000
   -3.9656   -3.2102   -0.4873 C   0  0  0  0  0  0  0  0  0  0  0  0
   -4.4408   -1.7672   -0.3688 C   0  0  0  0  0  0  0  0  0  0  0  0
   -3.5551   -0.8461    0.4939 C   0  0  0  0  0  0  0  0  0  0  0  0
   -3.3863   -1.3101    1.9587 C   0  0  0  0  0  0  0  0  0  0  0  0
   -4.6715   -1.3128    2.7516 C   0  0  0  0  0  0  0  0  0  0  0  0
   -5.2702   -0.1013    3.1259 C   0  0  0  0  0  0  0  0  0  0  0  0
   -6.4617   -0.0942    3.8526 C   0  0  0  0  0  0  0  0  0  0  0  0
   -7.0652   -1.2966    4.2142 C   0  0  0  0  0  0  0  0  0  0  0  0
   -6.4760   -2.5070    3.8521 C   0  0  0  0  0  0  0  0  0  0  0  0
   -5.2840   -2.5164    3.1251 C   0  0  0  0  0  0  0  0  0  0  0  0
   -2.2487   -0.6578   -0.1426 N   0  0  0  0  0  0  0  0  0  0  0  0
   -1.4982    0.4775    0.0945 C   0  0  0  0  0  0  0  0  0  0  0  0
   -1.8857    1.4177    0.7782 O   0  0  0  0  0  0  0  0  0  0  0  0
   -0.1314    0.4992   -0.4961 C   0  0  0  0  0  0  0  0  0  0  0  0
    0.1667   -0.1815   -1.6796 C   0  0  0  0  0  0  0  0  0  0  0  0
    1.4623   -0.1427   -2.2104 C   0  0  0  0  0  0  0  0  0  0  0  0
    2.4697    0.5931   -1.5539 C   0  0  0  0  0  0  0  0  0  0  0  0
    3.7828    0.7112   -1.9649 N   0  0  0  0  0  0  0  0  0  0  0  0
    4.4765    1.4795   -1.1515 C   0  0  0  0  0  0  0  0  0  0  0  0
    5.8122    1.7394   -1.3241 N   0  0  0  0  0  0  0  0  0  0  0  0
    6.3891    1.2807   -2.6068 C   0  0  0  0  0  0  0  0  0  0  0  0
    7.9217    1.3366   -2.5585 C   0  0  0  0  0  0  0  0  0  0  0  0
    8.3886    2.6508   -2.2184 O   0  0  0  0  0  0  0  0  0  0  0  0
    7.8906    3.0243   -0.9261 C   0  0  0  0  0  0  0  0  0  0  0  0
    6.3542    3.0421   -0.8904 C   0  0  0  0  0  0  0  0  0  0  0  0
    3.5521    2.0796    0.1860 S   0  0  0  0  0  0  0  0  0  0  0  0
    2.1482    1.2767   -0.3853 C   0  0  0  0  0  0  0  0  0  0  0  0
    0.8545    1.2511    0.1615 C   0  0  0  0  0  0  0  0  0  0  0  0
   -2.9638   -3.2716   -0.9211 H   0  0  0  0  0  0  0  0  0  0  0  0
   -3.9549   -3.7161    0.4818 H   0  0  0  0  0  0  0  0  0  0  0  0
   -4.6435   -3.7692   -1.1417 H   0  0  0  0  0  0  0  0  0  0  0  0
   -5.4631   -1.7685    0.0273 H   0  0  0  0  0  0  0  0  0  0  0  0
   -4.5059   -1.3466   -1.3807 H   0  0  0  0  0  0  0  0  0  0  0  0
   -4.0389    0.1400    0.4988 H   0  0  0  0  0  0  0  0  0  0  0  0
   -2.9139   -2.2998    1.9938 H   0  0  0  0  0  0  0  0  0  0  0  0
   -2.6802   -0.6493    2.4803 H   0  0  0  0  0  0  0  0  0  0  0  0
   -4.8068    0.8462    2.8546 H   0  0  0  0  0  0  0  0  0  0  0  0
   -6.9173    0.8507    4.1362 H   0  0  0  0  0  0  0  0  0  0  0  0
   -7.9925   -1.2903    4.7812 H   0  0  0  0  0  0  0  0  0  0  0  0
   -6.9441   -3.4453    4.1386 H   0  0  0  0  0  0  0  0  0  0  0  0
   -4.8385   -3.4706    2.8542 H   0  0  0  0  0  0  0  0  0  0  0  0
   -1.7662   -1.4817   -0.4738 H   0  0  0  0  0  0  0  0  0  0  0  0
   -0.6008   -0.7263   -2.2232 H   0  0  0  0  0  0  0  0  0  0  0  0
    1.7013   -0.6668   -3.1308 H   0  0  0  0  0  0  0  0  0  0  0  0
    6.0920    0.2498   -2.8318 H   0  0  0  0  0  0  0  0  0  0  0  0
    6.0265    1.9313   -3.4130 H   0  0  0  0  0  0  0  0  0  0  0  0
    8.3333    1.0829   -3.5403 H   0  0  0  0  0  0  0  0  0  0  0  0
    8.3200    0.6170   -1.8329 H   0  0  0  0  0  0  0  0  0  0  0  0
    8.2916    2.3326   -0.1754 H   0  0  0  0  0  0  0  0  0  0  0  0
    8.2777    4.0225   -0.6969 H   0  0  0  0  0  0  0  0  0  0  0  0
    6.0519    3.2924    0.1316 H   0  0  0  0  0  0  0  0  0  0  0  0
    5.9827    3.8243   -1.5645 H   0  0  0  0  0  0  0  0  0  0  0  0
    0.6248    1.7966    1.0733 H   0  0  0  0  0  0  0  0  0  0  0  0
  1  2  1  0
  2  3  1  0
  3  4  1  0
  4  5  1  0
  5  6  2  0
  6  7  1  0
  7  8  2  0
  8  9  1  0
  9 10  2  0
  3 11  1  0
 11 12  1  0
 12 13  2  0
 12 14  1  0
 14 15  2  0
 15 16  1  0
 16 17  2  0
 17 18  1  0
 18 19  2  0
 19 20  1  0
 20 21  1  0
 21 22  1  0
 22 23  1  0
 23 24  1  0
 24 25  1  0
 19 26  1  0
 26 27  1  0
 27 28  2  0
 10  5  1  0
 28 14  1  0
 27 17  1  0
 25 20  1  0
  1 29  1  0
  1 30  1  0
  1 31  1  0
  2 32  1  0
  2 33  1  0
  3 34  1  0
  4 35  1  0
  4 36  1  0
  6 37  1  0
  7 38  1  0
  8 39  1  0
  9 40  1  0
 10 41  1  0
 11 42  1  0
 15 43  1  0
 16 44  1  0
 21 45  1  0
 21 46  1  0
 22 47  1  0
 22 48  1  0
 24 49  1  0
 24 50  1  0
 25 51  1  0
 25 52  1  0
 28 53  1  0
M  END
$$$$
