
     RDKit          3D

 49 50  0  0  0  0  0  0  0  0999 V2000
   -4.4935    3.9999    0.8317 C   0  0  0  0  0  0  0  0  0  0  0  0
   -5.1225    2.8712    1.4265 O   0  0  0  0  0  0  0  0  0  0  0  0
   -4.7666    1.6452    0.9440 C   0  0  0  0  0  0  0  0  0  0  0  0
   -3.5992    1.3769    0.2205 C   0  0  0  0  0  0  0  0  0  0  0  0
   -3.2991    0.0697   -0.2036 C   0  0  0  0  0  0  0  0  0  0  0  0
   -2.0809   -0.2680   -0.9605 C   0  0  0  0  0  0  0  0  0  0  0  0
   -0.9339    0.4299   -0.9139 C   0  0  0  0  0  0  0  0  0  0  0  0
    0.2988    0.0622   -1.6403 C   0  0  0  0  0  0  0  0  0  0  0  0
    1.3182    0.7338   -1.5597 O   0  0  0  0  0  0  0  0  0  0  0  0
    0.1554   -1.0764   -2.3531 O   0  0  0  0  0  0  0  0  0  0  0  0
    1.3433   -1.5352   -3.0001 C   0  0  0  0  0  0  0  0  0  0  0  0
    2.3623   -2.1164   -2.0168 C   0  0  0  0  0  0  0  0  0  0  0  0
    2.3170   -3.2815   -1.6331 O   0  0  0  0  0  0  0  0  0  0  0  0
    3.3002   -1.2063   -1.5789 N   0  0  0  0  0  0  0  0  0  0  0  0
    4.2761   -1.5563   -0.5634 C   0  0  0  0  0  0  0  0  0  0  0  0
    5.2395   -0.3985   -0.2716 C   0  0  0  0  0  0  0  0  0  0  0  0
    6.2609   -0.7430    0.8012 C   0  0  0  0  0  0  0  0  0  0  0  0
    7.4036   -1.3086    0.0017 C   0  0  0  0  0  0  0  0  0  0  0  0
    7.3579   -0.4722   -1.2564 C   0  0  0  0  0  0  0  0  0  0  0  0
    5.9938   -0.0862   -1.4584 O   0  0  0  0  0  0  0  0  0  0  0  0
   -4.2130   -0.9604    0.0738 C   0  0  0  0  0  0  0  0  0  0  0  0
   -5.3806   -0.7014    0.7924 C   0  0  0  0  0  0  0  0  0  0  0  0
   -5.6373    0.5908    1.2449 C   0  0  0  0  0  0  0  0  0  0  0  0
   -6.7972    0.8305    1.9382 O   0  0  0  0  0  0  0  0  0  0  0  0
   -6.5906    0.5959    3.3341 C   0  0  0  0  0  0  0  0  0  0  0  0
   -7.7297    1.1221    4.1039 C   0  0  0  0  0  0  0  0  0  0  0  0
   -8.6175    1.5166    4.7424 N   0  0  0  0  0  0  0  0  0  0  0  0
   -4.5877    3.9844   -0.2589 H   0  0  0  0  0  0  0  0  0  0  0  0
   -5.0009    4.8949    1.1976 H   0  0  0  0  0  0  0  0  0  0  0  0
   -3.4462    4.0672    1.1344 H   0  0  0  0  0  0  0  0  0  0  0  0
   -2.9106    2.1820   -0.0149 H   0  0  0  0  0  0  0  0  0  0  0  0
   -2.1443   -1.1737   -1.5635 H   0  0  0  0  0  0  0  0  0  0  0  0
   -0.8196    1.3197   -0.3048 H   0  0  0  0  0  0  0  0  0  0  0  0
    1.7918   -0.7343   -3.5997 H   0  0  0  0  0  0  0  0  0  0  0  0
    1.0617   -2.3286   -3.7004 H   0  0  0  0  0  0  0  0  0  0  0  0
    3.0407   -0.2221   -1.6606 H   0  0  0  0  0  0  0  0  0  0  0  0
    3.7281   -1.8336    0.3418 H   0  0  0  0  0  0  0  0  0  0  0  0
    4.8128   -2.4416   -0.9204 H   0  0  0  0  0  0  0  0  0  0  0  0
    4.6635    0.4902    0.0101 H   0  0  0  0  0  0  0  0  0  0  0  0
    5.8884   -1.4220    1.5696 H   0  0  0  0  0  0  0  0  0  0  0  0
    6.5895    0.1755    1.2983 H   0  0  0  0  0  0  0  0  0  0  0  0
    7.2083   -2.3583   -0.2390 H   0  0  0  0  0  0  0  0  0  0  0  0
    8.3659   -1.2531    0.5154 H   0  0  0  0  0  0  0  0  0  0  0  0
    7.7152   -1.0174   -2.1321 H   0  0  0  0  0  0  0  0  0  0  0  0
    7.9494    0.4412   -1.1472 H   0  0  0  0  0  0  0  0  0  0  0  0
   -4.0204   -1.9819   -0.2613 H   0  0  0  0  0  0  0  0  0  0  0  0
   -6.0780   -1.5075    0.9987 H   0  0  0  0  0  0  0  0  0  0  0  0
   -6.5087   -0.4896    3.5032 H   0  0  0  0  0  0  0  0  0  0  0  0
   -5.6643    1.0739    3.6866 H   0  0  0  0  0  0  0  0  0  0  0  0
  1  2  1  0
  2  3  1  0
  3  4  2  0
  4  5  1  0
  5  6  1  0
  6  7  2  3
  7  8  1  0
  8  9  2  0
  8 10  1  0
 10 11  1  0
 11 12  1  0
 12 13  2  0
 12 14  1  0
 14 15  1  0
 15 16  1  0
 16 17  1  0
 17 18  1  0
 18 19  1  0
 19 20  1  0
  5 21  2  0
 21 22  1  0
 22 23  2  0
 23 24  1  0
 24 25  1  0
 25 26  1  0
 26 27  3  0
 23  3  1  0
 20 16  1  0
  1 28  1  0
  1 29  1  0
  1 30  1  0
  4 31  1  0
  6 32  1  0
  7 33  1  0
 11 34  1  0
 11 35  1  0
 14 36  1  0
 15 37  1  0
 15 38  1  0
 16 39  1  0
 17 40  1  0
 17 41  1  0
 18 42  1  0
 18 43  1  0
 19 44  1  0
 19 45  1  0
 21 46  1  0
 22 47  1  0
 25 48  1  0
 25 49  1  0
M  END
$$$$
