
     RDKit          3D

 34 36  0  0  0  0  0  0  0  0999 V2000
    5.2975   -2.3803    0.2537 C   0  0  0  0  0  0  0  0  0  0  0  0
    4.4176   -1.1805    0.0708 C   0  0  0  0  0  0  0  0  0  0  0  0
    4.3868   -0.5165   -1.1389 C   0  0  0  0  0  0  0  0  0  0  0  0
    3.5516    0.5739   -1.2114 C   0  0  0  0  0  0  0  0  0  0  0  0
    2.7891    0.9987   -0.1865 N   0  0  0  0  0  0  0  0  0  0  0  0
    2.8855    0.2831    0.9537 C   0  0  0  0  0  0  0  0  0  0  0  0
    1.9275    0.8306    2.3416 S   0  0  0  0  0  0  0  0  0  0  0  0
    0.2827    0.4880    1.8511 C   0  0  0  0  0  0  0  0  0  0  0  0
   -0.6432   -0.1680    2.6828 C   0  0  0  0  0  0  0  0  0  0  0  0
   -1.8281   -0.2722    1.9901 C   0  0  0  0  0  0  0  0  0  0  0  0
   -2.9145   -0.9530    2.3580 O   0  0  0  0  0  0  0  0  0  0  0  0
   -1.6956    0.4239    0.7827 N   0  0  0  0  0  0  0  0  0  0  0  0
   -2.7456    0.6892   -0.1554 C   0  0  0  0  0  0  0  0  0  0  0  0
   -2.4752    0.7819   -1.5272 C   0  0  0  0  0  0  0  0  0  0  0  0
   -3.5076    1.0379   -2.4356 C   0  0  0  0  0  0  0  0  0  0  0  0
   -4.8101    1.2122   -1.9752 C   0  0  0  0  0  0  0  0  0  0  0  0
   -6.2025    1.5610   -3.2047 Br  0  0  0  0  0  0  0  0  0  0  0  0
   -5.0917    1.1380   -0.6135 C   0  0  0  0  0  0  0  0  0  0  0  0
   -4.0618    0.8796    0.2963 C   0  0  0  0  0  0  0  0  0  0  0  0
   -0.3605    0.8294    0.6759 C   0  0  0  0  0  0  0  0  0  0  0  0
    0.0934    1.4995   -0.3858 O   0  0  0  0  0  0  0  0  0  0  0  0
    3.6760   -0.7896    1.1268 N   0  0  0  0  0  0  0  0  0  0  0  0
    5.1988   -2.7857    1.2659 H   0  0  0  0  0  0  0  0  0  0  0  0
    5.0189   -3.1654   -0.4561 H   0  0  0  0  0  0  0  0  0  0  0  0
    6.3458   -2.1081    0.0964 H   0  0  0  0  0  0  0  0  0  0  0  0
    4.9841   -0.8292   -1.9854 H   0  0  0  0  0  0  0  0  0  0  0  0
    3.4692    1.1549   -2.1260 H   0  0  0  0  0  0  0  0  0  0  0  0
   -0.4648   -0.5828    3.6664 H   0  0  0  0  0  0  0  0  0  0  0  0
   -3.4236   -1.1865    1.5611 H   0  0  0  0  0  0  0  0  0  0  0  0
   -1.4734    0.6298   -1.9207 H   0  0  0  0  0  0  0  0  0  0  0  0
   -3.2811    1.0986   -3.4969 H   0  0  0  0  0  0  0  0  0  0  0  0
   -6.1032    1.2956   -0.2474 H   0  0  0  0  0  0  0  0  0  0  0  0
   -4.3029    0.8871    1.3579 H   0  0  0  0  0  0  0  0  0  0  0  0
    1.0610    1.6203   -0.2642 H   0  0  0  0  0  0  0  0  0  0  0  0
  1  2  1  0
  2  3  2  0
  3  4  1  0
  4  5  2  0
  5  6  1  0
  6  7  1  0
  7  8  1  0
  8  9  1  0
  9 10  2  0
 10 11  1  0
 10 12  1  0
 12 13  1  0
 13 14  2  0
 14 15  1  0
 15 16  2  0
 16 17  1  0
 16 18  1  0
 18 19  2  0
 12 20  1  0
 20 21  1  0
  6 22  2  0
 22  2  1  0
 20  8  2  0
 19 13  1  0
  1 23  1  0
  1 24  1  0
  1 25  1  0
  3 26  1  0
  4 27  1  0
  9 28  1  0
 11 29  1  0
 14 30  1  0
 15 31  1  0
 18 32  1  0
 19 33  1  0
 21 34  1  0
M  END
$$$$
