
     RDKit          3D

 49 52  0  0  0  0  0  0  0  0999 V2000
    3.0468    1.6445   -2.3766 O   0  0  0  0  0  0  0  0  0  0  0  0
    2.8309    1.7546   -1.1706 C   0  0  0  0  0  0  0  0  0  0  0  0
    2.3417    3.0762   -0.5956 C   0  0  0  0  0  0  0  0  0  0  0  0
    0.5241    3.1299   -0.6100 S   0  0  0  0  0  0  0  0  0  0  0  0
    0.1845    2.1197    0.7486 C   0  0  0  0  0  0  0  0  0  0  0  0
    0.9731    1.9658    1.7842 N   0  0  0  0  0  0  0  0  0  0  0  0
    0.3577    1.0977    2.6480 N   0  0  0  0  0  0  0  0  0  0  0  0
   -0.7858    0.7194    2.1161 C   0  0  0  0  0  0  0  0  0  0  0  0
   -1.7400   -0.1921    2.7280 C   0  0  0  0  0  0  0  0  0  0  0  0
   -2.5878    0.2632    3.7382 C   0  0  0  0  0  0  0  0  0  0  0  0
   -3.4949   -0.6305    4.2810 C   0  0  0  0  0  0  0  0  0  0  0  0
   -3.6084   -1.9175    3.8856 N   0  0  0  0  0  0  0  0  0  0  0  0
   -2.7490   -2.3438    2.9356 C   0  0  0  0  0  0  0  0  0  0  0  0
   -1.8046   -1.5302    2.3342 C   0  0  0  0  0  0  0  0  0  0  0  0
   -0.9445    1.3650    0.9053 N   0  0  0  0  0  0  0  0  0  0  0  0
   -2.1054    1.3080    0.0374 C   0  0  0  0  0  0  0  0  0  0  0  0
   -2.0763    0.1214   -0.9354 C   0  0  0  0  0  0  0  0  0  0  0  0
   -3.3015    0.0863   -1.8380 C   0  0  0  0  0  0  0  0  0  0  0  0
   -2.8410    0.8452   -3.0594 C   0  0  0  0  0  0  0  0  0  0  0  0
   -1.3884    0.4369   -3.1538 C   0  0  0  0  0  0  0  0  0  0  0  0
   -0.9367    0.2306   -1.8070 O   0  0  0  0  0  0  0  0  0  0  0  0
    2.9939    0.7577   -0.2196 N   0  0  0  0  0  0  0  0  0  0  0  0
    3.4232   -0.5796   -0.4278 C   0  0  0  0  0  0  0  0  0  0  0  0
    3.7825   -1.0811   -1.6839 C   0  0  0  0  0  0  0  0  0  0  0  0
    4.1908   -2.4126   -1.8372 C   0  0  0  0  0  0  0  0  0  0  0  0
    4.2460   -3.2655   -0.7381 C   0  0  0  0  0  0  0  0  0  0  0  0
    3.8962   -2.7855    0.5208 C   0  0  0  0  0  0  0  0  0  0  0  0
    3.4918   -1.4534    0.6742 C   0  0  0  0  0  0  0  0  0  0  0  0
    3.0965   -0.9198    2.2678 Cl  0  0  0  0  0  0  0  0  0  0  0  0
    2.7214    3.8823   -1.2326 H   0  0  0  0  0  0  0  0  0  0  0  0
    2.7494    3.2470    0.4077 H   0  0  0  0  0  0  0  0  0  0  0  0
   -2.5339    1.2826    4.1040 H   0  0  0  0  0  0  0  0  0  0  0  0
   -4.1752   -0.3245    5.0711 H   0  0  0  0  0  0  0  0  0  0  0  0
   -2.8416   -3.3934    2.6632 H   0  0  0  0  0  0  0  0  0  0  0  0
   -1.1277   -1.9368    1.5868 H   0  0  0  0  0  0  0  0  0  0  0  0
   -2.9934    1.2571    0.6782 H   0  0  0  0  0  0  0  0  0  0  0  0
   -2.1659    2.2589   -0.5040 H   0  0  0  0  0  0  0  0  0  0  0  0
   -1.9867   -0.8186   -0.3855 H   0  0  0  0  0  0  0  0  0  0  0  0
   -4.2048    0.4990   -1.3805 H   0  0  0  0  0  0  0  0  0  0  0  0
   -3.5132   -0.9526   -2.1189 H   0  0  0  0  0  0  0  0  0  0  0  0
   -2.9178    1.9266   -2.8827 H   0  0  0  0  0  0  0  0  0  0  0  0
   -3.4090    0.6059   -3.9641 H   0  0  0  0  0  0  0  0  0  0  0  0
   -0.7672    1.1940   -3.6425 H   0  0  0  0  0  0  0  0  0  0  0  0
   -1.2754   -0.5132   -3.6910 H   0  0  0  0  0  0  0  0  0  0  0  0
    2.7039    0.9696    0.7363 H   0  0  0  0  0  0  0  0  0  0  0  0
    3.7537   -0.4637   -2.5777 H   0  0  0  0  0  0  0  0  0  0  0  0
    4.4645   -2.7821   -2.8233 H   0  0  0  0  0  0  0  0  0  0  0  0
    4.5606   -4.2996   -0.8615 H   0  0  0  0  0  0  0  0  0  0  0  0
    3.9432   -3.4491    1.3803 H   0  0  0  0  0  0  0  0  0  0  0  0
  1  2  2  0
  2  3  1  0
  3  4  1  0
  4  5  1  0
  5  6  2  0
  6  7  1  0
  7  8  2  0
  8  9  1  0
  9 10  2  0
 10 11  1  0
 11 12  2  0
 12 13  1  0
 13 14  2  0
  8 15  1  0
 15 16  1  0
 16 17  1  0
 17 18  1  0
 18 19  1  0
 19 20  1  0
 20 21  1  0
  2 22  1  0
 22 23  1  0
 23 24  2  0
 24 25  1  0
 25 26  2  0
 26 27  1  0
 27 28  2  0
 28 29  1  0
 15  5  1  0
 21 17  1  0
 28 23  1  0
 14  9  1  0
  3 30  1  0
  3 31  1  0
 10 32  1  0
 11 33  1  0
 13 34  1  0
 14 35  1  0
 16 36  1  0
 16 37  1  0
 17 38  1  0
 18 39  1  0
 18 40  1  0
 19 41  1  0
 19 42  1  0
 20 43  1  0
 20 44  1  0
 22 45  1  0
 24 46  1  0
 25 47  1  0
 26 48  1  0
 27 49  1  0
M  END
$$$$
