
     RDKit          3D

 53 57  0  0  0  0  0  0  0  0999 V2000
    3.8219   -1.8658    1.8941 C   0  0  0  0  0  0  0  0  0  0  0  0
    4.1260   -0.4078    1.6855 C   0  0  0  0  0  0  0  0  0  0  0  0
    5.0372    0.2162    2.5555 C   0  0  0  0  0  0  0  0  0  0  0  0
    5.3729    1.5644    2.4043 C   0  0  0  0  0  0  0  0  0  0  0  0
    4.8094    2.3155    1.3780 C   0  0  0  0  0  0  0  0  0  0  0  0
    3.9045    1.7191    0.5005 C   0  0  0  0  0  0  0  0  0  0  0  0
    3.5598    0.3646    0.6502 C   0  0  0  0  0  0  0  0  0  0  0  0
    2.4268   -0.3324   -0.5404 S   0  0  0  0  0  6  0  0  0  0  0  0
    2.9810   -1.5939   -0.9904 O   0  0  0  0  0  0  0  0  0  0  0  0
    2.0751    0.6774   -1.5184 O   0  0  0  0  0  0  0  0  0  0  0  0
    1.0637   -0.7128    0.3536 N   0  0  0  0  0  0  0  0  0  0  0  0
    0.1738    0.3622    0.5946 C   0  0  0  0  0  0  0  0  0  0  0  0
    0.6422    1.3258    1.4063 N   0  0  0  0  0  0  0  0  0  0  0  0
   -0.2232    2.3099    1.6970 C   0  0  0  0  0  0  0  0  0  0  0  0
    0.1845    3.3457    2.5267 C   0  0  0  0  0  0  0  0  0  0  0  0
   -0.6806    4.3856    2.8690 C   0  0  0  0  0  0  0  0  0  0  0  0
   -1.9771    4.3901    2.3707 C   0  0  0  0  0  0  0  0  0  0  0  0
   -2.3979    3.3570    1.5308 C   0  0  0  0  0  0  0  0  0  0  0  0
   -1.5462    2.3149    1.1838 C   0  0  0  0  0  0  0  0  0  0  0  0
   -1.9958    1.3374    0.3703 N   0  0  0  0  0  0  0  0  0  0  0  0
   -1.1296    0.3507    0.0489 C   0  0  0  0  0  0  0  0  0  0  0  0
   -1.5391   -0.6970   -0.8115 N   0  0  0  0  0  0  0  0  0  0  0  0
   -0.9565   -0.5491   -2.1726 C   0  0  0  0  0  0  0  0  0  0  0  0
   -1.9134   -0.9344   -3.3180 C   0  0  0  0  0  0  0  0  0  0  0  0
   -2.7812   -2.1071   -2.9455 C   0  0  0  0  0  0  0  0  0  0  0  0
   -3.0857   -3.1383   -3.8359 C   0  0  0  0  0  0  0  0  0  0  0  0
   -3.9104   -4.1853   -3.4246 C   0  0  0  0  0  0  0  0  0  0  0  0
   -4.4393   -4.1971   -2.1339 C   0  0  0  0  0  0  0  0  0  0  0  0
   -4.1507   -3.1595   -1.2458 C   0  0  0  0  0  0  0  0  0  0  0  0
   -3.3187   -2.1124   -1.6470 C   0  0  0  0  0  0  0  0  0  0  0  0
   -2.9864   -0.9418   -0.7489 C   0  0  0  0  0  0  0  0  0  0  0  0
    4.2556   -2.2339    2.8317 H   0  0  0  0  0  0  0  0  0  0  0  0
    2.7441   -2.0388    1.9634 H   0  0  0  0  0  0  0  0  0  0  0  0
    4.2469   -2.4664    1.0848 H   0  0  0  0  0  0  0  0  0  0  0  0
    5.4972   -0.3501    3.3651 H   0  0  0  0  0  0  0  0  0  0  0  0
    6.0796    2.0254    3.0885 H   0  0  0  0  0  0  0  0  0  0  0  0
    5.0748    3.3622    1.2597 H   0  0  0  0  0  0  0  0  0  0  0  0
    3.4692    2.3188   -0.2979 H   0  0  0  0  0  0  0  0  0  0  0  0
    0.6008   -1.5463   -0.0063 H   0  0  0  0  0  0  0  0  0  0  0  0
    1.1997    3.3399    2.9152 H   0  0  0  0  0  0  0  0  0  0  0  0
   -0.3394    5.1845    3.5237 H   0  0  0  0  0  0  0  0  0  0  0  0
   -2.6627    5.1925    2.6313 H   0  0  0  0  0  0  0  0  0  0  0  0
   -3.4140    3.3639    1.1377 H   0  0  0  0  0  0  0  0  0  0  0  0
   -0.5950    0.4724   -2.3593 H   0  0  0  0  0  0  0  0  0  0  0  0
   -0.0850   -1.2152   -2.2262 H   0  0  0  0  0  0  0  0  0  0  0  0
   -1.3283   -1.1452   -4.2220 H   0  0  0  0  0  0  0  0  0  0  0  0
   -2.5710   -0.0859   -3.5499 H   0  0  0  0  0  0  0  0  0  0  0  0
   -2.6800   -3.1383   -4.8446 H   0  0  0  0  0  0  0  0  0  0  0  0
   -4.1414   -4.9956   -4.1127 H   0  0  0  0  0  0  0  0  0  0  0  0
   -5.0786   -5.0173   -1.8204 H   0  0  0  0  0  0  0  0  0  0  0  0
   -4.5710   -3.1772   -0.2459 H   0  0  0  0  0  0  0  0  0  0  0  0
   -3.2810   -1.1777    0.2817 H   0  0  0  0  0  0  0  0  0  0  0  0
   -3.5676   -0.0737   -1.0845 H   0  0  0  0  0  0  0  0  0  0  0  0
  1  2  1  0
  2  3  2  0
  3  4  1  0
  4  5  2  0
  5  6  1  0
  6  7  2  0
  7  8  1  0
  8  9  2  0
  8 10  2  0
  8 11  1  0
 11 12  1  0
 12 13  2  0
 13 14  1  0
 14 15  2  0
 15 16  1  0
 16 17  2  0
 17 18  1  0
 18 19  2  0
 19 20  1  0
 20 21  2  0
 21 22  1  0
 22 23  1  0
 23 24  1  0
 24 25  1  0
 25 26  2  0
 26 27  1  0
 27 28  2  0
 28 29  1  0
 29 30  2  0
 30 31  1  0
  7  2  1  0
 21 12  1  0
 31 22  1  0
 19 14  1  0
 30 25  1  0
  1 32  1  0
  1 33  1  0
  1 34  1  0
  3 35  1  0
  4 36  1  0
  5 37  1  0
  6 38  1  0
 11 39  1  0
 15 40  1  0
 16 41  1  0
 17 42  1  0
 18 43  1  0
 23 44  1  0
 23 45  1  0
 24 46  1  0
 24 47  1  0
 26 48  1  0
 27 49  1  0
 28 50  1  0
 29 51  1  0
 31 52  1  0
 31 53  1  0
M  END
$$$$
