
     RDKit          3D

 43 44  0  0  0  0  0  0  0  0999 V2000
   -4.7027    3.2233   -0.7024 C   0  0  0  0  0  0  0  0  0  0  0  0
   -4.1802    2.7362    0.6360 C   0  0  0  0  0  0  0  0  0  0  0  0
   -3.0794    1.8395    0.4411 O   0  0  0  0  0  0  0  0  0  0  0  0
   -3.3980    0.5255    0.2370 C   0  0  0  0  0  0  0  0  0  0  0  0
   -4.5462    0.0958    0.2222 O   0  0  0  0  0  0  0  0  0  0  0  0
   -2.2175   -0.3312    0.0319 C   0  0  0  0  0  0  0  0  0  0  0  0
   -0.9856    0.1882   -0.0742 N   0  0  0  0  0  0  0  0  0  0  0  0
   -0.1426   -0.8560   -0.2669 N   0  0  0  0  0  0  0  0  0  0  0  0
    1.2654   -0.5987   -0.2551 C   0  0  0  0  0  0  0  0  0  0  0  0
    1.7127    0.7295   -0.3707 C   0  0  0  0  0  0  0  0  0  0  0  0
    3.0799    1.0376   -0.3603 C   0  0  0  0  0  0  0  0  0  0  0  0
    4.0240    0.0253   -0.2232 C   0  0  0  0  0  0  0  0  0  0  0  0
    5.3807    0.1760   -0.1899 O   0  0  0  0  0  0  0  0  0  0  0  0
    5.9377    1.4606   -0.4640 C   0  0  0  0  0  0  0  0  0  0  0  0
    6.0790    2.2702    0.8131 C   0  0  0  0  0  0  0  0  0  0  0  0
    3.5834   -1.2916   -0.0792 C   0  0  0  0  0  0  0  0  0  0  0  0
    2.2181   -1.6067   -0.0902 C   0  0  0  0  0  0  0  0  0  0  0  0
   -0.8538   -2.0381   -0.4374 C   0  0  0  0  0  0  0  0  0  0  0  0
   -0.2702   -3.3345   -0.8810 C   0  0  0  0  0  0  0  0  0  0  0  0
   -2.1828   -1.7417   -0.1414 C   0  0  0  0  0  0  0  0  0  0  0  0
   -3.2818   -2.7028   -0.0982 C   0  0  0  0  0  0  0  0  0  0  0  0
   -4.2487   -2.6634    1.0587 C   0  0  0  0  0  0  0  0  0  0  0  0
   -3.3986   -3.5746   -0.9595 O   0  0  0  0  0  0  0  0  0  0  0  0
   -5.0882    2.3915   -1.3005 H   0  0  0  0  0  0  0  0  0  0  0  0
   -5.5043    3.9540   -0.5631 H   0  0  0  0  0  0  0  0  0  0  0  0
   -3.8986    3.6871   -1.2832 H   0  0  0  0  0  0  0  0  0  0  0  0
   -3.8023    3.5859    1.2139 H   0  0  0  0  0  0  0  0  0  0  0  0
   -4.9737    2.2707    1.2318 H   0  0  0  0  0  0  0  0  0  0  0  0
    1.0037    1.5493   -0.4813 H   0  0  0  0  0  0  0  0  0  0  0  0
    3.3620    2.0807   -0.4516 H   0  0  0  0  0  0  0  0  0  0  0  0
    6.9394    1.2821   -0.8718 H   0  0  0  0  0  0  0  0  0  0  0  0
    5.3893    2.0004   -1.2438 H   0  0  0  0  0  0  0  0  0  0  0  0
    5.1057    2.4699    1.2709 H   0  0  0  0  0  0  0  0  0  0  0  0
    6.5717    3.2258    0.6122 H   0  0  0  0  0  0  0  0  0  0  0  0
    6.6694    1.7189    1.5525 H   0  0  0  0  0  0  0  0  0  0  0  0
    4.3147   -2.0865    0.0537 H   0  0  0  0  0  0  0  0  0  0  0  0
    1.9544   -2.6428    0.0776 H   0  0  0  0  0  0  0  0  0  0  0  0
   -1.0150   -3.9640   -1.3751 H   0  0  0  0  0  0  0  0  0  0  0  0
    0.5265   -3.1876   -1.6163 H   0  0  0  0  0  0  0  0  0  0  0  0
    0.1143   -3.8970   -0.0250 H   0  0  0  0  0  0  0  0  0  0  0  0
   -4.3223   -3.6668    1.4889 H   0  0  0  0  0  0  0  0  0  0  0  0
   -5.2339   -2.3515    0.7041 H   0  0  0  0  0  0  0  0  0  0  0  0
   -3.9058   -1.9886    1.8471 H   0  0  0  0  0  0  0  0  0  0  0  0
  1  2  1  0
  2  3  1  0
  3  4  1  0
  4  5  2  0
  4  6  1  0
  6  7  2  0
  7  8  1  0
  8  9  1  0
  9 10  2  0
 10 11  1  0
 11 12  2  0
 12 13  1  0
 13 14  1  0
 14 15  1  0
 12 16  1  0
 16 17  2  0
  8 18  1  0
 18 19  1  0
 18 20  2  0
 20 21  1  0
 21 22  1  0
 21 23  2  0
 20  6  1  0
 17  9  1  0
  1 24  1  0
  1 25  1  0
  1 26  1  0
  2 27  1  0
  2 28  1  0
 10 29  1  0
 11 30  1  0
 14 31  1  0
 14 32  1  0
 15 33  1  0
 15 34  1  0
 15 35  1  0
 16 36  1  0
 17 37  1  0
 19 38  1  0
 19 39  1  0
 19 40  1  0
 22 41  1  0
 22 42  1  0
 22 43  1  0
M  END
$$$$
