
     RDKit          3D

 45 49  0  0  0  0  0  0  0  0999 V2000
    0.7712    0.0197   -0.7593 O   0  0  0  0  0  0  0  0  0  0  0  0
    0.6784   -1.0663   -0.2029 C   0  0  0  0  0  0  0  0  0  0  0  0
   -0.5853   -1.8253    0.1101 C   0  0  0  0  0  0  0  0  0  0  0  0
   -1.7762   -1.0139   -0.0669 N   0  0  0  0  0  0  0  0  0  0  0  0
   -2.5807   -1.0209   -1.1972 C   0  0  0  0  0  0  0  0  0  0  0  0
   -2.3073   -1.7883   -2.2421 O   0  0  0  0  0  0  0  0  0  0  0  0
   -3.5794   -0.1267   -0.9496 C   0  0  0  0  0  0  0  0  0  0  0  0
   -3.3897    0.4188    0.3399 C   0  0  0  0  0  0  0  0  0  0  0  0
   -2.2729   -0.1372    0.8883 C   0  0  0  0  0  0  0  0  0  0  0  0
   -1.6684    0.0324    2.0554 O   0  0  0  0  0  0  0  0  0  0  0  0
   -4.5003    1.3922    0.5751 C   0  0  0  0  0  0  0  0  0  0  0  0
   -5.8190    0.5872    0.7088 C   0  0  0  0  0  0  0  0  0  0  0  0
   -6.0292   -0.0162   -0.7190 C   0  0  0  0  0  0  0  0  0  0  0  0
   -4.8085    0.5062   -1.5201 C   0  0  0  0  0  0  0  0  0  0  0  0
   -4.6861    1.9297   -0.8824 C   0  0  0  0  0  0  0  0  0  0  0  0
    1.7537   -1.8540    0.2302 O   0  0  0  0  0  0  0  0  0  0  0  0
    3.0320   -1.3076    0.0567 C   0  0  0  0  0  0  0  0  0  0  0  0
    3.9422   -2.0355   -0.7020 C   0  0  0  0  0  0  0  0  0  0  0  0
    5.2440   -1.5564   -0.8511 C   0  0  0  0  0  0  0  0  0  0  0  0
    5.6436   -0.3590   -0.2327 C   0  0  0  0  0  0  0  0  0  0  0  0
    6.9502    0.1352   -0.3743 C   0  0  0  0  0  0  0  0  0  0  0  0
    7.3350    1.3244    0.2474 C   0  0  0  0  0  0  0  0  0  0  0  0
    6.4193    2.0349    1.0181 C   0  0  0  0  0  0  0  0  0  0  0  0
    5.1162    1.5585    1.1699 C   0  0  0  0  0  0  0  0  0  0  0  0
    4.7123    0.3642    0.5519 C   0  0  0  0  0  0  0  0  0  0  0  0
    3.4058   -0.1265    0.6973 C   0  0  0  0  0  0  0  0  0  0  0  0
   -0.5700   -2.1614    1.1525 H   0  0  0  0  0  0  0  0  0  0  0  0
   -0.6559   -2.7006   -0.5426 H   0  0  0  0  0  0  0  0  0  0  0  0
   -2.9725   -1.5775   -2.9215 H   0  0  0  0  0  0  0  0  0  0  0  0
   -2.1699    0.7212    2.5276 H   0  0  0  0  0  0  0  0  0  0  0  0
   -4.3210    2.1472    1.3401 H   0  0  0  0  0  0  0  0  0  0  0  0
   -6.6568    1.2472    0.9601 H   0  0  0  0  0  0  0  0  0  0  0  0
   -5.7554   -0.1999    1.4678 H   0  0  0  0  0  0  0  0  0  0  0  0
   -6.9666    0.3578   -1.1458 H   0  0  0  0  0  0  0  0  0  0  0  0
   -6.0731   -1.1101   -0.6863 H   0  0  0  0  0  0  0  0  0  0  0  0
   -4.9014    0.4790   -2.6054 H   0  0  0  0  0  0  0  0  0  0  0  0
   -5.5850    2.5429   -1.0094 H   0  0  0  0  0  0  0  0  0  0  0  0
   -3.8074    2.4786   -1.2437 H   0  0  0  0  0  0  0  0  0  0  0  0
    3.6455   -2.9656   -1.1768 H   0  0  0  0  0  0  0  0  0  0  0  0
    5.9487   -2.1254   -1.4534 H   0  0  0  0  0  0  0  0  0  0  0  0
    7.6802   -0.4042   -0.9736 H   0  0  0  0  0  0  0  0  0  0  0  0
    8.3493    1.6958    0.1275 H   0  0  0  0  0  0  0  0  0  0  0  0
    6.7172    2.9622    1.5003 H   0  0  0  0  0  0  0  0  0  0  0  0
    4.4134    2.1298    1.7723 H   0  0  0  0  0  0  0  0  0  0  0  0
    2.6800    0.4132    1.2995 H   0  0  0  0  0  0  0  0  0  0  0  0
  1  2  2  0
  2  3  1  0
  3  4  1  0
  4  5  1  0
  5  6  1  0
  5  7  2  0
  7  8  1  0
  8  9  2  0
  9 10  1  0
  8 11  1  0
 11 12  1  0
 12 13  1  0
 13 14  1  0
 14 15  1  0
  2 16  1  0
 16 17  1  0
 17 18  2  0
 18 19  1  0
 19 20  2  0
 20 21  1  0
 21 22  2  0
 22 23  1  0
 23 24  2  0
 24 25  1  0
 25 26  2  0
  9  4  1  0
 15 11  1  0
 26 17  1  0
 14  7  1  0
 25 20  1  0
  3 27  1  0
  3 28  1  0
  6 29  1  0
 10 30  1  0
 11 31  1  0
 12 32  1  0
 12 33  1  0
 13 34  1  0
 13 35  1  0
 14 36  1  0
 15 37  1  0
 15 38  1  0
 18 39  1  0
 19 40  1  0
 21 41  1  0
 22 42  1  0
 23 43  1  0
 24 44  1  0
 26 45  1  0
M  END
$$$$
