
     RDKit          3D

 40 42  0  0  0  0  0  0  0  0999 V2000
   -1.8367   -2.0639    0.2313 C   0  0  0  0  0  0  0  0  0  0  0  0
   -1.8341   -0.8562    0.9961 O   0  0  0  0  0  0  0  0  0  0  0  0
   -2.7420    0.0383    0.4796 C   0  0  0  0  0  0  0  0  0  0  0  0
   -4.1044   -0.1610    0.7211 C   0  0  0  0  0  0  0  0  0  0  0  0
   -5.0360    0.7515    0.2309 C   0  0  0  0  0  0  0  0  0  0  0  0
   -4.6049    1.8690   -0.4815 C   0  0  0  0  0  0  0  0  0  0  0  0
   -3.2402    2.0801   -0.7023 C   0  0  0  0  0  0  0  0  0  0  0  0
   -2.2885    1.1660   -0.2278 C   0  0  0  0  0  0  0  0  0  0  0  0
   -0.8462    1.3888   -0.4123 C   0  0  0  0  0  0  0  0  0  0  0  0
   -0.2901    1.9232   -1.5079 C   0  0  0  0  0  0  0  0  0  0  0  0
    1.1870    2.0391   -1.5656 C   0  0  0  0  0  0  0  0  0  0  0  0
    2.0898    1.1142   -1.4726 N   0  0  0  0  0  0  0  0  0  0  0  0
    1.6597   -0.1783   -1.4592 N   0  0  0  0  0  0  0  0  0  0  0  0
    2.0295   -1.1146   -0.5364 C   0  0  0  0  0  0  0  0  0  0  0  0
    2.7045   -0.7321    0.7011 C   0  0  0  0  0  0  0  0  0  0  0  0
    1.9466   -0.7326    1.8790 C   0  0  0  0  0  0  0  0  0  0  0  0
    2.5448   -0.3665    3.0852 C   0  0  0  0  0  0  0  0  0  0  0  0
    3.8943   -0.0137    3.1088 C   0  0  0  0  0  0  0  0  0  0  0  0
    4.6287    0.4377    4.5978 Cl  0  0  0  0  0  0  0  0  0  0  0  0
    4.6560   -0.0301    1.9402 C   0  0  0  0  0  0  0  0  0  0  0  0
    4.0615   -0.3956    0.7298 C   0  0  0  0  0  0  0  0  0  0  0  0
    5.0591   -0.4511   -0.6781 Cl  0  0  0  0  0  0  0  0  0  0  0  0
    1.6937   -2.3402   -0.8372 N   0  0  0  0  0  0  0  0  0  0  0  0
    1.1126   -2.2287   -2.0765 N   0  0  0  0  0  0  0  0  0  0  0  0
    1.1605   -0.9051   -2.5249 C   0  0  0  0  0  0  0  0  0  0  0  0
    0.7193   -0.4422   -4.0563 S   0  0  0  0  0  0  0  0  0  0  0  0
   -2.7554   -2.6345    0.4025 H   0  0  0  0  0  0  0  0  0  0  0  0
   -1.7059   -1.8623   -0.8378 H   0  0  0  0  0  0  0  0  0  0  0  0
   -0.9942   -2.6745    0.5688 H   0  0  0  0  0  0  0  0  0  0  0  0
   -4.4391   -1.0183    1.2978 H   0  0  0  0  0  0  0  0  0  0  0  0
   -6.0965    0.5979    0.4138 H   0  0  0  0  0  0  0  0  0  0  0  0
   -5.3312    2.5870   -0.8552 H   0  0  0  0  0  0  0  0  0  0  0  0
   -2.9342    2.9764   -1.2360 H   0  0  0  0  0  0  0  0  0  0  0  0
   -0.2209    1.0486    0.4101 H   0  0  0  0  0  0  0  0  0  0  0  0
   -0.8458    2.2883   -2.3619 H   0  0  0  0  0  0  0  0  0  0  0  0
    1.5445    3.0759   -1.6895 H   0  0  0  0  0  0  0  0  0  0  0  0
    0.8952   -1.0124    1.8595 H   0  0  0  0  0  0  0  0  0  0  0  0
    1.9561   -0.3604    3.9996 H   0  0  0  0  0  0  0  0  0  0  0  0
    5.7099    0.2342    1.9737 H   0  0  0  0  0  0  0  0  0  0  0  0
    0.8932   -3.0417   -2.6396 H   0  0  0  0  0  0  0  0  0  0  0  0
  1  2  1  0
  2  3  1  0
  3  4  2  0
  4  5  1  0
  5  6  2  0
  6  7  1  0
  7  8  2  0
  8  9  1  0
  9 10  2  3
 10 11  1  0
 11 12  2  3
 12 13  1  0
 13 14  1  0
 14 15  1  0
 15 16  2  0
 16 17  1  0
 17 18  2  0
 18 19  1  0
 18 20  1  0
 20 21  2  0
 21 22  1  0
 14 23  2  0
 23 24  1  0
 24 25  1  0
 25 26  2  0
  8  3  1  0
 25 13  1  0
 21 15  1  0
  1 27  1  0
  1 28  1  0
  1 29  1  0
  4 30  1  0
  5 31  1  0
  6 32  1  0
  7 33  1  0
  9 34  1  0
 10 35  1  0
 11 36  1  0
 16 37  1  0
 17 38  1  0
 20 39  1  0
 24 40  1  0
M  END
$$$$
