
     RDKit          3D

 76 78  0  0  0  0  0  0  0  0999 V2000
    6.3221    3.5845    3.6390 C   0  0  0  0  0  0  0  0  0  0  0  0
    4.8583    3.5896    3.2252 C   0  0  0  0  0  0  0  0  0  0  0  0
    4.3609    2.2293    2.7348 C   0  0  0  0  0  0  0  0  0  0  0  0
    5.0125    1.7887    1.4209 C   0  0  0  0  0  0  0  0  0  0  0  0
    4.4722    0.5084    0.9473 N   0  0  0  0  0  0  0  0  0  0  0  0
    3.4274    0.4710    0.0247 C   0  0  0  0  0  0  0  0  0  0  0  0
    2.8054    1.6437   -0.3892 N   0  0  0  0  0  0  0  0  0  0  0  0
    2.9950   -0.7242   -0.4429 C   0  0  0  0  0  0  0  0  0  0  0  0
    1.9968   -0.8427   -1.4123 N   0  0  0  0  0  0  0  0  0  0  0  0
    2.4518   -0.8630   -2.8148 C   0  0  0  0  0  0  0  0  0  0  0  0
    2.2241    0.4611   -3.5703 C   0  0  0  0  0  0  0  0  0  0  0  0
    0.7457    0.8345   -3.6794 C   0  0  0  0  0  0  0  0  0  0  0  0
    2.8339    0.3671   -4.9708 C   0  0  0  0  0  0  0  0  0  0  0  0
    0.7470   -1.4141   -1.1312 C   0  0  0  0  0  0  0  0  0  0  0  0
   -0.0175   -1.7946   -2.0236 O   0  0  0  0  0  0  0  0  0  0  0  0
    0.2869   -1.4149    0.3344 C   0  0  0  0  0  0  0  0  0  0  0  0
   -0.9812   -0.7196    0.3595 N   0  0  0  0  0  0  0  0  0  0  0  0
   -1.0952    0.6206    0.1841 C   0  0  0  0  0  0  0  0  0  0  0  0
   -0.1854    1.4273    0.0640 O   0  0  0  0  0  0  0  0  0  0  0  0
   -2.4273    0.9388    0.1236 N   0  0  0  0  0  0  0  0  0  0  0  0
   -3.2972   -0.2319    0.1736 C   0  0  0  0  0  0  0  0  0  0  0  0
   -4.0268   -0.4154   -1.1674 C   0  0  0  0  0  0  0  0  0  0  0  0
   -5.4797   -0.9021   -1.0313 C   0  0  0  0  0  0  0  0  0  0  0  0
   -5.9500   -1.5512   -2.3327 C   0  0  0  0  0  0  0  0  0  0  0  0
   -5.6318   -1.8709    0.1453 C   0  0  0  0  0  0  0  0  0  0  0  0
   -5.3375   -1.1930    1.5038 C   0  0  0  0  0  0  0  0  0  0  0  0
   -4.9617   -2.2690    2.5414 C   0  0  0  0  0  0  0  0  0  0  0  0
   -6.6198   -0.5017    2.0228 C   0  0  0  0  0  0  0  0  0  0  0  0
   -4.2184   -0.1211    1.3942 C   0  0  0  0  0  0  0  0  0  0  0  0
   -2.2078   -1.3213    0.3449 C   0  0  0  0  0  0  0  0  0  0  0  0
   -2.4086   -2.5248    0.4324 O   0  0  0  0  0  0  0  0  0  0  0  0
    3.5779   -1.9785    0.1132 C   0  0  0  0  0  0  0  0  0  0  0  0
    3.1303   -3.0859   -0.1693 O   0  0  0  0  0  0  0  0  0  0  0  0
    4.6118   -1.8241    0.9772 N   0  0  0  0  0  0  0  0  0  0  0  0
    5.0776   -0.6371    1.4525 C   0  0  0  0  0  0  0  0  0  0  0  0
    5.9773   -0.6367    2.2910 O   0  0  0  0  0  0  0  0  0  0  0  0
    6.9808    3.4054    2.7833 H   0  0  0  0  0  0  0  0  0  0  0  0
    6.5158    2.8160    4.3938 H   0  0  0  0  0  0  0  0  0  0  0  0
    6.5948    4.5542    4.0678 H   0  0  0  0  0  0  0  0  0  0  0  0
    4.7022    4.3486    2.4496 H   0  0  0  0  0  0  0  0  0  0  0  0
    4.2526    3.8889    4.0885 H   0  0  0  0  0  0  0  0  0  0  0  0
    4.5339    1.4731    3.5100 H   0  0  0  0  0  0  0  0  0  0  0  0
    3.2736    2.2859    2.6009 H   0  0  0  0  0  0  0  0  0  0  0  0
    4.8975    2.5578    0.6490 H   0  0  0  0  0  0  0  0  0  0  0  0
    6.0933    1.6736    1.5642 H   0  0  0  0  0  0  0  0  0  0  0  0
    2.7050    2.3132    0.3684 H   0  0  0  0  0  0  0  0  0  0  0  0
    1.8679    1.4627   -0.7643 H   0  0  0  0  0  0  0  0  0  0  0  0
    3.5226   -1.1064   -2.8272 H   0  0  0  0  0  0  0  0  0  0  0  0
    1.9529   -1.6833   -3.3469 H   0  0  0  0  0  0  0  0  0  0  0  0
    2.7398    1.2701   -3.0414 H   0  0  0  0  0  0  0  0  0  0  0  0
    0.3068    1.0123   -2.6928 H   0  0  0  0  0  0  0  0  0  0  0  0
    0.6182    1.7537   -4.2605 H   0  0  0  0  0  0  0  0  0  0  0  0
    0.1698    0.0443   -4.1727 H   0  0  0  0  0  0  0  0  0  0  0  0
    2.7266    1.3160   -5.5065 H   0  0  0  0  0  0  0  0  0  0  0  0
    2.3430   -0.4110   -5.5667 H   0  0  0  0  0  0  0  0  0  0  0  0
    3.9033    0.1327   -4.9156 H   0  0  0  0  0  0  0  0  0  0  0  0
    0.9674   -0.8818    1.0004 H   0  0  0  0  0  0  0  0  0  0  0  0
    0.1741   -2.4508    0.6694 H   0  0  0  0  0  0  0  0  0  0  0  0
   -2.7276    1.8822   -0.0855 H   0  0  0  0  0  0  0  0  0  0  0  0
   -4.0492    0.5329   -1.7237 H   0  0  0  0  0  0  0  0  0  0  0  0
   -3.4607   -1.1092   -1.8044 H   0  0  0  0  0  0  0  0  0  0  0  0
   -6.1182   -0.0279   -0.8528 H   0  0  0  0  0  0  0  0  0  0  0  0
   -5.8503   -0.8625   -3.1752 H   0  0  0  0  0  0  0  0  0  0  0  0
   -5.3672   -2.4482   -2.5583 H   0  0  0  0  0  0  0  0  0  0  0  0
   -7.0014   -1.8445   -2.2613 H   0  0  0  0  0  0  0  0  0  0  0  0
   -6.6446   -2.2951    0.1532 H   0  0  0  0  0  0  0  0  0  0  0  0
   -4.9581   -2.7234   -0.0100 H   0  0  0  0  0  0  0  0  0  0  0  0
   -4.7626   -1.8195    3.5193 H   0  0  0  0  0  0  0  0  0  0  0  0
   -4.0689   -2.8277    2.2490 H   0  0  0  0  0  0  0  0  0  0  0  0
   -5.7716   -2.9932    2.6703 H   0  0  0  0  0  0  0  0  0  0  0  0
   -6.9906    0.2435    1.3113 H   0  0  0  0  0  0  0  0  0  0  0  0
   -6.4313    0.0111    2.9712 H   0  0  0  0  0  0  0  0  0  0  0  0
   -7.4239   -1.2261    2.1909 H   0  0  0  0  0  0  0  0  0  0  0  0
   -4.6860    0.8742    1.3554 H   0  0  0  0  0  0  0  0  0  0  0  0
   -3.6196   -0.1106    2.3155 H   0  0  0  0  0  0  0  0  0  0  0  0
    5.0207   -2.6580    1.3697 H   0  0  0  0  0  0  0  0  0  0  0  0
  1  2  1  0
  2  3  1  0
  3  4  1  0
  4  5  1  0
  5  6  1  0
  6  7  1  0
  6  8  2  0
  8  9  1  0
  9 10  1  0
 10 11  1  0
 11 12  1  0
 11 13  1  0
  9 14  1  0
 14 15  2  0
 14 16  1  0
 16 17  1  0
 17 18  1  0
 18 19  2  0
 18 20  1  0
 20 21  1  0
 21 22  1  0
 22 23  1  0
 23 24  1  0
 23 25  1  0
 25 26  1  0
 26 27  1  0
 26 28  1  0
 26 29  1  0
 21 30  1  0
 30 31  2  0
  8 32  1  0
 32 33  2  0
 32 34  1  0
 34 35  1  0
 35 36  2  0
 35  5  1  0
 30 17  1  0
 29 21  1  0
  1 37  1  0
  1 38  1  0
  1 39  1  0
  2 40  1  0
  2 41  1  0
  3 42  1  0
  3 43  1  0
  4 44  1  0
  4 45  1  0
  7 46  1  0
  7 47  1  0
 10 48  1  0
 10 49  1  0
 11 50  1  0
 12 51  1  0
 12 52  1  0
 12 53  1  0
 13 54  1  0
 13 55  1  0
 13 56  1  0
 16 57  1  0
 16 58  1  0
 20 59  1  0
 22 60  1  0
 22 61  1  0
 23 62  1  0
 24 63  1  0
 24 64  1  0
 24 65  1  0
 25 66  1  0
 25 67  1  0
 27 68  1  0
 27 69  1  0
 27 70  1  0
 28 71  1  0
 28 72  1  0
 28 73  1  0
 29 74  1  0
 29 75  1  0
 34 76  1  0
M  END
$$$$
