
     RDKit          3D

 35 37  0  0  0  0  0  0  0  0999 V2000
   -5.6868    0.5039    0.1636 C   0  0  0  0  0  0  0  0  0  0  0  0
   -4.2576    0.0418    0.0985 C   0  0  0  0  0  0  0  0  0  0  0  0
   -3.2355    0.9968   -0.0347 C   0  0  0  0  0  0  0  0  0  0  0  0
   -1.8941    0.6398   -0.0632 C   0  0  0  0  0  0  0  0  0  0  0  0
   -0.9530    1.5923   -0.1931 N   0  0  0  0  0  0  0  0  0  0  0  0
    0.3326    1.1937   -0.1985 C   0  0  0  0  0  0  0  0  0  0  0  0
    1.3419    2.1291   -0.3333 C   0  0  0  0  0  0  0  0  0  0  0  0
    2.6903    1.7495   -0.3398 C   0  0  0  0  0  0  0  0  0  0  0  0
    3.0822    0.4115   -0.2007 C   0  0  0  0  0  0  0  0  0  0  0  0
    4.4266    0.0250   -0.2237 N   0  0  0  0  0  0  0  0  0  0  0  0
    5.4597    1.0351    0.0046 C   0  0  0  0  0  0  0  0  0  0  0  0
    4.7834   -1.3399    0.1633 C   0  0  0  0  0  0  0  0  0  0  0  0
    2.0331   -0.5183   -0.0819 C   0  0  0  0  0  0  0  0  0  0  0  0
    0.6843   -0.1614   -0.0724 C   0  0  0  0  0  0  0  0  0  0  0  0
   -0.2604   -1.1135    0.0561 N   0  0  0  0  0  0  0  0  0  0  0  0
   -1.5481   -0.7189    0.0588 C   0  0  0  0  0  0  0  0  0  0  0  0
   -2.5597   -1.6633    0.1867 C   0  0  0  0  0  0  0  0  0  0  0  0
   -3.9160   -1.3154    0.1557 C   0  0  0  0  0  0  0  0  0  0  0  0
   -4.8779   -2.3053    0.4005 N   0  0  0  0  0  0  0  0  0  0  0  0
   -6.1605    0.1507    1.0852 H   0  0  0  0  0  0  0  0  0  0  0  0
   -6.2447    0.1300   -0.7009 H   0  0  0  0  0  0  0  0  0  0  0  0
   -5.7581    1.5968    0.1575 H   0  0  0  0  0  0  0  0  0  0  0  0
   -3.4833    2.0540   -0.1059 H   0  0  0  0  0  0  0  0  0  0  0  0
    1.0798    3.1785   -0.4402 H   0  0  0  0  0  0  0  0  0  0  0  0
    3.4221    2.5418   -0.4643 H   0  0  0  0  0  0  0  0  0  0  0  0
    6.4616    0.5916   -0.0132 H   0  0  0  0  0  0  0  0  0  0  0  0
    5.3297    1.5173    0.9798 H   0  0  0  0  0  0  0  0  0  0  0  0
    5.4535    1.7936   -0.7854 H   0  0  0  0  0  0  0  0  0  0  0  0
    4.3162   -2.0753   -0.5006 H   0  0  0  0  0  0  0  0  0  0  0  0
    4.4949   -1.5427    1.2005 H   0  0  0  0  0  0  0  0  0  0  0  0
    5.8634   -1.5063    0.0811 H   0  0  0  0  0  0  0  0  0  0  0  0
    2.2410   -1.5800    0.0103 H   0  0  0  0  0  0  0  0  0  0  0  0
   -2.2707   -2.7043    0.3080 H   0  0  0  0  0  0  0  0  0  0  0  0
   -5.8051   -2.0866    0.0512 H   0  0  0  0  0  0  0  0  0  0  0  0
   -4.5848   -3.2418    0.1378 H   0  0  0  0  0  0  0  0  0  0  0  0
  1  2  1  0
  2  3  2  0
  3  4  1  0
  4  5  2  0
  5  6  1  0
  6  7  2  0
  7  8  1  0
  8  9  2  0
  9 10  1  0
 10 11  1  0
 10 12  1  0
  9 13  1  0
 13 14  2  0
 14 15  1  0
 15 16  2  0
 16 17  1  0
 17 18  2  0
 18 19  1  0
 18  2  1  0
 16  4  1  0
 14  6  1  0
  1 20  1  0
  1 21  1  0
  1 22  1  0
  3 23  1  0
  7 24  1  0
  8 25  1  0
 11 26  1  0
 11 27  1  0
 11 28  1  0
 12 29  1  0
 12 30  1  0
 12 31  1  0
 13 32  1  0
 17 33  1  0
 19 34  1  0
 19 35  1  0
M  END
$$$$
