
     RDKit          3D

 48 50  0  0  0  0  0  0  0  0999 V2000
    7.4440    0.9388    1.3522 C   0  0  0  0  0  0  0  0  0  0  0  0
    5.9968    1.3224    1.6180 C   0  0  0  0  0  0  0  0  0  0  0  0
    5.1549    0.1752    2.1854 C   0  0  0  0  0  0  0  0  0  0  0  0
    5.0167   -1.0317    1.2550 C   0  0  0  0  0  0  0  0  0  0  0  0
    4.5579   -0.6549   -0.0420 O   0  0  0  0  0  0  0  0  0  0  0  0
    3.2147   -0.5843   -0.2743 C   0  0  0  0  0  0  0  0  0  0  0  0
    2.8697   -0.2946   -1.5938 C   0  0  0  0  0  0  0  0  0  0  0  0
    1.5279   -0.1894   -1.9763 C   0  0  0  0  0  0  0  0  0  0  0  0
    0.4925   -0.3874   -1.0515 C   0  0  0  0  0  0  0  0  0  0  0  0
   -0.8402   -0.2224   -1.4793 N   0  0  0  0  0  0  0  0  0  0  0  0
   -1.9838   -0.6771   -0.8767 C   0  0  0  0  0  0  0  0  0  0  0  0
   -2.0658   -1.4305    0.1662 N   0  0  0  0  0  0  0  0  0  0  0  0
   -3.2968   -1.8447    0.5615 C   0  0  0  0  0  0  0  0  0  0  0  0
   -3.3266   -2.8348    1.4868 N   0  0  0  0  0  0  0  0  0  0  0  0
   -4.4148   -1.3520    0.1569 N   0  0  0  0  0  0  0  0  0  0  0  0
   -4.3198   -0.2779   -0.8135 C   0  0  0  0  0  0  0  0  0  0  0  0
   -5.4925   -0.4248   -1.8092 C   0  0  0  0  0  0  0  0  0  0  0  0
   -6.2442    0.9012   -1.7673 C   0  0  0  0  0  0  0  0  0  0  0  0
   -6.0387    1.3832   -0.3442 C   0  0  0  0  0  0  0  0  0  0  0  0
   -4.5730    1.0634   -0.0862 C   0  0  0  0  0  0  0  0  0  0  0  0
   -3.0795   -0.2265   -1.5428 N   0  0  0  0  0  0  0  0  0  0  0  0
    0.8538   -0.6460    0.2741 C   0  0  0  0  0  0  0  0  0  0  0  0
    2.1987   -0.7527    0.6608 C   0  0  0  0  0  0  0  0  0  0  0  0
    7.9129    0.5262    2.2510 H   0  0  0  0  0  0  0  0  0  0  0  0
    8.0159    1.8207    1.0461 H   0  0  0  0  0  0  0  0  0  0  0  0
    7.5217    0.1996    0.5495 H   0  0  0  0  0  0  0  0  0  0  0  0
    5.5452    1.7039    0.6952 H   0  0  0  0  0  0  0  0  0  0  0  0
    5.9823    2.1496    2.3379 H   0  0  0  0  0  0  0  0  0  0  0  0
    4.1602    0.5784    2.4068 H   0  0  0  0  0  0  0  0  0  0  0  0
    5.5800   -0.1570    3.1399 H   0  0  0  0  0  0  0  0  0  0  0  0
    4.3970   -1.8184    1.7008 H   0  0  0  0  0  0  0  0  0  0  0  0
    6.0011   -1.4922    1.1142 H   0  0  0  0  0  0  0  0  0  0  0  0
    3.6526   -0.1469   -2.3337 H   0  0  0  0  0  0  0  0  0  0  0  0
    1.3052    0.0449   -3.0139 H   0  0  0  0  0  0  0  0  0  0  0  0
   -0.9230   -0.1565   -2.4842 H   0  0  0  0  0  0  0  0  0  0  0  0
   -4.1843   -2.8328    2.0200 H   0  0  0  0  0  0  0  0  0  0  0  0
   -2.4802   -2.8668    2.0371 H   0  0  0  0  0  0  0  0  0  0  0  0
   -6.1724   -1.2297   -1.5012 H   0  0  0  0  0  0  0  0  0  0  0  0
   -5.1682   -0.6541   -2.8306 H   0  0  0  0  0  0  0  0  0  0  0  0
   -5.7981    1.6089   -2.4761 H   0  0  0  0  0  0  0  0  0  0  0  0
   -7.3020    0.7858   -2.0206 H   0  0  0  0  0  0  0  0  0  0  0  0
   -6.2572    2.4486   -0.2291 H   0  0  0  0  0  0  0  0  0  0  0  0
   -6.6790    0.8228    0.3469 H   0  0  0  0  0  0  0  0  0  0  0  0
   -4.3599    1.0185    0.9876 H   0  0  0  0  0  0  0  0  0  0  0  0
   -3.9553    1.8686   -0.5049 H   0  0  0  0  0  0  0  0  0  0  0  0
   -2.9438    0.6400   -2.0454 H   0  0  0  0  0  0  0  0  0  0  0  0
    0.0933   -0.7603    1.0414 H   0  0  0  0  0  0  0  0  0  0  0  0
    2.4043   -0.9566    1.7054 H   0  0  0  0  0  0  0  0  0  0  0  0
  1  2  1  0
  2  3  1  0
  3  4  1  0
  4  5  1  0
  5  6  1  0
  6  7  2  0
  7  8  1  0
  8  9  2  0
  9 10  1  0
 10 11  1  0
 11 12  2  0
 12 13  1  0
 13 14  1  0
 13 15  2  0
 15 16  1  0
 16 17  1  0
 17 18  1  0
 18 19  1  0
 19 20  1  0
 16 21  1  0
  9 22  1  0
 22 23  2  0
 23  6  1  0
 21 11  1  0
 20 16  1  0
  1 24  1  0
  1 25  1  0
  1 26  1  0
  2 27  1  0
  2 28  1  0
  3 29  1  0
  3 30  1  0
  4 31  1  0
  4 32  1  0
  7 33  1  0
  8 34  1  0
 10 35  1  0
 14 36  1  0
 14 37  1  0
 17 38  1  0
 17 39  1  0
 18 40  1  0
 18 41  1  0
 19 42  1  0
 19 43  1  0
 20 44  1  0
 20 45  1  0
 21 46  1  0
 22 47  1  0
 23 48  1  0
M  END
$$$$
