
     RDKit          3D

 37 39  0  0  0  0  0  0  0  0999 V2000
    0.1077   -2.9081   -2.2183 C   0  0  0  0  0  0  0  0  0  0  0  0
   -0.8207   -2.2143   -3.0453 O   0  0  0  0  0  0  0  0  0  0  0  0
   -1.3309   -1.0283   -2.5228 C   0  0  0  0  0  0  0  0  0  0  0  0
   -2.3476   -0.4703   -3.3073 C   0  0  0  0  0  0  0  0  0  0  0  0
   -2.9719    0.7181   -2.9390 C   0  0  0  0  0  0  0  0  0  0  0  0
   -2.6019    1.3978   -1.7724 C   0  0  0  0  0  0  0  0  0  0  0  0
   -3.1611    2.5704   -1.3371 O   0  0  0  0  0  0  0  0  0  0  0  0
   -4.2385    3.1044   -2.0957 C   0  0  0  0  0  0  0  0  0  0  0  0
   -1.5674    0.8320   -0.9934 C   0  0  0  0  0  0  0  0  0  0  0  0
   -0.8838    1.4261    0.4744 S   0  0  0  0  0  0  0  0  0  0  0  0
    0.2192    0.1014    0.5422 C   0  0  0  0  0  0  0  0  0  0  0  0
    1.1597   -0.0578    1.5211 N   0  0  0  0  0  0  0  0  0  0  0  0
    1.2376    0.8212    2.6846 C   0  0  0  0  0  0  0  0  0  0  0  0
    2.0351    0.1621    3.8103 C   0  0  0  0  0  0  0  0  0  0  0  0
    3.4482   -0.2166    3.3702 C   0  0  0  0  0  0  0  0  0  0  0  0
    3.5198   -0.6062    1.8945 C   0  0  0  0  0  0  0  0  0  0  0  0
    2.1763   -1.0961    1.3574 C   0  0  0  0  0  0  0  0  0  0  0  0
    0.0762   -0.7454   -0.4523 N   0  0  0  0  0  0  0  0  0  0  0  0
   -0.9227   -0.3579   -1.3385 C   0  0  0  0  0  0  0  0  0  0  0  0
    1.0418   -2.3465   -2.1130 H   0  0  0  0  0  0  0  0  0  0  0  0
    0.3533   -3.8510   -2.7182 H   0  0  0  0  0  0  0  0  0  0  0  0
   -0.3352   -3.1605   -1.2489 H   0  0  0  0  0  0  0  0  0  0  0  0
   -2.6524   -0.9770   -4.2206 H   0  0  0  0  0  0  0  0  0  0  0  0
   -3.7508    1.0967   -3.5933 H   0  0  0  0  0  0  0  0  0  0  0  0
   -3.9086    3.3917   -3.0996 H   0  0  0  0  0  0  0  0  0  0  0  0
   -5.0794    2.4033   -2.1371 H   0  0  0  0  0  0  0  0  0  0  0  0
   -4.5873    4.0090   -1.5891 H   0  0  0  0  0  0  0  0  0  0  0  0
    1.7095    1.7698    2.4003 H   0  0  0  0  0  0  0  0  0  0  0  0
    0.2379    1.0447    3.0774 H   0  0  0  0  0  0  0  0  0  0  0  0
    1.5091   -0.7443    4.1376 H   0  0  0  0  0  0  0  0  0  0  0  0
    2.0842    0.8258    4.6805 H   0  0  0  0  0  0  0  0  0  0  0  0
    3.8078   -1.0431    3.9959 H   0  0  0  0  0  0  0  0  0  0  0  0
    4.1301    0.6232    3.5465 H   0  0  0  0  0  0  0  0  0  0  0  0
    4.2902   -1.3721    1.7497 H   0  0  0  0  0  0  0  0  0  0  0  0
    3.8369    0.2685    1.3117 H   0  0  0  0  0  0  0  0  0  0  0  0
    1.8599   -2.0051    1.8841 H   0  0  0  0  0  0  0  0  0  0  0  0
    2.3197   -1.3658    0.3035 H   0  0  0  0  0  0  0  0  0  0  0  0
  1  2  1  0
  2  3  1  0
  3  4  2  0
  4  5  1  0
  5  6  2  0
  6  7  1  0
  7  8  1  0
  6  9  1  0
  9 10  1  0
 10 11  1  0
 11 12  1  0
 12 13  1  0
 13 14  1  0
 14 15  1  0
 15 16  1  0
 16 17  1  0
 11 18  2  0
 18 19  1  0
 19  3  1  0
 19  9  2  0
 17 12  1  0
  1 20  1  0
  1 21  1  0
  1 22  1  0
  4 23  1  0
  5 24  1  0
  8 25  1  0
  8 26  1  0
  8 27  1  0
 13 28  1  0
 13 29  1  0
 14 30  1  0
 14 31  1  0
 15 32  1  0
 15 33  1  0
 16 34  1  0
 16 35  1  0
 17 36  1  0
 17 37  1  0
M  END
$$$$
