
     RDKit          3D

 47 49  0  0  0  0  0  0  0  0999 V2000
   -6.5452   -0.2648   -1.5829 C   0  0  0  0  0  0  0  0  0  0  0  0
   -5.9816   -0.5262   -0.2604 N   0  0  0  0  0  0  0  0  0  0  0  0
   -4.6651   -1.1898   -0.3406 C   0  0  0  0  0  0  0  0  0  0  0  0
   -3.4587   -0.2388   -0.2261 C   0  0  0  0  0  0  0  0  0  0  0  0
   -3.4676    0.5199    1.0704 N   0  0  0  0  0  0  0  0  0  0  0  0
   -2.5694    1.9716    1.0629 S   0  0  0  0  0  6  0  0  0  0  0  0
   -2.5410    2.4934    2.4126 O   0  0  0  0  0  0  0  0  0  0  0  0
   -3.0553    2.7767   -0.0383 O   0  0  0  0  0  0  0  0  0  0  0  0
   -0.9307    1.4110    0.6775 C   0  0  0  0  0  0  0  0  0  0  0  0
   -0.3618    1.6943   -0.5633 C   0  0  0  0  0  0  0  0  0  0  0  0
    0.9346    1.2478   -0.8533 C   0  0  0  0  0  0  0  0  0  0  0  0
    1.6694    0.5244    0.0877 C   0  0  0  0  0  0  0  0  0  0  0  0
    2.9802    0.0299   -0.0889 N   0  0  0  0  0  0  0  0  0  0  0  0
    3.8525   -0.0059   -1.1513 C   0  0  0  0  0  0  0  0  0  0  0  0
    3.6454    0.4866   -2.7331 S   0  0  0  0  0  0  0  0  0  0  0  0
    5.0971   -0.5472   -0.8588 N   0  0  0  0  0  0  0  0  0  0  0  0
    5.5724   -1.0591    0.3370 C   0  0  0  0  0  0  0  0  0  0  0  0
    4.8991   -1.1359    1.3596 O   0  0  0  0  0  0  0  0  0  0  0  0
    6.9809   -1.5464    0.3495 C   0  0  0  0  0  0  0  0  0  0  0  0
    7.6161   -2.2314   -0.8382 C   0  0  0  0  0  0  0  0  0  0  0  0
    8.0810   -0.8625   -0.4286 C   0  0  0  0  0  0  0  0  0  0  0  0
    1.0829    0.2680    1.3398 C   0  0  0  0  0  0  0  0  0  0  0  0
   -0.2100    0.7059    1.6391 C   0  0  0  0  0  0  0  0  0  0  0  0
   -4.8499    0.6725    1.6389 C   0  0  0  0  0  0  0  0  0  0  0  0
   -5.9119    0.7237    0.5273 C   0  0  0  0  0  0  0  0  0  0  0  0
   -7.5298    0.2081   -1.4951 H   0  0  0  0  0  0  0  0  0  0  0  0
   -6.6958   -1.2034   -2.1274 H   0  0  0  0  0  0  0  0  0  0  0  0
   -5.9017    0.3845   -2.1870 H   0  0  0  0  0  0  0  0  0  0  0  0
   -4.6144   -1.9101    0.4867 H   0  0  0  0  0  0  0  0  0  0  0  0
   -4.5788   -1.7887   -1.2556 H   0  0  0  0  0  0  0  0  0  0  0  0
   -2.5389   -0.8320   -0.2689 H   0  0  0  0  0  0  0  0  0  0  0  0
   -3.4635    0.4482   -1.0797 H   0  0  0  0  0  0  0  0  0  0  0  0
   -0.9091    2.2650   -1.3109 H   0  0  0  0  0  0  0  0  0  0  0  0
    1.3323    1.5095   -1.8246 H   0  0  0  0  0  0  0  0  0  0  0  0
    3.3669   -0.4105    0.7487 H   0  0  0  0  0  0  0  0  0  0  0  0
    5.7247   -0.5474   -1.6496 H   0  0  0  0  0  0  0  0  0  0  0  0
    7.2688   -1.9366    1.3243 H   0  0  0  0  0  0  0  0  0  0  0  0
    8.2757   -3.0707   -0.6388 H   0  0  0  0  0  0  0  0  0  0  0  0
    7.0596   -2.3374   -1.7616 H   0  0  0  0  0  0  0  0  0  0  0  0
    7.8446   -0.0201   -1.0675 H   0  0  0  0  0  0  0  0  0  0  0  0
    9.0531   -0.7782    0.0476 H   0  0  0  0  0  0  0  0  0  0  0  0
    1.6300   -0.2819    2.1041 H   0  0  0  0  0  0  0  0  0  0  0  0
   -0.6441    0.4975    2.6146 H   0  0  0  0  0  0  0  0  0  0  0  0
   -5.0337   -0.1740    2.3121 H   0  0  0  0  0  0  0  0  0  0  0  0
   -4.9267    1.5736    2.2565 H   0  0  0  0  0  0  0  0  0  0  0  0
   -5.6878    1.5808   -0.1219 H   0  0  0  0  0  0  0  0  0  0  0  0
   -6.8949    0.9060    0.9762 H   0  0  0  0  0  0  0  0  0  0  0  0
  1  2  1  0
  2  3  1  0
  3  4  1  0
  4  5  1  0
  5  6  1  0
  6  7  2  0
  6  8  2  0
  6  9  1  0
  9 10  2  0
 10 11  1  0
 11 12  2  0
 12 13  1  0
 13 14  1  0
 14 15  2  0
 14 16  1  0
 16 17  1  0
 17 18  2  0
 17 19  1  0
 19 20  1  0
 20 21  1  0
 12 22  1  0
 22 23  2  0
  5 24  1  0
 24 25  1  0
 25  2  1  0
 23  9  1  0
 21 19  1  0
  1 26  1  0
  1 27  1  0
  1 28  1  0
  3 29  1  0
  3 30  1  0
  4 31  1  0
  4 32  1  0
 10 33  1  0
 11 34  1  0
 13 35  1  0
 16 36  1  0
 19 37  1  0
 20 38  1  0
 20 39  1  0
 21 40  1  0
 21 41  1  0
 22 42  1  0
 23 43  1  0
 24 44  1  0
 24 45  1  0
 25 46  1  0
 25 47  1  0
M  END
$$$$
