
     RDKit          3D

 58 61  0  0  0  0  0  0  0  0999 V2000
   -1.2294   -1.7339    1.5171 O   0  0  0  0  0  0  0  0  0  0  0  0
   -0.9130   -0.6236    1.9271 C   0  0  0  0  0  0  0  0  0  0  0  0
   -1.8160    0.4072    2.0875 N   0  0  0  0  0  0  0  0  0  0  0  0
   -3.1847    0.2553    1.6032 C   0  0  0  0  0  0  0  0  0  0  0  0
   -3.3088    0.3058    0.0395 C   0  0  0  0  0  0  0  0  0  0  0  0
   -2.7175    1.6397   -0.4256 C   0  0  0  0  0  0  0  0  0  0  0  0
   -3.2487    2.9115   -0.2980 C   0  0  0  0  0  0  0  0  0  0  0  0
   -2.3962    3.9153   -0.8374 C   0  0  0  0  0  0  0  0  0  0  0  0
   -1.2410    3.3825   -1.3633 C   0  0  0  0  0  0  0  0  0  0  0  0
   -1.1870    1.6814   -1.2071 S   0  0  0  0  0  0  0  0  0  0  0  0
   -4.7121    0.1660   -0.4516 N   0  0  0  0  0  0  0  0  0  0  0  0
   -4.7844    0.1269   -1.9398 C   0  0  0  0  0  0  0  0  0  0  0  0
   -4.2722   -1.1836   -2.5655 C   0  0  0  0  0  0  0  0  0  0  0  0
   -4.9593   -2.3211   -2.0301 O   0  0  0  0  0  0  0  0  0  0  0  0
   -4.8431   -2.3627   -0.6025 C   0  0  0  0  0  0  0  0  0  0  0  0
   -5.3848   -1.0681    0.0280 C   0  0  0  0  0  0  0  0  0  0  0  0
    0.5126   -0.3063    2.2113 C   0  0  0  0  0  0  0  0  0  0  0  0
    0.8841    0.6865    3.1228 C   0  0  0  0  0  0  0  0  0  0  0  0
    2.2376    0.9594    3.3437 C   0  0  0  0  0  0  0  0  0  0  0  0
    3.2333    0.2469    2.6629 C   0  0  0  0  0  0  0  0  0  0  0  0
    4.8655    0.6930    2.9999 Cl  0  0  0  0  0  0  0  0  0  0  0  0
    2.8604   -0.7530    1.7623 C   0  0  0  0  0  0  0  0  0  0  0  0
    4.0667   -1.7012    0.8783 S   0  0  0  0  0  6  0  0  0  0  0  0
    4.9838   -2.2634    1.8444 O   0  0  0  0  0  0  0  0  0  0  0  0
    3.3733   -2.5555   -0.0645 O   0  0  0  0  0  0  0  0  0  0  0  0
    4.8826   -0.5320   -0.0525 N   0  0  0  0  0  0  0  0  0  0  0  0
    4.0821    0.1272   -1.1350 C   0  0  0  0  0  0  0  0  0  0  0  0
    4.4994   -0.3852   -2.5158 C   0  0  0  0  0  0  0  0  0  0  0  0
    5.8713   -0.0999   -2.8234 O   0  0  0  0  0  0  0  0  0  0  0  0
    6.7232   -0.0948   -1.6682 C   0  0  0  0  0  0  0  0  0  0  0  0
    6.2206   -1.0006   -0.5410 C   0  0  0  0  0  0  0  0  0  0  0  0
    1.5024   -1.0375    1.5445 C   0  0  0  0  0  0  0  0  0  0  0  0
   -1.4640    1.3542    2.1408 H   0  0  0  0  0  0  0  0  0  0  0  0
   -3.7761    1.0523    2.0688 H   0  0  0  0  0  0  0  0  0  0  0  0
   -3.5435   -0.7030    1.9907 H   0  0  0  0  0  0  0  0  0  0  0  0
   -2.6957   -0.5079   -0.3654 H   0  0  0  0  0  0  0  0  0  0  0  0
   -4.2144    3.1042    0.1563 H   0  0  0  0  0  0  0  0  0  0  0  0
   -2.6223    4.9750   -0.8462 H   0  0  0  0  0  0  0  0  0  0  0  0
   -0.4277    3.9115   -1.8411 H   0  0  0  0  0  0  0  0  0  0  0  0
   -4.2754    0.9821   -2.3965 H   0  0  0  0  0  0  0  0  0  0  0  0
   -5.8428    0.2439   -2.2103 H   0  0  0  0  0  0  0  0  0  0  0  0
   -4.4568   -1.1696   -3.6444 H   0  0  0  0  0  0  0  0  0  0  0  0
   -3.1942   -1.3127   -2.4216 H   0  0  0  0  0  0  0  0  0  0  0  0
   -3.7992   -2.5496   -0.3268 H   0  0  0  0  0  0  0  0  0  0  0  0
   -5.4332   -3.2159   -0.2522 H   0  0  0  0  0  0  0  0  0  0  0  0
   -5.3771   -1.1387    1.1191 H   0  0  0  0  0  0  0  0  0  0  0  0
   -6.4471   -0.9784   -0.2391 H   0  0  0  0  0  0  0  0  0  0  0  0
    0.1381    1.2390    3.6883 H   0  0  0  0  0  0  0  0  0  0  0  0
    2.5120    1.7328    4.0594 H   0  0  0  0  0  0  0  0  0  0  0  0
    4.2674    1.2053   -1.0592 H   0  0  0  0  0  0  0  0  0  0  0  0
    3.0089   -0.0240   -0.9888 H   0  0  0  0  0  0  0  0  0  0  0  0
    3.8879    0.0847   -3.2923 H   0  0  0  0  0  0  0  0  0  0  0  0
    4.3528   -1.4683   -2.5939 H   0  0  0  0  0  0  0  0  0  0  0  0
    7.7183   -0.4129   -1.9944 H   0  0  0  0  0  0  0  0  0  0  0  0
    6.8079    0.9416   -1.3209 H   0  0  0  0  0  0  0  0  0  0  0  0
    6.1399   -2.0295   -0.9105 H   0  0  0  0  0  0  0  0  0  0  0  0
    6.9287   -0.9730    0.2929 H   0  0  0  0  0  0  0  0  0  0  0  0
    1.2067   -1.8252    0.8512 H   0  0  0  0  0  0  0  0  0  0  0  0
  1  2  2  0
  2  3  1  0
  3  4  1  0
  4  5  1  0
  5  6  1  0
  6  7  2  0
  7  8  1  0
  8  9  2  0
  9 10  1  0
  5 11  1  0
 11 12  1  0
 12 13  1  0
 13 14  1  0
 14 15  1  0
 15 16  1  0
  2 17  1  0
 17 18  2  0
 18 19  1  0
 19 20  2  0
 20 21  1  0
 20 22  1  0
 22 23  1  0
 23 24  2  0
 23 25  2  0
 23 26  1  0
 26 27  1  0
 27 28  1  0
 28 29  1  0
 29 30  1  0
 30 31  1  0
 22 32  2  0
 10  6  1  0
 16 11  1  0
 32 17  1  0
 31 26  1  0
  3 33  1  0
  4 34  1  0
  4 35  1  0
  5 36  1  0
  7 37  1  0
  8 38  1  0
  9 39  1  0
 12 40  1  0
 12 41  1  0
 13 42  1  0
 13 43  1  0
 15 44  1  0
 15 45  1  0
 16 46  1  0
 16 47  1  0
 18 48  1  0
 19 49  1  0
 27 50  1  0
 27 51  1  0
 28 52  1  0
 28 53  1  0
 30 54  1  0
 30 55  1  0
 31 56  1  0
 31 57  1  0
 32 58  1  0
M  END
$$$$
