
     RDKit          3D

 50 52  0  0  0  0  0  0  0  0999 V2000
    5.9749   -2.1357   -3.6665 C   0  0  0  0  0  0  0  0  0  0  0  0
    4.8322   -1.9758   -2.7076 C   0  0  0  0  0  0  0  0  0  0  0  0
    3.6046   -1.4640   -3.1417 C   0  0  0  0  0  0  0  0  0  0  0  0
    2.5530   -1.2875   -2.2379 C   0  0  0  0  0  0  0  0  0  0  0  0
    2.7240   -1.6009   -0.8860 C   0  0  0  0  0  0  0  0  0  0  0  0
    1.3853   -1.3415    0.2593 S   0  0  0  0  0  0  0  0  0  0  0  0
    2.0518    0.1157    1.1346 C   0  0  0  0  0  0  0  0  0  0  0  0
    1.0387    0.6003    2.1579 C   0  0  0  0  0  0  0  0  0  0  0  0
    0.9531   -0.0070    3.2319 O   0  0  0  0  0  0  0  0  0  0  0  0
    0.2298    1.7035    1.8967 N   0  0  0  0  0  0  0  0  0  0  0  0
   -0.8312    1.9744    2.8839 C   0  0  0  0  0  0  0  0  0  0  0  0
   -2.1561    1.5526    2.3518 C   0  0  0  0  0  0  0  0  0  0  0  0
   -2.5371    0.4048    1.8317 N   0  0  0  0  0  0  0  0  0  0  0  0
   -3.8523    0.6485    1.4975 C   0  0  0  0  0  0  0  0  0  0  0  0
   -4.6920   -0.3698    0.8725 C   0  0  0  0  0  0  0  0  0  0  0  0
   -4.1779   -1.6512    0.6189 C   0  0  0  0  0  0  0  0  0  0  0  0
   -4.9717   -2.6378    0.0234 C   0  0  0  0  0  0  0  0  0  0  0  0
   -6.2896   -2.3513   -0.3245 C   0  0  0  0  0  0  0  0  0  0  0  0
   -6.8129   -1.0780   -0.0875 C   0  0  0  0  0  0  0  0  0  0  0  0
   -6.0191   -0.0910    0.5067 C   0  0  0  0  0  0  0  0  0  0  0  0
   -4.2654    1.8982    1.7924 N   0  0  0  0  0  0  0  0  0  0  0  0
   -3.1429    2.5008    2.3539 O   0  0  0  0  0  0  0  0  0  0  0  0
    0.2771    2.6256    0.7373 C   0  0  0  0  0  0  0  0  0  0  0  0
    1.5268    3.5091    0.7436 C   0  0  0  0  0  0  0  0  0  0  0  0
    0.0191    1.9675   -0.6185 C   0  0  0  0  0  0  0  0  0  0  0  0
    3.9459   -2.1161   -0.4489 C   0  0  0  0  0  0  0  0  0  0  0  0
    4.9959   -2.2957   -1.3537 C   0  0  0  0  0  0  0  0  0  0  0  0
    6.5583   -3.0314   -3.4251 H   0  0  0  0  0  0  0  0  0  0  0  0
    6.6332   -1.2627   -3.6140 H   0  0  0  0  0  0  0  0  0  0  0  0
    5.6156   -2.2494   -4.6956 H   0  0  0  0  0  0  0  0  0  0  0  0
    3.4581   -1.1972   -4.1865 H   0  0  0  0  0  0  0  0  0  0  0  0
    1.6027   -0.8974   -2.5974 H   0  0  0  0  0  0  0  0  0  0  0  0
    2.3416    0.8814    0.4225 H   0  0  0  0  0  0  0  0  0  0  0  0
    2.9598   -0.1686    1.6789 H   0  0  0  0  0  0  0  0  0  0  0  0
   -0.6547    1.4528    3.8301 H   0  0  0  0  0  0  0  0  0  0  0  0
   -0.8154    3.0472    3.1121 H   0  0  0  0  0  0  0  0  0  0  0  0
   -3.1514   -1.8950    0.8965 H   0  0  0  0  0  0  0  0  0  0  0  0
   -4.5581   -3.6303   -0.1643 H   0  0  0  0  0  0  0  0  0  0  0  0
   -6.9074   -3.1211   -0.7843 H   0  0  0  0  0  0  0  0  0  0  0  0
   -7.8431   -0.8505   -0.3595 H   0  0  0  0  0  0  0  0  0  0  0  0
   -6.4473    0.8962    0.6840 H   0  0  0  0  0  0  0  0  0  0  0  0
   -0.5619    3.3230    0.8729 H   0  0  0  0  0  0  0  0  0  0  0  0
    1.6110    4.0459    1.6976 H   0  0  0  0  0  0  0  0  0  0  0  0
    1.4730    4.2544   -0.0590 H   0  0  0  0  0  0  0  0  0  0  0  0
    2.4514    2.9435    0.6061 H   0  0  0  0  0  0  0  0  0  0  0  0
    0.8918    1.4438   -1.0128 H   0  0  0  0  0  0  0  0  0  0  0  0
   -0.8152    1.2582   -0.5652 H   0  0  0  0  0  0  0  0  0  0  0  0
   -0.2407    2.7331   -1.3610 H   0  0  0  0  0  0  0  0  0  0  0  0
    4.0918   -2.3830    0.5968 H   0  0  0  0  0  0  0  0  0  0  0  0
    5.9428   -2.6908   -0.9936 H   0  0  0  0  0  0  0  0  0  0  0  0
  1  2  1  0
  2  3  2  0
  3  4  1  0
  4  5  2  0
  5  6  1  0
  6  7  1  0
  7  8  1  0
  8  9  2  0
  8 10  1  0
 10 11  1  0
 11 12  1  0
 12 13  2  0
 13 14  1  0
 14 15  1  0
 15 16  2  0
 16 17  1  0
 17 18  2  0
 18 19  1  0
 19 20  2  0
 14 21  2  0
 21 22  1  0
 10 23  1  0
 23 24  1  0
 23 25  1  0
  5 26  1  0
 26 27  2  0
 27  2  1  0
 22 12  1  0
 20 15  1  0
  1 28  1  0
  1 29  1  0
  1 30  1  0
  3 31  1  0
  4 32  1  0
  7 33  1  0
  7 34  1  0
 11 35  1  0
 11 36  1  0
 16 37  1  0
 17 38  1  0
 18 39  1  0
 19 40  1  0
 20 41  1  0
 23 42  1  0
 24 43  1  0
 24 44  1  0
 24 45  1  0
 25 46  1  0
 25 47  1  0
 25 48  1  0
 26 49  1  0
 27 50  1  0
M  END
$$$$
