
     RDKit          3D

 36 39  0  0  0  0  0  0  0  0999 V2000
    5.5211   -1.0832   -0.9020 C   0  0  0  0  0  0  0  0  0  0  0  0
    4.5204   -0.0322   -0.5268 C   0  0  0  0  0  0  0  0  0  0  0  0
    4.9254    1.2651   -0.2338 C   0  0  0  0  0  0  0  0  0  0  0  0
    3.9601    2.1772    0.1437 C   0  0  0  0  0  0  0  0  0  0  0  0
    2.6466    1.8829    0.2460 N   0  0  0  0  0  0  0  0  0  0  0  0
    2.2354    0.6186   -0.0176 C   0  0  0  0  0  0  0  0  0  0  0  0
    0.8303    0.3336    0.0963 N   0  0  0  0  0  0  0  0  0  0  0  0
    0.1149    1.0426    1.0707 C   0  0  0  0  0  0  0  0  0  0  0  0
    0.5935    1.6845    2.0048 O   0  0  0  0  0  0  0  0  0  0  0  0
   -1.3630    0.9209    1.0512 C   0  0  0  0  0  0  0  0  0  0  0  0
   -2.1171    1.7289    1.9143 C   0  0  0  0  0  0  0  0  0  0  0  0
   -3.4987    1.6070    1.9586 C   0  0  0  0  0  0  0  0  0  0  0  0
   -4.1342    0.6719    1.1450 C   0  0  0  0  0  0  0  0  0  0  0  0
   -3.4030   -0.1579    0.2576 C   0  0  0  0  0  0  0  0  0  0  0  0
   -3.9796   -1.1383   -0.5920 C   0  0  0  0  0  0  0  0  0  0  0  0
   -5.4179   -1.3466   -0.6207 N   0  0  0  0  0  4  0  0  0  0  0  0
   -5.8269   -2.4694   -0.2987 O   0  0  0  0  0  0  0  0  0  0  0  0
   -6.1223   -0.3964   -0.9847 O   0  0  0  0  0  1  0  0  0  0  0  0
   -3.2134   -1.9508   -1.4334 C   0  0  0  0  0  0  0  0  0  0  0  0
   -1.8349   -1.7795   -1.4575 C   0  0  0  0  0  0  0  0  0  0  0  0
   -1.2237   -0.8127   -0.6400 C   0  0  0  0  0  0  0  0  0  0  0  0
   -1.9868   -0.0135    0.2199 C   0  0  0  0  0  0  0  0  0  0  0  0
    0.2460   -0.6220   -0.7393 C   0  0  0  0  0  0  0  0  0  0  0  0
    0.8250   -1.2983   -1.5881 O   0  0  0  0  0  0  0  0  0  0  0  0
    3.1615   -0.3551   -0.4024 C   0  0  0  0  0  0  0  0  0  0  0  0
    6.3925   -0.6372   -1.3929 H   0  0  0  0  0  0  0  0  0  0  0  0
    5.0857   -1.8020   -1.6042 H   0  0  0  0  0  0  0  0  0  0  0  0
    5.8556   -1.6181   -0.0079 H   0  0  0  0  0  0  0  0  0  0  0  0
    5.9663    1.5640   -0.2917 H   0  0  0  0  0  0  0  0  0  0  0  0
    4.2215    3.2035    0.3853 H   0  0  0  0  0  0  0  0  0  0  0  0
   -1.6249    2.4538    2.5621 H   0  0  0  0  0  0  0  0  0  0  0  0
   -4.0807    2.2345    2.6304 H   0  0  0  0  0  0  0  0  0  0  0  0
   -5.2198    0.6051    1.2177 H   0  0  0  0  0  0  0  0  0  0  0  0
   -3.6785   -2.7009   -2.0705 H   0  0  0  0  0  0  0  0  0  0  0  0
   -1.2351   -2.3979   -2.1254 H   0  0  0  0  0  0  0  0  0  0  0  0
    2.8589   -1.3820   -0.5795 H   0  0  0  0  0  0  0  0  0  0  0  0
  1  2  1  0
  2  3  2  0
  3  4  1  0
  4  5  2  0
  5  6  1  0
  6  7  1  0
  7  8  1  0
  8  9  2  0
  8 10  1  0
 10 11  2  0
 11 12  1  0
 12 13  2  0
 13 14  1  0
 14 15  2  0
 15 16  1  0
 16 17  2  0
 16 18  1  0
 15 19  1  0
 19 20  2  0
 20 21  1  0
 21 22  2  0
 21 23  1  0
 23 24  2  0
  6 25  2  0
 25  2  1  0
 23  7  1  0
 22 10  1  0
 22 14  1  0
  1 26  1  0
  1 27  1  0
  1 28  1  0
  3 29  1  0
  4 30  1  0
 11 31  1  0
 12 32  1  0
 13 33  1  0
 19 34  1  0
 20 35  1  0
 25 36  1  0
M  CHG  2  16   1  18  -1
M  END
$$$$
