
     RDKit          3D

 51 53  0  0  0  0  0  0  0  0999 V2000
    8.4946    1.6003   -1.0553 C   0  0  0  0  0  0  0  0  0  0  0  0
    7.6225    0.5332   -0.7286 O   0  0  0  0  0  0  0  0  0  0  0  0
    7.8071    0.0897    0.6141 C   0  0  0  0  0  0  0  0  0  0  0  0
    6.8186   -1.0326    0.9300 C   0  0  0  0  0  0  0  0  0  0  0  0
    5.4424   -0.5672    0.9139 N   0  0  0  0  0  0  0  0  0  0  0  0
    4.4339   -1.2120    0.2295 C   0  0  0  0  0  0  0  0  0  0  0  0
    4.6410   -2.2618   -0.3744 O   0  0  0  0  0  0  0  0  0  0  0  0
    3.1192   -0.5630    0.2807 C   0  0  0  0  0  0  0  0  0  0  0  0
    2.8684    0.8300    1.2510 S   0  0  0  0  0  0  0  0  0  0  0  0
    1.2359    0.9511    0.8094 C   0  0  0  0  0  0  0  0  0  0  0  0
    0.4536    1.9405    1.3110 N   0  0  0  0  0  0  0  0  0  0  0  0
   -0.7685    1.9153    0.8886 C   0  0  0  0  0  0  0  0  0  0  0  0
   -1.2869    1.0114   -0.0170 N   0  0  0  0  0  0  0  0  0  0  0  0
   -2.6905    1.0868   -0.3944 C   0  0  0  0  0  0  0  0  0  0  0  0
   -3.5535    0.2704    0.5771 C   0  0  0  0  0  0  0  0  0  0  0  0
   -3.0720   -0.1852    1.6162 O   0  0  0  0  0  0  0  0  0  0  0  0
   -4.9135    0.1309    0.2684 N   0  0  0  0  0  0  0  0  0  0  0  0
   -5.4499    0.3889   -1.0700 C   0  0  0  0  0  0  0  0  0  0  0  0
   -6.9395    0.7171   -1.0509 C   0  0  0  0  0  0  0  0  0  0  0  0
   -7.7317   -0.3345   -0.2871 C   0  0  0  0  0  0  0  0  0  0  0  0
   -7.1714   -0.4799    1.1214 C   0  0  0  0  0  0  0  0  0  0  0  0
   -5.6807   -0.7987    1.0971 C   0  0  0  0  0  0  0  0  0  0  0  0
   -0.5227   -0.0365   -0.5252 C   0  0  0  0  0  0  0  0  0  0  0  0
   -0.9772   -0.8655   -1.3066 O   0  0  0  0  0  0  0  0  0  0  0  0
    0.8626   -0.0430   -0.0685 C   0  0  0  0  0  0  0  0  0  0  0  0
    1.9530   -0.9390   -0.3861 C   0  0  0  0  0  0  0  0  0  0  0  0
    1.8712   -2.1205   -1.3067 C   0  0  0  0  0  0  0  0  0  0  0  0
    8.3066    1.8945   -2.0881 H   0  0  0  0  0  0  0  0  0  0  0  0
    9.5385    1.2835   -0.9597 H   0  0  0  0  0  0  0  0  0  0  0  0
    8.3022    2.4593   -0.4115 H   0  0  0  0  0  0  0  0  0  0  0  0
    8.8306   -0.2825    0.7310 H   0  0  0  0  0  0  0  0  0  0  0  0
    7.6513    0.9296    1.2991 H   0  0  0  0  0  0  0  0  0  0  0  0
    7.0075   -1.4133    1.9364 H   0  0  0  0  0  0  0  0  0  0  0  0
    6.9438   -1.8525    0.2179 H   0  0  0  0  0  0  0  0  0  0  0  0
    5.2061    0.2896    1.3958 H   0  0  0  0  0  0  0  0  0  0  0  0
   -1.4887    2.6678    1.2492 H   0  0  0  0  0  0  0  0  0  0  0  0
   -2.8078    0.7016   -1.4124 H   0  0  0  0  0  0  0  0  0  0  0  0
   -3.0216    2.1304   -0.3531 H   0  0  0  0  0  0  0  0  0  0  0  0
   -4.9197    1.2210   -1.5378 H   0  0  0  0  0  0  0  0  0  0  0  0
   -5.2605   -0.5048   -1.6740 H   0  0  0  0  0  0  0  0  0  0  0  0
   -7.3177    0.8009   -2.0759 H   0  0  0  0  0  0  0  0  0  0  0  0
   -7.0859    1.6915   -0.5706 H   0  0  0  0  0  0  0  0  0  0  0  0
   -7.6781   -1.2949   -0.8105 H   0  0  0  0  0  0  0  0  0  0  0  0
   -8.7875   -0.0477   -0.2416 H   0  0  0  0  0  0  0  0  0  0  0  0
   -7.7114   -1.2663    1.6585 H   0  0  0  0  0  0  0  0  0  0  0  0
   -7.3314    0.4548    1.6709 H   0  0  0  0  0  0  0  0  0  0  0  0
   -5.5129   -1.8023    0.6954 H   0  0  0  0  0  0  0  0  0  0  0  0
   -5.3006   -0.7915    2.1228 H   0  0  0  0  0  0  0  0  0  0  0  0
    2.5954   -2.0114   -2.1210 H   0  0  0  0  0  0  0  0  0  0  0  0
    2.0891   -3.0449   -0.7586 H   0  0  0  0  0  0  0  0  0  0  0  0
    0.8868   -2.2383   -1.7651 H   0  0  0  0  0  0  0  0  0  0  0  0
  1  2  1  0
  2  3  1  0
  3  4  1  0
  4  5  1  0
  5  6  1  0
  6  7  2  0
  6  8  1  0
  8  9  1  0
  9 10  1  0
 10 11  1  0
 11 12  2  0
 12 13  1  0
 13 14  1  0
 14 15  1  0
 15 16  2  0
 15 17  1  0
 17 18  1  0
 18 19  1  0
 19 20  1  0
 20 21  1  0
 21 22  1  0
 13 23  1  0
 23 24  2  0
 23 25  1  0
 25 26  1  0
 26 27  1  0
 26  8  2  0
 25 10  2  0
 22 17  1  0
  1 28  1  0
  1 29  1  0
  1 30  1  0
  3 31  1  0
  3 32  1  0
  4 33  1  0
  4 34  1  0
  5 35  1  0
 12 36  1  0
 14 37  1  0
 14 38  1  0
 18 39  1  0
 18 40  1  0
 19 41  1  0
 19 42  1  0
 20 43  1  0
 20 44  1  0
 21 45  1  0
 21 46  1  0
 22 47  1  0
 22 48  1  0
 27 49  1  0
 27 50  1  0
 27 51  1  0
M  END
$$$$
