
     RDKit          3D

 53 57  0  0  0  0  0  0  0  0999 V2000
    8.0011    1.7236    0.9959 C   0  0  0  0  0  0  0  0  0  0  0  0
    7.4638    0.8128    0.0456 O   0  0  0  0  0  0  0  0  0  0  0  0
    6.1036    0.6899    0.0097 C   0  0  0  0  0  0  0  0  0  0  0  0
    5.1926    1.3868    0.7964 C   0  0  0  0  0  0  0  0  0  0  0  0
    3.8132    1.1627    0.6581 C   0  0  0  0  0  0  0  0  0  0  0  0
    3.3176    0.2371   -0.2696 C   0  0  0  0  0  0  0  0  0  0  0  0
    1.9056   -0.0007   -0.4213 N   0  0  0  0  0  0  0  0  0  0  0  0
    1.3379   -0.7732   -1.4234 C   0  0  0  0  0  0  0  0  0  0  0  0
   -0.0326   -0.7864   -1.2832 C   0  0  0  0  0  0  0  0  0  0  0  0
   -0.8906   -1.4877   -2.2162 C   0  0  0  0  0  0  0  0  0  0  0  0
   -0.8748   -2.8866   -2.2747 C   0  0  0  0  0  0  0  0  0  0  0  0
   -1.7169   -3.5593   -3.1619 C   0  0  0  0  0  0  0  0  0  0  0  0
   -2.5741   -2.8376   -3.9930 C   0  0  0  0  0  0  0  0  0  0  0  0
   -2.5915   -1.4430   -3.9394 C   0  0  0  0  0  0  0  0  0  0  0  0
   -1.7512   -0.7673   -3.0534 C   0  0  0  0  0  0  0  0  0  0  0  0
   -0.3535   -0.0056   -0.1390 C   0  0  0  0  0  0  0  0  0  0  0  0
   -1.5418    0.3503    0.5417 C   0  0  0  0  0  0  0  0  0  0  0  0
   -2.8088   -0.1094    0.1147 N   0  0  0  0  0  0  0  0  0  0  0  0
   -3.9945   -0.0113    0.8673 N   0  0  0  0  0  0  0  0  0  0  0  0
   -4.5223    1.3588    0.9056 C   0  0  0  0  0  0  0  0  0  0  0  0
   -5.7268    1.4177    1.8569 C   0  0  0  0  0  0  0  0  0  0  0  0
   -5.4308    1.0448    3.2110 O   0  0  0  0  0  0  0  0  0  0  0  0
   -4.1848    0.3478    3.3457 C   0  0  0  0  0  0  0  0  0  0  0  0
   -3.9211   -0.6386    2.1972 C   0  0  0  0  0  0  0  0  0  0  0  0
   -1.4268    1.1491    1.6328 N   0  0  0  0  0  0  0  0  0  0  0  0
   -0.2111    1.5507    2.0226 C   0  0  0  0  0  0  0  0  0  0  0  0
    0.9652    1.2577    1.4632 N   0  0  0  0  0  0  0  0  0  0  0  0
    0.8536    0.4759    0.3705 C   0  0  0  0  0  0  0  0  0  0  0  0
    4.2466   -0.4581   -1.0600 C   0  0  0  0  0  0  0  0  0  0  0  0
    5.6218   -0.2305   -0.9179 C   0  0  0  0  0  0  0  0  0  0  0  0
    9.0916    1.6903    0.9109 H   0  0  0  0  0  0  0  0  0  0  0  0
    7.7379    1.4303    2.0176 H   0  0  0  0  0  0  0  0  0  0  0  0
    7.6813    2.7493    0.7833 H   0  0  0  0  0  0  0  0  0  0  0  0
    5.5137    2.1195    1.5298 H   0  0  0  0  0  0  0  0  0  0  0  0
    3.1626    1.7543    1.2926 H   0  0  0  0  0  0  0  0  0  0  0  0
    1.9389   -1.2372   -2.1914 H   0  0  0  0  0  0  0  0  0  0  0  0
   -0.2145   -3.4609   -1.6281 H   0  0  0  0  0  0  0  0  0  0  0  0
   -1.7052   -4.6467   -3.2049 H   0  0  0  0  0  0  0  0  0  0  0  0
   -3.2291   -3.3628   -4.6839 H   0  0  0  0  0  0  0  0  0  0  0  0
   -3.2589   -0.8813   -4.5886 H   0  0  0  0  0  0  0  0  0  0  0  0
   -1.7739    0.3208   -3.0215 H   0  0  0  0  0  0  0  0  0  0  0  0
   -2.7513   -0.9077   -0.5146 H   0  0  0  0  0  0  0  0  0  0  0  0
   -3.7705    2.0791    1.2470 H   0  0  0  0  0  0  0  0  0  0  0  0
   -4.8390    1.6610   -0.0988 H   0  0  0  0  0  0  0  0  0  0  0  0
   -6.1368    2.4327    1.8788 H   0  0  0  0  0  0  0  0  0  0  0  0
   -6.5265    0.7568    1.5015 H   0  0  0  0  0  0  0  0  0  0  0  0
   -4.2176   -0.1929    4.2971 H   0  0  0  0  0  0  0  0  0  0  0  0
   -3.3854    1.0914    3.4308 H   0  0  0  0  0  0  0  0  0  0  0  0
   -2.9752   -1.1661    2.3682 H   0  0  0  0  0  0  0  0  0  0  0  0
   -4.7069   -1.4033    2.2216 H   0  0  0  0  0  0  0  0  0  0  0  0
   -0.1798    2.1885    2.9007 H   0  0  0  0  0  0  0  0  0  0  0  0
    3.9524   -1.2027   -1.7919 H   0  0  0  0  0  0  0  0  0  0  0  0
    6.3239   -0.7826   -1.5383 H   0  0  0  0  0  0  0  0  0  0  0  0
  1  2  1  0
  2  3  1  0
  3  4  2  0
  4  5  1  0
  5  6  2  0
  6  7  1  0
  7  8  1  0
  8  9  2  0
  9 10  1  0
 10 11  2  0
 11 12  1  0
 12 13  2  0
 13 14  1  0
 14 15  2  0
  9 16  1  0
 16 17  2  0
 17 18  1  0
 18 19  1  0
 19 20  1  0
 20 21  1  0
 21 22  1  0
 22 23  1  0
 23 24  1  0
 17 25  1  0
 25 26  2  0
 26 27  1  0
 27 28  2  0
  6 29  1  0
 29 30  2  0
 30  3  1  0
 28  7  1  0
 15 10  1  0
 28 16  1  0
 24 19  1  0
  1 31  1  0
  1 32  1  0
  1 33  1  0
  4 34  1  0
  5 35  1  0
  8 36  1  0
 11 37  1  0
 12 38  1  0
 13 39  1  0
 14 40  1  0
 15 41  1  0
 18 42  1  0
 20 43  1  0
 20 44  1  0
 21 45  1  0
 21 46  1  0
 23 47  1  0
 23 48  1  0
 24 49  1  0
 24 50  1  0
 26 51  1  0
 29 52  1  0
 30 53  1  0
M  END
$$$$
