
     RDKit          3D

 50 53  0  0  0  0  0  0  0  0999 V2000
    1.2413   -3.2002   -0.3830 O   0  0  0  0  0  0  0  0  0  0  0  0
    0.6235   -2.1536   -0.3488 C   0  0  0  0  0  0  0  0  0  0  0  0
   -0.8965   -2.0666   -0.3546 C   0  0  0  0  0  0  0  0  0  0  0  0
   -1.6412   -3.0224   -0.3451 O   0  0  0  0  0  0  0  0  0  0  0  0
   -1.2098   -0.7184   -0.3685 N   0  0  0  0  0  0  0  0  0  0  0  0
   -2.5504   -0.2840   -0.7616 C   0  0  0  0  0  0  0  0  0  0  0  0
   -3.4335    0.1723    0.4133 C   0  0  0  0  0  0  0  0  0  0  0  0
   -3.7833   -0.9222    1.4109 C   0  0  0  0  0  0  0  0  0  0  0  0
   -5.0342   -1.5193    0.8182 C   0  0  0  0  0  0  0  0  0  0  0  0
   -5.7221   -0.2991    0.2475 C   0  0  0  0  0  0  0  0  0  0  0  0
   -4.6929    0.6316   -0.1216 O   0  0  0  0  0  0  0  0  0  0  0  0
   -0.0189    0.0707   -0.6808 C   0  0  0  0  0  0  0  0  0  0  0  0
   -0.0344    1.4477   -0.0347 C   0  0  0  0  0  0  0  0  0  0  0  0
   -0.1753    1.5481    1.3663 C   0  0  0  0  0  0  0  0  0  0  0  0
   -0.1408    2.7849    2.0179 C   0  0  0  0  0  0  0  0  0  0  0  0
    0.0381    3.9579    1.2909 C   0  0  0  0  0  0  0  0  0  0  0  0
    0.1717    3.8989   -0.0934 C   0  0  0  0  0  0  0  0  0  0  0  0
    0.1296    2.6554   -0.7473 C   0  0  0  0  0  0  0  0  0  0  0  0
    0.2277    2.6918   -2.2039 N   0  0  0  0  0  4  0  0  0  0  0  0
    1.1645    3.3382   -2.6904 O   0  0  0  0  0  0  0  0  0  0  0  0
   -0.6653    2.1214   -2.8440 O   0  0  0  0  0  1  0  0  0  0  0  0
    1.1909   -0.7793   -0.2098 C   0  0  0  0  0  0  0  0  0  0  0  0
    2.4196   -0.5141   -1.0400 C   0  0  0  0  0  0  0  0  0  0  0  0
    2.3486    0.1494   -2.0739 O   0  0  0  0  0  0  0  0  0  0  0  0
    3.7587   -1.0077   -0.5879 C   0  0  0  0  0  0  0  0  0  0  0  0
    4.8823   -0.6453   -1.3467 C   0  0  0  0  0  0  0  0  0  0  0  0
    6.1609   -1.0582   -0.9669 C   0  0  0  0  0  0  0  0  0  0  0  0
    6.3290   -1.8378    0.1742 C   0  0  0  0  0  0  0  0  0  0  0  0
    5.2203   -2.2054    0.9341 C   0  0  0  0  0  0  0  0  0  0  0  0
    3.9383   -1.7917    0.5580 C   0  0  0  0  0  0  0  0  0  0  0  0
   -3.0456   -1.0963   -1.3079 H   0  0  0  0  0  0  0  0  0  0  0  0
   -2.4592    0.5330   -1.4864 H   0  0  0  0  0  0  0  0  0  0  0  0
   -2.9599    1.0155    0.9244 H   0  0  0  0  0  0  0  0  0  0  0  0
   -4.0312   -0.4648    2.3772 H   0  0  0  0  0  0  0  0  0  0  0  0
   -2.9901   -1.6508    1.5886 H   0  0  0  0  0  0  0  0  0  0  0  0
   -4.7741   -2.2172    0.0141 H   0  0  0  0  0  0  0  0  0  0  0  0
   -5.6520   -2.0539    1.5445 H   0  0  0  0  0  0  0  0  0  0  0  0
   -6.3367   -0.5334   -0.6261 H   0  0  0  0  0  0  0  0  0  0  0  0
   -6.3543    0.1863    0.9986 H   0  0  0  0  0  0  0  0  0  0  0  0
   -0.0113    0.1318   -1.7726 H   0  0  0  0  0  0  0  0  0  0  0  0
   -0.3245    0.6555    1.9733 H   0  0  0  0  0  0  0  0  0  0  0  0
   -0.2554    2.8321    3.0994 H   0  0  0  0  0  0  0  0  0  0  0  0
    0.0653    4.9181    1.8014 H   0  0  0  0  0  0  0  0  0  0  0  0
    0.3001    4.8216   -0.6574 H   0  0  0  0  0  0  0  0  0  0  0  0
    1.4062   -0.6030    0.8492 H   0  0  0  0  0  0  0  0  0  0  0  0
    4.7707   -0.0369   -2.2433 H   0  0  0  0  0  0  0  0  0  0  0  0
    7.0230   -0.7731   -1.5651 H   0  0  0  0  0  0  0  0  0  0  0  0
    7.3236   -2.1651    0.4677 H   0  0  0  0  0  0  0  0  0  0  0  0
    5.3530   -2.8246    1.8186 H   0  0  0  0  0  0  0  0  0  0  0  0
    3.1060   -2.1178    1.1732 H   0  0  0  0  0  0  0  0  0  0  0  0
  1  2  2  0
  2  3  1  0
  3  4  2  0
  3  5  1  0
  5  6  1  0
  6  7  1  0
  7  8  1  0
  8  9  1  0
  9 10  1  0
 10 11  1  0
  5 12  1  0
 12 13  1  0
 13 14  2  0
 14 15  1  0
 15 16  2  0
 16 17  1  0
 17 18  2  0
 18 19  1  0
 19 20  2  0
 19 21  1  0
 12 22  1  0
 22 23  1  0
 23 24  2  0
 23 25  1  0
 25 26  2  0
 26 27  1  0
 27 28  2  0
 28 29  1  0
 29 30  2  0
 22  2  1  0
 30 25  1  0
 11  7  1  0
 18 13  1  0
  6 31  1  0
  6 32  1  0
  7 33  1  0
  8 34  1  0
  8 35  1  0
  9 36  1  0
  9 37  1  0
 10 38  1  0
 10 39  1  0
 12 40  1  0
 14 41  1  0
 15 42  1  0
 16 43  1  0
 17 44  1  0
 22 45  1  0
 26 46  1  0
 27 47  1  0
 28 48  1  0
 29 49  1  0
 30 50  1  0
M  CHG  2  19   1  21  -1
M  END
$$$$
