
     RDKit          3D

 71 75  0  0  0  0  0  0  0  0999 V2000
   -3.8458    5.4320   -1.7446 C   0  0  0  0  0  0  0  0  0  0  0  0
   -3.3923    4.1816   -2.2475 O   0  0  0  0  0  0  0  0  0  0  0  0
   -2.8031    3.3342   -1.3495 C   0  0  0  0  0  0  0  0  0  0  0  0
   -2.3289    2.1404   -1.8958 C   0  0  0  0  0  0  0  0  0  0  0  0
   -1.6985    1.1870   -1.0922 C   0  0  0  0  0  0  0  0  0  0  0  0
   -1.5307    1.4135    0.2820 C   0  0  0  0  0  0  0  0  0  0  0  0
   -0.8385    0.3902    1.1884 C   0  0  0  0  0  0  0  0  0  0  0  0
   -1.8575   -0.5863    1.8440 C   0  0  0  0  0  0  0  0  0  0  0  0
   -2.9736   -1.1354    0.9355 C   0  0  0  0  0  0  0  0  0  0  0  0
   -3.9483   -1.9662    1.6751 N   0  0  0  0  0  0  0  0  0  0  0  0
   -5.1539   -2.1888    0.8424 C   0  0  0  0  0  0  0  0  0  0  0  0
   -6.1719   -3.0969    1.5496 C   0  0  0  0  0  0  0  0  0  0  0  0
   -5.5909   -4.3631    1.8888 O   0  0  0  0  0  0  0  0  0  0  0  0
   -4.4519   -4.1639    2.7355 C   0  0  0  0  0  0  0  0  0  0  0  0
   -3.3939   -3.2831    2.0493 C   0  0  0  0  0  0  0  0  0  0  0  0
    0.4786   -0.1311    0.5862 C   0  0  0  0  0  0  0  0  0  0  0  0
    0.7186   -1.4411    0.1643 C   0  0  0  0  0  0  0  0  0  0  0  0
   -0.2536   -2.3928    0.3145 O   0  0  0  0  0  0  0  0  0  0  0  0
    0.2228   -3.6047    0.9022 C   0  0  0  0  0  0  0  0  0  0  0  0
    1.9283   -1.7768   -0.4678 C   0  0  0  0  0  0  0  0  0  0  0  0
    2.9527   -0.8384   -0.6510 C   0  0  0  0  0  0  0  0  0  0  0  0
    4.1491   -1.1497   -1.2406 O   0  0  0  0  0  0  0  0  0  0  0  0
    4.2863   -2.4045   -1.8919 C   0  0  0  0  0  0  0  0  0  0  0  0
    2.7764    0.4802   -0.1958 C   0  0  0  0  0  0  0  0  0  0  0  0
    3.7860    1.5598   -0.3408 C   0  0  0  0  0  0  0  0  0  0  0  0
    5.0959    1.4776   -1.0220 C   0  0  0  0  0  0  0  0  0  0  0  0
    5.1779    1.6577   -2.4100 C   0  0  0  0  0  0  0  0  0  0  0  0
    6.4154    1.6079   -3.0542 C   0  0  0  0  0  0  0  0  0  0  0  0
    7.5772    1.3822   -2.3160 C   0  0  0  0  0  0  0  0  0  0  0  0
    7.5044    1.2026   -0.9345 C   0  0  0  0  0  0  0  0  0  0  0  0
    6.2681    1.2516   -0.2873 C   0  0  0  0  0  0  0  0  0  0  0  0
    3.5122    2.7773    0.1549 C   0  0  0  0  0  0  0  0  0  0  0  0
    2.2636    3.1103    0.8387 C   0  0  0  0  0  0  0  0  0  0  0  0
    2.0725    4.2281    1.3034 O   0  0  0  0  0  0  0  0  0  0  0  0
    1.3317    2.1003    0.9247 O   0  0  0  0  0  0  0  0  0  0  0  0
    1.5494    0.7904    0.4160 C   0  0  0  0  0  0  0  0  0  0  0  0
   -2.0213    2.6101    0.8260 C   0  0  0  0  0  0  0  0  0  0  0  0
   -2.6489    3.5642    0.0166 C   0  0  0  0  0  0  0  0  0  0  0  0
   -3.0173    6.0176   -1.3323 H   0  0  0  0  0  0  0  0  0  0  0  0
   -4.2662    5.9963   -2.5825 H   0  0  0  0  0  0  0  0  0  0  0  0
   -4.6409    5.2943   -1.0045 H   0  0  0  0  0  0  0  0  0  0  0  0
   -2.4488    1.9514   -2.9597 H   0  0  0  0  0  0  0  0  0  0  0  0
   -1.3418    0.2679   -1.5511 H   0  0  0  0  0  0  0  0  0  0  0  0
   -0.4796    0.9527    2.0667 H   0  0  0  0  0  0  0  0  0  0  0  0
   -2.3635   -0.0296    2.6480 H   0  0  0  0  0  0  0  0  0  0  0  0
   -1.3147   -1.3901    2.3522 H   0  0  0  0  0  0  0  0  0  0  0  0
   -2.5706   -1.6771    0.0737 H   0  0  0  0  0  0  0  0  0  0  0  0
   -3.5285   -0.2787    0.5366 H   0  0  0  0  0  0  0  0  0  0  0  0
   -4.8675   -2.6518   -0.1113 H   0  0  0  0  0  0  0  0  0  0  0  0
   -5.6382   -1.2304    0.6226 H   0  0  0  0  0  0  0  0  0  0  0  0
   -7.0194   -3.2904    0.8835 H   0  0  0  0  0  0  0  0  0  0  0  0
   -6.5649   -2.6232    2.4578 H   0  0  0  0  0  0  0  0  0  0  0  0
   -4.7784   -3.7265    3.6867 H   0  0  0  0  0  0  0  0  0  0  0  0
   -4.0273   -5.1490    2.9520 H   0  0  0  0  0  0  0  0  0  0  0  0
   -2.5542   -3.1657    2.7413 H   0  0  0  0  0  0  0  0  0  0  0  0
   -3.0322   -3.8026    1.1524 H   0  0  0  0  0  0  0  0  0  0  0  0
    0.6895   -4.2461    0.1499 H   0  0  0  0  0  0  0  0  0  0  0  0
   -0.6371   -4.1450    1.3054 H   0  0  0  0  0  0  0  0  0  0  0  0
    0.9122   -3.4110    1.7310 H   0  0  0  0  0  0  0  0  0  0  0  0
    2.0516   -2.7906   -0.8312 H   0  0  0  0  0  0  0  0  0  0  0  0
    5.2582   -2.4153   -2.3943 H   0  0  0  0  0  0  0  0  0  0  0  0
    3.5156   -2.5448   -2.6576 H   0  0  0  0  0  0  0  0  0  0  0  0
    4.2780   -3.2238   -1.1654 H   0  0  0  0  0  0  0  0  0  0  0  0
    4.2774    1.8308   -2.9947 H   0  0  0  0  0  0  0  0  0  0  0  0
    6.4725    1.7470   -4.1305 H   0  0  0  0  0  0  0  0  0  0  0  0
    8.5403    1.3445   -2.8184 H   0  0  0  0  0  0  0  0  0  0  0  0
    8.4105    1.0243   -0.3605 H   0  0  0  0  0  0  0  0  0  0  0  0
    6.2227    1.1076    0.7897 H   0  0  0  0  0  0  0  0  0  0  0  0
    4.2058    3.6078    0.0723 H   0  0  0  0  0  0  0  0  0  0  0  0
   -1.9062    2.8170    1.8883 H   0  0  0  0  0  0  0  0  0  0  0  0
   -3.0005    4.4757    0.4876 H   0  0  0  0  0  0  0  0  0  0  0  0
  1  2  1  0
  2  3  1  0
  3  4  2  0
  4  5  1  0
  5  6  2  0
  6  7  1  0
  7  8  1  0
  8  9  1  0
  9 10  1  0
 10 11  1  0
 11 12  1  0
 12 13  1  0
 13 14  1  0
 14 15  1  0
  7 16  1  0
 16 17  2  0
 17 18  1  0
 18 19  1  0
 17 20  1  0
 20 21  2  0
 21 22  1  0
 22 23  1  0
 21 24  1  0
 24 25  1  0
 25 26  1  0
 26 27  2  0
 27 28  1  0
 28 29  2  0
 29 30  1  0
 30 31  2  0
 25 32  2  0
 32 33  1  0
 33 34  2  0
 33 35  1  0
 35 36  1  0
  6 37  1  0
 37 38  2  0
 38  3  1  0
 15 10  1  0
 36 16  1  0
 36 24  2  0
 31 26  1  0
  1 39  1  0
  1 40  1  0
  1 41  1  0
  4 42  1  0
  5 43  1  0
  7 44  1  0
  8 45  1  0
  8 46  1  0
  9 47  1  0
  9 48  1  0
 11 49  1  0
 11 50  1  0
 12 51  1  0
 12 52  1  0
 14 53  1  0
 14 54  1  0
 15 55  1  0
 15 56  1  0
 19 57  1  0
 19 58  1  0
 19 59  1  0
 20 60  1  0
 23 61  1  0
 23 62  1  0
 23 63  1  0
 27 64  1  0
 28 65  1  0
 29 66  1  0
 30 67  1  0
 31 68  1  0
 32 69  1  0
 37 70  1  0
 38 71  1  0
M  END
$$$$
