
     RDKit          3D

 54 57  0  0  0  0  0  0  0  0999 V2000
   -3.4840   -0.1658    4.2635 C   0  0  0  0  0  0  0  0  0  0  0  0
   -3.8488    0.6581    3.0219 C   0  0  0  0  0  0  0  0  0  0  0  0
   -5.3809    0.7170    2.8365 C   0  0  0  0  0  0  0  0  0  0  0  0
   -5.8909   -0.2990    1.8227 C   0  0  0  0  0  0  0  0  0  0  0  0
   -5.2811   -0.0824    0.4370 C   0  0  0  0  0  0  0  0  0  0  0  0
   -3.8917    0.5606    0.4715 C   0  0  0  0  0  0  0  0  0  0  0  0
   -3.1128    0.1926    1.7398 C   0  0  0  0  0  0  0  0  0  0  0  0
   -2.7616   -1.2152    1.7272 N   0  0  0  0  0  0  0  0  0  0  0  0
   -1.4231   -1.4170    1.4813 C   0  0  0  0  0  0  0  0  0  0  0  0
   -0.9171   -2.5120    1.3028 O   0  0  0  0  0  0  0  0  0  0  0  0
   -0.7987   -0.2113    1.4830 N   0  0  0  0  0  0  0  0  0  0  0  0
    0.6004   -0.0250    1.1906 C   0  0  0  0  0  0  0  0  0  0  0  0
    0.7928    0.0892   -0.3229 C   0  0  0  0  0  0  0  0  0  0  0  0
   -0.1339    0.1774   -1.1247 O   0  0  0  0  0  0  0  0  0  0  0  0
    2.1180    0.1106   -0.7054 N   0  0  0  0  0  0  0  0  0  0  0  0
    2.5164    0.1619   -2.1051 C   0  0  0  0  0  0  0  0  0  0  0  0
    2.3876   -1.2186   -2.7690 C   0  0  0  0  0  0  0  0  0  0  0  0
    3.5101   -2.1498   -2.3217 C   0  0  0  0  0  0  0  0  0  0  0  0
    4.8674   -1.5927   -2.7425 C   0  0  0  0  0  0  0  0  0  0  0  0
    5.0339   -0.1230   -2.4425 C   0  0  0  0  0  0  0  0  0  0  0  0
    6.3218    0.4336   -2.4827 C   0  0  0  0  0  0  0  0  0  0  0  0
    6.5169    1.7956   -2.2545 C   0  0  0  0  0  0  0  0  0  0  0  0
    5.4272    2.6197   -1.9915 C   0  0  0  0  0  0  0  0  0  0  0  0
    4.1414    2.0819   -1.9579 C   0  0  0  0  0  0  0  0  0  0  0  0
    3.9281    0.7114   -2.1891 C   0  0  0  0  0  0  0  0  0  0  0  0
   -1.6978    0.8031    1.6497 C   0  0  0  0  0  0  0  0  0  0  0  0
   -1.4340    1.9978    1.6919 O   0  0  0  0  0  0  0  0  0  0  0  0
   -3.8530   -1.1943    4.1894 H   0  0  0  0  0  0  0  0  0  0  0  0
   -2.3995   -0.1947    4.4132 H   0  0  0  0  0  0  0  0  0  0  0  0
   -3.9265    0.2792    5.1618 H   0  0  0  0  0  0  0  0  0  0  0  0
   -3.5360    1.6878    3.2472 H   0  0  0  0  0  0  0  0  0  0  0  0
   -5.8959    0.5792    3.7945 H   0  0  0  0  0  0  0  0  0  0  0  0
   -5.6555    1.7216    2.4872 H   0  0  0  0  0  0  0  0  0  0  0  0
   -6.9834   -0.2450    1.7518 H   0  0  0  0  0  0  0  0  0  0  0  0
   -5.6565   -1.3110    2.1747 H   0  0  0  0  0  0  0  0  0  0  0  0
   -5.2329   -1.0477   -0.0816 H   0  0  0  0  0  0  0  0  0  0  0  0
   -5.9443    0.5518   -0.1641 H   0  0  0  0  0  0  0  0  0  0  0  0
   -3.3407    0.2805   -0.4359 H   0  0  0  0  0  0  0  0  0  0  0  0
   -4.0054    1.6524    0.4237 H   0  0  0  0  0  0  0  0  0  0  0  0
   -3.4105   -1.9874    1.6490 H   0  0  0  0  0  0  0  0  0  0  0  0
    0.9584    0.8967    1.6600 H   0  0  0  0  0  0  0  0  0  0  0  0
    1.1685   -0.8848    1.5601 H   0  0  0  0  0  0  0  0  0  0  0  0
    2.8446   -0.0662   -0.0236 H   0  0  0  0  0  0  0  0  0  0  0  0
    1.8344    0.8460   -2.6268 H   0  0  0  0  0  0  0  0  0  0  0  0
    1.4175   -1.6740   -2.5389 H   0  0  0  0  0  0  0  0  0  0  0  0
    2.4340   -1.1044   -3.8601 H   0  0  0  0  0  0  0  0  0  0  0  0
    3.3708   -3.1443   -2.7604 H   0  0  0  0  0  0  0  0  0  0  0  0
    3.4789   -2.2764   -1.2324 H   0  0  0  0  0  0  0  0  0  0  0  0
    5.6545   -2.1674   -2.2396 H   0  0  0  0  0  0  0  0  0  0  0  0
    4.9952   -1.7332   -3.8234 H   0  0  0  0  0  0  0  0  0  0  0  0
    7.1834   -0.1953   -2.6978 H   0  0  0  0  0  0  0  0  0  0  0  0
    7.5197    2.2137   -2.2874 H   0  0  0  0  0  0  0  0  0  0  0  0
    5.5773    3.6816   -1.8146 H   0  0  0  0  0  0  0  0  0  0  0  0
    3.2970    2.7367   -1.7487 H   0  0  0  0  0  0  0  0  0  0  0  0
  1  2  1  0
  2  3  1  0
  3  4  1  0
  4  5  1  0
  5  6  1  0
  6  7  1  0
  7  8  1  0
  8  9  1  0
  9 10  2  0
  9 11  1  0
 11 12  1  0
 12 13  1  0
 13 14  2  0
 13 15  1  0
 15 16  1  0
 16 17  1  0
 17 18  1  0
 18 19  1  0
 19 20  1  0
 20 21  2  0
 21 22  1  0
 22 23  2  0
 23 24  1  0
 24 25  2  0
 11 26  1  0
 26 27  2  0
  7  2  1  0
 25 16  1  0
 26  7  1  0
 25 20  1  0
  1 28  1  0
  1 29  1  0
  1 30  1  0
  2 31  1  0
  3 32  1  0
  3 33  1  0
  4 34  1  0
  4 35  1  0
  5 36  1  0
  5 37  1  0
  6 38  1  0
  6 39  1  0
  8 40  1  0
 12 41  1  0
 12 42  1  0
 15 43  1  0
 16 44  1  0
 17 45  1  0
 17 46  1  0
 18 47  1  0
 18 48  1  0
 19 49  1  0
 19 50  1  0
 21 51  1  0
 22 52  1  0
 23 53  1  0
 24 54  1  0
M  END
$$$$
