
     RDKit          3D

 39 40  0  0  0  0  0  0  0  0999 V2000
   -3.0739    0.7947   -2.9432 C   0  0  0  0  0  0  0  0  0  0  0  0
   -2.5158   -0.1095   -1.8546 C   0  0  0  0  0  0  0  0  0  0  0  0
   -2.5337    0.5451   -0.5437 N   0  0  0  0  0  0  0  0  0  0  0  0
   -3.7229    0.3266    0.2879 C   0  0  0  0  0  0  0  0  0  0  0  0
   -3.7376   -1.0481    0.9413 C   0  0  0  0  0  0  0  0  0  0  0  0
   -1.4469    1.3423   -0.2051 C   0  0  0  0  0  0  0  0  0  0  0  0
   -0.4788    1.4807   -0.9659 O   0  0  0  0  0  0  0  0  0  0  0  0
   -1.4274    2.0814    1.1224 C   0  0  0  0  0  0  0  0  0  0  0  0
   -0.9524    1.0502    2.5270 S   0  0  0  0  0  0  0  0  0  0  0  0
    0.2239   -0.0428    1.8804 C   0  0  0  0  0  0  0  0  0  0  0  0
    0.1376   -1.3509    1.9600 N   0  0  0  0  0  0  0  0  0  0  0  0
    1.2628   -1.8810    1.3732 N   0  0  0  0  0  0  0  0  0  0  0  0
    2.0407   -0.8858    0.9812 C   0  0  0  0  0  0  0  0  0  0  0  0
    3.3394   -1.0366    0.3337 C   0  0  0  0  0  0  0  0  0  0  0  0
    4.4737   -0.3713    0.8044 C   0  0  0  0  0  0  0  0  0  0  0  0
    5.6751   -0.5700    0.1447 C   0  0  0  0  0  0  0  0  0  0  0  0
    5.8156   -1.3734   -0.9298 N   0  0  0  0  0  0  0  0  0  0  0  0
    4.7126   -2.0275   -1.3513 C   0  0  0  0  0  0  0  0  0  0  0  0
    3.4693   -1.8973   -0.7576 C   0  0  0  0  0  0  0  0  0  0  0  0
    1.3948    0.3089    1.2496 N   0  0  0  0  0  0  0  0  0  0  0  0
    1.8046    1.6350    0.8383 N   0  0  0  0  0  0  0  0  0  0  0  0
   -4.1117    1.0716   -2.7315 H   0  0  0  0  0  0  0  0  0  0  0  0
   -2.4930    1.7189   -3.0271 H   0  0  0  0  0  0  0  0  0  0  0  0
   -3.0468    0.2850   -3.9111 H   0  0  0  0  0  0  0  0  0  0  0  0
   -3.0921   -1.0386   -1.8076 H   0  0  0  0  0  0  0  0  0  0  0  0
   -1.4863   -0.3866   -2.1088 H   0  0  0  0  0  0  0  0  0  0  0  0
   -3.7976    1.0864    1.0670 H   0  0  0  0  0  0  0  0  0  0  0  0
   -4.6067    0.4465   -0.3489 H   0  0  0  0  0  0  0  0  0  0  0  0
   -3.7763   -1.8475    0.1953 H   0  0  0  0  0  0  0  0  0  0  0  0
   -2.8466   -1.2118    1.5526 H   0  0  0  0  0  0  0  0  0  0  0  0
   -4.6171   -1.1497    1.5849 H   0  0  0  0  0  0  0  0  0  0  0  0
   -0.7105    2.9061    1.0389 H   0  0  0  0  0  0  0  0  0  0  0  0
   -2.3898    2.5632    1.3121 H   0  0  0  0  0  0  0  0  0  0  0  0
    4.4387    0.2717    1.6779 H   0  0  0  0  0  0  0  0  0  0  0  0
    6.5853   -0.0778    0.4761 H   0  0  0  0  0  0  0  0  0  0  0  0
    4.8592   -2.6826   -2.2055 H   0  0  0  0  0  0  0  0  0  0  0  0
    2.6202   -2.4568   -1.1381 H   0  0  0  0  0  0  0  0  0  0  0  0
    1.2495    1.8910    0.0107 H   0  0  0  0  0  0  0  0  0  0  0  0
    2.7612    1.6403    0.4909 H   0  0  0  0  0  0  0  0  0  0  0  0
  1  2  1  0
  2  3  1  0
  3  4  1  0
  4  5  1  0
  3  6  1  0
  6  7  2  0
  6  8  1  0
  8  9  1  0
  9 10  1  0
 10 11  2  0
 11 12  1  0
 12 13  2  0
 13 14  1  0
 14 15  2  0
 15 16  1  0
 16 17  2  0
 17 18  1  0
 18 19  2  0
 13 20  1  0
 20 21  1  0
 20 10  1  0
 19 14  1  0
  1 22  1  0
  1 23  1  0
  1 24  1  0
  2 25  1  0
  2 26  1  0
  4 27  1  0
  4 28  1  0
  5 29  1  0
  5 30  1  0
  5 31  1  0
  8 32  1  0
  8 33  1  0
 15 34  1  0
 16 35  1  0
 18 36  1  0
 19 37  1  0
 21 38  1  0
 21 39  1  0
M  END
$$$$
