
     RDKit          3D

 41 42  0  0  0  0  0  0  0  0999 V2000
   -0.4015   -0.3980   -0.7941 O   0  0  0  0  0  0  0  0  0  0  0  0
   -0.2853    0.0217    0.5789 C   0  0  0  0  0  0  0  0  0  0  0  0
    0.6280    1.2646    0.6295 C   0  0  0  0  0  0  0  0  0  0  0  0
    2.0236    0.9572    0.5364 O   0  0  0  0  0  0  0  0  0  0  0  0
    2.4101    0.3683   -0.7050 C   0  0  0  0  0  0  0  0  0  0  0  0
    3.9097    0.4710   -0.8677 C   0  0  0  0  0  0  0  0  0  0  0  0
    4.7708    0.2391    0.2164 C   0  0  0  0  0  0  0  0  0  0  0  0
    6.1566    0.3020    0.0525 C   0  0  0  0  0  0  0  0  0  0  0  0
    6.6912    0.5871   -1.2011 C   0  0  0  0  0  0  0  0  0  0  0  0
    8.3981    0.6642   -1.4063 Cl  0  0  0  0  0  0  0  0  0  0  0  0
    5.8528    0.8061   -2.2919 C   0  0  0  0  0  0  0  0  0  0  0  0
    4.4665    0.7433   -2.1266 C   0  0  0  0  0  0  0  0  0  0  0  0
   -1.6841    0.3502    1.1678 C   0  0  0  0  0  0  0  0  0  0  0  0
   -2.4910   -0.8180    1.5752 N   0  0  0  0  0  0  0  0  0  0  0  0
   -3.7275   -0.4137    2.2659 C   0  0  0  0  0  0  0  0  0  0  0  0
   -4.8030    0.1488    1.3315 C   0  0  0  0  0  0  0  0  0  0  0  0
   -5.1015   -0.8101    0.1832 C   0  0  0  0  0  0  0  0  0  0  0  0
   -3.8170   -1.2547   -0.5102 C   0  0  0  0  0  0  0  0  0  0  0  0
   -2.7979   -1.7760    0.5050 C   0  0  0  0  0  0  0  0  0  0  0  0
   -1.0246    0.2009   -1.2388 H   0  0  0  0  0  0  0  0  0  0  0  0
    0.1846   -0.7978    1.1341 H   0  0  0  0  0  0  0  0  0  0  0  0
    0.3703    1.9788   -0.1615 H   0  0  0  0  0  0  0  0  0  0  0  0
    0.5092    1.7763    1.5901 H   0  0  0  0  0  0  0  0  0  0  0  0
    1.9142    0.8903   -1.5316 H   0  0  0  0  0  0  0  0  0  0  0  0
    2.1332   -0.6910   -0.7170 H   0  0  0  0  0  0  0  0  0  0  0  0
    4.3583    0.0135    1.1983 H   0  0  0  0  0  0  0  0  0  0  0  0
    6.8075    0.1271    0.9044 H   0  0  0  0  0  0  0  0  0  0  0  0
    6.2698    1.0231   -3.2713 H   0  0  0  0  0  0  0  0  0  0  0  0
    3.8234    0.9093   -2.9881 H   0  0  0  0  0  0  0  0  0  0  0  0
   -2.2355    0.9734    0.4541 H   0  0  0  0  0  0  0  0  0  0  0  0
   -1.5270    0.9553    2.0696 H   0  0  0  0  0  0  0  0  0  0  0  0
   -3.5045    0.3146    3.0552 H   0  0  0  0  0  0  0  0  0  0  0  0
   -4.1337   -1.2903    2.7875 H   0  0  0  0  0  0  0  0  0  0  0  0
   -4.4838    1.1168    0.9277 H   0  0  0  0  0  0  0  0  0  0  0  0
   -5.7215    0.3348    1.9002 H   0  0  0  0  0  0  0  0  0  0  0  0
   -5.7741   -0.3347   -0.5391 H   0  0  0  0  0  0  0  0  0  0  0  0
   -5.6245   -1.6914    0.5752 H   0  0  0  0  0  0  0  0  0  0  0  0
   -3.3953   -0.4176   -1.0783 H   0  0  0  0  0  0  0  0  0  0  0  0
   -4.0488   -2.0430   -1.2355 H   0  0  0  0  0  0  0  0  0  0  0  0
   -1.8915   -2.1172   -0.0028 H   0  0  0  0  0  0  0  0  0  0  0  0
   -3.2043   -2.6847    0.9703 H   0  0  0  0  0  0  0  0  0  0  0  0
  1  2  1  0
  2  3  1  0
  3  4  1  0
  4  5  1  0
  5  6  1  0
  6  7  2  0
  7  8  1  0
  8  9  2  0
  9 10  1  0
  9 11  1  0
 11 12  2  0
  2 13  1  0
 13 14  1  0
 14 15  1  0
 15 16  1  0
 16 17  1  0
 17 18  1  0
 18 19  1  0
 12  6  1  0
 19 14  1  0
  1 20  1  0
  2 21  1  0
  3 22  1  0
  3 23  1  0
  5 24  1  0
  5 25  1  0
  7 26  1  0
  8 27  1  0
 11 28  1  0
 12 29  1  0
 13 30  1  0
 13 31  1  0
 15 32  1  0
 15 33  1  0
 16 34  1  0
 16 35  1  0
 17 36  1  0
 17 37  1  0
 18 38  1  0
 18 39  1  0
 19 40  1  0
 19 41  1  0
M  END
$$$$
