
     RDKit          3D

 47 50  0  0  0  0  0  0  0  0999 V2000
   -1.0184   -0.2894   -2.3714 O   0  0  0  0  0  0  0  0  0  0  0  0
   -0.4439   -1.0591   -1.5998 C   0  0  0  0  0  0  0  0  0  0  0  0
   -0.8670   -2.5154   -1.4182 C   0  0  0  0  0  0  0  0  0  0  0  0
   -2.0639   -3.0761   -2.6559 S   0  0  0  0  0  0  0  0  0  0  0  0
   -3.4831   -2.1980   -2.1735 C   0  0  0  0  0  0  0  0  0  0  0  0
   -4.6374   -2.2781   -2.8016 N   0  0  0  0  0  0  0  0  0  0  0  0
   -5.5164   -1.4595   -2.1208 N   0  0  0  0  0  0  0  0  0  0  0  0
   -4.8401   -0.9409   -1.1169 C   0  0  0  0  0  0  0  0  0  0  0  0
   -5.2624   -0.0008   -0.0865 C   0  0  0  0  0  0  0  0  0  0  0  0
   -6.5680    0.5153   -0.1125 C   0  0  0  0  0  0  0  0  0  0  0  0
   -6.9991    1.4185    0.8622 C   0  0  0  0  0  0  0  0  0  0  0  0
   -6.1293    1.8175    1.8759 C   0  0  0  0  0  0  0  0  0  0  0  0
   -4.8297    1.3157    1.9158 C   0  0  0  0  0  0  0  0  0  0  0  0
   -4.3986    0.4125    0.9407 C   0  0  0  0  0  0  0  0  0  0  0  0
   -3.5472   -1.3882   -1.0710 O   0  0  0  0  0  0  0  0  0  0  0  0
    0.6322   -0.6331   -0.8266 N   0  0  0  0  0  0  0  0  0  0  0  0
    1.1490    0.7280   -1.0038 C   0  0  0  0  0  0  0  0  0  0  0  0
    2.6858    0.7920   -0.9265 C   0  0  0  0  0  0  0  0  0  0  0  0
    3.2068    0.1749    0.3093 N   0  0  0  0  0  0  0  0  0  0  0  0
    4.4304    0.5783    0.8274 C   0  0  0  0  0  0  0  0  0  0  0  0
    5.4352    1.1183    0.0053 C   0  0  0  0  0  0  0  0  0  0  0  0
    6.6796    1.5171    0.5122 C   0  0  0  0  0  0  0  0  0  0  0  0
    6.9546    1.3841    1.8673 C   0  0  0  0  0  0  0  0  0  0  0  0
    5.9847    0.8539    2.7092 C   0  0  0  0  0  0  0  0  0  0  0  0
    4.7433    0.4571    2.1921 C   0  0  0  0  0  0  0  0  0  0  0  0
    2.2920   -0.6882    1.0688 C   0  0  0  0  0  0  0  0  0  0  0  0
    1.3631   -1.4782    0.1258 C   0  0  0  0  0  0  0  0  0  0  0  0
    0.0156   -3.1555   -1.5239 H   0  0  0  0  0  0  0  0  0  0  0  0
   -1.2811   -2.6533   -0.4143 H   0  0  0  0  0  0  0  0  0  0  0  0
   -7.2605    0.2172   -0.8998 H   0  0  0  0  0  0  0  0  0  0  0  0
   -8.0130    1.8105    0.8277 H   0  0  0  0  0  0  0  0  0  0  0  0
   -6.4646    2.5216    2.6342 H   0  0  0  0  0  0  0  0  0  0  0  0
   -4.1497    1.6294    2.7040 H   0  0  0  0  0  0  0  0  0  0  0  0
   -3.3780    0.0375    0.9907 H   0  0  0  0  0  0  0  0  0  0  0  0
    0.7101    1.3353   -0.2038 H   0  0  0  0  0  0  0  0  0  0  0  0
    0.8137    1.1514   -1.9565 H   0  0  0  0  0  0  0  0  0  0  0  0
    2.9761    1.8477   -0.9900 H   0  0  0  0  0  0  0  0  0  0  0  0
    3.1125    0.2649   -1.7880 H   0  0  0  0  0  0  0  0  0  0  0  0
    5.2771    1.2164   -1.0640 H   0  0  0  0  0  0  0  0  0  0  0  0
    7.4313    1.9224   -0.1590 H   0  0  0  0  0  0  0  0  0  0  0  0
    7.9189    1.6904    2.2648 H   0  0  0  0  0  0  0  0  0  0  0  0
    6.1856    0.7468    3.7726 H   0  0  0  0  0  0  0  0  0  0  0  0
    4.0139    0.0695    2.8981 H   0  0  0  0  0  0  0  0  0  0  0  0
    2.8431   -1.4206    1.6698 H   0  0  0  0  0  0  0  0  0  0  0  0
    1.6926   -0.0693    1.7486 H   0  0  0  0  0  0  0  0  0  0  0  0
    1.9568   -2.1817   -0.4697 H   0  0  0  0  0  0  0  0  0  0  0  0
    0.6476   -2.0590    0.7156 H   0  0  0  0  0  0  0  0  0  0  0  0
  1  2  2  0
  2  3  1  0
  3  4  1  0
  4  5  1  0
  5  6  2  0
  6  7  1  0
  7  8  2  0
  8  9  1  0
  9 10  2  0
 10 11  1  0
 11 12  2  0
 12 13  1  0
 13 14  2  0
  8 15  1  0
  2 16  1  0
 16 17  1  0
 17 18  1  0
 18 19  1  0
 19 20  1  0
 20 21  2  0
 21 22  1  0
 22 23  2  0
 23 24  1  0
 24 25  2  0
 19 26  1  0
 26 27  1  0
 15  5  1  0
 27 16  1  0
 14  9  1  0
 25 20  1  0
  3 28  1  0
  3 29  1  0
 10 30  1  0
 11 31  1  0
 12 32  1  0
 13 33  1  0
 14 34  1  0
 17 35  1  0
 17 36  1  0
 18 37  1  0
 18 38  1  0
 21 39  1  0
 22 40  1  0
 23 41  1  0
 24 42  1  0
 25 43  1  0
 26 44  1  0
 26 45  1  0
 27 46  1  0
 27 47  1  0
M  END
$$$$
