
     RDKit          3D

 52 54  0  0  0  0  0  0  0  0999 V2000
    6.5856    2.4328    3.9354 C   0  0  0  0  0  0  0  0  0  0  0  0
    5.7907    3.0488    2.7989 C   0  0  0  0  0  0  0  0  0  0  0  0
    5.1867    2.0222    1.9962 O   0  0  0  0  0  0  0  0  0  0  0  0
    3.9832    1.5602    2.4278 C   0  0  0  0  0  0  0  0  0  0  0  0
    3.4189    1.9595    3.4411 O   0  0  0  0  0  0  0  0  0  0  0  0
    3.4578    0.5853    1.5984 N   0  0  0  0  0  0  0  0  0  0  0  0
    4.1114    0.1078    0.3866 C   0  0  0  0  0  0  0  0  0  0  0  0
    3.1103   -0.0021   -0.7599 C   0  0  0  0  0  0  0  0  0  0  0  0
    1.8355   -0.7762   -0.3800 C   0  0  0  0  0  0  0  0  0  0  0  0
    0.6427    0.0090   -0.6929 N   0  0  0  0  0  0  0  0  0  0  0  0
   -0.5825   -0.5917   -0.9278 C   0  0  0  0  0  0  0  0  0  0  0  0
   -0.7287   -1.8122   -0.9329 O   0  0  0  0  0  0  0  0  0  0  0  0
   -1.7360    0.4090   -1.1096 C   0  0  0  0  0  0  0  0  0  0  0  0
   -2.9468   -0.2319   -1.6202 N   0  0  0  0  0  0  0  0  0  0  0  0
   -2.9750   -0.4770   -2.9902 C   0  0  0  0  0  0  0  0  0  0  0  0
   -2.1731    0.0301   -3.7780 O   0  0  0  0  0  0  0  0  0  0  0  0
   -3.9936   -1.4735   -3.4872 C   0  0  0  0  0  0  0  0  0  0  0  0
   -5.3235   -0.8236   -3.7949 C   0  0  0  0  0  0  0  0  0  0  0  0
   -5.9938    0.2715   -2.5073 S   0  0  0  0  0  0  0  0  0  0  0  0
   -5.3569   -0.5074   -1.0228 C   0  0  0  0  0  0  0  0  0  0  0  0
   -6.3258   -0.8732   -0.0711 C   0  0  0  0  0  0  0  0  0  0  0  0
   -5.9536   -1.3713    1.1758 C   0  0  0  0  0  0  0  0  0  0  0  0
   -4.6080   -1.4860    1.4950 C   0  0  0  0  0  0  0  0  0  0  0  0
   -3.6339   -1.1011    0.5676 C   0  0  0  0  0  0  0  0  0  0  0  0
   -3.9821   -0.6193   -0.7073 C   0  0  0  0  0  0  0  0  0  0  0  0
    1.8285   -1.2181    1.0888 C   0  0  0  0  0  0  0  0  0  0  0  0
    2.2272   -0.0732    2.0113 C   0  0  0  0  0  0  0  0  0  0  0  0
    7.3436    1.7478    3.5451 H   0  0  0  0  0  0  0  0  0  0  0  0
    5.9389    1.8479    4.5968 H   0  0  0  0  0  0  0  0  0  0  0  0
    7.0820    3.2081    4.5261 H   0  0  0  0  0  0  0  0  0  0  0  0
    5.0407    3.7580    3.1700 H   0  0  0  0  0  0  0  0  0  0  0  0
    6.4626    3.6110    2.1429 H   0  0  0  0  0  0  0  0  0  0  0  0
    4.5519   -0.8675    0.6169 H   0  0  0  0  0  0  0  0  0  0  0  0
    4.9326    0.7647    0.0866 H   0  0  0  0  0  0  0  0  0  0  0  0
    2.8573    1.0099   -1.1056 H   0  0  0  0  0  0  0  0  0  0  0  0
    3.5970   -0.4972   -1.6091 H   0  0  0  0  0  0  0  0  0  0  0  0
    1.7857   -1.6811   -1.0002 H   0  0  0  0  0  0  0  0  0  0  0  0
    0.6791    1.0138   -0.5695 H   0  0  0  0  0  0  0  0  0  0  0  0
   -1.9404    0.9067   -0.1531 H   0  0  0  0  0  0  0  0  0  0  0  0
   -1.4104    1.1843   -1.8170 H   0  0  0  0  0  0  0  0  0  0  0  0
   -3.5895   -1.9354   -4.4049 H   0  0  0  0  0  0  0  0  0  0  0  0
   -4.0879   -2.3111   -2.7860 H   0  0  0  0  0  0  0  0  0  0  0  0
   -6.0690   -1.5953   -4.0166 H   0  0  0  0  0  0  0  0  0  0  0  0
   -5.2266   -0.2032   -4.6917 H   0  0  0  0  0  0  0  0  0  0  0  0
   -7.3863   -0.7583   -0.2932 H   0  0  0  0  0  0  0  0  0  0  0  0
   -6.7162   -1.6602    1.8980 H   0  0  0  0  0  0  0  0  0  0  0  0
   -4.3070   -1.8883    2.4594 H   0  0  0  0  0  0  0  0  0  0  0  0
   -2.5950   -1.2397    0.8517 H   0  0  0  0  0  0  0  0  0  0  0  0
    2.5453   -2.0422    1.2124 H   0  0  0  0  0  0  0  0  0  0  0  0
    0.8488   -1.6120    1.3874 H   0  0  0  0  0  0  0  0  0  0  0  0
    2.3594   -0.4468    3.0337 H   0  0  0  0  0  0  0  0  0  0  0  0
    1.4382    0.6876    2.0468 H   0  0  0  0  0  0  0  0  0  0  0  0
  1  2  1  0
  2  3  1  0
  3  4  1  0
  4  5  2  0
  4  6  1  0
  6  7  1  0
  7  8  1  0
  8  9  1  0
  9 10  1  0
 10 11  1  0
 11 12  2  0
 11 13  1  0
 13 14  1  0
 14 15  1  0
 15 16  2  0
 15 17  1  0
 17 18  1  0
 18 19  1  0
 19 20  1  0
 20 21  2  0
 21 22  1  0
 22 23  2  0
 23 24  1  0
 24 25  2  0
  9 26  1  0
 26 27  1  0
 27  6  1  0
 25 14  1  0
 25 20  1  0
  1 28  1  0
  1 29  1  0
  1 30  1  0
  2 31  1  0
  2 32  1  0
  7 33  1  0
  7 34  1  0
  8 35  1  0
  8 36  1  0
  9 37  1  0
 10 38  1  0
 13 39  1  0
 13 40  1  0
 17 41  1  0
 17 42  1  0
 18 43  1  0
 18 44  1  0
 21 45  1  0
 22 46  1  0
 23 47  1  0
 24 48  1  0
 26 49  1  0
 26 50  1  0
 27 51  1  0
 27 52  1  0
M  END
$$$$
