
     RDKit          3D

 40 41  0  0  0  0  0  0  0  0999 V2000
    5.7419   -2.4593   -1.1574 C   0  0  0  0  0  0  0  0  0  0  0  0
    5.1586   -2.2450    0.1219 O   0  0  0  0  0  0  0  0  0  0  0  0
    4.5081   -1.0573    0.3127 C   0  0  0  0  0  0  0  0  0  0  0  0
    4.3170   -0.0623   -0.6454 C   0  0  0  0  0  0  0  0  0  0  0  0
    3.6234    1.1074   -0.3169 C   0  0  0  0  0  0  0  0  0  0  0  0
    3.1166    1.2987    0.9754 C   0  0  0  0  0  0  0  0  0  0  0  0
    2.3397    2.5504    1.3120 C   0  0  0  0  0  0  0  0  0  0  0  0
    0.9317    2.5708    0.7605 C   0  0  0  0  0  0  0  0  0  0  0  0
    0.4186    3.5779    0.2825 O   0  0  0  0  0  0  0  0  0  0  0  0
    0.3421    1.3432    0.9328 O   0  0  0  0  0  0  0  0  0  0  0  0
   -0.9830    1.3603    0.4623 N   0  0  0  0  0  0  0  0  0  0  0  0
   -1.5136    0.1737    0.5215 C   0  0  0  0  0  0  0  0  0  0  0  0
   -0.8282   -0.9372    0.9660 N   0  0  0  0  0  0  0  0  0  0  0  0
   -2.9313    0.0137    0.0631 C   0  0  0  0  0  0  0  0  0  0  0  0
   -3.6976   -1.0787    0.4843 C   0  0  0  0  0  0  0  0  0  0  0  0
   -5.0169   -1.2229    0.0437 C   0  0  0  0  0  0  0  0  0  0  0  0
   -5.5816   -0.2832   -0.8272 C   0  0  0  0  0  0  0  0  0  0  0  0
   -7.0079   -0.4188   -1.2728 C   0  0  0  0  0  0  0  0  0  0  0  0
   -4.8194    0.8210   -1.2260 C   0  0  0  0  0  0  0  0  0  0  0  0
   -3.5014    0.9684   -0.7855 C   0  0  0  0  0  0  0  0  0  0  0  0
    3.3091    0.2967    1.9332 C   0  0  0  0  0  0  0  0  0  0  0  0
    3.9997   -0.8706    1.5999 C   0  0  0  0  0  0  0  0  0  0  0  0
    6.5055   -1.7046   -1.3740 H   0  0  0  0  0  0  0  0  0  0  0  0
    6.2342   -3.4364   -1.1407 H   0  0  0  0  0  0  0  0  0  0  0  0
    4.9767   -2.4857   -1.9401 H   0  0  0  0  0  0  0  0  0  0  0  0
    4.6914   -0.1635   -1.6591 H   0  0  0  0  0  0  0  0  0  0  0  0
    3.4809    1.8687   -1.0826 H   0  0  0  0  0  0  0  0  0  0  0  0
    2.2798    2.6916    2.3974 H   0  0  0  0  0  0  0  0  0  0  0  0
    2.8808    3.4154    0.9102 H   0  0  0  0  0  0  0  0  0  0  0  0
    0.1732   -0.7697    1.0133 H   0  0  0  0  0  0  0  0  0  0  0  0
   -1.0356   -1.7961    0.4680 H   0  0  0  0  0  0  0  0  0  0  0  0
   -3.2917   -1.8092    1.1777 H   0  0  0  0  0  0  0  0  0  0  0  0
   -5.6037   -2.0713    0.3893 H   0  0  0  0  0  0  0  0  0  0  0  0
   -7.1346   -0.0354   -2.2908 H   0  0  0  0  0  0  0  0  0  0  0  0
   -7.3182   -1.4689   -1.2809 H   0  0  0  0  0  0  0  0  0  0  0  0
   -7.6654    0.1382   -0.5982 H   0  0  0  0  0  0  0  0  0  0  0  0
   -5.2458    1.5772   -1.8811 H   0  0  0  0  0  0  0  0  0  0  0  0
   -2.9244    1.8327   -1.1075 H   0  0  0  0  0  0  0  0  0  0  0  0
    2.9246    0.4127    2.9446 H   0  0  0  0  0  0  0  0  0  0  0  0
    4.1469   -1.6425    2.3517 H   0  0  0  0  0  0  0  0  0  0  0  0
  1  2  1  0
  2  3  1  0
  3  4  2  0
  4  5  1  0
  5  6  2  0
  6  7  1  0
  7  8  1  0
  8  9  2  0
  8 10  1  0
 10 11  1  0
 11 12  2  3
 12 13  1  0
 12 14  1  0
 14 15  2  0
 15 16  1  0
 16 17  2  0
 17 18  1  0
 17 19  1  0
 19 20  2  0
  6 21  1  0
 21 22  2  0
 22  3  1  0
 20 14  1  0
  1 23  1  0
  1 24  1  0
  1 25  1  0
  4 26  1  0
  5 27  1  0
  7 28  1  0
  7 29  1  0
 13 30  1  0
 13 31  1  0
 15 32  1  0
 16 33  1  0
 18 34  1  0
 18 35  1  0
 18 36  1  0
 19 37  1  0
 20 38  1  0
 21 39  1  0
 22 40  1  0
M  END
$$$$
