
     RDKit          3D

 39 41  0  0  0  0  0  0  0  0999 V2000
   -3.9546   -2.4540   -0.7628 C   0  0  0  0  0  0  0  0  0  0  0  0
   -3.4750   -2.6591    0.6642 C   0  0  0  0  0  0  0  0  0  0  0  0
   -1.7575   -3.2723    0.7210 S   0  0  0  0  0  0  0  0  0  0  0  0
   -0.8298   -1.7881    0.3503 C   0  0  0  0  0  0  0  0  0  0  0  0
    0.5111   -1.9114    0.0542 C   0  0  0  0  0  0  0  0  0  0  0  0
    1.2144   -0.7564   -0.2153 C   0  0  0  0  0  0  0  0  0  0  0  0
    2.5511   -0.7807   -0.5369 N   0  0  0  0  0  0  0  0  0  0  0  0
    3.4597   -1.8618   -0.1720 C   0  0  0  0  0  0  0  0  0  0  0  0
    4.8319   -1.1905   -0.0985 C   0  0  0  0  0  0  0  0  0  0  0  0
    4.6955    0.0059   -1.0267 C   0  0  0  0  0  0  0  0  0  0  0  0
    3.2662    0.4698   -0.7642 C   0  0  0  0  0  0  0  0  0  0  0  0
    0.5888    0.4330   -0.2018 N   0  0  0  0  0  0  0  0  0  0  0  0
   -0.7210    0.4693    0.1027 C   0  0  0  0  0  0  0  0  0  0  0  0
   -1.3878    1.7890    0.1180 C   0  0  0  0  0  0  0  0  0  0  0  0
   -2.7543    1.9203    0.4452 C   0  0  0  0  0  0  0  0  0  0  0  0
   -3.3861    3.1682    0.4593 C   0  0  0  0  0  0  0  0  0  0  0  0
   -2.6583    4.3067    0.1452 C   0  0  0  0  0  0  0  0  0  0  0  0
   -3.2617    5.5022    0.1582 F   0  0  0  0  0  0  0  0  0  0  0  0
   -1.3131    4.2213   -0.1823 C   0  0  0  0  0  0  0  0  0  0  0  0
   -0.6847    2.9717   -0.1952 C   0  0  0  0  0  0  0  0  0  0  0  0
   -1.4629   -0.6092    0.3910 N   0  0  0  0  0  0  0  0  0  0  0  0
   -3.3776   -1.6857   -1.2864 H   0  0  0  0  0  0  0  0  0  0  0  0
   -3.8982   -3.3829   -1.3405 H   0  0  0  0  0  0  0  0  0  0  0  0
   -5.0013   -2.1320   -0.7585 H   0  0  0  0  0  0  0  0  0  0  0  0
   -4.1029   -3.4192    1.1412 H   0  0  0  0  0  0  0  0  0  0  0  0
   -3.5840   -1.7448    1.2555 H   0  0  0  0  0  0  0  0  0  0  0  0
    0.9824   -2.8838    0.0219 H   0  0  0  0  0  0  0  0  0  0  0  0
    3.4472   -2.6332   -0.9497 H   0  0  0  0  0  0  0  0  0  0  0  0
    3.2176   -2.3213    0.7927 H   0  0  0  0  0  0  0  0  0  0  0  0
    5.0240   -0.8464    0.9251 H   0  0  0  0  0  0  0  0  0  0  0  0
    5.6429   -1.8645   -0.3880 H   0  0  0  0  0  0  0  0  0  0  0  0
    4.8045   -0.3150   -2.0697 H   0  0  0  0  0  0  0  0  0  0  0  0
    5.4340    0.7869   -0.8263 H   0  0  0  0  0  0  0  0  0  0  0  0
    3.2338    1.1050    0.1296 H   0  0  0  0  0  0  0  0  0  0  0  0
    2.8717    1.0272   -1.6204 H   0  0  0  0  0  0  0  0  0  0  0  0
   -3.3414    1.0377    0.6950 H   0  0  0  0  0  0  0  0  0  0  0  0
   -4.4376    3.2536    0.7133 H   0  0  0  0  0  0  0  0  0  0  0  0
   -0.7589    5.1219   -0.4259 H   0  0  0  0  0  0  0  0  0  0  0  0
    0.3719    2.9225   -0.4555 H   0  0  0  0  0  0  0  0  0  0  0  0
  1  2  1  0
  2  3  1  0
  3  4  1  0
  4  5  2  0
  5  6  1  0
  6  7  1  0
  7  8  1  0
  8  9  1  0
  9 10  1  0
 10 11  1  0
  6 12  2  0
 12 13  1  0
 13 14  1  0
 14 15  2  0
 15 16  1  0
 16 17  2  0
 17 18  1  0
 17 19  1  0
 19 20  2  0
 13 21  2  0
 21  4  1  0
 11  7  1  0
 20 14  1  0
  1 22  1  0
  1 23  1  0
  1 24  1  0
  2 25  1  0
  2 26  1  0
  5 27  1  0
  8 28  1  0
  8 29  1  0
  9 30  1  0
  9 31  1  0
 10 32  1  0
 10 33  1  0
 11 34  1  0
 11 35  1  0
 15 36  1  0
 16 37  1  0
 19 38  1  0
 20 39  1  0
M  END
$$$$
