
     RDKit          3D

 44 46  0  0  0  0  0  0  0  0999 V2000
    1.7132    0.0009   -4.4783 C   0  0  0  0  0  0  0  0  0  0  0  0
    1.7259    0.3532   -3.0929 O   0  0  0  0  0  0  0  0  0  0  0  0
    1.5264   -0.6978   -2.2474 C   0  0  0  0  0  0  0  0  0  0  0  0
    1.3716   -1.8572   -2.6022 O   0  0  0  0  0  0  0  0  0  0  0  0
    1.5521   -0.2232   -0.8116 C   0  0  0  0  0  0  0  0  0  0  0  0
    1.6701   -1.3872    0.1518 C   0  0  0  0  0  0  0  0  0  0  0  0
    3.0421   -1.9839    0.3548 C   0  0  0  0  0  0  0  0  0  0  0  0
    0.6750   -1.9152    0.7981 N   0  0  0  0  0  0  0  0  0  0  0  0
   -0.5909   -1.4151    0.6120 C   0  0  0  0  0  0  0  0  0  0  0  0
   -0.8151   -0.2325    0.0290 C   0  0  0  0  0  0  0  0  0  0  0  0
   -2.2025    0.2321   -0.1555 C   0  0  0  0  0  0  0  0  0  0  0  0
   -2.4254    1.2275   -0.8428 O   0  0  0  0  0  0  0  0  0  0  0  0
   -3.1832   -0.5135    0.4606 N   0  0  0  0  0  0  0  0  0  0  0  0
   -4.5562   -0.0605    0.3452 C   0  0  0  0  0  0  0  0  0  0  0  0
   -2.9639   -1.7640    1.0222 C   0  0  0  0  0  0  0  0  0  0  0  0
   -3.8966   -2.4608    1.4280 O   0  0  0  0  0  0  0  0  0  0  0  0
   -1.6390   -2.1787    1.0847 N   0  0  0  0  0  0  0  0  0  0  0  0
   -1.3481   -3.4781    1.6847 C   0  0  0  0  0  0  0  0  0  0  0  0
    0.3021    0.6182   -0.5068 C   0  0  0  0  0  0  0  0  0  0  0  0
    0.6316    1.7848    0.4281 C   0  0  0  0  0  0  0  0  0  0  0  0
    1.0710    1.5846    1.7482 C   0  0  0  0  0  0  0  0  0  0  0  0
    1.3706    2.6733    2.5719 C   0  0  0  0  0  0  0  0  0  0  0  0
    1.2318    3.9705    2.0865 C   0  0  0  0  0  0  0  0  0  0  0  0
    1.6030    5.3083    3.1019 Cl  0  0  0  0  0  0  0  0  0  0  0  0
    0.7915    4.1897    0.7847 C   0  0  0  0  0  0  0  0  0  0  0  0
    0.4915    3.1025   -0.0397 C   0  0  0  0  0  0  0  0  0  0  0  0
    1.8847    0.9104   -5.0600 H   0  0  0  0  0  0  0  0  0  0  0  0
    2.5151   -0.7100   -4.7003 H   0  0  0  0  0  0  0  0  0  0  0  0
    0.7387   -0.4110   -4.7585 H   0  0  0  0  0  0  0  0  0  0  0  0
    2.4682    0.3746   -0.7041 H   0  0  0  0  0  0  0  0  0  0  0  0
    3.7196   -1.2121    0.7301 H   0  0  0  0  0  0  0  0  0  0  0  0
    3.4215   -2.3632   -0.5975 H   0  0  0  0  0  0  0  0  0  0  0  0
    3.0038   -2.8049    1.0762 H   0  0  0  0  0  0  0  0  0  0  0  0
   -4.6067    1.0269    0.2361 H   0  0  0  0  0  0  0  0  0  0  0  0
   -5.1345   -0.3515    1.2272 H   0  0  0  0  0  0  0  0  0  0  0  0
   -5.0004   -0.5285   -0.5390 H   0  0  0  0  0  0  0  0  0  0  0  0
   -0.7164   -3.3355    2.5678 H   0  0  0  0  0  0  0  0  0  0  0  0
   -0.8329   -4.1088    0.9524 H   0  0  0  0  0  0  0  0  0  0  0  0
   -2.2553   -4.0005    2.0002 H   0  0  0  0  0  0  0  0  0  0  0  0
   -0.0436    1.0535   -1.4543 H   0  0  0  0  0  0  0  0  0  0  0  0
    1.1763    0.5839    2.1617 H   0  0  0  0  0  0  0  0  0  0  0  0
    1.7058    2.5015    3.5915 H   0  0  0  0  0  0  0  0  0  0  0  0
    0.6731    5.2016    0.4059 H   0  0  0  0  0  0  0  0  0  0  0  0
    0.1344    3.2957   -1.0505 H   0  0  0  0  0  0  0  0  0  0  0  0
  1  2  1  0
  2  3  1  0
  3  4  2  0
  3  5  1  0
  5  6  1  0
  6  7  1  0
  6  8  2  0
  8  9  1  0
  9 10  2  0
 10 11  1  0
 11 12  2  0
 11 13  1  0
 13 14  1  0
 13 15  1  0
 15 16  2  0
 15 17  1  0
 17 18  1  0
 10 19  1  0
 19 20  1  0
 20 21  2  0
 21 22  1  0
 22 23  2  0
 23 24  1  0
 23 25  1  0
 25 26  2  0
 19  5  1  0
 26 20  1  0
 17  9  1  0
  1 27  1  0
  1 28  1  0
  1 29  1  0
  5 30  1  0
  7 31  1  0
  7 32  1  0
  7 33  1  0
 14 34  1  0
 14 35  1  0
 14 36  1  0
 18 37  1  0
 18 38  1  0
 18 39  1  0
 19 40  1  0
 21 41  1  0
 22 42  1  0
 25 43  1  0
 26 44  1  0
M  END
$$$$
