
     RDKit          3D

 49 52  0  0  0  0  0  0  0  0999 V2000
    4.2780    1.4550   -2.2293 O   0  0  0  0  0  0  0  0  0  0  0  0
    3.3675    0.7009   -1.8897 C   0  0  0  0  0  0  0  0  0  0  0  0
    2.0043    0.8087   -2.5509 C   0  0  0  0  0  0  0  0  0  0  0  0
    0.8511    1.7283   -1.4868 S   0  0  0  0  0  0  0  0  0  0  0  0
    0.1000    0.4297   -0.6296 C   0  0  0  0  0  0  0  0  0  0  0  0
    0.4642   -0.8264   -0.6975 N   0  0  0  0  0  0  0  0  0  0  0  0
   -0.3756   -1.5442    0.1079 N   0  0  0  0  0  0  0  0  0  0  0  0
   -1.2125   -0.7079    0.6982 C   0  0  0  0  0  0  0  0  0  0  0  0
   -2.2186   -1.0933    1.6829 C   0  0  0  0  0  0  0  0  0  0  0  0
   -2.1848   -0.5990    2.9883 C   0  0  0  0  0  0  0  0  0  0  0  0
   -3.1580   -1.0220    3.8804 C   0  0  0  0  0  0  0  0  0  0  0  0
   -4.1407   -1.8921    3.5621 N   0  0  0  0  0  0  0  0  0  0  0  0
   -4.1428   -2.3711    2.2980 C   0  0  0  0  0  0  0  0  0  0  0  0
   -3.2112   -2.0138    1.3366 C   0  0  0  0  0  0  0  0  0  0  0  0
   -0.9786    0.5618    0.2043 N   0  0  0  0  0  0  0  0  0  0  0  0
   -1.7212    1.7710    0.5036 C   0  0  0  0  0  0  0  0  0  0  0  0
   -2.9735    1.9990   -0.3458 C   0  0  0  0  0  0  0  0  0  0  0  0
   -2.8011    2.0181   -1.8559 C   0  0  0  0  0  0  0  0  0  0  0  0
   -4.2235    1.7855   -2.3080 C   0  0  0  0  0  0  0  0  0  0  0  0
   -4.7086    0.7660   -1.2967 C   0  0  0  0  0  0  0  0  0  0  0  0
   -3.9812    1.0061   -0.0802 O   0  0  0  0  0  0  0  0  0  0  0  0
    3.4485   -0.2889   -0.9237 N   0  0  0  0  0  0  0  0  0  0  0  0
    4.5955   -0.6801   -0.1856 C   0  0  0  0  0  0  0  0  0  0  0  0
    5.8839   -0.2235   -0.4869 C   0  0  0  0  0  0  0  0  0  0  0  0
    6.9887   -0.6468    0.2612 C   0  0  0  0  0  0  0  0  0  0  0  0
    6.8275   -1.5313    1.3206 C   0  0  0  0  0  0  0  0  0  0  0  0
    5.5544   -1.9998    1.6350 C   0  0  0  0  0  0  0  0  0  0  0  0
    4.4469   -1.5793    0.8877 C   0  0  0  0  0  0  0  0  0  0  0  0
    2.8935   -2.1768    1.3534 Cl  0  0  0  0  0  0  0  0  0  0  0  0
    1.6359   -0.1858   -2.8243 H   0  0  0  0  0  0  0  0  0  0  0  0
    2.1233    1.3661   -3.4860 H   0  0  0  0  0  0  0  0  0  0  0  0
   -1.4119    0.0836    3.3206 H   0  0  0  0  0  0  0  0  0  0  0  0
   -3.1718   -0.6666    4.9040 H   0  0  0  0  0  0  0  0  0  0  0  0
   -4.9392   -3.0750    2.0728 H   0  0  0  0  0  0  0  0  0  0  0  0
   -3.2620   -2.4424    0.3394 H   0  0  0  0  0  0  0  0  0  0  0  0
   -2.0030    1.7260    1.5569 H   0  0  0  0  0  0  0  0  0  0  0  0
   -1.0441    2.6243    0.4079 H   0  0  0  0  0  0  0  0  0  0  0  0
   -3.4099    2.9566   -0.0314 H   0  0  0  0  0  0  0  0  0  0  0  0
   -2.1836    1.1859   -2.2100 H   0  0  0  0  0  0  0  0  0  0  0  0
   -2.3756    2.9555   -2.2252 H   0  0  0  0  0  0  0  0  0  0  0  0
   -4.8010    2.7121   -2.2074 H   0  0  0  0  0  0  0  0  0  0  0  0
   -4.3134    1.4413   -3.3427 H   0  0  0  0  0  0  0  0  0  0  0  0
   -4.4823   -0.2540   -1.6229 H   0  0  0  0  0  0  0  0  0  0  0  0
   -5.7818    0.8425   -1.1060 H   0  0  0  0  0  0  0  0  0  0  0  0
    2.5789   -0.7520   -0.6551 H   0  0  0  0  0  0  0  0  0  0  0  0
    6.0732    0.4627   -1.3103 H   0  0  0  0  0  0  0  0  0  0  0  0
    7.9792   -0.2768    0.0115 H   0  0  0  0  0  0  0  0  0  0  0  0
    7.6904   -1.8501    1.9018 H   0  0  0  0  0  0  0  0  0  0  0  0
    5.4264   -2.6876    2.4681 H   0  0  0  0  0  0  0  0  0  0  0  0
  1  2  2  0
  2  3  1  0
  3  4  1  0
  4  5  1  0
  5  6  2  0
  6  7  1  0
  7  8  2  0
  8  9  1  0
  9 10  2  0
 10 11  1  0
 11 12  2  0
 12 13  1  0
 13 14  2  0
  8 15  1  0
 15 16  1  0
 16 17  1  0
 17 18  1  0
 18 19  1  0
 19 20  1  0
 20 21  1  0
  2 22  1  0
 22 23  1  0
 23 24  2  0
 24 25  1  0
 25 26  2  0
 26 27  1  0
 27 28  2  0
 28 29  1  0
 15  5  1  0
 21 17  1  0
 28 23  1  0
 14  9  1  0
  3 30  1  0
  3 31  1  0
 10 32  1  0
 11 33  1  0
 13 34  1  0
 14 35  1  0
 16 36  1  0
 16 37  1  0
 17 38  1  0
 18 39  1  0
 18 40  1  0
 19 41  1  0
 19 42  1  0
 20 43  1  0
 20 44  1  0
 22 45  1  0
 24 46  1  0
 25 47  1  0
 26 48  1  0
 27 49  1  0
M  END
$$$$
