
     RDKit          3D

 35 36  0  0  0  0  0  0  0  0999 V2000
    2.4463   -2.6980    1.4101 C   0  0  0  0  0  0  0  0  0  0  0  0
    1.6675   -1.5340    1.1529 O   0  0  0  0  0  0  0  0  0  0  0  0
    2.3558   -0.4003    0.7776 C   0  0  0  0  0  0  0  0  0  0  0  0
    3.7069   -0.3701    0.4185 C   0  0  0  0  0  0  0  0  0  0  0  0
    4.3041    0.8374    0.0524 C   0  0  0  0  0  0  0  0  0  0  0  0
    3.5559    2.0119    0.0388 C   0  0  0  0  0  0  0  0  0  0  0  0
    2.2048    1.9903    0.3916 C   0  0  0  0  0  0  0  0  0  0  0  0
    1.5957    0.7907    0.7574 C   0  0  0  0  0  0  0  0  0  0  0  0
    0.2382    0.6826    1.1306 N   0  0  0  0  0  0  0  0  0  0  0  0
   -0.7277    1.6689    1.1505 C   0  0  0  0  0  0  0  0  0  0  0  0
   -0.5786    2.8457    0.8242 O   0  0  0  0  0  0  0  0  0  0  0  0
   -2.1060    1.1543    1.5945 C   0  0  0  0  0  0  0  0  0  0  0  0
   -3.0715    1.2255    0.4848 N   0  0  0  0  0  0  0  0  0  0  0  0
   -2.9150    0.3276   -0.5839 C   0  0  0  0  0  0  0  0  0  0  0  0
   -3.2139    0.7648   -1.8850 C   0  0  0  0  0  0  0  0  0  0  0  0
   -3.1259   -0.0998   -2.9798 C   0  0  0  0  0  0  0  0  0  0  0  0
   -2.7635   -1.4251   -2.7783 C   0  0  0  0  0  0  0  0  0  0  0  0
   -2.6831   -2.2419   -3.8389 F   0  0  0  0  0  0  0  0  0  0  0  0
   -2.5065   -1.8931   -1.4936 C   0  0  0  0  0  0  0  0  0  0  0  0
   -2.0863   -3.5437   -1.2286 Cl  0  0  0  0  0  0  0  0  0  0  0  0
   -2.5988   -1.0256   -0.3997 C   0  0  0  0  0  0  0  0  0  0  0  0
    1.7750   -3.4685    1.8020 H   0  0  0  0  0  0  0  0  0  0  0  0
    2.8930   -3.0840    0.4875 H   0  0  0  0  0  0  0  0  0  0  0  0
    3.2101   -2.5013    2.1704 H   0  0  0  0  0  0  0  0  0  0  0  0
    4.3213   -1.2651    0.4071 H   0  0  0  0  0  0  0  0  0  0  0  0
    5.3553    0.8593   -0.2276 H   0  0  0  0  0  0  0  0  0  0  0  0
    4.0220    2.9514   -0.2477 H   0  0  0  0  0  0  0  0  0  0  0  0
    1.6564    2.9261    0.3713 H   0  0  0  0  0  0  0  0  0  0  0  0
   -0.0383   -0.2713    1.3459 H   0  0  0  0  0  0  0  0  0  0  0  0
   -2.4504    1.8198    2.3941 H   0  0  0  0  0  0  0  0  0  0  0  0
   -2.0499    0.1548    2.0357 H   0  0  0  0  0  0  0  0  0  0  0  0
   -3.1016    2.1892    0.1422 H   0  0  0  0  0  0  0  0  0  0  0  0
   -3.5091    1.7966   -2.0621 H   0  0  0  0  0  0  0  0  0  0  0  0
   -3.3433    0.2552   -3.9833 H   0  0  0  0  0  0  0  0  0  0  0  0
   -2.4393   -1.4299    0.5940 H   0  0  0  0  0  0  0  0  0  0  0  0
  1  2  1  0
  2  3  1  0
  3  4  2  0
  4  5  1  0
  5  6  2  0
  6  7  1  0
  7  8  2  0
  8  9  1  0
  9 10  1  0
 10 11  2  0
 10 12  1  0
 12 13  1  0
 13 14  1  0
 14 15  2  0
 15 16  1  0
 16 17  2  0
 17 18  1  0
 17 19  1  0
 19 20  1  0
 19 21  2  0
  8  3  1  0
 21 14  1  0
  1 22  1  0
  1 23  1  0
  1 24  1  0
  4 25  1  0
  5 26  1  0
  6 27  1  0
  7 28  1  0
  9 29  1  0
 12 30  1  0
 12 31  1  0
 13 32  1  0
 15 33  1  0
 16 34  1  0
 21 35  1  0
M  END
$$$$
