
     RDKit          3D

 45 47  0  0  0  0  0  0  0  0999 V2000
    7.7231    0.2858    0.4486 C   0  0  0  0  0  0  0  0  0  0  0  0
    7.0227   -0.7361    1.3374 C   0  0  0  0  0  0  0  0  0  0  0  0
    5.8525   -0.1774    1.9385 O   0  0  0  0  0  0  0  0  0  0  0  0
    4.6762   -0.1917    1.2476 C   0  0  0  0  0  0  0  0  0  0  0  0
    3.6080    0.4075    1.9132 C   0  0  0  0  0  0  0  0  0  0  0  0
    2.3381    0.4738    1.3286 C   0  0  0  0  0  0  0  0  0  0  0  0
    2.1191   -0.0607    0.0613 C   0  0  0  0  0  0  0  0  0  0  0  0
    0.8717   -0.0462   -0.5933 N   0  0  0  0  0  0  0  0  0  0  0  0
   -0.2650    0.6400   -0.2179 C   0  0  0  0  0  0  0  0  0  0  0  0
   -0.3689    1.4359    0.7059 O   0  0  0  0  0  0  0  0  0  0  0  0
   -1.3143    0.3249   -1.0566 N   0  0  0  0  0  0  0  0  0  0  0  0
   -2.6438    0.8996   -0.8677 C   0  0  0  0  0  0  0  0  0  0  0  0
   -3.1237    1.4208   -2.2329 C   0  0  0  0  0  0  0  0  0  0  0  0
   -4.6020    1.7763   -2.1941 C   0  0  0  0  0  0  0  0  0  0  0  0
   -5.4273    0.5216   -1.9218 C   0  0  0  0  0  0  0  0  0  0  0  0
   -4.9194   -0.2678   -0.7375 C   0  0  0  0  0  0  0  0  0  0  0  0
   -5.7811   -1.2014   -0.1325 C   0  0  0  0  0  0  0  0  0  0  0  0
   -5.3679   -1.9408    0.9759 C   0  0  0  0  0  0  0  0  0  0  0  0
   -4.0905   -1.7571    1.4927 C   0  0  0  0  0  0  0  0  0  0  0  0
   -3.2199   -0.8448    0.8909 C   0  0  0  0  0  0  0  0  0  0  0  0
   -3.6067   -0.1087   -0.2471 C   0  0  0  0  0  0  0  0  0  0  0  0
    3.1880   -0.6707   -0.6027 C   0  0  0  0  0  0  0  0  0  0  0  0
    4.4600   -0.7318   -0.0170 C   0  0  0  0  0  0  0  0  0  0  0  0
    7.1030    0.5542   -0.4093 H   0  0  0  0  0  0  0  0  0  0  0  0
    8.6768   -0.1108    0.0791 H   0  0  0  0  0  0  0  0  0  0  0  0
    7.9219    1.2144    1.0007 H   0  0  0  0  0  0  0  0  0  0  0  0
    7.6988   -0.9936    2.1628 H   0  0  0  0  0  0  0  0  0  0  0  0
    6.8191   -1.6771    0.8164 H   0  0  0  0  0  0  0  0  0  0  0  0
    3.7609    0.8305    2.9032 H   0  0  0  0  0  0  0  0  0  0  0  0
    1.5418    0.9432    1.8950 H   0  0  0  0  0  0  0  0  0  0  0  0
    0.8412   -0.4453   -1.5178 H   0  0  0  0  0  0  0  0  0  0  0  0
   -1.3001   -0.6056   -1.4466 H   0  0  0  0  0  0  0  0  0  0  0  0
   -2.5856    1.7534   -0.1783 H   0  0  0  0  0  0  0  0  0  0  0  0
   -2.9561    0.6638   -3.0139 H   0  0  0  0  0  0  0  0  0  0  0  0
   -2.5298    2.2978   -2.5234 H   0  0  0  0  0  0  0  0  0  0  0  0
   -4.7850    2.5264   -1.4138 H   0  0  0  0  0  0  0  0  0  0  0  0
   -4.9091    2.2201   -3.1486 H   0  0  0  0  0  0  0  0  0  0  0  0
   -5.4114   -0.1324   -2.8051 H   0  0  0  0  0  0  0  0  0  0  0  0
   -6.4690    0.8209   -1.7505 H   0  0  0  0  0  0  0  0  0  0  0  0
   -6.7897   -1.3440   -0.5165 H   0  0  0  0  0  0  0  0  0  0  0  0
   -6.0514   -2.6458    1.4462 H   0  0  0  0  0  0  0  0  0  0  0  0
   -3.7729   -2.3134    2.3724 H   0  0  0  0  0  0  0  0  0  0  0  0
   -2.2363   -0.6957    1.3318 H   0  0  0  0  0  0  0  0  0  0  0  0
    3.0522   -1.1035   -1.5904 H   0  0  0  0  0  0  0  0  0  0  0  0
    5.2517   -1.2088   -0.5783 H   0  0  0  0  0  0  0  0  0  0  0  0
  1  2  1  0
  2  3  1  0
  3  4  1  0
  4  5  2  0
  5  6  1  0
  6  7  2  0
  7  8  1  0
  8  9  1  0
  9 10  2  0
  9 11  1  0
 11 12  1  0
 12 13  1  0
 13 14  1  0
 14 15  1  0
 15 16  1  0
 16 17  2  0
 17 18  1  0
 18 19  2  0
 19 20  1  0
 20 21  2  0
  7 22  1  0
 22 23  2  0
 23  4  1  0
 21 12  1  0
 21 16  1  0
  1 24  1  0
  1 25  1  0
  1 26  1  0
  2 27  1  0
  2 28  1  0
  5 29  1  0
  6 30  1  0
  8 31  1  0
 11 32  1  0
 12 33  1  0
 13 34  1  0
 13 35  1  0
 14 36  1  0
 14 37  1  0
 15 38  1  0
 15 39  1  0
 17 40  1  0
 18 41  1  0
 19 42  1  0
 20 43  1  0
 22 44  1  0
 23 45  1  0
M  END
$$$$
