
     RDKit          3D

 51 54  0  0  0  0  0  0  0  0999 V2000
    5.5348   -1.9618    2.9957 C   0  0  0  0  0  0  0  0  0  0  0  0
    4.9069   -1.6427    1.6713 C   0  0  0  0  0  0  0  0  0  0  0  0
    5.6080   -1.8697    0.4816 C   0  0  0  0  0  0  0  0  0  0  0  0
    5.0379   -1.5441   -0.7517 C   0  0  0  0  0  0  0  0  0  0  0  0
    3.7621   -0.9700   -0.8144 C   0  0  0  0  0  0  0  0  0  0  0  0
    3.1297   -0.6306   -2.1405 C   0  0  0  0  0  0  0  0  0  0  0  0
    2.0963   -1.6004   -2.4777 N   0  0  0  0  0  0  0  0  0  0  0  0
    0.9222   -1.1676   -3.5799 S   0  0  0  0  0  6  0  0  0  0  0  0
    0.2667   -2.3884   -3.9911 O   0  0  0  0  0  0  0  0  0  0  0  0
    1.5145   -0.2567   -4.5336 O   0  0  0  0  0  0  0  0  0  0  0  0
   -0.2166   -0.2707   -2.5555 C   0  0  0  0  0  0  0  0  0  0  0  0
   -0.9751   -0.9719   -1.6051 C   0  0  0  0  0  0  0  0  0  0  0  0
   -1.8797   -0.2920   -0.7781 C   0  0  0  0  0  0  0  0  0  0  0  0
   -2.0204    1.0788   -0.9185 C   0  0  0  0  0  0  0  0  0  0  0  0
   -1.2514    1.7627   -1.8716 C   0  0  0  0  0  0  0  0  0  0  0  0
   -0.3537    1.1087   -2.7055 C   0  0  0  0  0  0  0  0  0  0  0  0
   -1.5646    3.2254   -1.8838 C   0  0  0  0  0  0  0  0  0  0  0  0
   -2.4570    3.3578   -0.6514 C   0  0  0  0  0  0  0  0  0  0  0  0
   -2.8253    1.9995   -0.2231 N   0  0  0  0  0  0  0  0  0  0  0  0
   -3.7791    1.8468    0.7795 C   0  0  0  0  0  0  0  0  0  0  0  0
   -4.2387    2.8603    1.3326 O   0  0  0  0  0  0  0  0  0  0  0  0
   -4.2839    0.4318    1.1602 C   0  0  0  0  0  0  0  0  0  0  0  0
   -3.5394   -0.3056    2.3099 C   0  0  0  0  0  0  0  0  0  0  0  0
   -4.6212    0.2071    3.2751 C   0  0  0  0  0  0  0  0  0  0  0  0
   -5.5532    0.3407    2.0594 C   0  0  0  0  0  0  0  0  0  0  0  0
    3.0636   -0.7378    0.3788 C   0  0  0  0  0  0  0  0  0  0  0  0
    3.6347   -1.0638    1.6108 C   0  0  0  0  0  0  0  0  0  0  0  0
    4.7718   -2.2160    3.7391 H   0  0  0  0  0  0  0  0  0  0  0  0
    6.1065   -1.1010    3.3557 H   0  0  0  0  0  0  0  0  0  0  0  0
    6.2057   -2.8233    2.9122 H   0  0  0  0  0  0  0  0  0  0  0  0
    6.6048   -2.3049    0.5080 H   0  0  0  0  0  0  0  0  0  0  0  0
    5.6012   -1.7401   -1.6615 H   0  0  0  0  0  0  0  0  0  0  0  0
    3.8915   -0.6298   -2.9284 H   0  0  0  0  0  0  0  0  0  0  0  0
    2.7213    0.3846   -2.0801 H   0  0  0  0  0  0  0  0  0  0  0  0
    2.3415   -2.5882   -2.4806 H   0  0  0  0  0  0  0  0  0  0  0  0
   -0.8602   -2.0499   -1.5032 H   0  0  0  0  0  0  0  0  0  0  0  0
   -2.4242   -0.8731   -0.0491 H   0  0  0  0  0  0  0  0  0  0  0  0
    0.2180    1.6580   -3.4482 H   0  0  0  0  0  0  0  0  0  0  0  0
   -2.1123    3.4866   -2.7952 H   0  0  0  0  0  0  0  0  0  0  0  0
   -0.6681    3.8462   -1.7996 H   0  0  0  0  0  0  0  0  0  0  0  0
   -1.9205    3.8380    0.1766 H   0  0  0  0  0  0  0  0  0  0  0  0
   -3.3555    3.9494   -0.8599 H   0  0  0  0  0  0  0  0  0  0  0  0
   -4.4420   -0.1793    0.2627 H   0  0  0  0  0  0  0  0  0  0  0  0
   -2.5239    0.0367    2.5274 H   0  0  0  0  0  0  0  0  0  0  0  0
   -3.5284   -1.3960    2.1971 H   0  0  0  0  0  0  0  0  0  0  0  0
   -4.9432   -0.4977    4.0457 H   0  0  0  0  0  0  0  0  0  0  0  0
   -4.3726    1.1635    3.7490 H   0  0  0  0  0  0  0  0  0  0  0  0
   -6.2148    1.2109    2.0671 H   0  0  0  0  0  0  0  0  0  0  0  0
   -6.1591   -0.5536    1.8692 H   0  0  0  0  0  0  0  0  0  0  0  0
    2.0671   -0.3011    0.3535 H   0  0  0  0  0  0  0  0  0  0  0  0
    3.0777   -0.8656    2.5239 H   0  0  0  0  0  0  0  0  0  0  0  0
  1  2  1  0
  2  3  2  0
  3  4  1  0
  4  5  2  0
  5  6  1  0
  6  7  1  0
  7  8  1  0
  8  9  2  0
  8 10  2  0
  8 11  1  0
 11 12  2  0
 12 13  1  0
 13 14  2  0
 14 15  1  0
 15 16  2  0
 15 17  1  0
 17 18  1  0
 18 19  1  0
 19 20  1  0
 20 21  2  0
 20 22  1  0
 22 23  1  0
 23 24  1  0
 24 25  1  0
  5 26  1  0
 26 27  2  0
 27  2  1  0
 16 11  1  0
 25 22  1  0
 19 14  1  0
  1 28  1  0
  1 29  1  0
  1 30  1  0
  3 31  1  0
  4 32  1  0
  6 33  1  0
  6 34  1  0
  7 35  1  0
 12 36  1  0
 13 37  1  0
 16 38  1  0
 17 39  1  0
 17 40  1  0
 18 41  1  0
 18 42  1  0
 22 43  1  0
 23 44  1  0
 23 45  1  0
 24 46  1  0
 24 47  1  0
 25 48  1  0
 25 49  1  0
 26 50  1  0
 27 51  1  0
M  END
$$$$
