
     RDKit          3D

 48 50  0  0  0  0  0  0  0  0999 V2000
    4.5281   -3.0712   -3.4140 C   0  0  0  0  0  0  0  0  0  0  0  0
    4.1237   -2.2962   -2.1944 C   0  0  0  0  0  0  0  0  0  0  0  0
    5.0810   -1.9036   -1.2558 C   0  0  0  0  0  0  0  0  0  0  0  0
    4.7414   -1.1936   -0.0856 C   0  0  0  0  0  0  0  0  0  0  0  0
    5.8292   -0.8190    0.8815 C   0  0  0  0  0  0  0  0  0  0  0  0
    3.3700   -0.9213    0.1192 C   0  0  0  0  0  0  0  0  0  0  0  0
    2.5857   -0.1253    1.4340 S   0  0  0  0  0  0  0  0  0  0  0  0
    1.0676   -0.3012    0.6683 C   0  0  0  0  0  0  0  0  0  0  0  0
   -0.1170    0.1245    1.2817 N   0  0  0  0  0  0  0  0  0  0  0  0
   -1.3935   -0.2575    0.6492 C   0  0  0  0  0  0  0  0  0  0  0  0
   -1.8080    0.7282   -0.4500 C   0  0  0  0  0  0  0  0  0  0  0  0
   -3.1405    0.3047   -1.0798 C   0  0  0  0  0  0  0  0  0  0  0  0
   -3.5444    1.1611   -2.2068 N   0  0  0  0  0  0  0  0  0  0  0  0
   -3.9059    2.5137   -1.7777 C   0  0  0  0  0  0  0  0  0  0  0  0
   -4.6713    0.5537   -2.9207 C   0  0  0  0  0  0  0  0  0  0  0  0
   -0.0789    1.1665    2.2267 C   0  0  0  0  0  0  0  0  0  0  0  0
    0.8045    2.0223    2.2595 O   0  0  0  0  0  0  0  0  0  0  0  0
   -1.1917    1.2543    3.1653 C   0  0  0  0  0  0  0  0  0  0  0  0
   -1.9264    2.3797    3.4944 C   0  0  0  0  0  0  0  0  0  0  0  0
   -2.9060    2.1137    4.4974 C   0  0  0  0  0  0  0  0  0  0  0  0
   -2.8415    0.8092    4.9166 C   0  0  0  0  0  0  0  0  0  0  0  0
   -3.9880    0.0752    6.2576 Br  0  0  0  0  0  0  0  0  0  0  0  0
   -1.6295   -0.0871    4.1442 S   0  0  0  0  0  0  0  0  0  0  0  0
    1.0881   -0.9808   -0.4558 N   0  0  0  0  0  0  0  0  0  0  0  0
    2.3891   -1.3129   -0.7940 C   0  0  0  0  0  0  0  0  0  0  0  0
    2.7739   -2.0097   -1.9569 C   0  0  0  0  0  0  0  0  0  0  0  0
    3.8253   -2.9027   -4.2368 H   0  0  0  0  0  0  0  0  0  0  0  0
    4.5541   -4.1411   -3.1855 H   0  0  0  0  0  0  0  0  0  0  0  0
    5.5176   -2.7583   -3.7637 H   0  0  0  0  0  0  0  0  0  0  0  0
    6.1282   -2.1501   -1.4341 H   0  0  0  0  0  0  0  0  0  0  0  0
    5.5238   -0.0045    1.5443 H   0  0  0  0  0  0  0  0  0  0  0  0
    6.0958   -1.6862    1.4936 H   0  0  0  0  0  0  0  0  0  0  0  0
    6.7201   -0.4791    0.3425 H   0  0  0  0  0  0  0  0  0  0  0  0
   -1.3033   -1.2749    0.2490 H   0  0  0  0  0  0  0  0  0  0  0  0
   -2.1909   -0.2994    1.3944 H   0  0  0  0  0  0  0  0  0  0  0  0
   -1.0307    0.7761   -1.2224 H   0  0  0  0  0  0  0  0  0  0  0  0
   -1.8869    1.7309   -0.0155 H   0  0  0  0  0  0  0  0  0  0  0  0
   -3.9262    0.2773   -0.3133 H   0  0  0  0  0  0  0  0  0  0  0  0
   -3.0170   -0.7238   -1.4441 H   0  0  0  0  0  0  0  0  0  0  0  0
   -4.7115    2.5096   -1.0347 H   0  0  0  0  0  0  0  0  0  0  0  0
   -4.2341    3.1140   -2.6343 H   0  0  0  0  0  0  0  0  0  0  0  0
   -3.0450    3.0411   -1.3557 H   0  0  0  0  0  0  0  0  0  0  0  0
   -5.5543    0.4435   -2.2806 H   0  0  0  0  0  0  0  0  0  0  0  0
   -4.9483    1.1589   -3.7913 H   0  0  0  0  0  0  0  0  0  0  0  0
   -4.3972   -0.4351   -3.3054 H   0  0  0  0  0  0  0  0  0  0  0  0
   -1.7655    3.3468    3.0307 H   0  0  0  0  0  0  0  0  0  0  0  0
   -3.5986    2.8476    4.8911 H   0  0  0  0  0  0  0  0  0  0  0  0
    2.0050   -2.3177   -2.6592 H   0  0  0  0  0  0  0  0  0  0  0  0
  1  2  1  0
  2  3  2  0
  3  4  1  0
  4  5  1  0
  4  6  2  0
  6  7  1  0
  7  8  1  0
  8  9  1  0
  9 10  1  0
 10 11  1  0
 11 12  1  0
 12 13  1  0
 13 14  1  0
 13 15  1  0
  9 16  1  0
 16 17  2  0
 16 18  1  0
 18 19  2  0
 19 20  1  0
 20 21  2  0
 21 22  1  0
 21 23  1  0
  8 24  2  0
 24 25  1  0
 25 26  2  0
 26  2  1  0
 25  6  1  0
 23 18  1  0
  1 27  1  0
  1 28  1  0
  1 29  1  0
  3 30  1  0
  5 31  1  0
  5 32  1  0
  5 33  1  0
 10 34  1  0
 10 35  1  0
 11 36  1  0
 11 37  1  0
 12 38  1  0
 12 39  1  0
 14 40  1  0
 14 41  1  0
 14 42  1  0
 15 43  1  0
 15 44  1  0
 15 45  1  0
 19 46  1  0
 20 47  1  0
 26 48  1  0
M  END
$$$$
