
     RDKit          3D

 74 78  0  0  0  0  0  0  0  0999 V2000
    0.3012    5.8681   -1.3349 C   0  0  0  0  0  0  0  0  0  0  0  0
    0.1896    4.4496   -0.8599 C   0  0  0  0  0  0  0  0  0  0  0  0
    1.1940    3.8823   -0.0733 C   0  0  0  0  0  0  0  0  0  0  0  0
    1.1222    2.5449    0.3563 C   0  0  0  0  0  0  0  0  0  0  0  0
    2.2114    2.0641    1.2806 C   0  0  0  0  0  0  0  0  0  0  0  0
    0.0451    1.7394   -0.0750 C   0  0  0  0  0  0  0  0  0  0  0  0
   -0.0322    0.3799    0.3463 N   0  0  0  0  0  0  0  0  0  0  0  0
   -0.9501   -0.0141    1.3236 C   0  0  0  0  0  0  0  0  0  0  0  0
   -1.3050   -1.1923    1.4510 O   0  0  0  0  0  0  0  0  0  0  0  0
   -1.4861    1.0723    2.2647 C   0  0  0  0  0  0  0  0  0  0  0  0
   -1.7272    0.4967    3.5899 N   0  0  0  0  0  0  0  0  0  0  0  0
   -2.8779   -0.2348    3.9574 C   0  0  0  0  0  0  0  0  0  0  0  0
   -3.9340   -0.2427    3.3534 O   0  0  0  0  0  0  0  0  0  0  0  0
   -2.6009   -0.9727    5.2035 C   0  0  0  0  0  0  0  0  0  0  0  0
   -3.5009   -1.7526    5.9131 C   0  0  0  0  0  0  0  0  0  0  0  0
   -3.0530   -2.3656    7.0893 C   0  0  0  0  0  0  0  0  0  0  0  0
   -1.7273   -2.1947    7.5349 C   0  0  0  0  0  0  0  0  0  0  0  0
   -0.8261   -1.4092    6.8114 C   0  0  0  0  0  0  0  0  0  0  0  0
   -1.2949   -0.8165    5.6524 C   0  0  0  0  0  0  0  0  0  0  0  0
   -0.3969    0.2129    4.5770 S   0  0  0  0  0  6  0  0  0  0  0  0
   -0.0685    1.4350    5.2720 O   0  0  0  0  0  0  0  0  0  0  0  0
    0.5812   -0.5814    3.8739 O   0  0  0  0  0  0  0  0  0  0  0  0
    0.5544   -0.6720   -0.5179 C   0  0  0  0  0  0  0  0  0  0  0  0
    0.0002   -0.7051   -1.9712 C   0  0  0  0  0  0  0  0  0  0  0  0
    0.2484    0.1493   -2.8209 O   0  0  0  0  0  0  0  0  0  0  0  0
   -0.8332   -1.7778   -2.2491 N   0  0  0  0  0  0  0  0  0  0  0  0
   -1.4014   -1.9871   -3.5677 C   0  0  0  0  0  0  0  0  0  0  0  0
   -0.5800   -2.9511   -4.4442 C   0  0  0  0  0  0  0  0  0  0  0  0
    0.7875   -2.4363   -4.8677 C   0  0  0  0  0  0  0  0  0  0  0  0
    0.4740   -1.6710   -6.1306 C   0  0  0  0  0  0  0  0  0  0  0  0
   -0.6108   -2.5230   -6.7483 C   0  0  0  0  0  0  0  0  0  0  0  0
   -1.3074   -3.1730   -5.6722 O   0  0  0  0  0  0  0  0  0  0  0  0
    2.0801   -0.7670   -0.4275 C   0  0  0  0  0  0  0  0  0  0  0  0
    2.6455   -1.4485    0.6717 C   0  0  0  0  0  0  0  0  0  0  0  0
    4.0292   -1.5847    0.7947 C   0  0  0  0  0  0  0  0  0  0  0  0
    4.8590   -1.0363   -0.1743 C   0  0  0  0  0  0  0  0  0  0  0  0
    6.1869   -1.1688   -0.0597 F   0  0  0  0  0  0  0  0  0  0  0  0
    4.3308   -0.3476   -1.2583 C   0  0  0  0  0  0  0  0  0  0  0  0
    2.9451   -0.2057   -1.3832 C   0  0  0  0  0  0  0  0  0  0  0  0
   -1.0004    2.3145   -0.8377 C   0  0  0  0  0  0  0  0  0  0  0  0
   -2.2278    1.5722   -1.3036 C   0  0  0  0  0  0  0  0  0  0  0  0
   -0.8985    3.6599   -1.2358 C   0  0  0  0  0  0  0  0  0  0  0  0
    0.8435    5.9031   -2.2855 H   0  0  0  0  0  0  0  0  0  0  0  0
    0.8315    6.4843   -0.6009 H   0  0  0  0  0  0  0  0  0  0  0  0
   -0.6903    6.3124   -1.4737 H   0  0  0  0  0  0  0  0  0  0  0  0
    2.0439    4.4950    0.2272 H   0  0  0  0  0  0  0  0  0  0  0  0
    1.8967    1.2055    1.8774 H   0  0  0  0  0  0  0  0  0  0  0  0
    2.4713    2.8506    2.0003 H   0  0  0  0  0  0  0  0  0  0  0  0
    3.1117    1.8159    0.7126 H   0  0  0  0  0  0  0  0  0  0  0  0
   -2.4193    1.4672    1.8505 H   0  0  0  0  0  0  0  0  0  0  0  0
   -0.7892    1.9058    2.3729 H   0  0  0  0  0  0  0  0  0  0  0  0
   -4.5233   -1.8808    5.5666 H   0  0  0  0  0  0  0  0  0  0  0  0
   -3.7408   -2.9792    7.6716 H   0  0  0  0  0  0  0  0  0  0  0  0
   -1.4052   -2.6818    8.4557 H   0  0  0  0  0  0  0  0  0  0  0  0
    0.1977   -1.2687    7.1466 H   0  0  0  0  0  0  0  0  0  0  0  0
    0.2359   -1.6392   -0.1036 H   0  0  0  0  0  0  0  0  0  0  0  0
   -1.1247   -2.3939   -1.4987 H   0  0  0  0  0  0  0  0  0  0  0  0
   -1.5438   -1.0252   -4.0732 H   0  0  0  0  0  0  0  0  0  0  0  0
   -2.4044   -2.4035   -3.4165 H   0  0  0  0  0  0  0  0  0  0  0  0
   -0.4819   -3.9116   -3.9244 H   0  0  0  0  0  0  0  0  0  0  0  0
    1.4324   -3.2871   -5.1205 H   0  0  0  0  0  0  0  0  0  0  0  0
    1.3116   -1.8450   -4.1178 H   0  0  0  0  0  0  0  0  0  0  0  0
    1.3395   -1.5441   -6.7870 H   0  0  0  0  0  0  0  0  0  0  0  0
    0.0852   -0.6740   -5.8851 H   0  0  0  0  0  0  0  0  0  0  0  0
   -0.1817   -3.3002   -7.3849 H   0  0  0  0  0  0  0  0  0  0  0  0
   -1.3204   -1.9415   -7.3404 H   0  0  0  0  0  0  0  0  0  0  0  0
    2.0037   -1.8710    1.4466 H   0  0  0  0  0  0  0  0  0  0  0  0
    4.4600   -2.1104    1.6410 H   0  0  0  0  0  0  0  0  0  0  0  0
    4.9996    0.0817   -1.9993 H   0  0  0  0  0  0  0  0  0  0  0  0
    2.5597    0.3598   -2.2310 H   0  0  0  0  0  0  0  0  0  0  0  0
   -2.2120    1.4694   -2.3939 H   0  0  0  0  0  0  0  0  0  0  0  0
   -2.3234    0.5741   -0.8737 H   0  0  0  0  0  0  0  0  0  0  0  0
   -3.1275    2.1278   -1.0147 H   0  0  0  0  0  0  0  0  0  0  0  0
   -1.6815    4.0948   -1.8560 H   0  0  0  0  0  0  0  0  0  0  0  0
  1  2  1  0
  2  3  2  0
  3  4  1  0
  4  5  1  0
  4  6  2  0
  6  7  1  0
  7  8  1  0
  8  9  2  0
  8 10  1  0
 10 11  1  0
 11 12  1  0
 12 13  2  0
 12 14  1  0
 14 15  2  0
 15 16  1  0
 16 17  2  0
 17 18  1  0
 18 19  2  0
 19 20  1  0
 20 21  2  0
 20 22  2  0
  7 23  1  0
 23 24  1  0
 24 25  2  0
 24 26  1  0
 26 27  1  0
 27 28  1  0
 28 29  1  0
 29 30  1  0
 30 31  1  0
 31 32  1  0
 23 33  1  0
 33 34  2  0
 34 35  1  0
 35 36  2  0
 36 37  1  0
 36 38  1  0
 38 39  2  0
  6 40  1  0
 40 41  1  0
 40 42  2  0
 42  2  1  0
 20 11  1  0
 32 28  1  0
 39 33  1  0
 19 14  1  0
  1 43  1  0
  1 44  1  0
  1 45  1  0
  3 46  1  0
  5 47  1  0
  5 48  1  0
  5 49  1  0
 10 50  1  0
 10 51  1  0
 15 52  1  0
 16 53  1  0
 17 54  1  0
 18 55  1  0
 23 56  1  0
 26 57  1  0
 27 58  1  0
 27 59  1  0
 28 60  1  0
 29 61  1  0
 29 62  1  0
 30 63  1  0
 30 64  1  0
 31 65  1  0
 31 66  1  0
 34 67  1  0
 35 68  1  0
 38 69  1  0
 39 70  1  0
 41 71  1  0
 41 72  1  0
 41 73  1  0
 42 74  1  0
M  END
$$$$
