
     RDKit          3D

 61 64  0  0  0  0  0  0  0  0999 V2000
    6.7618   -4.7970    4.4948 C   0  0  0  0  0  0  0  0  0  0  0  0
    6.3539   -3.7842    3.4542 C   0  0  0  0  0  0  0  0  0  0  0  0
    6.8791   -3.7712    2.3474 O   0  0  0  0  0  0  0  0  0  0  0  0
    5.3762   -2.9257    3.9239 N   0  0  0  0  0  0  0  0  0  0  0  0
    4.7882   -1.8393    3.2439 C   0  0  0  0  0  0  0  0  0  0  0  0
    3.8044   -1.1135    3.9329 C   0  0  0  0  0  0  0  0  0  0  0  0
    3.1761   -0.0154    3.3384 C   0  0  0  0  0  0  0  0  0  0  0  0
    3.5330    0.3572    2.0421 C   0  0  0  0  0  0  0  0  0  0  0  0
    2.7680    1.7620    1.2750 S   0  0  0  0  0  6  0  0  0  0  0  0
    3.8216    2.5546    0.6775 O   0  0  0  0  0  0  0  0  0  0  0  0
    1.8373    2.3485    2.2153 O   0  0  0  0  0  0  0  0  0  0  0  0
    1.8512    1.0636    0.0144 N   0  0  0  0  0  0  0  0  0  0  0  0
    0.8181    0.0626    0.4591 C   0  0  0  0  0  0  0  0  0  0  0  0
   -0.2101   -0.2187   -0.6515 C   0  0  0  0  0  0  0  0  0  0  0  0
   -0.9611    0.9994   -1.0498 N   0  0  0  0  0  0  0  0  0  0  0  0
   -2.2726    1.0028   -0.6789 C   0  0  0  0  0  0  0  0  0  0  0  0
   -2.7890    1.5340    0.4041 N   0  0  0  0  0  0  0  0  0  0  0  0
   -4.1347    1.2850    0.3370 C   0  0  0  0  0  0  0  0  0  0  0  0
   -5.1487    1.6280    1.2432 C   0  0  0  0  0  0  0  0  0  0  0  0
   -6.4679    1.2592    0.9511 C   0  0  0  0  0  0  0  0  0  0  0  0
   -6.7710    0.5631   -0.2205 C   0  0  0  0  0  0  0  0  0  0  0  0
   -5.7724    0.2123   -1.1362 C   0  0  0  0  0  0  0  0  0  0  0  0
   -4.4595    0.5902   -0.8242 C   0  0  0  0  0  0  0  0  0  0  0  0
   -3.2507    0.4378   -1.4688 N   0  0  0  0  0  0  0  0  0  0  0  0
   -3.0618   -0.1963   -2.7599 C   0  0  0  0  0  0  0  0  0  0  0  0
   -3.4513    0.6903   -3.9561 C   0  0  0  0  0  0  0  0  0  0  0  0
   -2.5360    1.9078   -4.0979 C   0  0  0  0  0  0  0  0  0  0  0  0
   -3.4131   -0.1351   -5.2436 C   0  0  0  0  0  0  0  0  0  0  0  0
   -0.2423    2.2597   -0.7311 C   0  0  0  0  0  0  0  0  0  0  0  0
    1.2720    2.0907   -0.9260 C   0  0  0  0  0  0  0  0  0  0  0  0
    4.5135   -0.3499    1.3445 C   0  0  0  0  0  0  0  0  0  0  0  0
    5.1355   -1.4489    1.9468 C   0  0  0  0  0  0  0  0  0  0  0  0
    7.3529   -4.3050    5.2709 H   0  0  0  0  0  0  0  0  0  0  0  0
    5.8787   -5.2633    4.9404 H   0  0  0  0  0  0  0  0  0  0  0  0
    7.3656   -5.5803    4.0277 H   0  0  0  0  0  0  0  0  0  0  0  0
    5.0487   -3.0889    4.8678 H   0  0  0  0  0  0  0  0  0  0  0  0
    3.5167   -1.3875    4.9452 H   0  0  0  0  0  0  0  0  0  0  0  0
    2.4228    0.5412    3.8925 H   0  0  0  0  0  0  0  0  0  0  0  0
    1.3274   -0.8752    0.7055 H   0  0  0  0  0  0  0  0  0  0  0  0
    0.2982    0.4197    1.3545 H   0  0  0  0  0  0  0  0  0  0  0  0
    0.3113   -0.5950   -1.5405 H   0  0  0  0  0  0  0  0  0  0  0  0
   -0.8883   -1.0180   -0.3225 H   0  0  0  0  0  0  0  0  0  0  0  0
   -4.9035    2.1709    2.1499 H   0  0  0  0  0  0  0  0  0  0  0  0
   -7.2632    1.5209    1.6450 H   0  0  0  0  0  0  0  0  0  0  0  0
   -7.8045    0.2910   -0.4275 H   0  0  0  0  0  0  0  0  0  0  0  0
   -6.0165   -0.3231   -2.0472 H   0  0  0  0  0  0  0  0  0  0  0  0
   -3.6727   -1.1074   -2.7486 H   0  0  0  0  0  0  0  0  0  0  0  0
   -2.0218   -0.5281   -2.8446 H   0  0  0  0  0  0  0  0  0  0  0  0
   -4.4774    1.0540   -3.8205 H   0  0  0  0  0  0  0  0  0  0  0  0
   -1.4877    1.6068   -4.1967 H   0  0  0  0  0  0  0  0  0  0  0  0
   -2.6212    2.5725   -3.2331 H   0  0  0  0  0  0  0  0  0  0  0  0
   -2.8051    2.4926   -4.9848 H   0  0  0  0  0  0  0  0  0  0  0  0
   -3.7234    0.4697   -6.1027 H   0  0  0  0  0  0  0  0  0  0  0  0
   -2.4044   -0.5134   -5.4433 H   0  0  0  0  0  0  0  0  0  0  0  0
   -4.0914   -0.9927   -5.1768 H   0  0  0  0  0  0  0  0  0  0  0  0
   -0.4366    2.5763    0.3020 H   0  0  0  0  0  0  0  0  0  0  0  0
   -0.6058    3.0506   -1.3974 H   0  0  0  0  0  0  0  0  0  0  0  0
    1.4901    1.7597   -1.9479 H   0  0  0  0  0  0  0  0  0  0  0  0
    1.7636    3.0615   -0.8033 H   0  0  0  0  0  0  0  0  0  0  0  0
    4.8026   -0.0503    0.3386 H   0  0  0  0  0  0  0  0  0  0  0  0
    5.8973   -1.9728    1.3769 H   0  0  0  0  0  0  0  0  0  0  0  0
  1  2  1  0
  2  3  2  0
  2  4  1  0
  4  5  1  0
  5  6  2  0
  6  7  1  0
  7  8  2  0
  8  9  1  0
  9 10  2  0
  9 11  2  0
  9 12  1  0
 12 13  1  0
 13 14  1  0
 14 15  1  0
 15 16  1  0
 16 17  2  0
 17 18  1  0
 18 19  2  0
 19 20  1  0
 20 21  2  0
 21 22  1  0
 22 23  2  0
 23 24  1  0
 24 25  1  0
 25 26  1  0
 26 27  1  0
 26 28  1  0
 15 29  1  0
 29 30  1  0
  8 31  1  0
 31 32  2  0
 32  5  1  0
 30 12  1  0
 24 16  1  0
 23 18  1  0
  1 33  1  0
  1 34  1  0
  1 35  1  0
  4 36  1  0
  6 37  1  0
  7 38  1  0
 13 39  1  0
 13 40  1  0
 14 41  1  0
 14 42  1  0
 19 43  1  0
 20 44  1  0
 21 45  1  0
 22 46  1  0
 25 47  1  0
 25 48  1  0
 26 49  1  0
 27 50  1  0
 27 51  1  0
 27 52  1  0
 28 53  1  0
 28 54  1  0
 28 55  1  0
 29 56  1  0
 29 57  1  0
 30 58  1  0
 30 59  1  0
 31 60  1  0
 32 61  1  0
M  END
$$$$
