
     RDKit          3D

 43 45  0  0  0  0  0  0  0  0999 V2000
    6.4472   -0.0622   -0.7305 C   0  0  0  0  0  0  0  0  0  0  0  0
    5.1908    0.2975   -1.5089 C   0  0  0  0  0  0  0  0  0  0  0  0
    4.5363    1.5960   -1.0321 C   0  0  0  0  0  0  0  0  0  0  0  0
    3.8793    1.5249    0.3517 C   0  0  0  0  0  0  0  0  0  0  0  0
    2.7321    0.6201    0.4271 N   0  0  0  0  0  0  0  0  0  0  0  0
    1.5440    0.9690   -0.3368 C   0  0  0  0  0  0  0  0  0  0  0  0
    0.3422    0.1638    0.0219 C   0  0  0  0  0  0  0  0  0  0  0  0
   -0.9522    0.5328   -0.3540 C   0  0  0  0  0  0  0  0  0  0  0  0
   -2.0202   -0.3101   -0.0432 C   0  0  0  0  0  0  0  0  0  0  0  0
   -3.3871    0.0639   -0.4539 C   0  0  0  0  0  0  0  0  0  0  0  0
   -3.5438    0.6302   -1.5353 O   0  0  0  0  0  0  0  0  0  0  0  0
   -4.5845   -0.2295    0.3732 C   0  0  0  0  0  0  0  0  0  0  0  0
   -4.5051   -0.3211    1.7672 C   0  0  0  0  0  0  0  0  0  0  0  0
   -5.6549   -0.6032    2.5004 C   0  0  0  0  0  0  0  0  0  0  0  0
   -5.5723   -0.6963    3.8336 F   0  0  0  0  0  0  0  0  0  0  0  0
   -6.8848   -0.7866    1.8782 C   0  0  0  0  0  0  0  0  0  0  0  0
   -6.9759   -0.6703    0.4930 C   0  0  0  0  0  0  0  0  0  0  0  0
   -5.8337   -0.3794   -0.2519 C   0  0  0  0  0  0  0  0  0  0  0  0
   -6.0083   -0.2505   -1.6036 O   0  0  0  0  0  0  0  0  0  0  0  0
   -1.7390   -1.5160    0.5839 C   0  0  0  0  0  0  0  0  0  0  0  0
   -0.4937   -1.8943    0.9586 N   0  0  0  0  0  0  0  0  0  0  0  0
    0.5136   -1.0432    0.6744 C   0  0  0  0  0  0  0  0  0  0  0  0
    1.7825   -1.4135    1.0687 N   0  0  0  0  0  0  0  0  0  0  0  0
    2.8866   -0.6236    1.0061 C   0  0  0  0  0  0  0  0  0  0  0  0
    3.9443   -1.0259    1.4856 O   0  0  0  0  0  0  0  0  0  0  0  0
    6.2324   -0.2544    0.3235 H   0  0  0  0  0  0  0  0  0  0  0  0
    6.9017   -0.9661   -1.1486 H   0  0  0  0  0  0  0  0  0  0  0  0
    7.1862    0.7435   -0.7878 H   0  0  0  0  0  0  0  0  0  0  0  0
    4.4775   -0.5325   -1.4687 H   0  0  0  0  0  0  0  0  0  0  0  0
    5.4671    0.4188   -2.5634 H   0  0  0  0  0  0  0  0  0  0  0  0
    3.7894    1.8998   -1.7750 H   0  0  0  0  0  0  0  0  0  0  0  0
    5.2916    2.3917   -1.0183 H   0  0  0  0  0  0  0  0  0  0  0  0
    3.5151    2.5227    0.6250 H   0  0  0  0  0  0  0  0  0  0  0  0
    4.6222    1.2533    1.1088 H   0  0  0  0  0  0  0  0  0  0  0  0
    1.7677    0.8163   -1.3984 H   0  0  0  0  0  0  0  0  0  0  0  0
    1.3365    2.0314   -0.1650 H   0  0  0  0  0  0  0  0  0  0  0  0
   -1.1284    1.4620   -0.8922 H   0  0  0  0  0  0  0  0  0  0  0  0
   -3.5789   -0.1630    2.3101 H   0  0  0  0  0  0  0  0  0  0  0  0
   -7.7648   -1.0062    2.4751 H   0  0  0  0  0  0  0  0  0  0  0  0
   -7.9335   -0.7943   -0.0067 H   0  0  0  0  0  0  0  0  0  0  0  0
   -5.1924    0.1517   -1.9789 H   0  0  0  0  0  0  0  0  0  0  0  0
   -2.5115   -2.2483    0.8023 H   0  0  0  0  0  0  0  0  0  0  0  0
    1.8784   -2.2989    1.5427 H   0  0  0  0  0  0  0  0  0  0  0  0
  1  2  1  0
  2  3  1  0
  3  4  1  0
  4  5  1  0
  5  6  1  0
  6  7  1  0
  7  8  2  0
  8  9  1  0
  9 10  1  0
 10 11  2  0
 10 12  1  0
 12 13  2  0
 13 14  1  0
 14 15  1  0
 14 16  2  0
 16 17  1  0
 17 18  2  0
 18 19  1  0
  9 20  2  0
 20 21  1  0
 21 22  2  0
 22 23  1  0
 23 24  1  0
 24 25  2  0
 24  5  1  0
 22  7  1  0
 18 12  1  0
  1 26  1  0
  1 27  1  0
  1 28  1  0
  2 29  1  0
  2 30  1  0
  3 31  1  0
  3 32  1  0
  4 33  1  0
  4 34  1  0
  6 35  1  0
  6 36  1  0
  8 37  1  0
 13 38  1  0
 16 39  1  0
 17 40  1  0
 19 41  1  0
 20 42  1  0
 23 43  1  0
M  END
$$$$
