
     RDKit          3D

 32 34  0  0  0  0  0  0  0  0999 V2000
    6.0219   -1.9035   -0.8527 C   0  0  0  0  0  0  0  0  0  0  0  0
    5.7189   -0.5136   -0.8543 O   0  0  0  0  0  0  0  0  0  0  0  0
    4.4130   -0.1614   -0.6398 C   0  0  0  0  0  0  0  0  0  0  0  0
    4.1807    1.2140   -0.6475 C   0  0  0  0  0  0  0  0  0  0  0  0
    2.8972    1.7334   -0.4427 C   0  0  0  0  0  0  0  0  0  0  0  0
    1.8207    0.8540   -0.2248 C   0  0  0  0  0  0  0  0  0  0  0  0
    0.5014    1.2175   -0.0092 N   0  0  0  0  0  0  0  0  0  0  0  0
   -0.2293    0.1430    0.1645 C   0  0  0  0  0  0  0  0  0  0  0  0
   -1.5775    0.2507    0.3838 N   0  0  0  0  0  0  0  0  0  0  0  0
   -2.4602   -0.7630    0.6636 C   0  0  0  0  0  0  0  0  0  0  0  0
   -2.1774   -1.9407    0.8453 O   0  0  0  0  0  0  0  0  0  0  0  0
   -3.8476   -0.3210    0.8010 C   0  0  0  0  0  0  0  0  0  0  0  0
   -4.8555   -0.9695    1.5804 C   0  0  0  0  0  0  0  0  0  0  0  0
   -6.0065   -0.2375    1.4343 C   0  0  0  0  0  0  0  0  0  0  0  0
   -5.7939    0.8072    0.5992 O   0  0  0  0  0  0  0  0  0  0  0  0
   -4.4927    0.7483    0.1934 C   0  0  0  0  0  0  0  0  0  0  0  0
   -4.1023    1.7837   -0.7901 C   0  0  0  0  0  0  0  0  0  0  0  0
    0.5852   -1.3445    0.0630 S   0  0  0  0  0  0  0  0  0  0  0  0
    2.0689   -0.5189   -0.2206 C   0  0  0  0  0  0  0  0  0  0  0  0
    3.3559   -1.0517   -0.4257 C   0  0  0  0  0  0  0  0  0  0  0  0
    5.4944   -2.4231   -1.6594 H   0  0  0  0  0  0  0  0  0  0  0  0
    5.8008   -2.3544    0.1204 H   0  0  0  0  0  0  0  0  0  0  0  0
    7.0957   -2.0115   -1.0334 H   0  0  0  0  0  0  0  0  0  0  0  0
    5.0106    1.8976   -0.8152 H   0  0  0  0  0  0  0  0  0  0  0  0
    2.7273    2.8052   -0.4503 H   0  0  0  0  0  0  0  0  0  0  0  0
   -1.8912    1.2078    0.4143 H   0  0  0  0  0  0  0  0  0  0  0  0
   -4.7354   -1.8623    2.1796 H   0  0  0  0  0  0  0  0  0  0  0  0
   -7.0091   -0.3278    1.8288 H   0  0  0  0  0  0  0  0  0  0  0  0
   -4.9784    2.1781   -1.3149 H   0  0  0  0  0  0  0  0  0  0  0  0
   -3.4239    1.3717   -1.5433 H   0  0  0  0  0  0  0  0  0  0  0  0
   -3.6042    2.6182   -0.2877 H   0  0  0  0  0  0  0  0  0  0  0  0
    3.4923   -2.1263   -0.4124 H   0  0  0  0  0  0  0  0  0  0  0  0
  1  2  1  0
  2  3  1  0
  3  4  2  0
  4  5  1  0
  5  6  2  0
  6  7  1  0
  7  8  2  0
  8  9  1  0
  9 10  1  0
 10 11  2  0
 10 12  1  0
 12 13  1  0
 13 14  2  0
 14 15  1  0
 15 16  1  0
 16 17  1  0
  8 18  1  0
 18 19  1  0
 19 20  2  0
 20  3  1  0
 19  6  1  0
 16 12  2  0
  1 21  1  0
  1 22  1  0
  1 23  1  0
  4 24  1  0
  5 25  1  0
  9 26  1  0
 13 27  1  0
 14 28  1  0
 17 29  1  0
 17 30  1  0
 17 31  1  0
 20 32  1  0
M  END
$$$$
