
     RDKit          3D

 36 37  0  0  0  0  0  0  0  0999 V2000
    3.9746   -2.5574    1.9207 C   0  0  0  0  0  0  0  0  0  0  0  0
    3.9752   -2.3477    0.5140 O   0  0  0  0  0  0  0  0  0  0  0  0
    3.2248   -1.3058    0.0430 C   0  0  0  0  0  0  0  0  0  0  0  0
    2.4531   -0.4350    0.8159 C   0  0  0  0  0  0  0  0  0  0  0  0
    1.7288    0.5932    0.2041 C   0  0  0  0  0  0  0  0  0  0  0  0
    1.7684    0.7392   -1.1856 C   0  0  0  0  0  0  0  0  0  0  0  0
    0.8666    2.0622   -1.9579 S   0  0  0  0  0  6  0  0  0  0  0  0
    0.6543    3.0988   -0.9687 O   0  0  0  0  0  0  0  0  0  0  0  0
    1.4963    2.3476   -3.2307 O   0  0  0  0  0  0  0  0  0  0  0  0
   -0.6433    1.3310   -2.3153 N   0  0  0  0  0  0  0  0  0  0  0  0
   -1.2583    0.4412   -1.2982 N   0  0  0  0  0  0  0  0  0  0  0  0
   -2.1490    0.9889   -0.5208 C   0  0  0  0  0  0  0  0  0  0  0  0
   -2.6155    2.4240   -0.6614 C   0  0  0  0  0  0  0  0  0  0  0  0
   -2.7306    0.1618    0.5805 C   0  0  0  0  0  0  0  0  0  0  0  0
   -2.6776   -1.2303    0.4860 C   0  0  0  0  0  0  0  0  0  0  0  0
   -3.2054   -1.9767    1.5236 C   0  0  0  0  0  0  0  0  0  0  0  0
   -3.7644   -1.4344    2.6257 N   0  0  0  0  0  0  0  0  0  0  0  0
   -3.7926   -0.0873    2.6985 C   0  0  0  0  0  0  0  0  0  0  0  0
   -3.2919    0.7481    1.7146 C   0  0  0  0  0  0  0  0  0  0  0  0
    2.5498   -0.1146   -1.9657 C   0  0  0  0  0  0  0  0  0  0  0  0
    3.2704   -1.1373   -1.3456 C   0  0  0  0  0  0  0  0  0  0  0  0
    4.3905   -1.6930    2.4489 H   0  0  0  0  0  0  0  0  0  0  0  0
    2.9697   -2.7975    2.2833 H   0  0  0  0  0  0  0  0  0  0  0  0
    4.6184   -3.4170    2.1307 H   0  0  0  0  0  0  0  0  0  0  0  0
    2.3944   -0.5268    1.8956 H   0  0  0  0  0  0  0  0  0  0  0  0
    1.1326    1.2685    0.8138 H   0  0  0  0  0  0  0  0  0  0  0  0
   -0.6121    0.9565   -3.2681 H   0  0  0  0  0  0  0  0  0  0  0  0
   -3.6458    2.5390   -0.3134 H   0  0  0  0  0  0  0  0  0  0  0  0
   -1.9626    3.0774   -0.0770 H   0  0  0  0  0  0  0  0  0  0  0  0
   -2.6025    2.7408   -1.7075 H   0  0  0  0  0  0  0  0  0  0  0  0
   -2.2391   -1.7290   -0.3718 H   0  0  0  0  0  0  0  0  0  0  0  0
   -3.1915   -3.0628    1.4965 H   0  0  0  0  0  0  0  0  0  0  0  0
   -4.2393    0.3167    3.6031 H   0  0  0  0  0  0  0  0  0  0  0  0
   -3.3323    1.8211    1.8588 H   0  0  0  0  0  0  0  0  0  0  0  0
    2.6073    0.0058   -3.0446 H   0  0  0  0  0  0  0  0  0  0  0  0
    3.8785   -1.8092   -1.9475 H   0  0  0  0  0  0  0  0  0  0  0  0
  1  2  1  0
  2  3  1  0
  3  4  2  0
  4  5  1  0
  5  6  2  0
  6  7  1  0
  7  8  2  0
  7  9  2  0
  7 10  1  0
 10 11  1  0
 11 12  2  3
 12 13  1  0
 12 14  1  0
 14 15  2  0
 15 16  1  0
 16 17  2  0
 17 18  1  0
 18 19  2  0
  6 20  1  0
 20 21  2  0
 21  3  1  0
 19 14  1  0
  1 22  1  0
  1 23  1  0
  1 24  1  0
  4 25  1  0
  5 26  1  0
 10 27  1  0
 13 28  1  0
 13 29  1  0
 13 30  1  0
 15 31  1  0
 16 32  1  0
 18 33  1  0
 19 34  1  0
 20 35  1  0
 21 36  1  0
M  END
$$$$
