
     RDKit          3D

 47 49  0  0  0  0  0  0  0  0999 V2000
    6.2107   -1.4315    0.6227 C   0  0  0  0  0  0  0  0  0  0  0  0
    4.9025   -1.5214   -0.1562 C   0  0  0  0  0  0  0  0  0  0  0  0
    3.8795   -2.3073    0.5477 N   0  0  0  0  0  0  0  0  0  0  0  0
    3.3524   -1.6396    1.7581 C   0  0  0  0  0  0  0  0  0  0  0  0
    2.4675   -0.3974    1.5038 C   0  0  0  0  0  0  0  0  0  0  0  0
    1.3533   -0.6907    0.5669 N   0  0  0  0  0  0  0  0  0  0  0  0
    0.1697    0.0771    0.5621 C   0  0  0  0  0  0  0  0  0  0  0  0
   -0.9567   -0.3065   -0.0762 C   0  0  0  0  0  0  0  0  0  0  0  0
   -2.2077    0.4382   -0.0744 C   0  0  0  0  0  0  0  0  0  0  0  0
   -3.2364    0.0633   -0.8586 C   0  0  0  0  0  0  0  0  0  0  0  0
   -4.5293    0.7573   -0.8990 C   0  0  0  0  0  0  0  0  0  0  0  0
   -5.5055    0.4505   -1.7915 C   0  0  0  0  0  0  0  0  0  0  0  0
   -5.3427   -0.5634   -2.7816 C   0  0  0  0  0  0  0  0  0  0  0  0
   -5.1986   -1.3905   -3.5831 N   0  0  0  0  0  0  0  0  0  0  0  0
   -6.7613    1.1266   -1.7828 C   0  0  0  0  0  0  0  0  0  0  0  0
   -7.7790    1.6843   -1.7639 N   0  0  0  0  0  0  0  0  0  0  0  0
   -4.6929    1.8463    0.1548 C   0  0  0  0  0  0  0  0  0  0  0  0
   -3.3907    2.6057    0.4051 C   0  0  0  0  0  0  0  0  0  0  0  0
   -2.2818    1.6410    0.8398 C   0  0  0  0  0  0  0  0  0  0  0  0
   -0.9335    2.3602    0.8953 C   0  0  0  0  0  0  0  0  0  0  0  0
    0.1750    1.3970    1.3245 C   0  0  0  0  0  0  0  0  0  0  0  0
    1.8212   -1.3848   -0.6623 C   0  0  0  0  0  0  0  0  0  0  0  0
    2.7253   -2.5953   -0.3349 C   0  0  0  0  0  0  0  0  0  0  0  0
    6.1086   -0.8224    1.5255 H   0  0  0  0  0  0  0  0  0  0  0  0
    6.5683   -2.4254    0.9115 H   0  0  0  0  0  0  0  0  0  0  0  0
    6.9827   -0.9669    0.0003 H   0  0  0  0  0  0  0  0  0  0  0  0
    5.1366   -2.0167   -1.1071 H   0  0  0  0  0  0  0  0  0  0  0  0
    4.5575   -0.5120   -0.4054 H   0  0  0  0  0  0  0  0  0  0  0  0
    2.7527   -2.3789    2.3068 H   0  0  0  0  0  0  0  0  0  0  0  0
    4.1658   -1.3742    2.4419 H   0  0  0  0  0  0  0  0  0  0  0  0
    3.0709    0.4273    1.1071 H   0  0  0  0  0  0  0  0  0  0  0  0
    2.0700   -0.0808    2.4749 H   0  0  0  0  0  0  0  0  0  0  0  0
   -0.9698   -1.2522   -0.6097 H   0  0  0  0  0  0  0  0  0  0  0  0
   -3.1012   -0.8038   -1.5044 H   0  0  0  0  0  0  0  0  0  0  0  0
   -5.4545    2.5803   -0.1291 H   0  0  0  0  0  0  0  0  0  0  0  0
   -5.0302    1.3811    1.0904 H   0  0  0  0  0  0  0  0  0  0  0  0
   -3.5501    3.3629    1.1824 H   0  0  0  0  0  0  0  0  0  0  0  0
   -3.0991    3.1433   -0.5073 H   0  0  0  0  0  0  0  0  0  0  0  0
   -2.5202    1.2756    1.8495 H   0  0  0  0  0  0  0  0  0  0  0  0
   -0.9772    3.2008    1.5982 H   0  0  0  0  0  0  0  0  0  0  0  0
   -0.6869    2.7823   -0.0885 H   0  0  0  0  0  0  0  0  0  0  0  0
    0.0754    1.1847    2.3964 H   0  0  0  0  0  0  0  0  0  0  0  0
    1.1305    1.9145    1.1787 H   0  0  0  0  0  0  0  0  0  0  0  0
    2.3607   -0.6650   -1.2898 H   0  0  0  0  0  0  0  0  0  0  0  0
    0.9830   -1.7569   -1.2593 H   0  0  0  0  0  0  0  0  0  0  0  0
    3.0737   -3.0540   -1.2686 H   0  0  0  0  0  0  0  0  0  0  0  0
    2.1119   -3.3630    0.1557 H   0  0  0  0  0  0  0  0  0  0  0  0
  1  2  1  0
  2  3  1  0
  3  4  1  0
  4  5  1  0
  5  6  1  0
  6  7  1  0
  7  8  2  0
  8  9  1  0
  9 10  2  0
 10 11  1  0
 11 12  2  3
 12 13  1  0
 13 14  3  0
 12 15  1  0
 15 16  3  0
 11 17  1  0
 17 18  1  0
 18 19  1  0
 19 20  1  0
 20 21  1  0
  6 22  1  0
 22 23  1  0
 23  3  1  0
 21  7  1  0
 19  9  1  0
  1 24  1  0
  1 25  1  0
  1 26  1  0
  2 27  1  0
  2 28  1  0
  4 29  1  0
  4 30  1  0
  5 31  1  0
  5 32  1  0
  8 33  1  0
 10 34  1  0
 17 35  1  0
 17 36  1  0
 18 37  1  0
 18 38  1  0
 19 39  1  0
 20 40  1  0
 20 41  1  0
 21 42  1  0
 21 43  1  0
 22 44  1  0
 22 45  1  0
 23 46  1  0
 23 47  1  0
M  END
$$$$
