
     RDKit          3D

 46 48  0  0  0  0  0  0  0  0999 V2000
   -1.9845   -0.8349    2.2439 C   0  0  0  0  0  0  0  0  0  0  0  0
   -2.6535   -1.4144    1.0566 C   0  0  0  0  0  0  0  0  0  0  0  0
   -2.8440   -2.7641    1.1022 O   0  0  0  0  0  0  0  0  0  0  0  0
   -3.3913   -3.1359   -0.0810 C   0  0  0  0  0  0  0  0  0  0  0  0
   -3.5550   -2.0417   -0.8943 C   0  0  0  0  0  0  0  0  0  0  0  0
   -3.1063   -0.9056   -0.1548 C   0  0  0  0  0  0  0  0  0  0  0  0
   -3.0681    0.4671   -0.6344 C   0  0  0  0  0  0  0  0  0  0  0  0
   -2.9235    0.7248   -1.8252 O   0  0  0  0  0  0  0  0  0  0  0  0
   -3.1985    1.4370    0.3324 N   0  0  0  0  0  0  0  0  0  0  0  0
   -2.8205    2.8094    0.0796 C   0  0  0  0  0  0  0  0  0  0  0  0
   -1.3908    3.0175    0.5152 C   0  0  0  0  0  0  0  0  0  0  0  0
   -1.0881    3.6133    1.7463 C   0  0  0  0  0  0  0  0  0  0  0  0
    0.2358    3.6986    2.1800 C   0  0  0  0  0  0  0  0  0  0  0  0
    1.2673    3.1733    1.3993 C   0  0  0  0  0  0  0  0  0  0  0  0
    0.9880    2.5780    0.1634 C   0  0  0  0  0  0  0  0  0  0  0  0
    2.0797    1.9313   -0.6495 C   0  0  0  0  0  0  0  0  0  0  0  0
    1.9612    0.4933   -0.5782 N   0  0  0  0  0  0  0  0  0  0  0  0
    3.0052   -0.3350   -0.9169 C   0  0  0  0  0  0  0  0  0  0  0  0
    4.1213    0.0913   -1.1981 O   0  0  0  0  0  0  0  0  0  0  0  0
    2.6789   -1.7572   -0.9140 C   0  0  0  0  0  0  0  0  0  0  0  0
    1.4578   -2.4308   -0.5919 C   0  0  0  0  0  0  0  0  0  0  0  0
    1.6914   -3.7762   -0.7496 C   0  0  0  0  0  0  0  0  0  0  0  0
    2.9695   -3.9904   -1.1452 O   0  0  0  0  0  0  0  0  0  0  0  0
    3.5683   -2.7706   -1.2453 C   0  0  0  0  0  0  0  0  0  0  0  0
    4.9871   -2.7795   -1.6673 C   0  0  0  0  0  0  0  0  0  0  0  0
   -0.3428    2.5216   -0.2770 C   0  0  0  0  0  0  0  0  0  0  0  0
   -1.2299   -0.1004    1.9442 H   0  0  0  0  0  0  0  0  0  0  0  0
   -2.7152   -0.3422    2.8944 H   0  0  0  0  0  0  0  0  0  0  0  0
   -1.4786   -1.6096    2.8303 H   0  0  0  0  0  0  0  0  0  0  0  0
   -3.5909   -4.1929   -0.1944 H   0  0  0  0  0  0  0  0  0  0  0  0
   -3.9527   -2.0446   -1.9008 H   0  0  0  0  0  0  0  0  0  0  0  0
   -3.3228    1.1614    1.2946 H   0  0  0  0  0  0  0  0  0  0  0  0
   -3.4998    3.4503    0.6520 H   0  0  0  0  0  0  0  0  0  0  0  0
   -2.9366    3.0611   -0.9805 H   0  0  0  0  0  0  0  0  0  0  0  0
   -1.8802    4.0027    2.3829 H   0  0  0  0  0  0  0  0  0  0  0  0
    0.4650    4.1573    3.1390 H   0  0  0  0  0  0  0  0  0  0  0  0
    2.2905    3.2202    1.7672 H   0  0  0  0  0  0  0  0  0  0  0  0
    1.9934    2.2294   -1.7013 H   0  0  0  0  0  0  0  0  0  0  0  0
    3.0727    2.2407   -0.3047 H   0  0  0  0  0  0  0  0  0  0  0  0
    1.0354    0.1057   -0.4935 H   0  0  0  0  0  0  0  0  0  0  0  0
    0.5155   -2.0024   -0.2796 H   0  0  0  0  0  0  0  0  0  0  0  0
    1.0842   -4.6623   -0.6255 H   0  0  0  0  0  0  0  0  0  0  0  0
    5.3326   -3.7967   -1.8771 H   0  0  0  0  0  0  0  0  0  0  0  0
    5.6231   -2.3653   -0.8786 H   0  0  0  0  0  0  0  0  0  0  0  0
    5.1215   -2.1842   -2.5761 H   0  0  0  0  0  0  0  0  0  0  0  0
   -0.5717    2.0514   -1.2352 H   0  0  0  0  0  0  0  0  0  0  0  0
  1  2  1  0
  2  3  1  0
  3  4  1  0
  4  5  2  0
  5  6  1  0
  6  7  1  0
  7  8  2  0
  7  9  1  0
  9 10  1  0
 10 11  1  0
 11 12  2  0
 12 13  1  0
 13 14  2  0
 14 15  1  0
 15 16  1  0
 16 17  1  0
 17 18  1  0
 18 19  2  0
 18 20  1  0
 20 21  1  0
 21 22  2  0
 22 23  1  0
 23 24  1  0
 24 25  1  0
 15 26  2  0
  6  2  2  0
 26 11  1  0
 24 20  2  0
  1 27  1  0
  1 28  1  0
  1 29  1  0
  4 30  1  0
  5 31  1  0
  9 32  1  0
 10 33  1  0
 10 34  1  0
 12 35  1  0
 13 36  1  0
 14 37  1  0
 16 38  1  0
 16 39  1  0
 17 40  1  0
 21 41  1  0
 22 42  1  0
 25 43  1  0
 25 44  1  0
 25 45  1  0
 26 46  1  0
M  END
$$$$
