
     RDKit          3D

 39 41  0  0  0  0  0  0  0  0999 V2000
    2.4839    2.2185   -2.0923 C   0  0  0  0  0  0  0  0  0  0  0  0
    1.8767    2.2891   -0.7153 C   0  0  0  0  0  0  0  0  0  0  0  0
    2.4565    2.8525    0.2128 O   0  0  0  0  0  0  0  0  0  0  0  0
    0.5561    1.6402   -0.5189 C   0  0  0  0  0  0  0  0  0  0  0  0
    0.4927    0.4524    0.1247 C   0  0  0  0  0  0  0  0  0  0  0  0
    1.5676   -0.2520    0.6569 N   0  0  0  0  0  0  0  0  0  0  0  0
    2.3627   -1.1746   -0.1810 C   0  0  0  0  0  0  0  0  0  0  0  0
    3.3434   -1.9735    0.6887 C   0  0  0  0  0  0  0  0  0  0  0  0
    4.2885   -1.1535    1.3903 O   0  0  0  0  0  0  0  0  0  0  0  0
    3.7995    0.1682    1.6762 C   0  0  0  0  0  0  0  0  0  0  0  0
    2.2773    0.2257    1.8707 C   0  0  0  0  0  0  0  0  0  0  0  0
   -0.7364   -0.1399    0.2479 N   0  0  0  0  0  0  0  0  0  0  0  0
   -1.8775    0.3722   -0.3025 C   0  0  0  0  0  0  0  0  0  0  0  0
   -3.1666   -0.3793   -0.1815 C   0  0  0  0  0  0  0  0  0  0  0  0
   -4.1887   -0.1430   -1.1103 C   0  0  0  0  0  0  0  0  0  0  0  0
   -5.3958   -0.8389   -1.0211 C   0  0  0  0  0  0  0  0  0  0  0  0
   -5.5907   -1.7685   -0.0011 C   0  0  0  0  0  0  0  0  0  0  0  0
   -4.5829   -1.9994    0.9347 C   0  0  0  0  0  0  0  0  0  0  0  0
   -3.3726   -1.3059    0.8487 C   0  0  0  0  0  0  0  0  0  0  0  0
   -1.8796    1.4998   -0.9487 N   0  0  0  0  0  0  0  0  0  0  0  0
   -0.7150    2.2401   -1.0609 C   0  0  0  0  0  0  0  0  0  0  0  0
   -0.7766    3.7607   -1.8093 S   0  0  0  0  0  0  0  0  0  0  0  0
    1.8685    1.6158   -2.7662 H   0  0  0  0  0  0  0  0  0  0  0  0
    2.5768    3.2274   -2.5019 H   0  0  0  0  0  0  0  0  0  0  0  0
    3.4706    1.7526   -2.0227 H   0  0  0  0  0  0  0  0  0  0  0  0
    1.6943   -1.8654   -0.7071 H   0  0  0  0  0  0  0  0  0  0  0  0
    2.9184   -0.5969   -0.9282 H   0  0  0  0  0  0  0  0  0  0  0  0
    2.7984   -2.5641    1.4344 H   0  0  0  0  0  0  0  0  0  0  0  0
    3.9127   -2.6738    0.0694 H   0  0  0  0  0  0  0  0  0  0  0  0
    4.3085    0.5159    2.5806 H   0  0  0  0  0  0  0  0  0  0  0  0
    4.1135    0.8187    0.8530 H   0  0  0  0  0  0  0  0  0  0  0  0
    1.9916   -0.4352    2.6978 H   0  0  0  0  0  0  0  0  0  0  0  0
    1.9667    1.2393    2.1450 H   0  0  0  0  0  0  0  0  0  0  0  0
   -0.7091   -1.0561    0.6718 H   0  0  0  0  0  0  0  0  0  0  0  0
   -4.0504    0.5833   -1.9087 H   0  0  0  0  0  0  0  0  0  0  0  0
   -6.1842   -0.6505   -1.7457 H   0  0  0  0  0  0  0  0  0  0  0  0
   -6.5332   -2.3060    0.0700 H   0  0  0  0  0  0  0  0  0  0  0  0
   -4.7453   -2.7134    1.7387 H   0  0  0  0  0  0  0  0  0  0  0  0
   -2.6205   -1.4824    1.6109 H   0  0  0  0  0  0  0  0  0  0  0  0
  1  2  1  0
  2  3  2  0
  2  4  1  0
  4  5  2  0
  5  6  1  0
  6  7  1  0
  7  8  1  0
  8  9  1  0
  9 10  1  0
 10 11  1  0
  5 12  1  0
 12 13  1  0
 13 14  1  0
 14 15  2  0
 15 16  1  0
 16 17  2  0
 17 18  1  0
 18 19  2  0
 13 20  2  0
 20 21  1  0
 21 22  2  0
 21  4  1  0
 11  6  1  0
 19 14  1  0
  1 23  1  0
  1 24  1  0
  1 25  1  0
  7 26  1  0
  7 27  1  0
  8 28  1  0
  8 29  1  0
 10 30  1  0
 10 31  1  0
 11 32  1  0
 11 33  1  0
 12 34  1  0
 15 35  1  0
 16 36  1  0
 17 37  1  0
 18 38  1  0
 19 39  1  0
M  END
$$$$
