
     RDKit          3D

 30 31  0  0  0  0  0  0  0  0999 V2000
    0.5168    0.7905    2.8428 O   0  0  0  0  0  0  0  0  0  0  0  0
    0.4496    1.1226    1.6640 C   0  0  0  0  0  0  0  0  0  0  0  0
   -0.5984    2.1109    1.1481 C   0  0  0  0  0  0  0  0  0  0  0  0
   -0.8747    1.9722   -0.2420 O   0  0  0  0  0  0  0  0  0  0  0  0
   -1.7381    0.9887   -0.6519 C   0  0  0  0  0  0  0  0  0  0  0  0
   -2.2533   -0.0163    0.1724 C   0  0  0  0  0  0  0  0  0  0  0  0
   -3.1090   -0.9914   -0.3533 C   0  0  0  0  0  0  0  0  0  0  0  0
   -3.4549   -0.9664   -1.7017 C   0  0  0  0  0  0  0  0  0  0  0  0
   -4.5089   -2.1674   -2.3373 Cl  0  0  0  0  0  0  0  0  0  0  0  0
   -2.9483    0.0213   -2.5386 C   0  0  0  0  0  0  0  0  0  0  0  0
   -2.0900    0.9902   -2.0143 C   0  0  0  0  0  0  0  0  0  0  0  0
   -1.4610    2.1840   -3.0980 Cl  0  0  0  0  0  0  0  0  0  0  0  0
    1.3235    0.6723    0.6916 N   0  0  0  0  0  0  0  0  0  0  0  0
    2.1491   -0.5034    0.9401 C   0  0  0  0  0  0  0  0  0  0  0  0
    3.4734   -0.4561    0.1833 C   0  0  0  0  0  0  0  0  0  0  0  0
    3.2342   -0.9654   -1.2250 C   0  0  0  0  0  0  0  0  0  0  0  0
    2.1797   -2.4174   -0.9894 S   0  0  0  0  0  0  0  0  0  0  0  0
    1.4143   -1.7523    0.4542 C   0  0  0  0  0  0  0  0  0  0  0  0
    0.3578   -2.1844    0.8892 O   0  0  0  0  0  0  0  0  0  0  0  0
   -1.5125    2.0491    1.7491 H   0  0  0  0  0  0  0  0  0  0  0  0
   -0.1846    3.1147    1.2954 H   0  0  0  0  0  0  0  0  0  0  0  0
   -2.0008   -0.0962    1.2261 H   0  0  0  0  0  0  0  0  0  0  0  0
   -3.4909   -1.7746    0.2985 H   0  0  0  0  0  0  0  0  0  0  0  0
   -3.2142    0.0349   -3.5919 H   0  0  0  0  0  0  0  0  0  0  0  0
    1.0222    0.8576   -0.2619 H   0  0  0  0  0  0  0  0  0  0  0  0
    2.3418   -0.6055    2.0135 H   0  0  0  0  0  0  0  0  0  0  0  0
    3.9009    0.5527    0.1679 H   0  0  0  0  0  0  0  0  0  0  0  0
    4.2048   -1.1048    0.6845 H   0  0  0  0  0  0  0  0  0  0  0  0
    2.7041   -0.2253   -1.8325 H   0  0  0  0  0  0  0  0  0  0  0  0
    4.1673   -1.2349   -1.7268 H   0  0  0  0  0  0  0  0  0  0  0  0
  1  2  2  0
  2  3  1  0
  3  4  1  0
  4  5  1  0
  5  6  2  0
  6  7  1  0
  7  8  2  0
  8  9  1  0
  8 10  1  0
 10 11  2  0
 11 12  1  0
  2 13  1  0
 13 14  1  0
 14 15  1  0
 15 16  1  0
 16 17  1  0
 17 18  1  0
 18 19  2  0
 11  5  1  0
 18 14  1  0
  3 20  1  0
  3 21  1  0
  6 22  1  0
  7 23  1  0
 10 24  1  0
 13 25  1  0
 14 26  1  0
 15 27  1  0
 15 28  1  0
 16 29  1  0
 16 30  1  0
M  END
$$$$
