
     RDKit          3D

 41 44  0  0  0  0  0  0  0  0999 V2000
   -5.7726   -1.5862    1.7033 C   0  0  0  0  0  0  0  0  0  0  0  0
   -5.7156   -1.2955    0.2015 C   0  0  0  0  0  0  0  0  0  0  0  0
   -6.9369   -0.4879   -0.2447 C   0  0  0  0  0  0  0  0  0  0  0  0
   -4.4188   -0.6056   -0.1844 C   0  0  0  0  0  0  0  0  0  0  0  0
   -3.5326   -1.2335   -1.0715 C   0  0  0  0  0  0  0  0  0  0  0  0
   -2.3328   -0.6181   -1.4397 C   0  0  0  0  0  0  0  0  0  0  0  0
   -1.9953    0.6354   -0.9220 C   0  0  0  0  0  0  0  0  0  0  0  0
   -0.7463    1.3007   -1.3009 C   0  0  0  0  0  0  0  0  0  0  0  0
    0.4844    0.9181   -0.9325 C   0  0  0  0  0  0  0  0  0  0  0  0
    0.9111   -0.4454    0.0864 S   0  0  0  0  0  0  0  0  0  0  0  0
    2.5670   -0.0293   -0.0653 C   0  0  0  0  0  0  0  0  0  0  0  0
    3.6907   -0.5125    0.3787 N   0  0  0  0  0  0  0  0  0  0  0  0
    4.6183    0.3691   -0.1696 C   0  0  0  0  0  0  0  0  0  0  0  0
    6.0508    0.2210    0.0629 C   0  0  0  0  0  0  0  0  0  0  0  0
    6.9665    1.1151   -0.4975 C   0  0  0  0  0  0  0  0  0  0  0  0
    8.3139    0.9261   -0.2432 C   0  0  0  0  0  0  0  0  0  0  0  0
    8.8000   -0.0765    0.5185 N   0  0  0  0  0  0  0  0  0  0  0  0
    7.8989   -0.9288    1.0503 C   0  0  0  0  0  0  0  0  0  0  0  0
    6.5325   -0.8240    0.8548 C   0  0  0  0  0  0  0  0  0  0  0  0
    4.0793    1.3543   -0.9222 N   0  0  0  0  0  0  0  0  0  0  0  0
    2.7711    1.0612   -0.8279 N   0  0  0  0  0  0  0  0  0  0  0  0
    1.6801    1.6963   -1.3802 C   0  0  0  0  0  0  0  0  0  0  0  0
    1.7464    2.6884   -2.0826 O   0  0  0  0  0  0  0  0  0  0  0  0
   -2.8760    1.2726   -0.0445 C   0  0  0  0  0  0  0  0  0  0  0  0
   -4.0756    0.6561    0.3229 C   0  0  0  0  0  0  0  0  0  0  0  0
   -5.7887   -0.6668    2.2986 H   0  0  0  0  0  0  0  0  0  0  0  0
   -4.9047   -2.1746    2.0213 H   0  0  0  0  0  0  0  0  0  0  0  0
   -6.6738   -2.1578    1.9506 H   0  0  0  0  0  0  0  0  0  0  0  0
   -5.7633   -2.2632   -0.3154 H   0  0  0  0  0  0  0  0  0  0  0  0
   -6.9030   -0.2898   -1.3218 H   0  0  0  0  0  0  0  0  0  0  0  0
   -7.8601   -1.0385   -0.0341 H   0  0  0  0  0  0  0  0  0  0  0  0
   -7.0009    0.4769    0.2701 H   0  0  0  0  0  0  0  0  0  0  0  0
   -3.7700   -2.2110   -1.4864 H   0  0  0  0  0  0  0  0  0  0  0  0
   -1.6707   -1.1289   -2.1349 H   0  0  0  0  0  0  0  0  0  0  0  0
   -0.8785    2.1876   -1.9202 H   0  0  0  0  0  0  0  0  0  0  0  0
    6.6436    1.9436   -1.1200 H   0  0  0  0  0  0  0  0  0  0  0  0
    9.0607    1.5970   -0.6584 H   0  0  0  0  0  0  0  0  0  0  0  0
    8.3175   -1.7255    1.6587 H   0  0  0  0  0  0  0  0  0  0  0  0
    5.8624   -1.5446    1.3126 H   0  0  0  0  0  0  0  0  0  0  0  0
   -2.6386    2.2516    0.3657 H   0  0  0  0  0  0  0  0  0  0  0  0
   -4.7407    1.1731    1.0111 H   0  0  0  0  0  0  0  0  0  0  0  0
  1  2  1  0
  2  3  1  0
  2  4  1  0
  4  5  2  0
  5  6  1  0
  6  7  2  0
  7  8  1  0
  8  9  2  3
  9 10  1  0
 10 11  1  0
 11 12  2  0
 12 13  1  0
 13 14  1  0
 14 15  2  0
 15 16  1  0
 16 17  2  0
 17 18  1  0
 18 19  2  0
 13 20  2  0
 20 21  1  0
 21 22  1  0
 22 23  2  0
  7 24  1  0
 24 25  2  0
 25  4  1  0
 22  9  1  0
 21 11  1  0
 19 14  1  0
  1 26  1  0
  1 27  1  0
  1 28  1  0
  2 29  1  0
  3 30  1  0
  3 31  1  0
  3 32  1  0
  5 33  1  0
  6 34  1  0
  8 35  1  0
 15 36  1  0
 16 37  1  0
 18 38  1  0
 19 39  1  0
 24 40  1  0
 25 41  1  0
M  END
$$$$
