
     RDKit          3D

 42 44  0  0  0  0  0  0  0  0999 V2000
   -5.2806    0.0873   -2.8144 N   0  0  0  0  0  0  0  0  0  0  0  0
   -5.1201    0.5984   -1.7851 C   0  0  0  0  0  0  0  0  0  0  0  0
   -4.8934    1.2389   -0.4851 C   0  0  0  0  0  0  0  0  0  0  0  0
   -3.4697    0.9842    0.0354 C   0  0  0  0  0  0  0  0  0  0  0  0
   -3.3484   -0.1824    0.9318 N   0  0  0  0  0  0  0  0  0  0  0  0
   -2.0384   -0.2006    1.6186 C   0  0  0  0  0  0  0  0  0  0  0  0
   -0.8336   -0.5471    0.7208 C   0  0  0  0  0  0  0  0  0  0  0  0
   -1.0335   -1.7612   -0.0887 N   0  0  0  0  0  0  0  0  0  0  0  0
    0.0566   -2.5260   -0.5536 C   0  0  0  0  0  0  0  0  0  0  0  0
   -0.0819   -3.9611   -1.4302 S   0  0  0  0  0  0  0  0  0  0  0  0
    1.4162   -2.0912   -0.2720 C   0  0  0  0  0  0  0  0  0  0  0  0
    2.5584   -2.7673    0.1241 C   0  0  0  0  0  0  0  0  0  0  0  0
    3.5991   -1.8103    0.2124 C   0  0  0  0  0  0  0  0  0  0  0  0
    3.0529   -0.5965   -0.1498 C   0  0  0  0  0  0  0  0  0  0  0  0
    3.5690    0.7645   -0.2702 C   0  0  0  0  0  0  0  0  0  0  0  0
    2.8137    1.7756   -0.8837 C   0  0  0  0  0  0  0  0  0  0  0  0
    3.3116    3.0777   -0.9979 C   0  0  0  0  0  0  0  0  0  0  0  0
    4.5764    3.3911   -0.4985 C   0  0  0  0  0  0  0  0  0  0  0  0
    5.1300    5.0178   -0.6688 Cl  0  0  0  0  0  0  0  0  0  0  0  0
    5.3423    2.3953    0.1142 C   0  0  0  0  0  0  0  0  0  0  0  0
    6.9161    2.7044    0.7588 Cl  0  0  0  0  0  0  0  0  0  0  0  0
    4.8399    1.0919    0.2250 C   0  0  0  0  0  0  0  0  0  0  0  0
    1.7308   -0.7669   -0.4446 O   0  0  0  0  0  0  0  0  0  0  0  0
   -2.3720   -1.8800   -0.7012 C   0  0  0  0  0  0  0  0  0  0  0  0
   -3.5153   -1.4859    0.2544 C   0  0  0  0  0  0  0  0  0  0  0  0
   -5.0325    2.3203   -0.6069 H   0  0  0  0  0  0  0  0  0  0  0  0
   -5.6419    0.9119    0.2456 H   0  0  0  0  0  0  0  0  0  0  0  0
   -3.2092    1.8707    0.6296 H   0  0  0  0  0  0  0  0  0  0  0  0
   -2.7496    0.9489   -0.7911 H   0  0  0  0  0  0  0  0  0  0  0  0
   -2.0944   -0.9452    2.4241 H   0  0  0  0  0  0  0  0  0  0  0  0
   -1.8593    0.7577    2.1216 H   0  0  0  0  0  0  0  0  0  0  0  0
   -0.6276    0.2770    0.0281 H   0  0  0  0  0  0  0  0  0  0  0  0
    0.0387   -0.6727    1.3699 H   0  0  0  0  0  0  0  0  0  0  0  0
    2.6292   -3.8279    0.3261 H   0  0  0  0  0  0  0  0  0  0  0  0
    4.6260   -1.9961    0.4942 H   0  0  0  0  0  0  0  0  0  0  0  0
    1.8273    1.5565   -1.2896 H   0  0  0  0  0  0  0  0  0  0  0  0
    2.7059    3.8407   -1.4815 H   0  0  0  0  0  0  0  0  0  0  0  0
    5.4510    0.3329    0.7083 H   0  0  0  0  0  0  0  0  0  0  0  0
   -2.3719   -1.2350   -1.5877 H   0  0  0  0  0  0  0  0  0  0  0  0
   -2.5585   -2.8995   -1.0468 H   0  0  0  0  0  0  0  0  0  0  0  0
   -3.5846   -2.2553    1.0359 H   0  0  0  0  0  0  0  0  0  0  0  0
   -4.4750   -1.5355   -0.2689 H   0  0  0  0  0  0  0  0  0  0  0  0
  1  2  3  0
  2  3  1  0
  3  4  1  0
  4  5  1  0
  5  6  1  0
  6  7  1  0
  7  8  1  0
  8  9  1  0
  9 10  2  0
  9 11  1  0
 11 12  2  0
 12 13  1  0
 13 14  2  0
 14 15  1  0
 15 16  2  0
 16 17  1  0
 17 18  2  0
 18 19  1  0
 18 20  1  0
 20 21  1  0
 20 22  2  0
 14 23  1  0
  8 24  1  0
 24 25  1  0
 25  5  1  0
 23 11  1  0
 22 15  1  0
  3 26  1  0
  3 27  1  0
  4 28  1  0
  4 29  1  0
  6 30  1  0
  6 31  1  0
  7 32  1  0
  7 33  1  0
 12 34  1  0
 13 35  1  0
 16 36  1  0
 17 37  1  0
 22 38  1  0
 24 39  1  0
 24 40  1  0
 25 41  1  0
 25 42  1  0
M  END
$$$$
