
     RDKit          3D

 67 72  0  0  0  0  0  0  0  0999 V2000
   -2.2213    2.5091   -2.5034 O   0  0  0  0  0  0  0  0  0  0  0  0
   -2.1388    1.8843   -1.4428 C   0  0  0  0  0  0  0  0  0  0  0  0
   -0.9059    2.0375   -0.5571 C   0  0  0  0  0  0  0  0  0  0  0  0
   -0.1627    3.3484   -0.8523 C   0  0  0  0  0  0  0  0  0  0  0  0
    1.0806    3.4512    0.0242 C   0  0  0  0  0  0  0  0  0  0  0  0
    2.0016    2.2424   -0.1548 C   0  0  0  0  0  0  0  0  0  0  0  0
    1.2509    0.9938    0.0327 N   0  0  0  0  0  0  0  0  0  0  0  0
    2.0203   -0.1926    0.0509 C   0  0  0  0  0  0  0  0  0  0  0  0
    1.3491   -1.3867    0.1236 N   0  0  0  0  0  0  0  0  0  0  0  0
    2.0352   -2.5462    0.1719 C   0  0  0  0  0  0  0  0  0  0  0  0
    3.3646   -2.7250    0.1541 N   0  0  0  0  0  0  0  0  0  0  0  0
    4.0028   -1.5468    0.0824 C   0  0  0  0  0  0  0  0  0  0  0  0
    3.4403   -0.2792    0.0321 C   0  0  0  0  0  0  0  0  0  0  0  0
    4.4439    0.6736   -0.0466 N   0  0  0  0  0  0  0  0  0  0  0  0
    5.5819    0.0073   -0.0324 C   0  0  0  0  0  0  0  0  0  0  0  0
    5.3552   -1.3455    0.0401 N   0  0  0  0  0  0  0  0  0  0  0  0
    6.3698   -2.3757    0.0661 C   0  0  0  0  0  0  0  0  0  0  0  0
    7.3017   -2.2676    1.2704 C   0  0  0  0  0  0  0  0  0  0  0  0
    8.3445   -1.1544    1.1487 C   0  0  0  0  0  0  0  0  0  0  0  0
    7.7780    0.2677    1.1536 C   0  0  0  0  0  0  0  0  0  0  0  0
    6.9446    0.6076   -0.0808 C   0  0  0  0  0  0  0  0  0  0  0  0
    0.0386    0.8557   -0.7940 C   0  0  0  0  0  0  0  0  0  0  0  0
   -3.1499    1.0230   -1.0362 N   0  0  0  0  0  0  0  0  0  0  0  0
   -4.2391    0.7380   -1.9806 C   0  0  0  0  0  0  0  0  0  0  0  0
   -5.5993    0.5689   -1.2819 C   0  0  0  0  0  0  0  0  0  0  0  0
   -5.5055   -0.4314   -0.1957 N   0  0  0  0  0  0  0  0  0  0  0  0
   -6.7009   -0.8888    0.3838 C   0  0  0  0  0  0  0  0  0  0  0  0
   -7.9364   -0.2410    0.2276 C   0  0  0  0  0  0  0  0  0  0  0  0
   -9.1061   -0.7407    0.8140 C   0  0  0  0  0  0  0  0  0  0  0  0
   -9.0657   -1.9107    1.5659 C   0  0  0  0  0  0  0  0  0  0  0  0
   -7.8555   -2.5757    1.7222 C   0  0  0  0  0  0  0  0  0  0  0  0
   -7.7948   -4.0326    2.6381 Cl  0  0  0  0  0  0  0  0  0  0  0  0
   -6.6899   -2.0749    1.1380 C   0  0  0  0  0  0  0  0  0  0  0  0
   -4.4581   -0.0860    0.7972 C   0  0  0  0  0  0  0  0  0  0  0  0
   -3.0911    0.0979    0.1076 C   0  0  0  0  0  0  0  0  0  0  0  0
   -1.2196    2.0819    0.4917 H   0  0  0  0  0  0  0  0  0  0  0  0
    0.1299    3.4010   -1.9087 H   0  0  0  0  0  0  0  0  0  0  0  0
   -0.8208    4.2051   -0.6639 H   0  0  0  0  0  0  0  0  0  0  0  0
    1.6281    4.3705   -0.2126 H   0  0  0  0  0  0  0  0  0  0  0  0
    0.7746    3.5226    1.0759 H   0  0  0  0  0  0  0  0  0  0  0  0
    2.4557    2.2713   -1.1533 H   0  0  0  0  0  0  0  0  0  0  0  0
    2.7904    2.3403    0.5990 H   0  0  0  0  0  0  0  0  0  0  0  0
    1.4334   -3.4481    0.2316 H   0  0  0  0  0  0  0  0  0  0  0  0
    5.8658   -3.3482    0.0900 H   0  0  0  0  0  0  0  0  0  0  0  0
    6.9217   -2.3189   -0.8790 H   0  0  0  0  0  0  0  0  0  0  0  0
    6.7234   -2.1369    2.1931 H   0  0  0  0  0  0  0  0  0  0  0  0
    7.8419   -3.2174    1.3675 H   0  0  0  0  0  0  0  0  0  0  0  0
    8.9448   -1.3089    0.2437 H   0  0  0  0  0  0  0  0  0  0  0  0
    9.0357   -1.2458    1.9959 H   0  0  0  0  0  0  0  0  0  0  0  0
    8.6283    0.9606    1.1893 H   0  0  0  0  0  0  0  0  0  0  0  0
    7.1984    0.4346    2.0702 H   0  0  0  0  0  0  0  0  0  0  0  0
    7.4602    0.2980   -0.9970 H   0  0  0  0  0  0  0  0  0  0  0  0
    6.8355    1.6978   -0.1367 H   0  0  0  0  0  0  0  0  0  0  0  0
    0.3171    0.7971   -1.8556 H   0  0  0  0  0  0  0  0  0  0  0  0
   -0.4960   -0.0700   -0.5610 H   0  0  0  0  0  0  0  0  0  0  0  0
   -3.9676   -0.1883   -2.5017 H   0  0  0  0  0  0  0  0  0  0  0  0
   -4.3212    1.5256   -2.7364 H   0  0  0  0  0  0  0  0  0  0  0  0
   -6.3317    0.2521   -2.0343 H   0  0  0  0  0  0  0  0  0  0  0  0
   -5.9136    1.5379   -0.8734 H   0  0  0  0  0  0  0  0  0  0  0  0
   -8.0179    0.6799   -0.3426 H   0  0  0  0  0  0  0  0  0  0  0  0
  -10.0466   -0.2124    0.6801 H   0  0  0  0  0  0  0  0  0  0  0  0
   -9.9741   -2.2982    2.0183 H   0  0  0  0  0  0  0  0  0  0  0  0
   -5.7637   -2.6327    1.2484 H   0  0  0  0  0  0  0  0  0  0  0  0
   -4.3449   -0.8615    1.5628 H   0  0  0  0  0  0  0  0  0  0  0  0
   -4.7375    0.8457    1.3064 H   0  0  0  0  0  0  0  0  0  0  0  0
   -2.7473   -0.8659   -0.2872 H   0  0  0  0  0  0  0  0  0  0  0  0
   -2.3649    0.4265    0.8523 H   0  0  0  0  0  0  0  0  0  0  0  0
  1  2  2  0
  2  3  1  0
  3  4  1  0
  4  5  1  0
  5  6  1  0
  6  7  1  0
  7  8  1  0
  8  9  2  0
  9 10  1  0
 10 11  2  0
 11 12  1  0
 12 13  2  0
 13 14  1  0
 14 15  2  0
 15 16  1  0
 16 17  1  0
 17 18  1  0
 18 19  1  0
 19 20  1  0
 20 21  1  0
  7 22  1  0
  2 23  1  0
 23 24  1  0
 24 25  1  0
 25 26  1  0
 26 27  1  0
 27 28  2  0
 28 29  1  0
 29 30  2  0
 30 31  1  0
 31 32  1  0
 31 33  2  0
 26 34  1  0
 34 35  1  0
 22  3  1  0
 35 23  1  0
 13  8  1  0
 21 15  1  0
 33 27  1  0
 16 12  1  0
  3 36  1  0
  4 37  1  0
  4 38  1  0
  5 39  1  0
  5 40  1  0
  6 41  1  0
  6 42  1  0
 10 43  1  0
 17 44  1  0
 17 45  1  0
 18 46  1  0
 18 47  1  0
 19 48  1  0
 19 49  1  0
 20 50  1  0
 20 51  1  0
 21 52  1  0
 21 53  1  0
 22 54  1  0
 22 55  1  0
 24 56  1  0
 24 57  1  0
 25 58  1  0
 25 59  1  0
 28 60  1  0
 29 61  1  0
 30 62  1  0
 33 63  1  0
 34 64  1  0
 34 65  1  0
 35 66  1  0
 35 67  1  0
M  END
$$$$
