
     RDKit          3D

 51 54  0  0  0  0  0  0  0  0999 V2000
   -6.3729   -1.6547    2.2784 C   0  0  0  0  0  0  0  0  0  0  0  0
   -5.6164   -0.3341    2.1241 C   0  0  0  0  0  0  0  0  0  0  0  0
   -6.5476    0.8781    2.0625 C   0  0  0  0  0  0  0  0  0  0  0  0
   -4.6559   -0.3582    1.0195 N   0  0  0  0  0  0  0  0  0  0  0  0
   -3.3035   -0.2148    1.2113 C   0  0  0  0  0  0  0  0  0  0  0  0
   -2.6673   -0.2894   -0.0119 C   0  0  0  0  0  0  0  0  0  0  0  0
   -1.2368   -0.1781   -0.2397 C   0  0  0  0  0  0  0  0  0  0  0  0
   -0.4658    0.0874    0.7665 N   0  0  0  0  0  0  0  0  0  0  0  0
    0.8866    0.2309    0.5951 N   0  0  0  0  0  0  0  0  0  0  0  0
    1.5936    0.3933   -0.5985 C   0  0  0  0  0  0  0  0  0  0  0  0
    1.1119    0.3721   -1.7277 O   0  0  0  0  0  0  0  0  0  0  0  0
    3.0842    0.6251   -0.3280 C   0  0  0  0  0  0  0  0  0  0  0  0
    3.8623    0.4228   -1.5012 O   0  0  0  0  0  0  0  0  0  0  0  0
    5.2216    0.2616   -1.3304 C   0  0  0  0  0  0  0  0  0  0  0  0
    5.8144   -0.3946   -2.4204 C   0  0  0  0  0  0  0  0  0  0  0  0
    7.1775   -0.6583   -2.4356 C   0  0  0  0  0  0  0  0  0  0  0  0
    7.9604   -0.2514   -1.3630 C   0  0  0  0  0  0  0  0  0  0  0  0
    7.3847    0.4267   -0.2745 C   0  0  0  0  0  0  0  0  0  0  0  0
    8.1904    0.8490    0.7919 C   0  0  0  0  0  0  0  0  0  0  0  0
    7.6313    1.5346    1.8616 C   0  0  0  0  0  0  0  0  0  0  0  0
    6.2747    1.7688    1.8336 C   0  0  0  0  0  0  0  0  0  0  0  0
    5.4650    1.3665    0.8302 N   0  0  0  0  0  0  0  0  0  0  0  0
    5.9949    0.7005   -0.2327 C   0  0  0  0  0  0  0  0  0  0  0  0
   -3.6879   -0.4845   -0.9939 C   0  0  0  0  0  0  0  0  0  0  0  0
   -3.6669   -0.6251   -2.3994 C   0  0  0  0  0  0  0  0  0  0  0  0
   -4.8634   -0.7899   -3.1019 C   0  0  0  0  0  0  0  0  0  0  0  0
   -6.0759   -0.8142   -2.4262 C   0  0  0  0  0  0  0  0  0  0  0  0
   -6.1264   -0.6764   -1.0356 C   0  0  0  0  0  0  0  0  0  0  0  0
   -4.9217   -0.5149   -0.3295 C   0  0  0  0  0  0  0  0  0  0  0  0
   -5.6738   -2.4902    2.3587 H   0  0  0  0  0  0  0  0  0  0  0  0
   -6.9820   -1.6443    3.1873 H   0  0  0  0  0  0  0  0  0  0  0  0
   -7.0407   -1.8542    1.4379 H   0  0  0  0  0  0  0  0  0  0  0  0
   -5.0137   -0.2182    3.0383 H   0  0  0  0  0  0  0  0  0  0  0  0
   -7.2144    0.8475    1.1960 H   0  0  0  0  0  0  0  0  0  0  0  0
   -5.9667    1.8058    2.0049 H   0  0  0  0  0  0  0  0  0  0  0  0
   -7.1720    0.9298    2.9613 H   0  0  0  0  0  0  0  0  0  0  0  0
   -2.8869   -0.0661    2.2030 H   0  0  0  0  0  0  0  0  0  0  0  0
   -0.9029   -0.3411   -1.2728 H   0  0  0  0  0  0  0  0  0  0  0  0
    1.3784    0.3963    1.4703 H   0  0  0  0  0  0  0  0  0  0  0  0
    3.3861   -0.0743    0.4610 H   0  0  0  0  0  0  0  0  0  0  0  0
    3.1691    1.6673    0.0014 H   0  0  0  0  0  0  0  0  0  0  0  0
    5.1945   -0.7083   -3.2559 H   0  0  0  0  0  0  0  0  0  0  0  0
    7.6263   -1.1780   -3.2756 H   0  0  0  0  0  0  0  0  0  0  0  0
    9.0284   -0.4604   -1.3833 H   0  0  0  0  0  0  0  0  0  0  0  0
    9.2596    0.6549    0.7903 H   0  0  0  0  0  0  0  0  0  0  0  0
    8.2376    1.8786    2.6885 H   0  0  0  0  0  0  0  0  0  0  0  0
    5.7808    2.3046    2.6427 H   0  0  0  0  0  0  0  0  0  0  0  0
   -2.7249   -0.5989   -2.9417 H   0  0  0  0  0  0  0  0  0  0  0  0
   -4.8414   -0.8955   -4.1835 H   0  0  0  0  0  0  0  0  0  0  0  0
   -7.0008   -0.9396   -2.9856 H   0  0  0  0  0  0  0  0  0  0  0  0
   -7.0859   -0.6945   -0.5325 H   0  0  0  0  0  0  0  0  0  0  0  0
  1  2  1  0
  2  3  1  0
  2  4  1  0
  4  5  1  0
  5  6  2  0
  6  7  1  0
  7  8  2  3
  8  9  1  0
  9 10  1  0
 10 11  2  0
 10 12  1  0
 12 13  1  0
 13 14  1  0
 14 15  2  0
 15 16  1  0
 16 17  2  0
 17 18  1  0
 18 19  2  0
 19 20  1  0
 20 21  2  0
 21 22  1  0
 22 23  2  0
  6 24  1  0
 24 25  2  0
 25 26  1  0
 26 27  2  0
 27 28  1  0
 28 29  2  0
 29  4  1  0
 23 14  1  0
 29 24  1  0
 23 18  1  0
  1 30  1  0
  1 31  1  0
  1 32  1  0
  2 33  1  0
  3 34  1  0
  3 35  1  0
  3 36  1  0
  5 37  1  0
  7 38  1  0
  9 39  1  0
 12 40  1  0
 12 41  1  0
 15 42  1  0
 16 43  1  0
 17 44  1  0
 19 45  1  0
 20 46  1  0
 21 47  1  0
 25 48  1  0
 26 49  1  0
 27 50  1  0
 28 51  1  0
M  END
$$$$
