
     RDKit          3D

 44 46  0  0  0  0  0  0  0  0999 V2000
    7.3512    0.8311    1.5847 C   0  0  0  0  0  0  0  0  0  0  0  0
    6.0601    0.2376    1.5530 O   0  0  0  0  0  0  0  0  0  0  0  0
    5.4694    0.3287    0.2576 C   0  0  0  0  0  0  0  0  0  0  0  0
    4.0920   -0.3174    0.3125 C   0  0  0  0  0  0  0  0  0  0  0  0
    3.4065   -0.2762   -1.0530 C   0  0  0  0  0  0  0  0  0  0  0  0
    2.0679   -0.8844   -1.0099 N   0  0  0  0  0  0  0  0  0  0  0  0
    1.8697   -2.2407   -1.2674 C   0  0  0  0  0  0  0  0  0  0  0  0
    3.0351   -3.3729   -1.6891 S   0  0  0  0  0  0  0  0  0  0  0  0
    0.5863   -2.7071   -1.1727 N   0  0  0  0  0  0  0  0  0  0  0  0
   -0.5066   -1.9174   -0.8301 C   0  0  0  0  0  0  0  0  0  0  0  0
   -1.7773   -2.4728   -0.7608 C   0  0  0  0  0  0  0  0  0  0  0  0
   -2.8678   -1.6640   -0.4122 C   0  0  0  0  0  0  0  0  0  0  0  0
   -2.7257   -0.2945   -0.1253 C   0  0  0  0  0  0  0  0  0  0  0  0
   -3.8085    0.4915    0.2215 N   0  0  0  0  0  0  0  0  0  0  0  0
   -5.1934    0.1101   -0.1036 C   0  0  0  0  0  0  0  0  0  0  0  0
   -6.0657    1.3665   -0.2673 C   0  0  0  0  0  0  0  0  0  0  0  0
   -6.1131    2.2003    0.8980 O   0  0  0  0  0  0  0  0  0  0  0  0
   -4.9175    2.1389    1.6883 C   0  0  0  0  0  0  0  0  0  0  0  0
   -3.6494    1.7968    0.8873 C   0  0  0  0  0  0  0  0  0  0  0  0
   -1.4251    0.2281   -0.2039 C   0  0  0  0  0  0  0  0  0  0  0  0
   -0.3287   -0.5750   -0.5534 C   0  0  0  0  0  0  0  0  0  0  0  0
    1.0316   -0.0133   -0.6329 C   0  0  0  0  0  0  0  0  0  0  0  0
    1.1986    1.1756   -0.3648 O   0  0  0  0  0  0  0  0  0  0  0  0
    8.0245    0.3206    0.8894 H   0  0  0  0  0  0  0  0  0  0  0  0
    7.7519    0.7301    2.5968 H   0  0  0  0  0  0  0  0  0  0  0  0
    7.2898    1.8953    1.3375 H   0  0  0  0  0  0  0  0  0  0  0  0
    6.1043   -0.1913   -0.4691 H   0  0  0  0  0  0  0  0  0  0  0  0
    5.3831    1.3823   -0.0322 H   0  0  0  0  0  0  0  0  0  0  0  0
    3.4798    0.1937    1.0662 H   0  0  0  0  0  0  0  0  0  0  0  0
    4.1859   -1.3504    0.6691 H   0  0  0  0  0  0  0  0  0  0  0  0
    3.3167    0.7651   -1.3862 H   0  0  0  0  0  0  0  0  0  0  0  0
    4.0260   -0.7762   -1.8040 H   0  0  0  0  0  0  0  0  0  0  0  0
    0.4508   -3.6934   -1.3652 H   0  0  0  0  0  0  0  0  0  0  0  0
   -1.9429   -3.5265   -0.9660 H   0  0  0  0  0  0  0  0  0  0  0  0
   -3.8423   -2.1413   -0.3442 H   0  0  0  0  0  0  0  0  0  0  0  0
   -5.5873   -0.5152    0.7059 H   0  0  0  0  0  0  0  0  0  0  0  0
   -5.2412   -0.4543   -1.0419 H   0  0  0  0  0  0  0  0  0  0  0  0
   -5.6955    1.9793   -1.0978 H   0  0  0  0  0  0  0  0  0  0  0  0
   -7.0946    1.0804   -0.5081 H   0  0  0  0  0  0  0  0  0  0  0  0
   -4.8002    3.1088    2.1821 H   0  0  0  0  0  0  0  0  0  0  0  0
   -5.0809    1.3912    2.4735 H   0  0  0  0  0  0  0  0  0  0  0  0
   -2.8054    1.7846    1.5863 H   0  0  0  0  0  0  0  0  0  0  0  0
   -3.4693    2.5652    0.1265 H   0  0  0  0  0  0  0  0  0  0  0  0
   -1.2431    1.2829   -0.0137 H   0  0  0  0  0  0  0  0  0  0  0  0
  1  2  1  0
  2  3  1  0
  3  4  1  0
  4  5  1  0
  5  6  1  0
  6  7  1  0
  7  8  2  0
  7  9  1  0
  9 10  1  0
 10 11  2  0
 11 12  1  0
 12 13  2  0
 13 14  1  0
 14 15  1  0
 15 16  1  0
 16 17  1  0
 17 18  1  0
 18 19  1  0
 13 20  1  0
 20 21  2  0
 21 22  1  0
 22 23  2  0
 22  6  1  0
 21 10  1  0
 19 14  1  0
  1 24  1  0
  1 25  1  0
  1 26  1  0
  3 27  1  0
  3 28  1  0
  4 29  1  0
  4 30  1  0
  5 31  1  0
  5 32  1  0
  9 33  1  0
 11 34  1  0
 12 35  1  0
 15 36  1  0
 15 37  1  0
 16 38  1  0
 16 39  1  0
 18 40  1  0
 18 41  1  0
 19 42  1  0
 19 43  1  0
 20 44  1  0
M  END
$$$$
