
     RDKit          3D

 59 62  0  0  0  0  0  0  0  0999 V2000
    2.7059   -0.0316    2.6309 O   0  0  0  0  0  0  0  0  0  0  0  0
    1.7129   -0.0666    1.9076 C   0  0  0  0  0  0  0  0  0  0  0  0
    0.4906   -0.0914    2.5101 N   0  0  0  0  0  0  0  0  0  0  0  0
   -0.6628    0.3349    1.9269 C   0  0  0  0  0  0  0  0  0  0  0  0
   -1.5759    0.7927    2.6075 O   0  0  0  0  0  0  0  0  0  0  0  0
   -0.7384    0.1335    0.4323 C   0  0  0  0  0  0  0  0  0  0  0  0
   -1.8233    1.0478   -0.1945 C   0  0  0  0  0  0  0  0  0  0  0  0
   -1.5467    2.5556   -0.0535 C   0  0  0  0  0  0  0  0  0  0  0  0
   -2.6503    3.3699   -0.6793 C   0  0  0  0  0  0  0  0  0  0  0  0
   -3.7642    3.7580    0.0689 C   0  0  0  0  0  0  0  0  0  0  0  0
   -4.7623    4.4883   -0.5577 C   0  0  0  0  0  0  0  0  0  0  0  0
   -4.7280    4.8479   -1.8586 N   0  0  0  0  0  0  0  0  0  0  0  0
   -3.6449    4.4581   -2.5643 C   0  0  0  0  0  0  0  0  0  0  0  0
   -2.5962    3.7263   -2.0288 C   0  0  0  0  0  0  0  0  0  0  0  0
   -1.0537   -1.3701    0.1596 C   0  0  0  0  0  0  0  0  0  0  0  0
   -2.4414   -1.8445    0.6152 C   0  0  0  0  0  0  0  0  0  0  0  0
   -2.5892   -3.3354    0.4417 C   0  0  0  0  0  0  0  0  0  0  0  0
   -2.3579   -4.2062    1.5094 C   0  0  0  0  0  0  0  0  0  0  0  0
   -2.4859   -5.5701    1.2939 C   0  0  0  0  0  0  0  0  0  0  0  0
   -2.8182   -6.1155    0.1050 N   0  0  0  0  0  0  0  0  0  0  0  0
   -3.0374   -5.2575   -0.9136 C   0  0  0  0  0  0  0  0  0  0  0  0
   -2.9349   -3.8796   -0.7980 C   0  0  0  0  0  0  0  0  0  0  0  0
    0.6204    0.3827   -0.2138 C   0  0  0  0  0  0  0  0  0  0  0  0
    0.7008    0.8358   -1.3575 O   0  0  0  0  0  0  0  0  0  0  0  0
    1.7388   -0.0008    0.5254 N   0  0  0  0  0  0  0  0  0  0  0  0
    3.0432    0.0539   -0.1689 C   0  0  0  0  0  0  0  0  0  0  0  0
    3.9559   -1.1472    0.1416 C   0  0  0  0  0  0  0  0  0  0  0  0
    5.2587   -1.0707   -0.6536 C   0  0  0  0  0  0  0  0  0  0  0  0
    5.9805    0.2539   -0.4202 C   0  0  0  0  0  0  0  0  0  0  0  0
    5.0824    1.4490   -0.7282 C   0  0  0  0  0  0  0  0  0  0  0  0
    3.7717    1.3907    0.0544 C   0  0  0  0  0  0  0  0  0  0  0  0
    0.5360    0.0334    3.5135 H   0  0  0  0  0  0  0  0  0  0  0  0
   -1.9363    0.8022   -1.2595 H   0  0  0  0  0  0  0  0  0  0  0  0
   -2.7971    0.8415    0.2682 H   0  0  0  0  0  0  0  0  0  0  0  0
   -1.4504    2.8397    1.0007 H   0  0  0  0  0  0  0  0  0  0  0  0
   -0.5962    2.8330   -0.5225 H   0  0  0  0  0  0  0  0  0  0  0  0
   -3.8585    3.4981    1.1183 H   0  0  0  0  0  0  0  0  0  0  0  0
   -5.6440    4.8115   -0.0117 H   0  0  0  0  0  0  0  0  0  0  0  0
   -3.6409    4.7575   -3.6084 H   0  0  0  0  0  0  0  0  0  0  0  0
   -1.7569    3.4411   -2.6550 H   0  0  0  0  0  0  0  0  0  0  0  0
   -0.9514   -1.5664   -0.9176 H   0  0  0  0  0  0  0  0  0  0  0  0
   -0.2915   -2.0011    0.6391 H   0  0  0  0  0  0  0  0  0  0  0  0
   -2.6168   -1.5865    1.6658 H   0  0  0  0  0  0  0  0  0  0  0  0
   -3.2311   -1.3483    0.0392 H   0  0  0  0  0  0  0  0  0  0  0  0
   -2.0861   -3.8386    2.4931 H   0  0  0  0  0  0  0  0  0  0  0  0
   -2.3185   -6.2813    2.0977 H   0  0  0  0  0  0  0  0  0  0  0  0
   -3.3060   -5.7208   -1.8588 H   0  0  0  0  0  0  0  0  0  0  0  0
   -3.1233   -3.2493   -1.6608 H   0  0  0  0  0  0  0  0  0  0  0  0
    2.8375   -0.0138   -1.2462 H   0  0  0  0  0  0  0  0  0  0  0  0
    3.4336   -2.0810   -0.0996 H   0  0  0  0  0  0  0  0  0  0  0  0
    4.2071   -1.1976    1.2057 H   0  0  0  0  0  0  0  0  0  0  0  0
    5.0427   -1.1867   -1.7228 H   0  0  0  0  0  0  0  0  0  0  0  0
    5.9131   -1.9023   -0.3686 H   0  0  0  0  0  0  0  0  0  0  0  0
    6.3144    0.3083    0.6233 H   0  0  0  0  0  0  0  0  0  0  0  0
    6.8790    0.2983   -1.0459 H   0  0  0  0  0  0  0  0  0  0  0  0
    4.8638    1.4728   -1.8030 H   0  0  0  0  0  0  0  0  0  0  0  0
    5.6117    2.3787   -0.4904 H   0  0  0  0  0  0  0  0  0  0  0  0
    3.1283    2.2244   -0.2519 H   0  0  0  0  0  0  0  0  0  0  0  0
    3.9876    1.5412    1.1184 H   0  0  0  0  0  0  0  0  0  0  0  0
  1  2  2  0
  2  3  1  0
  3  4  1  0
  4  5  2  0
  4  6  1  0
  6  7  1  0
  7  8  1  0
  8  9  1  0
  9 10  2  0
 10 11  1  0
 11 12  2  0
 12 13  1  0
 13 14  2  0
  6 15  1  0
 15 16  1  0
 16 17  1  0
 17 18  2  0
 18 19  1  0
 19 20  2  0
 20 21  1  0
 21 22  2  0
  6 23  1  0
 23 24  2  0
 23 25  1  0
 25 26  1  0
 26 27  1  0
 27 28  1  0
 28 29  1  0
 29 30  1  0
 30 31  1  0
 25  2  1  0
 31 26  1  0
 14  9  1  0
 22 17  1  0
  3 32  1  0
  7 33  1  0
  7 34  1  0
  8 35  1  0
  8 36  1  0
 10 37  1  0
 11 38  1  0
 13 39  1  0
 14 40  1  0
 15 41  1  0
 15 42  1  0
 16 43  1  0
 16 44  1  0
 18 45  1  0
 19 46  1  0
 21 47  1  0
 22 48  1  0
 26 49  1  0
 27 50  1  0
 27 51  1  0
 28 52  1  0
 28 53  1  0
 29 54  1  0
 29 55  1  0
 30 56  1  0
 30 57  1  0
 31 58  1  0
 31 59  1  0
M  END
$$$$
