
     RDKit          3D

 56 60  0  0  0  0  0  0  0  0999 V2000
   -0.0151    0.4368    0.4552 C   0  0  0  0  0  0  0  0  0  0  0  0
   -0.3031   -0.7462    1.0208 C   0  0  0  0  0  0  0  0  0  0  0  0
    0.6530   -1.7093    1.5988 C   0  0  0  0  0  0  0  0  0  0  0  0
    1.9614   -1.9072    1.3558 C   0  0  0  0  0  0  0  0  0  0  0  0
    2.7510   -1.2401    0.3372 C   0  0  0  0  0  0  0  0  0  0  0  0
    2.5363   -1.4347   -0.9704 C   0  0  0  0  0  0  0  0  0  0  0  0
    1.6138   -2.3266   -1.4540 O   0  0  0  0  0  0  0  0  0  0  0  0
    3.2369   -0.7694   -1.9086 N   0  0  0  0  0  0  0  0  0  0  0  0
    4.2119    0.1543   -1.6424 C   0  0  0  0  0  0  0  0  0  0  0  0
    4.8152    0.6156   -2.6120 O   0  0  0  0  0  0  0  0  0  0  0  0
    4.4470    0.4509   -0.2916 N   0  0  0  0  0  0  0  0  0  0  0  0
    5.3826    1.5140    0.0358 C   0  0  0  0  0  0  0  0  0  0  0  0
    6.1430    1.5129    1.2199 C   0  0  0  0  0  0  0  0  0  0  0  0
    7.0152    2.5666    1.5350 C   0  0  0  0  0  0  0  0  0  0  0  0
    7.1502    3.6436    0.6640 C   0  0  0  0  0  0  0  0  0  0  0  0
    8.2191    4.9309    1.0492 Cl  0  0  0  0  0  0  0  0  0  0  0  0
    6.4181    3.6770   -0.5152 C   0  0  0  0  0  0  0  0  0  0  0  0
    5.5414    2.6263   -0.8192 C   0  0  0  0  0  0  0  0  0  0  0  0
    3.8258   -0.2774    0.7392 C   0  0  0  0  0  0  0  0  0  0  0  0
    4.0568   -0.1686    1.9459 O   0  0  0  0  0  0  0  0  0  0  0  0
   -0.1129   -2.6274    2.4277 C   0  0  0  0  0  0  0  0  0  0  0  0
   -1.4166   -2.3602    2.2130 C   0  0  0  0  0  0  0  0  0  0  0  0
   -2.5411   -3.1546    2.7862 C   0  0  0  0  0  0  0  0  0  0  0  0
   -1.5787   -1.2655    1.3264 N   0  0  0  0  0  0  0  0  0  0  0  0
   -2.7438   -0.8969    0.6975 C   0  0  0  0  0  0  0  0  0  0  0  0
   -4.1582   -0.4220    1.5885 S   0  0  0  0  0  0  0  0  0  0  0  0
   -5.0311   -0.0920    0.1684 C   0  0  0  0  0  0  0  0  0  0  0  0
   -4.3067   -0.3473   -0.9788 C   0  0  0  0  0  0  0  0  0  0  0  0
   -2.9869   -0.8132   -0.6635 C   0  0  0  0  0  0  0  0  0  0  0  0
   -2.0047   -1.1618   -1.6567 C   0  0  0  0  0  0  0  0  0  0  0  0
   -1.2112   -1.4127   -2.4688 N   0  0  0  0  0  0  0  0  0  0  0  0
   -4.8966   -0.1601   -2.3491 C   0  0  0  0  0  0  0  0  0  0  0  0
   -6.1749    0.6910   -2.3064 C   0  0  0  0  0  0  0  0  0  0  0  0
   -7.1106    0.2673   -1.1579 C   0  0  0  0  0  0  0  0  0  0  0  0
   -6.4352    0.4350    0.2128 C   0  0  0  0  0  0  0  0  0  0  0  0
   -0.8008    1.1154    0.1393 H   0  0  0  0  0  0  0  0  0  0  0  0
    0.9939    0.8041    0.3488 H   0  0  0  0  0  0  0  0  0  0  0  0
    2.5050   -2.6799    1.8983 H   0  0  0  0  0  0  0  0  0  0  0  0
    1.0529   -1.8571   -2.1099 H   0  0  0  0  0  0  0  0  0  0  0  0
    3.1003   -0.9932   -2.8887 H   0  0  0  0  0  0  0  0  0  0  0  0
    6.1105    0.6836    1.9303 H   0  0  0  0  0  0  0  0  0  0  0  0
    7.5821    2.5293    2.4619 H   0  0  0  0  0  0  0  0  0  0  0  0
    6.5119    4.5143   -1.2074 H   0  0  0  0  0  0  0  0  0  0  0  0
    4.9622    2.7231   -1.7364 H   0  0  0  0  0  0  0  0  0  0  0  0
    0.2974   -3.4257    3.0218 H   0  0  0  0  0  0  0  0  0  0  0  0
   -2.1737   -4.0282    3.3299 H   0  0  0  0  0  0  0  0  0  0  0  0
   -3.2063   -3.5205    2.0012 H   0  0  0  0  0  0  0  0  0  0  0  0
   -3.1163   -2.5542    3.4950 H   0  0  0  0  0  0  0  0  0  0  0  0
   -5.1311   -1.1499   -2.7686 H   0  0  0  0  0  0  0  0  0  0  0  0
   -4.1665    0.3149   -3.0189 H   0  0  0  0  0  0  0  0  0  0  0  0
   -6.6995    0.6065   -3.2724 H   0  0  0  0  0  0  0  0  0  0  0  0
   -5.9014    1.7501   -2.1778 H   0  0  0  0  0  0  0  0  0  0  0  0
   -7.4038   -0.7831   -1.3005 H   0  0  0  0  0  0  0  0  0  0  0  0
   -8.0320    0.8606   -1.1836 H   0  0  0  0  0  0  0  0  0  0  0  0
   -6.4067    1.5005    0.4780 H   0  0  0  0  0  0  0  0  0  0  0  0
   -7.0295   -0.0776    0.9764 H   0  0  0  0  0  0  0  0  0  0  0  0
  1  2  2  0
  2  3  1  0
  3  4  2  3
  4  5  1  0
  5  6  2  0
  6  7  1  0
  6  8  1  0
  8  9  1  0
  9 10  2  0
  9 11  1  0
 11 12  1  0
 12 13  2  0
 13 14  1  0
 14 15  2  0
 15 16  1  0
 15 17  1  0
 17 18  2  0
 11 19  1  0
 19 20  2  0
  3 21  1  0
 21 22  2  0
 22 23  1  0
 22 24  1  0
 24 25  1  0
 25 26  1  0
 26 27  1  0
 27 28  2  0
 28 29  1  0
 29 30  1  0
 30 31  3  0
 28 32  1  0
 32 33  1  0
 33 34  1  0
 34 35  1  0
 24  2  1  0
 29 25  2  0
 19  5  1  0
 35 27  1  0
 18 12  1  0
  1 36  1  0
  1 37  1  0
  4 38  1  0
  7 39  1  0
  8 40  1  0
 13 41  1  0
 14 42  1  0
 17 43  1  0
 18 44  1  0
 21 45  1  0
 23 46  1  0
 23 47  1  0
 23 48  1  0
 32 49  1  0
 32 50  1  0
 33 51  1  0
 33 52  1  0
 34 53  1  0
 34 54  1  0
 35 55  1  0
 35 56  1  0
M  END
$$$$
