
     RDKit          3D

 40 41  0  0  0  0  0  0  0  0999 V2000
   -0.1138    1.8594   -3.3155 C   0  0  0  0  0  0  0  0  0  0  0  0
   -0.3614    2.4941   -1.9537 C   0  0  0  0  0  0  0  0  0  0  0  0
   -0.7376    1.4838   -0.8894 C   0  0  0  0  0  0  0  0  0  0  0  0
   -2.0767    1.1516   -0.6769 C   0  0  0  0  0  0  0  0  0  0  0  0
   -3.2023    1.7627   -1.4631 C   0  0  0  0  0  0  0  0  0  0  0  0
   -2.4729    0.2687    0.2666 N   0  0  0  0  0  0  0  0  0  0  0  0
   -1.5801   -0.3264    1.0811 C   0  0  0  0  0  0  0  0  0  0  0  0
   -2.0316   -1.2193    2.0767 C   0  0  0  0  0  0  0  0  0  0  0  0
   -3.3961   -1.4243    2.1176 O   0  0  0  0  0  0  0  0  0  0  0  0
   -3.9155   -2.2593    3.1411 C   0  0  0  0  0  0  0  0  0  0  0  0
   -1.1361   -1.8457    2.9507 C   0  0  0  0  0  0  0  0  0  0  0  0
    0.2210   -1.5851    2.8512 C   0  0  0  0  0  0  0  0  0  0  0  0
    0.6806   -0.7080    1.8740 C   0  0  0  0  0  0  0  0  0  0  0  0
   -0.2000   -0.0691    0.9599 C   0  0  0  0  0  0  0  0  0  0  0  0
    0.2135    0.8290   -0.0743 C   0  0  0  0  0  0  0  0  0  0  0  0
    1.9810    1.1579   -0.3342 S   0  0  0  0  0  0  0  0  0  0  0  0
    2.4520   -0.4098   -1.1579 C   0  0  0  0  0  0  0  0  0  0  0  0
    3.9512   -0.4627   -1.4184 C   0  0  0  0  0  0  0  0  0  0  0  0
    4.7352   -0.7010   -0.1581 C   0  0  0  0  0  0  0  0  0  0  0  0
    4.3410   -1.2245    0.8702 O   0  0  0  0  0  0  0  0  0  0  0  0
    6.0195   -0.3118   -0.2798 O   0  0  0  0  0  0  0  0  0  0  0  0
   -0.9885    1.3035   -3.6670 H   0  0  0  0  0  0  0  0  0  0  0  0
    0.1119    2.6347   -4.0548 H   0  0  0  0  0  0  0  0  0  0  0  0
    0.7312    1.1666   -3.2916 H   0  0  0  0  0  0  0  0  0  0  0  0
    0.5148    3.0764   -1.6487 H   0  0  0  0  0  0  0  0  0  0  0  0
   -1.1501    3.2492   -2.0506 H   0  0  0  0  0  0  0  0  0  0  0  0
   -3.0625    1.6033   -2.5357 H   0  0  0  0  0  0  0  0  0  0  0  0
   -3.2755    2.8344   -1.2549 H   0  0  0  0  0  0  0  0  0  0  0  0
   -4.1598    1.3070   -1.1876 H   0  0  0  0  0  0  0  0  0  0  0  0
   -3.5559   -3.2875    3.0315 H   0  0  0  0  0  0  0  0  0  0  0  0
   -5.0048   -2.2769    3.0377 H   0  0  0  0  0  0  0  0  0  0  0  0
   -3.6834   -1.8607    4.1342 H   0  0  0  0  0  0  0  0  0  0  0  0
   -1.4672   -2.5360    3.7183 H   0  0  0  0  0  0  0  0  0  0  0  0
    0.9249   -2.0597    3.5303 H   0  0  0  0  0  0  0  0  0  0  0  0
    1.7530   -0.5239    1.8401 H   0  0  0  0  0  0  0  0  0  0  0  0
    1.9192   -0.4652   -2.1120 H   0  0  0  0  0  0  0  0  0  0  0  0
    2.1353   -1.2652   -0.5537 H   0  0  0  0  0  0  0  0  0  0  0  0
    4.2944    0.4603   -1.8996 H   0  0  0  0  0  0  0  0  0  0  0  0
    4.1725   -1.2972   -2.0936 H   0  0  0  0  0  0  0  0  0  0  0  0
    6.4196   -0.5233    0.5898 H   0  0  0  0  0  0  0  0  0  0  0  0
  1  2  1  0
  2  3  1  0
  3  4  2  0
  4  5  1  0
  4  6  1  0
  6  7  2  0
  7  8  1  0
  8  9  1  0
  9 10  1  0
  8 11  2  0
 11 12  1  0
 12 13  2  0
 13 14  1  0
 14 15  2  0
 15 16  1  0
 16 17  1  0
 17 18  1  0
 18 19  1  0
 19 20  2  0
 19 21  1  0
 15  3  1  0
 14  7  1  0
  1 22  1  0
  1 23  1  0
  1 24  1  0
  2 25  1  0
  2 26  1  0
  5 27  1  0
  5 28  1  0
  5 29  1  0
 10 30  1  0
 10 31  1  0
 10 32  1  0
 11 33  1  0
 12 34  1  0
 13 35  1  0
 17 36  1  0
 17 37  1  0
 18 38  1  0
 18 39  1  0
 21 40  1  0
M  END
$$$$
