
     RDKit          3D

 57 59  0  0  0  0  0  0  0  0999 V2000
   -4.4211    0.0179    2.9314 C   0  0  0  0  0  0  0  0  0  0  0  0
   -4.3422   -0.7250    1.6049 C   0  0  0  0  0  0  0  0  0  0  0  0
   -3.9921    0.1441    0.4717 N   0  0  0  0  0  0  0  0  0  0  0  0
   -2.7148    0.7035    0.3109 C   0  0  0  0  0  0  0  0  0  0  0  0
   -2.5005    1.5940   -0.5182 O   0  0  0  0  0  0  0  0  0  0  0  0
   -1.5605    0.1839    1.1849 C   0  0  0  0  0  0  0  0  0  0  0  0
   -0.2888    0.4056    0.5639 O   0  0  0  0  0  0  0  0  0  0  0  0
   -0.0606   -0.4039   -0.4998 C   0  0  0  0  0  0  0  0  0  0  0  0
   -0.7449   -1.3462   -0.8559 O   0  0  0  0  0  0  0  0  0  0  0  0
    1.1751    0.0415   -1.1716 C   0  0  0  0  0  0  0  0  0  0  0  0
    2.3359    0.2216   -0.4056 C   0  0  0  0  0  0  0  0  0  0  0  0
    3.5427    0.6197   -1.0118 C   0  0  0  0  0  0  0  0  0  0  0  0
    4.9247    0.8597    0.0810 S   0  0  0  0  0  6  0  0  0  0  0  0
    4.3706    1.3190    1.3389 O   0  0  0  0  0  0  0  0  0  0  0  0
    5.9678    1.6194   -0.5637 O   0  0  0  0  0  0  0  0  0  0  0  0
    5.4824   -0.7317    0.3257 N   0  0  0  0  0  0  0  0  0  0  0  0
    6.1074   -1.4340   -0.8418 C   0  0  0  0  0  0  0  0  0  0  0  0
    7.5822   -1.0532   -1.0246 C   0  0  0  0  0  0  0  0  0  0  0  0
    8.3311   -1.2859    0.1765 O   0  0  0  0  0  0  0  0  0  0  0  0
    7.7959   -0.5138    1.2613 C   0  0  0  0  0  0  0  0  0  0  0  0
    6.3442   -0.9118    1.5420 C   0  0  0  0  0  0  0  0  0  0  0  0
    3.5818    0.8458   -2.3883 C   0  0  0  0  0  0  0  0  0  0  0  0
    4.9867    1.2958   -3.2802 Cl  0  0  0  0  0  0  0  0  0  0  0  0
    2.4150    0.6635   -3.1472 C   0  0  0  0  0  0  0  0  0  0  0  0
    1.2154    0.2626   -2.5481 C   0  0  0  0  0  0  0  0  0  0  0  0
   -0.1671    0.1005   -3.5680 Cl  0  0  0  0  0  0  0  0  0  0  0  0
   -5.0318    0.5623   -0.5030 C   0  0  0  0  0  0  0  0  0  0  0  0
   -5.9475    1.6825    0.0118 C   0  0  0  0  0  0  0  0  0  0  0  0
   -7.1707    1.0409    0.6413 C   0  0  0  0  0  0  0  0  0  0  0  0
   -7.5118   -0.3957   -0.3484 S   0  0  0  0  0  6  0  0  0  0  0  0
   -7.7508   -1.5163    0.5378 O   0  0  0  0  0  0  0  0  0  0  0  0
   -8.4509   -0.0220   -1.3857 O   0  0  0  0  0  0  0  0  0  0  0  0
   -5.8963   -0.5649   -1.0782 C   0  0  0  0  0  0  0  0  0  0  0  0
   -5.0917    0.8791    2.8747 H   0  0  0  0  0  0  0  0  0  0  0  0
   -4.7892   -0.6522    3.7148 H   0  0  0  0  0  0  0  0  0  0  0  0
   -3.4442    0.3892    3.2494 H   0  0  0  0  0  0  0  0  0  0  0  0
   -3.6042   -1.5287    1.6766 H   0  0  0  0  0  0  0  0  0  0  0  0
   -5.2968   -1.2151    1.4117 H   0  0  0  0  0  0  0  0  0  0  0  0
   -1.5591    0.7591    2.1149 H   0  0  0  0  0  0  0  0  0  0  0  0
   -1.6587   -0.8749    1.4335 H   0  0  0  0  0  0  0  0  0  0  0  0
    2.2999    0.0468    0.6703 H   0  0  0  0  0  0  0  0  0  0  0  0
    5.5408   -1.2588   -1.7583 H   0  0  0  0  0  0  0  0  0  0  0  0
    6.0355   -2.5098   -0.6363 H   0  0  0  0  0  0  0  0  0  0  0  0
    7.7096   -0.0104   -1.3301 H   0  0  0  0  0  0  0  0  0  0  0  0
    8.0235   -1.6755   -1.8099 H   0  0  0  0  0  0  0  0  0  0  0  0
    7.8933    0.5526    1.0308 H   0  0  0  0  0  0  0  0  0  0  0  0
    8.4106   -0.7187    2.1436 H   0  0  0  0  0  0  0  0  0  0  0  0
    6.2985   -1.9744    1.8123 H   0  0  0  0  0  0  0  0  0  0  0  0
    5.9435   -0.3546    2.3939 H   0  0  0  0  0  0  0  0  0  0  0  0
    2.4391    0.8384   -4.2226 H   0  0  0  0  0  0  0  0  0  0  0  0
   -4.4910    0.9737   -1.3642 H   0  0  0  0  0  0  0  0  0  0  0  0
   -6.2762    2.2849   -0.8452 H   0  0  0  0  0  0  0  0  0  0  0  0
   -5.4425    2.3590    0.7085 H   0  0  0  0  0  0  0  0  0  0  0  0
   -6.9800    0.7070    1.6624 H   0  0  0  0  0  0  0  0  0  0  0  0
   -8.0387    1.7039    0.6344 H   0  0  0  0  0  0  0  0  0  0  0  0
   -6.0259   -0.4348   -2.1578 H   0  0  0  0  0  0  0  0  0  0  0  0
   -5.5024   -1.5652   -0.8854 H   0  0  0  0  0  0  0  0  0  0  0  0
  1  2  1  0
  2  3  1  0
  3  4  1  0
  4  5  2  0
  4  6  1  0
  6  7  1  0
  7  8  1  0
  8  9  2  0
  8 10  1  0
 10 11  2  0
 11 12  1  0
 12 13  1  0
 13 14  2  0
 13 15  2  0
 13 16  1  0
 16 17  1  0
 17 18  1  0
 18 19  1  0
 19 20  1  0
 20 21  1  0
 12 22  2  0
 22 23  1  0
 22 24  1  0
 24 25  2  0
 25 26  1  0
  3 27  1  0
 27 28  1  0
 28 29  1  0
 29 30  1  0
 30 31  2  0
 30 32  2  0
 30 33  1  0
 25 10  1  0
 33 27  1  0
 21 16  1  0
  1 34  1  0
  1 35  1  0
  1 36  1  0
  2 37  1  0
  2 38  1  0
  6 39  1  0
  6 40  1  0
 11 41  1  0
 17 42  1  0
 17 43  1  0
 18 44  1  0
 18 45  1  0
 20 46  1  0
 20 47  1  0
 21 48  1  0
 21 49  1  0
 24 50  1  0
 27 51  1  0
 28 52  1  0
 28 53  1  0
 29 54  1  0
 29 55  1  0
 33 56  1  0
 33 57  1  0
M  END
$$$$
