
     RDKit          3D

 56 59  0  0  0  0  0  0  0  0999 V2000
   -5.6911    2.4485   -3.0585 C   0  0  0  0  0  0  0  0  0  0  0  0
   -4.2069    2.1410   -3.0033 C   0  0  0  0  0  0  0  0  0  0  0  0
   -3.9339    1.4968   -1.7537 O   0  0  0  0  0  0  0  0  0  0  0  0
   -2.6155    1.2600   -1.5083 C   0  0  0  0  0  0  0  0  0  0  0  0
   -1.7104    1.5771   -2.2770 O   0  0  0  0  0  0  0  0  0  0  0  0
   -2.3687    0.5726   -0.2358 C   0  0  0  0  0  0  0  0  0  0  0  0
   -1.0816    0.2077    0.1523 C   0  0  0  0  0  0  0  0  0  0  0  0
    0.0823    0.4561   -0.5629 N   0  0  0  0  0  0  0  0  0  0  0  0
    1.3882    0.1204   -0.2185 C   0  0  0  0  0  0  0  0  0  0  0  0
    1.7528   -0.4653    0.7962 O   0  0  0  0  0  0  0  0  0  0  0  0
    2.3708    0.6143   -1.2912 C   0  0  0  0  0  0  0  0  0  0  0  0
    3.7361    0.1856   -1.0274 N   0  0  0  0  0  0  0  0  0  0  0  0
    4.5578    1.0908   -0.3949 N   0  0  0  0  0  0  0  0  0  0  0  0
    5.7672    0.7212   -0.0962 C   0  0  0  0  0  0  0  0  0  0  0  0
    6.6406    1.7467    0.5988 C   0  0  0  0  0  0  0  0  0  0  0  0
    7.4456    2.4542    0.0292 O   0  0  0  0  0  0  0  0  0  0  0  0
    6.4495    1.7549    1.9196 O   0  0  0  0  0  0  0  0  0  0  0  0
    6.3251   -0.6024   -0.3984 C   0  0  0  0  0  0  0  0  0  0  0  0
    7.6337   -0.9736   -0.0652 C   0  0  0  0  0  0  0  0  0  0  0  0
    8.0953   -2.2527   -0.3867 C   0  0  0  0  0  0  0  0  0  0  0  0
    7.2574   -3.1581   -1.0375 C   0  0  0  0  0  0  0  0  0  0  0  0
    5.9551   -2.7857   -1.3714 C   0  0  0  0  0  0  0  0  0  0  0  0
    5.4912   -1.5036   -1.0508 C   0  0  0  0  0  0  0  0  0  0  0  0
    4.1189   -1.0976   -1.4068 C   0  0  0  0  0  0  0  0  0  0  0  0
    3.3922   -1.8758   -2.0208 O   0  0  0  0  0  0  0  0  0  0  0  0
   -1.0521   -0.6083    1.6370 S   0  0  0  0  0  0  0  0  0  0  0  0
   -2.7333   -0.4992    1.8131 C   0  0  0  0  0  0  0  0  0  0  0  0
   -3.3373    0.1760    0.7693 C   0  0  0  0  0  0  0  0  0  0  0  0
   -4.8265    0.3879    0.7441 C   0  0  0  0  0  0  0  0  0  0  0  0
   -5.4836    0.1173    2.1076 C   0  0  0  0  0  0  0  0  0  0  0  0
   -4.9489   -1.1746    2.7546 C   0  0  0  0  0  0  0  0  0  0  0  0
   -5.6938   -1.4793    4.0521 C   0  0  0  0  0  0  0  0  0  0  0  0
   -3.4314   -1.0634    3.0134 C   0  0  0  0  0  0  0  0  0  0  0  0
   -5.9602    2.9064   -4.0145 H   0  0  0  0  0  0  0  0  0  0  0  0
   -6.2812    1.5364   -2.9224 H   0  0  0  0  0  0  0  0  0  0  0  0
   -5.9696    3.1330   -2.2500 H   0  0  0  0  0  0  0  0  0  0  0  0
   -3.6341    3.0716   -3.0825 H   0  0  0  0  0  0  0  0  0  0  0  0
   -3.9371    1.4686   -3.8237 H   0  0  0  0  0  0  0  0  0  0  0  0
   -0.0627    0.9439   -1.4466 H   0  0  0  0  0  0  0  0  0  0  0  0
    2.0537    0.2273   -2.2668 H   0  0  0  0  0  0  0  0  0  0  0  0
    2.3407    1.7100   -1.3215 H   0  0  0  0  0  0  0  0  0  0  0  0
    7.0126    2.4843    2.2497 H   0  0  0  0  0  0  0  0  0  0  0  0
    8.3113   -0.2904    0.4395 H   0  0  0  0  0  0  0  0  0  0  0  0
    9.1114   -2.5454   -0.1296 H   0  0  0  0  0  0  0  0  0  0  0  0
    7.6171   -4.1545   -1.2859 H   0  0  0  0  0  0  0  0  0  0  0  0
    5.3029   -3.4941   -1.8786 H   0  0  0  0  0  0  0  0  0  0  0  0
   -5.0637    1.4160    0.4494 H   0  0  0  0  0  0  0  0  0  0  0  0
   -5.2612   -0.2857   -0.0050 H   0  0  0  0  0  0  0  0  0  0  0  0
   -5.2917    0.9663    2.7771 H   0  0  0  0  0  0  0  0  0  0  0  0
   -6.5706    0.0588    1.9747 H   0  0  0  0  0  0  0  0  0  0  0  0
   -5.1264   -2.0051    2.0575 H   0  0  0  0  0  0  0  0  0  0  0  0
   -6.7672   -1.5924    3.8651 H   0  0  0  0  0  0  0  0  0  0  0  0
   -5.5617   -0.6767    4.7858 H   0  0  0  0  0  0  0  0  0  0  0  0
   -5.3311   -2.4111    4.4992 H   0  0  0  0  0  0  0  0  0  0  0  0
   -3.0325   -2.0534    3.2656 H   0  0  0  0  0  0  0  0  0  0  0  0
   -3.2434   -0.4037    3.8698 H   0  0  0  0  0  0  0  0  0  0  0  0
  1  2  1  0
  2  3  1  0
  3  4  1  0
  4  5  2  0
  4  6  1  0
  6  7  2  0
  7  8  1  0
  8  9  1  0
  9 10  2  0
  9 11  1  0
 11 12  1  0
 12 13  1  0
 13 14  2  0
 14 15  1  0
 15 16  2  0
 15 17  1  0
 14 18  1  0
 18 19  2  0
 19 20  1  0
 20 21  2  0
 21 22  1  0
 22 23  2  0
 23 24  1  0
 24 25  2  0
  7 26  1  0
 26 27  1  0
 27 28  2  0
 28 29  1  0
 29 30  1  0
 30 31  1  0
 31 32  1  0
 31 33  1  0
 28  6  1  0
 24 12  1  0
 33 27  1  0
 23 18  1  0
  1 34  1  0
  1 35  1  0
  1 36  1  0
  2 37  1  0
  2 38  1  0
  8 39  1  0
 11 40  1  0
 11 41  1  0
 17 42  1  0
 19 43  1  0
 20 44  1  0
 21 45  1  0
 22 46  1  0
 29 47  1  0
 29 48  1  0
 30 49  1  0
 30 50  1  0
 31 51  1  0
 32 52  1  0
 32 53  1  0
 32 54  1  0
 33 55  1  0
 33 56  1  0
M  END
$$$$
