
     RDKit          3D

 45 46  0  0  0  0  0  0  0  0999 V2000
   -1.5249    1.8019    4.3997 C   0  0  0  0  0  0  0  0  0  0  0  0
   -1.5078    1.2430    3.0794 O   0  0  0  0  0  0  0  0  0  0  0  0
   -2.6604    1.4360    2.3747 C   0  0  0  0  0  0  0  0  0  0  0  0
   -3.6548    1.9998    2.8190 O   0  0  0  0  0  0  0  0  0  0  0  0
   -2.5942    0.8081    0.9758 C   0  0  0  0  0  0  0  0  0  0  0  0
   -3.6943   -0.2709    0.8904 C   0  0  0  0  0  0  0  0  0  0  0  0
   -3.8365   -0.8814   -0.4913 C   0  0  0  0  0  0  0  0  0  0  0  0
   -4.3685   -0.1270   -1.5529 C   0  0  0  0  0  0  0  0  0  0  0  0
   -4.4951   -0.6861   -2.8277 C   0  0  0  0  0  0  0  0  0  0  0  0
   -4.0950   -2.0020   -3.0562 C   0  0  0  0  0  0  0  0  0  0  0  0
   -3.5644   -2.7612   -2.0095 C   0  0  0  0  0  0  0  0  0  0  0  0
   -3.4332   -2.2043   -0.7311 C   0  0  0  0  0  0  0  0  0  0  0  0
   -1.2735    0.2403    0.6716 N   0  0  0  0  0  0  0  0  0  0  0  0
   -0.2915    1.0066    0.0794 C   0  0  0  0  0  0  0  0  0  0  0  0
   -0.4710    2.1589   -0.2965 O   0  0  0  0  0  0  0  0  0  0  0  0
    1.0185    0.2645   -0.0619 C   0  0  0  0  0  0  0  0  0  0  0  0
    2.0426    1.0875   -0.8428 C   0  0  0  0  0  0  0  0  0  0  0  0
    3.2695    0.3418   -1.0439 N   0  0  0  0  0  0  0  0  0  0  0  0
    4.2736    0.2912   -0.0862 C   0  0  0  0  0  0  0  0  0  0  0  0
    4.1892    0.8609    1.0014 O   0  0  0  0  0  0  0  0  0  0  0  0
    5.4275   -0.4837   -0.4908 C   0  0  0  0  0  0  0  0  0  0  0  0
    6.6797   -0.6192    0.0794 C   0  0  0  0  0  0  0  0  0  0  0  0
    7.4144   -1.4961   -0.7537 C   0  0  0  0  0  0  0  0  0  0  0  0
    6.5690   -1.8433   -1.7834 C   0  0  0  0  0  0  0  0  0  0  0  0
    5.3622   -1.2392   -1.6369 O   0  0  0  0  0  0  0  0  0  0  0  0
   -0.5724    1.5652    4.8864 H   0  0  0  0  0  0  0  0  0  0  0  0
   -1.6287    2.8937    4.3498 H   0  0  0  0  0  0  0  0  0  0  0  0
   -2.3345    1.3556    4.9920 H   0  0  0  0  0  0  0  0  0  0  0  0
   -2.7919    1.6153    0.2615 H   0  0  0  0  0  0  0  0  0  0  0  0
   -3.4944   -1.0652    1.6309 H   0  0  0  0  0  0  0  0  0  0  0  0
   -4.6695    0.1504    1.1718 H   0  0  0  0  0  0  0  0  0  0  0  0
   -4.6859    0.9024   -1.3951 H   0  0  0  0  0  0  0  0  0  0  0  0
   -4.8975   -0.0880   -3.6406 H   0  0  0  0  0  0  0  0  0  0  0  0
   -4.1952   -2.4365   -4.0519 H   0  0  0  0  0  0  0  0  0  0  0  0
   -3.2503   -3.7871   -2.1893 H   0  0  0  0  0  0  0  0  0  0  0  0
   -3.0089   -2.8090    0.0776 H   0  0  0  0  0  0  0  0  0  0  0  0
   -0.9742   -0.5544    1.2153 H   0  0  0  0  0  0  0  0  0  0  0  0
    1.4016    0.0287    0.9462 H   0  0  0  0  0  0  0  0  0  0  0  0
    0.8234   -0.6901   -0.5804 H   0  0  0  0  0  0  0  0  0  0  0  0
    2.2776    2.0187   -0.3115 H   0  0  0  0  0  0  0  0  0  0  0  0
    1.6581    1.3539   -1.8377 H   0  0  0  0  0  0  0  0  0  0  0  0
    3.4339   -0.1385   -1.9223 H   0  0  0  0  0  0  0  0  0  0  0  0
    7.0206   -0.1118    0.9750 H   0  0  0  0  0  0  0  0  0  0  0  0
    8.4358   -1.8250   -0.6250 H   0  0  0  0  0  0  0  0  0  0  0  0
    6.6717   -2.4738   -2.6586 H   0  0  0  0  0  0  0  0  0  0  0  0
  1  2  1  0
  2  3  1  0
  3  4  2  0
  3  5  1  0
  5  6  1  0
  6  7  1  0
  7  8  2  0
  8  9  1  0
  9 10  2  0
 10 11  1  0
 11 12  2  0
  5 13  1  0
 13 14  1  0
 14 15  2  0
 14 16  1  0
 16 17  1  0
 17 18  1  0
 18 19  1  0
 19 20  2  0
 19 21  1  0
 21 22  2  0
 22 23  1  0
 23 24  2  0
 24 25  1  0
 12  7  1  0
 25 21  1  0
  1 26  1  0
  1 27  1  0
  1 28  1  0
  5 29  1  0
  6 30  1  0
  6 31  1  0
  8 32  1  0
  9 33  1  0
 10 34  1  0
 11 35  1  0
 12 36  1  0
 13 37  1  0
 16 38  1  0
 16 39  1  0
 17 40  1  0
 17 41  1  0
 18 42  1  0
 22 43  1  0
 23 44  1  0
 24 45  1  0
M  END
$$$$
