
     RDKit          3D

 43 44  0  0  0  0  0  0  0  0999 V2000
   -3.7473   -3.3393   -0.5300 C   0  0  0  0  0  0  0  0  0  0  0  0
   -4.7132   -2.4953    0.0861 O   0  0  0  0  0  0  0  0  0  0  0  0
   -4.2853   -1.2508    0.4730 C   0  0  0  0  0  0  0  0  0  0  0  0
   -2.9963   -0.7361    0.3201 C   0  0  0  0  0  0  0  0  0  0  0  0
   -2.6931    0.5666    0.7541 C   0  0  0  0  0  0  0  0  0  0  0  0
   -1.3179    1.0626    0.5962 C   0  0  0  0  0  0  0  0  0  0  0  0
   -1.0332    2.3087    0.1905 C   0  0  0  0  0  0  0  0  0  0  0  0
    0.3405    2.8541    0.0039 C   0  0  0  0  0  0  0  0  0  0  0  0
    0.4595    4.0535   -0.2570 O   0  0  0  0  0  0  0  0  0  0  0  0
    1.5503    1.9615    0.1010 C   0  0  0  0  0  0  0  0  0  0  0  0
    2.0780    1.8383    1.5064 C   0  0  0  0  0  0  0  0  0  0  0  0
    1.3411    1.8158    2.4914 O   0  0  0  0  0  0  0  0  0  0  0  0
    3.5475    1.7635    1.7333 C   0  0  0  0  0  0  0  0  0  0  0  0
    4.4363    1.0422    1.0341 C   0  0  0  0  0  0  0  0  0  0  0  0
    4.1329    0.1191   -0.0595 C   0  0  0  0  0  0  0  0  0  0  0  0
    3.4061   -1.0542    0.1789 C   0  0  0  0  0  0  0  0  0  0  0  0
    3.1124   -1.9221   -0.8736 C   0  0  0  0  0  0  0  0  0  0  0  0
    3.5514   -1.6208   -2.1575 C   0  0  0  0  0  0  0  0  0  0  0  0
    3.2370   -2.4942   -3.1553 O   0  0  0  0  0  0  0  0  0  0  0  0
    4.2868   -0.4665   -2.4083 C   0  0  0  0  0  0  0  0  0  0  0  0
    4.5816    0.4027   -1.3547 C   0  0  0  0  0  0  0  0  0  0  0  0
   -3.6904    1.3379    1.3686 C   0  0  0  0  0  0  0  0  0  0  0  0
   -4.9797    0.8299    1.5250 C   0  0  0  0  0  0  0  0  0  0  0  0
   -5.2632   -0.4522    1.0753 C   0  0  0  0  0  0  0  0  0  0  0  0
   -6.5357   -0.9280    1.2402 O   0  0  0  0  0  0  0  0  0  0  0  0
   -2.9235   -3.5624    0.1559 H   0  0  0  0  0  0  0  0  0  0  0  0
   -4.2398   -4.2847   -0.7774 H   0  0  0  0  0  0  0  0  0  0  0  0
   -3.3790   -2.9015   -1.4637 H   0  0  0  0  0  0  0  0  0  0  0  0
   -2.2109   -1.3255   -0.1417 H   0  0  0  0  0  0  0  0  0  0  0  0
   -0.5406    0.3418    0.8322 H   0  0  0  0  0  0  0  0  0  0  0  0
   -1.8167    3.0260   -0.0377 H   0  0  0  0  0  0  0  0  0  0  0  0
    2.3156    2.4040   -0.5474 H   0  0  0  0  0  0  0  0  0  0  0  0
    1.3219    0.9727   -0.3046 H   0  0  0  0  0  0  0  0  0  0  0  0
    3.8813    2.3472    2.5871 H   0  0  0  0  0  0  0  0  0  0  0  0
    5.4883    1.0913    1.3097 H   0  0  0  0  0  0  0  0  0  0  0  0
    3.0661   -1.3025    1.1823 H   0  0  0  0  0  0  0  0  0  0  0  0
    2.5481   -2.8326   -0.6918 H   0  0  0  0  0  0  0  0  0  0  0  0
    3.6343   -2.1790   -3.9839 H   0  0  0  0  0  0  0  0  0  0  0  0
    4.6364   -0.2272   -3.4079 H   0  0  0  0  0  0  0  0  0  0  0  0
    5.1553    1.3053   -1.5544 H   0  0  0  0  0  0  0  0  0  0  0  0
   -3.4721    2.3355    1.7432 H   0  0  0  0  0  0  0  0  0  0  0  0
   -5.7541    1.4255    1.9989 H   0  0  0  0  0  0  0  0  0  0  0  0
   -6.5166   -1.8308    0.8677 H   0  0  0  0  0  0  0  0  0  0  0  0
  1  2  1  0
  2  3  1  0
  3  4  2  0
  4  5  1  0
  5  6  1  0
  6  7  2  3
  7  8  1  0
  8  9  2  0
  8 10  1  0
 10 11  1  0
 11 12  2  0
 11 13  1  0
 13 14  2  3
 14 15  1  0
 15 16  2  0
 16 17  1  0
 17 18  2  0
 18 19  1  0
 18 20  1  0
 20 21  2  0
  5 22  2  0
 22 23  1  0
 23 24  2  0
 24 25  1  0
 24  3  1  0
 21 15  1  0
  1 26  1  0
  1 27  1  0
  1 28  1  0
  4 29  1  0
  6 30  1  0
  7 31  1  0
 10 32  1  0
 10 33  1  0
 13 34  1  0
 14 35  1  0
 16 36  1  0
 17 37  1  0
 19 38  1  0
 20 39  1  0
 21 40  1  0
 22 41  1  0
 23 42  1  0
 25 43  1  0
M  END
$$$$
