
     RDKit          3D

 46 48  0  0  0  0  0  0  0  0999 V2000
    6.9119    2.0212   -0.7686 C   0  0  0  0  0  0  0  0  0  0  0  0
    6.2790    1.0866    0.0954 O   0  0  0  0  0  0  0  0  0  0  0  0
    6.3123   -0.2370   -0.4407 C   0  0  0  0  0  0  0  0  0  0  0  0
    5.6233   -1.2003    0.5333 C   0  0  0  0  0  0  0  0  0  0  0  0
    4.1999   -0.8927    0.7011 N   0  0  0  0  0  0  0  0  0  0  0  0
    3.3349   -1.2264   -0.3256 C   0  0  0  0  0  0  0  0  0  0  0  0
    3.6416   -1.8025   -1.3616 O   0  0  0  0  0  0  0  0  0  0  0  0
    1.9553   -0.7804   -0.0062 C   0  0  0  0  0  0  0  0  0  0  0  0
    0.9311   -1.0038   -0.8399 C   0  0  0  0  0  0  0  0  0  0  0  0
   -0.4601   -0.6043   -0.5981 C   0  0  0  0  0  0  0  0  0  0  0  0
   -0.8319    0.7230   -0.8204 C   0  0  0  0  0  0  0  0  0  0  0  0
   -2.1497    1.1414   -0.5978 C   0  0  0  0  0  0  0  0  0  0  0  0
   -3.1430    0.2631   -0.1456 C   0  0  0  0  0  0  0  0  0  0  0  0
   -4.4352    0.6784    0.0746 N   0  0  0  0  0  0  0  0  0  0  0  0
   -4.9286    2.0219   -0.2183 C   0  0  0  0  0  0  0  0  0  0  0  0
   -6.4384    1.9051   -0.0275 C   0  0  0  0  0  0  0  0  0  0  0  0
   -6.5611    0.8655    1.0721 C   0  0  0  0  0  0  0  0  0  0  0  0
   -5.4590   -0.1342    0.7282 C   0  0  0  0  0  0  0  0  0  0  0  0
   -2.7450   -1.0685    0.0634 C   0  0  0  0  0  0  0  0  0  0  0  0
   -1.4264   -1.5190   -0.1567 C   0  0  0  0  0  0  0  0  0  0  0  0
   -1.0893   -2.9618    0.1041 C   0  0  0  0  0  0  0  0  0  0  0  0
    1.9258    0.0049    1.5193 S   0  0  0  0  0  0  0  0  0  0  0  0
    3.6541   -0.2226    1.7771 C   0  0  0  0  0  0  0  0  0  0  0  0
    4.4064    0.3017    3.1715 S   0  0  0  0  0  0  0  0  0  0  0  0
    6.4020    2.0545   -1.7361 H   0  0  0  0  0  0  0  0  0  0  0  0
    6.8523    3.0107   -0.3078 H   0  0  0  0  0  0  0  0  0  0  0  0
    7.9660    1.7618   -0.9057 H   0  0  0  0  0  0  0  0  0  0  0  0
    5.8164   -0.2455   -1.4175 H   0  0  0  0  0  0  0  0  0  0  0  0
    7.3554   -0.5455   -0.5738 H   0  0  0  0  0  0  0  0  0  0  0  0
    5.7068   -2.2213    0.1427 H   0  0  0  0  0  0  0  0  0  0  0  0
    6.1314   -1.1726    1.5010 H   0  0  0  0  0  0  0  0  0  0  0  0
    1.0945   -1.5301   -1.7787 H   0  0  0  0  0  0  0  0  0  0  0  0
   -0.1020    1.4517   -1.1651 H   0  0  0  0  0  0  0  0  0  0  0  0
   -2.3787    2.1875   -0.7782 H   0  0  0  0  0  0  0  0  0  0  0  0
   -4.5076    2.7424    0.4929 H   0  0  0  0  0  0  0  0  0  0  0  0
   -4.6994    2.3423   -1.2404 H   0  0  0  0  0  0  0  0  0  0  0  0
   -6.9026    2.8599    0.2337 H   0  0  0  0  0  0  0  0  0  0  0  0
   -6.9072    1.5338   -0.9468 H   0  0  0  0  0  0  0  0  0  0  0  0
   -7.5499    0.4008    1.1131 H   0  0  0  0  0  0  0  0  0  0  0  0
   -6.3582    1.3275    2.0459 H   0  0  0  0  0  0  0  0  0  0  0  0
   -5.0967   -0.6206    1.6403 H   0  0  0  0  0  0  0  0  0  0  0  0
   -5.8330   -0.8954    0.0340 H   0  0  0  0  0  0  0  0  0  0  0  0
   -3.4794   -1.7952    0.4013 H   0  0  0  0  0  0  0  0  0  0  0  0
   -0.6602   -3.4231   -0.7915 H   0  0  0  0  0  0  0  0  0  0  0  0
   -1.9791   -3.5413    0.3731 H   0  0  0  0  0  0  0  0  0  0  0  0
   -0.3786   -3.0413    0.9331 H   0  0  0  0  0  0  0  0  0  0  0  0
  1  2  1  0
  2  3  1  0
  3  4  1  0
  4  5  1  0
  5  6  1  0
  6  7  2  0
  6  8  1  0
  8  9  2  3
  9 10  1  0
 10 11  2  0
 11 12  1  0
 12 13  2  0
 13 14  1  0
 14 15  1  0
 15 16  1  0
 16 17  1  0
 17 18  1  0
 13 19  1  0
 19 20  2  0
 20 21  1  0
  8 22  1  0
 22 23  1  0
 23 24  2  0
 23  5  1  0
 20 10  1  0
 18 14  1  0
  1 25  1  0
  1 26  1  0
  1 27  1  0
  3 28  1  0
  3 29  1  0
  4 30  1  0
  4 31  1  0
  9 32  1  0
 11 33  1  0
 12 34  1  0
 15 35  1  0
 15 36  1  0
 16 37  1  0
 16 38  1  0
 17 39  1  0
 17 40  1  0
 18 41  1  0
 18 42  1  0
 19 43  1  0
 21 44  1  0
 21 45  1  0
 21 46  1  0
M  END
$$$$
