
     RDKit          3D

 39 41  0  0  0  0  0  0  0  0999 V2000
    2.6433    2.2776   -2.1347 C   0  0  0  0  0  0  0  0  0  0  0  0
    1.8113    2.5452   -0.9077 C   0  0  0  0  0  0  0  0  0  0  0  0
    2.1553    3.3657   -0.0578 O   0  0  0  0  0  0  0  0  0  0  0  0
    0.5594    1.7670   -0.7549 C   0  0  0  0  0  0  0  0  0  0  0  0
    0.5837    0.5708   -0.1210 C   0  0  0  0  0  0  0  0  0  0  0  0
    1.6730   -0.0279    0.5163 N   0  0  0  0  0  0  0  0  0  0  0  0
    2.6303    0.7191    1.3695 C   0  0  0  0  0  0  0  0  0  0  0  0
    3.2310   -0.2169    2.4296 C   0  0  0  0  0  0  0  0  0  0  0  0
    3.8640   -1.3561    1.8240 O   0  0  0  0  0  0  0  0  0  0  0  0
    2.9109   -2.1042    1.0556 C   0  0  0  0  0  0  0  0  0  0  0  0
    2.2881   -1.2491   -0.0568 C   0  0  0  0  0  0  0  0  0  0  0  0
   -0.5900   -0.1464   -0.0903 N   0  0  0  0  0  0  0  0  0  0  0  0
   -1.7841    0.3515   -0.5367 C   0  0  0  0  0  0  0  0  0  0  0  0
   -3.0434   -0.4242   -0.3049 C   0  0  0  0  0  0  0  0  0  0  0  0
   -4.2747    0.2437   -0.3135 C   0  0  0  0  0  0  0  0  0  0  0  0
   -5.4590   -0.4614   -0.0916 C   0  0  0  0  0  0  0  0  0  0  0  0
   -5.4200   -1.8365    0.1332 C   0  0  0  0  0  0  0  0  0  0  0  0
   -4.1989   -2.5101    0.1310 C   0  0  0  0  0  0  0  0  0  0  0  0
   -3.0109   -1.8083   -0.0896 C   0  0  0  0  0  0  0  0  0  0  0  0
   -1.8675    1.4903   -1.1546 N   0  0  0  0  0  0  0  0  0  0  0  0
   -0.7249    2.2336   -1.3904 C   0  0  0  0  0  0  0  0  0  0  0  0
   -0.8282    3.6145   -2.3697 S   0  0  0  0  0  0  0  0  0  0  0  0
    3.6175    1.8870   -1.8293 H   0  0  0  0  0  0  0  0  0  0  0  0
    2.1628    1.5416   -2.7856 H   0  0  0  0  0  0  0  0  0  0  0  0
    2.7708    3.2076   -2.6947 H   0  0  0  0  0  0  0  0  0  0  0  0
    2.1282    1.5491    1.8780 H   0  0  0  0  0  0  0  0  0  0  0  0
    3.4401    1.1121    0.7447 H   0  0  0  0  0  0  0  0  0  0  0  0
    3.9914    0.3163    3.0086 H   0  0  0  0  0  0  0  0  0  0  0  0
    2.4613   -0.5669    3.1279 H   0  0  0  0  0  0  0  0  0  0  0  0
    3.4353   -2.9591    0.6173 H   0  0  0  0  0  0  0  0  0  0  0  0
    2.1387   -2.4948    1.7291 H   0  0  0  0  0  0  0  0  0  0  0  0
    3.0630   -0.9441   -0.7706 H   0  0  0  0  0  0  0  0  0  0  0  0
    1.5464   -1.8474   -0.5981 H   0  0  0  0  0  0  0  0  0  0  0  0
   -0.5780   -0.8879    0.5974 H   0  0  0  0  0  0  0  0  0  0  0  0
   -4.3182    1.3167   -0.4900 H   0  0  0  0  0  0  0  0  0  0  0  0
   -6.4109    0.0640   -0.0979 H   0  0  0  0  0  0  0  0  0  0  0  0
   -6.3439   -2.3844    0.3022 H   0  0  0  0  0  0  0  0  0  0  0  0
   -4.1749   -3.5851    0.2926 H   0  0  0  0  0  0  0  0  0  0  0  0
   -2.0783   -2.3626   -0.1165 H   0  0  0  0  0  0  0  0  0  0  0  0
  1  2  1  0
  2  3  2  0
  2  4  1  0
  4  5  2  0
  5  6  1  0
  6  7  1  0
  7  8  1  0
  8  9  1  0
  9 10  1  0
 10 11  1  0
  5 12  1  0
 12 13  1  0
 13 14  1  0
 14 15  2  0
 15 16  1  0
 16 17  2  0
 17 18  1  0
 18 19  2  0
 13 20  2  0
 20 21  1  0
 21 22  2  0
 21  4  1  0
 11  6  1  0
 19 14  1  0
  1 23  1  0
  1 24  1  0
  1 25  1  0
  7 26  1  0
  7 27  1  0
  8 28  1  0
  8 29  1  0
 10 30  1  0
 10 31  1  0
 11 32  1  0
 11 33  1  0
 12 34  1  0
 15 35  1  0
 16 36  1  0
 17 37  1  0
 18 38  1  0
 19 39  1  0
M  END
$$$$
