
     RDKit          3D

 45 48  0  0  0  0  0  0  0  0999 V2000
    6.3893    0.4413   -1.2636 C   0  0  0  0  0  0  0  0  0  0  0  0
    5.8938   -0.6887   -0.5569 O   0  0  0  0  0  0  0  0  0  0  0  0
    4.7013   -0.5340    0.0947 C   0  0  0  0  0  0  0  0  0  0  0  0
    3.9289    0.6260    0.1300 C   0  0  0  0  0  0  0  0  0  0  0  0
    2.7214    0.6471    0.8378 C   0  0  0  0  0  0  0  0  0  0  0  0
    2.2695   -0.4891    1.5227 C   0  0  0  0  0  0  0  0  0  0  0  0
    0.9505   -0.4696    2.2675 C   0  0  0  0  0  0  0  0  0  0  0  0
   -0.1739   -0.8000    1.4031 N   0  0  0  0  0  0  0  0  0  0  0  0
   -0.4743   -2.1539    1.2491 C   0  0  0  0  0  0  0  0  0  0  0  0
    0.0851   -3.0726    1.8391 O   0  0  0  0  0  0  0  0  0  0  0  0
   -1.5280   -2.3825    0.3315 C   0  0  0  0  0  0  0  0  0  0  0  0
   -2.0814   -3.5582   -0.0844 N   0  0  0  0  0  0  0  0  0  0  0  0
   -3.0892   -3.2330   -0.9507 C   0  0  0  0  0  0  0  0  0  0  0  0
   -3.1956   -1.9291   -1.1011 N   0  0  0  0  0  0  0  0  0  0  0  0
   -2.2124   -1.3954   -0.3112 C   0  0  0  0  0  0  0  0  0  0  0  0
   -1.9138   -0.0634   -0.0867 N   0  0  0  0  0  0  0  0  0  0  0  0
   -2.6718    0.9232   -0.7889 C   0  0  0  0  0  0  0  0  0  0  0  0
   -2.8321    0.7991   -2.1834 C   0  0  0  0  0  0  0  0  0  0  0  0
   -3.5071    1.7673   -2.9289 C   0  0  0  0  0  0  0  0  0  0  0  0
   -4.0370    2.8823   -2.2939 C   0  0  0  0  0  0  0  0  0  0  0  0
   -3.9095    3.0166   -0.9129 C   0  0  0  0  0  0  0  0  0  0  0  0
   -3.2502    2.0385   -0.1419 C   0  0  0  0  0  0  0  0  0  0  0  0
   -3.2411    2.2366    1.3504 C   0  0  0  0  0  0  0  0  0  0  0  0
   -0.8417    0.2710    0.7616 C   0  0  0  0  0  0  0  0  0  0  0  0
   -0.4628    1.4338    0.9382 O   0  0  0  0  0  0  0  0  0  0  0  0
    3.0485   -1.6519    1.4786 C   0  0  0  0  0  0  0  0  0  0  0  0
    4.2537   -1.6697    0.7720 C   0  0  0  0  0  0  0  0  0  0  0  0
    7.3403    0.1567   -1.7241 H   0  0  0  0  0  0  0  0  0  0  0  0
    5.7057    0.7357   -2.0669 H   0  0  0  0  0  0  0  0  0  0  0  0
    6.5857    1.2773   -0.5841 H   0  0  0  0  0  0  0  0  0  0  0  0
    4.2317    1.5326   -0.3830 H   0  0  0  0  0  0  0  0  0  0  0  0
    2.1329    1.5638    0.8462 H   0  0  0  0  0  0  0  0  0  0  0  0
    0.9946   -1.1787    3.1039 H   0  0  0  0  0  0  0  0  0  0  0  0
    0.8053    0.5160    2.7263 H   0  0  0  0  0  0  0  0  0  0  0  0
   -1.8026   -4.4870    0.2060 H   0  0  0  0  0  0  0  0  0  0  0  0
   -3.7070   -3.9800   -1.4323 H   0  0  0  0  0  0  0  0  0  0  0  0
   -2.4048   -0.0503   -2.7123 H   0  0  0  0  0  0  0  0  0  0  0  0
   -3.6083    1.6496   -4.0041 H   0  0  0  0  0  0  0  0  0  0  0  0
   -4.5574    3.6428   -2.8697 H   0  0  0  0  0  0  0  0  0  0  0  0
   -4.3457    3.8882   -0.4284 H   0  0  0  0  0  0  0  0  0  0  0  0
   -2.4267    2.9053    1.6431 H   0  0  0  0  0  0  0  0  0  0  0  0
   -4.1859    2.6833    1.6812 H   0  0  0  0  0  0  0  0  0  0  0  0
   -3.1505    1.2884    1.8884 H   0  0  0  0  0  0  0  0  0  0  0  0
    2.7240   -2.5559    1.9908 H   0  0  0  0  0  0  0  0  0  0  0  0
    4.8485   -2.5796    0.7472 H   0  0  0  0  0  0  0  0  0  0  0  0
  1  2  1  0
  2  3  1  0
  3  4  2  0
  4  5  1  0
  5  6  2  0
  6  7  1  0
  7  8  1  0
  8  9  1  0
  9 10  2  0
  9 11  1  0
 11 12  1  0
 12 13  1  0
 13 14  2  0
 14 15  1  0
 15 16  1  0
 16 17  1  0
 17 18  2  0
 18 19  1  0
 19 20  2  0
 20 21  1  0
 21 22  2  0
 22 23  1  0
 16 24  1  0
 24 25  2  0
  6 26  1  0
 26 27  2  0
 27  3  1  0
 24  8  1  0
 15 11  2  0
 22 17  1  0
  1 28  1  0
  1 29  1  0
  1 30  1  0
  4 31  1  0
  5 32  1  0
  7 33  1  0
  7 34  1  0
 12 35  1  0
 13 36  1  0
 18 37  1  0
 19 38  1  0
 20 39  1  0
 21 40  1  0
 23 41  1  0
 23 42  1  0
 23 43  1  0
 26 44  1  0
 27 45  1  0
M  END
$$$$
