
     RDKit          3D

 41 42  0  0  0  0  0  0  0  0999 V2000
   -5.6272    1.6538   -3.2883 C   0  0  0  0  0  0  0  0  0  0  0  0
   -5.4877   -0.0749   -2.7630 S   0  0  0  0  0  0  0  0  0  0  0  0
   -4.1008    0.0606   -1.6510 C   0  0  0  0  0  0  0  0  0  0  0  0
   -4.1560    0.8664   -0.5113 C   0  0  0  0  0  0  0  0  0  0  0  0
   -3.0590    0.9474    0.3518 C   0  0  0  0  0  0  0  0  0  0  0  0
   -1.8881    0.2214    0.0911 C   0  0  0  0  0  0  0  0  0  0  0  0
   -0.7005    0.3027    1.0271 C   0  0  0  0  0  0  0  0  0  0  0  0
    0.2953    1.3678    0.7719 N   0  0  0  0  0  0  0  0  0  0  0  0
   -0.2702    2.7057    0.9421 C   0  0  0  0  0  0  0  0  0  0  0  0
    0.9494    1.2585   -0.5551 C   0  0  0  0  0  0  0  0  0  0  0  0
    1.8408    0.0116   -0.6432 C   0  0  0  0  0  0  0  0  0  0  0  0
    1.9354   -0.6302   -1.6846 O   0  0  0  0  0  0  0  0  0  0  0  0
    2.5142   -0.2264    0.5433 N   0  0  0  0  0  0  0  0  0  0  0  0
    3.4383   -1.2443    0.8346 C   0  0  0  0  0  0  0  0  0  0  0  0
    3.8947   -2.1710   -0.1053 C   0  0  0  0  0  0  0  0  0  0  0  0
    4.8176   -3.1570    0.2597 C   0  0  0  0  0  0  0  0  0  0  0  0
    5.2928   -3.2234    1.5675 C   0  0  0  0  0  0  0  0  0  0  0  0
    4.8416   -2.2996    2.5055 C   0  0  0  0  0  0  0  0  0  0  0  0
    5.4821   -2.3808    4.2831 Br  0  0  0  0  0  0  0  0  0  0  0  0
    3.9208   -1.3133    2.1471 C   0  0  0  0  0  0  0  0  0  0  0  0
   -1.8483   -0.6020   -1.0436 C   0  0  0  0  0  0  0  0  0  0  0  0
   -2.9461   -0.6822   -1.9053 C   0  0  0  0  0  0  0  0  0  0  0  0
   -6.3935    1.7299   -4.0645 H   0  0  0  0  0  0  0  0  0  0  0  0
   -4.6784    2.0070   -3.7017 H   0  0  0  0  0  0  0  0  0  0  0  0
   -5.9207    2.2934   -2.4519 H   0  0  0  0  0  0  0  0  0  0  0  0
   -5.0563    1.4277   -0.2747 H   0  0  0  0  0  0  0  0  0  0  0  0
   -3.1291    1.5766    1.2364 H   0  0  0  0  0  0  0  0  0  0  0  0
   -1.0727    0.4126    2.0552 H   0  0  0  0  0  0  0  0  0  0  0  0
   -0.1999   -0.6740    1.0406 H   0  0  0  0  0  0  0  0  0  0  0  0
   -0.7606    2.8015    1.9171 H   0  0  0  0  0  0  0  0  0  0  0  0
   -0.9904    2.9648    0.1588 H   0  0  0  0  0  0  0  0  0  0  0  0
    0.5278    3.4568    0.9241 H   0  0  0  0  0  0  0  0  0  0  0  0
    0.2284    1.2571   -1.3786 H   0  0  0  0  0  0  0  0  0  0  0  0
    1.6222    2.1121   -0.7100 H   0  0  0  0  0  0  0  0  0  0  0  0
    2.2255    0.3847    1.3036 H   0  0  0  0  0  0  0  0  0  0  0  0
    3.5528   -2.1523   -1.1358 H   0  0  0  0  0  0  0  0  0  0  0  0
    5.1633   -3.8719   -0.4832 H   0  0  0  0  0  0  0  0  0  0  0  0
    6.0094   -3.9929    1.8414 H   0  0  0  0  0  0  0  0  0  0  0  0
    3.5820   -0.6018    2.8949 H   0  0  0  0  0  0  0  0  0  0  0  0
   -0.9609   -1.1922   -1.2680 H   0  0  0  0  0  0  0  0  0  0  0  0
   -2.8880   -1.3302   -2.7771 H   0  0  0  0  0  0  0  0  0  0  0  0
  1  2  1  0
  2  3  1  0
  3  4  2  0
  4  5  1  0
  5  6  2  0
  6  7  1  0
  7  8  1  0
  8  9  1  0
  8 10  1  0
 10 11  1  0
 11 12  2  0
 11 13  1  0
 13 14  1  0
 14 15  2  0
 15 16  1  0
 16 17  2  0
 17 18  1  0
 18 19  1  0
 18 20  2  0
  6 21  1  0
 21 22  2  0
 22  3  1  0
 20 14  1  0
  1 23  1  0
  1 24  1  0
  1 25  1  0
  4 26  1  0
  5 27  1  0
  7 28  1  0
  7 29  1  0
  9 30  1  0
  9 31  1  0
  9 32  1  0
 10 33  1  0
 10 34  1  0
 13 35  1  0
 15 36  1  0
 16 37  1  0
 17 38  1  0
 20 39  1  0
 21 40  1  0
 22 41  1  0
M  END
$$$$
