
     RDKit          3D

 33 35  0  0  0  0  0  0  0  0999 V2000
    4.2557   -2.1390   -0.4410 O   0  0  0  0  0  0  0  0  0  0  0  0
    4.5278   -1.0964    0.4934 C   0  0  0  0  0  0  0  0  0  0  0  0
    3.6035    0.0903    0.2173 C   0  0  0  0  0  0  0  0  0  0  0  0
    2.2169   -0.3781    0.3392 N   0  0  0  0  0  0  0  0  0  0  0  0
    1.2744    0.4282   -0.0160 C   0  0  0  0  0  0  0  0  0  0  0  0
    1.4437    1.8399   -0.5795 C   0  0  0  0  0  0  0  0  0  0  0  0
    0.2124    2.7290   -0.3270 C   0  0  0  0  0  0  0  0  0  0  0  0
   -1.0982    2.0830   -0.8097 C   0  0  0  0  0  0  0  0  0  0  0  0
   -1.2003    0.6884   -0.2938 C   0  0  0  0  0  0  0  0  0  0  0  0
   -0.0845   -0.0435    0.0621 C   0  0  0  0  0  0  0  0  0  0  0  0
   -0.5060   -1.2691    0.4993 N   0  0  0  0  0  0  0  0  0  0  0  0
   -1.8787   -1.3528    0.4237 C   0  0  0  0  0  0  0  0  0  0  0  0
   -2.7352   -2.4090    0.7569 C   0  0  0  0  0  0  0  0  0  0  0  0
   -4.1074   -2.2105    0.5744 C   0  0  0  0  0  0  0  0  0  0  0  0
   -4.5926   -1.0026    0.0791 C   0  0  0  0  0  0  0  0  0  0  0  0
   -6.2901   -0.7941   -0.1324 Cl  0  0  0  0  0  0  0  0  0  0  0  0
   -3.7287    0.0463   -0.2503 C   0  0  0  0  0  0  0  0  0  0  0  0
   -2.3424   -0.1313   -0.0745 C   0  0  0  0  0  0  0  0  0  0  0  0
    3.2800   -2.1845   -0.4778 H   0  0  0  0  0  0  0  0  0  0  0  0
    5.5769   -0.8048    0.3912 H   0  0  0  0  0  0  0  0  0  0  0  0
    4.3693   -1.4934    1.5012 H   0  0  0  0  0  0  0  0  0  0  0  0
    3.8092    0.8849    0.9421 H   0  0  0  0  0  0  0  0  0  0  0  0
    3.7921    0.4555   -0.7990 H   0  0  0  0  0  0  0  0  0  0  0  0
    2.3189    2.3229   -0.1353 H   0  0  0  0  0  0  0  0  0  0  0  0
    1.6224    1.7471   -1.6573 H   0  0  0  0  0  0  0  0  0  0  0  0
    0.1369    2.9251    0.7509 H   0  0  0  0  0  0  0  0  0  0  0  0
    0.3481    3.6981   -0.8201 H   0  0  0  0  0  0  0  0  0  0  0  0
   -1.1193    2.0631   -1.9057 H   0  0  0  0  0  0  0  0  0  0  0  0
   -1.9489    2.6842   -0.4707 H   0  0  0  0  0  0  0  0  0  0  0  0
    0.1138   -1.9976    0.8277 H   0  0  0  0  0  0  0  0  0  0  0  0
   -2.3548   -3.3496    1.1426 H   0  0  0  0  0  0  0  0  0  0  0  0
   -4.7970   -3.0133    0.8243 H   0  0  0  0  0  0  0  0  0  0  0  0
   -4.1180    0.9832   -0.6354 H   0  0  0  0  0  0  0  0  0  0  0  0
  1  2  1  0
  2  3  1  0
  3  4  1  0
  4  5  2  3
  5  6  1  0
  6  7  1  0
  7  8  1  0
  8  9  1  0
  9 10  2  0
 10 11  1  0
 11 12  1  0
 12 13  2  0
 13 14  1  0
 14 15  2  0
 15 16  1  0
 15 17  1  0
 17 18  2  0
 10  5  1  0
 18 12  1  0
 18  9  1  0
  1 19  1  0
  2 20  1  0
  2 21  1  0
  3 22  1  0
  3 23  1  0
  6 24  1  0
  6 25  1  0
  7 26  1  0
  7 27  1  0
  8 28  1  0
  8 29  1  0
 11 30  1  0
 13 31  1  0
 14 32  1  0
 17 33  1  0
M  END
$$$$
