
     RDKit          3D

 41 44  0  0  0  0  0  0  0  0999 V2000
    2.9113   -3.8136    3.1224 C   0  0  0  0  0  0  0  0  0  0  0  0
    3.3826   -3.9877    1.7930 O   0  0  0  0  0  0  0  0  0  0  0  0
    2.8689   -3.1609    0.8307 C   0  0  0  0  0  0  0  0  0  0  0  0
    3.3968   -3.3646   -0.4417 C   0  0  0  0  0  0  0  0  0  0  0  0
    2.9682   -2.6119   -1.5360 C   0  0  0  0  0  0  0  0  0  0  0  0
    1.9917   -1.6380   -1.3065 C   0  0  0  0  0  0  0  0  0  0  0  0
    1.3887   -0.7857   -2.1912 N   0  0  0  0  0  0  0  0  0  0  0  0
    0.4478    0.0098   -1.5712 C   0  0  0  0  0  0  0  0  0  0  0  0
   -0.4097    0.9732   -2.1370 C   0  0  0  0  0  0  0  0  0  0  0  0
   -0.3909    1.2728   -3.6169 C   0  0  0  0  0  0  0  0  0  0  0  0
   -1.3140    1.6275   -1.2574 C   0  0  0  0  0  0  0  0  0  0  0  0
   -2.2476    2.5635   -1.7382 C   0  0  0  0  0  0  0  0  0  0  0  0
   -3.1386    3.1915   -0.8822 C   0  0  0  0  0  0  0  0  0  0  0  0
   -3.1229    2.9111    0.4308 N   0  0  0  0  0  4  0  0  0  0  0  0
   -4.0805    3.5650    1.3392 C   0  0  0  0  0  0  0  0  0  0  0  0
   -2.2426    2.0191    0.9336 C   0  0  0  0  0  0  0  0  0  0  0  0
   -1.2992    1.3513    0.1310 C   0  0  0  0  0  0  0  0  0  0  0  0
   -0.3561    0.4207    0.6789 C   0  0  0  0  0  0  0  0  0  0  0  0
   -0.2783    0.1945    2.1720 C   0  0  0  0  0  0  0  0  0  0  0  0
    0.4856   -0.3044   -0.2131 C   0  0  0  0  0  0  0  0  0  0  0  0
    1.4437   -1.3804   -0.0538 C   0  0  0  0  0  0  0  0  0  0  0  0
    1.8909   -2.1772    1.0312 C   0  0  0  0  0  0  0  0  0  0  0  0
    3.4346   -4.5324    3.7601 H   0  0  0  0  0  0  0  0  0  0  0  0
    3.1401   -2.8095    3.4946 H   0  0  0  0  0  0  0  0  0  0  0  0
    1.8393   -4.0261    3.1909 H   0  0  0  0  0  0  0  0  0  0  0  0
    4.1551   -4.1316   -0.5883 H   0  0  0  0  0  0  0  0  0  0  0  0
    3.3816   -2.7890   -2.5240 H   0  0  0  0  0  0  0  0  0  0  0  0
    1.5974   -0.7719   -3.1787 H   0  0  0  0  0  0  0  0  0  0  0  0
   -0.1973    2.3372   -3.7862 H   0  0  0  0  0  0  0  0  0  0  0  0
   -1.3483    0.9968   -4.0705 H   0  0  0  0  0  0  0  0  0  0  0  0
    0.3908    0.7198   -4.1444 H   0  0  0  0  0  0  0  0  0  0  0  0
   -2.3020    2.8163   -2.7953 H   0  0  0  0  0  0  0  0  0  0  0  0
   -3.8668    3.9114   -1.2445 H   0  0  0  0  0  0  0  0  0  0  0  0
   -4.5912    4.3798    0.8204 H   0  0  0  0  0  0  0  0  0  0  0  0
   -4.8008    2.8080    1.6600 H   0  0  0  0  0  0  0  0  0  0  0  0
   -3.5243    3.9648    2.1914 H   0  0  0  0  0  0  0  0  0  0  0  0
   -2.3270    1.8462    2.0010 H   0  0  0  0  0  0  0  0  0  0  0  0
    0.7288   -0.0978    2.4757 H   0  0  0  0  0  0  0  0  0  0  0  0
   -0.4744    1.1116    2.7349 H   0  0  0  0  0  0  0  0  0  0  0  0
   -0.9902   -0.5789    2.4743 H   0  0  0  0  0  0  0  0  0  0  0  0
    1.4588   -2.0302    2.0106 H   0  0  0  0  0  0  0  0  0  0  0  0
  1  2  1  0
  2  3  1  0
  3  4  2  0
  4  5  1  0
  5  6  2  0
  6  7  1  0
  7  8  1  0
  8  9  2  0
  9 10  1  0
  9 11  1  0
 11 12  2  0
 12 13  1  0
 13 14  2  0
 14 15  1  0
 14 16  1  0
 16 17  2  0
 17 18  1  0
 18 19  1  0
 18 20  2  0
 20 21  1  0
 21 22  2  0
 22  3  1  0
 21  6  1  0
 20  8  1  0
 17 11  1  0
  1 23  1  0
  1 24  1  0
  1 25  1  0
  4 26  1  0
  5 27  1  0
  7 28  1  0
 10 29  1  0
 10 30  1  0
 10 31  1  0
 12 32  1  0
 13 33  1  0
 15 34  1  0
 15 35  1  0
 15 36  1  0
 16 37  1  0
 19 38  1  0
 19 39  1  0
 19 40  1  0
 22 41  1  0
M  CHG  1  14   1
M  END
$$$$
