
     RDKit          3D

 42 44  0  0  0  0  0  0  0  0999 V2000
    7.5963   -2.1060   -2.2047 C   0  0  0  0  0  0  0  0  0  0  0  0
    7.3683   -1.2295   -1.1083 O   0  0  0  0  0  0  0  0  0  0  0  0
    6.0816   -0.8188   -0.8979 C   0  0  0  0  0  0  0  0  0  0  0  0
    5.9182    0.0565    0.1792 C   0  0  0  0  0  0  0  0  0  0  0  0
    4.6553    0.5545    0.5082 C   0  0  0  0  0  0  0  0  0  0  0  0
    3.5364    0.1678   -0.2354 C   0  0  0  0  0  0  0  0  0  0  0  0
    2.2020    0.7145    0.1465 C   0  0  0  0  0  0  0  0  0  0  0  0
    2.1573    1.8533    0.5926 O   0  0  0  0  0  0  0  0  0  0  0  0
    1.1537   -0.1763   -0.0122 N   0  0  0  0  0  0  0  0  0  0  0  0
   -0.1941    0.0761    0.2190 C   0  0  0  0  0  0  0  0  0  0  0  0
   -0.7591    1.6391    0.5917 S   0  0  0  0  0  0  0  0  0  0  0  0
   -2.3741    1.1201    0.6914 C   0  0  0  0  0  0  0  0  0  0  0  0
   -2.5020   -0.2333    0.4492 C   0  0  0  0  0  0  0  0  0  0  0  0
   -1.2357   -0.8345    0.1592 C   0  0  0  0  0  0  0  0  0  0  0  0
   -1.0464   -2.2181   -0.1587 C   0  0  0  0  0  0  0  0  0  0  0  0
   -0.8619   -3.3329   -0.4223 N   0  0  0  0  0  0  0  0  0  0  0  0
   -3.8498   -0.8844    0.4834 C   0  0  0  0  0  0  0  0  0  0  0  0
   -4.8448   -0.0294    1.2862 C   0  0  0  0  0  0  0  0  0  0  0  0
   -4.7880    1.3941    0.9082 N   0  0  0  0  0  0  0  0  0  0  0  0
   -5.9014    2.2249    0.8725 C   0  0  0  0  0  0  0  0  0  0  0  0
   -7.2578    1.5683    0.8525 C   0  0  0  0  0  0  0  0  0  0  0  0
   -5.8094    3.4523    0.8461 O   0  0  0  0  0  0  0  0  0  0  0  0
   -3.4851    2.0691    1.0258 C   0  0  0  0  0  0  0  0  0  0  0  0
    3.6976   -0.6949   -1.3274 C   0  0  0  0  0  0  0  0  0  0  0  0
    4.9674   -1.1891   -1.6532 C   0  0  0  0  0  0  0  0  0  0  0  0
    7.3303   -1.6285   -3.1535 H   0  0  0  0  0  0  0  0  0  0  0  0
    7.0589   -3.0508   -2.0726 H   0  0  0  0  0  0  0  0  0  0  0  0
    8.6663   -2.3329   -2.2345 H   0  0  0  0  0  0  0  0  0  0  0  0
    6.7838    0.3580    0.7649 H   0  0  0  0  0  0  0  0  0  0  0  0
    4.5485    1.2422    1.3448 H   0  0  0  0  0  0  0  0  0  0  0  0
    1.3955   -1.1325   -0.2435 H   0  0  0  0  0  0  0  0  0  0  0  0
   -3.7912   -1.8858    0.9236 H   0  0  0  0  0  0  0  0  0  0  0  0
   -4.2094   -0.9908   -0.5475 H   0  0  0  0  0  0  0  0  0  0  0  0
   -5.8482   -0.4409    1.1562 H   0  0  0  0  0  0  0  0  0  0  0  0
   -4.6151   -0.0788    2.3583 H   0  0  0  0  0  0  0  0  0  0  0  0
   -7.4548    1.0822    1.8113 H   0  0  0  0  0  0  0  0  0  0  0  0
   -8.0257    2.3310    0.6896 H   0  0  0  0  0  0  0  0  0  0  0  0
   -7.3205    0.8490    0.0316 H   0  0  0  0  0  0  0  0  0  0  0  0
   -3.4637    2.9391    0.3596 H   0  0  0  0  0  0  0  0  0  0  0  0
   -3.3877    2.4188    2.0606 H   0  0  0  0  0  0  0  0  0  0  0  0
    2.8548   -0.9706   -1.9557 H   0  0  0  0  0  0  0  0  0  0  0  0
    5.0535   -1.8525   -2.5079 H   0  0  0  0  0  0  0  0  0  0  0  0
  1  2  1  0
  2  3  1  0
  3  4  2  0
  4  5  1  0
  5  6  2  0
  6  7  1  0
  7  8  2  0
  7  9  1  0
  9 10  1  0
 10 11  1  0
 11 12  1  0
 12 13  2  0
 13 14  1  0
 14 15  1  0
 15 16  3  0
 13 17  1  0
 17 18  1  0
 18 19  1  0
 19 20  1  0
 20 21  1  0
 20 22  2  0
 19 23  1  0
  6 24  1  0
 24 25  2  0
 25  3  1  0
 14 10  2  0
 23 12  1  0
  1 26  1  0
  1 27  1  0
  1 28  1  0
  4 29  1  0
  5 30  1  0
  9 31  1  0
 17 32  1  0
 17 33  1  0
 18 34  1  0
 18 35  1  0
 21 36  1  0
 21 37  1  0
 21 38  1  0
 23 39  1  0
 23 40  1  0
 24 41  1  0
 25 42  1  0
M  END
$$$$
