
     RDKit          3D

 31 32  0  0  0  0  0  0  0  0999 V2000
    0.2280   -1.9132   -2.0642 S   0  0  0  0  0  0  0  0  0  0  0  0
   -0.0425   -0.6961   -0.9372 C   0  0  0  0  0  0  0  0  0  0  0  0
    0.9452    0.0953   -0.3641 N   0  0  0  0  0  0  0  0  0  0  0  0
    2.3471   -0.0675   -0.2513 C   0  0  0  0  0  0  0  0  0  0  0  0
    2.9780   -1.3143   -0.2588 C   0  0  0  0  0  0  0  0  0  0  0  0
    4.3670   -1.4109   -0.1133 C   0  0  0  0  0  0  0  0  0  0  0  0
    5.1327   -0.2611    0.0604 C   0  0  0  0  0  0  0  0  0  0  0  0
    6.8381   -0.3891    0.2426 Cl  0  0  0  0  0  0  0  0  0  0  0  0
    4.5247    0.9884    0.1038 C   0  0  0  0  0  0  0  0  0  0  0  0
    3.1387    1.0801   -0.0418 C   0  0  0  0  0  0  0  0  0  0  0  0
    2.4183    2.6544    0.0374 Cl  0  0  0  0  0  0  0  0  0  0  0  0
   -1.3345   -0.2822   -0.5128 N   0  0  0  0  0  0  0  0  0  0  0  0
   -2.5477   -0.7664   -1.1938 C   0  0  0  0  0  0  0  0  0  0  0  0
   -3.7191    0.2005   -1.0353 C   0  0  0  0  0  0  0  0  0  0  0  0
   -3.9718    0.5434    0.4274 C   0  0  0  0  0  0  0  0  0  0  0  0
   -2.6947    1.0645    1.0751 C   0  0  0  0  0  0  0  0  0  0  0  0
   -1.5482    0.0751    0.9006 C   0  0  0  0  0  0  0  0  0  0  0  0
    0.6302    1.0489   -0.2111 H   0  0  0  0  0  0  0  0  0  0  0  0
    2.4142   -2.2378   -0.3427 H   0  0  0  0  0  0  0  0  0  0  0  0
    4.8391   -2.3906   -0.1280 H   0  0  0  0  0  0  0  0  0  0  0  0
    5.1226    1.8831    0.2522 H   0  0  0  0  0  0  0  0  0  0  0  0
   -2.3572   -0.8944   -2.2637 H   0  0  0  0  0  0  0  0  0  0  0  0
   -2.7983   -1.7480   -0.7734 H   0  0  0  0  0  0  0  0  0  0  0  0
   -3.5019    1.1240   -1.5869 H   0  0  0  0  0  0  0  0  0  0  0  0
   -4.6218   -0.2344   -1.4784 H   0  0  0  0  0  0  0  0  0  0  0  0
   -4.3211   -0.3486    0.9615 H   0  0  0  0  0  0  0  0  0  0  0  0
   -4.7635    1.2969    0.5032 H   0  0  0  0  0  0  0  0  0  0  0  0
   -2.4211    2.0239    0.6189 H   0  0  0  0  0  0  0  0  0  0  0  0
   -2.8676    1.2492    2.1411 H   0  0  0  0  0  0  0  0  0  0  0  0
   -1.7672   -0.8588    1.4340 H   0  0  0  0  0  0  0  0  0  0  0  0
   -0.6457    0.4856    1.3611 H   0  0  0  0  0  0  0  0  0  0  0  0
  1  2  2  0
  2  3  1  0
  3  4  1  0
  4  5  2  0
  5  6  1  0
  6  7  2  0
  7  8  1  0
  7  9  1  0
  9 10  2  0
 10 11  1  0
  2 12  1  0
 12 13  1  0
 13 14  1  0
 14 15  1  0
 15 16  1  0
 16 17  1  0
 10  4  1  0
 17 12  1  0
  3 18  1  0
  5 19  1  0
  6 20  1  0
  9 21  1  0
 13 22  1  0
 13 23  1  0
 14 24  1  0
 14 25  1  0
 15 26  1  0
 15 27  1  0
 16 28  1  0
 16 29  1  0
 17 30  1  0
 17 31  1  0
M  END
$$$$
