
     RDKit          3D

 39 41  0  0  0  0  0  0  0  0999 V2000
   -3.2392   -0.1121    2.2600 C   0  0  0  0  0  0  0  0  0  0  0  0
   -3.0685    0.2108    0.8182 C   0  0  0  0  0  0  0  0  0  0  0  0
   -4.1395    0.5250    0.0227 N   0  0  0  0  0  0  0  0  0  0  0  0
   -3.7250    0.7980   -1.2584 C   0  0  0  0  0  0  0  0  0  0  0  0
   -4.4773    1.1686   -2.3802 C   0  0  0  0  0  0  0  0  0  0  0  0
   -3.7895    1.4321   -3.5663 C   0  0  0  0  0  0  0  0  0  0  0  0
   -2.4028    1.3415   -3.6210 C   0  0  0  0  0  0  0  0  0  0  0  0
   -1.6663    0.9677   -2.4900 C   0  0  0  0  0  0  0  0  0  0  0  0
   -2.3354    0.6651   -1.2831 C   0  0  0  0  0  0  0  0  0  0  0  0
   -1.9250    0.2543    0.0295 C   0  0  0  0  0  0  0  0  0  0  0  0
   -0.5821   -0.0627    0.5225 C   0  0  0  0  0  0  0  0  0  0  0  0
   -0.2026    0.3360    1.6265 O   0  0  0  0  0  0  0  0  0  0  0  0
    0.3141   -0.9779   -0.3344 C   0  0  0  0  0  0  0  0  0  0  0  0
   -0.1475   -2.4215   -0.1669 C   0  0  0  0  0  0  0  0  0  0  0  0
    1.6847   -0.9284    0.0865 O   0  0  0  0  0  0  0  0  0  0  0  0
    2.3078    0.2541   -0.1804 C   0  0  0  0  0  0  0  0  0  0  0  0
    1.8091    1.1658   -0.8304 O   0  0  0  0  0  0  0  0  0  0  0  0
    3.6341    0.2672    0.3922 C   0  0  0  0  0  0  0  0  0  0  0  0
    4.5925    1.2696    0.4194 C   0  0  0  0  0  0  0  0  0  0  0  0
    5.7171    0.7560    1.1142 C   0  0  0  0  0  0  0  0  0  0  0  0
    5.3726   -0.5281    1.4607 C   0  0  0  0  0  0  0  0  0  0  0  0
    6.0863   -1.5460    2.1659 N   0  0  0  0  0  4  0  0  0  0  0  0
    7.2177   -1.2411    2.5675 O   0  0  0  0  0  0  0  0  0  0  0  0
    5.5350   -2.6433    2.3163 O   0  0  0  0  0  1  0  0  0  0  0  0
    4.1225   -0.8461    1.0334 O   0  0  0  0  0  0  0  0  0  0  0  0
   -2.8424    0.6983    2.8795 H   0  0  0  0  0  0  0  0  0  0  0  0
   -4.2939   -0.2522    2.5184 H   0  0  0  0  0  0  0  0  0  0  0  0
   -2.7077   -1.0351    2.5129 H   0  0  0  0  0  0  0  0  0  0  0  0
   -5.1012    0.5700    0.3311 H   0  0  0  0  0  0  0  0  0  0  0  0
   -5.5576    1.2613   -2.3337 H   0  0  0  0  0  0  0  0  0  0  0  0
   -4.3449    1.7281   -4.4534 H   0  0  0  0  0  0  0  0  0  0  0  0
   -1.8821    1.5744   -4.5469 H   0  0  0  0  0  0  0  0  0  0  0  0
   -0.5823    0.9442   -2.5549 H   0  0  0  0  0  0  0  0  0  0  0  0
    0.2610   -0.7160   -1.3933 H   0  0  0  0  0  0  0  0  0  0  0  0
    0.5043   -3.1003   -0.7273 H   0  0  0  0  0  0  0  0  0  0  0  0
   -0.0977   -2.7283    0.8842 H   0  0  0  0  0  0  0  0  0  0  0  0
   -1.1763   -2.5597   -0.5135 H   0  0  0  0  0  0  0  0  0  0  0  0
    4.4762    2.2564   -0.0114 H   0  0  0  0  0  0  0  0  0  0  0  0
    6.6518    1.2546    1.3332 H   0  0  0  0  0  0  0  0  0  0  0  0
  1  2  1  0
  2  3  1  0
  3  4  1  0
  4  5  2  0
  5  6  1  0
  6  7  2  0
  7  8  1  0
  8  9  2  0
  9 10  1  0
 10 11  1  0
 11 12  2  0
 11 13  1  0
 13 14  1  0
 13 15  1  0
 15 16  1  0
 16 17  2  0
 16 18  1  0
 18 19  2  0
 19 20  1  0
 20 21  2  0
 21 22  1  0
 22 23  2  0
 22 24  1  0
 21 25  1  0
 10  2  2  0
 25 18  1  0
  9  4  1  0
  1 26  1  0
  1 27  1  0
  1 28  1  0
  3 29  1  0
  5 30  1  0
  6 31  1  0
  7 32  1  0
  8 33  1  0
 13 34  1  0
 14 35  1  0
 14 36  1  0
 14 37  1  0
 19 38  1  0
 20 39  1  0
M  CHG  2  22   1  24  -1
M  END
$$$$
