
     RDKit          3D

 37 37  0  0  0  0  0  0  0  0999 V2000
    5.6225    1.5847    0.0592 C   0  0  0  0  0  0  0  0  0  0  0  0
    5.4604    0.1069    0.3799 C   0  0  0  0  0  0  0  0  0  0  0  0
    4.0144   -0.3845    0.2776 C   0  0  0  0  0  0  0  0  0  0  0  0
    3.4628   -0.3463   -1.1518 C   0  0  0  0  0  0  0  0  0  0  0  0
    2.0626   -0.9533   -1.2495 C   0  0  0  0  0  0  0  0  0  0  0  0
    0.9702   -0.0676   -0.6715 C   0  0  0  0  0  0  0  0  0  0  0  0
    1.1663    1.0850   -0.2999 O   0  0  0  0  0  0  0  0  0  0  0  0
   -0.2547   -0.7252   -0.6416 N   0  0  0  0  0  0  0  0  0  0  0  0
   -1.3603   -0.0674   -0.2020 N   0  0  0  0  0  0  0  0  0  0  0  0
   -2.4983   -0.6941   -0.1308 C   0  0  0  0  0  0  0  0  0  0  0  0
   -2.6776   -2.1595   -0.4698 C   0  0  0  0  0  0  0  0  0  0  0  0
   -3.6969    0.0829    0.3172 C   0  0  0  0  0  0  0  0  0  0  0  0
   -4.9911   -0.2560   -0.0968 C   0  0  0  0  0  0  0  0  0  0  0  0
   -6.0863    0.4987    0.3376 C   0  0  0  0  0  0  0  0  0  0  0  0
   -5.8887    1.5946    1.1768 C   0  0  0  0  0  0  0  0  0  0  0  0
   -7.2396    2.5179    1.7070 Cl  0  0  0  0  0  0  0  0  0  0  0  0
   -4.6043    1.9489    1.5820 C   0  0  0  0  0  0  0  0  0  0  0  0
   -3.5090    1.1965    1.1492 C   0  0  0  0  0  0  0  0  0  0  0  0
    4.9653    2.1972    0.6846 H   0  0  0  0  0  0  0  0  0  0  0  0
    5.3971    1.7951   -0.9902 H   0  0  0  0  0  0  0  0  0  0  0  0
    6.6550    1.8978    0.2448 H   0  0  0  0  0  0  0  0  0  0  0  0
    5.8142   -0.0676    1.4031 H   0  0  0  0  0  0  0  0  0  0  0  0
    6.1040   -0.4836   -0.2824 H   0  0  0  0  0  0  0  0  0  0  0  0
    3.3813    0.2097    0.9464 H   0  0  0  0  0  0  0  0  0  0  0  0
    3.9784   -1.4172    0.6462 H   0  0  0  0  0  0  0  0  0  0  0  0
    4.1338   -0.9178   -1.8046 H   0  0  0  0  0  0  0  0  0  0  0  0
    3.4482    0.6822   -1.5290 H   0  0  0  0  0  0  0  0  0  0  0  0
    1.8213   -1.1098   -2.3080 H   0  0  0  0  0  0  0  0  0  0  0  0
    2.0373   -1.9297   -0.7519 H   0  0  0  0  0  0  0  0  0  0  0  0
   -0.3354   -1.6630   -1.0117 H   0  0  0  0  0  0  0  0  0  0  0  0
   -1.8851   -2.7500   -0.0003 H   0  0  0  0  0  0  0  0  0  0  0  0
   -3.6245   -2.5578   -0.0988 H   0  0  0  0  0  0  0  0  0  0  0  0
   -2.6326   -2.2880   -1.5548 H   0  0  0  0  0  0  0  0  0  0  0  0
   -5.1708   -1.0863   -0.7734 H   0  0  0  0  0  0  0  0  0  0  0  0
   -7.0886    0.2320    0.0117 H   0  0  0  0  0  0  0  0  0  0  0  0
   -4.4442    2.8085    2.2276 H   0  0  0  0  0  0  0  0  0  0  0  0
   -2.5069    1.4860    1.4637 H   0  0  0  0  0  0  0  0  0  0  0  0
  1  2  1  0
  2  3  1  0
  3  4  1  0
  4  5  1  0
  5  6  1  0
  6  7  2  0
  6  8  1  0
  8  9  1  0
  9 10  2  3
 10 11  1  0
 10 12  1  0
 12 13  2  0
 13 14  1  0
 14 15  2  0
 15 16  1  0
 15 17  1  0
 17 18  2  0
 18 12  1  0
  1 19  1  0
  1 20  1  0
  1 21  1  0
  2 22  1  0
  2 23  1  0
  3 24  1  0
  3 25  1  0
  4 26  1  0
  4 27  1  0
  5 28  1  0
  5 29  1  0
  8 30  1  0
 11 31  1  0
 11 32  1  0
 11 33  1  0
 13 34  1  0
 14 35  1  0
 17 36  1  0
 18 37  1  0
M  END
$$$$
