
     RDKit          3D

 55 57  0  0  0  0  0  0  0  0999 V2000
    1.5425   -1.4709   -0.3742 O   0  0  0  0  0  0  0  0  0  0  0  0
    2.3098   -0.5128   -0.3546 C   0  0  0  0  0  0  0  0  0  0  0  0
    2.2194    0.6029    0.6914 C   0  0  0  0  0  0  0  0  0  0  0  0
    0.9972    0.5905    1.4259 O   0  0  0  0  0  0  0  0  0  0  0  0
   -0.0806    1.0255    0.7139 C   0  0  0  0  0  0  0  0  0  0  0  0
   -0.0260    1.5219   -0.4069 O   0  0  0  0  0  0  0  0  0  0  0  0
   -1.3624    0.8888    1.5337 C   0  0  0  0  0  0  0  0  0  0  0  0
   -1.4727    2.1093    2.4569 C   0  0  0  0  0  0  0  0  0  0  0  0
   -2.6696    2.0695    3.3773 C   0  0  0  0  0  0  0  0  0  0  0  0
   -3.7633    2.9187    3.1585 C   0  0  0  0  0  0  0  0  0  0  0  0
   -4.8732    2.8749    4.0035 C   0  0  0  0  0  0  0  0  0  0  0  0
   -4.9017    1.9823    5.0731 C   0  0  0  0  0  0  0  0  0  0  0  0
   -3.8208    1.1321    5.2982 C   0  0  0  0  0  0  0  0  0  0  0  0
   -2.7092    1.1747    4.4553 C   0  0  0  0  0  0  0  0  0  0  0  0
   -2.4853    0.8117    0.5992 N   0  0  0  0  0  0  0  0  0  0  0  0
   -3.3718   -0.2416    0.5856 C   0  0  0  0  0  0  0  0  0  0  0  0
   -3.3212   -1.1370    1.4257 O   0  0  0  0  0  0  0  0  0  0  0  0
   -4.3596   -0.2249   -0.4868 C   0  0  0  0  0  0  0  0  0  0  0  0
   -5.3433   -1.1712   -0.7152 C   0  0  0  0  0  0  0  0  0  0  0  0
   -6.1521   -0.8645   -1.8470 C   0  0  0  0  0  0  0  0  0  0  0  0
   -5.7631    0.3092   -2.4511 C   0  0  0  0  0  0  0  0  0  0  0  0
   -4.4341    1.0307   -1.6539 S   0  0  0  0  0  0  0  0  0  0  0  0
    3.3426   -0.3454   -1.2585 N   0  0  0  0  0  0  0  0  0  0  0  0
    3.6445   -1.3527   -2.2704 C   0  0  0  0  0  0  0  0  0  0  0  0
    4.3102   -0.6844   -3.4855 C   0  0  0  0  0  0  0  0  0  0  0  0
    5.2009   -1.6559   -4.2487 C   0  0  0  0  0  0  0  0  0  0  0  0
    6.3416   -2.1801   -3.3743 C   0  0  0  0  0  0  0  0  0  0  0  0
    5.9838   -2.2622   -1.8888 C   0  0  0  0  0  0  0  0  0  0  0  0
    4.4917   -2.4945   -1.6775 C   0  0  0  0  0  0  0  0  0  0  0  0
    2.3815    1.5824    0.2257 H   0  0  0  0  0  0  0  0  0  0  0  0
    3.0301    0.4429    1.4105 H   0  0  0  0  0  0  0  0  0  0  0  0
   -1.3042   -0.0431    2.1069 H   0  0  0  0  0  0  0  0  0  0  0  0
   -1.5026    3.0292    1.8567 H   0  0  0  0  0  0  0  0  0  0  0  0
   -0.5694    2.1984    3.0755 H   0  0  0  0  0  0  0  0  0  0  0  0
   -3.7630    3.6160    2.3239 H   0  0  0  0  0  0  0  0  0  0  0  0
   -5.7188    3.5337    3.8236 H   0  0  0  0  0  0  0  0  0  0  0  0
   -5.7684    1.9441    5.7273 H   0  0  0  0  0  0  0  0  0  0  0  0
   -3.8461    0.4286    6.1264 H   0  0  0  0  0  0  0  0  0  0  0  0
   -1.8800    0.4959    4.6417 H   0  0  0  0  0  0  0  0  0  0  0  0
   -2.4773    1.4304   -0.2044 H   0  0  0  0  0  0  0  0  0  0  0  0
   -5.4687   -2.0470   -0.0880 H   0  0  0  0  0  0  0  0  0  0  0  0
   -6.9753   -1.4746   -2.1983 H   0  0  0  0  0  0  0  0  0  0  0  0
   -6.1954    0.7796   -3.3238 H   0  0  0  0  0  0  0  0  0  0  0  0
    4.0337    0.3712   -1.0782 H   0  0  0  0  0  0  0  0  0  0  0  0
    2.6883   -1.7865   -2.5904 H   0  0  0  0  0  0  0  0  0  0  0  0
    4.9166    0.1759   -3.1722 H   0  0  0  0  0  0  0  0  0  0  0  0
    3.5352   -0.2824   -4.1491 H   0  0  0  0  0  0  0  0  0  0  0  0
    4.5946   -2.4993   -4.6027 H   0  0  0  0  0  0  0  0  0  0  0  0
    5.6141   -1.1729   -5.1413 H   0  0  0  0  0  0  0  0  0  0  0  0
    6.6380   -3.1705   -3.7408 H   0  0  0  0  0  0  0  0  0  0  0  0
    7.2227   -1.5368   -3.4878 H   0  0  0  0  0  0  0  0  0  0  0  0
    6.2782   -1.3299   -1.3904 H   0  0  0  0  0  0  0  0  0  0  0  0
    6.5632   -3.0636   -1.4167 H   0  0  0  0  0  0  0  0  0  0  0  0
    4.2835   -2.6307   -0.6099 H   0  0  0  0  0  0  0  0  0  0  0  0
    4.2154   -3.4358   -2.1704 H   0  0  0  0  0  0  0  0  0  0  0  0
  1  2  2  0
  2  3  1  0
  3  4  1  0
  4  5  1  0
  5  6  2  0
  5  7  1  0
  7  8  1  0
  8  9  1  0
  9 10  2  0
 10 11  1  0
 11 12  2  0
 12 13  1  0
 13 14  2  0
  7 15  1  0
 15 16  1  0
 16 17  2  0
 16 18  1  0
 18 19  2  0
 19 20  1  0
 20 21  2  0
 21 22  1  0
  2 23  1  0
 23 24  1  0
 24 25  1  0
 25 26  1  0
 26 27  1  0
 27 28  1  0
 28 29  1  0
 14  9  1  0
 22 18  1  0
 29 24  1  0
  3 30  1  0
  3 31  1  0
  7 32  1  0
  8 33  1  0
  8 34  1  0
 10 35  1  0
 11 36  1  0
 12 37  1  0
 13 38  1  0
 14 39  1  0
 15 40  1  0
 19 41  1  0
 20 42  1  0
 21 43  1  0
 23 44  1  0
 24 45  1  0
 25 46  1  0
 25 47  1  0
 26 48  1  0
 26 49  1  0
 27 50  1  0
 27 51  1  0
 28 52  1  0
 28 53  1  0
 29 54  1  0
 29 55  1  0
M  END
$$$$
