
     RDKit          3D

 44 47  0  0  0  0  0  0  0  0999 V2000
    7.6000   -2.2016    0.1040 C   0  0  0  0  0  0  0  0  0  0  0  0
    7.4326   -0.6992    0.2486 C   0  0  0  0  0  0  0  0  0  0  0  0
    6.5906   -0.1831   -0.7801 O   0  0  0  0  0  0  0  0  0  0  0  0
    5.2391   -0.1086   -0.5796 C   0  0  0  0  0  0  0  0  0  0  0  0
    4.5637   -0.6372    0.5235 C   0  0  0  0  0  0  0  0  0  0  0  0
    3.1740   -0.5087    0.6328 C   0  0  0  0  0  0  0  0  0  0  0  0
    2.4404    0.1552   -0.3565 C   0  0  0  0  0  0  0  0  0  0  0  0
    0.9628    0.2627   -0.1953 C   0  0  0  0  0  0  0  0  0  0  0  0
    0.3808   -0.6484    0.3791 O   0  0  0  0  0  0  0  0  0  0  0  0
    0.4022    1.4269   -0.6883 N   0  0  0  0  0  0  0  0  0  0  0  0
   -0.9660    1.7761   -0.7110 C   0  0  0  0  0  0  0  0  0  0  0  0
   -1.2841    3.0573   -1.1785 C   0  0  0  0  0  0  0  0  0  0  0  0
   -2.6104    3.4835   -1.2393 C   0  0  0  0  0  0  0  0  0  0  0  0
   -3.6328    2.6275   -0.8348 C   0  0  0  0  0  0  0  0  0  0  0  0
   -3.3440    1.3370   -0.3675 C   0  0  0  0  0  0  0  0  0  0  0  0
   -4.4441    0.4646    0.0436 C   0  0  0  0  0  0  0  0  0  0  0  0
   -5.7422    0.7257    0.0511 N   0  0  0  0  0  0  0  0  0  0  0  0
   -6.2954   -0.4354    0.5230 C   0  0  0  0  0  0  0  0  0  0  0  0
   -7.6228   -0.8033    0.7648 C   0  0  0  0  0  0  0  0  0  0  0  0
   -7.8410   -2.0930    1.2568 C   0  0  0  0  0  0  0  0  0  0  0  0
   -6.7511   -2.9327    1.4781 C   0  0  0  0  0  0  0  0  0  0  0  0
   -5.4519   -2.6210    1.2591 N   0  0  0  0  0  0  0  0  0  0  0  0
   -5.3013   -1.3701    0.7872 C   0  0  0  0  0  0  0  0  0  0  0  0
   -4.1070   -0.7914    0.4783 O   0  0  0  0  0  0  0  0  0  0  0  0
   -2.0006    0.9231   -0.3119 C   0  0  0  0  0  0  0  0  0  0  0  0
    3.1005    0.6642   -1.4773 C   0  0  0  0  0  0  0  0  0  0  0  0
    4.4895    0.5342   -1.5812 C   0  0  0  0  0  0  0  0  0  0  0  0
    5.2500    1.1950   -2.9893 Cl  0  0  0  0  0  0  0  0  0  0  0  0
    7.9770   -2.4503   -0.8937 H   0  0  0  0  0  0  0  0  0  0  0  0
    8.3014   -2.5858    0.8502 H   0  0  0  0  0  0  0  0  0  0  0  0
    6.6463   -2.7246    0.2208 H   0  0  0  0  0  0  0  0  0  0  0  0
    8.4127   -0.2285    0.1104 H   0  0  0  0  0  0  0  0  0  0  0  0
    7.1005   -0.4079    1.2510 H   0  0  0  0  0  0  0  0  0  0  0  0
    5.0803   -1.1692    1.3157 H   0  0  0  0  0  0  0  0  0  0  0  0
    2.6623   -0.9335    1.4960 H   0  0  0  0  0  0  0  0  0  0  0  0
    1.0377    2.1457   -1.0084 H   0  0  0  0  0  0  0  0  0  0  0  0
   -0.5052    3.7441   -1.4999 H   0  0  0  0  0  0  0  0  0  0  0  0
   -2.8485    4.4805   -1.6010 H   0  0  0  0  0  0  0  0  0  0  0  0
   -4.6655    2.9703   -0.8864 H   0  0  0  0  0  0  0  0  0  0  0  0
   -8.4377   -0.1148    0.5769 H   0  0  0  0  0  0  0  0  0  0  0  0
   -8.8486   -2.4394    1.4650 H   0  0  0  0  0  0  0  0  0  0  0  0
   -6.9105   -3.9393    1.8611 H   0  0  0  0  0  0  0  0  0  0  0  0
   -1.7817   -0.0796    0.0442 H   0  0  0  0  0  0  0  0  0  0  0  0
    2.5481    1.1329   -2.2866 H   0  0  0  0  0  0  0  0  0  0  0  0
  1  2  1  0
  2  3  1  0
  3  4  1  0
  4  5  2  0
  5  6  1  0
  6  7  2  0
  7  8  1  0
  8  9  2  0
  8 10  1  0
 10 11  1  0
 11 12  2  0
 12 13  1  0
 13 14  2  0
 14 15  1  0
 15 16  1  0
 16 17  2  0
 17 18  1  0
 18 19  2  0
 19 20  1  0
 20 21  2  0
 21 22  1  0
 22 23  2  0
 23 24  1  0
 15 25  2  0
  7 26  1  0
 26 27  2  0
 27 28  1  0
 27  4  1  0
 25 11  1  0
 24 16  1  0
 23 18  1  0
  1 29  1  0
  1 30  1  0
  1 31  1  0
  2 32  1  0
  2 33  1  0
  5 34  1  0
  6 35  1  0
 10 36  1  0
 12 37  1  0
 13 38  1  0
 14 39  1  0
 19 40  1  0
 20 41  1  0
 21 42  1  0
 25 43  1  0
 26 44  1  0
M  END
$$$$
