
     RDKit          3D

 36 37  0  0  0  0  0  0  0  0999 V2000
    2.1404   -0.5959    2.9884 C   0  0  0  0  0  0  0  0  0  0  0  0
    1.9666   -0.3480    1.5985 O   0  0  0  0  0  0  0  0  0  0  0  0
    1.7210   -1.4460    0.8145 C   0  0  0  0  0  0  0  0  0  0  0  0
    1.1719   -2.6405    1.2929 C   0  0  0  0  0  0  0  0  0  0  0  0
    0.9301   -3.7072    0.4243 C   0  0  0  0  0  0  0  0  0  0  0  0
    1.2286   -3.5863   -0.9296 C   0  0  0  0  0  0  0  0  0  0  0  0
    1.7623   -2.3952   -1.4185 C   0  0  0  0  0  0  0  0  0  0  0  0
    2.0098   -1.3129   -0.5557 C   0  0  0  0  0  0  0  0  0  0  0  0
    2.5733   -0.0342   -1.1367 C   0  0  0  0  0  0  0  0  0  0  0  0
    1.5858    0.6920   -2.0330 C   0  0  0  0  0  0  0  0  0  0  0  0
    1.8405    0.8852   -3.2169 O   0  0  0  0  0  0  0  0  0  0  0  0
    0.4668    1.1444   -1.3581 N   0  0  0  0  0  0  0  0  0  0  0  0
   -0.6902    1.6209   -1.9421 C   0  0  0  0  0  0  0  0  0  0  0  0
   -0.8207    1.8790   -3.1338 O   0  0  0  0  0  0  0  0  0  0  0  0
   -1.8556    1.8486   -1.0235 C   0  0  0  0  0  0  0  0  0  0  0  0
   -3.0574    2.2802   -1.6074 C   0  0  0  0  0  0  0  0  0  0  0  0
   -4.1919    2.5136   -0.8256 C   0  0  0  0  0  0  0  0  0  0  0  0
   -4.1386    2.3218    0.5522 C   0  0  0  0  0  0  0  0  0  0  0  0
   -2.9532    1.8969    1.1514 C   0  0  0  0  0  0  0  0  0  0  0  0
   -1.8198    1.6627    0.3676 C   0  0  0  0  0  0  0  0  0  0  0  0
   -0.6658    1.2525    0.9842 O   0  0  0  0  0  0  0  0  0  0  0  0
    2.5445    0.3143    3.4420 H   0  0  0  0  0  0  0  0  0  0  0  0
    2.8553   -1.4055    3.1675 H   0  0  0  0  0  0  0  0  0  0  0  0
    1.1786   -0.8046    3.4674 H   0  0  0  0  0  0  0  0  0  0  0  0
    0.9061   -2.7686    2.3366 H   0  0  0  0  0  0  0  0  0  0  0  0
    0.5026   -4.6325    0.8049 H   0  0  0  0  0  0  0  0  0  0  0  0
    1.0395   -4.4152   -1.6071 H   0  0  0  0  0  0  0  0  0  0  0  0
    1.9825   -2.3101   -2.4835 H   0  0  0  0  0  0  0  0  0  0  0  0
    2.9153    0.6622   -0.3652 H   0  0  0  0  0  0  0  0  0  0  0  0
    3.4636   -0.2804   -1.7279 H   0  0  0  0  0  0  0  0  0  0  0  0
    0.4113    0.9359   -0.3653 H   0  0  0  0  0  0  0  0  0  0  0  0
   -3.1170    2.4386   -2.6835 H   0  0  0  0  0  0  0  0  0  0  0  0
   -5.1136    2.8481   -1.2969 H   0  0  0  0  0  0  0  0  0  0  0  0
   -5.0216    2.5076    1.1593 H   0  0  0  0  0  0  0  0  0  0  0  0
   -2.9344    1.7574    2.2288 H   0  0  0  0  0  0  0  0  0  0  0  0
   -0.8165    1.2213    1.9464 H   0  0  0  0  0  0  0  0  0  0  0  0
  1  2  1  0
  2  3  1  0
  3  4  2  0
  4  5  1  0
  5  6  2  0
  6  7  1  0
  7  8  2  0
  8  9  1  0
  9 10  1  0
 10 11  2  0
 10 12  1  0
 12 13  1  0
 13 14  2  0
 13 15  1  0
 15 16  2  0
 16 17  1  0
 17 18  2  0
 18 19  1  0
 19 20  2  0
 20 21  1  0
  8  3  1  0
 20 15  1  0
  1 22  1  0
  1 23  1  0
  1 24  1  0
  4 25  1  0
  5 26  1  0
  6 27  1  0
  7 28  1  0
  9 29  1  0
  9 30  1  0
 12 31  1  0
 16 32  1  0
 17 33  1  0
 18 34  1  0
 19 35  1  0
 21 36  1  0
M  END
$$$$
