
     RDKit          3D

 61 63  0  0  0  0  0  0  0  0999 V2000
   -3.1450   -1.4404   -3.2189 C   0  0  0  0  0  0  0  0  0  0  0  0
   -1.6794   -1.5398   -2.8359 C   0  0  0  0  0  0  0  0  0  0  0  0
   -1.5569   -1.1589   -1.4606 O   0  0  0  0  0  0  0  0  0  0  0  0
   -0.3492   -0.6651   -1.0758 C   0  0  0  0  0  0  0  0  0  0  0  0
    0.6040   -0.5066   -1.8323 O   0  0  0  0  0  0  0  0  0  0  0  0
   -0.2807   -0.3203    0.3471 C   0  0  0  0  0  0  0  0  0  0  0  0
   -1.3623   -0.2804    1.3076 C   0  0  0  0  0  0  0  0  0  0  0  0
   -2.7743   -0.5562    1.0972 C   0  0  0  0  0  0  0  0  0  0  0  0
   -3.2989   -1.8116    1.4161 C   0  0  0  0  0  0  0  0  0  0  0  0
   -4.6569   -2.0755    1.2090 C   0  0  0  0  0  0  0  0  0  0  0  0
   -5.5120   -1.0942    0.6786 C   0  0  0  0  0  0  0  0  0  0  0  0
   -6.9411   -1.3685    0.4661 C   0  0  0  0  0  0  0  0  0  0  0  0
   -7.7675   -1.7665    1.5301 C   0  0  0  0  0  0  0  0  0  0  0  0
   -9.1289   -2.0109    1.3310 C   0  0  0  0  0  0  0  0  0  0  0  0
   -9.6848   -1.8617    0.0637 C   0  0  0  0  0  0  0  0  0  0  0  0
   -8.8806   -1.4784   -1.0076 C   0  0  0  0  0  0  0  0  0  0  0  0
   -7.5202   -1.2338   -0.8069 C   0  0  0  0  0  0  0  0  0  0  0  0
   -4.9672    0.1627    0.3697 C   0  0  0  0  0  0  0  0  0  0  0  0
   -3.6109    0.4333    0.5751 C   0  0  0  0  0  0  0  0  0  0  0  0
   -0.9299    0.1162    2.5591 C   0  0  0  0  0  0  0  0  0  0  0  0
    0.7471    0.4114    2.5971 S   0  0  0  0  0  0  0  0  0  0  0  0
    0.9245    0.0232    0.9548 C   0  0  0  0  0  0  0  0  0  0  0  0
    2.1638    0.0672    0.3302 N   0  0  0  0  0  0  0  0  0  0  0  0
    3.4051    0.2697    0.9163 C   0  0  0  0  0  0  0  0  0  0  0  0
    3.6399    0.4935    2.0996 O   0  0  0  0  0  0  0  0  0  0  0  0
    4.5362    0.1576   -0.1273 C   0  0  0  0  0  0  0  0  0  0  0  0
    5.8479   -0.0914    0.5045 N   0  0  0  0  0  0  0  0  0  0  0  0
    6.5388    1.1527    0.8911 C   0  0  0  0  0  0  0  0  0  0  0  0
    7.2594    1.8258   -0.2999 C   0  0  0  0  0  0  0  0  0  0  0  0
    7.9534    3.0833    0.0535 N   0  0  0  0  0  0  0  0  0  0  0  0
    8.3841    3.7705   -1.1685 C   0  0  0  0  0  0  0  0  0  0  0  0
    9.1150    2.8400    0.9138 C   0  0  0  0  0  0  0  0  0  0  0  0
   -3.4981   -0.4090   -3.1146 H   0  0  0  0  0  0  0  0  0  0  0  0
   -3.7631   -2.0559   -2.5566 H   0  0  0  0  0  0  0  0  0  0  0  0
   -3.3016   -1.7660   -4.2515 H   0  0  0  0  0  0  0  0  0  0  0  0
   -1.3381   -2.5762   -2.9371 H   0  0  0  0  0  0  0  0  0  0  0  0
   -1.0834   -0.8964   -3.4945 H   0  0  0  0  0  0  0  0  0  0  0  0
   -2.6589   -2.5909    1.8239 H   0  0  0  0  0  0  0  0  0  0  0  0
   -5.0444   -3.0620    1.4580 H   0  0  0  0  0  0  0  0  0  0  0  0
   -7.3554   -1.8763    2.5313 H   0  0  0  0  0  0  0  0  0  0  0  0
   -9.7537   -2.3080    2.1700 H   0  0  0  0  0  0  0  0  0  0  0  0
  -10.7431   -2.0505   -0.0922 H   0  0  0  0  0  0  0  0  0  0  0  0
   -9.3109   -1.3744   -2.0008 H   0  0  0  0  0  0  0  0  0  0  0  0
   -6.9058   -0.9411   -1.6564 H   0  0  0  0  0  0  0  0  0  0  0  0
   -5.6041    0.9526   -0.0214 H   0  0  0  0  0  0  0  0  0  0  0  0
   -3.2198    1.4179    0.3334 H   0  0  0  0  0  0  0  0  0  0  0  0
   -1.5182    0.2509    3.4579 H   0  0  0  0  0  0  0  0  0  0  0  0
    2.1445   -0.1438   -0.6666 H   0  0  0  0  0  0  0  0  0  0  0  0
    4.3227   -0.7093   -0.7624 H   0  0  0  0  0  0  0  0  0  0  0  0
    4.5284    1.0486   -0.7628 H   0  0  0  0  0  0  0  0  0  0  0  0
    5.6608   -0.6104    1.3704 H   0  0  0  0  0  0  0  0  0  0  0  0
    7.2865    0.8601    1.6388 H   0  0  0  0  0  0  0  0  0  0  0  0
    5.8548    1.8557    1.3829 H   0  0  0  0  0  0  0  0  0  0  0  0
    6.5063    2.0517   -1.0654 H   0  0  0  0  0  0  0  0  0  0  0  0
    7.9639    1.1154   -0.7512 H   0  0  0  0  0  0  0  0  0  0  0  0
    9.0645    3.1565   -1.7699 H   0  0  0  0  0  0  0  0  0  0  0  0
    8.8919    4.7107   -0.9234 H   0  0  0  0  0  0  0  0  0  0  0  0
    7.5186    4.0346   -1.7861 H   0  0  0  0  0  0  0  0  0  0  0  0
    9.8443    2.1684    0.4434 H   0  0  0  0  0  0  0  0  0  0  0  0
    9.6225    3.7842    1.1452 H   0  0  0  0  0  0  0  0  0  0  0  0
    8.8167    2.4157    1.8776 H   0  0  0  0  0  0  0  0  0  0  0  0
  1  2  1  0
  2  3  1  0
  3  4  1  0
  4  5  2  0
  4  6  1  0
  6  7  1  0
  7  8  1  0
  8  9  2  0
  9 10  1  0
 10 11  2  0
 11 12  1  0
 12 13  2  0
 13 14  1  0
 14 15  2  0
 15 16  1  0
 16 17  2  0
 11 18  1  0
 18 19  2  0
  7 20  2  0
 20 21  1  0
 21 22  1  0
 22 23  1  0
 23 24  1  0
 24 25  2  0
 24 26  1  0
 26 27  1  0
 27 28  1  0
 28 29  1  0
 29 30  1  0
 30 31  1  0
 30 32  1  0
 22  6  2  0
 19  8  1  0
 17 12  1  0
  1 33  1  0
  1 34  1  0
  1 35  1  0
  2 36  1  0
  2 37  1  0
  9 38  1  0
 10 39  1  0
 13 40  1  0
 14 41  1  0
 15 42  1  0
 16 43  1  0
 17 44  1  0
 18 45  1  0
 19 46  1  0
 20 47  1  0
 23 48  1  0
 26 49  1  0
 26 50  1  0
 27 51  1  0
 28 52  1  0
 28 53  1  0
 29 54  1  0
 29 55  1  0
 31 56  1  0
 31 57  1  0
 31 58  1  0
 32 59  1  0
 32 60  1  0
 32 61  1  0
M  END
$$$$
