
     RDKit          3D

 48 50  0  0  0  0  0  0  0  0999 V2000
    0.2888   -0.1597    4.0886 C   0  0  0  0  0  0  0  0  0  0  0  0
    0.4133   -1.1831    2.9699 C   0  0  0  0  0  0  0  0  0  0  0  0
    1.3943   -0.7455    1.9263 C   0  0  0  0  0  0  0  0  0  0  0  0
    1.1694   -0.3198    0.6850 C   0  0  0  0  0  0  0  0  0  0  0  0
   -0.1407   -0.1602    0.0589 C   0  0  0  0  0  0  0  0  0  0  0  0
   -0.6961   -1.2099   -0.6857 C   0  0  0  0  0  0  0  0  0  0  0  0
   -1.9577   -1.0750   -1.2685 C   0  0  0  0  0  0  0  0  0  0  0  0
   -2.5795   -2.0390   -2.0191 O   0  0  0  0  0  0  0  0  0  0  0  0
   -1.8051   -3.1648   -2.4088 C   0  0  0  0  0  0  0  0  0  0  0  0
   -2.6733    0.1176   -1.0671 C   0  0  0  0  0  0  0  0  0  0  0  0
   -3.9009    0.2771   -1.6727 O   0  0  0  0  0  0  0  0  0  0  0  0
   -4.9340   -0.1685   -0.7959 C   0  0  0  0  0  0  0  0  0  0  0  0
   -2.1298    1.1805   -0.3257 C   0  0  0  0  0  0  0  0  0  0  0  0
   -2.9107    2.3007   -0.2051 O   0  0  0  0  0  0  0  0  0  0  0  0
   -2.3164    3.4533    0.3757 C   0  0  0  0  0  0  0  0  0  0  0  0
   -0.8661    1.0246    0.2469 C   0  0  0  0  0  0  0  0  0  0  0  0
    2.4650   -0.0065    0.0165 C   0  0  0  0  0  0  0  0  0  0  0  0
    2.6771    1.4660   -0.3857 C   0  0  0  0  0  0  0  0  0  0  0  0
    3.0812    1.4321   -1.8588 C   0  0  0  0  0  0  0  0  0  0  0  0
    3.6996    0.0592   -2.0554 C   0  0  0  0  0  0  0  0  0  0  0  0
    2.7979   -0.8471   -1.2262 C   0  0  0  0  0  0  0  0  0  0  0  0
    3.4099   -0.3808    1.1635 C   0  0  0  0  0  0  0  0  0  0  0  0
    4.6328   -0.3142    1.1130 O   0  0  0  0  0  0  0  0  0  0  0  0
    2.7387   -0.8107    2.2830 O   0  0  0  0  0  0  0  0  0  0  0  0
    1.2480   -0.0012    4.5928 H   0  0  0  0  0  0  0  0  0  0  0  0
   -0.0587    0.8055    3.7048 H   0  0  0  0  0  0  0  0  0  0  0  0
   -0.4317   -0.5049    4.8371 H   0  0  0  0  0  0  0  0  0  0  0  0
   -0.5767   -1.3562    2.5338 H   0  0  0  0  0  0  0  0  0  0  0  0
    0.7376   -2.1439    3.3869 H   0  0  0  0  0  0  0  0  0  0  0  0
   -0.1281   -2.1287   -0.7911 H   0  0  0  0  0  0  0  0  0  0  0  0
   -1.5519   -3.7840   -1.5422 H   0  0  0  0  0  0  0  0  0  0  0  0
   -2.4149   -3.7726   -3.0842 H   0  0  0  0  0  0  0  0  0  0  0  0
   -0.9057   -2.8609   -2.9547 H   0  0  0  0  0  0  0  0  0  0  0  0
   -5.8907   -0.0273   -1.3076 H   0  0  0  0  0  0  0  0  0  0  0  0
   -4.8300   -1.2341   -0.5638 H   0  0  0  0  0  0  0  0  0  0  0  0
   -4.9560    0.4195    0.1281 H   0  0  0  0  0  0  0  0  0  0  0  0
   -3.0374    4.2734    0.3042 H   0  0  0  0  0  0  0  0  0  0  0  0
   -2.1026    3.2906    1.4370 H   0  0  0  0  0  0  0  0  0  0  0  0
   -1.4148    3.7542   -0.1684 H   0  0  0  0  0  0  0  0  0  0  0  0
   -0.4263    1.8117    0.8512 H   0  0  0  0  0  0  0  0  0  0  0  0
    1.7894    2.0926   -0.2572 H   0  0  0  0  0  0  0  0  0  0  0  0
    3.4790    1.9319    0.2001 H   0  0  0  0  0  0  0  0  0  0  0  0
    2.1898    1.5344   -2.4895 H   0  0  0  0  0  0  0  0  0  0  0  0
    3.7712    2.2407   -2.1170 H   0  0  0  0  0  0  0  0  0  0  0  0
    3.7271   -0.2364   -3.1082 H   0  0  0  0  0  0  0  0  0  0  0  0
    4.7248    0.0421   -1.6683 H   0  0  0  0  0  0  0  0  0  0  0  0
    1.9023   -1.0798   -1.8123 H   0  0  0  0  0  0  0  0  0  0  0  0
    3.2986   -1.7930   -0.9929 H   0  0  0  0  0  0  0  0  0  0  0  0
  1  2  1  0
  2  3  1  0
  3  4  2  0
  4  5  1  0
  5  6  2  0
  6  7  1  0
  7  8  1  0
  8  9  1  0
  7 10  2  0
 10 11  1  0
 11 12  1  0
 10 13  1  0
 13 14  1  0
 14 15  1  0
 13 16  2  0
  4 17  1  0
 17 18  1  0
 18 19  1  0
 19 20  1  0
 20 21  1  0
 17 22  1  0
 22 23  2  0
 22 24  1  0
 24  3  1  0
 16  5  1  0
 21 17  1  0
  1 25  1  0
  1 26  1  0
  1 27  1  0
  2 28  1  0
  2 29  1  0
  6 30  1  0
  9 31  1  0
  9 32  1  0
  9 33  1  0
 12 34  1  0
 12 35  1  0
 12 36  1  0
 15 37  1  0
 15 38  1  0
 15 39  1  0
 16 40  1  0
 18 41  1  0
 18 42  1  0
 19 43  1  0
 19 44  1  0
 20 45  1  0
 20 46  1  0
 21 47  1  0
 21 48  1  0
M  END
$$$$
