
     RDKit          3D

 39 41  0  0  0  0  0  0  0  0999 V2000
   -1.4694   -0.5999   -0.4070 O   0  0  0  0  0  0  0  0  0  0  0  0
   -1.6920   -0.3629    0.7777 C   0  0  0  0  0  0  0  0  0  0  0  0
   -2.9183   -0.8711    1.5400 C   0  0  0  0  0  0  0  0  0  0  0  0
   -3.7597   -1.7468    0.8054 O   0  0  0  0  0  0  0  0  0  0  0  0
   -4.8433   -1.1805    0.1857 C   0  0  0  0  0  0  0  0  0  0  0  0
   -4.8050    0.0736   -0.4330 C   0  0  0  0  0  0  0  0  0  0  0  0
   -5.9417    0.5765   -1.0741 C   0  0  0  0  0  0  0  0  0  0  0  0
   -7.1144   -0.1768   -1.1092 C   0  0  0  0  0  0  0  0  0  0  0  0
   -8.5089    0.4507   -1.8979 Cl  0  0  0  0  0  0  0  0  0  0  0  0
   -7.1635   -1.4349   -0.5170 C   0  0  0  0  0  0  0  0  0  0  0  0
   -6.0266   -1.9369    0.1215 C   0  0  0  0  0  0  0  0  0  0  0  0
   -6.1310   -3.5021    0.8496 Cl  0  0  0  0  0  0  0  0  0  0  0  0
   -0.8632    0.4377    1.5560 N   0  0  0  0  0  0  0  0  0  0  0  0
    0.3829    0.7691    0.9833 N   0  0  0  0  0  0  0  0  0  0  0  0
    1.4554   -0.0771    1.1997 C   0  0  0  0  0  0  0  0  0  0  0  0
    1.4647   -1.0471    1.9470 O   0  0  0  0  0  0  0  0  0  0  0  0
    2.6216    0.4087    0.4125 C   0  0  0  0  0  0  0  0  0  0  0  0
    3.7862   -0.2536    0.4052 C   0  0  0  0  0  0  0  0  0  0  0  0
    4.9851    0.1287   -0.3463 C   0  0  0  0  0  0  0  0  0  0  0  0
    5.7251    1.2668   -0.0020 C   0  0  0  0  0  0  0  0  0  0  0  0
    6.8733    1.6053   -0.7238 C   0  0  0  0  0  0  0  0  0  0  0  0
    7.2848    0.8033   -1.7868 C   0  0  0  0  0  0  0  0  0  0  0  0
    8.7020    1.2157   -2.6694 Cl  0  0  0  0  0  0  0  0  0  0  0  0
    6.5585   -0.3338   -2.1346 C   0  0  0  0  0  0  0  0  0  0  0  0
    5.4106   -0.6723   -1.4128 C   0  0  0  0  0  0  0  0  0  0  0  0
    2.2155    1.8553   -0.4376 S   0  0  0  0  0  0  0  0  0  0  0  0
    0.5578    1.8665    0.1632 C   0  0  0  0  0  0  0  0  0  0  0  0
   -0.5471    3.0625   -0.2022 S   0  0  0  0  0  0  0  0  0  0  0  0
   -3.4738   -0.0198    1.9547 H   0  0  0  0  0  0  0  0  0  0  0  0
   -2.5439   -1.4485    2.3945 H   0  0  0  0  0  0  0  0  0  0  0  0
   -3.8962    0.6693   -0.4631 H   0  0  0  0  0  0  0  0  0  0  0  0
   -5.8985    1.5520   -1.5547 H   0  0  0  0  0  0  0  0  0  0  0  0
   -8.0768   -2.0236   -0.5554 H   0  0  0  0  0  0  0  0  0  0  0  0
   -0.8262    0.2561    2.5560 H   0  0  0  0  0  0  0  0  0  0  0  0
    3.8855   -1.1772    0.9743 H   0  0  0  0  0  0  0  0  0  0  0  0
    5.4189    1.8974    0.8296 H   0  0  0  0  0  0  0  0  0  0  0  0
    7.4411    2.4914   -0.4507 H   0  0  0  0  0  0  0  0  0  0  0  0
    6.8789   -0.9597   -2.9630 H   0  0  0  0  0  0  0  0  0  0  0  0
    4.8517   -1.5620   -1.6941 H   0  0  0  0  0  0  0  0  0  0  0  0
  1  2  2  0
  2  3  1  0
  3  4  1  0
  4  5  1  0
  5  6  2  0
  6  7  1  0
  7  8  2  0
  8  9  1  0
  8 10  1  0
 10 11  2  0
 11 12  1  0
  2 13  1  0
 13 14  1  0
 14 15  1  0
 15 16  2  0
 15 17  1  0
 17 18  2  3
 18 19  1  0
 19 20  2  0
 20 21  1  0
 21 22  2  0
 22 23  1  0
 22 24  1  0
 24 25  2  0
 17 26  1  0
 26 27  1  0
 27 28  2  0
 11  5  1  0
 27 14  1  0
 25 19  1  0
  3 29  1  0
  3 30  1  0
  6 31  1  0
  7 32  1  0
 10 33  1  0
 13 34  1  0
 18 35  1  0
 20 36  1  0
 21 37  1  0
 24 38  1  0
 25 39  1  0
M  END
$$$$
