
     RDKit          3D

 34 36  0  0  0  0  0  0  0  0999 V2000
    5.5941    0.1936   -0.6962 C   0  0  0  0  0  0  0  0  0  0  0  0
    4.2728    0.2391   -0.0986 N   0  0  0  0  0  0  0  0  0  0  0  0
    3.2518   -0.5999   -0.7002 C   0  0  0  0  0  0  0  0  0  0  0  0
    1.8874   -0.3461   -0.1559 C   0  0  0  0  0  0  0  0  0  0  0  0
    0.7231   -0.7569   -0.8096 C   0  0  0  0  0  0  0  0  0  0  0  0
   -0.5131   -0.5478   -0.1965 C   0  0  0  0  0  0  0  0  0  0  0  0
   -1.7469   -0.9933   -0.8723 C   0  0  0  0  0  0  0  0  0  0  0  0
   -1.7189   -2.0387   -1.5215 O   0  0  0  0  0  0  0  0  0  0  0  0
   -3.0251   -0.2429   -0.7824 C   0  0  0  0  0  0  0  0  0  0  0  0
   -3.0470    1.1474   -0.6023 C   0  0  0  0  0  0  0  0  0  0  0  0
   -4.2675    1.8222   -0.5079 C   0  0  0  0  0  0  0  0  0  0  0  0
   -5.4676    1.1180   -0.6048 C   0  0  0  0  0  0  0  0  0  0  0  0
   -5.4534   -0.2605   -0.8128 C   0  0  0  0  0  0  0  0  0  0  0  0
   -4.2385   -0.9337   -0.9150 C   0  0  0  0  0  0  0  0  0  0  0  0
   -4.3060   -2.2813   -1.1493 O   0  0  0  0  0  0  0  0  0  0  0  0
   -0.5263    0.0140    1.0731 C   0  0  0  0  0  0  0  0  0  0  0  0
    0.5889    0.4203    1.7265 N   0  0  0  0  0  0  0  0  0  0  0  0
    1.7656    0.2375    1.0931 C   0  0  0  0  0  0  0  0  0  0  0  0
    2.9072    0.6582    1.7457 N   0  0  0  0  0  0  0  0  0  0  0  0
    4.1532    0.6925    1.2012 C   0  0  0  0  0  0  0  0  0  0  0  0
    5.0927    1.1427    1.8535 O   0  0  0  0  0  0  0  0  0  0  0  0
    5.5093    0.3541   -1.7748 H   0  0  0  0  0  0  0  0  0  0  0  0
    6.2460    0.9649   -0.2763 H   0  0  0  0  0  0  0  0  0  0  0  0
    6.0350   -0.7887   -0.5017 H   0  0  0  0  0  0  0  0  0  0  0  0
    3.5272   -1.6458   -0.5207 H   0  0  0  0  0  0  0  0  0  0  0  0
    3.2578   -0.4105   -1.7798 H   0  0  0  0  0  0  0  0  0  0  0  0
    0.7752   -1.2431   -1.7815 H   0  0  0  0  0  0  0  0  0  0  0  0
   -2.1306    1.7296   -0.5498 H   0  0  0  0  0  0  0  0  0  0  0  0
   -4.2839    2.9006   -0.3649 H   0  0  0  0  0  0  0  0  0  0  0  0
   -6.4165    1.6442   -0.5317 H   0  0  0  0  0  0  0  0  0  0  0  0
   -6.3866   -0.8099   -0.9061 H   0  0  0  0  0  0  0  0  0  0  0  0
   -3.4067   -2.5863   -1.4057 H   0  0  0  0  0  0  0  0  0  0  0  0
   -1.4469    0.1501    1.6343 H   0  0  0  0  0  0  0  0  0  0  0  0
    2.7944    1.0563    2.6656 H   0  0  0  0  0  0  0  0  0  0  0  0
  1  2  1  0
  2  3  1  0
  3  4  1  0
  4  5  2  0
  5  6  1  0
  6  7  1  0
  7  8  2  0
  7  9  1  0
  9 10  2  0
 10 11  1  0
 11 12  2  0
 12 13  1  0
 13 14  2  0
 14 15  1  0
  6 16  2  0
 16 17  1  0
 17 18  2  0
 18 19  1  0
 19 20  1  0
 20 21  2  0
 20  2  1  0
 18  4  1  0
 14  9  1  0
  1 22  1  0
  1 23  1  0
  1 24  1  0
  3 25  1  0
  3 26  1  0
  5 27  1  0
 10 28  1  0
 11 29  1  0
 12 30  1  0
 13 31  1  0
 15 32  1  0
 16 33  1  0
 19 34  1  0
M  END
$$$$
