
     RDKit          3D

 64 67  0  0  0  0  0  0  0  0999 V2000
    9.9969   -2.3674   -1.3252 C   0  0  0  0  0  0  0  0  0  0  0  0
    9.0733   -1.5113   -2.1773 C   0  0  0  0  0  0  0  0  0  0  0  0
    7.7749   -1.2131   -1.4728 C   0  0  0  0  0  0  0  0  0  0  0  0
    7.6484   -0.0796   -0.6634 C   0  0  0  0  0  0  0  0  0  0  0  0
    6.4457    0.1884   -0.0012 C   0  0  0  0  0  0  0  0  0  0  0  0
    5.3432   -0.6704   -0.1279 C   0  0  0  0  0  0  0  0  0  0  0  0
    4.0820   -0.3726    0.5647 C   0  0  0  0  0  0  0  0  0  0  0  0
    2.8497   -1.0871    0.4981 C   0  0  0  0  0  0  0  0  0  0  0  0
    1.9830   -0.3994    1.3128 C   0  0  0  0  0  0  0  0  0  0  0  0
    0.6118   -0.5737    1.6752 C   0  0  0  0  0  0  0  0  0  0  0  0
   -0.0851   -1.4927    1.2470 O   0  0  0  0  0  0  0  0  0  0  0  0
    0.1177    0.4112    2.5496 N   0  0  0  0  0  0  0  0  0  0  0  0
   -1.2736    0.3390    2.9815 C   0  0  0  0  0  0  0  0  0  0  0  0
   -2.1912    0.8591    1.8765 C   0  0  0  0  0  0  0  0  0  0  0  0
   -2.5841    2.0217    1.8349 O   0  0  0  0  0  0  0  0  0  0  0  0
   -2.5070   -0.0835    0.9144 N   0  0  0  0  0  0  0  0  0  0  0  0
   -3.2242    0.2753   -0.2993 C   0  0  0  0  0  0  0  0  0  0  0  0
   -4.7266    0.5385   -0.0589 C   0  0  0  0  0  0  0  0  0  0  0  0
   -5.4765    0.8659   -1.2902 N   0  0  0  0  0  0  0  0  0  0  0  0
   -5.6064   -0.2792   -2.2099 C   0  0  0  0  0  0  0  0  0  0  0  0
   -6.5708   -1.3634   -1.7209 C   0  0  0  0  0  0  0  0  0  0  0  0
   -7.9401   -0.7811   -1.3882 C   0  0  0  0  0  0  0  0  0  0  0  0
   -7.8198    0.4392   -0.4786 C   0  0  0  0  0  0  0  0  0  0  0  0
   -6.8145    1.4569   -1.0467 C   0  0  0  0  0  0  0  0  0  0  0  0
   -6.7867    2.7289   -0.1901 C   0  0  0  0  0  0  0  0  0  0  0  0
    0.8765    1.4681    3.0623 N   0  0  0  0  0  0  0  0  0  0  0  0
    2.1196    1.5680    2.6883 C   0  0  0  0  0  0  0  0  0  0  0  0
    3.0279    2.6576    3.1590 C   0  0  0  0  0  0  0  0  0  0  0  0
    2.6858    0.6472    1.8144 N   0  0  0  0  0  0  0  0  0  0  0  0
    3.9626    0.6887    1.3861 N   0  0  0  0  0  0  0  0  0  0  0  0
    5.4806   -1.8103   -0.9326 C   0  0  0  0  0  0  0  0  0  0  0  0
    6.6834   -2.0795   -1.5962 C   0  0  0  0  0  0  0  0  0  0  0  0
    9.5332   -3.3283   -1.0778 H   0  0  0  0  0  0  0  0  0  0  0  0
   10.2497   -1.8653   -0.3853 H   0  0  0  0  0  0  0  0  0  0  0  0
   10.9286   -2.5687   -1.8629 H   0  0  0  0  0  0  0  0  0  0  0  0
    8.8679   -2.0197   -3.1273 H   0  0  0  0  0  0  0  0  0  0  0  0
    9.5758   -0.5723   -2.4398 H   0  0  0  0  0  0  0  0  0  0  0  0
    8.4840    0.6064   -0.5415 H   0  0  0  0  0  0  0  0  0  0  0  0
    6.3778    1.0818    0.6170 H   0  0  0  0  0  0  0  0  0  0  0  0
    2.6172   -1.9768   -0.0706 H   0  0  0  0  0  0  0  0  0  0  0  0
   -1.5340   -0.6983    3.2210 H   0  0  0  0  0  0  0  0  0  0  0  0
   -1.4184    0.9437    3.8838 H   0  0  0  0  0  0  0  0  0  0  0  0
   -1.9092   -0.9094    0.8722 H   0  0  0  0  0  0  0  0  0  0  0  0
   -2.7472    1.1630   -0.7310 H   0  0  0  0  0  0  0  0  0  0  0  0
   -3.0743   -0.5617   -0.9868 H   0  0  0  0  0  0  0  0  0  0  0  0
   -5.1667   -0.3171    0.4670 H   0  0  0  0  0  0  0  0  0  0  0  0
   -4.7823    1.3778    0.6402 H   0  0  0  0  0  0  0  0  0  0  0  0
   -4.6321   -0.7260   -2.4309 H   0  0  0  0  0  0  0  0  0  0  0  0
   -5.9632    0.0976   -3.1781 H   0  0  0  0  0  0  0  0  0  0  0  0
   -6.6811   -2.1316   -2.4955 H   0  0  0  0  0  0  0  0  0  0  0  0
   -6.1601   -1.8678   -0.8384 H   0  0  0  0  0  0  0  0  0  0  0  0
   -8.4426   -0.4883   -2.3187 H   0  0  0  0  0  0  0  0  0  0  0  0
   -8.5678   -1.5435   -0.9137 H   0  0  0  0  0  0  0  0  0  0  0  0
   -8.8072    0.9056   -0.3750 H   0  0  0  0  0  0  0  0  0  0  0  0
   -7.5172    0.1205    0.5265 H   0  0  0  0  0  0  0  0  0  0  0  0
   -7.1914    1.7828   -2.0271 H   0  0  0  0  0  0  0  0  0  0  0  0
   -6.6041    2.5173    0.8684 H   0  0  0  0  0  0  0  0  0  0  0  0
   -7.7519    3.2460   -0.2527 H   0  0  0  0  0  0  0  0  0  0  0  0
   -6.0189    3.4251   -0.5462 H   0  0  0  0  0  0  0  0  0  0  0  0
    2.4910    3.3199    3.8444 H   0  0  0  0  0  0  0  0  0  0  0  0
    3.3798    3.2501    2.3098 H   0  0  0  0  0  0  0  0  0  0  0  0
    3.8854    2.2325    3.6884 H   0  0  0  0  0  0  0  0  0  0  0  0
    4.6612   -2.5117   -1.0600 H   0  0  0  0  0  0  0  0  0  0  0  0
    6.7612   -2.9733   -2.2124 H   0  0  0  0  0  0  0  0  0  0  0  0
  1  2  1  0
  2  3  1  0
  3  4  2  0
  4  5  1  0
  5  6  2  0
  6  7  1  0
  7  8  1  0
  8  9  2  0
  9 10  1  0
 10 11  2  0
 10 12  1  0
 12 13  1  0
 13 14  1  0
 14 15  2  0
 14 16  1  0
 16 17  1  0
 17 18  1  0
 18 19  1  0
 19 20  1  0
 20 21  1  0
 21 22  1  0
 22 23  1  0
 23 24  1  0
 24 25  1  0
 12 26  1  0
 26 27  2  0
 27 28  1  0
 27 29  1  0
 29 30  1  0
  6 31  1  0
 31 32  2  0
 32  3  1  0
 30  7  2  0
 29  9  1  0
 24 19  1  0
  1 33  1  0
  1 34  1  0
  1 35  1  0
  2 36  1  0
  2 37  1  0
  4 38  1  0
  5 39  1  0
  8 40  1  0
 13 41  1  0
 13 42  1  0
 16 43  1  0
 17 44  1  0
 17 45  1  0
 18 46  1  0
 18 47  1  0
 20 48  1  0
 20 49  1  0
 21 50  1  0
 21 51  1  0
 22 52  1  0
 22 53  1  0
 23 54  1  0
 23 55  1  0
 24 56  1  0
 25 57  1  0
 25 58  1  0
 25 59  1  0
 28 60  1  0
 28 61  1  0
 28 62  1  0
 31 63  1  0
 32 64  1  0
M  END
$$$$
