
     RDKit          3D

 49 51  0  0  0  0  0  0  0  0999 V2000
   -3.8030   -0.1926    2.9380 C   0  0  0  0  0  0  0  0  0  0  0  0
   -3.3663   -0.9063    1.6832 C   0  0  0  0  0  0  0  0  0  0  0  0
   -3.8954   -2.2870    1.4759 C   0  0  0  0  0  0  0  0  0  0  0  0
   -3.5313   -2.8696    0.3242 C   0  0  0  0  0  0  0  0  0  0  0  0
   -3.9548   -4.2568   -0.0510 C   0  0  0  0  0  0  0  0  0  0  0  0
   -2.7256   -2.1798   -0.5492 N   0  0  0  0  0  0  0  0  0  0  0  0
   -2.1961   -0.9521   -0.2682 C   0  0  0  0  0  0  0  0  0  0  0  0
   -1.3334   -0.4359   -1.0857 N   0  0  0  0  0  0  0  0  0  0  0  0
   -0.7259    0.7521   -0.7848 C   0  0  0  0  0  0  0  0  0  0  0  0
    0.5671    0.8002   -0.7368 N   0  0  0  0  0  0  0  0  0  0  0  0
    1.4611   -0.5272   -0.9778 S   0  0  0  0  0  6  0  0  0  0  0  0
    1.1971   -1.4946    0.0740 O   0  0  0  0  0  0  0  0  0  0  0  0
    1.4051   -0.9028   -2.3798 O   0  0  0  0  0  0  0  0  0  0  0  0
    3.0795    0.1794   -0.6698 C   0  0  0  0  0  0  0  0  0  0  0  0
    4.1450   -0.8751   -0.8254 C   0  0  0  0  0  0  0  0  0  0  0  0
    4.5541   -1.6424    0.2750 C   0  0  0  0  0  0  0  0  0  0  0  0
    5.5414   -2.6181    0.1301 C   0  0  0  0  0  0  0  0  0  0  0  0
    6.1278   -2.8389   -1.1143 C   0  0  0  0  0  0  0  0  0  0  0  0
    5.7248   -2.0876   -2.2163 C   0  0  0  0  0  0  0  0  0  0  0  0
    4.7378   -1.1111   -2.0742 C   0  0  0  0  0  0  0  0  0  0  0  0
   -1.5254    1.8562   -0.5877 N   0  0  0  0  0  0  0  0  0  0  0  0
   -1.1649    3.1800   -0.2651 C   0  0  0  0  0  0  0  0  0  0  0  0
    0.0620    3.7424   -0.6453 C   0  0  0  0  0  0  0  0  0  0  0  0
    0.3872    5.0664   -0.3290 C   0  0  0  0  0  0  0  0  0  0  0  0
   -0.5167    5.8632    0.3662 C   0  0  0  0  0  0  0  0  0  0  0  0
   -1.7520    5.3402    0.7370 C   0  0  0  0  0  0  0  0  0  0  0  0
   -2.0731    4.0159    0.4175 C   0  0  0  0  0  0  0  0  0  0  0  0
   -3.7881    3.3785    0.9443 Br  0  0  0  0  0  0  0  0  0  0  0  0
   -2.5844   -0.2712    0.8622 N   0  0  0  0  0  0  0  0  0  0  0  0
   -4.1454   -0.9006    3.6972 H   0  0  0  0  0  0  0  0  0  0  0  0
   -4.6196    0.4924    2.6937 H   0  0  0  0  0  0  0  0  0  0  0  0
   -2.9657    0.3804    3.3473 H   0  0  0  0  0  0  0  0  0  0  0  0
   -4.5221   -2.7494    2.2248 H   0  0  0  0  0  0  0  0  0  0  0  0
   -4.5879   -4.7133    0.7173 H   0  0  0  0  0  0  0  0  0  0  0  0
   -4.5225   -4.2411   -0.9872 H   0  0  0  0  0  0  0  0  0  0  0  0
   -3.0784   -4.8988   -0.1880 H   0  0  0  0  0  0  0  0  0  0  0  0
   -2.3248   -2.6631   -1.3433 H   0  0  0  0  0  0  0  0  0  0  0  0
    3.2346    0.9988   -1.3794 H   0  0  0  0  0  0  0  0  0  0  0  0
    3.0833    0.5921    0.3444 H   0  0  0  0  0  0  0  0  0  0  0  0
    4.0972   -1.4942    1.2519 H   0  0  0  0  0  0  0  0  0  0  0  0
    5.8472   -3.2114    0.9879 H   0  0  0  0  0  0  0  0  0  0  0  0
    6.8926   -3.6026   -1.2273 H   0  0  0  0  0  0  0  0  0  0  0  0
    6.1735   -2.2670   -3.1899 H   0  0  0  0  0  0  0  0  0  0  0  0
    4.4254   -0.5446   -2.9498 H   0  0  0  0  0  0  0  0  0  0  0  0
   -2.4472    1.5950   -0.2493 H   0  0  0  0  0  0  0  0  0  0  0  0
    0.7819    3.1668   -1.2198 H   0  0  0  0  0  0  0  0  0  0  0  0
    1.3471    5.4740   -0.6372 H   0  0  0  0  0  0  0  0  0  0  0  0
   -0.2633    6.8918    0.6094 H   0  0  0  0  0  0  0  0  0  0  0  0
   -2.4596    5.9696    1.2703 H   0  0  0  0  0  0  0  0  0  0  0  0
  1  2  1  0
  2  3  1  0
  3  4  2  0
  4  5  1  0
  4  6  1  0
  6  7  1  0
  7  8  2  3
  8  9  1  0
  9 10  2  3
 10 11  1  0
 11 12  2  0
 11 13  2  0
 11 14  1  0
 14 15  1  0
 15 16  2  0
 16 17  1  0
 17 18  2  0
 18 19  1  0
 19 20  2  0
  9 21  1  0
 21 22  1  0
 22 23  2  0
 23 24  1  0
 24 25  2  0
 25 26  1  0
 26 27  2  0
 27 28  1  0
  7 29  1  0
 29  2  2  0
 20 15  1  0
 27 22  1  0
  1 30  1  0
  1 31  1  0
  1 32  1  0
  3 33  1  0
  5 34  1  0
  5 35  1  0
  5 36  1  0
  6 37  1  0
 14 38  1  0
 14 39  1  0
 16 40  1  0
 17 41  1  0
 18 42  1  0
 19 43  1  0
 20 44  1  0
 21 45  1  0
 23 46  1  0
 24 47  1  0
 25 48  1  0
 26 49  1  0
M  END
$$$$
