
     RDKit          3D

 69 72  0  0  0  0  0  0  0  0999 V2000
    7.1602    3.8574    0.3849 C   0  0  0  0  0  0  0  0  0  0  0  0
    7.6465    2.6357   -0.1541 O   0  0  0  0  0  0  0  0  0  0  0  0
    6.8673    1.5189    0.0107 C   0  0  0  0  0  0  0  0  0  0  0  0
    5.5749    1.5267    0.5490 C   0  0  0  0  0  0  0  0  0  0  0  0
    4.8655    0.3337    0.7083 C   0  0  0  0  0  0  0  0  0  0  0  0
    5.4286   -0.8860    0.3175 C   0  0  0  0  0  0  0  0  0  0  0  0
    4.6644   -2.1757    0.5074 C   0  0  0  0  0  0  0  0  0  0  0  0
    3.8166   -2.5664   -0.7074 C   0  0  0  0  0  0  0  0  0  0  0  0
    2.7045   -1.6685   -0.9643 N   0  0  0  0  0  0  0  0  0  0  0  0
    1.5943   -1.6594   -0.1503 C   0  0  0  0  0  0  0  0  0  0  0  0
    1.4565   -2.4193    0.8033 O   0  0  0  0  0  0  0  0  0  0  0  0
    0.5095   -0.6823   -0.5883 C   0  0  0  0  0  0  0  0  0  0  0  0
   -0.0722    0.0748    0.6150 C   0  0  0  0  0  0  0  0  0  0  0  0
   -1.5400    0.4178    0.3881 C   0  0  0  0  0  0  0  0  0  0  0  0
   -2.3465   -0.8185    0.2571 N   0  0  0  0  0  0  0  0  0  0  0  0
   -3.3432   -1.2359    1.5619 S   0  0  0  0  0  6  0  0  0  0  0  0
   -2.8389   -0.6024    2.7576 O   0  0  0  0  0  0  0  0  0  0  0  0
   -3.6058   -2.6545    1.5129 O   0  0  0  0  0  0  0  0  0  0  0  0
   -4.7674   -0.4576    1.1015 N   0  0  0  0  0  0  0  0  0  0  0  0
   -4.8352    1.0122    1.2190 C   0  0  0  0  0  0  0  0  0  0  0  0
   -6.3003    1.4317    1.2991 C   0  0  0  0  0  0  0  0  0  0  0  0
   -7.0901    0.9084    0.1005 C   0  0  0  0  0  0  0  0  0  0  0  0
   -6.9077   -0.5996   -0.0633 C   0  0  0  0  0  0  0  0  0  0  0  0
   -5.4277   -0.9616   -0.1231 C   0  0  0  0  0  0  0  0  0  0  0  0
   -6.6416    1.5873   -1.0906 O   0  0  0  0  0  0  0  0  0  0  0  0
   -7.8433    1.9353   -1.7803 C   0  0  0  0  0  0  0  0  0  0  0  0
   -8.8147    2.1869   -0.6610 C   0  0  0  0  0  0  0  0  0  0  0  0
   -8.4922    1.1771    0.2934 O   0  0  0  0  0  0  0  0  0  0  0  0
   -1.6610   -1.9623   -0.4025 C   0  0  0  0  0  0  0  0  0  0  0  0
   -0.5711   -1.4669   -1.3529 C   0  0  0  0  0  0  0  0  0  0  0  0
    6.7112   -0.8949   -0.2496 C   0  0  0  0  0  0  0  0  0  0  0  0
    7.4390    0.2954   -0.3879 C   0  0  0  0  0  0  0  0  0  0  0  0
    8.7019    0.3548   -0.9289 O   0  0  0  0  0  0  0  0  0  0  0  0
    9.4887   -0.8256   -0.8245 C   0  0  0  0  0  0  0  0  0  0  0  0
    7.9464    4.6076    0.2770 H   0  0  0  0  0  0  0  0  0  0  0  0
    6.2838    4.2063   -0.1747 H   0  0  0  0  0  0  0  0  0  0  0  0
    6.9379    3.7624    1.4537 H   0  0  0  0  0  0  0  0  0  0  0  0
    5.0931    2.4465    0.8637 H   0  0  0  0  0  0  0  0  0  0  0  0
    3.8708    0.3574    1.1503 H   0  0  0  0  0  0  0  0  0  0  0  0
    4.0438   -2.0935    1.4082 H   0  0  0  0  0  0  0  0  0  0  0  0
    5.3820   -2.9809    0.7124 H   0  0  0  0  0  0  0  0  0  0  0  0
    4.4248   -2.5947   -1.6180 H   0  0  0  0  0  0  0  0  0  0  0  0
    3.4042   -3.5699   -0.5452 H   0  0  0  0  0  0  0  0  0  0  0  0
    2.8723   -0.8851   -1.5830 H   0  0  0  0  0  0  0  0  0  0  0  0
    0.9488    0.0464   -1.2783 H   0  0  0  0  0  0  0  0  0  0  0  0
    0.5044    0.9918    0.7783 H   0  0  0  0  0  0  0  0  0  0  0  0
    0.0190   -0.5094    1.5384 H   0  0  0  0  0  0  0  0  0  0  0  0
   -1.8978    1.0564    1.1998 H   0  0  0  0  0  0  0  0  0  0  0  0
   -1.6600    1.0074   -0.5284 H   0  0  0  0  0  0  0  0  0  0  0  0
   -4.3409    1.4893    0.3630 H   0  0  0  0  0  0  0  0  0  0  0  0
   -4.3381    1.3547    2.1309 H   0  0  0  0  0  0  0  0  0  0  0  0
   -6.7481    1.0569    2.2292 H   0  0  0  0  0  0  0  0  0  0  0  0
   -6.3601    2.5268    1.3444 H   0  0  0  0  0  0  0  0  0  0  0  0
   -7.4033   -0.9486   -0.9776 H   0  0  0  0  0  0  0  0  0  0  0  0
   -7.3869   -1.1266    0.7746 H   0  0  0  0  0  0  0  0  0  0  0  0
   -4.9547   -0.5285   -1.0141 H   0  0  0  0  0  0  0  0  0  0  0  0
   -5.3415   -2.0505   -0.1937 H   0  0  0  0  0  0  0  0  0  0  0  0
   -8.1430    1.0801   -2.3921 H   0  0  0  0  0  0  0  0  0  0  0  0
   -7.6831    2.8067   -2.4211 H   0  0  0  0  0  0  0  0  0  0  0  0
   -8.6457    3.1623   -0.1945 H   0  0  0  0  0  0  0  0  0  0  0  0
   -9.8592    2.1074   -0.9695 H   0  0  0  0  0  0  0  0  0  0  0  0
   -1.2260   -2.6327    0.3479 H   0  0  0  0  0  0  0  0  0  0  0  0
   -2.4025   -2.5270   -0.9799 H   0  0  0  0  0  0  0  0  0  0  0  0
   -1.0242   -0.8141   -2.1120 H   0  0  0  0  0  0  0  0  0  0  0  0
   -0.1395   -2.3152   -1.8939 H   0  0  0  0  0  0  0  0  0  0  0  0
    7.1335   -1.8388   -0.5771 H   0  0  0  0  0  0  0  0  0  0  0  0
   10.5246   -0.5565   -1.0529 H   0  0  0  0  0  0  0  0  0  0  0  0
    9.4661   -1.2392    0.1896 H   0  0  0  0  0  0  0  0  0  0  0  0
    9.1686   -1.5719   -1.5581 H   0  0  0  0  0  0  0  0  0  0  0  0
  1  2  1  0
  2  3  1  0
  3  4  2  0
  4  5  1  0
  5  6  2  0
  6  7  1  0
  7  8  1  0
  8  9  1  0
  9 10  1  0
 10 11  2  0
 10 12  1  0
 12 13  1  0
 13 14  1  0
 14 15  1  0
 15 16  1  0
 16 17  2  0
 16 18  2  0
 16 19  1  0
 19 20  1  0
 20 21  1  0
 21 22  1  0
 22 23  1  0
 23 24  1  0
 22 25  1  0
 25 26  1  0
 26 27  1  0
 27 28  1  0
 15 29  1  0
 29 30  1  0
  6 31  1  0
 31 32  2  0
 32 33  1  0
 33 34  1  0
 32  3  1  0
 30 12  1  0
 24 19  1  0
 28 22  1  0
  1 35  1  0
  1 36  1  0
  1 37  1  0
  4 38  1  0
  5 39  1  0
  7 40  1  0
  7 41  1  0
  8 42  1  0
  8 43  1  0
  9 44  1  0
 12 45  1  0
 13 46  1  0
 13 47  1  0
 14 48  1  0
 14 49  1  0
 20 50  1  0
 20 51  1  0
 21 52  1  0
 21 53  1  0
 23 54  1  0
 23 55  1  0
 24 56  1  0
 24 57  1  0
 26 58  1  0
 26 59  1  0
 27 60  1  0
 27 61  1  0
 29 62  1  0
 29 63  1  0
 30 64  1  0
 30 65  1  0
 31 66  1  0
 34 67  1  0
 34 68  1  0
 34 69  1  0
M  END
$$$$
