
     RDKit          3D

 41 42  0  0  0  0  0  0  0  0999 V2000
   -7.5949   -1.8662    2.5311 C   0  0  0  0  0  0  0  0  0  0  0  0
   -6.8596   -0.7265    2.9577 O   0  0  0  0  0  0  0  0  0  0  0  0
   -5.8216   -0.3291    2.1605 C   0  0  0  0  0  0  0  0  0  0  0  0
   -5.0868    0.7511    2.6530 C   0  0  0  0  0  0  0  0  0  0  0  0
   -3.9982    1.2601    1.9402 C   0  0  0  0  0  0  0  0  0  0  0  0
   -3.6320    0.6965    0.7124 C   0  0  0  0  0  0  0  0  0  0  0  0
   -2.4595    1.2432   -0.0668 C   0  0  0  0  0  0  0  0  0  0  0  0
   -1.2012    0.4030    0.0085 C   0  0  0  0  0  0  0  0  0  0  0  0
   -1.1104   -0.7084    0.5142 O   0  0  0  0  0  0  0  0  0  0  0  0
   -0.1955    1.1058   -0.6249 O   0  0  0  0  0  0  0  0  0  0  0  0
    1.0110    0.3842   -0.5589 N   0  0  0  0  0  0  0  0  0  0  0  0
    1.9822    1.0157   -1.1490 C   0  0  0  0  0  0  0  0  0  0  0  0
    1.8216    2.2297   -1.7810 N   0  0  0  0  0  0  0  0  0  0  0  0
    3.3368    0.3721   -1.1508 C   0  0  0  0  0  0  0  0  0  0  0  0
    4.4896    1.1309   -1.3869 C   0  0  0  0  0  0  0  0  0  0  0  0
    5.7507    0.5203   -1.3945 C   0  0  0  0  0  0  0  0  0  0  0  0
    5.8690   -0.8509   -1.1635 C   0  0  0  0  0  0  0  0  0  0  0  0
    7.0340   -1.5663   -1.1461 O   0  0  0  0  0  0  0  0  0  0  0  0
    8.2397   -0.8408   -1.3492 C   0  0  0  0  0  0  0  0  0  0  0  0
    4.7181   -1.6040   -0.9190 C   0  0  0  0  0  0  0  0  0  0  0  0
    3.4581   -0.9995   -0.9077 C   0  0  0  0  0  0  0  0  0  0  0  0
   -4.3695   -0.3897    0.2225 C   0  0  0  0  0  0  0  0  0  0  0  0
   -5.4574   -0.8989    0.9412 C   0  0  0  0  0  0  0  0  0  0  0  0
   -6.9522   -2.7505    2.4654 H   0  0  0  0  0  0  0  0  0  0  0  0
   -8.1026   -1.6740    1.5802 H   0  0  0  0  0  0  0  0  0  0  0  0
   -8.3634   -2.0687    3.2832 H   0  0  0  0  0  0  0  0  0  0  0  0
   -5.3614    1.1966    3.6060 H   0  0  0  0  0  0  0  0  0  0  0  0
   -3.4419    2.0962    2.3574 H   0  0  0  0  0  0  0  0  0  0  0  0
   -2.2211    2.2496    0.2990 H   0  0  0  0  0  0  0  0  0  0  0  0
   -2.7489    1.3368   -1.1206 H   0  0  0  0  0  0  0  0  0  0  0  0
    2.3677    2.3493   -2.6272 H   0  0  0  0  0  0  0  0  0  0  0  0
    0.8440    2.4530   -1.9305 H   0  0  0  0  0  0  0  0  0  0  0  0
    4.4268    2.2042   -1.5416 H   0  0  0  0  0  0  0  0  0  0  0  0
    6.6186    1.1455   -1.5764 H   0  0  0  0  0  0  0  0  0  0  0  0
    8.3866   -0.0909   -0.5649 H   0  0  0  0  0  0  0  0  0  0  0  0
    8.2615   -0.3830   -2.3437 H   0  0  0  0  0  0  0  0  0  0  0  0
    9.0708   -1.5502   -1.2911 H   0  0  0  0  0  0  0  0  0  0  0  0
    4.8015   -2.6719   -0.7304 H   0  0  0  0  0  0  0  0  0  0  0  0
    2.5775   -1.6070   -0.7089 H   0  0  0  0  0  0  0  0  0  0  0  0
   -4.0949   -0.8596   -0.7199 H   0  0  0  0  0  0  0  0  0  0  0  0
   -5.9930   -1.7435    0.5214 H   0  0  0  0  0  0  0  0  0  0  0  0
  1  2  1  0
  2  3  1  0
  3  4  2  0
  4  5  1  0
  5  6  2  0
  6  7  1  0
  7  8  1  0
  8  9  2  0
  8 10  1  0
 10 11  1  0
 11 12  2  3
 12 13  1  0
 12 14  1  0
 14 15  2  0
 15 16  1  0
 16 17  2  0
 17 18  1  0
 18 19  1  0
 17 20  1  0
 20 21  2  0
  6 22  1  0
 22 23  2  0
 23  3  1  0
 21 14  1  0
  1 24  1  0
  1 25  1  0
  1 26  1  0
  4 27  1  0
  5 28  1  0
  7 29  1  0
  7 30  1  0
 13 31  1  0
 13 32  1  0
 15 33  1  0
 16 34  1  0
 19 35  1  0
 19 36  1  0
 19 37  1  0
 20 38  1  0
 21 39  1  0
 22 40  1  0
 23 41  1  0
M  END
$$$$
