
     RDKit          3D

 47 50  0  0  0  0  0  0  0  0999 V2000
    2.1470    1.3524    2.5236 C   0  0  0  0  0  0  0  0  0  0  0  0
    1.4572    0.1616    2.0854 N   0  0  0  0  0  0  0  0  0  0  0  0
    1.9250   -0.7529    1.1592 C   0  0  0  0  0  0  0  0  0  0  0  0
    3.1426   -0.6222    0.3720 C   0  0  0  0  0  0  0  0  0  0  0  0
    3.2940    0.4444   -0.5233 C   0  0  0  0  0  0  0  0  0  0  0  0
    4.4579    0.5670   -1.2843 C   0  0  0  0  0  0  0  0  0  0  0  0
    5.4757   -0.3774   -1.1577 C   0  0  0  0  0  0  0  0  0  0  0  0
    5.3280   -1.4474   -0.2762 C   0  0  0  0  0  0  0  0  0  0  0  0
    4.1634   -1.5717    0.4845 C   0  0  0  0  0  0  0  0  0  0  0  0
    0.9749   -1.7575    1.1677 C   0  0  0  0  0  0  0  0  0  0  0  0
   -0.0636   -1.4618    2.0097 N   0  0  0  0  0  0  0  0  0  0  0  0
    0.2324   -0.2863    2.5093 C   0  0  0  0  0  0  0  0  0  0  0  0
   -0.8250    0.5911    3.5587 S   0  0  0  0  0  0  0  0  0  0  0  0
   -1.5871    1.8137    2.4577 C   0  0  0  0  0  0  0  0  0  0  0  0
   -1.3811    1.5752    0.9651 C   0  0  0  0  0  0  0  0  0  0  0  0
   -0.4231    2.1611    0.4455 O   0  0  0  0  0  0  0  0  0  0  0  0
   -2.2861    0.7331    0.2850 N   0  0  0  0  0  0  0  0  0  0  0  0
   -3.1917   -0.1419    1.0494 C   0  0  0  0  0  0  0  0  0  0  0  0
   -4.3021   -0.7789    0.2354 C   0  0  0  0  0  0  0  0  0  0  0  0
   -3.6845   -1.5554   -0.9048 C   0  0  0  0  0  0  0  0  0  0  0  0
   -2.8307   -0.6287   -1.7239 C   0  0  0  0  0  0  0  0  0  0  0  0
   -2.6821   -0.9134   -3.0949 C   0  0  0  0  0  0  0  0  0  0  0  0
   -1.9183   -0.0898   -3.9122 C   0  0  0  0  0  0  0  0  0  0  0  0
   -1.3016    1.0253   -3.3655 C   0  0  0  0  0  0  0  0  0  0  0  0
   -1.4305    1.3033   -1.9992 C   0  0  0  0  0  0  0  0  0  0  0  0
   -2.1676    0.4737   -1.1387 C   0  0  0  0  0  0  0  0  0  0  0  0
    1.9248    1.5395    3.5772 H   0  0  0  0  0  0  0  0  0  0  0  0
    3.2262    1.2091    2.4269 H   0  0  0  0  0  0  0  0  0  0  0  0
    1.8194    2.1929    1.9081 H   0  0  0  0  0  0  0  0  0  0  0  0
    2.4967    1.1761   -0.6447 H   0  0  0  0  0  0  0  0  0  0  0  0
    4.5653    1.3948   -1.9803 H   0  0  0  0  0  0  0  0  0  0  0  0
    6.3801   -0.2839   -1.7531 H   0  0  0  0  0  0  0  0  0  0  0  0
    6.1176   -2.1889   -0.1843 H   0  0  0  0  0  0  0  0  0  0  0  0
    4.0601   -2.4116    1.1678 H   0  0  0  0  0  0  0  0  0  0  0  0
    0.9789   -2.6686    0.5841 H   0  0  0  0  0  0  0  0  0  0  0  0
   -2.6430    1.9484    2.7025 H   0  0  0  0  0  0  0  0  0  0  0  0
   -1.1230    2.7806    2.6908 H   0  0  0  0  0  0  0  0  0  0  0  0
   -2.5863   -0.9220    1.5208 H   0  0  0  0  0  0  0  0  0  0  0  0
   -3.6671    0.4301    1.8491 H   0  0  0  0  0  0  0  0  0  0  0  0
   -4.8982   -1.4460    0.8680 H   0  0  0  0  0  0  0  0  0  0  0  0
   -4.9770   -0.0037   -0.1497 H   0  0  0  0  0  0  0  0  0  0  0  0
   -3.0662   -2.3806   -0.5314 H   0  0  0  0  0  0  0  0  0  0  0  0
   -4.4864   -1.9854   -1.5165 H   0  0  0  0  0  0  0  0  0  0  0  0
   -3.1720   -1.7820   -3.5300 H   0  0  0  0  0  0  0  0  0  0  0  0
   -1.8131   -0.3116   -4.9705 H   0  0  0  0  0  0  0  0  0  0  0  0
   -0.7149    1.6884   -3.9958 H   0  0  0  0  0  0  0  0  0  0  0  0
   -0.9451    2.2076   -1.6492 H   0  0  0  0  0  0  0  0  0  0  0  0
  1  2  1  0
  2  3  1  0
  3  4  1  0
  4  5  2  0
  5  6  1  0
  6  7  2  0
  7  8  1  0
  8  9  2  0
  3 10  2  0
 10 11  1  0
 11 12  2  0
 12 13  1  0
 13 14  1  0
 14 15  1  0
 15 16  2  0
 15 17  1  0
 17 18  1  0
 18 19  1  0
 19 20  1  0
 20 21  1  0
 21 22  2  0
 22 23  1  0
 23 24  2  0
 24 25  1  0
 25 26  2  0
 12  2  1  0
 26 17  1  0
  9  4  1  0
 26 21  1  0
  1 27  1  0
  1 28  1  0
  1 29  1  0
  5 30  1  0
  6 31  1  0
  7 32  1  0
  8 33  1  0
  9 34  1  0
 10 35  1  0
 14 36  1  0
 14 37  1  0
 18 38  1  0
 18 39  1  0
 19 40  1  0
 19 41  1  0
 20 42  1  0
 20 43  1  0
 22 44  1  0
 23 45  1  0
 24 46  1  0
 25 47  1  0
M  END
$$$$
