
     RDKit          3D

 39 41  0  0  0  0  0  0  0  0999 V2000
   -3.7161   -1.9357    1.6813 O   0  0  0  0  0  0  0  0  0  0  0  0
   -4.5980   -1.3315    1.0977 C   0  0  0  0  0  0  0  0  0  0  0  0
   -5.8680   -1.7817    1.0724 O   0  0  0  0  0  0  0  0  0  0  0  0
   -4.4452   -0.0396    0.3934 C   0  0  0  0  0  0  0  0  0  0  0  0
   -5.4355    0.8897    0.5745 N   0  0  0  0  0  0  0  0  0  0  0  0
   -5.2160    2.0950    0.0022 C   0  0  0  0  0  0  0  0  0  0  0  0
   -4.0574    2.3854   -0.7011 C   0  0  0  0  0  0  0  0  0  0  0  0
   -3.0672    1.4805   -0.8778 N   0  0  0  0  0  0  0  0  0  0  0  0
   -3.2905    0.2496   -0.3164 C   0  0  0  0  0  0  0  0  0  0  0  0
   -2.3058   -0.8105   -0.6375 C   0  0  0  0  0  0  0  0  0  0  0  0
   -2.7364   -1.8391   -1.1588 O   0  0  0  0  0  0  0  0  0  0  0  0
   -0.9492   -0.5837   -0.3954 N   0  0  0  0  0  0  0  0  0  0  0  0
   -0.0237   -1.6922   -0.6489 C   0  0  0  0  0  0  0  0  0  0  0  0
    1.4093   -1.2198   -0.9565 C   0  0  0  0  0  0  0  0  0  0  0  0
    1.8826   -0.2604    0.0747 N   0  0  0  0  0  0  0  0  0  0  0  0
    3.2607    0.0032   -0.0085 C   0  0  0  0  0  0  0  0  0  0  0  0
    4.1739   -1.0406    0.2212 C   0  0  0  0  0  0  0  0  0  0  0  0
    5.5561   -0.8373    0.1594 C   0  0  0  0  0  0  0  0  0  0  0  0
    6.0592    0.4256   -0.1303 C   0  0  0  0  0  0  0  0  0  0  0  0
    5.1790    1.4799   -0.3506 C   0  0  0  0  0  0  0  0  0  0  0  0
    3.7959    1.2697   -0.2852 C   0  0  0  0  0  0  0  0  0  0  0  0
    0.9688    0.8911    0.2288 C   0  0  0  0  0  0  0  0  0  0  0  0
   -0.4527    0.4082    0.5697 C   0  0  0  0  0  0  0  0  0  0  0  0
   -5.8412   -2.6258    1.5675 H   0  0  0  0  0  0  0  0  0  0  0  0
   -6.0022    2.8319    0.1292 H   0  0  0  0  0  0  0  0  0  0  0  0
   -3.8982    3.3600   -1.1505 H   0  0  0  0  0  0  0  0  0  0  0  0
   -0.3877   -2.3063   -1.4798 H   0  0  0  0  0  0  0  0  0  0  0  0
   -0.0264   -2.3207    0.2504 H   0  0  0  0  0  0  0  0  0  0  0  0
    2.0495   -2.1071   -1.0161 H   0  0  0  0  0  0  0  0  0  0  0  0
    1.4276   -0.7298   -1.9391 H   0  0  0  0  0  0  0  0  0  0  0  0
    3.8064   -2.0306    0.4804 H   0  0  0  0  0  0  0  0  0  0  0  0
    6.2335   -1.6658    0.3466 H   0  0  0  0  0  0  0  0  0  0  0  0
    7.1321    0.5891   -0.1784 H   0  0  0  0  0  0  0  0  0  0  0  0
    5.5645    2.4709   -0.5748 H   0  0  0  0  0  0  0  0  0  0  0  0
    3.1510    2.1216   -0.4748 H   0  0  0  0  0  0  0  0  0  0  0  0
    1.3101    1.5466    1.0391 H   0  0  0  0  0  0  0  0  0  0  0  0
    0.9333    1.4724   -0.7017 H   0  0  0  0  0  0  0  0  0  0  0  0
   -1.1189    1.2695    0.6413 H   0  0  0  0  0  0  0  0  0  0  0  0
   -0.4574   -0.0815    1.5518 H   0  0  0  0  0  0  0  0  0  0  0  0
  1  2  2  0
  2  3  1  0
  2  4  1  0
  4  5  2  0
  5  6  1  0
  6  7  2  0
  7  8  1  0
  8  9  2  0
  9 10  1  0
 10 11  2  0
 10 12  1  0
 12 13  1  0
 13 14  1  0
 14 15  1  0
 15 16  1  0
 16 17  2  0
 17 18  1  0
 18 19  2  0
 19 20  1  0
 20 21  2  0
 15 22  1  0
 22 23  1  0
  9  4  1  0
 23 12  1  0
 21 16  1  0
  3 24  1  0
  6 25  1  0
  7 26  1  0
 13 27  1  0
 13 28  1  0
 14 29  1  0
 14 30  1  0
 17 31  1  0
 18 32  1  0
 19 33  1  0
 20 34  1  0
 21 35  1  0
 22 36  1  0
 22 37  1  0
 23 38  1  0
 23 39  1  0
M  END
$$$$
