
     RDKit          3D

 46 49  0  0  0  0  0  0  0  0999 V2000
   -1.0432   -1.5685    4.7133 C   0  0  0  0  0  0  0  0  0  0  0  0
   -1.6276   -1.1180    3.4925 O   0  0  0  0  0  0  0  0  0  0  0  0
   -0.7256   -0.8453    2.5019 C   0  0  0  0  0  0  0  0  0  0  0  0
    0.4887   -0.9665    2.6339 O   0  0  0  0  0  0  0  0  0  0  0  0
   -1.3527   -0.3859    1.2652 C   0  0  0  0  0  0  0  0  0  0  0  0
   -2.6848   -0.2433    1.1112 N   0  0  0  0  0  0  0  0  0  0  0  0
   -2.7953    0.2152   -0.1621 N   0  0  0  0  0  0  0  0  0  0  0  0
   -4.0546    0.5120   -0.7465 C   0  0  0  0  0  0  0  0  0  0  0  0
   -4.1234    0.9977   -2.0605 C   0  0  0  0  0  0  0  0  0  0  0  0
   -5.3638    1.2909   -2.6308 C   0  0  0  0  0  0  0  0  0  0  0  0
   -6.5342    1.1010   -1.8965 C   0  0  0  0  0  0  0  0  0  0  0  0
   -6.4704    0.6175   -0.5898 C   0  0  0  0  0  0  0  0  0  0  0  0
   -5.2341    0.3223   -0.0114 C   0  0  0  0  0  0  0  0  0  0  0  0
   -1.6334    0.3795   -0.8405 N   0  0  0  0  0  0  0  0  0  0  0  0
   -0.7220   -0.0055    0.0604 C   0  0  0  0  0  0  0  0  0  0  0  0
    0.7151    0.0259   -0.2026 C   0  0  0  0  0  0  0  0  0  0  0  0
    1.3840    1.1592   -0.4446 N   0  0  0  0  0  0  0  0  0  0  0  0
    2.6445    0.7091   -0.6582 N   0  0  0  0  0  0  0  0  0  0  0  0
    3.7173    1.5909   -0.9535 C   0  0  0  0  0  0  0  0  0  0  0  0
    3.4900    2.9726   -1.0352 C   0  0  0  0  0  0  0  0  0  0  0  0
    4.5478    3.8364   -1.3260 C   0  0  0  0  0  0  0  0  0  0  0  0
    5.8295    3.3277   -1.5353 C   0  0  0  0  0  0  0  0  0  0  0  0
    6.0598    1.9544   -1.4550 C   0  0  0  0  0  0  0  0  0  0  0  0
    5.0077    1.0834   -1.1647 C   0  0  0  0  0  0  0  0  0  0  0  0
    2.8215   -0.6348   -0.5766 N   0  0  0  0  0  0  0  0  0  0  0  0
    1.5842   -1.0842   -0.2836 C   0  0  0  0  0  0  0  0  0  0  0  0
    1.2567   -2.4966   -0.1077 C   0  0  0  0  0  0  0  0  0  0  0  0
    0.1241   -2.8964    0.1447 O   0  0  0  0  0  0  0  0  0  0  0  0
    2.3372   -3.3214   -0.2572 O   0  0  0  0  0  0  0  0  0  0  0  0
    2.0486   -4.7070   -0.0800 C   0  0  0  0  0  0  0  0  0  0  0  0
   -1.8490   -1.7416    5.4320 H   0  0  0  0  0  0  0  0  0  0  0  0
   -0.5097   -2.5117    4.5579 H   0  0  0  0  0  0  0  0  0  0  0  0
   -0.3735   -0.8062    5.1233 H   0  0  0  0  0  0  0  0  0  0  0  0
   -3.2220    1.1546   -2.6502 H   0  0  0  0  0  0  0  0  0  0  0  0
   -5.4163    1.6684   -3.6490 H   0  0  0  0  0  0  0  0  0  0  0  0
   -7.4982    1.3310   -2.3434 H   0  0  0  0  0  0  0  0  0  0  0  0
   -7.3844    0.4702   -0.0198 H   0  0  0  0  0  0  0  0  0  0  0  0
   -5.2066   -0.0539    1.0095 H   0  0  0  0  0  0  0  0  0  0  0  0
    2.4973    3.3900   -0.8768 H   0  0  0  0  0  0  0  0  0  0  0  0
    4.3708    4.9072   -1.3898 H   0  0  0  0  0  0  0  0  0  0  0  0
    6.6507    4.0032   -1.7620 H   0  0  0  0  0  0  0  0  0  0  0  0
    7.0599    1.5607   -1.6187 H   0  0  0  0  0  0  0  0  0  0  0  0
    5.2090    0.0153   -1.1068 H   0  0  0  0  0  0  0  0  0  0  0  0
    2.9796   -5.2666   -0.2060 H   0  0  0  0  0  0  0  0  0  0  0  0
    1.6665   -4.8939    0.9287 H   0  0  0  0  0  0  0  0  0  0  0  0
    1.3343   -5.0489   -0.8352 H   0  0  0  0  0  0  0  0  0  0  0  0
  1  2  1  0
  2  3  1  0
  3  4  2  0
  3  5  1  0
  5  6  2  0
  6  7  1  0
  7  8  1  0
  8  9  2  0
  9 10  1  0
 10 11  2  0
 11 12  1  0
 12 13  2  0
  7 14  1  0
 14 15  2  0
 15 16  1  0
 16 17  2  0
 17 18  1  0
 18 19  1  0
 19 20  2  0
 20 21  1  0
 21 22  2  0
 22 23  1  0
 23 24  2  0
 18 25  1  0
 25 26  2  0
 26 27  1  0
 27 28  2  0
 27 29  1  0
 29 30  1  0
 15  5  1  0
 26 16  1  0
 13  8  1  0
 24 19  1  0
  1 31  1  0
  1 32  1  0
  1 33  1  0
  9 34  1  0
 10 35  1  0
 11 36  1  0
 12 37  1  0
 13 38  1  0
 20 39  1  0
 21 40  1  0
 22 41  1  0
 23 42  1  0
 24 43  1  0
 30 44  1  0
 30 45  1  0
 30 46  1  0
M  END
$$$$
