
     RDKit          3D

 52 55  0  0  0  0  0  0  0  0999 V2000
    7.0358    2.6598   -0.7609 C   0  0  0  0  0  0  0  0  0  0  0  0
    6.1451    2.3074   -1.9423 C   0  0  0  0  0  0  0  0  0  0  0  0
    4.8651    1.6437   -1.5011 C   0  0  0  0  0  0  0  0  0  0  0  0
    3.7431    2.4144   -1.1739 C   0  0  0  0  0  0  0  0  0  0  0  0
    2.5624    1.8006   -0.7484 C   0  0  0  0  0  0  0  0  0  0  0  0
    2.4891    0.4075   -0.6410 C   0  0  0  0  0  0  0  0  0  0  0  0
    1.2227   -0.2113   -0.1848 C   0  0  0  0  0  0  0  0  0  0  0  0
    0.2003    0.4793    0.2213 N   0  0  0  0  0  0  0  0  0  0  0  0
   -0.7883   -0.4084    0.5384 N   0  0  0  0  0  0  0  0  0  0  0  0
   -1.9607    0.0215    1.1568 C   0  0  0  0  0  0  0  0  0  0  0  0
   -2.9779   -0.8662    1.5466 C   0  0  0  0  0  0  0  0  0  0  0  0
   -4.1483   -0.4168    2.1709 C   0  0  0  0  0  0  0  0  0  0  0  0
   -4.3159    0.9437    2.4218 C   0  0  0  0  0  0  0  0  0  0  0  0
   -5.7924    1.5140    3.2159 S   0  0  0  0  0  6  0  0  0  0  0  0
   -5.3384    1.4603    4.8384 N   0  0  0  0  0  0  0  0  0  0  0  0
   -6.8334    0.5338    3.0164 O   0  0  0  0  0  0  0  0  0  0  0  0
   -5.9720    2.9143    2.9086 O   0  0  0  0  0  0  0  0  0  0  0  0
   -3.3385    1.8562    2.0357 C   0  0  0  0  0  0  0  0  0  0  0  0
   -2.1750    1.3893    1.4153 C   0  0  0  0  0  0  0  0  0  0  0  0
   -0.4467   -1.7913    0.1986 C   0  0  0  0  0  0  0  0  0  0  0  0
   -1.2326   -2.3362   -0.9874 C   0  0  0  0  0  0  0  0  0  0  0  0
   -1.5490   -3.7065   -1.0343 C   0  0  0  0  0  0  0  0  0  0  0  0
   -2.2477   -4.2370   -2.1205 C   0  0  0  0  0  0  0  0  0  0  0  0
   -2.6279   -3.4044   -3.1656 C   0  0  0  0  0  0  0  0  0  0  0  0
   -3.2971   -3.9173   -4.2064 F   0  0  0  0  0  0  0  0  0  0  0  0
   -2.3214   -2.0504   -3.1473 C   0  0  0  0  0  0  0  0  0  0  0  0
   -1.6222   -1.5174   -2.0632 C   0  0  0  0  0  0  0  0  0  0  0  0
    1.0455   -1.7036   -0.1272 C   0  0  0  0  0  0  0  0  0  0  0  0
    3.6089   -0.3670   -0.9595 C   0  0  0  0  0  0  0  0  0  0  0  0
    4.7898    0.2497   -1.3851 C   0  0  0  0  0  0  0  0  0  0  0  0
    7.9569    3.1366   -1.1104 H   0  0  0  0  0  0  0  0  0  0  0  0
    7.3113    1.7667   -0.1900 H   0  0  0  0  0  0  0  0  0  0  0  0
    6.5334    3.3528   -0.0776 H   0  0  0  0  0  0  0  0  0  0  0  0
    5.9116    3.2139   -2.5141 H   0  0  0  0  0  0  0  0  0  0  0  0
    6.6862    1.6463   -2.6302 H   0  0  0  0  0  0  0  0  0  0  0  0
    3.7800    3.4994   -1.2471 H   0  0  0  0  0  0  0  0  0  0  0  0
    1.7018    2.4189   -0.5012 H   0  0  0  0  0  0  0  0  0  0  0  0
   -2.8859   -1.9328    1.3635 H   0  0  0  0  0  0  0  0  0  0  0  0
   -4.9186   -1.1335    2.4488 H   0  0  0  0  0  0  0  0  0  0  0  0
   -5.3382    2.4124    5.2083 H   0  0  0  0  0  0  0  0  0  0  0  0
   -4.4423    0.9967    4.9858 H   0  0  0  0  0  0  0  0  0  0  0  0
   -3.4652    2.9230    2.2030 H   0  0  0  0  0  0  0  0  0  0  0  0
   -1.4186    2.1140    1.1185 H   0  0  0  0  0  0  0  0  0  0  0  0
   -0.5889   -2.4435    1.0698 H   0  0  0  0  0  0  0  0  0  0  0  0
   -1.2558   -4.3707   -0.2239 H   0  0  0  0  0  0  0  0  0  0  0  0
   -2.4984   -5.2924   -2.1592 H   0  0  0  0  0  0  0  0  0  0  0  0
   -2.6297   -1.4162   -3.9725 H   0  0  0  0  0  0  0  0  0  0  0  0
   -1.3910   -0.4526   -2.0565 H   0  0  0  0  0  0  0  0  0  0  0  0
    1.3300   -2.1893   -1.0645 H   0  0  0  0  0  0  0  0  0  0  0  0
    1.6502   -2.0968    0.6971 H   0  0  0  0  0  0  0  0  0  0  0  0
    3.5936   -1.4492   -0.8791 H   0  0  0  0  0  0  0  0  0  0  0  0
    5.6551   -0.3656   -1.6232 H   0  0  0  0  0  0  0  0  0  0  0  0
  1  2  1  0
  2  3  1  0
  3  4  2  0
  4  5  1  0
  5  6  2  0
  6  7  1  0
  7  8  2  0
  8  9  1  0
  9 10  1  0
 10 11  2  0
 11 12  1  0
 12 13  2  0
 13 14  1  0
 14 15  1  0
 14 16  2  0
 14 17  2  0
 13 18  1  0
 18 19  2  0
  9 20  1  0
 20 21  1  0
 21 22  2  0
 22 23  1  0
 23 24  2  0
 24 25  1  0
 24 26  1  0
 26 27  2  0
 20 28  1  0
  6 29  1  0
 29 30  2  0
 30  3  1  0
 28  7  1  0
 19 10  1  0
 27 21  1  0
  1 31  1  0
  1 32  1  0
  1 33  1  0
  2 34  1  0
  2 35  1  0
  4 36  1  0
  5 37  1  0
 11 38  1  0
 12 39  1  0
 15 40  1  0
 15 41  1  0
 18 42  1  0
 19 43  1  0
 20 44  1  0
 22 45  1  0
 23 46  1  0
 26 47  1  0
 27 48  1  0
 28 49  1  0
 28 50  1  0
 29 51  1  0
 30 52  1  0
M  END
$$$$
