
     RDKit          3D

 48 50  0  0  0  0  0  0  0  0999 V2000
    8.1160    0.3561    1.7609 C   0  0  0  0  0  0  0  0  0  0  0  0
    6.9238    1.2533    1.4669 C   0  0  0  0  0  0  0  0  0  0  0  0
    5.9127    0.6287    0.5065 C   0  0  0  0  0  0  0  0  0  0  0  0
    5.2306   -0.6190    1.0661 C   0  0  0  0  0  0  0  0  0  0  0  0
    4.2496   -1.1035    0.1476 O   0  0  0  0  0  0  0  0  0  0  0  0
    2.9588   -0.6789    0.2835 C   0  0  0  0  0  0  0  0  0  0  0  0
    2.0346   -1.3612   -0.5067 C   0  0  0  0  0  0  0  0  0  0  0  0
    0.6749   -1.0282   -0.4734 C   0  0  0  0  0  0  0  0  0  0  0  0
    0.2022   -0.0123    0.3605 C   0  0  0  0  0  0  0  0  0  0  0  0
   -1.1451    0.4002    0.3992 N   0  0  0  0  0  0  0  0  0  0  0  0
   -2.2558   -0.3194    0.0435 C   0  0  0  0  0  0  0  0  0  0  0  0
   -2.2977   -1.5592   -0.3063 N   0  0  0  0  0  0  0  0  0  0  0  0
   -3.5122   -2.1178   -0.5413 C   0  0  0  0  0  0  0  0  0  0  0  0
   -3.5383   -3.4685   -0.6506 N   0  0  0  0  0  0  0  0  0  0  0  0
   -4.6122   -1.4690   -0.6990 N   0  0  0  0  0  0  0  0  0  0  0  0
   -4.5161   -0.0248   -0.5980 C   0  0  0  0  0  0  0  0  0  0  0  0
   -5.7967    0.5111    0.0490 C   0  0  0  0  0  0  0  0  0  0  0  0
   -6.8456    0.4882   -1.0614 C   0  0  0  0  0  0  0  0  0  0  0  0
   -6.0741    0.5126   -2.3797 C   0  0  0  0  0  0  0  0  0  0  0  0
   -4.5958    0.5835   -2.0048 C   0  0  0  0  0  0  0  0  0  0  0  0
   -3.3663    0.4614    0.1151 N   0  0  0  0  0  0  0  0  0  0  0  0
    1.1477    0.6908    1.1242 C   0  0  0  0  0  0  0  0  0  0  0  0
    2.5099    0.3590    1.0940 C   0  0  0  0  0  0  0  0  0  0  0  0
    7.8165   -0.5417    2.3095 H   0  0  0  0  0  0  0  0  0  0  0  0
    8.8463    0.8917    2.3760 H   0  0  0  0  0  0  0  0  0  0  0  0
    8.6134    0.0478    0.8359 H   0  0  0  0  0  0  0  0  0  0  0  0
    7.2910    2.1877    1.0261 H   0  0  0  0  0  0  0  0  0  0  0  0
    6.4278    1.5203    2.4073 H   0  0  0  0  0  0  0  0  0  0  0  0
    5.1568    1.3817    0.2543 H   0  0  0  0  0  0  0  0  0  0  0  0
    6.4000    0.3785   -0.4443 H   0  0  0  0  0  0  0  0  0  0  0  0
    4.8219   -0.4653    2.0715 H   0  0  0  0  0  0  0  0  0  0  0  0
    5.9704   -1.4214    1.1631 H   0  0  0  0  0  0  0  0  0  0  0  0
    2.3713   -2.1617   -1.1609 H   0  0  0  0  0  0  0  0  0  0  0  0
   -0.0018   -1.5759   -1.1225 H   0  0  0  0  0  0  0  0  0  0  0  0
   -1.3300    1.0713    1.1315 H   0  0  0  0  0  0  0  0  0  0  0  0
   -4.3243   -3.7921   -1.1961 H   0  0  0  0  0  0  0  0  0  0  0  0
   -2.6422   -3.8442   -0.9271 H   0  0  0  0  0  0  0  0  0  0  0  0
   -6.1158   -0.0779    0.9159 H   0  0  0  0  0  0  0  0  0  0  0  0
   -5.6596    1.5457    0.3904 H   0  0  0  0  0  0  0  0  0  0  0  0
   -7.5298    1.3386   -0.9761 H   0  0  0  0  0  0  0  0  0  0  0  0
   -7.4499   -0.4242   -0.9999 H   0  0  0  0  0  0  0  0  0  0  0  0
   -6.3671    1.3600   -3.0076 H   0  0  0  0  0  0  0  0  0  0  0  0
   -6.2803   -0.4018   -2.9480 H   0  0  0  0  0  0  0  0  0  0  0  0
   -3.9702    0.0590   -2.7354 H   0  0  0  0  0  0  0  0  0  0  0  0
   -4.2783    1.6345   -1.9982 H   0  0  0  0  0  0  0  0  0  0  0  0
   -3.1931    1.4471   -0.0284 H   0  0  0  0  0  0  0  0  0  0  0  0
    0.8337    1.5133    1.7623 H   0  0  0  0  0  0  0  0  0  0  0  0
    3.1880    0.9437    1.7053 H   0  0  0  0  0  0  0  0  0  0  0  0
  1  2  1  0
  2  3  1  0
  3  4  1  0
  4  5  1  0
  5  6  1  0
  6  7  2  0
  7  8  1  0
  8  9  2  0
  9 10  1  0
 10 11  1  0
 11 12  2  0
 12 13  1  0
 13 14  1  0
 13 15  2  0
 15 16  1  0
 16 17  1  0
 17 18  1  0
 18 19  1  0
 19 20  1  0
 16 21  1  0
  9 22  1  0
 22 23  2  0
 23  6  1  0
 21 11  1  0
 20 16  1  0
  1 24  1  0
  1 25  1  0
  1 26  1  0
  2 27  1  0
  2 28  1  0
  3 29  1  0
  3 30  1  0
  4 31  1  0
  4 32  1  0
  7 33  1  0
  8 34  1  0
 10 35  1  0
 14 36  1  0
 14 37  1  0
 17 38  1  0
 17 39  1  0
 18 40  1  0
 18 41  1  0
 19 42  1  0
 19 43  1  0
 20 44  1  0
 20 45  1  0
 21 46  1  0
 22 47  1  0
 23 48  1  0
M  END
$$$$
