
     RDKit          3D

 43 45  0  0  0  0  0  0  0  0999 V2000
    3.5345   -2.5149    3.0005 C   0  0  0  0  0  0  0  0  0  0  0  0
    2.8222   -1.2594    2.7618 N   0  0  0  0  0  0  0  0  0  0  0  0
    1.3753   -1.4290    3.0331 C   0  0  0  0  0  0  0  0  0  0  0  0
    0.5944   -0.1279    2.7713 C   0  0  0  0  0  0  0  0  0  0  0  0
    0.8270    0.3619    1.4138 N   0  0  0  0  0  0  0  0  0  0  0  0
   -0.2330    0.4273    0.5263 C   0  0  0  0  0  0  0  0  0  0  0  0
   -1.3868    0.0969    0.7691 O   0  0  0  0  0  0  0  0  0  0  0  0
    0.0571    0.9460   -0.8705 C   0  0  0  0  0  0  0  0  0  0  0  0
    0.2020    2.4419   -0.9986 C   0  0  0  0  0  0  0  0  0  0  0  0
   -1.1486    3.0869   -0.9692 C   0  0  0  0  0  0  0  0  0  0  0  0
   -2.2096    2.8987   -1.8346 C   0  0  0  0  0  0  0  0  0  0  0  0
   -3.3394    3.6929   -1.4865 C   0  0  0  0  0  0  0  0  0  0  0  0
   -3.1034    4.4638   -0.3710 C   0  0  0  0  0  0  0  0  0  0  0  0
   -1.5269    4.2324    0.2475 S   0  0  0  0  0  0  0  0  0  0  0  0
    0.1493    0.1846   -1.9215 N   0  0  0  0  0  0  0  0  0  0  0  0
   -0.0402   -1.1592   -1.7139 C   0  0  0  0  0  0  0  0  0  0  0  0
    0.7241   -1.8491   -1.0478 O   0  0  0  0  0  0  0  0  0  0  0  0
   -1.2128   -1.6668   -2.3988 C   0  0  0  0  0  0  0  0  0  0  0  0
   -1.7450   -2.9438   -2.4443 C   0  0  0  0  0  0  0  0  0  0  0  0
   -2.9056   -2.8780   -3.2518 C   0  0  0  0  0  0  0  0  0  0  0  0
   -3.0151   -1.5694   -3.6557 C   0  0  0  0  0  0  0  0  0  0  0  0
   -1.9992   -0.8266   -3.1481 O   0  0  0  0  0  0  0  0  0  0  0  0
    2.2438    0.4862    1.0552 C   0  0  0  0  0  0  0  0  0  0  0  0
    3.0183   -0.8131    1.3644 C   0  0  0  0  0  0  0  0  0  0  0  0
    3.4191   -2.8273    4.0444 H   0  0  0  0  0  0  0  0  0  0  0  0
    3.1741   -3.3252    2.3566 H   0  0  0  0  0  0  0  0  0  0  0  0
    4.6082   -2.3867    2.8256 H   0  0  0  0  0  0  0  0  0  0  0  0
    0.9610   -2.2307    2.4069 H   0  0  0  0  0  0  0  0  0  0  0  0
    1.2292   -1.7148    4.0811 H   0  0  0  0  0  0  0  0  0  0  0  0
   -0.4727   -0.2917    2.9545 H   0  0  0  0  0  0  0  0  0  0  0  0
    0.9292    0.6568    3.4606 H   0  0  0  0  0  0  0  0  0  0  0  0
    0.6961    2.6743   -1.9494 H   0  0  0  0  0  0  0  0  0  0  0  0
    0.8523    2.8101   -0.1985 H   0  0  0  0  0  0  0  0  0  0  0  0
   -2.1824    2.2112   -2.6737 H   0  0  0  0  0  0  0  0  0  0  0  0
   -4.2804    3.6939   -2.0233 H   0  0  0  0  0  0  0  0  0  0  0  0
   -3.7812    5.1540    0.1126 H   0  0  0  0  0  0  0  0  0  0  0  0
   -1.3359   -3.8111   -1.9437 H   0  0  0  0  0  0  0  0  0  0  0  0
   -3.5790   -3.6842   -3.5069 H   0  0  0  0  0  0  0  0  0  0  0  0
   -3.7217   -1.0336   -4.2738 H   0  0  0  0  0  0  0  0  0  0  0  0
    2.6524    1.3146    1.6461 H   0  0  0  0  0  0  0  0  0  0  0  0
    2.3685    0.7374   -0.0007 H   0  0  0  0  0  0  0  0  0  0  0  0
    4.0836   -0.6307    1.1813 H   0  0  0  0  0  0  0  0  0  0  0  0
    2.6972   -1.5989    0.6694 H   0  0  0  0  0  0  0  0  0  0  0  0
  1  2  1  0
  2  3  1  0
  3  4  1  0
  4  5  1  0
  5  6  1  0
  6  7  2  0
  6  8  1  0
  8  9  1  0
  9 10  1  0
 10 11  2  0
 11 12  1  0
 12 13  2  0
 13 14  1  0
  8 15  2  3
 15 16  1  0
 16 17  2  0
 16 18  1  0
 18 19  2  0
 19 20  1  0
 20 21  2  0
 21 22  1  0
  5 23  1  0
 23 24  1  0
 24  2  1  0
 14 10  1  0
 22 18  1  0
  1 25  1  0
  1 26  1  0
  1 27  1  0
  3 28  1  0
  3 29  1  0
  4 30  1  0
  4 31  1  0
  9 32  1  0
  9 33  1  0
 11 34  1  0
 12 35  1  0
 13 36  1  0
 19 37  1  0
 20 38  1  0
 21 39  1  0
 23 40  1  0
 23 41  1  0
 24 42  1  0
 24 43  1  0
M  END
$$$$
