
     RDKit          3D

 53 56  0  0  0  0  0  0  0  0999 V2000
   -0.4101   -3.8047   -1.2650 C   0  0  0  0  0  0  0  0  0  0  0  0
   -0.8888   -2.5759   -1.9921 C   0  0  0  0  0  0  0  0  0  0  0  0
   -0.4157   -2.2397   -3.0774 O   0  0  0  0  0  0  0  0  0  0  0  0
   -1.9508   -1.7724   -1.3407 C   0  0  0  0  0  0  0  0  0  0  0  0
   -1.5901   -0.8914   -0.3800 C   0  0  0  0  0  0  0  0  0  0  0  0
   -0.2591   -0.6715   -0.0127 N   0  0  0  0  0  0  0  0  0  0  0  0
    0.1222   -0.4987    1.4068 C   0  0  0  0  0  0  0  0  0  0  0  0
    1.6209   -0.8127    1.6083 C   0  0  0  0  0  0  0  0  0  0  0  0
    2.4941    0.0203    0.7531 N   0  0  0  0  0  0  0  0  0  0  0  0
    3.9059   -0.3448    0.9624 C   0  0  0  0  0  0  0  0  0  0  0  0
    4.8747    0.6185    0.3102 C   0  0  0  0  0  0  0  0  0  0  0  0
    4.8875    1.9727    0.6774 C   0  0  0  0  0  0  0  0  0  0  0  0
    5.7849    2.8610    0.0831 C   0  0  0  0  0  0  0  0  0  0  0  0
    6.6800    2.4055   -0.8828 C   0  0  0  0  0  0  0  0  0  0  0  0
    6.6787    1.0624   -1.2552 C   0  0  0  0  0  0  0  0  0  0  0  0
    5.7817    0.1720   -0.6617 C   0  0  0  0  0  0  0  0  0  0  0  0
    2.0962   -0.1607   -0.6650 C   0  0  0  0  0  0  0  0  0  0  0  0
    0.6042    0.1557   -0.9017 C   0  0  0  0  0  0  0  0  0  0  0  0
   -2.5929   -0.1990    0.2561 N   0  0  0  0  0  0  0  0  0  0  0  0
   -3.9024   -0.2656   -0.1451 C   0  0  0  0  0  0  0  0  0  0  0  0
   -4.9109    0.6524    0.4727 C   0  0  0  0  0  0  0  0  0  0  0  0
   -6.0866    0.9539   -0.2263 C   0  0  0  0  0  0  0  0  0  0  0  0
   -7.0341    1.8150    0.3302 C   0  0  0  0  0  0  0  0  0  0  0  0
   -6.8151    2.3729    1.5888 C   0  0  0  0  0  0  0  0  0  0  0  0
   -5.6527    2.0668    2.2959 C   0  0  0  0  0  0  0  0  0  0  0  0
   -4.7010    1.2063    1.7423 C   0  0  0  0  0  0  0  0  0  0  0  0
   -4.3062   -1.0966   -1.0587 N   0  0  0  0  0  0  0  0  0  0  0  0
   -3.4061   -1.9683   -1.6479 C   0  0  0  0  0  0  0  0  0  0  0  0
   -3.9810   -3.2005   -2.6594 S   0  0  0  0  0  0  0  0  0  0  0  0
   -0.4930   -4.6697   -1.9283 H   0  0  0  0  0  0  0  0  0  0  0  0
    0.6305   -3.6612   -0.9625 H   0  0  0  0  0  0  0  0  0  0  0  0
   -1.0130   -3.9961   -0.3728 H   0  0  0  0  0  0  0  0  0  0  0  0
   -0.0950    0.5272    1.7301 H   0  0  0  0  0  0  0  0  0  0  0  0
   -0.4643   -1.1795    2.0356 H   0  0  0  0  0  0  0  0  0  0  0  0
    1.8652   -0.6367    2.6627 H   0  0  0  0  0  0  0  0  0  0  0  0
    1.7923   -1.8782    1.4029 H   0  0  0  0  0  0  0  0  0  0  0  0
    4.0971   -1.3707    0.6204 H   0  0  0  0  0  0  0  0  0  0  0  0
    4.1353   -0.3342    2.0367 H   0  0  0  0  0  0  0  0  0  0  0  0
    4.1875    2.3380    1.4257 H   0  0  0  0  0  0  0  0  0  0  0  0
    5.7831    3.9085    0.3724 H   0  0  0  0  0  0  0  0  0  0  0  0
    7.3776    3.0977   -1.3466 H   0  0  0  0  0  0  0  0  0  0  0  0
    7.3761    0.7079   -2.0097 H   0  0  0  0  0  0  0  0  0  0  0  0
    5.7935   -0.8718   -0.9664 H   0  0  0  0  0  0  0  0  0  0  0  0
    2.6806    0.5054   -1.3097 H   0  0  0  0  0  0  0  0  0  0  0  0
    2.2955   -1.1920   -0.9862 H   0  0  0  0  0  0  0  0  0  0  0  0
    0.3680   -0.0199   -1.9563 H   0  0  0  0  0  0  0  0  0  0  0  0
    0.4098    1.2176   -0.7020 H   0  0  0  0  0  0  0  0  0  0  0  0
   -2.2703    0.6131    0.7639 H   0  0  0  0  0  0  0  0  0  0  0  0
   -6.2696    0.5223   -1.2084 H   0  0  0  0  0  0  0  0  0  0  0  0
   -7.9438    2.0462   -0.2186 H   0  0  0  0  0  0  0  0  0  0  0  0
   -7.5562    3.0404    2.0221 H   0  0  0  0  0  0  0  0  0  0  0  0
   -5.4934    2.4925    3.2837 H   0  0  0  0  0  0  0  0  0  0  0  0
   -3.8208    0.9601    2.3277 H   0  0  0  0  0  0  0  0  0  0  0  0
  1  2  1  0
  2  3  2  0
  2  4  1  0
  4  5  2  0
  5  6  1  0
  6  7  1  0
  7  8  1  0
  8  9  1  0
  9 10  1  0
 10 11  1  0
 11 12  2  0
 12 13  1  0
 13 14  2  0
 14 15  1  0
 15 16  2  0
  9 17  1  0
 17 18  1  0
  5 19  1  0
 19 20  1  0
 20 21  1  0
 21 22  2  0
 22 23  1  0
 23 24  2  0
 24 25  1  0
 25 26  2  0
 20 27  2  0
 27 28  1  0
 28 29  2  0
 28  4  1  0
 18  6  1  0
 26 21  1  0
 16 11  1  0
  1 30  1  0
  1 31  1  0
  1 32  1  0
  7 33  1  0
  7 34  1  0
  8 35  1  0
  8 36  1  0
 10 37  1  0
 10 38  1  0
 12 39  1  0
 13 40  1  0
 14 41  1  0
 15 42  1  0
 16 43  1  0
 17 44  1  0
 17 45  1  0
 18 46  1  0
 18 47  1  0
 19 48  1  0
 22 49  1  0
 23 50  1  0
 24 51  1  0
 25 52  1  0
 26 53  1  0
M  END
$$$$
