
     RDKit          3D

 46 47  0  0  0  0  0  0  0  0999 V2000
    6.6579   -0.5575    2.2664 O   0  0  0  0  0  0  0  0  0  0  0  0
    6.4968   -1.7284    1.9656 C   0  0  0  0  0  0  0  0  0  0  0  0
    6.7922   -2.7122    2.8360 O   0  0  0  0  0  0  0  0  0  0  0  0
    6.0329   -2.2630    0.6390 C   0  0  0  0  0  0  0  0  0  0  0  0
    5.3683   -1.1655   -0.1845 C   0  0  0  0  0  0  0  0  0  0  0  0
    4.0070   -0.7791    0.3740 C   0  0  0  0  0  0  0  0  0  0  0  0
    3.4339   -1.4673    1.2109 O   0  0  0  0  0  0  0  0  0  0  0  0
    3.5218    0.3767   -0.2163 N   0  0  0  0  0  0  0  0  0  0  0  0
    2.2990    1.0277    0.0469 C   0  0  0  0  0  0  0  0  0  0  0  0
    2.0152    2.1787   -0.7029 C   0  0  0  0  0  0  0  0  0  0  0  0
    0.8235    2.8837   -0.5097 C   0  0  0  0  0  0  0  0  0  0  0  0
   -0.0952    2.4323    0.4389 C   0  0  0  0  0  0  0  0  0  0  0  0
   -1.6005    3.3379    0.7005 S   0  0  0  0  0  6  0  0  0  0  0  0
   -2.1227    2.9893    2.0021 O   0  0  0  0  0  0  0  0  0  0  0  0
   -1.3629    4.7115    0.3141 O   0  0  0  0  0  0  0  0  0  0  0  0
   -2.6198    2.6945   -0.4640 N   0  0  0  0  0  0  0  0  0  0  0  0
   -2.9390    1.2637   -0.4468 C   0  0  0  0  0  0  0  0  0  0  0  0
   -4.3273    1.0464   -1.0519 C   0  0  0  0  0  0  0  0  0  0  0  0
   -4.6976   -0.4149   -1.0859 C   0  0  0  0  0  0  0  0  0  0  0  0
   -5.2889   -1.0217    0.0307 C   0  0  0  0  0  0  0  0  0  0  0  0
   -5.6121   -2.3790    0.0089 C   0  0  0  0  0  0  0  0  0  0  0  0
   -5.3457   -3.1419   -1.1264 C   0  0  0  0  0  0  0  0  0  0  0  0
   -4.7545   -2.5490   -2.2406 C   0  0  0  0  0  0  0  0  0  0  0  0
   -4.4291   -1.1920   -2.2209 C   0  0  0  0  0  0  0  0  0  0  0  0
    0.1825    1.3024    1.2091 C   0  0  0  0  0  0  0  0  0  0  0  0
    1.3751    0.5994    1.0047 C   0  0  0  0  0  0  0  0  0  0  0  0
    7.0548   -2.2399    3.6538 H   0  0  0  0  0  0  0  0  0  0  0  0
    5.3432   -3.0970    0.8086 H   0  0  0  0  0  0  0  0  0  0  0  0
    6.9132   -2.6394    0.1071 H   0  0  0  0  0  0  0  0  0  0  0  0
    6.0073   -0.2761   -0.2354 H   0  0  0  0  0  0  0  0  0  0  0  0
    5.2104   -1.5283   -1.2071 H   0  0  0  0  0  0  0  0  0  0  0  0
    4.1181    0.8170   -0.9058 H   0  0  0  0  0  0  0  0  0  0  0  0
    2.7190    2.5463   -1.4459 H   0  0  0  0  0  0  0  0  0  0  0  0
    0.6256    3.7800   -1.0939 H   0  0  0  0  0  0  0  0  0  0  0  0
   -2.6016    3.1890   -1.3539 H   0  0  0  0  0  0  0  0  0  0  0  0
   -2.9193    0.8737    0.5765 H   0  0  0  0  0  0  0  0  0  0  0  0
   -2.1840    0.7254   -1.0307 H   0  0  0  0  0  0  0  0  0  0  0  0
   -5.0813    1.6027   -0.4795 H   0  0  0  0  0  0  0  0  0  0  0  0
   -4.3665    1.4602   -2.0680 H   0  0  0  0  0  0  0  0  0  0  0  0
   -5.5031   -0.4394    0.9250 H   0  0  0  0  0  0  0  0  0  0  0  0
   -6.0726   -2.8413    0.8783 H   0  0  0  0  0  0  0  0  0  0  0  0
   -5.5995   -4.1984   -1.1436 H   0  0  0  0  0  0  0  0  0  0  0  0
   -4.5480   -3.1442   -3.1265 H   0  0  0  0  0  0  0  0  0  0  0  0
   -3.9674   -0.7465   -3.0990 H   0  0  0  0  0  0  0  0  0  0  0  0
   -0.5155    0.9596    1.9705 H   0  0  0  0  0  0  0  0  0  0  0  0
    1.5565   -0.2755    1.6221 H   0  0  0  0  0  0  0  0  0  0  0  0
  1  2  2  0
  2  3  1  0
  2  4  1  0
  4  5  1  0
  5  6  1  0
  6  7  2  0
  6  8  1  0
  8  9  1  0
  9 10  2  0
 10 11  1  0
 11 12  2  0
 12 13  1  0
 13 14  2  0
 13 15  2  0
 13 16  1  0
 16 17  1  0
 17 18  1  0
 18 19  1  0
 19 20  2  0
 20 21  1  0
 21 22  2  0
 22 23  1  0
 23 24  2  0
 12 25  1  0
 25 26  2  0
 26  9  1  0
 24 19  1  0
  3 27  1  0
  4 28  1  0
  4 29  1  0
  5 30  1  0
  5 31  1  0
  8 32  1  0
 10 33  1  0
 11 34  1  0
 16 35  1  0
 17 36  1  0
 17 37  1  0
 18 38  1  0
 18 39  1  0
 20 40  1  0
 21 41  1  0
 22 42  1  0
 23 43  1  0
 24 44  1  0
 25 45  1  0
 26 46  1  0
M  END
$$$$
