
     RDKit          3D

 53 55  0  0  0  0  0  0  0  0999 V2000
   -2.2574    0.8334    1.4422 O   0  0  0  0  0  0  0  0  0  0  0  0
   -1.6143    0.2080    0.6069 C   0  0  0  0  0  0  0  0  0  0  0  0
   -2.1250   -0.1298   -0.6243 N   0  0  0  0  0  0  0  0  0  0  0  0
   -3.4962    0.2303   -1.0111 C   0  0  0  0  0  0  0  0  0  0  0  0
   -4.5042   -0.7778   -0.4443 C   0  0  0  0  0  0  0  0  0  0  0  0
   -5.9422   -0.3394   -0.5837 C   0  0  0  0  0  0  0  0  0  0  0  0
   -6.4495    0.6812    0.2324 C   0  0  0  0  0  0  0  0  0  0  0  0
   -7.7748    1.0975    0.1016 C   0  0  0  0  0  0  0  0  0  0  0  0
   -8.6046    0.4979   -0.8438 C   0  0  0  0  0  0  0  0  0  0  0  0
   -8.1106   -0.5196   -1.6581 C   0  0  0  0  0  0  0  0  0  0  0  0
   -6.7852   -0.9379   -1.5295 C   0  0  0  0  0  0  0  0  0  0  0  0
   -3.5340    0.2251   -2.5351 C   0  0  0  0  0  0  0  0  0  0  0  0
   -2.8764   -0.5118   -3.2588 O   0  0  0  0  0  0  0  0  0  0  0  0
   -4.3688    1.1378   -3.0643 O   0  0  0  0  0  0  0  0  0  0  0  0
   -0.2076   -0.1967    0.8882 C   0  0  0  0  0  0  0  0  0  0  0  0
    0.4032   -1.2855    0.2476 C   0  0  0  0  0  0  0  0  0  0  0  0
    1.7256   -1.6264    0.5491 C   0  0  0  0  0  0  0  0  0  0  0  0
    2.4320   -0.8783    1.4948 C   0  0  0  0  0  0  0  0  0  0  0  0
    4.1108   -1.3008    1.8970 S   0  0  0  0  0  6  0  0  0  0  0  0
    4.2040   -1.3356    3.3406 O   0  0  0  0  0  0  0  0  0  0  0  0
    4.5011   -2.4384    1.0905 O   0  0  0  0  0  0  0  0  0  0  0  0
    4.9878    0.0529    1.3292 N   0  0  0  0  0  0  0  0  0  0  0  0
    4.8691    0.3275   -0.1306 C   0  0  0  0  0  0  0  0  0  0  0  0
    5.8572    1.4091   -0.5494 C   0  0  0  0  0  0  0  0  0  0  0  0
    7.3002    0.9580   -0.3345 C   0  0  0  0  0  0  0  0  0  0  0  0
    7.4234   -0.0705    0.7871 C   0  0  0  0  0  0  0  0  0  0  0  0
    6.3769    0.1519    1.8703 C   0  0  0  0  0  0  0  0  0  0  0  0
    1.8274    0.1934    2.1570 C   0  0  0  0  0  0  0  0  0  0  0  0
    0.5073    0.5309    1.8521 C   0  0  0  0  0  0  0  0  0  0  0  0
   -1.5475   -0.5623   -1.3363 H   0  0  0  0  0  0  0  0  0  0  0  0
   -3.6838    1.2493   -0.6529 H   0  0  0  0  0  0  0  0  0  0  0  0
   -4.3095   -0.9527    0.6223 H   0  0  0  0  0  0  0  0  0  0  0  0
   -4.3681   -1.7561   -0.9251 H   0  0  0  0  0  0  0  0  0  0  0  0
   -5.8138    1.1561    0.9783 H   0  0  0  0  0  0  0  0  0  0  0  0
   -8.1594    1.8891    0.7394 H   0  0  0  0  0  0  0  0  0  0  0  0
   -9.6370    0.8222   -0.9438 H   0  0  0  0  0  0  0  0  0  0  0  0
   -8.7593   -0.9889   -2.3931 H   0  0  0  0  0  0  0  0  0  0  0  0
   -6.4183   -1.7349   -2.1722 H   0  0  0  0  0  0  0  0  0  0  0  0
   -4.3040    1.0152   -4.0337 H   0  0  0  0  0  0  0  0  0  0  0  0
   -0.1399   -1.9002   -0.4646 H   0  0  0  0  0  0  0  0  0  0  0  0
    2.1889   -2.4783    0.0550 H   0  0  0  0  0  0  0  0  0  0  0  0
    5.0444   -0.5836   -0.7136 H   0  0  0  0  0  0  0  0  0  0  0  0
    3.8562    0.6834   -0.3450 H   0  0  0  0  0  0  0  0  0  0  0  0
    5.6717    2.3179    0.0375 H   0  0  0  0  0  0  0  0  0  0  0  0
    5.7072    1.6778   -1.6011 H   0  0  0  0  0  0  0  0  0  0  0  0
    7.7012    0.5254   -1.2589 H   0  0  0  0  0  0  0  0  0  0  0  0
    7.9182    1.8359   -0.1112 H   0  0  0  0  0  0  0  0  0  0  0  0
    7.3042   -1.0783    0.3691 H   0  0  0  0  0  0  0  0  0  0  0  0
    8.4307   -0.0269    1.2164 H   0  0  0  0  0  0  0  0  0  0  0  0
    6.5429   -0.5675    2.6789 H   0  0  0  0  0  0  0  0  0  0  0  0
    6.4918    1.1478    2.3148 H   0  0  0  0  0  0  0  0  0  0  0  0
    2.3750    0.7598    2.9078 H   0  0  0  0  0  0  0  0  0  0  0  0
    0.0332    1.3632    2.3706 H   0  0  0  0  0  0  0  0  0  0  0  0
  1  2  2  0
  2  3  1  0
  3  4  1  0
  4  5  1  0
  5  6  1  0
  6  7  2  0
  7  8  1  0
  8  9  2  0
  9 10  1  0
 10 11  2  0
  4 12  1  0
 12 13  2  0
 12 14  1  0
  2 15  1  0
 15 16  2  0
 16 17  1  0
 17 18  2  0
 18 19  1  0
 19 20  2  0
 19 21  2  0
 19 22  1  0
 22 23  1  0
 23 24  1  0
 24 25  1  0
 25 26  1  0
 26 27  1  0
 18 28  1  0
 28 29  2  0
 11  6  1  0
 29 15  1  0
 27 22  1  0
  3 30  1  0
  4 31  1  0
  5 32  1  0
  5 33  1  0
  7 34  1  0
  8 35  1  0
  9 36  1  0
 10 37  1  0
 11 38  1  0
 14 39  1  0
 16 40  1  0
 17 41  1  0
 23 42  1  0
 23 43  1  0
 24 44  1  0
 24 45  1  0
 25 46  1  0
 25 47  1  0
 26 48  1  0
 26 49  1  0
 27 50  1  0
 27 51  1  0
 28 52  1  0
 29 53  1  0
M  END
$$$$
