
     RDKit          3D

 52 54  0  0  0  0  0  0  0  0999 V2000
   -5.1445    2.8919   -1.6030 C   0  0  0  0  0  0  0  0  0  0  0  0
   -3.9833    1.8749   -1.6217 C   0  0  0  0  0  0  0  0  0  0  0  0
   -3.3723    1.9042   -3.0349 C   0  0  0  0  0  0  0  0  0  0  0  0
   -2.9338    2.3129   -0.5594 C   0  0  0  0  0  0  0  0  0  0  0  0
   -1.9586    1.2126   -0.2507 C   0  0  0  0  0  0  0  0  0  0  0  0
   -2.3040   -0.1030   -0.5186 C   0  0  0  0  0  0  0  0  0  0  0  0
   -1.0197   -1.1683   -0.1757 S   0  0  0  0  0  0  0  0  0  0  0  0
   -0.0003    0.0852    0.3218 C   0  0  0  0  0  0  0  0  0  0  0  0
    1.3130   -0.1515    0.7041 N   0  0  0  0  0  0  0  0  0  0  0  0
    1.9682   -1.3736    0.7936 C   0  0  0  0  0  0  0  0  0  0  0  0
    1.4860   -2.4836    0.6001 O   0  0  0  0  0  0  0  0  0  0  0  0
    3.4406   -1.1744    1.1870 C   0  0  0  0  0  0  0  0  0  0  0  0
    4.1179   -2.4083    1.3679 O   0  0  0  0  0  0  0  0  0  0  0  0
    5.4430   -2.3738    1.7131 C   0  0  0  0  0  0  0  0  0  0  0  0
    6.1871   -1.2015    1.8896 C   0  0  0  0  0  0  0  0  0  0  0  0
    7.5397   -1.2686    2.2423 C   0  0  0  0  0  0  0  0  0  0  0  0
    8.1548   -2.5057    2.4201 C   0  0  0  0  0  0  0  0  0  0  0  0
    9.8180   -2.5767    2.8536 Cl  0  0  0  0  0  0  0  0  0  0  0  0
    7.4328   -3.6813    2.2494 C   0  0  0  0  0  0  0  0  0  0  0  0
    6.0823   -3.6136    1.8973 C   0  0  0  0  0  0  0  0  0  0  0  0
    5.2290   -5.1053    1.6989 Cl  0  0  0  0  0  0  0  0  0  0  0  0
   -0.6214    1.3292    0.2957 C   0  0  0  0  0  0  0  0  0  0  0  0
    0.0855    2.5286    0.7505 C   0  0  0  0  0  0  0  0  0  0  0  0
   -0.6806    3.5865    1.1446 N   0  0  0  0  0  0  0  0  0  0  0  0
    1.3094    2.5817    0.8584 O   0  0  0  0  0  0  0  0  0  0  0  0
   -3.6351   -0.5787   -1.0847 C   0  0  0  0  0  0  0  0  0  0  0  0
   -3.4674   -1.3390   -2.4127 C   0  0  0  0  0  0  0  0  0  0  0  0
   -4.3256   -1.5283   -0.0765 C   0  0  0  0  0  0  0  0  0  0  0  0
   -4.5791    0.5575   -1.2915 N   0  0  0  0  0  0  0  0  0  0  0  0
   -5.9083    2.6397   -2.3481 H   0  0  0  0  0  0  0  0  0  0  0  0
   -5.6350    2.9274   -0.6229 H   0  0  0  0  0  0  0  0  0  0  0  0
   -4.7857    3.9038   -1.8247 H   0  0  0  0  0  0  0  0  0  0  0  0
   -4.0713    1.5043   -3.7785 H   0  0  0  0  0  0  0  0  0  0  0  0
   -3.1335    2.9317   -3.3343 H   0  0  0  0  0  0  0  0  0  0  0  0
   -2.4398    1.3373   -3.1025 H   0  0  0  0  0  0  0  0  0  0  0  0
   -2.4035    3.2037   -0.9162 H   0  0  0  0  0  0  0  0  0  0  0  0
   -3.4426    2.5807    0.3761 H   0  0  0  0  0  0  0  0  0  0  0  0
    1.8411    0.6946    0.9173 H   0  0  0  0  0  0  0  0  0  0  0  0
    3.9131   -0.6030    0.3783 H   0  0  0  0  0  0  0  0  0  0  0  0
    3.4551   -0.6028    2.1233 H   0  0  0  0  0  0  0  0  0  0  0  0
    5.7503   -0.2164    1.7606 H   0  0  0  0  0  0  0  0  0  0  0  0
    8.1071   -0.3503    2.3759 H   0  0  0  0  0  0  0  0  0  0  0  0
    7.9142   -4.6455    2.3883 H   0  0  0  0  0  0  0  0  0  0  0  0
   -1.6434    3.4450    1.4111 H   0  0  0  0  0  0  0  0  0  0  0  0
   -0.1832    4.3345    1.6097 H   0  0  0  0  0  0  0  0  0  0  0  0
   -2.8802   -0.7854   -3.1498 H   0  0  0  0  0  0  0  0  0  0  0  0
   -2.9565   -2.2979   -2.2625 H   0  0  0  0  0  0  0  0  0  0  0  0
   -4.4408   -1.5673   -2.8639 H   0  0  0  0  0  0  0  0  0  0  0  0
   -4.4473   -1.0542    0.9055 H   0  0  0  0  0  0  0  0  0  0  0  0
   -5.3199   -1.8291   -0.4290 H   0  0  0  0  0  0  0  0  0  0  0  0
   -3.7491   -2.4480    0.0775 H   0  0  0  0  0  0  0  0  0  0  0  0
   -5.1221    0.6672   -0.4350 H   0  0  0  0  0  0  0  0  0  0  0  0
  1  2  1  0
  2  3  1  0
  2  4  1  0
  4  5  1  0
  5  6  2  0
  6  7  1  0
  7  8  1  0
  8  9  1  0
  9 10  1  0
 10 11  2  0
 10 12  1  0
 12 13  1  0
 13 14  1  0
 14 15  2  0
 15 16  1  0
 16 17  2  0
 17 18  1  0
 17 19  1  0
 19 20  2  0
 20 21  1  0
  8 22  2  0
 22 23  1  0
 23 24  1  0
 23 25  2  0
  6 26  1  0
 26 27  1  0
 26 28  1  0
 26 29  1  0
 29  2  1  0
 22  5  1  0
 20 14  1  0
  1 30  1  0
  1 31  1  0
  1 32  1  0
  3 33  1  0
  3 34  1  0
  3 35  1  0
  4 36  1  0
  4 37  1  0
  9 38  1  0
 12 39  1  0
 12 40  1  0
 15 41  1  0
 16 42  1  0
 19 43  1  0
 24 44  1  0
 24 45  1  0
 27 46  1  0
 27 47  1  0
 27 48  1  0
 28 49  1  0
 28 50  1  0
 28 51  1  0
 29 52  1  0
M  END
$$$$
