
     RDKit          3D

 53 57  0  0  0  0  0  0  0  0999 V2000
    8.4440    0.6254    0.9016 C   0  0  0  0  0  0  0  0  0  0  0  0
    7.7080    0.5828   -0.3146 O   0  0  0  0  0  0  0  0  0  0  0  0
    6.3495    0.4792   -0.2095 C   0  0  0  0  0  0  0  0  0  0  0  0
    5.6166    0.4269    0.9720 C   0  0  0  0  0  0  0  0  0  0  0  0
    4.2173    0.3193    0.9379 C   0  0  0  0  0  0  0  0  0  0  0  0
    3.5248    0.2622   -0.2787 C   0  0  0  0  0  0  0  0  0  0  0  0
    2.0908    0.1574   -0.3254 N   0  0  0  0  0  0  0  0  0  0  0  0
    1.3235    0.3246   -1.4684 C   0  0  0  0  0  0  0  0  0  0  0  0
   -0.0105    0.1663   -1.1616 C   0  0  0  0  0  0  0  0  0  0  0  0
   -1.0493    0.2698   -2.1673 C   0  0  0  0  0  0  0  0  0  0  0  0
   -1.8344   -0.8457   -2.4815 C   0  0  0  0  0  0  0  0  0  0  0  0
   -2.8544   -0.7407   -3.4285 C   0  0  0  0  0  0  0  0  0  0  0  0
   -3.0914    0.4763   -4.0665 C   0  0  0  0  0  0  0  0  0  0  0  0
   -2.3091    1.5895   -3.7605 C   0  0  0  0  0  0  0  0  0  0  0  0
   -1.2890    1.4880   -2.8129 C   0  0  0  0  0  0  0  0  0  0  0  0
   -0.0979   -0.1088    0.2315 C   0  0  0  0  0  0  0  0  0  0  0  0
   -1.1458   -0.3499    1.1504 C   0  0  0  0  0  0  0  0  0  0  0  0
   -2.5103   -0.3309    0.7515 N   0  0  0  0  0  0  0  0  0  0  0  0
   -3.4986   -0.1136    1.7516 N   0  0  0  0  0  0  0  0  0  0  0  0
   -4.6841    0.5301    1.1458 C   0  0  0  0  0  0  0  0  0  0  0  0
   -5.9450    0.2602    1.9751 C   0  0  0  0  0  0  0  0  0  0  0  0
   -6.3010   -1.1292    2.0024 O   0  0  0  0  0  0  0  0  0  0  0  0
   -5.1694   -1.9985    1.8451 C   0  0  0  0  0  0  0  0  0  0  0  0
   -3.8660   -1.4002    2.3912 C   0  0  0  0  0  0  0  0  0  0  0  0
   -0.8077   -0.6244    2.4363 N   0  0  0  0  0  0  0  0  0  0  0  0
    0.4842   -0.6245    2.7832 C   0  0  0  0  0  0  0  0  0  0  0  0
    1.5423   -0.3838    2.0031 N   0  0  0  0  0  0  0  0  0  0  0  0
    1.2075   -0.1208    0.7238 C   0  0  0  0  0  0  0  0  0  0  0  0
    4.2737    0.3183   -1.4646 C   0  0  0  0  0  0  0  0  0  0  0  0
    5.6697    0.4247   -1.4244 C   0  0  0  0  0  0  0  0  0  0  0  0
    8.3041   -0.2934    1.4806 H   0  0  0  0  0  0  0  0  0  0  0  0
    8.1804    1.5095    1.4915 H   0  0  0  0  0  0  0  0  0  0  0  0
    9.5057    0.6999    0.6471 H   0  0  0  0  0  0  0  0  0  0  0  0
    6.0955    0.4709    1.9448 H   0  0  0  0  0  0  0  0  0  0  0  0
    3.7079    0.3059    1.8956 H   0  0  0  0  0  0  0  0  0  0  0  0
    1.7728    0.5583   -2.4224 H   0  0  0  0  0  0  0  0  0  0  0  0
   -1.6585   -1.8016   -1.9918 H   0  0  0  0  0  0  0  0  0  0  0  0
   -3.4622   -1.6092   -3.6701 H   0  0  0  0  0  0  0  0  0  0  0  0
   -3.8846    0.5562   -4.8060 H   0  0  0  0  0  0  0  0  0  0  0  0
   -2.4935    2.5371   -4.2606 H   0  0  0  0  0  0  0  0  0  0  0  0
   -0.6900    2.3653   -2.5786 H   0  0  0  0  0  0  0  0  0  0  0  0
   -2.5956    0.2376   -0.0916 H   0  0  0  0  0  0  0  0  0  0  0  0
   -4.5068    1.6091    1.0774 H   0  0  0  0  0  0  0  0  0  0  0  0
   -4.8550    0.1527    0.1281 H   0  0  0  0  0  0  0  0  0  0  0  0
   -6.7959    0.8062    1.5551 H   0  0  0  0  0  0  0  0  0  0  0  0
   -5.8178    0.6032    3.0087 H   0  0  0  0  0  0  0  0  0  0  0  0
   -5.0702   -2.2416    0.7806 H   0  0  0  0  0  0  0  0  0  0  0  0
   -5.4022   -2.9313    2.3689 H   0  0  0  0  0  0  0  0  0  0  0  0
   -3.0647   -2.1454    2.3228 H   0  0  0  0  0  0  0  0  0  0  0  0
   -4.0038   -1.1920    3.4598 H   0  0  0  0  0  0  0  0  0  0  0  0
    0.6960   -0.8460    3.8245 H   0  0  0  0  0  0  0  0  0  0  0  0
    3.8181    0.2584   -2.4476 H   0  0  0  0  0  0  0  0  0  0  0  0
    6.2321    0.4600   -2.3549 H   0  0  0  0  0  0  0  0  0  0  0  0
  1  2  1  0
  2  3  1  0
  3  4  2  0
  4  5  1  0
  5  6  2  0
  6  7  1  0
  7  8  1  0
  8  9  2  0
  9 10  1  0
 10 11  2  0
 11 12  1  0
 12 13  2  0
 13 14  1  0
 14 15  2  0
  9 16  1  0
 16 17  2  0
 17 18  1  0
 18 19  1  0
 19 20  1  0
 20 21  1  0
 21 22  1  0
 22 23  1  0
 23 24  1  0
 17 25  1  0
 25 26  2  0
 26 27  1  0
 27 28  2  0
  6 29  1  0
 29 30  2  0
 30  3  1  0
 28  7  1  0
 15 10  1  0
 28 16  1  0
 24 19  1  0
  1 31  1  0
  1 32  1  0
  1 33  1  0
  4 34  1  0
  5 35  1  0
  8 36  1  0
 11 37  1  0
 12 38  1  0
 13 39  1  0
 14 40  1  0
 15 41  1  0
 18 42  1  0
 20 43  1  0
 20 44  1  0
 21 45  1  0
 21 46  1  0
 23 47  1  0
 23 48  1  0
 24 49  1  0
 24 50  1  0
 26 51  1  0
 29 52  1  0
 30 53  1  0
M  END
$$$$
