
     RDKit          3D

 39 41  0  0  0  0  0  0  0  0999 V2000
   -5.3065    2.1358    1.0047 O   0  0  0  0  0  0  0  0  0  0  0  0
   -4.3425    1.5939    0.4964 C   0  0  0  0  0  0  0  0  0  0  0  0
   -3.1352    2.1964    0.4646 O   0  0  0  0  0  0  0  0  0  0  0  0
   -4.3318    0.3138   -0.2458 C   0  0  0  0  0  0  0  0  0  0  0  0
   -5.3428    0.1487   -1.1548 N   0  0  0  0  0  0  0  0  0  0  0  0
   -5.3058   -0.9974   -1.8697 C   0  0  0  0  0  0  0  0  0  0  0  0
   -4.3057   -1.9416   -1.7067 C   0  0  0  0  0  0  0  0  0  0  0  0
   -3.3010   -1.7906   -0.8129 N   0  0  0  0  0  0  0  0  0  0  0  0
   -3.3359   -0.6379   -0.0730 C   0  0  0  0  0  0  0  0  0  0  0  0
   -2.3367   -0.5114    1.0215 C   0  0  0  0  0  0  0  0  0  0  0  0
   -2.7501   -0.1889    2.1355 O   0  0  0  0  0  0  0  0  0  0  0  0
   -0.9888   -0.7633    0.7605 N   0  0  0  0  0  0  0  0  0  0  0  0
   -0.0047   -0.5426    1.8210 C   0  0  0  0  0  0  0  0  0  0  0  0
    1.1052    0.4282    1.3768 C   0  0  0  0  0  0  0  0  0  0  0  0
    1.7445    0.0031    0.1113 N   0  0  0  0  0  0  0  0  0  0  0  0
    3.0744    0.3431   -0.1147 C   0  0  0  0  0  0  0  0  0  0  0  0
    3.9464   -0.4688   -0.8579 C   0  0  0  0  0  0  0  0  0  0  0  0
    5.2815   -0.1098   -1.0855 C   0  0  0  0  0  0  0  0  0  0  0  0
    5.7803    1.0835   -0.5782 C   0  0  0  0  0  0  0  0  0  0  0  0
    4.9421    1.9154    0.1528 C   0  0  0  0  0  0  0  0  0  0  0  0
    3.6098    1.5471    0.3764 C   0  0  0  0  0  0  0  0  0  0  0  0
    1.1031   -1.1039   -0.6151 C   0  0  0  0  0  0  0  0  0  0  0  0
   -0.4347   -0.9801   -0.5828 C   0  0  0  0  0  0  0  0  0  0  0  0
   -3.2779    3.0191    0.9805 H   0  0  0  0  0  0  0  0  0  0  0  0
   -6.1082   -1.1375   -2.5863 H   0  0  0  0  0  0  0  0  0  0  0  0
   -4.2910   -2.8558   -2.2907 H   0  0  0  0  0  0  0  0  0  0  0  0
   -0.4781   -0.1653    2.7327 H   0  0  0  0  0  0  0  0  0  0  0  0
    0.4270   -1.5219    2.0613 H   0  0  0  0  0  0  0  0  0  0  0  0
    0.6746    1.4262    1.2303 H   0  0  0  0  0  0  0  0  0  0  0  0
    1.8395    0.4858    2.1898 H   0  0  0  0  0  0  0  0  0  0  0  0
    3.6128   -1.4192   -1.2628 H   0  0  0  0  0  0  0  0  0  0  0  0
    5.9275   -0.7691   -1.6589 H   0  0  0  0  0  0  0  0  0  0  0  0
    6.8144    1.3650   -0.7547 H   0  0  0  0  0  0  0  0  0  0  0  0
    5.3158    2.8566    0.5466 H   0  0  0  0  0  0  0  0  0  0  0  0
    2.9820    2.2410    0.9290 H   0  0  0  0  0  0  0  0  0  0  0  0
    1.4071   -2.0572   -0.1651 H   0  0  0  0  0  0  0  0  0  0  0  0
    1.4061   -1.1131   -1.6688 H   0  0  0  0  0  0  0  0  0  0  0  0
   -0.8662   -1.8931   -1.0021 H   0  0  0  0  0  0  0  0  0  0  0  0
   -0.7506   -0.1344   -1.2055 H   0  0  0  0  0  0  0  0  0  0  0  0
  1  2  2  0
  2  3  1  0
  2  4  1  0
  4  5  2  0
  5  6  1  0
  6  7  2  0
  7  8  1  0
  8  9  2  0
  9 10  1  0
 10 11  2  0
 10 12  1  0
 12 13  1  0
 13 14  1  0
 14 15  1  0
 15 16  1  0
 16 17  2  0
 17 18  1  0
 18 19  2  0
 19 20  1  0
 20 21  2  0
 15 22  1  0
 22 23  1  0
  9  4  1  0
 23 12  1  0
 21 16  1  0
  3 24  1  0
  6 25  1  0
  7 26  1  0
 13 27  1  0
 13 28  1  0
 14 29  1  0
 14 30  1  0
 17 31  1  0
 18 32  1  0
 19 33  1  0
 20 34  1  0
 21 35  1  0
 22 36  1  0
 22 37  1  0
 23 38  1  0
 23 39  1  0
M  END
$$$$
