
     RDKit          3D

 47 48  0  0  0  0  0  0  0  0999 V2000
   -0.7944    2.4906   -1.8375 C   0  0  0  0  0  0  0  0  0  0  0  0
    0.3652    1.6673   -1.8102 O   0  0  0  0  0  0  0  0  0  0  0  0
    1.2413    1.8548   -0.7779 C   0  0  0  0  0  0  0  0  0  0  0  0
    1.2975    3.0062    0.0128 C   0  0  0  0  0  0  0  0  0  0  0  0
    2.2629    3.1286    1.0191 C   0  0  0  0  0  0  0  0  0  0  0  0
    3.1912    2.1110    1.2364 C   0  0  0  0  0  0  0  0  0  0  0  0
    3.1504    0.9600    0.4538 C   0  0  0  0  0  0  0  0  0  0  0  0
    2.1672    0.8296   -0.5361 C   0  0  0  0  0  0  0  0  0  0  0  0
    2.1419   -0.4270   -1.3180 C   0  0  0  0  0  0  0  0  0  0  0  0
    3.0751   -0.6226   -2.0924 O   0  0  0  0  0  0  0  0  0  0  0  0
    1.0967   -1.3325   -1.0616 N   0  0  0  0  0  0  0  0  0  0  0  0
    0.4586   -1.2622    0.2066 N   0  0  0  0  0  0  0  0  0  0  0  0
   -0.7675   -0.6444    0.3325 C   0  0  0  0  0  0  0  0  0  0  0  0
   -1.5453   -0.4013   -0.5807 O   0  0  0  0  0  0  0  0  0  0  0  0
   -0.9663   -0.3365    1.6721 O   0  0  0  0  0  0  0  0  0  0  0  0
   -2.1239    0.4008    1.9374 C   0  0  0  0  0  0  0  0  0  0  0  0
   -3.3818   -0.1938    1.8586 C   0  0  0  0  0  0  0  0  0  0  0  0
   -4.5103    0.5605    2.1772 C   0  0  0  0  0  0  0  0  0  0  0  0
   -4.3713    1.8896    2.5847 C   0  0  0  0  0  0  0  0  0  0  0  0
   -3.1035    2.4682    2.6790 C   0  0  0  0  0  0  0  0  0  0  0  0
   -1.9712    1.7200    2.3607 C   0  0  0  0  0  0  0  0  0  0  0  0
    1.0236   -2.6788   -1.7034 C   0  0  0  0  0  0  0  0  0  0  0  0
   -0.2881   -3.4292   -1.3640 C   0  0  0  0  0  0  0  0  0  0  0  0
    1.0568   -2.5419   -3.2413 C   0  0  0  0  0  0  0  0  0  0  0  0
    2.2035   -3.5551   -1.2409 C   0  0  0  0  0  0  0  0  0  0  0  0
   -1.3188    2.4824   -0.8762 H   0  0  0  0  0  0  0  0  0  0  0  0
   -0.5356    3.5119   -2.1341 H   0  0  0  0  0  0  0  0  0  0  0  0
   -1.4745    2.0856   -2.5929 H   0  0  0  0  0  0  0  0  0  0  0  0
    0.6163    3.8365   -0.1454 H   0  0  0  0  0  0  0  0  0  0  0  0
    2.3025    4.0340    1.6210 H   0  0  0  0  0  0  0  0  0  0  0  0
    3.9525    2.2222    2.0047 H   0  0  0  0  0  0  0  0  0  0  0  0
    3.8826    0.1703    0.6044 H   0  0  0  0  0  0  0  0  0  0  0  0
    1.0593   -1.2645    1.0219 H   0  0  0  0  0  0  0  0  0  0  0  0
   -3.4875   -1.2268    1.5418 H   0  0  0  0  0  0  0  0  0  0  0  0
   -5.4988    0.1140    2.1069 H   0  0  0  0  0  0  0  0  0  0  0  0
   -5.2541    2.4745    2.8316 H   0  0  0  0  0  0  0  0  0  0  0  0
   -3.0009    3.5004    3.0032 H   0  0  0  0  0  0  0  0  0  0  0  0
   -0.9827    2.1617    2.4395 H   0  0  0  0  0  0  0  0  0  0  0  0
   -0.3350   -4.3957   -1.8798 H   0  0  0  0  0  0  0  0  0  0  0  0
   -1.1668   -2.8516   -1.6707 H   0  0  0  0  0  0  0  0  0  0  0  0
   -0.3763   -3.6377   -0.2920 H   0  0  0  0  0  0  0  0  0  0  0  0
    2.0139   -2.1613   -3.6087 H   0  0  0  0  0  0  0  0  0  0  0  0
    0.8970   -3.5105   -3.7294 H   0  0  0  0  0  0  0  0  0  0  0  0
    0.2742   -1.8572   -3.5883 H   0  0  0  0  0  0  0  0  0  0  0  0
    3.1694   -3.1256   -1.5255 H   0  0  0  0  0  0  0  0  0  0  0  0
    2.2055   -3.6670   -0.1507 H   0  0  0  0  0  0  0  0  0  0  0  0
    2.1495   -4.5573   -1.6811 H   0  0  0  0  0  0  0  0  0  0  0  0
  1  2  1  0
  2  3  1  0
  3  4  2  0
  4  5  1  0
  5  6  2  0
  6  7  1  0
  7  8  2  0
  8  9  1  0
  9 10  2  0
  9 11  1  0
 11 12  1  0
 12 13  1  0
 13 14  2  0
 13 15  1  0
 15 16  1  0
 16 17  2  0
 17 18  1  0
 18 19  2  0
 19 20  1  0
 20 21  2  0
 11 22  1  0
 22 23  1  0
 22 24  1  0
 22 25  1  0
  8  3  1  0
 21 16  1  0
  1 26  1  0
  1 27  1  0
  1 28  1  0
  4 29  1  0
  5 30  1  0
  6 31  1  0
  7 32  1  0
 12 33  1  0
 17 34  1  0
 18 35  1  0
 19 36  1  0
 20 37  1  0
 21 38  1  0
 23 39  1  0
 23 40  1  0
 23 41  1  0
 24 42  1  0
 24 43  1  0
 24 44  1  0
 25 45  1  0
 25 46  1  0
 25 47  1  0
M  END
$$$$
