
     RDKit          3D

 59 62  0  0  0  0  0  0  0  0999 V2000
   -0.5453   -3.0956   -4.3600 C   0  0  0  0  0  0  0  0  0  0  0  0
   -0.1408   -1.7278   -3.8463 C   0  0  0  0  0  0  0  0  0  0  0  0
   -0.7651   -1.5280   -2.5720 O   0  0  0  0  0  0  0  0  0  0  0  0
   -0.4638   -0.3393   -1.9748 C   0  0  0  0  0  0  0  0  0  0  0  0
    0.2384    0.5240   -2.4855 O   0  0  0  0  0  0  0  0  0  0  0  0
   -1.1741   -0.2019   -0.6160 C   0  0  0  0  0  0  0  0  0  0  0  0
   -2.6863   -0.0865   -0.9730 C   0  0  0  0  0  0  0  0  0  0  0  0
   -3.6390    0.2632    0.1490 C   0  0  0  0  0  0  0  0  0  0  0  0
   -4.2667   -0.7369    0.9018 C   0  0  0  0  0  0  0  0  0  0  0  0
   -5.1474   -0.4097    1.9400 C   0  0  0  0  0  0  0  0  0  0  0  0
   -5.4203    0.9248    2.2348 C   0  0  0  0  0  0  0  0  0  0  0  0
   -6.2549    1.3793    3.2179 O   0  0  0  0  0  0  0  0  0  0  0  0
   -6.9050    0.3968    4.0139 C   0  0  0  0  0  0  0  0  0  0  0  0
   -4.8105    1.9255    1.4772 C   0  0  0  0  0  0  0  0  0  0  0  0
   -3.9323    1.6011    0.4404 C   0  0  0  0  0  0  0  0  0  0  0  0
   -0.6519    1.0888    0.0751 C   0  0  0  0  0  0  0  0  0  0  0  0
    0.8249    0.9871    0.4848 C   0  0  0  0  0  0  0  0  0  0  0  0
    1.1556   -0.3193    1.0480 N   0  0  0  0  0  0  0  0  0  0  0  0
    2.4010   -0.9360    0.9020 C   0  0  0  0  0  0  0  0  0  0  0  0
    2.5094   -2.1613    0.9699 O   0  0  0  0  0  0  0  0  0  0  0  0
    3.5766   -0.1238    0.6530 C   0  0  0  0  0  0  0  0  0  0  0  0
    3.9078    1.1860    0.9572 C   0  0  0  0  0  0  0  0  0  0  0  0
    5.2249    1.4444    0.4845 C   0  0  0  0  0  0  0  0  0  0  0  0
    6.0660    2.5734    0.4934 C   0  0  0  0  0  0  0  0  0  0  0  0
    7.3448    2.4777   -0.0682 C   0  0  0  0  0  0  0  0  0  0  0  0
    7.7882    1.2804   -0.6266 C   0  0  0  0  0  0  0  0  0  0  0  0
    6.9717    0.1454   -0.6404 C   0  0  0  0  0  0  0  0  0  0  0  0
    5.6958    0.2613   -0.0776 C   0  0  0  0  0  0  0  0  0  0  0  0
    4.6972   -0.6710    0.0617 N   0  0  0  0  0  0  0  0  0  0  0  0
    0.0222   -1.1310    1.4615 C   0  0  0  0  0  0  0  0  0  0  0  0
   -0.8619   -1.4535    0.2593 C   0  0  0  0  0  0  0  0  0  0  0  0
   -0.0925   -3.2960   -5.3350 H   0  0  0  0  0  0  0  0  0  0  0  0
   -0.2358   -3.8775   -3.6585 H   0  0  0  0  0  0  0  0  0  0  0  0
   -1.6341   -3.1654   -4.4542 H   0  0  0  0  0  0  0  0  0  0  0  0
   -0.4766   -0.9548   -4.5465 H   0  0  0  0  0  0  0  0  0  0  0  0
    0.9485   -1.6808   -3.7365 H   0  0  0  0  0  0  0  0  0  0  0  0
   -2.8161    0.6636   -1.7673 H   0  0  0  0  0  0  0  0  0  0  0  0
   -3.0320   -1.0249   -1.4297 H   0  0  0  0  0  0  0  0  0  0  0  0
   -4.0867   -1.7872    0.6825 H   0  0  0  0  0  0  0  0  0  0  0  0
   -5.6056   -1.2225    2.4934 H   0  0  0  0  0  0  0  0  0  0  0  0
   -7.5285    0.9188    4.7461 H   0  0  0  0  0  0  0  0  0  0  0  0
   -6.1783   -0.2080    4.5663 H   0  0  0  0  0  0  0  0  0  0  0  0
   -7.5627   -0.2324    3.4052 H   0  0  0  0  0  0  0  0  0  0  0  0
   -5.0242    2.9693    1.6945 H   0  0  0  0  0  0  0  0  0  0  0  0
   -3.4801    2.4053   -0.1360 H   0  0  0  0  0  0  0  0  0  0  0  0
   -0.7892    1.9695   -0.5646 H   0  0  0  0  0  0  0  0  0  0  0  0
   -1.2310    1.2808    0.9864 H   0  0  0  0  0  0  0  0  0  0  0  0
    1.0287    1.7422    1.2514 H   0  0  0  0  0  0  0  0  0  0  0  0
    1.4704    1.1934   -0.3737 H   0  0  0  0  0  0  0  0  0  0  0  0
    3.2826    1.8961    1.4798 H   0  0  0  0  0  0  0  0  0  0  0  0
    5.7291    3.5092    0.9288 H   0  0  0  0  0  0  0  0  0  0  0  0
    7.9977    3.3470   -0.0661 H   0  0  0  0  0  0  0  0  0  0  0  0
    8.7858    1.2257   -1.0564 H   0  0  0  0  0  0  0  0  0  0  0  0
    7.3208   -0.7874   -1.0710 H   0  0  0  0  0  0  0  0  0  0  0  0
    4.7569   -1.6385   -0.2265 H   0  0  0  0  0  0  0  0  0  0  0  0
    0.3529   -2.0580    1.9423 H   0  0  0  0  0  0  0  0  0  0  0  0
   -0.5374   -0.5709    2.2203 H   0  0  0  0  0  0  0  0  0  0  0  0
   -0.3472   -2.2242   -0.3275 H   0  0  0  0  0  0  0  0  0  0  0  0
   -1.7746   -1.9305    0.6255 H   0  0  0  0  0  0  0  0  0  0  0  0
  1  2  1  0
  2  3  1  0
  3  4  1  0
  4  5  2  0
  4  6  1  0
  6  7  1  0
  7  8  1  0
  8  9  2  0
  9 10  1  0
 10 11  2  0
 11 12  1  0
 12 13  1  0
 11 14  1  0
 14 15  2  0
  6 16  1  0
 16 17  1  0
 17 18  1  0
 18 19  1  0
 19 20  2  0
 19 21  1  0
 21 22  2  0
 22 23  1  0
 23 24  2  0
 24 25  1  0
 25 26  2  0
 26 27  1  0
 27 28  2  0
 28 29  1  0
 18 30  1  0
 30 31  1  0
 31  6  1  0
 15  8  1  0
 29 21  1  0
 28 23  1  0
  1 32  1  0
  1 33  1  0
  1 34  1  0
  2 35  1  0
  2 36  1  0
  7 37  1  0
  7 38  1  0
  9 39  1  0
 10 40  1  0
 13 41  1  0
 13 42  1  0
 13 43  1  0
 14 44  1  0
 15 45  1  0
 16 46  1  0
 16 47  1  0
 17 48  1  0
 17 49  1  0
 22 50  1  0
 24 51  1  0
 25 52  1  0
 26 53  1  0
 27 54  1  0
 29 55  1  0
 30 56  1  0
 30 57  1  0
 31 58  1  0
 31 59  1  0
M  END
$$$$
