
     RDKit          3D

 31 31  0  0  0  0  0  0  0  0999 V2000
    5.1974    0.0810   -1.4423 N   0  0  0  0  0  0  0  0  0  0  0  0
    3.8562    0.0482   -1.6726 C   0  0  0  0  0  0  0  0  0  0  0  0
    3.2557    0.5063   -3.1550 S   0  0  0  0  0  0  0  0  0  0  0  0
    3.1334   -0.4004   -0.5940 N   0  0  0  0  0  0  0  0  0  0  0  0
    1.7305   -0.2887   -0.5888 N   0  0  0  0  0  0  0  0  0  0  0  0
    1.1374    0.1322    0.5874 C   0  0  0  0  0  0  0  0  0  0  0  0
    1.7660    0.2298    1.6400 O   0  0  0  0  0  0  0  0  0  0  0  0
   -0.3538    0.4306    0.4580 C   0  0  0  0  0  0  0  0  0  0  0  0
   -0.8628    1.1611    1.7067 C   0  0  0  0  0  0  0  0  0  0  0  0
   -2.3318    1.5577    1.5716 C   0  0  0  0  0  0  0  0  0  0  0  0
   -3.1598    0.5442    0.7839 C   0  0  0  0  0  0  0  0  0  0  0  0
   -2.5503   -0.8525    0.8353 C   0  0  0  0  0  0  0  0  0  0  0  0
   -1.1380   -0.8867    0.2179 C   0  0  0  0  0  0  0  0  0  0  0  0
   -1.2034   -1.1848   -1.2693 C   0  0  0  0  0  0  0  0  0  0  0  0
   -0.6553   -0.5502   -2.1567 O   0  0  0  0  0  0  0  0  0  0  0  0
   -1.8761   -2.3126   -1.5595 O   0  0  0  0  0  0  0  0  0  0  0  0
    5.5967   -0.5252   -0.7385 H   0  0  0  0  0  0  0  0  0  0  0  0
    5.7887    0.2827   -2.2407 H   0  0  0  0  0  0  0  0  0  0  0  0
    3.5502   -0.2903    0.3311 H   0  0  0  0  0  0  0  0  0  0  0  0
    1.2803   -0.1231   -1.4948 H   0  0  0  0  0  0  0  0  0  0  0  0
   -0.4675    1.1227   -0.3879 H   0  0  0  0  0  0  0  0  0  0  0  0
   -0.2618    2.0569    1.9058 H   0  0  0  0  0  0  0  0  0  0  0  0
   -0.7419    0.5159    2.5874 H   0  0  0  0  0  0  0  0  0  0  0  0
   -2.4109    2.5356    1.0816 H   0  0  0  0  0  0  0  0  0  0  0  0
   -2.7553    1.6839    2.5754 H   0  0  0  0  0  0  0  0  0  0  0  0
   -4.1835    0.5250    1.1752 H   0  0  0  0  0  0  0  0  0  0  0  0
   -3.2338    0.8678   -0.2620 H   0  0  0  0  0  0  0  0  0  0  0  0
   -2.4892   -1.1733    1.8833 H   0  0  0  0  0  0  0  0  0  0  0  0
   -3.2274   -1.5582    0.3419 H   0  0  0  0  0  0  0  0  0  0  0  0
   -0.5903   -1.7292    0.6623 H   0  0  0  0  0  0  0  0  0  0  0  0
   -1.7993   -2.4063   -2.5327 H   0  0  0  0  0  0  0  0  0  0  0  0
  1  2  1  0
  2  3  2  0
  2  4  1  0
  4  5  1  0
  5  6  1  0
  6  7  2  0
  6  8  1  0
  8  9  1  0
  9 10  1  0
 10 11  1  0
 11 12  1  0
 12 13  1  0
 13 14  1  0
 14 15  2  0
 14 16  1  0
 13  8  1  0
  1 17  1  0
  1 18  1  0
  4 19  1  0
  5 20  1  0
  8 21  1  0
  9 22  1  0
  9 23  1  0
 10 24  1  0
 10 25  1  0
 11 26  1  0
 11 27  1  0
 12 28  1  0
 12 29  1  0
 13 30  1  0
 16 31  1  0
M  END
$$$$
