
     RDKit          3D

 49 51  0  0  0  0  0  0  0  0999 V2000
    2.8951   -3.2960    1.1092 C   0  0  0  0  0  0  0  0  0  0  0  0
    3.6935   -2.0319    0.9751 C   0  0  0  0  0  0  0  0  0  0  0  0
    4.8914   -1.8741    1.6831 C   0  0  0  0  0  0  0  0  0  0  0  0
    5.6653   -0.7246    1.5184 C   0  0  0  0  0  0  0  0  0  0  0  0
    5.2476    0.2738    0.6440 C   0  0  0  0  0  0  0  0  0  0  0  0
    6.0741    1.3579    0.5143 O   0  0  0  0  0  0  0  0  0  0  0  0
    4.0415    0.1473   -0.0571 C   0  0  0  0  0  0  0  0  0  0  0  0
    3.6096    1.2382   -0.9670 C   0  0  0  0  0  0  0  0  0  0  0  0
    4.4659    1.9579   -1.4790 O   0  0  0  0  0  0  0  0  0  0  0  0
    2.1881    1.5095   -1.2522 C   0  0  0  0  0  0  0  0  0  0  0  0
    1.8234    1.9218   -2.5264 C   0  0  0  0  0  0  0  0  0  0  0  0
    0.5473    2.2000   -2.8894 N   0  0  0  0  0  0  0  0  0  0  0  0
   -0.3961    2.0781   -1.9350 C   0  0  0  0  0  0  0  0  0  0  0  0
   -0.1291    1.7104   -0.6283 C   0  0  0  0  0  0  0  0  0  0  0  0
    1.1942    1.4298   -0.2753 C   0  0  0  0  0  0  0  0  0  0  0  0
   -1.2438    1.7283    0.3621 C   0  0  0  0  0  0  0  0  0  0  0  0
   -2.5608    1.6230   -0.2467 N   0  0  0  0  0  0  0  0  0  0  0  0
   -3.7039    1.4033    0.6400 C   0  0  0  0  0  0  0  0  0  0  0  0
   -3.7230    0.0176    1.2975 C   0  0  0  0  0  0  0  0  0  0  0  0
   -3.7010   -1.1666    0.3113 C   0  0  0  0  0  0  0  0  0  0  0  0
   -3.6075   -2.4834    1.0867 C   0  0  0  0  0  0  0  0  0  0  0  0
   -4.9307   -1.1894   -0.5974 C   0  0  0  0  0  0  0  0  0  0  0  0
   -2.7937    2.1125   -1.5205 C   0  0  0  0  0  0  0  0  0  0  0  0
   -3.9155    2.3110   -1.9819 O   0  0  0  0  0  0  0  0  0  0  0  0
   -1.7012    2.3396   -2.2975 N   0  0  0  0  0  0  0  0  0  0  0  0
    3.2823   -1.0234    0.0904 C   0  0  0  0  0  0  0  0  0  0  0  0
    3.0264   -3.7387    2.1020 H   0  0  0  0  0  0  0  0  0  0  0  0
    1.8259   -3.0960    0.9821 H   0  0  0  0  0  0  0  0  0  0  0  0
    3.2130   -4.0209    0.3537 H   0  0  0  0  0  0  0  0  0  0  0  0
    5.2391   -2.6527    2.3595 H   0  0  0  0  0  0  0  0  0  0  0  0
    6.6009   -0.6130    2.0604 H   0  0  0  0  0  0  0  0  0  0  0  0
    5.7806    1.8654   -0.2757 H   0  0  0  0  0  0  0  0  0  0  0  0
    2.5620    2.0396   -3.3160 H   0  0  0  0  0  0  0  0  0  0  0  0
    1.4403    1.1777    0.7529 H   0  0  0  0  0  0  0  0  0  0  0  0
   -1.2119    2.6661    0.9289 H   0  0  0  0  0  0  0  0  0  0  0  0
   -1.1140    0.8921    1.0556 H   0  0  0  0  0  0  0  0  0  0  0  0
   -4.6454    1.5587    0.1037 H   0  0  0  0  0  0  0  0  0  0  0  0
   -3.6667    2.1770    1.4165 H   0  0  0  0  0  0  0  0  0  0  0  0
   -2.8696   -0.0707    1.9804 H   0  0  0  0  0  0  0  0  0  0  0  0
   -4.6191   -0.0497    1.9282 H   0  0  0  0  0  0  0  0  0  0  0  0
   -2.8076   -1.0925   -0.3209 H   0  0  0  0  0  0  0  0  0  0  0  0
   -3.5564   -3.3362    0.4012 H   0  0  0  0  0  0  0  0  0  0  0  0
   -2.7075   -2.5044    1.7107 H   0  0  0  0  0  0  0  0  0  0  0  0
   -4.4764   -2.6239    1.7389 H   0  0  0  0  0  0  0  0  0  0  0  0
   -4.9177   -2.0724   -1.2453 H   0  0  0  0  0  0  0  0  0  0  0  0
   -4.9627   -0.3113   -1.2485 H   0  0  0  0  0  0  0  0  0  0  0  0
   -5.8562   -1.2141   -0.0122 H   0  0  0  0  0  0  0  0  0  0  0  0
   -1.8654    2.6236   -3.2517 H   0  0  0  0  0  0  0  0  0  0  0  0
    2.3753   -1.1743   -0.4907 H   0  0  0  0  0  0  0  0  0  0  0  0
  1  2  1  0
  2  3  2  0
  3  4  1  0
  4  5  2  0
  5  6  1  0
  5  7  1  0
  7  8  1  0
  8  9  2  0
  8 10  1  0
 10 11  2  0
 11 12  1  0
 12 13  2  0
 13 14  1  0
 14 15  2  0
 14 16  1  0
 16 17  1  0
 17 18  1  0
 18 19  1  0
 19 20  1  0
 20 21  1  0
 20 22  1  0
 17 23  1  0
 23 24  2  0
 23 25  1  0
  7 26  2  0
 26  2  1  0
 15 10  1  0
 25 13  1  0
  1 27  1  0
  1 28  1  0
  1 29  1  0
  3 30  1  0
  4 31  1  0
  6 32  1  0
 11 33  1  0
 15 34  1  0
 16 35  1  0
 16 36  1  0
 18 37  1  0
 18 38  1  0
 19 39  1  0
 19 40  1  0
 20 41  1  0
 21 42  1  0
 21 43  1  0
 21 44  1  0
 22 45  1  0
 22 46  1  0
 22 47  1  0
 25 48  1  0
 26 49  1  0
M  END
$$$$
