
     RDKit          3D

 37 38  0  0  0  0  0  0  0  0999 V2000
   -5.2537    0.9474    1.1289 C   0  0  0  0  0  0  0  0  0  0  0  0
   -4.5270    1.0362   -0.1342 N   0  0  0  0  0  0  0  0  0  0  0  0
   -3.2525    1.7634    0.0057 C   0  0  0  0  0  0  0  0  0  0  0  0
   -1.9974    0.8785    0.1363 C   0  0  0  0  0  0  0  0  0  0  0  0
   -1.8863   -0.1117   -0.9418 N   0  0  0  0  0  0  0  0  0  0  0  0
   -0.7186   -0.7172   -1.3674 C   0  0  0  0  0  0  0  0  0  0  0  0
   -0.6612   -1.4274   -2.3691 O   0  0  0  0  0  0  0  0  0  0  0  0
    0.4968   -0.4904   -0.5378 C   0  0  0  0  0  0  0  0  0  0  0  0
    1.7064   -0.7781   -1.0442 C   0  0  0  0  0  0  0  0  0  0  0  0
    2.9639   -0.6334   -0.3007 C   0  0  0  0  0  0  0  0  0  0  0  0
    3.9738   -1.5871   -0.4945 C   0  0  0  0  0  0  0  0  0  0  0  0
    5.1984   -1.4785    0.1722 C   0  0  0  0  0  0  0  0  0  0  0  0
    5.4200   -0.3977    1.0332 C   0  0  0  0  0  0  0  0  0  0  0  0
    6.7029   -0.2766    1.7368 N   0  0  0  0  0  4  0  0  0  0  0  0
    7.5601   -1.1467    1.5279 O   0  0  0  0  0  0  0  0  0  0  0  0
    6.8524    0.6886    2.4999 O   0  0  0  0  0  1  0  0  0  0  0  0
    4.4284    0.5722    1.2247 C   0  0  0  0  0  0  0  0  0  0  0  0
    3.2072    0.4526    0.5529 C   0  0  0  0  0  0  0  0  0  0  0  0
   -3.1286   -0.4102   -1.6609 C   0  0  0  0  0  0  0  0  0  0  0  0
   -4.3514   -0.3033   -0.7339 C   0  0  0  0  0  0  0  0  0  0  0  0
   -6.2118    0.4348    0.9874 H   0  0  0  0  0  0  0  0  0  0  0  0
   -4.6834    0.4116    1.8960 H   0  0  0  0  0  0  0  0  0  0  0  0
   -5.4872    1.9481    1.5091 H   0  0  0  0  0  0  0  0  0  0  0  0
   -3.1377    2.3738   -0.8999 H   0  0  0  0  0  0  0  0  0  0  0  0
   -3.2882    2.4790    0.8365 H   0  0  0  0  0  0  0  0  0  0  0  0
   -1.1081    1.5174    0.1369 H   0  0  0  0  0  0  0  0  0  0  0  0
   -2.0216    0.3257    1.0827 H   0  0  0  0  0  0  0  0  0  0  0  0
    0.3733   -0.1481    0.4791 H   0  0  0  0  0  0  0  0  0  0  0  0
    1.7942   -1.1701   -2.0570 H   0  0  0  0  0  0  0  0  0  0  0  0
    3.8108   -2.4312   -1.1635 H   0  0  0  0  0  0  0  0  0  0  0  0
    5.9599   -2.2381    0.0075 H   0  0  0  0  0  0  0  0  0  0  0  0
    4.5901    1.4243    1.8819 H   0  0  0  0  0  0  0  0  0  0  0  0
    2.4553    1.2260    0.6947 H   0  0  0  0  0  0  0  0  0  0  0  0
   -3.2081    0.3008   -2.4922 H   0  0  0  0  0  0  0  0  0  0  0  0
   -3.0799   -1.4167   -2.0910 H   0  0  0  0  0  0  0  0  0  0  0  0
   -4.2343   -1.0603    0.0540 H   0  0  0  0  0  0  0  0  0  0  0  0
   -5.2570   -0.5577   -1.2961 H   0  0  0  0  0  0  0  0  0  0  0  0
  1  2  1  0
  2  3  1  0
  3  4  1  0
  4  5  1  0
  5  6  1  0
  6  7  2  0
  6  8  1  0
  8  9  2  3
  9 10  1  0
 10 11  2  0
 11 12  1  0
 12 13  2  0
 13 14  1  0
 14 15  2  0
 14 16  1  0
 13 17  1  0
 17 18  2  0
  5 19  1  0
 19 20  1  0
 20  2  1  0
 18 10  1  0
  1 21  1  0
  1 22  1  0
  1 23  1  0
  3 24  1  0
  3 25  1  0
  4 26  1  0
  4 27  1  0
  8 28  1  0
  9 29  1  0
 11 30  1  0
 12 31  1  0
 17 32  1  0
 18 33  1  0
 19 34  1  0
 19 35  1  0
 20 36  1  0
 20 37  1  0
M  CHG  2  14   1  16  -1
M  END
$$$$
