
     RDKit          3D

 67 71  0  0  0  0  0  0  0  0999 V2000
   -7.0774   -3.9116    2.7681 C   0  0  0  0  0  0  0  0  0  0  0  0
   -5.7918   -3.4663    2.3584 O   0  0  0  0  0  0  0  0  0  0  0  0
   -5.3590   -2.3442    3.1183 C   0  0  0  0  0  0  0  0  0  0  0  0
   -4.0042   -1.9622    2.6183 C   0  0  0  0  0  0  0  0  0  0  0  0
   -3.7060   -0.7603    2.0988 C   0  0  0  0  0  0  0  0  0  0  0  0
   -2.3956   -0.3916    1.5887 C   0  0  0  0  0  0  0  0  0  0  0  0
   -1.3510   -0.3631    2.4505 C   0  0  0  0  0  0  0  0  0  0  0  0
   -0.0257    0.0416    1.9760 C   0  0  0  0  0  0  0  0  0  0  0  0
    1.0047    0.0863    2.8321 C   0  0  0  0  0  0  0  0  0  0  0  0
    2.3589    0.5103    2.4094 C   0  0  0  0  0  0  0  0  0  0  0  0
    3.2729    0.4413    3.2345 O   0  0  0  0  0  0  0  0  0  0  0  0
    2.5688    1.0830    1.0046 C   0  0  0  0  0  0  0  0  0  0  0  0
    2.6023    2.6124    1.1576 C   0  0  0  0  0  0  0  0  0  0  0  0
    3.8599    0.7237    0.4801 O   0  0  0  0  0  0  0  0  0  0  0  0
    4.0443   -0.6095    0.2777 C   0  0  0  0  0  0  0  0  0  0  0  0
    3.2030   -1.4631    0.5136 O   0  0  0  0  0  0  0  0  0  0  0  0
    5.4078   -0.8750   -0.2630 C   0  0  0  0  0  0  0  0  0  0  0  0
    6.2947    0.1467   -0.5569 C   0  0  0  0  0  0  0  0  0  0  0  0
    7.5372   -0.0827   -1.0520 N   0  0  0  0  0  0  0  0  0  0  0  0
    7.8743   -1.3725   -1.2481 C   0  0  0  0  0  0  0  0  0  0  0  0
    9.1307   -1.6853   -1.7527 C   0  0  0  0  0  0  0  0  0  0  0  0
    9.5171   -3.0089   -1.9692 C   0  0  0  0  0  0  0  0  0  0  0  0
    8.6320   -4.0382   -1.6760 C   0  0  0  0  0  0  0  0  0  0  0  0
    7.3673   -3.7363   -1.1685 C   0  0  0  0  0  0  0  0  0  0  0  0
    6.9702   -2.4236   -0.9490 C   0  0  0  0  0  0  0  0  0  0  0  0
    5.7404   -2.1779   -0.4586 N   0  0  0  0  0  0  0  0  0  0  0  0
    1.4541    0.7721    0.0062 C   0  0  0  0  0  0  0  0  0  0  0  0
    1.6184    0.9018   -1.2101 O   0  0  0  0  0  0  0  0  0  0  0  0
    0.1379    0.3719    0.5672 C   0  0  0  0  0  0  0  0  0  0  0  0
   -0.9476    0.3148   -0.2239 C   0  0  0  0  0  0  0  0  0  0  0  0
   -2.2343   -0.0369    0.2253 N   0  0  0  0  0  0  0  0  0  0  0  0
   -3.3264   -0.1543   -0.7673 C   0  0  0  0  0  0  0  0  0  0  0  0
   -3.7198    1.1979   -1.3305 C   0  0  0  0  0  0  0  0  0  0  0  0
   -3.5836    1.4667   -2.7001 C   0  0  0  0  0  0  0  0  0  0  0  0
   -3.9495    2.7110   -3.2274 C   0  0  0  0  0  0  0  0  0  0  0  0
   -4.4615    3.7037   -2.3927 C   0  0  0  0  0  0  0  0  0  0  0  0
   -4.8558    4.9553   -2.7772 O   0  0  0  0  0  0  0  0  0  0  0  0
   -4.6431    5.3042   -4.1398 C   0  0  0  0  0  0  0  0  0  0  0  0
   -4.6070    3.4392   -1.0296 C   0  0  0  0  0  0  0  0  0  0  0  0
   -4.2388    2.2000   -0.5003 C   0  0  0  0  0  0  0  0  0  0  0  0
   -7.8246   -3.1300    2.5981 H   0  0  0  0  0  0  0  0  0  0  0  0
   -7.3460   -4.7871    2.1703 H   0  0  0  0  0  0  0  0  0  0  0  0
   -7.0662   -4.2002    3.8236 H   0  0  0  0  0  0  0  0  0  0  0  0
   -5.2939   -2.6140    4.1787 H   0  0  0  0  0  0  0  0  0  0  0  0
   -6.0763   -1.5230    3.0047 H   0  0  0  0  0  0  0  0  0  0  0  0
   -3.2430   -2.7370    2.6727 H   0  0  0  0  0  0  0  0  0  0  0  0
   -4.4768    0.0008    2.0091 H   0  0  0  0  0  0  0  0  0  0  0  0
   -1.4775   -0.6236    3.4969 H   0  0  0  0  0  0  0  0  0  0  0  0
    0.9122   -0.1847    3.8782 H   0  0  0  0  0  0  0  0  0  0  0  0
    1.6555    3.0069    1.5437 H   0  0  0  0  0  0  0  0  0  0  0  0
    2.8063    3.0982    0.1954 H   0  0  0  0  0  0  0  0  0  0  0  0
    3.4026    2.9226    1.8404 H   0  0  0  0  0  0  0  0  0  0  0  0
    6.0496    1.1925   -0.4111 H   0  0  0  0  0  0  0  0  0  0  0  0
    9.8225   -0.8776   -1.9811 H   0  0  0  0  0  0  0  0  0  0  0  0
   10.5052   -3.2309   -2.3642 H   0  0  0  0  0  0  0  0  0  0  0  0
    8.9198   -5.0740   -1.8386 H   0  0  0  0  0  0  0  0  0  0  0  0
    6.6743   -4.5423   -0.9377 H   0  0  0  0  0  0  0  0  0  0  0  0
   -0.8907    0.5456   -1.2855 H   0  0  0  0  0  0  0  0  0  0  0  0
   -2.9936   -0.8191   -1.5752 H   0  0  0  0  0  0  0  0  0  0  0  0
   -4.2264   -0.6282   -0.3607 H   0  0  0  0  0  0  0  0  0  0  0  0
   -3.1831    0.7093   -3.3719 H   0  0  0  0  0  0  0  0  0  0  0  0
   -3.8213    2.8697   -4.2931 H   0  0  0  0  0  0  0  0  0  0  0  0
   -3.5794    5.2593   -4.3981 H   0  0  0  0  0  0  0  0  0  0  0  0
   -5.2398    4.6723   -4.8066 H   0  0  0  0  0  0  0  0  0  0  0  0
   -4.9753    6.3380   -4.2753 H   0  0  0  0  0  0  0  0  0  0  0  0
   -5.0038    4.2089   -0.3722 H   0  0  0  0  0  0  0  0  0  0  0  0
   -4.3492    2.0276    0.5667 H   0  0  0  0  0  0  0  0  0  0  0  0
  1  2  1  0
  2  3  1  0
  3  4  1  0
  4  5  2  3
  5  6  1  0
  6  7  2  0
  7  8  1  0
  8  9  2  0
  9 10  1  0
 10 11  2  0
 10 12  1  0
 12 13  1  0
 12 14  1  0
 14 15  1  0
 15 16  2  0
 15 17  1  0
 17 18  2  0
 18 19  1  0
 19 20  2  0
 20 21  1  0
 21 22  2  0
 22 23  1  0
 23 24  2  0
 24 25  1  0
 25 26  2  0
 12 27  1  0
 27 28  2  0
 27 29  1  0
 29 30  2  0
 30 31  1  0
 31 32  1  0
 32 33  1  0
 33 34  2  0
 34 35  1  0
 35 36  2  0
 36 37  1  0
 37 38  1  0
 36 39  1  0
 39 40  2  0
 31  6  1  0
 40 33  1  0
 29  8  1  0
 26 17  1  0
 25 20  1  0
  1 41  1  0
  1 42  1  0
  1 43  1  0
  3 44  1  0
  3 45  1  0
  4 46  1  0
  5 47  1  0
  7 48  1  0
  9 49  1  0
 13 50  1  0
 13 51  1  0
 13 52  1  0
 18 53  1  0
 21 54  1  0
 22 55  1  0
 23 56  1  0
 24 57  1  0
 30 58  1  0
 32 59  1  0
 32 60  1  0
 34 61  1  0
 35 62  1  0
 38 63  1  0
 38 64  1  0
 38 65  1  0
 39 66  1  0
 40 67  1  0
M  END
$$$$
