
     RDKit          3D

 63 64  0  0  0  0  0  0  0  0999 V2000
   -2.8227   -4.7286    1.0601 C   0  0  0  0  0  0  0  0  0  0  0  0
   -3.0447   -3.2289    1.2811 C   0  0  0  0  0  0  0  0  0  0  0  0
   -4.3377   -2.7983    0.5917 C   0  0  0  0  0  0  0  0  0  0  0  0
   -1.8067   -2.4458    0.7963 C   0  0  0  0  0  0  0  0  0  0  0  0
   -1.8432   -0.9373    1.0982 C   0  0  0  0  0  0  0  0  0  0  0  0
   -0.4900   -0.4345    1.3414 N   0  0  0  0  0  0  0  0  0  0  0  0
    0.0916   -0.4811    2.5787 C   0  0  0  0  0  0  0  0  0  0  0  0
   -0.5229   -0.9014    3.5583 O   0  0  0  0  0  0  0  0  0  0  0  0
    1.4509   -0.0143    2.7109 C   0  0  0  0  0  0  0  0  0  0  0  0
    2.0787   -0.0757    3.9397 N   0  0  0  0  0  0  0  0  0  0  0  0
    3.3317    0.4320    3.8212 C   0  0  0  0  0  0  0  0  0  0  0  0
    3.5657    0.8240    2.5947 N   0  0  0  0  0  0  0  0  0  0  0  0
    2.4039    0.5606    1.8710 C   0  0  0  0  0  0  0  0  0  0  0  0
    2.2836    0.8135    0.4234 C   0  0  0  0  0  0  0  0  0  0  0  0
    1.5185    0.1220   -0.2524 O   0  0  0  0  0  0  0  0  0  0  0  0
    3.0369    1.8377   -0.1606 N   0  0  0  0  0  0  0  0  0  0  0  0
    3.9287    2.7176    0.5805 C   0  0  0  0  0  0  0  0  0  0  0  0
    3.1150    1.8910   -1.6167 C   0  0  0  0  0  0  0  0  0  0  0  0
    4.3739    1.2490   -2.1515 C   0  0  0  0  0  0  0  0  0  0  0  0
    5.4666    2.0334   -2.5485 C   0  0  0  0  0  0  0  0  0  0  0  0
    6.6327    1.4330   -3.0258 C   0  0  0  0  0  0  0  0  0  0  0  0
    6.7197    0.0442   -3.1097 C   0  0  0  0  0  0  0  0  0  0  0  0
    5.6419   -0.7453   -2.7149 C   0  0  0  0  0  0  0  0  0  0  0  0
    4.4752   -0.1470   -2.2369 C   0  0  0  0  0  0  0  0  0  0  0  0
   -2.4030   -0.1470   -0.0898 C   0  0  0  0  0  0  0  0  0  0  0  0
   -1.8349   -0.0292   -1.1675 O   0  0  0  0  0  0  0  0  0  0  0  0
   -3.5956    0.4189    0.2408 O   0  0  0  0  0  0  0  0  0  0  0  0
   -4.3173    1.2429   -0.7101 C   0  0  0  0  0  0  0  0  0  0  0  0
   -5.5812    1.6867    0.0417 C   0  0  0  0  0  0  0  0  0  0  0  0
   -4.7386    0.4331   -1.9408 C   0  0  0  0  0  0  0  0  0  0  0  0
   -3.5119    2.4897   -1.0914 C   0  0  0  0  0  0  0  0  0  0  0  0
   -2.7083   -4.9610   -0.0044 H   0  0  0  0  0  0  0  0  0  0  0  0
   -3.6681   -5.3087    1.4454 H   0  0  0  0  0  0  0  0  0  0  0  0
   -1.9222   -5.0707    1.5811 H   0  0  0  0  0  0  0  0  0  0  0  0
   -3.1603   -3.0669    2.3606 H   0  0  0  0  0  0  0  0  0  0  0  0
   -4.6348   -1.7944    0.9037 H   0  0  0  0  0  0  0  0  0  0  0  0
   -5.1632   -3.4680    0.8565 H   0  0  0  0  0  0  0  0  0  0  0  0
   -4.2322   -2.8084   -0.4981 H   0  0  0  0  0  0  0  0  0  0  0  0
   -1.6626   -2.6163   -0.2788 H   0  0  0  0  0  0  0  0  0  0  0  0
   -0.9291   -2.8875    1.2882 H   0  0  0  0  0  0  0  0  0  0  0  0
   -2.4419   -0.7331    1.9933 H   0  0  0  0  0  0  0  0  0  0  0  0
    0.0888   -0.2520    0.5186 H   0  0  0  0  0  0  0  0  0  0  0  0
    1.6494   -0.4448    4.7789 H   0  0  0  0  0  0  0  0  0  0  0  0
    4.0231    0.4893    4.6516 H   0  0  0  0  0  0  0  0  0  0  0  0
    4.8803    2.2069    0.7514 H   0  0  0  0  0  0  0  0  0  0  0  0
    4.1062    3.6330    0.0079 H   0  0  0  0  0  0  0  0  0  0  0  0
    3.4781    3.0109    1.5316 H   0  0  0  0  0  0  0  0  0  0  0  0
    3.0561    2.9423   -1.9241 H   0  0  0  0  0  0  0  0  0  0  0  0
    2.2473    1.4011   -2.0745 H   0  0  0  0  0  0  0  0  0  0  0  0
    5.4169    3.1181   -2.4858 H   0  0  0  0  0  0  0  0  0  0  0  0
    7.4750    2.0483   -3.3306 H   0  0  0  0  0  0  0  0  0  0  0  0
    7.6284   -0.4229   -3.4796 H   0  0  0  0  0  0  0  0  0  0  0  0
    5.7084   -1.8283   -2.7764 H   0  0  0  0  0  0  0  0  0  0  0  0
    3.6413   -0.7748   -1.9287 H   0  0  0  0  0  0  0  0  0  0  0  0
   -5.3194    2.2371    0.9528 H   0  0  0  0  0  0  0  0  0  0  0  0
   -6.1681    0.8185    0.3635 H   0  0  0  0  0  0  0  0  0  0  0  0
   -6.2197    2.3255   -0.5774 H   0  0  0  0  0  0  0  0  0  0  0  0
   -5.4114    1.0093   -2.5849 H   0  0  0  0  0  0  0  0  0  0  0  0
   -5.2482   -0.4900   -1.6430 H   0  0  0  0  0  0  0  0  0  0  0  0
   -3.8795    0.1345   -2.5485 H   0  0  0  0  0  0  0  0  0  0  0  0
   -4.1191    3.1939   -1.6706 H   0  0  0  0  0  0  0  0  0  0  0  0
   -3.1419    3.0023   -0.1962 H   0  0  0  0  0  0  0  0  0  0  0  0
   -2.6345    2.2415   -1.6963 H   0  0  0  0  0  0  0  0  0  0  0  0
  1  2  1  0
  2  3  1  0
  2  4  1  0
  4  5  1  0
  5  6  1  0
  6  7  1  0
  7  8  2  0
  7  9  1  0
  9 10  1  0
 10 11  1  0
 11 12  2  0
 12 13  1  0
 13 14  1  0
 14 15  2  0
 14 16  1  0
 16 17  1  0
 16 18  1  0
 18 19  1  0
 19 20  2  0
 20 21  1  0
 21 22  2  0
 22 23  1  0
 23 24  2  0
  5 25  1  0
 25 26  2  0
 25 27  1  0
 27 28  1  0
 28 29  1  0
 28 30  1  0
 28 31  1  0
 13  9  2  0
 24 19  1  0
  1 32  1  0
  1 33  1  0
  1 34  1  0
  2 35  1  0
  3 36  1  0
  3 37  1  0
  3 38  1  0
  4 39  1  0
  4 40  1  0
  5 41  1  0
  6 42  1  0
 10 43  1  0
 11 44  1  0
 17 45  1  0
 17 46  1  0
 17 47  1  0
 18 48  1  0
 18 49  1  0
 20 50  1  0
 21 51  1  0
 22 52  1  0
 23 53  1  0
 24 54  1  0
 29 55  1  0
 29 56  1  0
 29 57  1  0
 30 58  1  0
 30 59  1  0
 30 60  1  0
 31 61  1  0
 31 62  1  0
 31 63  1  0
M  END
$$$$
