
     RDKit          3D

 33 35  0  0  0  0  0  0  0  0999 V2000
    4.1518   -0.4463    1.8664 C   0  0  0  0  0  0  0  0  0  0  0  0
    4.4607    0.1797    0.5429 C   0  0  0  0  0  0  0  0  0  0  0  0
    5.7928    0.4899    0.1063 C   0  0  0  0  0  0  0  0  0  0  0  0
    5.8254    1.0598   -1.1451 C   0  0  0  0  0  0  0  0  0  0  0  0
    4.2635    1.2279   -1.8067 S   0  0  0  0  0  0  0  0  0  0  0  0
    3.5271    0.5378   -0.4209 C   0  0  0  0  0  0  0  0  0  0  0  0
    2.0861    0.4155   -0.4194 C   0  0  0  0  0  0  0  0  0  0  0  0
    1.4502   -0.0941    0.5878 N   0  0  0  0  0  0  0  0  0  0  0  0
    0.0897   -0.1566    0.4717 N   0  0  0  0  0  0  0  0  0  0  0  0
   -0.6726   -0.6947    1.4967 C   0  0  0  0  0  0  0  0  0  0  0  0
   -0.2068   -1.1393    2.5428 O   0  0  0  0  0  0  0  0  0  0  0  0
   -2.0925   -0.7059    1.2481 C   0  0  0  0  0  0  0  0  0  0  0  0
   -2.9701   -1.2532    2.1690 N   0  0  0  0  0  0  0  0  0  0  0  0
   -4.2759   -1.2048    1.8010 N   0  0  0  0  0  0  0  0  0  0  0  0
   -4.2065   -0.6042    0.6248 C   0  0  0  0  0  0  0  0  0  0  0  0
   -2.9091   -0.2720    0.2329 C   0  0  0  0  0  0  0  0  0  0  0  0
   -2.8992    0.3946   -1.0822 C   0  0  0  0  0  0  0  0  0  0  0  0
   -4.4159    0.7226   -1.3009 C   0  0  0  0  0  0  0  0  0  0  0  0
   -5.2356   -0.2163   -0.3557 C   0  0  0  0  0  0  0  0  0  0  0  0
    5.0674   -0.6288    2.4389 H   0  0  0  0  0  0  0  0  0  0  0  0
    3.6483   -1.4086    1.7296 H   0  0  0  0  0  0  0  0  0  0  0  0
    3.5120    0.2109    2.4638 H   0  0  0  0  0  0  0  0  0  0  0  0
    6.6863    0.3007    0.6902 H   0  0  0  0  0  0  0  0  0  0  0  0
    6.6943    1.3851   -1.7009 H   0  0  0  0  0  0  0  0  0  0  0  0
    1.5399    0.7735   -1.3114 H   0  0  0  0  0  0  0  0  0  0  0  0
   -0.3575    0.1753   -0.3712 H   0  0  0  0  0  0  0  0  0  0  0  0
   -2.7229   -1.6741    3.0600 H   0  0  0  0  0  0  0  0  0  0  0  0
   -2.2981    1.3078   -1.0955 H   0  0  0  0  0  0  0  0  0  0  0  0
   -2.5417   -0.2884   -1.8595 H   0  0  0  0  0  0  0  0  0  0  0  0
   -4.5979    1.7657   -1.0096 H   0  0  0  0  0  0  0  0  0  0  0  0
   -4.7144    0.6186   -2.3488 H   0  0  0  0  0  0  0  0  0  0  0  0
   -6.0806    0.3126    0.0928 H   0  0  0  0  0  0  0  0  0  0  0  0
   -5.5984   -1.0906   -0.9054 H   0  0  0  0  0  0  0  0  0  0  0  0
  1  2  1  0
  2  3  1  0
  3  4  2  0
  4  5  1  0
  5  6  1  0
  6  7  1  0
  7  8  2  3
  8  9  1  0
  9 10  1  0
 10 11  2  0
 10 12  1  0
 12 13  1  0
 13 14  1  0
 14 15  2  0
 15 16  1  0
 16 17  1  0
 17 18  1  0
 18 19  1  0
  6  2  2  0
 16 12  2  0
 19 15  1  0
  1 20  1  0
  1 21  1  0
  1 22  1  0
  3 23  1  0
  4 24  1  0
  7 25  1  0
  9 26  1  0
 13 27  1  0
 17 28  1  0
 17 29  1  0
 18 30  1  0
 18 31  1  0
 19 32  1  0
 19 33  1  0
M  END
$$$$
