
     RDKit          3D

 49 51  0  0  0  0  0  0  0  0999 V2000
    6.0565    1.9763   -2.5352 C   0  0  0  0  0  0  0  0  0  0  0  0
    6.0302    1.6959   -1.1438 O   0  0  0  0  0  0  0  0  0  0  0  0
    4.8650    1.1987   -0.6133 C   0  0  0  0  0  0  0  0  0  0  0  0
    3.7055    0.9411   -1.3531 C   0  0  0  0  0  0  0  0  0  0  0  0
    2.5574    0.4249   -0.7326 C   0  0  0  0  0  0  0  0  0  0  0  0
    2.5570    0.1881    0.6503 C   0  0  0  0  0  0  0  0  0  0  0  0
    3.7248    0.4417    1.3898 C   0  0  0  0  0  0  0  0  0  0  0  0
    4.8755    0.9445    0.7715 C   0  0  0  0  0  0  0  0  0  0  0  0
    6.0510    1.2196    1.4261 O   0  0  0  0  0  0  0  0  0  0  0  0
    6.0944    0.9990    2.8283 C   0  0  0  0  0  0  0  0  0  0  0  0
    1.3410   -0.3616    1.3675 C   0  0  0  0  0  0  0  0  0  0  0  0
    0.1284   -0.4247    0.5372 N   0  0  0  0  0  0  0  0  0  0  0  0
   -1.1486   -0.6038    1.1208 C   0  0  0  0  0  0  0  0  0  0  0  0
   -1.3870   -0.9416    2.7520 S   0  0  0  0  0  0  0  0  0  0  0  0
   -2.1638   -0.3682    0.2013 N   0  0  0  0  0  0  0  0  0  0  0  0
   -3.5264   -0.7511    0.2019 C   0  0  0  0  0  0  0  0  0  0  0  0
   -3.9679   -1.9099    0.8490 C   0  0  0  0  0  0  0  0  0  0  0  0
   -5.3100   -2.2978    0.7989 C   0  0  0  0  0  0  0  0  0  0  0  0
   -6.2363   -1.5490    0.0735 C   0  0  0  0  0  0  0  0  0  0  0  0
   -7.6828   -1.9441    0.0482 C   0  0  0  0  0  0  0  0  0  0  0  0
   -5.8010   -0.3959   -0.5877 C   0  0  0  0  0  0  0  0  0  0  0  0
   -4.4529    0.0082   -0.5433 C   0  0  0  0  0  0  0  0  0  0  0  0
   -4.0577    1.2565   -1.2860 C   0  0  0  0  0  0  0  0  0  0  0  0
    0.3845   -0.8193   -0.8552 C   0  0  0  0  0  0  0  0  0  0  0  0
    1.3105    0.1795   -1.5427 C   0  0  0  0  0  0  0  0  0  0  0  0
    5.9028    1.0664   -3.1247 H   0  0  0  0  0  0  0  0  0  0  0  0
    5.3244    2.7472   -2.7973 H   0  0  0  0  0  0  0  0  0  0  0  0
    7.0496    2.3657   -2.7794 H   0  0  0  0  0  0  0  0  0  0  0  0
    3.6690    1.1333   -2.4205 H   0  0  0  0  0  0  0  0  0  0  0  0
    3.7071    0.2393    2.4565 H   0  0  0  0  0  0  0  0  0  0  0  0
    5.3685    1.6305    3.3509 H   0  0  0  0  0  0  0  0  0  0  0  0
    5.9437   -0.0591    3.0664 H   0  0  0  0  0  0  0  0  0  0  0  0
    7.0919    1.2794    3.1804 H   0  0  0  0  0  0  0  0  0  0  0  0
    1.1398    0.2719    2.2384 H   0  0  0  0  0  0  0  0  0  0  0  0
    1.5628   -1.3806    1.7082 H   0  0  0  0  0  0  0  0  0  0  0  0
   -1.9196    0.3687   -0.4449 H   0  0  0  0  0  0  0  0  0  0  0  0
   -3.2775   -2.5578    1.3795 H   0  0  0  0  0  0  0  0  0  0  0  0
   -5.6195   -3.1977    1.3255 H   0  0  0  0  0  0  0  0  0  0  0  0
   -8.2120   -1.4805    0.8864 H   0  0  0  0  0  0  0  0  0  0  0  0
   -8.1575   -1.6303   -0.8874 H   0  0  0  0  0  0  0  0  0  0  0  0
   -7.7919   -3.0315    0.1180 H   0  0  0  0  0  0  0  0  0  0  0  0
   -6.5234    0.1982   -1.1454 H   0  0  0  0  0  0  0  0  0  0  0  0
   -3.3596    1.0118   -2.0929 H   0  0  0  0  0  0  0  0  0  0  0  0
   -3.5939    1.9759   -0.6032 H   0  0  0  0  0  0  0  0  0  0  0  0
   -4.9244    1.7506   -1.7381 H   0  0  0  0  0  0  0  0  0  0  0  0
    0.8436   -1.8164   -0.8242 H   0  0  0  0  0  0  0  0  0  0  0  0
   -0.5359   -0.9262   -1.4353 H   0  0  0  0  0  0  0  0  0  0  0  0
    1.5728   -0.2031   -2.5359 H   0  0  0  0  0  0  0  0  0  0  0  0
    0.7919    1.1374   -1.6723 H   0  0  0  0  0  0  0  0  0  0  0  0
  1  2  1  0
  2  3  1  0
  3  4  2  0
  4  5  1  0
  5  6  2  0
  6  7  1  0
  7  8  2  0
  8  9  1  0
  9 10  1  0
  6 11  1  0
 11 12  1  0
 12 13  1  0
 13 14  2  0
 13 15  1  0
 15 16  1  0
 16 17  2  0
 17 18  1  0
 18 19  2  0
 19 20  1  0
 19 21  1  0
 21 22  2  0
 22 23  1  0
 12 24  1  0
 24 25  1  0
  8  3  1  0
 22 16  1  0
 25  5  1  0
  1 26  1  0
  1 27  1  0
  1 28  1  0
  4 29  1  0
  7 30  1  0
 10 31  1  0
 10 32  1  0
 10 33  1  0
 11 34  1  0
 11 35  1  0
 15 36  1  0
 17 37  1  0
 18 38  1  0
 20 39  1  0
 20 40  1  0
 20 41  1  0
 21 42  1  0
 23 43  1  0
 23 44  1  0
 23 45  1  0
 24 46  1  0
 24 47  1  0
 25 48  1  0
 25 49  1  0
M  END
$$$$
