
     RDKit          3D

 72 77  0  0  0  0  0  0  0  0999 V2000
    3.9398    1.6722    0.4131 O   0  0  0  0  0  0  0  0  0  0  0  0
    4.4451    1.0615   -0.5261 C   0  0  0  0  0  0  0  0  0  0  0  0
    3.6637    0.7413   -1.7867 C   0  0  0  0  0  0  0  0  0  0  0  0
    3.2007   -1.0127   -1.8391 S   0  0  0  0  0  0  0  0  0  0  0  0
    2.5184   -1.1560   -0.2229 C   0  0  0  0  0  0  0  0  0  0  0  0
    3.2777   -1.7615    0.6490 N   0  0  0  0  0  0  0  0  0  0  0  0
    2.8307   -1.9095    1.9810 C   0  0  0  0  0  0  0  0  0  0  0  0
    3.6633   -2.5411    2.9060 C   0  0  0  0  0  0  0  0  0  0  0  0
    3.2533   -2.7013    4.2323 C   0  0  0  0  0  0  0  0  0  0  0  0
    2.0045   -2.2319    4.6428 C   0  0  0  0  0  0  0  0  0  0  0  0
    1.1618   -1.5994    3.7288 C   0  0  0  0  0  0  0  0  0  0  0  0
    1.5758   -1.4375    2.4042 C   0  0  0  0  0  0  0  0  0  0  0  0
    0.7547   -0.7857    1.4018 C   0  0  0  0  0  0  0  0  0  0  0  0
   -0.4459   -0.2614    1.5273 N   0  0  0  0  0  0  0  0  0  0  0  0
   -0.7738    0.2220    0.2768 C   0  0  0  0  0  0  0  0  0  0  0  0
   -2.0685    0.9567    0.1268 C   0  0  0  0  0  0  0  0  0  0  0  0
   -2.7757    0.7800   -1.2108 C   0  0  0  0  0  0  0  0  0  0  0  0
   -2.1554    0.5243   -2.2476 O   0  0  0  0  0  0  0  0  0  0  0  0
   -4.1510    0.9712   -1.2305 N   0  0  0  0  0  0  0  0  0  0  0  0
   -4.9406    1.4721   -0.0932 C   0  0  0  0  0  0  0  0  0  0  0  0
   -6.3048    2.0366   -0.5251 C   0  0  0  0  0  0  0  0  0  0  0  0
   -7.0841    1.0370   -1.2760 N   0  0  0  0  0  0  0  0  0  0  0  0
   -8.1594    0.3693   -0.6789 C   0  0  0  0  0  0  0  0  0  0  0  0
   -8.3702    0.3258    0.7074 C   0  0  0  0  0  0  0  0  0  0  0  0
   -9.4627   -0.3530    1.2645 C   0  0  0  0  0  0  0  0  0  0  0  0
  -10.3762   -1.0037    0.4431 C   0  0  0  0  0  0  0  0  0  0  0  0
  -10.1967   -0.9757   -0.9349 C   0  0  0  0  0  0  0  0  0  0  0  0
   -9.1038   -0.2950   -1.4829 C   0  0  0  0  0  0  0  0  0  0  0  0
   -6.3134    0.2200   -2.2487 C   0  0  0  0  0  0  0  0  0  0  0  0
   -4.8900    0.7622   -2.4828 C   0  0  0  0  0  0  0  0  0  0  0  0
    0.2547   -0.0337   -0.6196 C   0  0  0  0  0  0  0  0  0  0  0  0
    0.3792    0.2121   -1.9203 O   0  0  0  0  0  0  0  0  0  0  0  0
    1.2455   -0.6622    0.1170 N   0  0  0  0  0  0  0  0  0  0  0  0
    5.7467    0.6095   -0.5330 N   0  0  0  0  0  0  0  0  0  0  0  0
    6.5452    0.6394    0.6817 C   0  0  0  0  0  0  0  0  0  0  0  0
    8.0429    0.5450    0.3903 C   0  0  0  0  0  0  0  0  0  0  0  0
    8.6140    1.7290   -0.3753 C   0  0  0  0  0  0  0  0  0  0  0  0
    9.8430    1.1147   -0.9976 C   0  0  0  0  0  0  0  0  0  0  0  0
    9.3534   -0.2725   -1.3591 C   0  0  0  0  0  0  0  0  0  0  0  0
    8.3363   -0.6227   -0.4058 O   0  0  0  0  0  0  0  0  0  0  0  0
    2.7763    1.3791   -1.8272 H   0  0  0  0  0  0  0  0  0  0  0  0
    4.2775    0.9769   -2.6621 H   0  0  0  0  0  0  0  0  0  0  0  0
    4.6362   -2.9076    2.5888 H   0  0  0  0  0  0  0  0  0  0  0  0
    3.9098   -3.1928    4.9457 H   0  0  0  0  0  0  0  0  0  0  0  0
    1.6867   -2.3589    5.6751 H   0  0  0  0  0  0  0  0  0  0  0  0
    0.1891   -1.2318    4.0468 H   0  0  0  0  0  0  0  0  0  0  0  0
   -2.7293    0.6202    0.9333 H   0  0  0  0  0  0  0  0  0  0  0  0
   -1.8842    2.0286    0.2645 H   0  0  0  0  0  0  0  0  0  0  0  0
   -5.0795    0.6301    0.5950 H   0  0  0  0  0  0  0  0  0  0  0  0
   -4.3688    2.2478    0.4264 H   0  0  0  0  0  0  0  0  0  0  0  0
   -6.1369    2.8917   -1.1933 H   0  0  0  0  0  0  0  0  0  0  0  0
   -6.8469    2.4499    0.3325 H   0  0  0  0  0  0  0  0  0  0  0  0
   -7.6780    0.7953    1.3984 H   0  0  0  0  0  0  0  0  0  0  0  0
   -9.5929   -0.3737    2.3439 H   0  0  0  0  0  0  0  0  0  0  0  0
  -11.2243   -1.5285    0.8741 H   0  0  0  0  0  0  0  0  0  0  0  0
  -10.9081   -1.4734   -1.5886 H   0  0  0  0  0  0  0  0  0  0  0  0
   -9.0111   -0.2687   -2.5662 H   0  0  0  0  0  0  0  0  0  0  0  0
   -6.8386    0.1928   -3.2098 H   0  0  0  0  0  0  0  0  0  0  0  0
   -6.2239   -0.8100   -1.8780 H   0  0  0  0  0  0  0  0  0  0  0  0
   -4.3405    0.0774   -3.1389 H   0  0  0  0  0  0  0  0  0  0  0  0
   -4.9342    1.7337   -2.9908 H   0  0  0  0  0  0  0  0  0  0  0  0
   -0.5209    0.4013   -2.2765 H   0  0  0  0  0  0  0  0  0  0  0  0
    5.9551   -0.1635   -1.1601 H   0  0  0  0  0  0  0  0  0  0  0  0
    6.3181    1.5452    1.2548 H   0  0  0  0  0  0  0  0  0  0  0  0
    6.2267   -0.2269    1.2734 H   0  0  0  0  0  0  0  0  0  0  0  0
    8.5828    0.4263    1.3381 H   0  0  0  0  0  0  0  0  0  0  0  0
    8.8343    2.5841    0.2688 H   0  0  0  0  0  0  0  0  0  0  0  0
    7.9333    2.0630   -1.1671 H   0  0  0  0  0  0  0  0  0  0  0  0
   10.6423    1.0462   -0.2503 H   0  0  0  0  0  0  0  0  0  0  0  0
   10.2259    1.6706   -1.8578 H   0  0  0  0  0  0  0  0  0  0  0  0
    8.8924   -0.2843   -2.3537 H   0  0  0  0  0  0  0  0  0  0  0  0
   10.1537   -1.0190   -1.3362 H   0  0  0  0  0  0  0  0  0  0  0  0
  1  2  2  0
  2  3  1  0
  3  4  1  0
  4  5  1  0
  5  6  2  0
  6  7  1  0
  7  8  2  0
  8  9  1  0
  9 10  2  0
 10 11  1  0
 11 12  2  0
 12 13  1  0
 13 14  2  0
 14 15  1  0
 15 16  1  0
 16 17  1  0
 17 18  2  0
 17 19  1  0
 19 20  1  0
 20 21  1  0
 21 22  1  0
 22 23  1  0
 23 24  2  0
 24 25  1  0
 25 26  2  0
 26 27  1  0
 27 28  2  0
 22 29  1  0
 29 30  1  0
 15 31  2  0
 31 32  1  0
 31 33  1  0
  2 34  1  0
 34 35  1  0
 35 36  1  0
 36 37  1  0
 37 38  1  0
 38 39  1  0
 39 40  1  0
 33  5  1  0
 40 36  1  0
 12  7  1  0
 33 13  1  0
 30 19  1  0
 28 23  1  0
  3 41  1  0
  3 42  1  0
  8 43  1  0
  9 44  1  0
 10 45  1  0
 11 46  1  0
 16 47  1  0
 16 48  1  0
 20 49  1  0
 20 50  1  0
 21 51  1  0
 21 52  1  0
 24 53  1  0
 25 54  1  0
 26 55  1  0
 27 56  1  0
 28 57  1  0
 29 58  1  0
 29 59  1  0
 30 60  1  0
 30 61  1  0
 32 62  1  0
 34 63  1  0
 35 64  1  0
 35 65  1  0
 36 66  1  0
 37 67  1  0
 37 68  1  0
 38 69  1  0
 38 70  1  0
 39 71  1  0
 39 72  1  0
M  END
$$$$
