
     RDKit          3D

 53 58  0  0  0  0  0  0  0  0999 V2000
    7.0260    0.1183   -1.0957 C   0  0  0  0  0  0  0  0  0  0  0  0
    6.4457    1.4508   -0.6547 C   0  0  0  0  0  0  0  0  0  0  0  0
    5.1050    1.5997   -1.1182 O   0  0  0  0  0  0  0  0  0  0  0  0
    4.0820    1.1330   -0.3428 C   0  0  0  0  0  0  0  0  0  0  0  0
    4.2004    0.4224    0.8480 C   0  0  0  0  0  0  0  0  0  0  0  0
    3.0547    0.0022    1.5364 C   0  0  0  0  0  0  0  0  0  0  0  0
    1.7656    0.2805    1.0503 C   0  0  0  0  0  0  0  0  0  0  0  0
    0.5492   -0.2036    1.8346 C   0  0  0  0  0  0  0  0  0  0  0  0
   -0.2826    0.9250    2.2960 N   0  0  0  0  0  0  0  0  0  0  0  0
   -1.2779    1.3583    1.4020 C   0  0  0  0  0  0  0  0  0  0  0  0
   -1.7508    2.6664    1.5069 C   0  0  0  0  0  0  0  0  0  0  0  0
   -2.6686    3.1589    0.5857 C   0  0  0  0  0  0  0  0  0  0  0  0
   -3.0954    2.3691   -0.4858 C   0  0  0  0  0  0  0  0  0  0  0  0
   -3.9386    2.9274   -1.4616 C   0  0  0  0  0  0  0  0  0  0  0  0
   -4.3301    2.1941   -2.5784 C   0  0  0  0  0  0  0  0  0  0  0  0
   -3.8683    0.8974   -2.7406 C   0  0  0  0  0  0  0  0  0  0  0  0
   -3.0409    0.3274   -1.7692 C   0  0  0  0  0  0  0  0  0  0  0  0
   -2.6613    1.0223   -0.5924 C   0  0  0  0  0  0  0  0  0  0  0  0
   -1.8435    0.4795    0.4495 C   0  0  0  0  0  0  0  0  0  0  0  0
   -1.4903   -0.9733    0.5822 C   0  0  0  0  0  0  0  0  0  0  0  0
   -0.2891   -1.2396    1.1385 C   0  0  0  0  0  0  0  0  0  0  0  0
    0.2752   -2.6072    1.1978 C   0  0  0  0  0  0  0  0  0  0  0  0
    1.3189   -2.8588    1.7916 O   0  0  0  0  0  0  0  0  0  0  0  0
   -0.3935   -3.5912    0.4906 O   0  0  0  0  0  0  0  0  0  0  0  0
   -1.7501   -3.4050    0.1994 C   0  0  0  0  0  0  0  0  0  0  0  0
   -2.4821   -4.5532   -0.1086 C   0  0  0  0  0  0  0  0  0  0  0  0
   -3.8589   -4.4575   -0.2824 C   0  0  0  0  0  0  0  0  0  0  0  0
   -4.4881   -3.2249   -0.1235 C   0  0  0  0  0  0  0  0  0  0  0  0
   -3.7356   -2.0830    0.1763 C   0  0  0  0  0  0  0  0  0  0  0  0
   -2.3402   -2.1477    0.2936 C   0  0  0  0  0  0  0  0  0  0  0  0
    1.6617    0.9864   -0.1565 C   0  0  0  0  0  0  0  0  0  0  0  0
    2.8072    1.4070   -0.8399 C   0  0  0  0  0  0  0  0  0  0  0  0
    6.4787   -0.7219   -0.6582 H   0  0  0  0  0  0  0  0  0  0  0  0
    8.0769    0.0389   -0.8032 H   0  0  0  0  0  0  0  0  0  0  0  0
    6.9545    0.0108   -2.1832 H   0  0  0  0  0  0  0  0  0  0  0  0
    7.0259    2.2520   -1.1268 H   0  0  0  0  0  0  0  0  0  0  0  0
    6.5383    1.6119    0.4249 H   0  0  0  0  0  0  0  0  0  0  0  0
    5.1651    0.1615    1.2689 H   0  0  0  0  0  0  0  0  0  0  0  0
    3.1819   -0.5666    2.4570 H   0  0  0  0  0  0  0  0  0  0  0  0
    0.9131   -0.6427    2.7734 H   0  0  0  0  0  0  0  0  0  0  0  0
    0.2906    1.6935    2.6345 H   0  0  0  0  0  0  0  0  0  0  0  0
   -1.3865    3.3216    2.2937 H   0  0  0  0  0  0  0  0  0  0  0  0
   -3.0057    4.1886    0.6850 H   0  0  0  0  0  0  0  0  0  0  0  0
   -4.2853    3.9548   -1.3672 H   0  0  0  0  0  0  0  0  0  0  0  0
   -4.9746    2.6440   -3.3288 H   0  0  0  0  0  0  0  0  0  0  0  0
   -4.1412    0.3255   -3.6238 H   0  0  0  0  0  0  0  0  0  0  0  0
   -2.6706   -0.6768   -1.9620 H   0  0  0  0  0  0  0  0  0  0  0  0
   -1.9852   -5.5165   -0.1826 H   0  0  0  0  0  0  0  0  0  0  0  0
   -4.4438   -5.3443   -0.5121 H   0  0  0  0  0  0  0  0  0  0  0  0
   -5.5681   -3.1482   -0.2254 H   0  0  0  0  0  0  0  0  0  0  0  0
   -4.2647   -1.1436    0.3220 H   0  0  0  0  0  0  0  0  0  0  0  0
    0.6934    1.2221   -0.5888 H   0  0  0  0  0  0  0  0  0  0  0  0
    2.7016    1.9544   -1.7739 H   0  0  0  0  0  0  0  0  0  0  0  0
  1  2  1  0
  2  3  1  0
  3  4  1  0
  4  5  2  0
  5  6  1  0
  6  7  2  0
  7  8  1  0
  8  9  1  0
  9 10  1  0
 10 11  2  0
 11 12  1  0
 12 13  2  0
 13 14  1  0
 14 15  2  0
 15 16  1  0
 16 17  2  0
 17 18  1  0
 18 19  2  0
 19 20  1  0
 20 21  2  0
 21 22  1  0
 22 23  2  0
 22 24  1  0
 24 25  1  0
 25 26  2  0
 26 27  1  0
 27 28  2  0
 28 29  1  0
 29 30  2  0
  7 31  1  0
 31 32  2  0
 32  4  1  0
 21  8  1  0
 30 25  1  0
 19 10  1  0
 30 20  1  0
 18 13  1  0
  1 33  1  0
  1 34  1  0
  1 35  1  0
  2 36  1  0
  2 37  1  0
  5 38  1  0
  6 39  1  0
  8 40  1  0
  9 41  1  0
 11 42  1  0
 12 43  1  0
 14 44  1  0
 15 45  1  0
 16 46  1  0
 17 47  1  0
 26 48  1  0
 27 49  1  0
 28 50  1  0
 29 51  1  0
 31 52  1  0
 32 53  1  0
M  END
$$$$
