
     RDKit          3D

 38 40  0  0  0  0  0  0  0  0999 V2000
    3.2703    4.0066    1.0746 C   0  0  0  0  0  0  0  0  0  0  0  0
    3.1518    2.6158    0.4792 C   0  0  0  0  0  0  0  0  0  0  0  0
    1.9502    1.8579    1.0112 C   0  0  0  0  0  0  0  0  0  0  0  0
    1.0830    2.3631    1.7133 O   0  0  0  0  0  0  0  0  0  0  0  0
    1.9251    0.5491    0.5973 N   0  0  0  0  0  0  0  0  0  0  0  0
    0.8535   -0.3674    0.9564 C   0  0  0  0  0  0  0  0  0  0  0  0
    1.4092   -1.7612    0.9000 C   0  0  0  0  0  0  0  0  0  0  0  0
    1.1612   -2.8998    1.6410 C   0  0  0  0  0  0  0  0  0  0  0  0
    2.0005   -3.9119    1.1190 C   0  0  0  0  0  0  0  0  0  0  0  0
    2.7076   -3.3333    0.0917 C   0  0  0  0  0  0  0  0  0  0  0  0
    2.3584   -2.0290   -0.0519 O   0  0  0  0  0  0  0  0  0  0  0  0
   -0.3620   -0.2213    0.0572 C   0  0  0  0  0  0  0  0  0  0  0  0
   -0.2516    0.1438   -1.2904 C   0  0  0  0  0  0  0  0  0  0  0  0
   -1.3906    0.2616   -2.0950 C   0  0  0  0  0  0  0  0  0  0  0  0
   -1.1432    0.7310   -3.7451 Cl  0  0  0  0  0  0  0  0  0  0  0  0
   -2.6837    0.0028   -1.5792 C   0  0  0  0  0  0  0  0  0  0  0  0
   -3.8861    0.1006   -2.3150 C   0  0  0  0  0  0  0  0  0  0  0  0
   -5.1080   -0.1823   -1.7149 C   0  0  0  0  0  0  0  0  0  0  0  0
   -5.1053   -0.5618   -0.3884 C   0  0  0  0  0  0  0  0  0  0  0  0
   -3.9845   -0.6712    0.3570 N   0  0  0  0  0  0  0  0  0  0  0  0
   -2.8022   -0.3882   -0.2319 C   0  0  0  0  0  0  0  0  0  0  0  0
   -1.6463   -0.4956    0.5429 C   0  0  0  0  0  0  0  0  0  0  0  0
   -1.7940   -0.9035    1.8523 O   0  0  0  0  0  0  0  0  0  0  0  0
    3.3999    3.9574    2.1607 H   0  0  0  0  0  0  0  0  0  0  0  0
    4.1346    4.5280    0.6506 H   0  0  0  0  0  0  0  0  0  0  0  0
    2.3757    4.6047    0.8700 H   0  0  0  0  0  0  0  0  0  0  0  0
    4.0607    2.0448    0.7004 H   0  0  0  0  0  0  0  0  0  0  0  0
    3.0493    2.6910   -0.6100 H   0  0  0  0  0  0  0  0  0  0  0  0
    2.6794    0.1695    0.0401 H   0  0  0  0  0  0  0  0  0  0  0  0
    0.5757   -0.1317    1.9910 H   0  0  0  0  0  0  0  0  0  0  0  0
    0.4574   -2.9790    2.4601 H   0  0  0  0  0  0  0  0  0  0  0  0
    2.0811   -4.9372    1.4517 H   0  0  0  0  0  0  0  0  0  0  0  0
    3.4588   -3.6965   -0.5965 H   0  0  0  0  0  0  0  0  0  0  0  0
    0.7277    0.3393   -1.7217 H   0  0  0  0  0  0  0  0  0  0  0  0
   -3.8782    0.3999   -3.3612 H   0  0  0  0  0  0  0  0  0  0  0  0
   -6.0360   -0.1075   -2.2706 H   0  0  0  0  0  0  0  0  0  0  0  0
   -6.0321   -0.7947    0.1285 H   0  0  0  0  0  0  0  0  0  0  0  0
   -2.7673   -0.9938    1.9632 H   0  0  0  0  0  0  0  0  0  0  0  0
  1  2  1  0
  2  3  1  0
  3  4  2  0
  3  5  1  0
  5  6  1  0
  6  7  1  0
  7  8  2  0
  8  9  1  0
  9 10  2  0
 10 11  1  0
  6 12  1  0
 12 13  2  0
 13 14  1  0
 14 15  1  0
 14 16  2  0
 16 17  1  0
 17 18  2  0
 18 19  1  0
 19 20  2  0
 20 21  1  0
 21 22  2  0
 22 23  1  0
 11  7  1  0
 22 12  1  0
 21 16  1  0
  1 24  1  0
  1 25  1  0
  1 26  1  0
  2 27  1  0
  2 28  1  0
  5 29  1  0
  6 30  1  0
  8 31  1  0
  9 32  1  0
 10 33  1  0
 13 34  1  0
 17 35  1  0
 18 36  1  0
 19 37  1  0
 23 38  1  0
M  END
$$$$
