
     RDKit          3D

 47 49  0  0  0  0  0  0  0  0999 V2000
    7.3658   -1.0083   -0.5833 C   0  0  0  0  0  0  0  0  0  0  0  0
    6.6624   -0.2169    0.5084 C   0  0  0  0  0  0  0  0  0  0  0  0
    5.2881    0.3100    0.0911 C   0  0  0  0  0  0  0  0  0  0  0  0
    4.2641   -0.8017   -0.1542 C   0  0  0  0  0  0  0  0  0  0  0  0
    2.9392   -0.2805   -0.4840 N   0  0  0  0  0  0  0  0  0  0  0  0
    2.1056    0.1846    0.6126 C   0  0  0  0  0  0  0  0  0  0  0  0
    0.7005    0.4705    0.2040 C   0  0  0  0  0  0  0  0  0  0  0  0
   -0.3459    0.5836    1.1228 C   0  0  0  0  0  0  0  0  0  0  0  0
   -1.6190    0.9290    0.6674 C   0  0  0  0  0  0  0  0  0  0  0  0
   -2.7285    1.0591    1.6317 C   0  0  0  0  0  0  0  0  0  0  0  0
   -2.4907    1.5253    2.7455 O   0  0  0  0  0  0  0  0  0  0  0  0
   -4.1235    0.6687    1.3039 C   0  0  0  0  0  0  0  0  0  0  0  0
   -4.3967   -0.3580    0.3846 C   0  0  0  0  0  0  0  0  0  0  0  0
   -5.7189   -0.6906    0.0792 C   0  0  0  0  0  0  0  0  0  0  0  0
   -6.1208   -1.6552   -0.8025 O   0  0  0  0  0  0  0  0  0  0  0  0
   -5.1066   -2.3592   -1.5091 C   0  0  0  0  0  0  0  0  0  0  0  0
   -6.7639   -0.0084    0.7087 C   0  0  0  0  0  0  0  0  0  0  0  0
   -6.5006    0.9902    1.6463 C   0  0  0  0  0  0  0  0  0  0  0  0
   -5.1846    1.3167    1.9511 C   0  0  0  0  0  0  0  0  0  0  0  0
   -4.9989    2.2856    2.8997 O   0  0  0  0  0  0  0  0  0  0  0  0
   -1.7776    1.2028   -0.6845 C   0  0  0  0  0  0  0  0  0  0  0  0
   -0.7796    1.0965   -1.5941 N   0  0  0  0  0  0  0  0  0  0  0  0
    0.4314    0.7272   -1.1288 C   0  0  0  0  0  0  0  0  0  0  0  0
    1.4513    0.6029   -2.0504 N   0  0  0  0  0  0  0  0  0  0  0  0
    2.6843    0.0924   -1.7903 C   0  0  0  0  0  0  0  0  0  0  0  0
    3.4927   -0.0480   -2.7057 O   0  0  0  0  0  0  0  0  0  0  0  0
    8.3789   -1.2712   -0.2625 H   0  0  0  0  0  0  0  0  0  0  0  0
    7.4436   -0.4231   -1.5051 H   0  0  0  0  0  0  0  0  0  0  0  0
    6.8382   -1.9398   -0.8075 H   0  0  0  0  0  0  0  0  0  0  0  0
    7.2937    0.6377    0.7796 H   0  0  0  0  0  0  0  0  0  0  0  0
    6.5673   -0.8380    1.4066 H   0  0  0  0  0  0  0  0  0  0  0  0
    5.3885    0.9334   -0.8057 H   0  0  0  0  0  0  0  0  0  0  0  0
    4.9221    0.9724    0.8849 H   0  0  0  0  0  0  0  0  0  0  0  0
    4.1698   -1.4451    0.7281 H   0  0  0  0  0  0  0  0  0  0  0  0
    4.5946   -1.4387   -0.9820 H   0  0  0  0  0  0  0  0  0  0  0  0
    2.1107   -0.5900    1.3879 H   0  0  0  0  0  0  0  0  0  0  0  0
    2.5540    1.0983    1.0185 H   0  0  0  0  0  0  0  0  0  0  0  0
   -0.1727    0.4140    2.1836 H   0  0  0  0  0  0  0  0  0  0  0  0
   -3.5779   -0.9027   -0.0718 H   0  0  0  0  0  0  0  0  0  0  0  0
   -4.5048   -1.6777   -2.1194 H   0  0  0  0  0  0  0  0  0  0  0  0
   -4.4778   -2.9357   -0.8228 H   0  0  0  0  0  0  0  0  0  0  0  0
   -5.5984   -3.0659   -2.1844 H   0  0  0  0  0  0  0  0  0  0  0  0
   -7.7948   -0.2655    0.4746 H   0  0  0  0  0  0  0  0  0  0  0  0
   -7.3192    1.5040    2.1431 H   0  0  0  0  0  0  0  0  0  0  0  0
   -4.0537    2.2659    3.1708 H   0  0  0  0  0  0  0  0  0  0  0  0
   -2.7253    1.5367   -1.0988 H   0  0  0  0  0  0  0  0  0  0  0  0
    1.2335    0.8127   -3.0128 H   0  0  0  0  0  0  0  0  0  0  0  0
  1  2  1  0
  2  3  1  0
  3  4  1  0
  4  5  1  0
  5  6  1  0
  6  7  1  0
  7  8  2  0
  8  9  1  0
  9 10  1  0
 10 11  2  0
 10 12  1  0
 12 13  2  0
 13 14  1  0
 14 15  1  0
 15 16  1  0
 14 17  2  0
 17 18  1  0
 18 19  2  0
 19 20  1  0
  9 21  2  0
 21 22  1  0
 22 23  2  0
 23 24  1  0
 24 25  1  0
 25 26  2  0
 25  5  1  0
 23  7  1  0
 19 12  1  0
  1 27  1  0
  1 28  1  0
  1 29  1  0
  2 30  1  0
  2 31  1  0
  3 32  1  0
  3 33  1  0
  4 34  1  0
  4 35  1  0
  6 36  1  0
  6 37  1  0
  8 38  1  0
 13 39  1  0
 16 40  1  0
 16 41  1  0
 16 42  1  0
 17 43  1  0
 18 44  1  0
 20 45  1  0
 21 46  1  0
 24 47  1  0
M  END
$$$$
