
     RDKit          3D

 37 38  0  0  0  0  0  0  0  0999 V2000
   -4.5516   -1.6473   -1.5476 C   0  0  0  0  0  0  0  0  0  0  0  0
   -3.7658   -0.8290   -0.6246 N   0  0  0  0  0  0  0  0  0  0  0  0
   -2.4715   -0.4532   -0.9751 C   0  0  0  0  0  0  0  0  0  0  0  0
   -1.9636   -0.8487   -2.2102 N   0  0  0  0  0  0  0  0  0  0  0  0
   -1.7398    0.2772   -0.1041 C   0  0  0  0  0  0  0  0  0  0  0  0
   -0.3318    0.6648   -0.4449 C   0  0  0  0  0  0  0  0  0  0  0  0
   -0.0280    0.9165   -1.6170 O   0  0  0  0  0  0  0  0  0  0  0  0
    0.6990    0.6765    0.6792 C   0  0  0  0  0  0  0  0  0  0  0  0
    2.0031    0.5336    0.1032 O   0  0  0  0  0  0  0  0  0  0  0  0
    3.0015    0.3823    1.0120 C   0  0  0  0  0  0  0  0  0  0  0  0
    2.8377    0.3415    2.2212 O   0  0  0  0  0  0  0  0  0  0  0  0
    4.3247    0.2661    0.3113 C   0  0  0  0  0  0  0  0  0  0  0  0
    4.4390    0.3901   -1.0726 C   0  0  0  0  0  0  0  0  0  0  0  0
    5.7011    0.2724   -1.6513 C   0  0  0  0  0  0  0  0  0  0  0  0
    6.8047    0.0369   -0.8397 C   0  0  0  0  0  0  0  0  0  0  0  0
    6.6038   -0.0723    0.5260 C   0  0  0  0  0  0  0  0  0  0  0  0
    5.3957    0.0359    1.1177 N   0  0  0  0  0  0  0  0  0  0  0  0
   -2.3281    0.6851    1.1867 C   0  0  0  0  0  0  0  0  0  0  0  0
   -1.7054    1.4490    1.9223 O   0  0  0  0  0  0  0  0  0  0  0  0
   -3.5769    0.1958    1.4886 N   0  0  0  0  0  0  0  0  0  0  0  0
   -4.1743    0.5665    2.7591 C   0  0  0  0  0  0  0  0  0  0  0  0
   -4.3667   -0.4982    0.5888 C   0  0  0  0  0  0  0  0  0  0  0  0
   -5.5336   -0.7942    0.8524 O   0  0  0  0  0  0  0  0  0  0  0  0
   -4.8040   -1.0474   -2.4278 H   0  0  0  0  0  0  0  0  0  0  0  0
   -5.4844   -2.0029   -1.1012 H   0  0  0  0  0  0  0  0  0  0  0  0
   -3.9727   -2.5280   -1.8446 H   0  0  0  0  0  0  0  0  0  0  0  0
   -2.6509   -0.7681   -2.9536 H   0  0  0  0  0  0  0  0  0  0  0  0
   -1.1263   -0.3112   -2.4747 H   0  0  0  0  0  0  0  0  0  0  0  0
    0.6495    1.6394    1.1962 H   0  0  0  0  0  0  0  0  0  0  0  0
    0.5005   -0.1609    1.3570 H   0  0  0  0  0  0  0  0  0  0  0  0
    3.5736    0.5770   -1.7005 H   0  0  0  0  0  0  0  0  0  0  0  0
    5.8207    0.3653   -2.7275 H   0  0  0  0  0  0  0  0  0  0  0  0
    7.7996   -0.0585   -1.2611 H   0  0  0  0  0  0  0  0  0  0  0  0
    7.4348   -0.2553    1.2019 H   0  0  0  0  0  0  0  0  0  0  0  0
   -4.7981   -0.2479    3.1407 H   0  0  0  0  0  0  0  0  0  0  0  0
   -4.8038    1.4478    2.5996 H   0  0  0  0  0  0  0  0  0  0  0  0
   -3.4117    0.8033    3.5065 H   0  0  0  0  0  0  0  0  0  0  0  0
  1  2  1  0
  2  3  1  0
  3  4  1  0
  3  5  2  0
  5  6  1  0
  6  7  2  0
  6  8  1  0
  8  9  1  0
  9 10  1  0
 10 11  2  0
 10 12  1  0
 12 13  2  0
 13 14  1  0
 14 15  2  0
 15 16  1  0
 16 17  2  0
  5 18  1  0
 18 19  2  0
 18 20  1  0
 20 21  1  0
 20 22  1  0
 22 23  2  0
 22  2  1  0
 17 12  1  0
  1 24  1  0
  1 25  1  0
  1 26  1  0
  4 27  1  0
  4 28  1  0
  8 29  1  0
  8 30  1  0
 13 31  1  0
 14 32  1  0
 15 33  1  0
 16 34  1  0
 21 35  1  0
 21 36  1  0
 21 37  1  0
M  END
$$$$
