
     RDKit          3D

 39 41  0  0  0  0  0  0  0  0999 V2000
    0.5059   -1.0943    2.2468 O   0  0  0  0  0  0  0  0  0  0  0  0
    0.1677   -0.7698    1.1108 C   0  0  0  0  0  0  0  0  0  0  0  0
    1.0642   -0.5485    0.0867 N   0  0  0  0  0  0  0  0  0  0  0  0
    2.5069   -0.5779    0.3080 C   0  0  0  0  0  0  0  0  0  0  0  0
    3.2497   -0.9007   -0.9998 C   0  0  0  0  0  0  0  0  0  0  0  0
    3.6482    0.3637   -1.7527 C   0  0  0  0  0  0  0  0  0  0  0  0
    4.5894    1.2437   -0.9271 C   0  0  0  0  0  0  0  0  0  0  0  0
    4.4067    1.0839    0.5832 C   0  0  0  0  0  0  0  0  0  0  0  0
    2.9654    0.7480    0.9429 C   0  0  0  0  0  0  0  0  0  0  0  0
   -1.2835   -0.6511    0.7983 C   0  0  0  0  0  0  0  0  0  0  0  0
   -1.7478    0.1347   -0.2670 C   0  0  0  0  0  0  0  0  0  0  0  0
   -3.1222    0.2198   -0.5558 C   0  0  0  0  0  0  0  0  0  0  0  0
   -3.5982    0.9977   -1.6242 C   0  0  0  0  0  0  0  0  0  0  0  0
   -4.9644    1.0709   -1.9015 C   0  0  0  0  0  0  0  0  0  0  0  0
   -5.8729    0.3698   -1.1145 C   0  0  0  0  0  0  0  0  0  0  0  0
   -5.4180   -0.4047   -0.0467 C   0  0  0  0  0  0  0  0  0  0  0  0
   -4.0475   -0.4886    0.2457 C   0  0  0  0  0  0  0  0  0  0  0  0
   -3.5792   -1.2535    1.3232 C   0  0  0  0  0  0  0  0  0  0  0  0
   -2.2152   -1.3230    1.6013 C   0  0  0  0  0  0  0  0  0  0  0  0
   -1.8606   -2.0772    2.6900 O   0  0  0  0  0  0  0  0  0  0  0  0
    0.7344   -0.3424   -0.8451 H   0  0  0  0  0  0  0  0  0  0  0  0
    2.7077   -1.3941    1.0138 H   0  0  0  0  0  0  0  0  0  0  0  0
    2.6436   -1.5478   -1.6450 H   0  0  0  0  0  0  0  0  0  0  0  0
    4.1615   -1.4647   -0.7631 H   0  0  0  0  0  0  0  0  0  0  0  0
    4.1290    0.1041   -2.7027 H   0  0  0  0  0  0  0  0  0  0  0  0
    2.7454    0.9335   -2.0063 H   0  0  0  0  0  0  0  0  0  0  0  0
    5.6313    1.0131   -1.1805 H   0  0  0  0  0  0  0  0  0  0  0  0
    4.4310    2.2908   -1.2122 H   0  0  0  0  0  0  0  0  0  0  0  0
    5.0648    0.2854    0.9485 H   0  0  0  0  0  0  0  0  0  0  0  0
    4.7212    2.0029    1.0905 H   0  0  0  0  0  0  0  0  0  0  0  0
    2.8552    0.6898    2.0325 H   0  0  0  0  0  0  0  0  0  0  0  0
    2.3190    1.5736    0.6158 H   0  0  0  0  0  0  0  0  0  0  0  0
   -1.0533    0.7121   -0.8696 H   0  0  0  0  0  0  0  0  0  0  0  0
   -2.9077    1.5553   -2.2531 H   0  0  0  0  0  0  0  0  0  0  0  0
   -5.3190    1.6762   -2.7319 H   0  0  0  0  0  0  0  0  0  0  0  0
   -6.9371    0.4264   -1.3288 H   0  0  0  0  0  0  0  0  0  0  0  0
   -6.1436   -0.9426    0.5601 H   0  0  0  0  0  0  0  0  0  0  0  0
   -4.2730   -1.7961    1.9613 H   0  0  0  0  0  0  0  0  0  0  0  0
   -0.9051   -1.9185    2.8662 H   0  0  0  0  0  0  0  0  0  0  0  0
  1  2  2  0
  2  3  1  0
  3  4  1  0
  4  5  1  0
  5  6  1  0
  6  7  1  0
  7  8  1  0
  8  9  1  0
  2 10  1  0
 10 11  2  0
 11 12  1  0
 12 13  2  0
 13 14  1  0
 14 15  2  0
 15 16  1  0
 16 17  2  0
 17 18  1  0
 18 19  2  0
 19 20  1  0
  9  4  1  0
 19 10  1  0
 17 12  1  0
  3 21  1  0
  4 22  1  0
  5 23  1  0
  5 24  1  0
  6 25  1  0
  6 26  1  0
  7 27  1  0
  7 28  1  0
  8 29  1  0
  8 30  1  0
  9 31  1  0
  9 32  1  0
 11 33  1  0
 13 34  1  0
 14 35  1  0
 15 36  1  0
 16 37  1  0
 18 38  1  0
 20 39  1  0
M  END
$$$$
