
     RDKit          3D

 32 34  0  0  0  0  0  0  0  0999 V2000
    6.2151    0.3622   -1.4174 C   0  0  0  0  0  0  0  0  0  0  0  0
    5.8225   -0.7713   -0.6527 O   0  0  0  0  0  0  0  0  0  0  0  0
    4.4938   -0.8804   -0.3393 C   0  0  0  0  0  0  0  0  0  0  0  0
    4.1719   -2.0113    0.4110 C   0  0  0  0  0  0  0  0  0  0  0  0
    2.8548   -2.2651    0.8107 C   0  0  0  0  0  0  0  0  0  0  0  0
    1.8357   -1.3644    0.4500 C   0  0  0  0  0  0  0  0  0  0  0  0
    0.4930   -1.4809    0.7706 N   0  0  0  0  0  0  0  0  0  0  0  0
   -0.1697   -0.4648    0.2732 C   0  0  0  0  0  0  0  0  0  0  0  0
   -1.5236   -0.3638    0.4630 N   0  0  0  0  0  0  0  0  0  0  0  0
   -2.3593    0.6298    0.0114 C   0  0  0  0  0  0  0  0  0  0  0  0
   -2.0237    1.6065   -0.6474 O   0  0  0  0  0  0  0  0  0  0  0  0
   -3.7618    0.4325    0.3923 C   0  0  0  0  0  0  0  0  0  0  0  0
   -4.3905   -0.6093    1.1457 C   0  0  0  0  0  0  0  0  0  0  0  0
   -5.7294   -0.3049    1.2084 C   0  0  0  0  0  0  0  0  0  0  0  0
   -5.9814    0.8497    0.5496 O   0  0  0  0  0  0  0  0  0  0  0  0
   -4.7946    1.2981    0.0552 C   0  0  0  0  0  0  0  0  0  0  0  0
   -4.8527    2.5655   -0.7084 C   0  0  0  0  0  0  0  0  0  0  0  0
    0.7443    0.6757   -0.5930 S   0  0  0  0  0  0  0  0  0  0  0  0
    2.1734   -0.2380   -0.3005 C   0  0  0  0  0  0  0  0  0  0  0  0
    3.4950    0.0266   -0.7076 C   0  0  0  0  0  0  0  0  0  0  0  0
    5.7308    0.3624   -2.3995 H   0  0  0  0  0  0  0  0  0  0  0  0
    7.2954    0.2983   -1.5789 H   0  0  0  0  0  0  0  0  0  0  0  0
    6.0136    1.2923   -0.8758 H   0  0  0  0  0  0  0  0  0  0  0  0
    4.9571   -2.7103    0.6920 H   0  0  0  0  0  0  0  0  0  0  0  0
    2.6149   -3.1480    1.3943 H   0  0  0  0  0  0  0  0  0  0  0  0
   -1.8932   -1.1310    1.0001 H   0  0  0  0  0  0  0  0  0  0  0  0
   -3.9412   -1.4825    1.5959 H   0  0  0  0  0  0  0  0  0  0  0  0
   -6.5879   -0.7828    1.6599 H   0  0  0  0  0  0  0  0  0  0  0  0
   -5.8751    2.9539   -0.7560 H   0  0  0  0  0  0  0  0  0  0  0  0
   -4.5034    2.4116   -1.7339 H   0  0  0  0  0  0  0  0  0  0  0  0
   -4.2254    3.3272   -0.2354 H   0  0  0  0  0  0  0  0  0  0  0  0
    3.7015    0.9167   -1.2897 H   0  0  0  0  0  0  0  0  0  0  0  0
  1  2  1  0
  2  3  1  0
  3  4  2  0
  4  5  1  0
  5  6  2  0
  6  7  1  0
  7  8  2  0
  8  9  1  0
  9 10  1  0
 10 11  2  0
 10 12  1  0
 12 13  1  0
 13 14  2  0
 14 15  1  0
 15 16  1  0
 16 17  1  0
  8 18  1  0
 18 19  1  0
 19 20  2  0
 20  3  1  0
 19  6  1  0
 16 12  2  0
  1 21  1  0
  1 22  1  0
  1 23  1  0
  4 24  1  0
  5 25  1  0
  9 26  1  0
 13 27  1  0
 14 28  1  0
 17 29  1  0
 17 30  1  0
 17 31  1  0
 20 32  1  0
M  END
$$$$
