
     RDKit          3D

 51 53  0  0  0  0  0  0  0  0999 V2000
   -3.5175    1.2834   -2.7605 O   0  0  0  0  0  0  0  0  0  0  0  0
   -3.5152    1.5457   -1.5594 C   0  0  0  0  0  0  0  0  0  0  0  0
   -3.5955    3.0033   -1.0853 C   0  0  0  0  0  0  0  0  0  0  0  0
   -3.3418    3.2400    0.3020 O   0  0  0  0  0  0  0  0  0  0  0  0
   -2.0795    3.6520    0.5943 C   0  0  0  0  0  0  0  0  0  0  0  0
   -1.1417    3.6838   -0.1905 O   0  0  0  0  0  0  0  0  0  0  0  0
   -1.9699    4.0733    2.0352 C   0  0  0  0  0  0  0  0  0  0  0  0
   -1.5637    2.9189    2.9402 C   0  0  0  0  0  0  0  0  0  0  0  0
   -0.2472    2.3631    2.6168 N   0  0  0  0  0  0  0  0  0  0  0  0
   -0.1850    1.2902    1.7445 C   0  0  0  0  0  0  0  0  0  0  0  0
   -1.1549    0.7434    1.2381 O   0  0  0  0  0  0  0  0  0  0  0  0
    1.2258    0.9032    1.4883 C   0  0  0  0  0  0  0  0  0  0  0  0
    1.5355   -0.1098    0.6681 C   0  0  0  0  0  0  0  0  0  0  0  0
    2.8658   -0.5647    0.3155 C   0  0  0  0  0  0  0  0  0  0  0  0
    3.0736   -1.6286   -0.4755 C   0  0  0  0  0  0  0  0  0  0  0  0
    4.4103   -2.0914   -0.8656 C   0  0  0  0  0  0  0  0  0  0  0  0
    5.3688   -1.2119   -1.3853 C   0  0  0  0  0  0  0  0  0  0  0  0
    6.6175   -1.6864   -1.7896 C   0  0  0  0  0  0  0  0  0  0  0  0
    6.9168   -3.0431   -1.6820 C   0  0  0  0  0  0  0  0  0  0  0  0
    5.9673   -3.9274   -1.1728 C   0  0  0  0  0  0  0  0  0  0  0  0
    4.7164   -3.4546   -0.7723 C   0  0  0  0  0  0  0  0  0  0  0  0
    2.2833    1.9295    2.3683 S   0  0  0  0  0  0  0  0  0  0  0  0
    0.9616    2.8661    3.0565 C   0  0  0  0  0  0  0  0  0  0  0  0
    1.2222    4.1540    4.0880 S   0  0  0  0  0  0  0  0  0  0  0  0
   -3.5357    0.6269   -0.5326 N   0  0  0  0  0  0  0  0  0  0  0  0
   -3.5627   -0.7833   -0.6273 C   0  0  0  0  0  0  0  0  0  0  0  0
   -3.5665   -1.4929   -1.8284 C   0  0  0  0  0  0  0  0  0  0  0  0
   -3.5829   -2.8874   -1.8068 C   0  0  0  0  0  0  0  0  0  0  0  0
   -3.5792   -3.5638   -2.9638 F   0  0  0  0  0  0  0  0  0  0  0  0
   -3.6013   -3.5961   -0.6101 C   0  0  0  0  0  0  0  0  0  0  0  0
   -3.6074   -2.8993    0.5949 C   0  0  0  0  0  0  0  0  0  0  0  0
   -3.5891   -1.5065    0.5765 C   0  0  0  0  0  0  0  0  0  0  0  0
   -3.6192   -0.8452    1.7457 F   0  0  0  0  0  0  0  0  0  0  0  0
   -4.6245    3.3321   -1.2691 H   0  0  0  0  0  0  0  0  0  0  0  0
   -2.9479    3.6152   -1.7260 H   0  0  0  0  0  0  0  0  0  0  0  0
   -1.2521    4.8996    2.0860 H   0  0  0  0  0  0  0  0  0  0  0  0
   -2.9321    4.4867    2.3578 H   0  0  0  0  0  0  0  0  0  0  0  0
   -1.5584    3.2600    3.9805 H   0  0  0  0  0  0  0  0  0  0  0  0
   -2.3128    2.1204    2.8743 H   0  0  0  0  0  0  0  0  0  0  0  0
    0.7146   -0.6492    0.1963 H   0  0  0  0  0  0  0  0  0  0  0  0
    3.7155   -0.0116    0.7089 H   0  0  0  0  0  0  0  0  0  0  0  0
    2.2450   -2.2159   -0.8623 H   0  0  0  0  0  0  0  0  0  0  0  0
    5.1457   -0.1525   -1.4942 H   0  0  0  0  0  0  0  0  0  0  0  0
    7.3527   -0.9975   -2.1970 H   0  0  0  0  0  0  0  0  0  0  0  0
    7.8871   -3.4115   -1.9987 H   0  0  0  0  0  0  0  0  0  0  0  0
    6.1993   -4.9861   -1.0926 H   0  0  0  0  0  0  0  0  0  0  0  0
    3.9849   -4.1585   -0.3804 H   0  0  0  0  0  0  0  0  0  0  0  0
   -3.4303    0.9900    0.4121 H   0  0  0  0  0  0  0  0  0  0  0  0
   -3.5499   -1.0023   -2.7956 H   0  0  0  0  0  0  0  0  0  0  0  0
   -3.6169   -4.6784   -0.6297 H   0  0  0  0  0  0  0  0  0  0  0  0
   -3.6287   -3.4251    1.5431 H   0  0  0  0  0  0  0  0  0  0  0  0
  1  2  2  0
  2  3  1  0
  3  4  1  0
  4  5  1  0
  5  6  2  0
  5  7  1  0
  7  8  1  0
  8  9  1  0
  9 10  1  0
 10 11  2  0
 10 12  1  0
 12 13  2  3
 13 14  1  0
 14 15  2  3
 15 16  1  0
 16 17  2  0
 17 18  1  0
 18 19  2  0
 19 20  1  0
 20 21  2  0
 12 22  1  0
 22 23  1  0
 23 24  2  0
  2 25  1  0
 25 26  1  0
 26 27  2  0
 27 28  1  0
 28 29  1  0
 28 30  2  0
 30 31  1  0
 31 32  2  0
 32 33  1  0
 23  9  1  0
 32 26  1  0
 21 16  1  0
  3 34  1  0
  3 35  1  0
  7 36  1  0
  7 37  1  0
  8 38  1  0
  8 39  1  0
 13 40  1  0
 14 41  1  0
 15 42  1  0
 17 43  1  0
 18 44  1  0
 19 45  1  0
 20 46  1  0
 21 47  1  0
 25 48  1  0
 27 49  1  0
 30 50  1  0
 31 51  1  0
M  END
$$$$
