
     RDKit          3D

 48 50  0  0  0  0  0  0  0  0999 V2000
    4.7383   -1.9105    3.6483 C   0  0  0  0  0  0  0  0  0  0  0  0
    4.2423   -0.8802    2.6645 C   0  0  0  0  0  0  0  0  0  0  0  0
    5.0903    0.1788    2.3134 C   0  0  0  0  0  0  0  0  0  0  0  0
    4.7062    1.1426    1.3816 C   0  0  0  0  0  0  0  0  0  0  0  0
    3.4323    1.0338    0.8107 C   0  0  0  0  0  0  0  0  0  0  0  0
    2.6861    2.0557   -0.3507 S   0  0  0  0  0  0  0  0  0  0  0  0
    1.2592    1.1131   -0.2955 C   0  0  0  0  0  0  0  0  0  0  0  0
    0.1390    1.3945   -1.0925 N   0  0  0  0  0  0  0  0  0  0  0  0
   -0.9454    0.3868   -1.1156 C   0  0  0  0  0  0  0  0  0  0  0  0
   -1.8870    0.5400    0.0848 C   0  0  0  0  0  0  0  0  0  0  0  0
   -3.1964   -0.2372   -0.0872 C   0  0  0  0  0  0  0  0  0  0  0  0
   -3.0225   -1.6659   -0.3899 N   0  0  0  0  0  0  0  0  0  0  0  0
   -4.3194   -2.2620   -0.7277 C   0  0  0  0  0  0  0  0  0  0  0  0
   -2.4251   -2.3915    0.7331 C   0  0  0  0  0  0  0  0  0  0  0  0
   -0.0757    2.6974   -1.5980 C   0  0  0  0  0  0  0  0  0  0  0  0
    0.5199    3.7054   -1.2108 O   0  0  0  0  0  0  0  0  0  0  0  0
   -1.0842    2.8174   -2.6456 C   0  0  0  0  0  0  0  0  0  0  0  0
   -1.0866    2.2696   -3.9178 C   0  0  0  0  0  0  0  0  0  0  0  0
   -2.2592    2.6232   -4.6527 C   0  0  0  0  0  0  0  0  0  0  0  0
   -3.0783    3.4413   -3.9149 C   0  0  0  0  0  0  0  0  0  0  0  0
   -4.7411    4.1362   -4.5614 Br  0  0  0  0  0  0  0  0  0  0  0  0
   -2.4637    3.8008   -2.3751 S   0  0  0  0  0  0  0  0  0  0  0  0
    1.3364    0.0491    0.4729 N   0  0  0  0  0  0  0  0  0  0  0  0
    2.5554    0.0009    1.1377 C   0  0  0  0  0  0  0  0  0  0  0  0
    2.9555   -0.9906    2.0746 C   0  0  0  0  0  0  0  0  0  0  0  0
    2.0454   -2.1346    2.4334 C   0  0  0  0  0  0  0  0  0  0  0  0
    5.7055   -1.6239    4.0765 H   0  0  0  0  0  0  0  0  0  0  0  0
    4.0351   -2.0247    4.4807 H   0  0  0  0  0  0  0  0  0  0  0  0
    4.8686   -2.8778    3.1483 H   0  0  0  0  0  0  0  0  0  0  0  0
    6.0799    0.2588    2.7637 H   0  0  0  0  0  0  0  0  0  0  0  0
    5.3752    1.9526    1.1102 H   0  0  0  0  0  0  0  0  0  0  0  0
   -1.5209    0.4689   -2.0396 H   0  0  0  0  0  0  0  0  0  0  0  0
   -0.4963   -0.6135   -1.1377 H   0  0  0  0  0  0  0  0  0  0  0  0
   -2.1397    1.5972    0.2281 H   0  0  0  0  0  0  0  0  0  0  0  0
   -1.3776    0.2322    1.0031 H   0  0  0  0  0  0  0  0  0  0  0  0
   -3.8097   -0.1063    0.8127 H   0  0  0  0  0  0  0  0  0  0  0  0
   -3.7459    0.2376   -0.9117 H   0  0  0  0  0  0  0  0  0  0  0  0
   -4.7298   -1.7973   -1.6346 H   0  0  0  0  0  0  0  0  0  0  0  0
   -4.2092   -3.3287   -0.9522 H   0  0  0  0  0  0  0  0  0  0  0  0
   -5.0494   -2.1533    0.0814 H   0  0  0  0  0  0  0  0  0  0  0  0
   -2.3667   -3.4637    0.5106 H   0  0  0  0  0  0  0  0  0  0  0  0
   -1.3981   -2.0648    0.9108 H   0  0  0  0  0  0  0  0  0  0  0  0
   -3.0023   -2.2681    1.6582 H   0  0  0  0  0  0  0  0  0  0  0  0
   -0.2875    1.6439   -4.3002 H   0  0  0  0  0  0  0  0  0  0  0  0
   -2.4772    2.2979   -5.6621 H   0  0  0  0  0  0  0  0  0  0  0  0
    2.5243   -3.0895    2.2022 H   0  0  0  0  0  0  0  0  0  0  0  0
    1.7956   -2.0995    3.4982 H   0  0  0  0  0  0  0  0  0  0  0  0
    1.1044   -2.0921    1.8738 H   0  0  0  0  0  0  0  0  0  0  0  0
  1  2  1  0
  2  3  2  0
  3  4  1  0
  4  5  2  0
  5  6  1  0
  6  7  1  0
  7  8  1  0
  8  9  1  0
  9 10  1  0
 10 11  1  0
 11 12  1  0
 12 13  1  0
 12 14  1  0
  8 15  1  0
 15 16  2  0
 15 17  1  0
 17 18  2  0
 18 19  1  0
 19 20  2  0
 20 21  1  0
 20 22  1  0
  7 23  2  0
 23 24  1  0
 24 25  2  0
 25 26  1  0
 25  2  1  0
 24  5  1  0
 22 17  1  0
  1 27  1  0
  1 28  1  0
  1 29  1  0
  3 30  1  0
  4 31  1  0
  9 32  1  0
  9 33  1  0
 10 34  1  0
 10 35  1  0
 11 36  1  0
 11 37  1  0
 13 38  1  0
 13 39  1  0
 13 40  1  0
 14 41  1  0
 14 42  1  0
 14 43  1  0
 18 44  1  0
 19 45  1  0
 26 46  1  0
 26 47  1  0
 26 48  1  0
M  END
$$$$
