
     RDKit          3D

 46 49  0  0  0  0  0  0  0  0999 V2000
   -0.0835    1.4932    2.5299 O   0  0  0  0  0  0  0  0  0  0  0  0
   -0.3303    0.5340    1.8048 C   0  0  0  0  0  0  0  0  0  0  0  0
    0.5277    0.2379    0.6731 C   0  0  0  0  0  0  0  0  0  0  0  0
    1.3183   -0.8850    0.5247 C   0  0  0  0  0  0  0  0  0  0  0  0
    2.0162   -0.7391   -0.6482 N   0  0  0  0  0  0  0  0  0  0  0  0
    2.9509   -1.6429   -1.2291 C   0  0  0  0  0  0  0  0  0  0  0  0
    3.2790   -2.8544   -0.6040 C   0  0  0  0  0  0  0  0  0  0  0  0
    4.1993   -3.7226   -1.1996 C   0  0  0  0  0  0  0  0  0  0  0  0
    4.7947   -3.3904   -2.4154 C   0  0  0  0  0  0  0  0  0  0  0  0
    4.4738   -2.1884   -3.0418 C   0  0  0  0  0  0  0  0  0  0  0  0
    3.5559   -1.3160   -2.4532 C   0  0  0  0  0  0  0  0  0  0  0  0
    1.7119    0.4296   -1.2586 N   0  0  0  0  0  0  0  0  0  0  0  0
    0.8277    1.0461   -0.4578 C   0  0  0  0  0  0  0  0  0  0  0  0
    0.3036    2.3678   -0.8214 C   0  0  0  0  0  0  0  0  0  0  0  0
   -1.0136    2.7462   -0.5175 C   0  0  0  0  0  0  0  0  0  0  0  0
   -1.4903    4.0101   -0.8789 C   0  0  0  0  0  0  0  0  0  0  0  0
   -0.6551    4.8948   -1.5497 C   0  0  0  0  0  0  0  0  0  0  0  0
   -1.1163    6.1035   -1.8965 F   0  0  0  0  0  0  0  0  0  0  0  0
    0.6485    4.5409   -1.8698 C   0  0  0  0  0  0  0  0  0  0  0  0
    1.1259    3.2787   -1.5082 C   0  0  0  0  0  0  0  0  0  0  0  0
   -1.4381   -0.2972    2.0033 N   0  0  0  0  0  0  0  0  0  0  0  0
   -2.3537    0.0089    3.1015 C   0  0  0  0  0  0  0  0  0  0  0  0
   -3.7795    0.1638    2.5840 C   0  0  0  0  0  0  0  0  0  0  0  0
   -4.2672   -1.0809    1.8374 C   0  0  0  0  0  0  0  0  0  0  0  0
   -3.1381   -2.0447    1.4776 C   0  0  0  0  0  0  0  0  0  0  0  0
   -1.8800   -1.3048    1.0342 C   0  0  0  0  0  0  0  0  0  0  0  0
    1.4398   -1.7404    1.1706 H   0  0  0  0  0  0  0  0  0  0  0  0
    2.8441   -3.1547    0.3437 H   0  0  0  0  0  0  0  0  0  0  0  0
    4.4541   -4.6608   -0.7125 H   0  0  0  0  0  0  0  0  0  0  0  0
    5.5105   -4.0678   -2.8744 H   0  0  0  0  0  0  0  0  0  0  0  0
    4.9376   -1.9267   -3.9896 H   0  0  0  0  0  0  0  0  0  0  0  0
    3.3217   -0.3825   -2.9623 H   0  0  0  0  0  0  0  0  0  0  0  0
   -1.6907    2.0680   -0.0066 H   0  0  0  0  0  0  0  0  0  0  0  0
   -2.5068    4.3072   -0.6418 H   0  0  0  0  0  0  0  0  0  0  0  0
    1.2856    5.2436   -2.3965 H   0  0  0  0  0  0  0  0  0  0  0  0
    2.1487    3.0058   -1.7621 H   0  0  0  0  0  0  0  0  0  0  0  0
   -2.0538    0.9189    3.6302 H   0  0  0  0  0  0  0  0  0  0  0  0
   -2.2912   -0.8155    3.8216 H   0  0  0  0  0  0  0  0  0  0  0  0
   -3.8199    1.0226    1.9015 H   0  0  0  0  0  0  0  0  0  0  0  0
   -4.4603    0.3904    3.4121 H   0  0  0  0  0  0  0  0  0  0  0  0
   -4.7892   -0.7654    0.9256 H   0  0  0  0  0  0  0  0  0  0  0  0
   -5.0091   -1.6126    2.4450 H   0  0  0  0  0  0  0  0  0  0  0  0
   -2.9028   -2.6616    2.3545 H   0  0  0  0  0  0  0  0  0  0  0  0
   -3.4698   -2.7330    0.6923 H   0  0  0  0  0  0  0  0  0  0  0  0
   -1.0758   -2.0299    0.8814 H   0  0  0  0  0  0  0  0  0  0  0  0
   -2.0602   -0.7944    0.0805 H   0  0  0  0  0  0  0  0  0  0  0  0
  1  2  2  0
  2  3  1  0
  3  4  2  0
  4  5  1  0
  5  6  1  0
  6  7  2  0
  7  8  1  0
  8  9  2  0
  9 10  1  0
 10 11  2  0
  5 12  1  0
 12 13  2  0
 13 14  1  0
 14 15  2  0
 15 16  1  0
 16 17  2  0
 17 18  1  0
 17 19  1  0
 19 20  2  0
  2 21  1  0
 21 22  1  0
 22 23  1  0
 23 24  1  0
 24 25  1  0
 25 26  1  0
 13  3  1  0
 20 14  1  0
 26 21  1  0
 11  6  1  0
  4 27  1  0
  7 28  1  0
  8 29  1  0
  9 30  1  0
 10 31  1  0
 11 32  1  0
 15 33  1  0
 16 34  1  0
 19 35  1  0
 20 36  1  0
 22 37  1  0
 22 38  1  0
 23 39  1  0
 23 40  1  0
 24 41  1  0
 24 42  1  0
 25 43  1  0
 25 44  1  0
 26 45  1  0
 26 46  1  0
M  END
$$$$
