
     RDKit          3D

 42 45  0  0  0  0  0  0  0  0999 V2000
    4.9425   -2.2295    4.1136 O   0  0  0  0  0  0  0  0  0  0  0  0
    5.5473   -1.1829    3.9620 C   0  0  0  0  0  0  0  0  0  0  0  0
    6.2448   -0.6375    4.9772 O   0  0  0  0  0  0  0  0  0  0  0  0
    5.6433   -0.3549    2.7101 C   0  0  0  0  0  0  0  0  0  0  0  0
    4.7884   -0.9367    1.5876 C   0  0  0  0  0  0  0  0  0  0  0  0
    4.8978   -0.0947    0.3153 C   0  0  0  0  0  0  0  0  0  0  0  0
    4.0656   -0.6342   -0.7620 N   0  0  0  0  0  0  0  0  0  0  0  0
    2.7327   -0.2520   -0.8204 C   0  0  0  0  0  0  0  0  0  0  0  0
    2.1978    0.5091   -0.0276 O   0  0  0  0  0  0  0  0  0  0  0  0
    2.0431   -0.9198   -1.9627 C   0  0  0  0  0  0  0  0  0  0  0  0
    0.7775   -0.8167   -2.3919 C   0  0  0  0  0  0  0  0  0  0  0  0
   -0.2390    0.0258   -1.8683 C   0  0  0  0  0  0  0  0  0  0  0  0
   -0.2176    1.3323   -1.4023 C   0  0  0  0  0  0  0  0  0  0  0  0
   -1.5375    1.6877   -1.0377 C   0  0  0  0  0  0  0  0  0  0  0  0
   -2.3412    0.5988   -1.3123 C   0  0  0  0  0  0  0  0  0  0  0  0
   -3.7604    0.4744   -1.1193 C   0  0  0  0  0  0  0  0  0  0  0  0
   -4.4932    1.4585   -0.6417 N   0  0  0  0  0  0  0  0  0  0  0  0
   -5.8175    1.0618   -0.5621 C   0  0  0  0  0  0  0  0  0  0  0  0
   -6.8895    1.8501   -0.0964 C   0  0  0  0  0  0  0  0  0  0  0  0
   -8.1837    1.3201   -0.0703 C   0  0  0  0  0  0  0  0  0  0  0  0
   -8.4208    0.0186   -0.5012 C   0  0  0  0  0  0  0  0  0  0  0  0
   -7.3750   -0.7840   -0.9677 C   0  0  0  0  0  0  0  0  0  0  0  0
   -6.0793   -0.2414   -0.9895 C   0  0  0  0  0  0  0  0  0  0  0  0
   -4.6053   -0.9680   -1.5005 S   0  0  0  0  0  0  0  0  0  0  0  0
   -1.5507   -0.3933   -1.8303 O   0  0  0  0  0  0  0  0  0  0  0  0
    3.1572   -1.9949   -2.7439 S   0  0  0  0  0  0  0  0  0  0  0  0
    4.4860   -1.5728   -1.6784 C   0  0  0  0  0  0  0  0  0  0  0  0
    5.9990   -2.2575   -1.8365 S   0  0  0  0  0  0  0  0  0  0  0  0
    6.1072   -1.2591    5.7231 H   0  0  0  0  0  0  0  0  0  0  0  0
    5.3063    0.6611    2.9434 H   0  0  0  0  0  0  0  0  0  0  0  0
    6.6940   -0.3221    2.4019 H   0  0  0  0  0  0  0  0  0  0  0  0
    5.0961   -1.9695    1.3824 H   0  0  0  0  0  0  0  0  0  0  0  0
    3.7410   -0.9914    1.9109 H   0  0  0  0  0  0  0  0  0  0  0  0
    4.5767    0.9327    0.5258 H   0  0  0  0  0  0  0  0  0  0  0  0
    5.9403   -0.0390   -0.0141 H   0  0  0  0  0  0  0  0  0  0  0  0
    0.4487   -1.4551   -3.2097 H   0  0  0  0  0  0  0  0  0  0  0  0
    0.6544    1.9678   -1.3299 H   0  0  0  0  0  0  0  0  0  0  0  0
   -1.8758    2.6293   -0.6266 H   0  0  0  0  0  0  0  0  0  0  0  0
   -6.7002    2.8649    0.2392 H   0  0  0  0  0  0  0  0  0  0  0  0
   -9.0076    1.9318    0.2901 H   0  0  0  0  0  0  0  0  0  0  0  0
   -9.4324   -0.3817   -0.4755 H   0  0  0  0  0  0  0  0  0  0  0  0
   -7.5612   -1.7997   -1.3035 H   0  0  0  0  0  0  0  0  0  0  0  0
  1  2  2  0
  2  3  1  0
  2  4  1  0
  4  5  1  0
  5  6  1  0
  6  7  1  0
  7  8  1  0
  8  9  2  0
  8 10  1  0
 10 11  2  3
 11 12  1  0
 12 13  2  0
 13 14  1  0
 14 15  2  0
 15 16  1  0
 16 17  2  0
 17 18  1  0
 18 19  2  0
 19 20  1  0
 20 21  2  0
 21 22  1  0
 22 23  2  0
 23 24  1  0
 15 25  1  0
 10 26  1  0
 26 27  1  0
 27 28  2  0
 27  7  1  0
 25 12  1  0
 24 16  1  0
 23 18  1  0
  3 29  1  0
  4 30  1  0
  4 31  1  0
  5 32  1  0
  5 33  1  0
  6 34  1  0
  6 35  1  0
 11 36  1  0
 13 37  1  0
 14 38  1  0
 19 39  1  0
 20 40  1  0
 21 41  1  0
 22 42  1  0
M  END
$$$$
