
     RDKit          3D

 57 60  0  0  0  0  0  0  0  0999 V2000
    6.3991   -0.7645   -3.8891 C   0  0  0  0  0  0  0  0  0  0  0  0
    5.1514   -0.1539   -3.2839 C   0  0  0  0  0  0  0  0  0  0  0  0
    5.1957   -0.3788   -1.8639 O   0  0  0  0  0  0  0  0  0  0  0  0
    4.2022    0.2280   -1.1608 C   0  0  0  0  0  0  0  0  0  0  0  0
    3.2996    0.9065   -1.6401 O   0  0  0  0  0  0  0  0  0  0  0  0
    4.3616   -0.0600    0.3180 C   0  0  0  0  0  0  0  0  0  0  0  0
    3.2857   -1.0617    0.7521 C   0  0  0  0  0  0  0  0  0  0  0  0
    2.9995   -0.9725    2.2511 C   0  0  0  0  0  0  0  0  0  0  0  0
    2.6271    0.4021    2.6554 N   0  0  0  0  0  0  0  0  0  0  0  0
    1.3167    0.6027    3.7113 S   0  0  0  0  0  6  0  0  0  0  0  0
    1.2844    1.9846    4.1401 O   0  0  0  0  0  0  0  0  0  0  0  0
    1.3489   -0.4780    4.6743 O   0  0  0  0  0  0  0  0  0  0  0  0
   -0.0951    0.3465    2.6512 C   0  0  0  0  0  0  0  0  0  0  0  0
   -0.6981   -0.9226    2.5925 C   0  0  0  0  0  0  0  0  0  0  0  0
   -1.8342   -1.1267    1.8047 C   0  0  0  0  0  0  0  0  0  0  0  0
   -2.3533   -0.0534    1.0962 C   0  0  0  0  0  0  0  0  0  0  0  0
   -1.7542    1.2085    1.1674 C   0  0  0  0  0  0  0  0  0  0  0  0
   -0.6280    1.4316    1.9448 C   0  0  0  0  0  0  0  0  0  0  0  0
   -2.4553    2.1936    0.2899 C   0  0  0  0  0  0  0  0  0  0  0  0
   -3.6822    1.3968   -0.1625 C   0  0  0  0  0  0  0  0  0  0  0  0
   -3.4850   -0.0005    0.2600 N   0  0  0  0  0  0  0  0  0  0  0  0
   -4.3168   -1.0670   -0.0663 C   0  0  0  0  0  0  0  0  0  0  0  0
   -4.0927   -2.2275    0.2987 O   0  0  0  0  0  0  0  0  0  0  0  0
   -5.5647   -0.7179   -0.9296 C   0  0  0  0  0  0  0  0  0  0  0  0
   -6.7110   -1.7678   -1.0079 C   0  0  0  0  0  0  0  0  0  0  0  0
   -6.8987   -1.3590   -2.4804 C   0  0  0  0  0  0  0  0  0  0  0  0
   -5.4326   -0.8937   -2.4652 C   0  0  0  0  0  0  0  0  0  0  0  0
    2.9187    1.4837    1.6936 C   0  0  0  0  0  0  0  0  0  0  0  0
    4.3068    1.2559    1.1117 C   0  0  0  0  0  0  0  0  0  0  0  0
    6.4346   -1.8413   -3.6924 H   0  0  0  0  0  0  0  0  0  0  0  0
    6.4389   -0.6028   -4.9696 H   0  0  0  0  0  0  0  0  0  0  0  0
    7.2972   -0.3320   -3.4327 H   0  0  0  0  0  0  0  0  0  0  0  0
    4.2543   -0.6313   -3.7033 H   0  0  0  0  0  0  0  0  0  0  0  0
    5.1286    0.9190   -3.4936 H   0  0  0  0  0  0  0  0  0  0  0  0
    5.3563   -0.4993    0.4799 H   0  0  0  0  0  0  0  0  0  0  0  0
    2.3490   -0.8990    0.1956 H   0  0  0  0  0  0  0  0  0  0  0  0
    3.6111   -2.0792    0.4971 H   0  0  0  0  0  0  0  0  0  0  0  0
    3.8990   -1.2567    2.8231 H   0  0  0  0  0  0  0  0  0  0  0  0
    2.2128   -1.6972    2.5057 H   0  0  0  0  0  0  0  0  0  0  0  0
   -0.2956   -1.7550    3.1614 H   0  0  0  0  0  0  0  0  0  0  0  0
   -2.2913   -2.1115    1.7751 H   0  0  0  0  0  0  0  0  0  0  0  0
   -0.1766    2.4194    2.0006 H   0  0  0  0  0  0  0  0  0  0  0  0
   -1.8241    2.4506   -0.5639 H   0  0  0  0  0  0  0  0  0  0  0  0
   -2.7390    3.1002    0.8249 H   0  0  0  0  0  0  0  0  0  0  0  0
   -4.5890    1.7739    0.3238 H   0  0  0  0  0  0  0  0  0  0  0  0
   -3.8257    1.4498   -1.2460 H   0  0  0  0  0  0  0  0  0  0  0  0
   -5.9906    0.2584   -0.6665 H   0  0  0  0  0  0  0  0  0  0  0  0
   -6.3974   -2.8092   -0.8782 H   0  0  0  0  0  0  0  0  0  0  0  0
   -7.5672   -1.5740   -0.3566 H   0  0  0  0  0  0  0  0  0  0  0  0
   -7.6177   -0.5442   -2.6248 H   0  0  0  0  0  0  0  0  0  0  0  0
   -7.1320   -2.1701   -3.1747 H   0  0  0  0  0  0  0  0  0  0  0  0
   -5.2251    0.0179   -3.0281 H   0  0  0  0  0  0  0  0  0  0  0  0
   -4.7220   -1.6684   -2.7699 H   0  0  0  0  0  0  0  0  0  0  0  0
    2.1638    1.5072    0.9051 H   0  0  0  0  0  0  0  0  0  0  0  0
    2.9144    2.4504    2.2056 H   0  0  0  0  0  0  0  0  0  0  0  0
    5.0293    1.1910    1.9408 H   0  0  0  0  0  0  0  0  0  0  0  0
    4.6087    2.1158    0.4986 H   0  0  0  0  0  0  0  0  0  0  0  0
  1  2  1  0
  2  3  1  0
  3  4  1  0
  4  5  2  0
  4  6  1  0
  6  7  1  0
  7  8  1  0
  8  9  1  0
  9 10  1  0
 10 11  2  0
 10 12  2  0
 10 13  1  0
 13 14  2  0
 14 15  1  0
 15 16  2  0
 16 17  1  0
 17 18  2  0
 17 19  1  0
 19 20  1  0
 20 21  1  0
 21 22  1  0
 22 23  2  0
 22 24  1  0
 24 25  1  0
 25 26  1  0
 26 27  1  0
  9 28  1  0
 28 29  1  0
 29  6  1  0
 18 13  1  0
 27 24  1  0
 21 16  1  0
  1 30  1  0
  1 31  1  0
  1 32  1  0
  2 33  1  0
  2 34  1  0
  6 35  1  0
  7 36  1  0
  7 37  1  0
  8 38  1  0
  8 39  1  0
 14 40  1  0
 15 41  1  0
 18 42  1  0
 19 43  1  0
 19 44  1  0
 20 45  1  0
 20 46  1  0
 24 47  1  0
 25 48  1  0
 25 49  1  0
 26 50  1  0
 26 51  1  0
 27 52  1  0
 27 53  1  0
 28 54  1  0
 28 55  1  0
 29 56  1  0
 29 57  1  0
M  END
$$$$
