
     RDKit          3D

 37 39  0  0  0  0  0  0  0  0999 V2000
    0.7732   -0.9233   -0.7965 O   0  0  0  0  0  0  0  0  0  0  0  0
    1.2360   -0.2539    0.1245 C   0  0  0  0  0  0  0  0  0  0  0  0
    2.0460   -0.8857    1.2583 C   0  0  0  0  0  0  0  0  0  0  0  0
    2.3586   -2.3303    0.9970 C   0  0  0  0  0  0  0  0  0  0  0  0
    3.2665   -2.8646    0.1027 C   0  0  0  0  0  0  0  0  0  0  0  0
    3.2943   -4.2884    0.1440 C   0  0  0  0  0  0  0  0  0  0  0  0
    2.4127   -4.7945    1.0720 C   0  0  0  0  0  0  0  0  0  0  0  0
    1.5587   -3.5584    1.8868 S   0  0  0  0  0  0  0  0  0  0  0  0
    1.0269    1.1256    0.2559 N   0  0  0  0  0  0  0  0  0  0  0  0
    1.3560    1.8909    1.4274 C   0  0  0  0  0  0  0  0  0  0  0  0
    0.7404    3.2495    1.1585 C   0  0  0  0  0  0  0  0  0  0  0  0
    0.4255    3.2724   -0.2815 N   0  0  0  0  0  0  0  0  0  0  0  0
    0.5780    2.0490   -0.6851 C   0  0  0  0  0  0  0  0  0  0  0  0
    0.2903    1.6178   -2.3300 S   0  0  0  0  0  0  0  0  0  0  0  0
   -1.4756    2.0155   -2.4352 C   0  0  0  0  0  0  0  0  0  0  0  0
   -2.3385    1.1781   -1.5201 C   0  0  0  0  0  0  0  0  0  0  0  0
   -2.7596    1.7262   -0.2928 C   0  0  0  0  0  0  0  0  0  0  0  0
   -3.5286    0.9808    0.6024 C   0  0  0  0  0  0  0  0  0  0  0  0
   -3.8905   -0.3253    0.2875 C   0  0  0  0  0  0  0  0  0  0  0  0
   -3.4890   -0.8827   -0.9259 C   0  0  0  0  0  0  0  0  0  0  0  0
   -2.7210   -0.1379   -1.8273 C   0  0  0  0  0  0  0  0  0  0  0  0
   -2.2950   -0.8929   -3.3220 Cl  0  0  0  0  0  0  0  0  0  0  0  0
    1.4844   -0.7783    2.1929 H   0  0  0  0  0  0  0  0  0  0  0  0
    2.9925   -0.3424    1.3616 H   0  0  0  0  0  0  0  0  0  0  0  0
    3.8720   -2.2641   -0.5658 H   0  0  0  0  0  0  0  0  0  0  0  0
    3.9233   -4.9095   -0.4816 H   0  0  0  0  0  0  0  0  0  0  0  0
    2.2240   -5.8325    1.3084 H   0  0  0  0  0  0  0  0  0  0  0  0
    2.4463    1.9587    1.5100 H   0  0  0  0  0  0  0  0  0  0  0  0
    0.9581    1.4291    2.3355 H   0  0  0  0  0  0  0  0  0  0  0  0
   -0.1843    3.3848    1.7305 H   0  0  0  0  0  0  0  0  0  0  0  0
    1.4279    4.0596    1.4207 H   0  0  0  0  0  0  0  0  0  0  0  0
   -1.8024    1.8929   -3.4735 H   0  0  0  0  0  0  0  0  0  0  0  0
   -1.6149    3.0813   -2.2181 H   0  0  0  0  0  0  0  0  0  0  0  0
   -2.4833    2.7457   -0.0266 H   0  0  0  0  0  0  0  0  0  0  0  0
   -3.8450    1.4206    1.5449 H   0  0  0  0  0  0  0  0  0  0  0  0
   -4.4871   -0.9106    0.9823 H   0  0  0  0  0  0  0  0  0  0  0  0
   -3.7764   -1.9033   -1.1669 H   0  0  0  0  0  0  0  0  0  0  0  0
  1  2  2  0
  2  3  1  0
  3  4  1  0
  4  5  2  0
  5  6  1  0
  6  7  2  0
  7  8  1  0
  2  9  1  0
  9 10  1  0
 10 11  1  0
 11 12  1  0
 12 13  2  0
 13 14  1  0
 14 15  1  0
 15 16  1  0
 16 17  2  0
 17 18  1  0
 18 19  2  0
 19 20  1  0
 20 21  2  0
 21 22  1  0
  8  4  1  0
 13  9  1  0
 21 16  1  0
  3 23  1  0
  3 24  1  0
  5 25  1  0
  6 26  1  0
  7 27  1  0
 10 28  1  0
 10 29  1  0
 11 30  1  0
 11 31  1  0
 15 32  1  0
 15 33  1  0
 17 34  1  0
 18 35  1  0
 19 36  1  0
 20 37  1  0
M  END
$$$$
