
     RDKit          3D

 55 58  0  0  0  0  0  0  0  0999 V2000
   -3.3959   -2.1156   -0.7339 C   0  0  0  0  0  0  0  0  0  0  0  0
   -3.3258   -0.6648   -1.1981 C   0  0  0  0  0  0  0  0  0  0  0  0
   -4.4851   -0.3110   -2.1338 C   0  0  0  0  0  0  0  0  0  0  0  0
   -3.1902    0.2711   -0.0834 N   0  0  0  0  0  0  0  0  0  0  0  0
   -2.0957    1.0866    0.1518 C   0  0  0  0  0  0  0  0  0  0  0  0
   -0.9513    1.0050   -0.5874 N   0  0  0  0  0  0  0  0  0  0  0  0
   -0.0906   -0.1710   -0.2977 C   0  0  0  0  0  0  0  0  0  0  0  0
    1.2354    0.2382    0.3778 C   0  0  0  0  0  0  0  0  0  0  0  0
    2.0787    1.1498   -0.4454 N   0  0  0  0  0  0  0  0  0  0  0  0
    2.9578    1.9564    0.4416 C   0  0  0  0  0  0  0  0  0  0  0  0
    3.9619    1.0617    1.1783 C   0  0  0  0  0  0  0  0  0  0  0  0
    4.1652    1.1447    2.3865 O   0  0  0  0  0  0  0  0  0  0  0  0
    4.6128    0.1661    0.3624 N   0  0  0  0  0  0  0  0  0  0  0  0
    5.5740   -0.7739    0.8810 C   0  0  0  0  0  0  0  0  0  0  0  0
    5.8007   -1.8449   -0.1359 C   0  0  0  0  0  0  0  0  0  0  0  0
    4.9347   -2.8441   -0.5311 C   0  0  0  0  0  0  0  0  0  0  0  0
    5.5048   -3.6961   -1.5173 C   0  0  0  0  0  0  0  0  0  0  0  0
    6.7868   -3.3202   -1.8438 C   0  0  0  0  0  0  0  0  0  0  0  0
    7.2958   -1.9481   -0.9665 S   0  0  0  0  0  0  0  0  0  0  0  0
    1.2157    2.0336   -1.2686 C   0  0  0  0  0  0  0  0  0  0  0  0
   -0.1970    2.2767   -0.6948 C   0  0  0  0  0  0  0  0  0  0  0  0
   -2.3272    1.9121    1.1465 N   0  0  0  0  0  0  0  0  0  0  0  0
   -3.5606    1.5736    1.6339 C   0  0  0  0  0  0  0  0  0  0  0  0
   -4.2548    2.1186    2.7234 C   0  0  0  0  0  0  0  0  0  0  0  0
   -5.5124    1.6100    3.0466 C   0  0  0  0  0  0  0  0  0  0  0  0
   -6.0702    0.5749    2.2989 C   0  0  0  0  0  0  0  0  0  0  0  0
   -5.3941    0.0186    1.2086 C   0  0  0  0  0  0  0  0  0  0  0  0
   -4.1316    0.5399    0.8954 C   0  0  0  0  0  0  0  0  0  0  0  0
   -4.3513   -2.3555   -0.2570 H   0  0  0  0  0  0  0  0  0  0  0  0
   -3.2759   -2.7902   -1.5876 H   0  0  0  0  0  0  0  0  0  0  0  0
   -2.6005   -2.3379   -0.0150 H   0  0  0  0  0  0  0  0  0  0  0  0
   -2.4178   -0.5743   -1.8020 H   0  0  0  0  0  0  0  0  0  0  0  0
   -4.5018   -0.9911   -2.9970 H   0  0  0  0  0  0  0  0  0  0  0  0
   -4.3773    0.7128   -2.5102 H   0  0  0  0  0  0  0  0  0  0  0  0
   -5.4588   -0.3788   -1.6383 H   0  0  0  0  0  0  0  0  0  0  0  0
   -0.6019   -0.8955    0.3507 H   0  0  0  0  0  0  0  0  0  0  0  0
    0.1210   -0.6899   -1.2441 H   0  0  0  0  0  0  0  0  0  0  0  0
    1.8092   -0.6704    0.5957 H   0  0  0  0  0  0  0  0  0  0  0  0
    0.9871    0.7058    1.3402 H   0  0  0  0  0  0  0  0  0  0  0  0
    3.5491    2.6619   -0.1520 H   0  0  0  0  0  0  0  0  0  0  0  0
    2.3765    2.5293    1.1766 H   0  0  0  0  0  0  0  0  0  0  0  0
    4.3173    0.1168   -0.6088 H   0  0  0  0  0  0  0  0  0  0  0  0
    6.4868   -0.2203    1.1252 H   0  0  0  0  0  0  0  0  0  0  0  0
    5.1895   -1.2079    1.8113 H   0  0  0  0  0  0  0  0  0  0  0  0
    3.9379   -2.9564   -0.1267 H   0  0  0  0  0  0  0  0  0  0  0  0
    5.0015   -4.5435   -1.9634 H   0  0  0  0  0  0  0  0  0  0  0  0
    7.4532   -3.7837   -2.5559 H   0  0  0  0  0  0  0  0  0  0  0  0
    1.7089    2.9936   -1.4707 H   0  0  0  0  0  0  0  0  0  0  0  0
    1.1078    1.5482   -2.2483 H   0  0  0  0  0  0  0  0  0  0  0  0
   -0.1013    2.7709    0.2798 H   0  0  0  0  0  0  0  0  0  0  0  0
   -0.7419    2.9544   -1.3607 H   0  0  0  0  0  0  0  0  0  0  0  0
   -3.8077    2.9214    3.2982 H   0  0  0  0  0  0  0  0  0  0  0  0
   -6.0570    2.0256    3.8894 H   0  0  0  0  0  0  0  0  0  0  0  0
   -7.0487    0.1895    2.5699 H   0  0  0  0  0  0  0  0  0  0  0  0
   -5.8459   -0.7825    0.6404 H   0  0  0  0  0  0  0  0  0  0  0  0
  1  2  1  0
  2  3  1  0
  2  4  1  0
  4  5  1  0
  5  6  1  0
  6  7  1  0
  7  8  1  0
  8  9  1  0
  9 10  1  0
 10 11  1  0
 11 12  2  0
 11 13  1  0
 13 14  1  0
 14 15  1  0
 15 16  2  0
 16 17  1  0
 17 18  2  0
 18 19  1  0
  9 20  1  0
 20 21  1  0
  5 22  2  0
 22 23  1  0
 23 24  2  0
 24 25  1  0
 25 26  2  0
 26 27  1  0
 27 28  2  0
 28  4  1  0
 21  6  1  0
 28 23  1  0
 19 15  1  0
  1 29  1  0
  1 30  1  0
  1 31  1  0
  2 32  1  0
  3 33  1  0
  3 34  1  0
  3 35  1  0
  7 36  1  0
  7 37  1  0
  8 38  1  0
  8 39  1  0
 10 40  1  0
 10 41  1  0
 13 42  1  0
 14 43  1  0
 14 44  1  0
 16 45  1  0
 17 46  1  0
 18 47  1  0
 20 48  1  0
 20 49  1  0
 21 50  1  0
 21 51  1  0
 24 52  1  0
 25 53  1  0
 26 54  1  0
 27 55  1  0
M  END
$$$$
