
     RDKit          3D

 41 42  0  0  0  0  0  0  0  0999 V2000
   -2.2821   -0.0037   -3.5284 O   0  0  0  0  0  0  0  0  0  0  0  0
   -1.5371    0.2224   -2.5780 C   0  0  0  0  0  0  0  0  0  0  0  0
   -0.0383   -0.0536   -2.6347 C   0  0  0  0  0  0  0  0  0  0  0  0
    0.4855   -0.2720   -1.3264 O   0  0  0  0  0  0  0  0  0  0  0  0
    1.8816   -0.3886   -1.4150 N   0  0  0  0  0  0  0  0  0  0  0  0
    2.3560   -0.6577   -0.2413 C   0  0  0  0  0  0  0  0  0  0  0  0
    3.8011   -0.8377   -0.0054 C   0  0  0  0  0  0  0  0  0  0  0  0
    4.7208   -0.7088   -1.0530 C   0  0  0  0  0  0  0  0  0  0  0  0
    6.0857   -0.8808   -0.8130 C   0  0  0  0  0  0  0  0  0  0  0  0
    6.5368   -1.1824    0.4729 C   0  0  0  0  0  0  0  0  0  0  0  0
    5.6103   -1.3113    1.5179 C   0  0  0  0  0  0  0  0  0  0  0  0
    6.0822   -1.6296    2.8714 N   0  0  0  0  0  4  0  0  0  0  0  0
    7.3047   -1.7149    3.0516 O   0  0  0  0  0  0  0  0  0  0  0  0
    5.2266   -1.7927    3.7535 O   0  0  0  0  0  1  0  0  0  0  0  0
    4.2380   -1.1402    1.2867 C   0  0  0  0  0  0  0  0  0  0  0  0
   -1.9662    0.7951   -1.3960 N   0  0  0  0  0  0  0  0  0  0  0  0
   -3.3770    1.0221   -1.1104 C   0  0  0  0  0  0  0  0  0  0  0  0
   -4.0566   -0.2710   -0.6209 C   0  0  0  0  0  0  0  0  0  0  0  0
   -4.0674   -0.3644    0.9011 C   0  0  0  0  0  0  0  0  0  0  0  0
   -4.8343    0.7977    1.5359 C   0  0  0  0  0  0  0  0  0  0  0  0
   -4.8005    2.0796    0.7019 C   0  0  0  0  0  0  0  0  0  0  0  0
   -3.5193    2.1850   -0.1143 C   0  0  0  0  0  0  0  0  0  0  0  0
    0.1267   -0.9514   -3.2394 H   0  0  0  0  0  0  0  0  0  0  0  0
    0.4497    0.8107   -3.0988 H   0  0  0  0  0  0  0  0  0  0  0  0
    1.6857   -0.7636    0.6307 H   0  0  0  0  0  0  0  0  0  0  0  0
    4.3799   -0.4743   -2.0603 H   0  0  0  0  0  0  0  0  0  0  0  0
    6.7967   -0.7776   -1.6305 H   0  0  0  0  0  0  0  0  0  0  0  0
    7.6039   -1.3143    0.6425 H   0  0  0  0  0  0  0  0  0  0  0  0
    3.5198   -1.2399    2.0975 H   0  0  0  0  0  0  0  0  0  0  0  0
   -1.3166    0.7389   -0.6188 H   0  0  0  0  0  0  0  0  0  0  0  0
   -3.8572    1.3059   -2.0560 H   0  0  0  0  0  0  0  0  0  0  0  0
   -3.5722   -1.1593   -1.0441 H   0  0  0  0  0  0  0  0  0  0  0  0
   -5.0953   -0.2849   -0.9750 H   0  0  0  0  0  0  0  0  0  0  0  0
   -3.0338   -0.3645    1.2704 H   0  0  0  0  0  0  0  0  0  0  0  0
   -4.5118   -1.3139    1.2204 H   0  0  0  0  0  0  0  0  0  0  0  0
   -4.4165    0.9906    2.5315 H   0  0  0  0  0  0  0  0  0  0  0  0
   -5.8807    0.5098    1.6953 H   0  0  0  0  0  0  0  0  0  0  0  0
   -4.9050    2.9492    1.3606 H   0  0  0  0  0  0  0  0  0  0  0  0
   -5.6622    2.0980    0.0231 H   0  0  0  0  0  0  0  0  0  0  0  0
   -3.4971    3.1361   -0.6603 H   0  0  0  0  0  0  0  0  0  0  0  0
   -2.6644    2.2119    0.5751 H   0  0  0  0  0  0  0  0  0  0  0  0
  1  2  2  0
  2  3  1  0
  3  4  1  0
  4  5  1  0
  5  6  2  3
  6  7  1  0
  7  8  2  0
  8  9  1  0
  9 10  2  0
 10 11  1  0
 11 12  1  0
 12 13  2  0
 12 14  1  0
 11 15  2  0
  2 16  1  0
 16 17  1  0
 17 18  1  0
 18 19  1  0
 19 20  1  0
 20 21  1  0
 21 22  1  0
 15  7  1  0
 22 17  1  0
  3 23  1  0
  3 24  1  0
  6 25  1  0
  8 26  1  0
  9 27  1  0
 10 28  1  0
 15 29  1  0
 16 30  1  0
 17 31  1  0
 18 32  1  0
 18 33  1  0
 19 34  1  0
 19 35  1  0
 20 36  1  0
 20 37  1  0
 21 38  1  0
 21 39  1  0
 22 40  1  0
 22 41  1  0
M  CHG  2  12   1  14  -1
M  END
$$$$
