
     RDKit          3D

 47 49  0  0  0  0  0  0  0  0999 V2000
    3.8078    3.3721   -0.2147 C   0  0  0  0  0  0  0  0  0  0  0  0
    3.1253    2.0325   -0.2574 C   0  0  0  0  0  0  0  0  0  0  0  0
    3.0023    1.3633   -1.4829 C   0  0  0  0  0  0  0  0  0  0  0  0
    2.3683    0.1221   -1.5610 C   0  0  0  0  0  0  0  0  0  0  0  0
    1.8482   -0.4880   -0.4136 C   0  0  0  0  0  0  0  0  0  0  0  0
    1.1153   -1.8126   -0.5309 C   0  0  0  0  0  0  0  0  0  0  0  0
    1.6555   -2.8784    0.4238 C   0  0  0  0  0  0  0  0  0  0  0  0
   -0.3021   -1.5875   -0.3123 N   0  0  0  0  0  0  0  0  0  0  0  0
   -1.2780   -2.3423   -0.9132 C   0  0  0  0  0  0  0  0  0  0  0  0
   -1.0141   -3.2980   -1.6369 O   0  0  0  0  0  0  0  0  0  0  0  0
   -2.6462   -1.9577   -0.6162 C   0  0  0  0  0  0  0  0  0  0  0  0
   -3.2277   -0.7350   -0.1495 C   0  0  0  0  0  0  0  0  0  0  0  0
   -2.5899    0.5469    0.1341 C   0  0  0  0  0  0  0  0  0  0  0  0
   -1.7751    1.1688   -0.8218 C   0  0  0  0  0  0  0  0  0  0  0  0
   -1.1195    2.3635   -0.5179 C   0  0  0  0  0  0  0  0  0  0  0  0
   -1.2879    2.9538    0.7335 C   0  0  0  0  0  0  0  0  0  0  0  0
   -2.1169    2.3559    1.6813 C   0  0  0  0  0  0  0  0  0  0  0  0
   -2.7679    1.1571    1.3829 C   0  0  0  0  0  0  0  0  0  0  0  0
   -4.5512   -0.8741    0.0281 N   0  0  0  0  0  0  0  0  0  0  0  0
   -4.8627   -2.1537   -0.3705 O   0  0  0  0  0  0  0  0  0  0  0  0
   -3.7351   -2.7958   -0.7615 C   0  0  0  0  0  0  0  0  0  0  0  0
   -3.9042   -4.1899   -1.2183 C   0  0  0  0  0  0  0  0  0  0  0  0
    1.9706    0.1842    0.8137 C   0  0  0  0  0  0  0  0  0  0  0  0
    2.6026    1.4363    0.9056 C   0  0  0  0  0  0  0  0  0  0  0  0
    2.6918    2.1182    2.2437 C   0  0  0  0  0  0  0  0  0  0  0  0
    4.1477    3.6823   -1.2086 H   0  0  0  0  0  0  0  0  0  0  0  0
    4.6871    3.3306    0.4356 H   0  0  0  0  0  0  0  0  0  0  0  0
    3.1176    4.1389    0.1512 H   0  0  0  0  0  0  0  0  0  0  0  0
    3.3971    1.8084   -2.3940 H   0  0  0  0  0  0  0  0  0  0  0  0
    2.2786   -0.3620   -2.5315 H   0  0  0  0  0  0  0  0  0  0  0  0
    1.2414   -2.1994   -1.5503 H   0  0  0  0  0  0  0  0  0  0  0  0
    2.7324   -3.0215    0.2838 H   0  0  0  0  0  0  0  0  0  0  0  0
    1.1609   -3.8403    0.2487 H   0  0  0  0  0  0  0  0  0  0  0  0
    1.4821   -2.6162    1.4733 H   0  0  0  0  0  0  0  0  0  0  0  0
   -0.5543   -0.8841    0.3668 H   0  0  0  0  0  0  0  0  0  0  0  0
   -1.6332    0.7261   -1.8055 H   0  0  0  0  0  0  0  0  0  0  0  0
   -0.4718    2.8302   -1.2562 H   0  0  0  0  0  0  0  0  0  0  0  0
   -0.7759    3.8840    0.9669 H   0  0  0  0  0  0  0  0  0  0  0  0
   -2.2580    2.8229    2.6527 H   0  0  0  0  0  0  0  0  0  0  0  0
   -3.4125    0.6992    2.1310 H   0  0  0  0  0  0  0  0  0  0  0  0
   -3.6631   -4.2753   -2.2823 H   0  0  0  0  0  0  0  0  0  0  0  0
   -4.9337   -4.5335   -1.0766 H   0  0  0  0  0  0  0  0  0  0  0  0
   -3.2464   -4.8614   -0.6579 H   0  0  0  0  0  0  0  0  0  0  0  0
    1.5553   -0.2642    1.7144 H   0  0  0  0  0  0  0  0  0  0  0  0
    2.1427    3.0649    2.2239 H   0  0  0  0  0  0  0  0  0  0  0  0
    2.2594    1.5022    3.0394 H   0  0  0  0  0  0  0  0  0  0  0  0
    3.7374    2.3064    2.5070 H   0  0  0  0  0  0  0  0  0  0  0  0
  1  2  1  0
  2  3  2  0
  3  4  1  0
  4  5  2  0
  5  6  1  0
  6  7  1  0
  6  8  1  0
  8  9  1  0
  9 10  2  0
  9 11  1  0
 11 12  1  0
 12 13  1  0
 13 14  2  0
 14 15  1  0
 15 16  2  0
 16 17  1  0
 17 18  2  0
 12 19  2  0
 19 20  1  0
 20 21  1  0
 21 22  1  0
  5 23  1  0
 23 24  2  0
 24 25  1  0
 24  2  1  0
 21 11  2  0
 18 13  1  0
  1 26  1  0
  1 27  1  0
  1 28  1  0
  3 29  1  0
  4 30  1  0
  6 31  1  0
  7 32  1  0
  7 33  1  0
  7 34  1  0
  8 35  1  0
 14 36  1  0
 15 37  1  0
 16 38  1  0
 17 39  1  0
 18 40  1  0
 22 41  1  0
 22 42  1  0
 22 43  1  0
 23 44  1  0
 25 45  1  0
 25 46  1  0
 25 47  1  0
M  END
$$$$
