
     RDKit          3D

 34 35  0  0  0  0  0  0  0  0999 V2000
   -1.9625   -3.2246    0.2696 O   0  0  0  0  0  0  0  0  0  0  0  0
   -2.8964   -2.5570   -0.2042 N   0  0  0  0  0  4  0  0  0  0  0  0
   -3.9864   -3.0259   -0.5622 O   0  0  0  0  0  1  0  0  0  0  0  0
   -2.7141   -1.1076   -0.3208 C   0  0  0  0  0  0  0  0  0  0  0  0
   -3.8562   -0.3018   -0.1328 C   0  0  0  0  0  0  0  0  0  0  0  0
   -3.7602    1.0902   -0.2317 C   0  0  0  0  0  0  0  0  0  0  0  0
   -4.9660    1.9795   -0.0455 C   0  0  0  0  0  0  0  0  0  0  0  0
   -4.7328    2.9965    0.8278 F   0  0  0  0  0  0  0  0  0  0  0  0
   -6.0538    1.3187    0.4337 F   0  0  0  0  0  0  0  0  0  0  0  0
   -5.3632    2.5653   -1.2067 F   0  0  0  0  0  0  0  0  0  0  0  0
   -2.5156    1.6464   -0.5431 C   0  0  0  0  0  0  0  0  0  0  0  0
   -1.3865    0.8349   -0.7324 C   0  0  0  0  0  0  0  0  0  0  0  0
   -1.4388   -0.5611   -0.5957 C   0  0  0  0  0  0  0  0  0  0  0  0
   -0.3256   -1.3633   -0.8690 N   0  0  0  0  0  0  0  0  0  0  0  0
    1.0486   -0.8511   -0.8353 C   0  0  0  0  0  0  0  0  0  0  0  0
    1.5130   -0.5535    0.5910 C   0  0  0  0  0  0  0  0  0  0  0  0
    2.9445   -0.0889    0.5988 C   0  0  0  0  0  0  0  0  0  0  0  0
    3.9600   -0.9162    1.0727 C   0  0  0  0  0  0  0  0  0  0  0  0
    5.2703   -0.4455    1.0584 C   0  0  0  0  0  0  0  0  0  0  0  0
    5.5319    0.8291    0.5708 C   0  0  0  0  0  0  0  0  0  0  0  0
    4.4658    1.5841    0.1117 C   0  0  0  0  0  0  0  0  0  0  0  0
    3.1842    1.1551    0.1164 N   0  0  0  0  0  0  0  0  0  0  0  0
   -4.8218   -0.7598    0.0865 H   0  0  0  0  0  0  0  0  0  0  0  0
   -2.4123    2.7257   -0.6529 H   0  0  0  0  0  0  0  0  0  0  0  0
   -0.4579    1.3351   -0.9971 H   0  0  0  0  0  0  0  0  0  0  0  0
   -0.3985   -2.3000   -0.4562 H   0  0  0  0  0  0  0  0  0  0  0  0
    1.6921   -1.6298   -1.2637 H   0  0  0  0  0  0  0  0  0  0  0  0
    1.1649    0.0143   -1.4976 H   0  0  0  0  0  0  0  0  0  0  0  0
    1.3949   -1.4444    1.2206 H   0  0  0  0  0  0  0  0  0  0  0  0
    0.8944    0.2269    1.0496 H   0  0  0  0  0  0  0  0  0  0  0  0
    3.7442   -1.9113    1.4486 H   0  0  0  0  0  0  0  0  0  0  0  0
    6.0808   -1.0700    1.4244 H   0  0  0  0  0  0  0  0  0  0  0  0
    6.5413    1.2239    0.5469 H   0  0  0  0  0  0  0  0  0  0  0  0
    4.6174    2.5861   -0.2807 H   0  0  0  0  0  0  0  0  0  0  0  0
  1  2  2  0
  2  3  1  0
  2  4  1  0
  4  5  2  0
  5  6  1  0
  6  7  1  0
  7  8  1  0
  7  9  1  0
  7 10  1  0
  6 11  2  0
 11 12  1  0
 12 13  2  0
 13 14  1  0
 14 15  1  0
 15 16  1  0
 16 17  1  0
 17 18  2  0
 18 19  1  0
 19 20  2  0
 20 21  1  0
 21 22  2  0
 13  4  1  0
 22 17  1  0
  5 23  1  0
 11 24  1  0
 12 25  1  0
 14 26  1  0
 15 27  1  0
 15 28  1  0
 16 29  1  0
 16 30  1  0
 18 31  1  0
 19 32  1  0
 20 33  1  0
 21 34  1  0
M  CHG  2   2   1   3  -1
M  END
$$$$
