
     RDKit          3D

 75 77  0  0  0  0  0  0  0  0999 V2000
   -4.0837    5.1566    4.7384 C   0  0  0  0  0  0  0  0  0  0  0  0
   -4.5929    3.9617    3.9525 C   0  0  0  0  0  0  0  0  0  0  0  0
   -3.4932    3.4082    3.2328 O   0  0  0  0  0  0  0  0  0  0  0  0
   -3.7282    2.2706    2.5102 C   0  0  0  0  0  0  0  0  0  0  0  0
   -4.9689    1.6756    2.3045 C   0  0  0  0  0  0  0  0  0  0  0  0
   -5.0620    0.5224    1.5271 C   0  0  0  0  0  0  0  0  0  0  0  0
   -3.9185   -0.0348    0.9466 C   0  0  0  0  0  0  0  0  0  0  0  0
   -2.6560    0.5450    1.1366 C   0  0  0  0  0  0  0  0  0  0  0  0
   -1.4688    0.0040    0.5077 N   0  0  0  0  0  0  0  0  0  0  0  0
   -0.2318    0.0534    1.1821 C   0  0  0  0  0  0  0  0  0  0  0  0
   -0.1181    0.4354    2.3509 O   0  0  0  0  0  0  0  0  0  0  0  0
    1.0207   -0.4001    0.4390 C   0  0  0  0  0  0  0  0  0  0  0  0
    2.2663   -0.2401    1.3116 C   0  0  0  0  0  0  0  0  0  0  0  0
    3.5290   -0.6586    0.5867 C   0  0  0  0  0  0  0  0  0  0  0  0
    3.5135   -1.1257   -0.5465 O   0  0  0  0  0  0  0  0  0  0  0  0
    4.6508   -0.4474    1.3560 N   0  0  0  0  0  0  0  0  0  0  0  0
    5.9416   -0.7402    0.9774 C   0  0  0  0  0  0  0  0  0  0  0  0
    6.4187   -1.3185   -0.2191 C   0  0  0  0  0  0  0  0  0  0  0  0
    7.7796   -1.3819   -0.0534 C   0  0  0  0  0  0  0  0  0  0  0  0
    8.8973   -1.8628   -0.8823 C   0  0  0  0  0  0  0  0  0  0  0  0
    8.1028   -0.8736    1.1644 O   0  0  0  0  0  0  0  0  0  0  0  0
    6.9504   -0.4705    1.8136 N   0  0  0  0  0  0  0  0  0  0  0  0
   -1.6330   -0.6432   -0.8373 C   0  0  0  0  0  0  0  0  0  0  0  0
   -0.9150    0.2372   -1.9124 C   0  0  0  0  0  0  0  0  0  0  0  0
   -0.4161   -0.1955   -2.9459 O   0  0  0  0  0  0  0  0  0  0  0  0
   -1.0075    1.6019   -1.6621 N   0  0  0  0  0  0  0  0  0  0  0  0
   -0.4285    2.6669   -2.4944 C   0  0  0  0  0  0  0  0  0  0  0  0
   -0.7789    4.0177   -1.8435 C   0  0  0  0  0  0  0  0  0  0  0  0
    1.1010    2.5396   -2.5577 C   0  0  0  0  0  0  0  0  0  0  0  0
   -1.0219    2.6481   -3.9117 C   0  0  0  0  0  0  0  0  0  0  0  0
   -1.4055   -2.1603   -0.8365 C   0  0  0  0  0  0  0  0  0  0  0  0
   -1.1567   -2.8790   -2.0164 C   0  0  0  0  0  0  0  0  0  0  0  0
   -0.9937   -4.2723   -2.0102 C   0  0  0  0  0  0  0  0  0  0  0  0
   -1.1024   -4.9897   -0.8234 C   0  0  0  0  0  0  0  0  0  0  0  0
   -0.9649   -6.3418   -0.6806 O   0  0  0  0  0  0  0  0  0  0  0  0
   -0.6705   -7.0837   -1.8592 C   0  0  0  0  0  0  0  0  0  0  0  0
   -1.3903   -4.3013    0.3514 C   0  0  0  0  0  0  0  0  0  0  0  0
   -1.5508   -2.9113    0.3462 C   0  0  0  0  0  0  0  0  0  0  0  0
   -2.5866    1.7017    1.9299 C   0  0  0  0  0  0  0  0  0  0  0  0
   -3.2840    4.8551    5.4233 H   0  0  0  0  0  0  0  0  0  0  0  0
   -3.6601    5.9092    4.0648 H   0  0  0  0  0  0  0  0  0  0  0  0
   -4.8904    5.6157    5.3170 H   0  0  0  0  0  0  0  0  0  0  0  0
   -5.0036    3.2234    4.6506 H   0  0  0  0  0  0  0  0  0  0  0  0
   -5.3706    4.2961    3.2571 H   0  0  0  0  0  0  0  0  0  0  0  0
   -5.8790    2.0806    2.7335 H   0  0  0  0  0  0  0  0  0  0  0  0
   -6.0293    0.0481    1.3775 H   0  0  0  0  0  0  0  0  0  0  0  0
   -4.0465   -0.9576    0.3869 H   0  0  0  0  0  0  0  0  0  0  0  0
    0.9280   -1.4489    0.1509 H   0  0  0  0  0  0  0  0  0  0  0  0
    1.1518    0.2071   -0.4588 H   0  0  0  0  0  0  0  0  0  0  0  0
    2.3764    0.8080    1.6169 H   0  0  0  0  0  0  0  0  0  0  0  0
    2.1741   -0.8508    2.2181 H   0  0  0  0  0  0  0  0  0  0  0  0
    4.5748   -0.0486    2.2817 H   0  0  0  0  0  0  0  0  0  0  0  0
    5.8553   -1.6499   -1.0793 H   0  0  0  0  0  0  0  0  0  0  0  0
    9.4306   -2.6728   -0.3759 H   0  0  0  0  0  0  0  0  0  0  0  0
    9.6053   -1.0520   -1.0789 H   0  0  0  0  0  0  0  0  0  0  0  0
    8.5376   -2.2408   -1.8447 H   0  0  0  0  0  0  0  0  0  0  0  0
   -2.6791   -0.5357   -1.1529 H   0  0  0  0  0  0  0  0  0  0  0  0
   -1.4007    1.8724   -0.7668 H   0  0  0  0  0  0  0  0  0  0  0  0
   -0.3727    4.8580   -2.4178 H   0  0  0  0  0  0  0  0  0  0  0  0
   -0.3765    4.0818   -0.8257 H   0  0  0  0  0  0  0  0  0  0  0  0
   -1.8649    4.1509   -1.7718 H   0  0  0  0  0  0  0  0  0  0  0  0
    1.4145    1.6107   -3.0448 H   0  0  0  0  0  0  0  0  0  0  0  0
    1.5443    3.3698   -3.1190 H   0  0  0  0  0  0  0  0  0  0  0  0
    1.5379    2.5435   -1.5526 H   0  0  0  0  0  0  0  0  0  0  0  0
   -2.1170    2.6790   -3.8802 H   0  0  0  0  0  0  0  0  0  0  0  0
   -0.7361    1.7489   -4.4659 H   0  0  0  0  0  0  0  0  0  0  0  0
   -0.6775    3.5092   -4.4957 H   0  0  0  0  0  0  0  0  0  0  0  0
   -1.0843   -2.3779   -2.9796 H   0  0  0  0  0  0  0  0  0  0  0  0
   -0.7829   -4.7593   -2.9560 H   0  0  0  0  0  0  0  0  0  0  0  0
   -0.5905   -8.1384   -1.5792 H   0  0  0  0  0  0  0  0  0  0  0  0
    0.2896   -6.7791   -2.2886 H   0  0  0  0  0  0  0  0  0  0  0  0
   -1.4794   -6.9954   -2.5926 H   0  0  0  0  0  0  0  0  0  0  0  0
   -1.4926   -4.8506    1.2844 H   0  0  0  0  0  0  0  0  0  0  0  0
   -1.7912   -2.4318    1.2935 H   0  0  0  0  0  0  0  0  0  0  0  0
   -1.6386    2.2080    2.0977 H   0  0  0  0  0  0  0  0  0  0  0  0
  1  2  1  0
  2  3  1  0
  3  4  1  0
  4  5  2  0
  5  6  1  0
  6  7  2  0
  7  8  1  0
  8  9  1  0
  9 10  1  0
 10 11  2  0
 10 12  1  0
 12 13  1  0
 13 14  1  0
 14 15  2  0
 14 16  1  0
 16 17  1  0
 17 18  1  0
 18 19  2  0
 19 20  1  0
 19 21  1  0
 21 22  1  0
  9 23  1  0
 23 24  1  0
 24 25  2  0
 24 26  1  0
 26 27  1  0
 27 28  1  0
 27 29  1  0
 27 30  1  0
 23 31  1  0
 31 32  2  0
 32 33  1  0
 33 34  2  0
 34 35  1  0
 35 36  1  0
 34 37  1  0
 37 38  2  0
  8 39  2  0
 39  4  1  0
 22 17  2  0
 38 31  1  0
  1 40  1  0
  1 41  1  0
  1 42  1  0
  2 43  1  0
  2 44  1  0
  5 45  1  0
  6 46  1  0
  7 47  1  0
 12 48  1  0
 12 49  1  0
 13 50  1  0
 13 51  1  0
 16 52  1  0
 18 53  1  0
 20 54  1  0
 20 55  1  0
 20 56  1  0
 23 57  1  0
 26 58  1  0
 28 59  1  0
 28 60  1  0
 28 61  1  0
 29 62  1  0
 29 63  1  0
 29 64  1  0
 30 65  1  0
 30 66  1  0
 30 67  1  0
 32 68  1  0
 33 69  1  0
 36 70  1  0
 36 71  1  0
 36 72  1  0
 37 73  1  0
 38 74  1  0
 39 75  1  0
M  END
$$$$
