
     RDKit          3D

 29 30  0  0  0  0  0  0  0  0999 V2000
   -1.5161   -1.9590   -0.7575 O   0  0  0  0  0  0  0  0  0  0  0  0
   -0.9661   -0.9726   -0.2775 C   0  0  0  0  0  0  0  0  0  0  0  0
    0.4156   -0.9846   -0.2189 N   0  0  0  0  0  0  0  0  0  0  0  0
    1.2717    0.0071    0.2269 C   0  0  0  0  0  0  0  0  0  0  0  0
    0.8892    1.1097    0.6122 O   0  0  0  0  0  0  0  0  0  0  0  0
    2.7248   -0.3109    0.1871 C   0  0  0  0  0  0  0  0  0  0  0  0
    3.2065   -1.6169    0.3487 C   0  0  0  0  0  0  0  0  0  0  0  0
    4.5811   -1.8628    0.3046 C   0  0  0  0  0  0  0  0  0  0  0  0
    5.4753   -0.8105    0.1082 C   0  0  0  0  0  0  0  0  0  0  0  0
    5.0011    0.4925   -0.0359 C   0  0  0  0  0  0  0  0  0  0  0  0
    3.6289    0.7441    0.0083 C   0  0  0  0  0  0  0  0  0  0  0  0
   -1.5509    0.1590    0.2175 N   0  0  0  0  0  0  0  0  0  0  0  0
   -2.9189    0.4226    0.2929 C   0  0  0  0  0  0  0  0  0  0  0  0
   -3.2996    1.6601    0.8101 C   0  0  0  0  0  0  0  0  0  0  0  0
   -4.6570    1.9724    0.9087 C   0  0  0  0  0  0  0  0  0  0  0  0
   -5.5952    1.0406    0.4891 C   0  0  0  0  0  0  0  0  0  0  0  0
   -7.2735    1.3785    0.5903 Cl  0  0  0  0  0  0  0  0  0  0  0  0
   -5.1358   -0.1648   -0.0112 C   0  0  0  0  0  0  0  0  0  0  0  0
   -3.8235   -0.4865   -0.1144 N   0  0  0  0  0  0  0  0  0  0  0  0
    0.7916   -1.8281   -0.6247 H   0  0  0  0  0  0  0  0  0  0  0  0
    2.5378   -2.4518    0.5387 H   0  0  0  0  0  0  0  0  0  0  0  0
    4.9577   -2.8752    0.4332 H   0  0  0  0  0  0  0  0  0  0  0  0
    6.5450   -1.0050    0.0769 H   0  0  0  0  0  0  0  0  0  0  0  0
    5.6997    1.3135   -0.1793 H   0  0  0  0  0  0  0  0  0  0  0  0
    3.2680    1.7652   -0.1004 H   0  0  0  0  0  0  0  0  0  0  0  0
   -0.9113    0.8815    0.5341 H   0  0  0  0  0  0  0  0  0  0  0  0
   -2.5582    2.3829    1.1359 H   0  0  0  0  0  0  0  0  0  0  0  0
   -4.9671    2.9329    1.3092 H   0  0  0  0  0  0  0  0  0  0  0  0
   -5.8206   -0.9342   -0.3554 H   0  0  0  0  0  0  0  0  0  0  0  0
  1  2  2  0
  2  3  1  0
  3  4  1  0
  4  5  2  0
  4  6  1  0
  6  7  2  0
  7  8  1  0
  8  9  2  0
  9 10  1  0
 10 11  2  0
  2 12  1  0
 12 13  1  0
 13 14  2  0
 14 15  1  0
 15 16  2  0
 16 17  1  0
 16 18  1  0
 18 19  2  0
 11  6  1  0
 19 13  1  0
  3 20  1  0
  7 21  1  0
  8 22  1  0
  9 23  1  0
 10 24  1  0
 11 25  1  0
 12 26  1  0
 14 27  1  0
 15 28  1  0
 18 29  1  0
M  END
$$$$
