
     RDKit          3D

 46 48  0  0  0  0  0  0  0  0999 V2000
    5.5178    0.8900   -3.0404 C   0  0  0  0  0  0  0  0  0  0  0  0
    4.5354    1.6359   -2.3332 O   0  0  0  0  0  0  0  0  0  0  0  0
    3.6966    0.9339   -1.5133 C   0  0  0  0  0  0  0  0  0  0  0  0
    3.7235   -0.4412   -1.2922 C   0  0  0  0  0  0  0  0  0  0  0  0
    2.8006   -1.0381   -0.4218 C   0  0  0  0  0  0  0  0  0  0  0  0
    1.8260   -0.2738    0.2385 C   0  0  0  0  0  0  0  0  0  0  0  0
    0.8169   -0.8786    1.2125 C   0  0  0  0  0  0  0  0  0  0  0  0
    0.9192   -2.3836    1.4896 C   0  0  0  0  0  0  0  0  0  0  0  0
   -0.5863   -0.5054    0.8958 N   0  0  0  0  0  0  0  0  0  0  0  0
   -1.4752    0.0288    1.8387 C   0  0  0  0  0  0  0  0  0  0  0  0
   -1.1444    0.1303    3.2913 C   0  0  0  0  0  0  0  0  0  0  0  0
   -2.6012    0.4227    1.1405 C   0  0  0  0  0  0  0  0  0  0  0  0
   -3.7370    1.0985    1.6325 C   0  0  0  0  0  0  0  0  0  0  0  0
   -4.0444    1.5944    3.0007 C   0  0  0  0  0  0  0  0  0  0  0  0
   -4.6686    1.3033    0.6486 N   0  0  0  0  0  0  0  0  0  0  0  0
   -4.5038    0.8873   -0.7461 N   0  0  0  0  0  0  0  0  0  0  0  0
   -3.3976    0.2431   -1.2354 C   0  0  0  0  0  0  0  0  0  0  0  0
   -3.3701   -0.1038   -2.6817 C   0  0  0  0  0  0  0  0  0  0  0  0
   -2.4397    0.0153   -0.2259 C   0  0  0  0  0  0  0  0  0  0  0  0
   -1.2160   -0.6183   -0.3467 C   0  0  0  0  0  0  0  0  0  0  0  0
   -0.5921   -1.2689   -1.5360 C   0  0  0  0  0  0  0  0  0  0  0  0
    1.8214    1.1143    0.0149 C   0  0  0  0  0  0  0  0  0  0  0  0
    2.7420    1.7063   -0.8537 C   0  0  0  0  0  0  0  0  0  0  0  0
    6.0947    1.5913   -3.6509 H   0  0  0  0  0  0  0  0  0  0  0  0
    5.0525    0.1649   -3.7162 H   0  0  0  0  0  0  0  0  0  0  0  0
    6.2126    0.3994   -2.3508 H   0  0  0  0  0  0  0  0  0  0  0  0
    4.4508   -1.0824   -1.7792 H   0  0  0  0  0  0  0  0  0  0  0  0
    2.8618   -2.1144   -0.2809 H   0  0  0  0  0  0  0  0  0  0  0  0
    1.0552   -0.3817    2.1612 H   0  0  0  0  0  0  0  0  0  0  0  0
    0.1823   -2.6945    2.2388 H   0  0  0  0  0  0  0  0  0  0  0  0
    0.7424   -2.9881    0.5952 H   0  0  0  0  0  0  0  0  0  0  0  0
    1.9104   -2.6426    1.8777 H   0  0  0  0  0  0  0  0  0  0  0  0
   -0.6197    1.0685    3.4960 H   0  0  0  0  0  0  0  0  0  0  0  0
   -0.5202   -0.7027    3.6278 H   0  0  0  0  0  0  0  0  0  0  0  0
   -2.0415    0.0911    3.9128 H   0  0  0  0  0  0  0  0  0  0  0  0
   -4.2502    0.7545    3.6701 H   0  0  0  0  0  0  0  0  0  0  0  0
   -3.2106    2.1819    3.3953 H   0  0  0  0  0  0  0  0  0  0  0  0
   -4.9287    2.2399    2.9883 H   0  0  0  0  0  0  0  0  0  0  0  0
   -2.4438    0.2459   -3.1458 H   0  0  0  0  0  0  0  0  0  0  0  0
   -3.4595   -1.1857   -2.8135 H   0  0  0  0  0  0  0  0  0  0  0  0
   -4.2049    0.3697   -3.2086 H   0  0  0  0  0  0  0  0  0  0  0  0
    0.1860   -1.9858   -1.2740 H   0  0  0  0  0  0  0  0  0  0  0  0
   -0.1592   -0.5138   -2.1996 H   0  0  0  0  0  0  0  0  0  0  0  0
   -1.3352   -1.8397   -2.0999 H   0  0  0  0  0  0  0  0  0  0  0  0
    1.0901    1.7512    0.5108 H   0  0  0  0  0  0  0  0  0  0  0  0
    2.7118    2.7811   -1.0171 H   0  0  0  0  0  0  0  0  0  0  0  0
  1  2  1  0
  2  3  1  0
  3  4  2  0
  4  5  1  0
  5  6  2  0
  6  7  1  0
  7  8  1  0
  7  9  1  0
  9 10  1  0
 10 11  1  0
 10 12  2  0
 12 13  1  0
 13 14  1  0
 13 15  2  0
 15 16  1  0
 16 17  2  0
 17 18  1  0
 17 19  1  0
 19 20  2  0
 20 21  1  0
  6 22  1  0
 22 23  2  0
 23  3  1  0
 20  9  1  0
 19 12  1  0
  1 24  1  0
  1 25  1  0
  1 26  1  0
  4 27  1  0
  5 28  1  0
  7 29  1  0
  8 30  1  0
  8 31  1  0
  8 32  1  0
 11 33  1  0
 11 34  1  0
 11 35  1  0
 14 36  1  0
 14 37  1  0
 14 38  1  0
 18 39  1  0
 18 40  1  0
 18 41  1  0
 21 42  1  0
 21 43  1  0
 21 44  1  0
 22 45  1  0
 23 46  1  0
M  END
$$$$
