
     RDKit          3D

 63 66  0  0  0  0  0  0  0  0999 V2000
    6.3345    4.3822   -1.2981 C   0  0  0  0  0  0  0  0  0  0  0  0
    5.0106    3.8951   -1.4735 O   0  0  0  0  0  0  0  0  0  0  0  0
    4.7179    2.6606   -0.9569 C   0  0  0  0  0  0  0  0  0  0  0  0
    5.6712    1.7508   -0.4946 C   0  0  0  0  0  0  0  0  0  0  0  0
    5.2831    0.4968    0.0015 C   0  0  0  0  0  0  0  0  0  0  0  0
    3.9373    0.1343    0.0481 C   0  0  0  0  0  0  0  0  0  0  0  0
    3.4679   -1.1050    0.5268 N   0  0  0  0  0  0  0  0  0  0  0  0
    4.2152   -2.1864    0.9466 C   0  0  0  0  0  0  0  0  0  0  0  0
    5.4380   -2.2714    0.9844 O   0  0  0  0  0  0  0  0  0  0  0  0
    3.3899   -3.3349    1.3543 C   0  0  0  0  0  0  0  0  0  0  0  0
    3.8206   -4.5514    1.7295 C   0  0  0  0  0  0  0  0  0  0  0  0
    2.8086   -5.4373    2.0426 N   0  0  0  0  0  0  0  0  0  0  0  0
    1.6316   -4.7570    1.7402 N   0  0  0  0  0  0  0  0  0  0  0  0
    0.3755   -5.2979    1.7586 C   0  0  0  0  0  0  0  0  0  0  0  0
    0.0823   -6.4651    1.9833 O   0  0  0  0  0  0  0  0  0  0  0  0
   -0.6569   -4.2874    1.4238 C   0  0  0  0  0  0  0  0  0  0  0  0
   -0.2921   -3.0325    1.0931 C   0  0  0  0  0  0  0  0  0  0  0  0
   -1.3500   -1.9866    0.7628 C   0  0  0  0  0  0  0  0  0  0  0  0
   -1.2176   -1.4807   -0.6823 C   0  0  0  0  0  0  0  0  0  0  0  0
   -2.3221   -0.4716   -0.9884 C   0  0  0  0  0  0  0  0  0  0  0  0
   -2.4878    0.5222    0.0649 N   0  0  0  0  0  0  0  0  0  0  0  0
   -3.4410    1.5253   -0.0196 C   0  0  0  0  0  0  0  0  0  0  0  0
   -3.5436    2.4348    0.7924 O   0  0  0  0  0  0  0  0  0  0  0  0
   -4.2443    1.3679   -1.1052 O   0  0  0  0  0  0  0  0  0  0  0  0
   -5.2985    2.3219   -1.3980 C   0  0  0  0  0  0  0  0  0  0  0  0
   -6.3423    2.3721   -0.2762 C   0  0  0  0  0  0  0  0  0  0  0  0
   -5.9729    1.7796   -2.6686 C   0  0  0  0  0  0  0  0  0  0  0  0
   -4.7165    3.7059   -1.7084 C   0  0  0  0  0  0  0  0  0  0  0  0
   -1.5007    0.5489    1.1325 C   0  0  0  0  0  0  0  0  0  0  0  0
   -1.3473   -0.8251    1.7829 C   0  0  0  0  0  0  0  0  0  0  0  0
    1.0240   -2.5982    1.0167 N   0  0  0  0  0  0  0  0  0  0  0  0
    1.9185   -3.4675    1.3467 C   0  0  0  0  0  0  0  0  0  0  0  0
    2.9796    1.0439   -0.4088 C   0  0  0  0  0  0  0  0  0  0  0  0
    3.3662    2.2903   -0.9141 C   0  0  0  0  0  0  0  0  0  0  0  0
    2.1199    3.3492   -1.4802 Cl  0  0  0  0  0  0  0  0  0  0  0  0
    6.6130    4.4034   -0.2388 H   0  0  0  0  0  0  0  0  0  0  0  0
    6.3650    5.4116   -1.6699 H   0  0  0  0  0  0  0  0  0  0  0  0
    7.0498    3.7963   -1.8835 H   0  0  0  0  0  0  0  0  0  0  0  0
    6.7326    1.9752   -0.5141 H   0  0  0  0  0  0  0  0  0  0  0  0
    6.0659   -0.1749    0.3434 H   0  0  0  0  0  0  0  0  0  0  0  0
    2.4553   -1.2248    0.5310 H   0  0  0  0  0  0  0  0  0  0  0  0
    4.8496   -4.8833    1.7891 H   0  0  0  0  0  0  0  0  0  0  0  0
    2.8843   -6.3594    1.6080 H   0  0  0  0  0  0  0  0  0  0  0  0
   -1.6854   -4.6203    1.4686 H   0  0  0  0  0  0  0  0  0  0  0  0
   -2.3389   -2.4640    0.8360 H   0  0  0  0  0  0  0  0  0  0  0  0
   -1.2751   -2.3142   -1.3932 H   0  0  0  0  0  0  0  0  0  0  0  0
   -0.2390   -1.0064   -0.8325 H   0  0  0  0  0  0  0  0  0  0  0  0
   -3.2798   -0.9908   -1.1144 H   0  0  0  0  0  0  0  0  0  0  0  0
   -2.1070    0.0500   -1.9278 H   0  0  0  0  0  0  0  0  0  0  0  0
   -6.6546    1.3600    0.0079 H   0  0  0  0  0  0  0  0  0  0  0  0
   -5.9497    2.8453    0.6291 H   0  0  0  0  0  0  0  0  0  0  0  0
   -7.2287    2.9399   -0.5819 H   0  0  0  0  0  0  0  0  0  0  0  0
   -6.7772    2.4370   -3.0145 H   0  0  0  0  0  0  0  0  0  0  0  0
   -5.2449    1.6694   -3.4819 H   0  0  0  0  0  0  0  0  0  0  0  0
   -6.3965    0.7843   -2.4937 H   0  0  0  0  0  0  0  0  0  0  0  0
   -3.9185    3.6314   -2.4575 H   0  0  0  0  0  0  0  0  0  0  0  0
   -5.4836    4.3874   -2.0905 H   0  0  0  0  0  0  0  0  0  0  0  0
   -4.2716    4.1740   -0.8239 H   0  0  0  0  0  0  0  0  0  0  0  0
   -1.7653    1.2848    1.8979 H   0  0  0  0  0  0  0  0  0  0  0  0
   -0.5507    0.8760    0.6936 H   0  0  0  0  0  0  0  0  0  0  0  0
   -0.4442   -0.8191    2.4072 H   0  0  0  0  0  0  0  0  0  0  0  0
   -2.1854   -0.9847    2.4752 H   0  0  0  0  0  0  0  0  0  0  0  0
    1.9222    0.7905   -0.3853 H   0  0  0  0  0  0  0  0  0  0  0  0
  1  2  1  0
  2  3  1  0
  3  4  2  0
  4  5  1  0
  5  6  2  0
  6  7  1  0
  7  8  1  0
  8  9  2  0
  8 10  1  0
 10 11  2  0
 11 12  1  0
 12 13  1  0
 13 14  1  0
 14 15  2  0
 14 16  1  0
 16 17  2  0
 17 18  1  0
 18 19  1  0
 19 20  1  0
 20 21  1  0
 21 22  1  0
 22 23  2  0
 22 24  1  0
 24 25  1  0
 25 26  1  0
 25 27  1  0
 25 28  1  0
 21 29  1  0
 29 30  1  0
 17 31  1  0
 31 32  2  0
  6 33  1  0
 33 34  2  0
 34 35  1  0
 34  3  1  0
 32 10  1  0
 32 13  1  0
 30 18  1  0
  1 36  1  0
  1 37  1  0
  1 38  1  0
  4 39  1  0
  5 40  1  0
  7 41  1  0
 11 42  1  0
 12 43  1  0
 16 44  1  0
 18 45  1  0
 19 46  1  0
 19 47  1  0
 20 48  1  0
 20 49  1  0
 26 50  1  0
 26 51  1  0
 26 52  1  0
 27 53  1  0
 27 54  1  0
 27 55  1  0
 28 56  1  0
 28 57  1  0
 28 58  1  0
 29 59  1  0
 29 60  1  0
 30 61  1  0
 30 62  1  0
 33 63  1  0
M  END
$$$$
