
     RDKit          3D

 54 56  0  0  0  0  0  0  0  0999 V2000
    5.7432    2.5074   -0.3585 C   0  0  0  0  0  0  0  0  0  0  0  0
    6.2661    1.2103    0.2534 C   0  0  0  0  0  0  0  0  0  0  0  0
    5.2718    0.1686    0.5124 N   0  0  0  0  0  0  0  0  0  0  0  0
    4.6658   -0.3942   -0.7041 C   0  0  0  0  0  0  0  0  0  0  0  0
    3.4958   -1.3651   -0.4128 C   0  0  0  0  0  0  0  0  0  0  0  0
    2.4466   -0.7291    0.4038 N   0  0  0  0  0  0  0  0  0  0  0  0
    1.1092   -0.9227    0.0814 C   0  0  0  0  0  0  0  0  0  0  0  0
    0.6547   -2.1393   -0.3857 C   0  0  0  0  0  0  0  0  0  0  0  0
   -0.6908   -2.2552   -0.6612 C   0  0  0  0  0  0  0  0  0  0  0  0
   -1.2988   -3.8168   -1.2869 S   0  0  0  0  0  0  0  0  0  0  0  0
   -3.1105   -3.6393   -1.0456 C   0  0  0  0  0  0  0  0  0  0  0  0
   -3.4741   -3.8080    0.4278 C   0  0  0  0  0  0  0  0  0  0  0  0
   -3.8093   -4.7045   -1.8893 C   0  0  0  0  0  0  0  0  0  0  0  0
   -1.5572   -1.2474   -0.5023 N   0  0  0  0  0  0  0  0  0  0  0  0
   -1.0504   -0.1009   -0.0266 C   0  0  0  0  0  0  0  0  0  0  0  0
   -1.9795    1.0293    0.1823 C   0  0  0  0  0  0  0  0  0  0  0  0
   -1.5350    2.2650    0.6858 C   0  0  0  0  0  0  0  0  0  0  0  0
   -2.4176    3.3339    0.8827 C   0  0  0  0  0  0  0  0  0  0  0  0
   -3.7730    3.2031    0.5835 C   0  0  0  0  0  0  0  0  0  0  0  0
   -4.5241    4.3202    0.8212 O   0  0  0  0  0  0  0  0  0  0  0  0
   -5.9156    4.2292    0.5437 C   0  0  0  0  0  0  0  0  0  0  0  0
   -4.2391    1.9902    0.0836 C   0  0  0  0  0  0  0  0  0  0  0  0
   -3.3522    0.9210   -0.1127 C   0  0  0  0  0  0  0  0  0  0  0  0
    0.2472    0.0898    0.2746 N   0  0  0  0  0  0  0  0  0  0  0  0
    2.8001    0.5521    1.0338 C   0  0  0  0  0  0  0  0  0  0  0  0
    4.2652    0.5280    1.5297 C   0  0  0  0  0  0  0  0  0  0  0  0
    4.9622    2.9653    0.2560 H   0  0  0  0  0  0  0  0  0  0  0  0
    6.5620    3.2303   -0.4430 H   0  0  0  0  0  0  0  0  0  0  0  0
    5.3433    2.3504   -1.3646 H   0  0  0  0  0  0  0  0  0  0  0  0
    7.0469    0.8027   -0.4008 H   0  0  0  0  0  0  0  0  0  0  0  0
    6.7762    1.4485    1.1955 H   0  0  0  0  0  0  0  0  0  0  0  0
    4.2826    0.4015   -1.3543 H   0  0  0  0  0  0  0  0  0  0  0  0
    5.4330   -0.9338   -1.2719 H   0  0  0  0  0  0  0  0  0  0  0  0
    3.1076   -1.7057   -1.3805 H   0  0  0  0  0  0  0  0  0  0  0  0
    3.8707   -2.2451    0.1232 H   0  0  0  0  0  0  0  0  0  0  0  0
    1.3198   -2.9833   -0.5082 H   0  0  0  0  0  0  0  0  0  0  0  0
   -3.4401   -2.6585   -1.4046 H   0  0  0  0  0  0  0  0  0  0  0  0
   -4.5572   -3.7135    0.5639 H   0  0  0  0  0  0  0  0  0  0  0  0
   -3.0040   -3.0453    1.0569 H   0  0  0  0  0  0  0  0  0  0  0  0
   -3.1806   -4.7930    0.8083 H   0  0  0  0  0  0  0  0  0  0  0  0
   -3.5266   -5.7191   -1.5860 H   0  0  0  0  0  0  0  0  0  0  0  0
   -3.5788   -4.5850   -2.9540 H   0  0  0  0  0  0  0  0  0  0  0  0
   -4.8968   -4.6211   -1.7823 H   0  0  0  0  0  0  0  0  0  0  0  0
   -0.4840    2.4074    0.9325 H   0  0  0  0  0  0  0  0  0  0  0  0
   -2.0402    4.2757    1.2737 H   0  0  0  0  0  0  0  0  0  0  0  0
   -6.3940    3.4679    1.1687 H   0  0  0  0  0  0  0  0  0  0  0  0
   -6.0946    4.0385   -0.5197 H   0  0  0  0  0  0  0  0  0  0  0  0
   -6.3692    5.1944    0.7893 H   0  0  0  0  0  0  0  0  0  0  0  0
   -5.2833    1.8357   -0.1663 H   0  0  0  0  0  0  0  0  0  0  0  0
   -3.7496   -0.0139   -0.5059 H   0  0  0  0  0  0  0  0  0  0  0  0
    2.6653    1.3773    0.3224 H   0  0  0  0  0  0  0  0  0  0  0  0
    2.1556    0.7412    1.9014 H   0  0  0  0  0  0  0  0  0  0  0  0
    4.3392   -0.2288    2.3218 H   0  0  0  0  0  0  0  0  0  0  0  0
    4.4960    1.4839    2.0146 H   0  0  0  0  0  0  0  0  0  0  0  0
  1  2  1  0
  2  3  1  0
  3  4  1  0
  4  5  1  0
  5  6  1  0
  6  7  1  0
  7  8  2  0
  8  9  1  0
  9 10  1  0
 10 11  1  0
 11 12  1  0
 11 13  1  0
  9 14  2  0
 14 15  1  0
 15 16  1  0
 16 17  2  0
 17 18  1  0
 18 19  2  0
 19 20  1  0
 20 21  1  0
 19 22  1  0
 22 23  2  0
 15 24  2  0
  6 25  1  0
 25 26  1  0
 26  3  1  0
 24  7  1  0
 23 16  1  0
  1 27  1  0
  1 28  1  0
  1 29  1  0
  2 30  1  0
  2 31  1  0
  4 32  1  0
  4 33  1  0
  5 34  1  0
  5 35  1  0
  8 36  1  0
 11 37  1  0
 12 38  1  0
 12 39  1  0
 12 40  1  0
 13 41  1  0
 13 42  1  0
 13 43  1  0
 17 44  1  0
 18 45  1  0
 21 46  1  0
 21 47  1  0
 21 48  1  0
 22 49  1  0
 23 50  1  0
 25 51  1  0
 25 52  1  0
 26 53  1  0
 26 54  1  0
M  END
$$$$
