
     RDKit          3D

 55 57  0  0  0  0  0  0  0  0999 V2000
    4.6489   -0.0960   -4.2163 C   0  0  0  0  0  0  0  0  0  0  0  0
    5.0669    0.1260   -2.8768 O   0  0  0  0  0  0  0  0  0  0  0  0
    4.0901    0.4235   -1.9667 C   0  0  0  0  0  0  0  0  0  0  0  0
    4.5527    0.6898   -0.6775 C   0  0  0  0  0  0  0  0  0  0  0  0
    3.6605    1.0162    0.3490 C   0  0  0  0  0  0  0  0  0  0  0  0
    2.2788    1.0807    0.1073 C   0  0  0  0  0  0  0  0  0  0  0  0
    1.3230    1.4208    1.2543 C   0  0  0  0  0  0  0  0  0  0  0  0
    0.1773    2.7793    0.7487 S   0  0  0  0  0  0  0  0  0  0  0  0
   -1.2571    2.4425    1.7560 C   0  0  0  0  0  0  0  0  0  0  0  0
   -1.6936    3.4844    2.5875 C   0  0  0  0  0  0  0  0  0  0  0  0
   -2.8590    3.3557    3.3455 C   0  0  0  0  0  0  0  0  0  0  0  0
   -3.6110    2.1894    3.2602 C   0  0  0  0  0  0  0  0  0  0  0  0
   -3.1937    1.1494    2.4247 C   0  0  0  0  0  0  0  0  0  0  0  0
   -2.0158    1.2574    1.6645 C   0  0  0  0  0  0  0  0  0  0  0  0
   -1.6167    0.1548    0.8501 N   0  0  0  0  0  0  0  0  0  0  0  0
   -2.6363   -0.5352    0.0431 C   0  0  0  0  0  0  0  0  0  0  0  0
   -2.3155   -0.4888   -1.4723 C   0  0  0  0  0  0  0  0  0  0  0  0
   -3.3567   -1.1010   -2.3245 N   0  0  0  0  0  0  0  0  0  0  0  0
   -3.0928   -0.7737   -3.7302 C   0  0  0  0  0  0  0  0  0  0  0  0
   -3.3839   -2.5607   -2.1641 C   0  0  0  0  0  0  0  0  0  0  0  0
   -0.3595   -0.4519    0.9580 C   0  0  0  0  0  0  0  0  0  0  0  0
   -0.0850   -1.4879    0.3406 O   0  0  0  0  0  0  0  0  0  0  0  0
    0.6690    0.1867    1.9049 C   0  0  0  0  0  0  0  0  0  0  0  0
    1.7056   -0.7477    2.2737 O   0  0  0  0  0  0  0  0  0  0  0  0
    1.3065   -1.7403    3.1153 C   0  0  0  0  0  0  0  0  0  0  0  0
    2.4188   -2.7241    3.3213 C   0  0  0  0  0  0  0  0  0  0  0  0
    0.1972   -1.8323    3.6247 O   0  0  0  0  0  0  0  0  0  0  0  0
    1.8237    0.7945   -1.1906 C   0  0  0  0  0  0  0  0  0  0  0  0
    2.7203    0.4745   -2.2179 C   0  0  0  0  0  0  0  0  0  0  0  0
    4.0394   -1.0056   -4.2894 H   0  0  0  0  0  0  0  0  0  0  0  0
    5.5481   -0.2458   -4.8219 H   0  0  0  0  0  0  0  0  0  0  0  0
    4.1219    0.7742   -4.6199 H   0  0  0  0  0  0  0  0  0  0  0  0
    5.6197    0.6384   -0.4708 H   0  0  0  0  0  0  0  0  0  0  0  0
    4.0596    1.2095    1.3419 H   0  0  0  0  0  0  0  0  0  0  0  0
    1.9372    1.8859    2.0388 H   0  0  0  0  0  0  0  0  0  0  0  0
   -1.1337    4.4151    2.6509 H   0  0  0  0  0  0  0  0  0  0  0  0
   -3.1814    4.1699    3.9924 H   0  0  0  0  0  0  0  0  0  0  0  0
   -4.5227    2.0840    3.8445 H   0  0  0  0  0  0  0  0  0  0  0  0
   -3.7852    0.2364    2.4075 H   0  0  0  0  0  0  0  0  0  0  0  0
   -2.6976   -1.5666    0.4043 H   0  0  0  0  0  0  0  0  0  0  0  0
   -3.6186   -0.0702    0.1871 H   0  0  0  0  0  0  0  0  0  0  0  0
   -1.3450   -0.9443   -1.6831 H   0  0  0  0  0  0  0  0  0  0  0  0
   -2.2149    0.5699   -1.7413 H   0  0  0  0  0  0  0  0  0  0  0  0
   -2.0961   -1.1020   -4.0573 H   0  0  0  0  0  0  0  0  0  0  0  0
   -3.1644    0.3121   -3.8852 H   0  0  0  0  0  0  0  0  0  0  0  0
   -3.8427   -1.2378   -4.3864 H   0  0  0  0  0  0  0  0  0  0  0  0
   -3.6283   -2.8396   -1.1338 H   0  0  0  0  0  0  0  0  0  0  0  0
   -2.4244   -3.0257   -2.4366 H   0  0  0  0  0  0  0  0  0  0  0  0
   -4.1719   -3.0046   -2.7906 H   0  0  0  0  0  0  0  0  0  0  0  0
    0.1786    0.4905    2.8375 H   0  0  0  0  0  0  0  0  0  0  0  0
    3.3832   -2.2042    3.3390 H   0  0  0  0  0  0  0  0  0  0  0  0
    2.2974   -3.2174    4.2919 H   0  0  0  0  0  0  0  0  0  0  0  0
    2.4077   -3.4671    2.5187 H   0  0  0  0  0  0  0  0  0  0  0  0
    0.7607    0.8195   -1.4303 H   0  0  0  0  0  0  0  0  0  0  0  0
    2.3110    0.2653   -3.2007 H   0  0  0  0  0  0  0  0  0  0  0  0
  1  2  1  0
  2  3  1  0
  3  4  2  0
  4  5  1  0
  5  6  2  0
  6  7  1  0
  7  8  1  0
  8  9  1  0
  9 10  2  0
 10 11  1  0
 11 12  2  0
 12 13  1  0
 13 14  2  0
 14 15  1  0
 15 16  1  0
 16 17  1  0
 17 18  1  0
 18 19  1  0
 18 20  1  0
 15 21  1  0
 21 22  2  0
 21 23  1  0
 23 24  1  0
 24 25  1  0
 25 26  1  0
 25 27  2  0
  6 28  1  0
 28 29  2  0
 29  3  1  0
 23  7  1  0
 14  9  1  0
  1 30  1  0
  1 31  1  0
  1 32  1  0
  4 33  1  0
  5 34  1  0
  7 35  1  0
 10 36  1  0
 11 37  1  0
 12 38  1  0
 13 39  1  0
 16 40  1  0
 16 41  1  0
 17 42  1  0
 17 43  1  0
 19 44  1  0
 19 45  1  0
 19 46  1  0
 20 47  1  0
 20 48  1  0
 20 49  1  0
 23 50  1  0
 26 51  1  0
 26 52  1  0
 26 53  1  0
 28 54  1  0
 29 55  1  0
M  END
$$$$
