
     RDKit          3D

 54 56  0  0  0  0  0  0  0  0999 V2000
    7.0021    1.2147   -0.5193 C   0  0  0  0  0  0  0  0  0  0  0  0
    6.1398    0.9025    0.7006 C   0  0  0  0  0  0  0  0  0  0  0  0
    4.9110    0.1903    0.3424 N   0  0  0  0  0  0  0  0  0  0  0  0
    3.9850    0.9929   -0.4878 C   0  0  0  0  0  0  0  0  0  0  0  0
    2.4828    0.9285   -0.1062 C   0  0  0  0  0  0  0  0  0  0  0  0
    2.0768   -0.4458    0.2145 N   0  0  0  0  0  0  0  0  0  0  0  0
    0.7038   -0.6682    0.3302 C   0  0  0  0  0  0  0  0  0  0  0  0
    0.2087   -1.9444    0.5060 C   0  0  0  0  0  0  0  0  0  0  0  0
   -1.1583   -2.0872    0.5796 C   0  0  0  0  0  0  0  0  0  0  0  0
   -1.8794   -3.7006    0.8003 S   0  0  0  0  0  0  0  0  0  0  0  0
   -2.1286   -4.1519   -0.9573 C   0  0  0  0  0  0  0  0  0  0  0  0
   -2.2280   -5.6728   -1.0528 C   0  0  0  0  0  0  0  0  0  0  0  0
   -3.3843   -3.4977   -1.5211 C   0  0  0  0  0  0  0  0  0  0  0  0
   -2.0101   -1.0599    0.5032 N   0  0  0  0  0  0  0  0  0  0  0  0
   -1.4598    0.1485    0.3204 C   0  0  0  0  0  0  0  0  0  0  0  0
   -2.3671    1.3101    0.2192 C   0  0  0  0  0  0  0  0  0  0  0  0
   -1.8821    2.6064   -0.0308 C   0  0  0  0  0  0  0  0  0  0  0  0
   -2.7452    3.7054   -0.1199 C   0  0  0  0  0  0  0  0  0  0  0  0
   -4.1213    3.5447    0.0378 C   0  0  0  0  0  0  0  0  0  0  0  0
   -4.8507    4.6967   -0.0683 O   0  0  0  0  0  0  0  0  0  0  0  0
   -6.2552    4.5845    0.1183 C   0  0  0  0  0  0  0  0  0  0  0  0
   -4.6278    2.2706    0.2829 C   0  0  0  0  0  0  0  0  0  0  0  0
   -3.7596    1.1712    0.3722 C   0  0  0  0  0  0  0  0  0  0  0  0
   -0.1363    0.3747    0.2213 N   0  0  0  0  0  0  0  0  0  0  0  0
    2.9598   -1.1705    1.1454 C   0  0  0  0  0  0  0  0  0  0  0  0
    4.2278   -0.3632    1.5194 C   0  0  0  0  0  0  0  0  0  0  0  0
    7.2278    0.3055   -1.0857 H   0  0  0  0  0  0  0  0  0  0  0  0
    7.9523    1.6557   -0.2015 H   0  0  0  0  0  0  0  0  0  0  0  0
    6.5160    1.9273   -1.1922 H   0  0  0  0  0  0  0  0  0  0  0  0
    5.9143    1.8272    1.2461 H   0  0  0  0  0  0  0  0  0  0  0  0
    6.7429    0.2756    1.3679 H   0  0  0  0  0  0  0  0  0  0  0  0
    4.0966    0.6328   -1.5174 H   0  0  0  0  0  0  0  0  0  0  0  0
    4.2654    2.0524   -0.4947 H   0  0  0  0  0  0  0  0  0  0  0  0
    1.9095    1.3204   -0.9563 H   0  0  0  0  0  0  0  0  0  0  0  0
    2.2980    1.5822    0.7560 H   0  0  0  0  0  0  0  0  0  0  0  0
    0.8611   -2.8024    0.5569 H   0  0  0  0  0  0  0  0  0  0  0  0
   -1.2590   -3.8262   -1.5408 H   0  0  0  0  0  0  0  0  0  0  0  0
   -2.3474   -5.9840   -2.0962 H   0  0  0  0  0  0  0  0  0  0  0  0
   -1.3198   -6.1558   -0.6745 H   0  0  0  0  0  0  0  0  0  0  0  0
   -3.0850   -6.0632   -0.4933 H   0  0  0  0  0  0  0  0  0  0  0  0
   -3.3185   -2.4062   -1.4993 H   0  0  0  0  0  0  0  0  0  0  0  0
   -3.5220   -3.7881   -2.5689 H   0  0  0  0  0  0  0  0  0  0  0  0
   -4.2879   -3.7999   -0.9799 H   0  0  0  0  0  0  0  0  0  0  0  0
   -0.8142    2.7739   -0.1594 H   0  0  0  0  0  0  0  0  0  0  0  0
   -2.3358    4.6937   -0.3111 H   0  0  0  0  0  0  0  0  0  0  0  0
   -6.6874    5.5819    0.0070 H   0  0  0  0  0  0  0  0  0  0  0  0
   -6.4928    4.2286    1.1258 H   0  0  0  0  0  0  0  0  0  0  0  0
   -6.7044    3.9422   -0.6450 H   0  0  0  0  0  0  0  0  0  0  0  0
   -5.6893    2.0892    0.4129 H   0  0  0  0  0  0  0  0  0  0  0  0
   -4.1876    0.1879    0.5685 H   0  0  0  0  0  0  0  0  0  0  0  0
    2.4391   -1.4207    2.0793 H   0  0  0  0  0  0  0  0  0  0  0  0
    3.2625   -2.1108    0.6704 H   0  0  0  0  0  0  0  0  0  0  0  0
    4.9056   -1.0395    2.0581 H   0  0  0  0  0  0  0  0  0  0  0  0
    3.9564    0.4408    2.2171 H   0  0  0  0  0  0  0  0  0  0  0  0
  1  2  1  0
  2  3  1  0
  3  4  1  0
  4  5  1  0
  5  6  1  0
  6  7  1  0
  7  8  2  0
  8  9  1  0
  9 10  1  0
 10 11  1  0
 11 12  1  0
 11 13  1  0
  9 14  2  0
 14 15  1  0
 15 16  1  0
 16 17  2  0
 17 18  1  0
 18 19  2  0
 19 20  1  0
 20 21  1  0
 19 22  1  0
 22 23  2  0
 15 24  2  0
  6 25  1  0
 25 26  1  0
 26  3  1  0
 24  7  1  0
 23 16  1  0
  1 27  1  0
  1 28  1  0
  1 29  1  0
  2 30  1  0
  2 31  1  0
  4 32  1  0
  4 33  1  0
  5 34  1  0
  5 35  1  0
  8 36  1  0
 11 37  1  0
 12 38  1  0
 12 39  1  0
 12 40  1  0
 13 41  1  0
 13 42  1  0
 13 43  1  0
 17 44  1  0
 18 45  1  0
 21 46  1  0
 21 47  1  0
 21 48  1  0
 22 49  1  0
 23 50  1  0
 25 51  1  0
 25 52  1  0
 26 53  1  0
 26 54  1  0
M  END
$$$$
