
     RDKit          3D

 61 63  0  0  0  0  0  0  0  0999 V2000
    7.4619   -1.1609    2.6374 C   0  0  0  0  0  0  0  0  0  0  0  0
    6.7333   -0.9000    1.4094 N   0  0  0  0  0  0  0  0  0  0  0  0
    5.8973    0.2036    1.3753 C   0  0  0  0  0  0  0  0  0  0  0  0
    5.7041    0.9574    2.3265 O   0  0  0  0  0  0  0  0  0  0  0  0
    5.1892    0.4586    0.1124 C   0  0  0  0  0  0  0  0  0  0  0  0
    4.3965    1.6096   -0.0106 C   0  0  0  0  0  0  0  0  0  0  0  0
    3.7035    1.8393   -1.1977 C   0  0  0  0  0  0  0  0  0  0  0  0
    2.7001    3.2956   -1.3488 S   0  0  0  0  0  6  0  0  0  0  0  0
    2.2094    3.3684   -2.7064 O   0  0  0  0  0  0  0  0  0  0  0  0
    3.4194    4.3873   -0.7338 O   0  0  0  0  0  0  0  0  0  0  0  0
    1.4007    2.9489   -0.3473 N   0  0  0  0  0  0  0  0  0  0  0  0
    0.5833    1.7560   -0.6004 C   0  0  0  0  0  0  0  0  0  0  0  0
   -0.8619    2.0480   -0.2239 C   0  0  0  0  0  0  0  0  0  0  0  0
   -1.7260    0.8237   -0.4251 C   0  0  0  0  0  0  0  0  0  0  0  0
   -1.2766   -0.2691   -0.7515 O   0  0  0  0  0  0  0  0  0  0  0  0
   -3.0639    1.0647   -0.1920 N   0  0  0  0  0  0  0  0  0  0  0  0
   -4.0682   -0.0028   -0.2310 C   0  0  0  0  0  0  0  0  0  0  0  0
   -5.4069    0.6115   -0.6768 C   0  0  0  0  0  0  0  0  0  0  0  0
   -6.4990   -0.4016   -1.0230 C   0  0  0  0  0  0  0  0  0  0  0  0
   -7.5782   -0.5865    0.0434 C   0  0  0  0  0  0  0  0  0  0  0  0
   -7.1235   -0.6972    1.4949 C   0  0  0  0  0  0  0  0  0  0  0  0
   -6.2659   -1.9116    1.8343 C   0  0  0  0  0  0  0  0  0  0  0  0
   -4.8978   -2.0200    1.1619 C   0  0  0  0  0  0  0  0  0  0  0  0
   -4.0821   -0.7264    1.1295 C   0  0  0  0  0  0  0  0  0  0  0  0
    3.8126    0.9457   -2.2616 C   0  0  0  0  0  0  0  0  0  0  0  0
    4.6118   -0.1954   -2.1272 C   0  0  0  0  0  0  0  0  0  0  0  0
    5.3109   -0.4542   -0.9353 C   0  0  0  0  0  0  0  0  0  0  0  0
    6.1222   -1.6077   -0.7678 N   0  0  0  0  0  0  0  0  0  0  0  0
    6.2226   -2.5808   -1.8489 C   0  0  0  0  0  0  0  0  0  0  0  0
    6.8350   -1.8534    0.4031 C   0  0  0  0  0  0  0  0  0  0  0  0
    7.5190   -2.8691    0.5494 O   0  0  0  0  0  0  0  0  0  0  0  0
    7.5310   -0.2712    3.2689 H   0  0  0  0  0  0  0  0  0  0  0  0
    6.9401   -1.9502    3.1880 H   0  0  0  0  0  0  0  0  0  0  0  0
    8.4748   -1.5061    2.4071 H   0  0  0  0  0  0  0  0  0  0  0  0
    4.3258    2.3172    0.8139 H   0  0  0  0  0  0  0  0  0  0  0  0
    1.5191    3.2747    0.6110 H   0  0  0  0  0  0  0  0  0  0  0  0
    0.6339    1.4630   -1.6547 H   0  0  0  0  0  0  0  0  0  0  0  0
    0.9775    0.9282   -0.0001 H   0  0  0  0  0  0  0  0  0  0  0  0
   -0.9284    2.3522    0.8272 H   0  0  0  0  0  0  0  0  0  0  0  0
   -1.2541    2.8660   -0.8396 H   0  0  0  0  0  0  0  0  0  0  0  0
   -3.3290    1.9475    0.2271 H   0  0  0  0  0  0  0  0  0  0  0  0
   -3.7424   -0.7173   -0.9982 H   0  0  0  0  0  0  0  0  0  0  0  0
   -5.7604    1.3512    0.0515 H   0  0  0  0  0  0  0  0  0  0  0  0
   -5.2070    1.1892   -1.5913 H   0  0  0  0  0  0  0  0  0  0  0  0
   -6.0686   -1.3657   -1.3101 H   0  0  0  0  0  0  0  0  0  0  0  0
   -7.0122   -0.0488   -1.9282 H   0  0  0  0  0  0  0  0  0  0  0  0
   -8.1807   -1.4655   -0.2174 H   0  0  0  0  0  0  0  0  0  0  0  0
   -8.2607    0.2716   -0.0192 H   0  0  0  0  0  0  0  0  0  0  0  0
   -6.6261    0.2249    1.8126 H   0  0  0  0  0  0  0  0  0  0  0  0
   -8.0286   -0.7559    2.1146 H   0  0  0  0  0  0  0  0  0  0  0  0
   -6.8325   -2.8272    1.6244 H   0  0  0  0  0  0  0  0  0  0  0  0
   -6.1053   -1.9036    2.9205 H   0  0  0  0  0  0  0  0  0  0  0  0
   -4.9905   -2.4549    0.1622 H   0  0  0  0  0  0  0  0  0  0  0  0
   -4.3274   -2.7648    1.7341 H   0  0  0  0  0  0  0  0  0  0  0  0
   -4.3811   -0.0412    1.9316 H   0  0  0  0  0  0  0  0  0  0  0  0
   -3.0451   -1.0019    1.3681 H   0  0  0  0  0  0  0  0  0  0  0  0
    3.2832    1.1241   -3.1963 H   0  0  0  0  0  0  0  0  0  0  0  0
    4.6681   -0.8671   -2.9798 H   0  0  0  0  0  0  0  0  0  0  0  0
    6.8625   -3.4279   -1.5873 H   0  0  0  0  0  0  0  0  0  0  0  0
    6.6543   -2.0986   -2.7317 H   0  0  0  0  0  0  0  0  0  0  0  0
    5.2270   -2.9747   -2.0771 H   0  0  0  0  0  0  0  0  0  0  0  0
  1  2  1  0
  2  3  1  0
  3  4  2  0
  3  5  1  0
  5  6  2  0
  6  7  1  0
  7  8  1  0
  8  9  2  0
  8 10  2  0
  8 11  1  0
 11 12  1  0
 12 13  1  0
 13 14  1  0
 14 15  2  0
 14 16  1  0
 16 17  1  0
 17 18  1  0
 18 19  1  0
 19 20  1  0
 20 21  1  0
 21 22  1  0
 22 23  1  0
 23 24  1  0
  7 25  2  0
 25 26  1  0
 26 27  2  0
 27 28  1  0
 28 29  1  0
 28 30  1  0
 30 31  2  0
 30  2  1  0
 27  5  1  0
 24 17  1  0
  1 32  1  0
  1 33  1  0
  1 34  1  0
  6 35  1  0
 11 36  1  0
 12 37  1  0
 12 38  1  0
 13 39  1  0
 13 40  1  0
 16 41  1  0
 17 42  1  0
 18 43  1  0
 18 44  1  0
 19 45  1  0
 19 46  1  0
 20 47  1  0
 20 48  1  0
 21 49  1  0
 21 50  1  0
 22 51  1  0
 22 52  1  0
 23 53  1  0
 23 54  1  0
 24 55  1  0
 24 56  1  0
 25 57  1  0
 26 58  1  0
 29 59  1  0
 29 60  1  0
 29 61  1  0
M  END
$$$$
