
     RDKit          3D

 52 56  0  0  0  0  0  0  0  0999 V2000
   -1.3315   -2.6771    1.3696 O   0  0  0  0  0  0  0  0  0  0  0  0
   -2.1756   -2.6212    0.4907 C   0  0  0  0  0  0  0  0  0  0  0  0
   -2.9621   -3.6874    0.1477 O   0  0  0  0  0  0  0  0  0  0  0  0
   -3.9690   -3.2238   -0.7561 C   0  0  0  0  0  0  0  0  0  0  0  0
   -3.4353   -1.9249   -1.2933 C   0  0  0  0  0  0  0  0  0  0  0  0
   -2.4907   -1.5263   -0.2952 N   0  0  0  0  0  0  0  0  0  0  0  0
   -1.8788   -0.2771   -0.3610 C   0  0  0  0  0  0  0  0  0  0  0  0
   -2.2161    0.5181   -1.2445 O   0  0  0  0  0  0  0  0  0  0  0  0
   -0.7874    0.0369    0.6860 C   0  0  0  0  0  0  0  0  0  0  0  0
    0.5950   -0.5780    0.3662 C   0  0  0  0  0  0  0  0  0  0  0  0
    0.7801   -1.1838   -1.0158 C   0  0  0  0  0  0  0  0  0  0  0  0
    0.7691   -0.3896   -2.1759 C   0  0  0  0  0  0  0  0  0  0  0  0
    0.9235   -0.9710   -3.4350 C   0  0  0  0  0  0  0  0  0  0  0  0
    1.0905   -2.3453   -3.5402 C   0  0  0  0  0  0  0  0  0  0  0  0
    1.2331   -2.9036   -4.7492 F   0  0  0  0  0  0  0  0  0  0  0  0
    1.1047   -3.1512   -2.4091 C   0  0  0  0  0  0  0  0  0  0  0  0
    0.9487   -2.5732   -1.1487 C   0  0  0  0  0  0  0  0  0  0  0  0
    1.4720    0.6364    0.5947 C   0  0  0  0  0  0  0  0  0  0  0  0
    2.9580    0.5707    0.5893 C   0  0  0  0  0  0  0  0  0  0  0  0
    3.6816    1.7708    0.5271 C   0  0  0  0  0  0  0  0  0  0  0  0
    5.0778    1.7572    0.5167 C   0  0  0  0  0  0  0  0  0  0  0  0
    5.7601    0.5436    0.5720 C   0  0  0  0  0  0  0  0  0  0  0  0
    5.0420   -0.6488    0.6416 C   0  0  0  0  0  0  0  0  0  0  0  0
    5.8863   -2.1474    0.7173 Cl  0  0  0  0  0  0  0  0  0  0  0  0
    3.6464   -0.6442    0.6539 C   0  0  0  0  0  0  0  0  0  0  0  0
    0.8363    1.7498    0.7979 N   0  0  0  0  0  0  0  0  0  0  0  0
   -0.5061    1.4859    0.7624 N   0  0  0  0  0  0  0  0  0  0  0  0
   -1.3732    2.4120    1.3623 C   0  0  0  0  0  0  0  0  0  0  0  0
   -2.6659    2.0841    1.8020 C   0  0  0  0  0  0  0  0  0  0  0  0
   -3.5075    3.0380    2.3903 C   0  0  0  0  0  0  0  0  0  0  0  0
   -3.0765    4.3504    2.5488 C   0  0  0  0  0  0  0  0  0  0  0  0
   -1.8059    4.7090    2.1166 C   0  0  0  0  0  0  0  0  0  0  0  0
   -0.9720    3.7507    1.5306 C   0  0  0  0  0  0  0  0  0  0  0  0
   -4.8981   -3.0869   -0.1926 H   0  0  0  0  0  0  0  0  0  0  0  0
   -4.1377   -3.9625   -1.5448 H   0  0  0  0  0  0  0  0  0  0  0  0
   -4.2119   -1.1709   -1.4528 H   0  0  0  0  0  0  0  0  0  0  0  0
   -2.8932   -2.0727   -2.2346 H   0  0  0  0  0  0  0  0  0  0  0  0
   -1.1169   -0.2944    1.6778 H   0  0  0  0  0  0  0  0  0  0  0  0
    0.8460   -1.3154    1.1384 H   0  0  0  0  0  0  0  0  0  0  0  0
    0.6234    0.6896   -2.1108 H   0  0  0  0  0  0  0  0  0  0  0  0
    0.9094   -0.3586   -4.3312 H   0  0  0  0  0  0  0  0  0  0  0  0
    1.2384   -4.2232   -2.5158 H   0  0  0  0  0  0  0  0  0  0  0  0
    0.9593   -3.2180   -0.2705 H   0  0  0  0  0  0  0  0  0  0  0  0
    3.1603    2.7260    0.4822 H   0  0  0  0  0  0  0  0  0  0  0  0
    5.6294    2.6929    0.4653 H   0  0  0  0  0  0  0  0  0  0  0  0
    6.8470    0.5339    0.5633 H   0  0  0  0  0  0  0  0  0  0  0  0
    3.1224   -1.5911    0.7211 H   0  0  0  0  0  0  0  0  0  0  0  0
   -3.0565    1.0780    1.7026 H   0  0  0  0  0  0  0  0  0  0  0  0
   -4.5020    2.7512    2.7213 H   0  0  0  0  0  0  0  0  0  0  0  0
   -3.7286    5.0910    3.0027 H   0  0  0  0  0  0  0  0  0  0  0  0
   -1.4568    5.7316    2.2276 H   0  0  0  0  0  0  0  0  0  0  0  0
    0.0144    4.0597    1.1912 H   0  0  0  0  0  0  0  0  0  0  0  0
  1  2  2  0
  2  3  1  0
  3  4  1  0
  4  5  1  0
  5  6  1  0
  6  7  1  0
  7  8  2  0
  7  9  1  0
  9 10  1  0
 10 11  1  0
 11 12  2  0
 12 13  1  0
 13 14  2  0
 14 15  1  0
 14 16  1  0
 16 17  2  0
 10 18  1  0
 18 19  1  0
 19 20  2  0
 20 21  1  0
 21 22  2  0
 22 23  1  0
 23 24  1  0
 23 25  2  0
 18 26  2  0
 26 27  1  0
 27 28  1  0
 28 29  2  0
 29 30  1  0
 30 31  2  0
 31 32  1  0
 32 33  2  0
  6  2  1  0
 27  9  1  0
 33 28  1  0
 17 11  1  0
 25 19  1  0
  4 34  1  0
  4 35  1  0
  5 36  1  0
  5 37  1  0
  9 38  1  0
 10 39  1  0
 12 40  1  0
 13 41  1  0
 16 42  1  0
 17 43  1  0
 20 44  1  0
 21 45  1  0
 22 46  1  0
 25 47  1  0
 29 48  1  0
 30 49  1  0
 31 50  1  0
 32 51  1  0
 33 52  1  0
M  END
$$$$
