
     RDKit          3D

 37 39  0  0  0  0  0  0  0  0999 V2000
   -1.1192    1.7996   -1.9080 O   0  0  0  0  0  0  0  0  0  0  0  0
   -1.0743    1.5795   -0.7016 C   0  0  0  0  0  0  0  0  0  0  0  0
    0.0968    2.0876    0.1193 C   0  0  0  0  0  0  0  0  0  0  0  0
    1.2724    1.1206   -0.0151 C   0  0  0  0  0  0  0  0  0  0  0  0
    2.8211    2.0070    0.3640 S   0  0  0  0  0  0  0  0  0  0  0  0
    3.9271    0.6116    0.3335 C   0  0  0  0  0  0  0  0  0  0  0  0
    5.2740    0.8264    0.0224 C   0  0  0  0  0  0  0  0  0  0  0  0
    6.1845   -0.2308    0.0626 C   0  0  0  0  0  0  0  0  0  0  0  0
    5.7571   -1.5046    0.4311 C   0  0  0  0  0  0  0  0  0  0  0  0
    4.4175   -1.7253    0.7546 C   0  0  0  0  0  0  0  0  0  0  0  0
    3.4975   -0.6739    0.6929 C   0  0  0  0  0  0  0  0  0  0  0  0
    2.1676   -0.9413    1.0528 N   0  0  0  0  0  0  0  0  0  0  0  0
    1.1073   -0.0871    0.9076 C   0  0  0  0  0  0  0  0  0  0  0  0
    0.0284   -0.3809    1.4278 O   0  0  0  0  0  0  0  0  0  0  0  0
   -1.9879    0.8531    0.0353 N   0  0  0  0  0  0  0  0  0  0  0  0
   -3.1980    0.2532   -0.4020 C   0  0  0  0  0  0  0  0  0  0  0  0
   -3.6831    0.4361   -1.7040 C   0  0  0  0  0  0  0  0  0  0  0  0
   -4.8704   -0.1726   -2.1332 C   0  0  0  0  0  0  0  0  0  0  0  0
   -5.6049   -0.9789   -1.2700 C   0  0  0  0  0  0  0  0  0  0  0  0
   -5.1566   -1.1753    0.0321 C   0  0  0  0  0  0  0  0  0  0  0  0
   -3.9653   -0.5600    0.4612 C   0  0  0  0  0  0  0  0  0  0  0  0
   -3.5628   -0.7933    1.8481 N   0  0  0  0  0  4  0  0  0  0  0  0
   -3.8389   -1.8939    2.3478 O   0  0  0  0  0  0  0  0  0  0  0  0
   -2.9892    0.1299    2.4450 O   0  0  0  0  0  1  0  0  0  0  0  0
    0.3358    3.0818   -0.2808 H   0  0  0  0  0  0  0  0  0  0  0  0
   -0.2050    2.2339    1.1637 H   0  0  0  0  0  0  0  0  0  0  0  0
    1.3402    0.7409   -1.0423 H   0  0  0  0  0  0  0  0  0  0  0  0
    5.6265    1.8203   -0.2454 H   0  0  0  0  0  0  0  0  0  0  0  0
    7.2295   -0.0562   -0.1827 H   0  0  0  0  0  0  0  0  0  0  0  0
    6.4691   -2.3256    0.4714 H   0  0  0  0  0  0  0  0  0  0  0  0
    4.1039   -2.7248    1.0447 H   0  0  0  0  0  0  0  0  0  0  0  0
    1.9554   -1.8083    1.5313 H   0  0  0  0  0  0  0  0  0  0  0  0
   -1.7143    0.6543    1.0031 H   0  0  0  0  0  0  0  0  0  0  0  0
   -3.1613    1.0579   -2.4261 H   0  0  0  0  0  0  0  0  0  0  0  0
   -5.2167   -0.0102   -3.1522 H   0  0  0  0  0  0  0  0  0  0  0  0
   -6.5244   -1.4488   -1.6112 H   0  0  0  0  0  0  0  0  0  0  0  0
   -5.7396   -1.8019    0.7046 H   0  0  0  0  0  0  0  0  0  0  0  0
  1  2  2  0
  2  3  1  0
  3  4  1  0
  4  5  1  0
  5  6  1  0
  6  7  2  0
  7  8  1  0
  8  9  2  0
  9 10  1  0
 10 11  2  0
 11 12  1  0
 12 13  1  0
 13 14  2  0
  2 15  1  0
 15 16  1  0
 16 17  2  0
 17 18  1  0
 18 19  2  0
 19 20  1  0
 20 21  2  0
 21 22  1  0
 22 23  2  0
 22 24  1  0
 13  4  1  0
 21 16  1  0
 11  6  1  0
  3 25  1  0
  3 26  1  0
  4 27  1  0
  7 28  1  0
  8 29  1  0
  9 30  1  0
 10 31  1  0
 12 32  1  0
 15 33  1  0
 17 34  1  0
 18 35  1  0
 19 36  1  0
 20 37  1  0
M  CHG  2  22   1  24  -1
M  END
$$$$
