
     RDKit          3D

 43 44  0  0  0  0  0  0  0  0999 V2000
    7.5659    0.3861   -1.1358 C   0  0  0  0  0  0  0  0  0  0  0  0
    6.2992    1.1508   -1.4670 C   0  0  0  0  0  0  0  0  0  0  0  0
    5.1781    0.3094   -1.1709 O   0  0  0  0  0  0  0  0  0  0  0  0
    3.9682    0.8815   -1.4235 C   0  0  0  0  0  0  0  0  0  0  0  0
    3.7964    2.0117   -1.8671 O   0  0  0  0  0  0  0  0  0  0  0  0
    2.8470   -0.0766   -1.0577 C   0  0  0  0  0  0  0  0  0  0  0  0
    1.5606    0.4716   -1.4597 N   0  0  0  0  0  0  0  0  0  0  0  0
    0.4017   -0.2188   -1.1999 C   0  0  0  0  0  0  0  0  0  0  0  0
    0.3876   -1.3730   -0.7801 O   0  0  0  0  0  0  0  0  0  0  0  0
   -0.8786    0.5444   -1.4778 C   0  0  0  0  0  0  0  0  0  0  0  0
   -1.0557    1.9900   -0.3900 S   0  0  0  0  0  0  0  0  0  0  0  0
   -0.6644    1.3062    1.1578 C   0  0  0  0  0  0  0  0  0  0  0  0
    0.4504    1.5839    1.7958 N   0  0  0  0  0  0  0  0  0  0  0  0
    0.5087    0.7124    2.8457 N   0  0  0  0  0  0  0  0  0  0  0  0
   -0.5417   -0.0936    2.8573 N   0  0  0  0  0  0  0  0  0  0  0  0
   -1.3359    0.2879    1.8236 N   0  0  0  0  0  0  0  0  0  0  0  0
   -2.6236   -0.2827    1.6222 C   0  0  0  0  0  0  0  0  0  0  0  0
   -3.6562    0.5296    1.1138 C   0  0  0  0  0  0  0  0  0  0  0  0
   -4.9473    0.0232    0.9133 C   0  0  0  0  0  0  0  0  0  0  0  0
   -6.0446    0.9151    0.4106 C   0  0  0  0  0  0  0  0  0  0  0  0
   -5.2160   -1.3001    1.2598 C   0  0  0  0  0  0  0  0  0  0  0  0
   -4.2056   -2.1127    1.7745 C   0  0  0  0  0  0  0  0  0  0  0  0
   -2.8975   -1.6285    1.9546 C   0  0  0  0  0  0  0  0  0  0  0  0
   -1.8654   -2.5984    2.4702 C   0  0  0  0  0  0  0  0  0  0  0  0
    7.6214   -0.5390   -1.7192 H   0  0  0  0  0  0  0  0  0  0  0  0
    7.5769    0.0975   -0.0795 H   0  0  0  0  0  0  0  0  0  0  0  0
    8.4528    0.9902   -1.3463 H   0  0  0  0  0  0  0  0  0  0  0  0
    6.2479    2.0620   -0.8606 H   0  0  0  0  0  0  0  0  0  0  0  0
    6.2932    1.4138   -2.5307 H   0  0  0  0  0  0  0  0  0  0  0  0
    2.8356   -0.2258    0.0263 H   0  0  0  0  0  0  0  0  0  0  0  0
    2.9884   -1.0321   -1.5714 H   0  0  0  0  0  0  0  0  0  0  0  0
    1.5138    1.4831   -1.5596 H   0  0  0  0  0  0  0  0  0  0  0  0
   -0.8768    0.8758   -2.5210 H   0  0  0  0  0  0  0  0  0  0  0  0
   -1.7320   -0.1274   -1.3443 H   0  0  0  0  0  0  0  0  0  0  0  0
   -3.4969    1.5876    0.9167 H   0  0  0  0  0  0  0  0  0  0  0  0
   -6.5221    1.4304    1.2496 H   0  0  0  0  0  0  0  0  0  0  0  0
   -5.6503    1.6615   -0.2871 H   0  0  0  0  0  0  0  0  0  0  0  0
   -6.8031    0.3371   -0.1277 H   0  0  0  0  0  0  0  0  0  0  0  0
   -6.2164   -1.7103    1.1380 H   0  0  0  0  0  0  0  0  0  0  0  0
   -4.4478   -3.1433    2.0305 H   0  0  0  0  0  0  0  0  0  0  0  0
   -0.9456   -2.5418    1.8794 H   0  0  0  0  0  0  0  0  0  0  0  0
   -2.2179   -3.6330    2.3891 H   0  0  0  0  0  0  0  0  0  0  0  0
   -1.6525   -2.4058    3.5260 H   0  0  0  0  0  0  0  0  0  0  0  0
  1  2  1  0
  2  3  1  0
  3  4  1  0
  4  5  2  0
  4  6  1  0
  6  7  1  0
  7  8  1  0
  8  9  2  0
  8 10  1  0
 10 11  1  0
 11 12  1  0
 12 13  2  0
 13 14  1  0
 14 15  2  0
 15 16  1  0
 16 17  1  0
 17 18  2  0
 18 19  1  0
 19 20  1  0
 19 21  2  0
 21 22  1  0
 22 23  2  0
 23 24  1  0
 16 12  1  0
 23 17  1  0
  1 25  1  0
  1 26  1  0
  1 27  1  0
  2 28  1  0
  2 29  1  0
  6 30  1  0
  6 31  1  0
  7 32  1  0
 10 33  1  0
 10 34  1  0
 18 35  1  0
 20 36  1  0
 20 37  1  0
 20 38  1  0
 21 39  1  0
 22 40  1  0
 24 41  1  0
 24 42  1  0
 24 43  1  0
M  END
$$$$
