
     RDKit          3D

 52 57  0  0  0  0  0  0  0  0999 V2000
    0.2614    1.8241    3.2699 C   0  0  0  0  0  0  0  0  0  0  0  0
    0.8076    1.0424    2.1342 C   0  0  0  0  0  0  0  0  0  0  0  0
    2.1299    0.9683    1.9559 N   0  0  0  0  0  0  0  0  0  0  0  0
    2.3116    0.1915    0.8417 N   0  0  0  0  0  0  0  0  0  0  0  0
    3.6375   -0.0671    0.3712 C   0  0  0  0  0  0  0  0  0  0  0  0
    3.8850   -0.8441   -0.7696 C   0  0  0  0  0  0  0  0  0  0  0  0
    5.1976   -1.0755   -1.2014 C   0  0  0  0  0  0  0  0  0  0  0  0
    6.2712   -0.5271   -0.4907 C   0  0  0  0  0  0  0  0  0  0  0  0
    7.6464   -0.7701   -0.9426 N   0  0  0  0  0  4  0  0  0  0  0  0
    8.5679   -0.2664   -0.2838 O   0  0  0  0  0  0  0  0  0  0  0  0
    7.8079   -1.4654   -1.9559 O   0  0  0  0  0  1  0  0  0  0  0  0
    6.0417    0.2518    0.6481 C   0  0  0  0  0  0  0  0  0  0  0  0
    4.7287    0.4790    1.0739 C   0  0  0  0  0  0  0  0  0  0  0  0
    1.0847   -0.2395    0.3450 C   0  0  0  0  0  0  0  0  0  0  0  0
    0.1170    0.3215    1.1456 C   0  0  0  0  0  0  0  0  0  0  0  0
   -1.3174    0.0435    0.8628 C   0  0  0  0  0  0  0  0  0  0  0  0
   -1.8956    1.3987    0.4524 C   0  0  0  0  0  0  0  0  0  0  0  0
   -2.7238    2.1092    1.3425 C   0  0  0  0  0  0  0  0  0  0  0  0
   -3.2620    3.3482    0.9876 C   0  0  0  0  0  0  0  0  0  0  0  0
   -2.9825    3.8995   -0.2613 C   0  0  0  0  0  0  0  0  0  0  0  0
   -2.1633    3.2100   -1.1512 C   0  0  0  0  0  0  0  0  0  0  0  0
   -1.7821    3.9574   -2.8451 Br  0  0  0  0  0  0  0  0  0  0  0  0
   -1.6210    1.9726   -0.8043 C   0  0  0  0  0  0  0  0  0  0  0  0
   -1.5083   -0.9773   -0.1913 N   0  0  0  0  0  0  0  0  0  0  0  0
   -0.3812   -1.3921   -0.9272 C   0  0  0  0  0  0  0  0  0  0  0  0
    0.8677   -1.0585   -0.7140 N   0  0  0  0  0  0  0  0  0  0  0  0
   -0.5862   -2.3468   -2.1282 C   0  0  0  0  0  0  0  0  0  0  0  0
    0.3367   -2.6809   -2.8580 O   0  0  0  0  0  0  0  0  0  0  0  0
   -1.8644   -2.7973   -2.3216 N   0  0  0  0  0  0  0  0  0  0  0  0
   -2.9491   -2.4336   -1.5194 C   0  0  0  0  0  0  0  0  0  0  0  0
   -4.1942   -2.9981   -1.8216 C   0  0  0  0  0  0  0  0  0  0  0  0
   -5.3076   -2.6771   -1.0540 C   0  0  0  0  0  0  0  0  0  0  0  0
   -5.1727   -1.7968    0.0120 C   0  0  0  0  0  0  0  0  0  0  0  0
   -3.9256   -1.2326    0.3096 C   0  0  0  0  0  0  0  0  0  0  0  0
   -2.7805   -1.5272   -0.4500 C   0  0  0  0  0  0  0  0  0  0  0  0
   -0.6233    1.3349    3.6894 H   0  0  0  0  0  0  0  0  0  0  0  0
   -0.0204    2.8284    2.9386 H   0  0  0  0  0  0  0  0  0  0  0  0
    0.9972    1.9244    4.0747 H   0  0  0  0  0  0  0  0  0  0  0  0
    3.0842   -1.2875   -1.3551 H   0  0  0  0  0  0  0  0  0  0  0  0
    5.3575   -1.6828   -2.0907 H   0  0  0  0  0  0  0  0  0  0  0  0
    6.8630    0.6875    1.2132 H   0  0  0  0  0  0  0  0  0  0  0  0
    4.5714    1.0891    1.9629 H   0  0  0  0  0  0  0  0  0  0  0  0
   -1.7715   -0.3089    1.7981 H   0  0  0  0  0  0  0  0  0  0  0  0
   -2.9575    1.7030    2.3250 H   0  0  0  0  0  0  0  0  0  0  0  0
   -3.8996    3.8862    1.6853 H   0  0  0  0  0  0  0  0  0  0  0  0
   -3.4043    4.8644   -0.5303 H   0  0  0  0  0  0  0  0  0  0  0  0
   -0.9771    1.4545   -1.5125 H   0  0  0  0  0  0  0  0  0  0  0  0
   -1.9870   -3.4323   -3.0983 H   0  0  0  0  0  0  0  0  0  0  0  0
   -4.3065   -3.6903   -2.6522 H   0  0  0  0  0  0  0  0  0  0  0  0
   -6.2764   -3.1130   -1.2851 H   0  0  0  0  0  0  0  0  0  0  0  0
   -6.0400   -1.5435    0.6179 H   0  0  0  0  0  0  0  0  0  0  0  0
   -3.8928   -0.5585    1.1583 H   0  0  0  0  0  0  0  0  0  0  0  0
  1  2  1  0
  2  3  2  0
  3  4  1  0
  4  5  1  0
  5  6  2  0
  6  7  1  0
  7  8  2  0
  8  9  1  0
  9 10  2  0
  9 11  1  0
  8 12  1  0
 12 13  2  0
  4 14  1  0
 14 15  2  0
 15 16  1  0
 16 17  1  0
 17 18  2  0
 18 19  1  0
 19 20  2  0
 20 21  1  0
 21 22  1  0
 21 23  2  0
 16 24  1  0
 24 25  1  0
 25 26  2  0
 25 27  1  0
 27 28  2  0
 27 29  1  0
 29 30  1  0
 30 31  2  0
 31 32  1  0
 32 33  2  0
 33 34  1  0
 34 35  2  0
 15  2  1  0
 23 17  1  0
 35 24  1  0
 13  5  1  0
 26 14  1  0
 35 30  1  0
  1 36  1  0
  1 37  1  0
  1 38  1  0
  6 39  1  0
  7 40  1  0
 12 41  1  0
 13 42  1  0
 16 43  1  0
 18 44  1  0
 19 45  1  0
 20 46  1  0
 23 47  1  0
 29 48  1  0
 31 49  1  0
 32 50  1  0
 33 51  1  0
 34 52  1  0
M  CHG  2   9   1  11  -1
M  END
$$$$
