
     RDKit          3D

 46 49  0  0  0  0  0  0  0  0999 V2000
   -2.8428   -0.7138    0.8987 C   0  0  0  0  0  0  0  0  0  0  0  0
   -2.5887   -1.2919   -0.4110 N   0  0  0  0  0  0  0  0  0  0  0  0
   -3.1769   -2.5988   -0.6402 C   0  0  0  0  0  0  0  0  0  0  0  0
   -1.2502   -1.1407   -0.8703 N   0  0  0  0  0  0  0  0  0  0  0  0
   -1.1507   -0.2239   -1.9359 C   0  0  0  0  0  0  0  0  0  0  0  0
   -2.1918    0.3011   -2.5165 N   0  0  0  0  0  0  0  0  0  0  0  0
    0.2439    0.1045   -2.4486 C   0  0  0  0  0  0  0  0  0  0  0  0
    0.3089    1.3052   -3.2951 C   0  0  0  0  0  0  0  0  0  0  0  0
    0.4395    2.2343   -3.9803 N   0  0  0  0  0  0  0  0  0  0  0  0
    1.2602    0.1625   -1.2856 C   0  0  0  0  0  0  0  0  0  0  0  0
    1.2927    1.4539   -0.4582 C   0  0  0  0  0  0  0  0  0  0  0  0
    2.5538    2.0032   -0.1066 C   0  0  0  0  0  0  0  0  0  0  0  0
    2.6595    3.1646    0.6664 C   0  0  0  0  0  0  0  0  0  0  0  0
    1.4938    3.7623    1.0833 C   0  0  0  0  0  0  0  0  0  0  0  0
    0.2650    3.2426    0.7593 C   0  0  0  0  0  0  0  0  0  0  0  0
    0.1293    2.0987   -0.0027 C   0  0  0  0  0  0  0  0  0  0  0  0
   -0.7597    3.9738    1.2757 O   0  0  0  0  0  0  0  0  0  0  0  0
   -0.0318    5.0390    1.9217 C   0  0  0  0  0  0  0  0  0  0  0  0
    1.4002    4.8880    1.8393 O   0  0  0  0  0  0  0  0  0  0  0  0
    1.0869   -1.0454   -0.3782 C   0  0  0  0  0  0  0  0  0  0  0  0
   -0.1141   -1.6478   -0.2028 C   0  0  0  0  0  0  0  0  0  0  0  0
   -0.2369   -2.8984    0.6491 C   0  0  0  0  0  0  0  0  0  0  0  0
    1.0904   -3.5941    0.9445 C   0  0  0  0  0  0  0  0  0  0  0  0
    2.1396   -2.5963    1.3831 C   0  0  0  0  0  0  0  0  0  0  0  0
    2.3132   -1.5604    0.3042 C   0  0  0  0  0  0  0  0  0  0  0  0
    3.4245   -1.1279    0.0089 O   0  0  0  0  0  0  0  0  0  0  0  0
   -2.4443    0.3039    0.9656 H   0  0  0  0  0  0  0  0  0  0  0  0
   -3.9222   -0.6364    1.0706 H   0  0  0  0  0  0  0  0  0  0  0  0
   -2.4195   -1.3025    1.7164 H   0  0  0  0  0  0  0  0  0  0  0  0
   -4.2683   -2.5074   -0.6783 H   0  0  0  0  0  0  0  0  0  0  0  0
   -2.9436   -3.3171    0.1504 H   0  0  0  0  0  0  0  0  0  0  0  0
   -2.8640   -3.0176   -1.6030 H   0  0  0  0  0  0  0  0  0  0  0  0
   -3.0037   -0.0786   -2.0046 H   0  0  0  0  0  0  0  0  0  0  0  0
    0.5113   -0.7540   -3.0843 H   0  0  0  0  0  0  0  0  0  0  0  0
    2.2396    0.0825   -1.7815 H   0  0  0  0  0  0  0  0  0  0  0  0
    3.4729    1.5172   -0.4354 H   0  0  0  0  0  0  0  0  0  0  0  0
    3.6267    3.5786    0.9279 H   0  0  0  0  0  0  0  0  0  0  0  0
   -0.8692    1.7457   -0.2281 H   0  0  0  0  0  0  0  0  0  0  0  0
   -0.3199    5.0675    2.9788 H   0  0  0  0  0  0  0  0  0  0  0  0
   -0.3130    5.9905    1.4552 H   0  0  0  0  0  0  0  0  0  0  0  0
   -0.8551   -3.6402    0.1363 H   0  0  0  0  0  0  0  0  0  0  0  0
   -0.7199   -2.6493    1.5990 H   0  0  0  0  0  0  0  0  0  0  0  0
    0.9459   -4.3571    1.7176 H   0  0  0  0  0  0  0  0  0  0  0  0
    1.4336   -4.1159    0.0412 H   0  0  0  0  0  0  0  0  0  0  0  0
    3.0940   -3.1104    1.5388 H   0  0  0  0  0  0  0  0  0  0  0  0
    1.8608   -2.0939    2.3152 H   0  0  0  0  0  0  0  0  0  0  0  0
  1  2  1  0
  2  3  1  0
  2  4  1  0
  4  5  1  0
  5  6  2  3
  5  7  1  0
  7  8  1  0
  8  9  3  0
  7 10  1  0
 10 11  1  0
 11 12  2  0
 12 13  1  0
 13 14  2  0
 14 15  1  0
 15 16  2  0
 15 17  1  0
 17 18  1  0
 18 19  1  0
 10 20  1  0
 20 21  2  0
 21 22  1  0
 22 23  1  0
 23 24  1  0
 24 25  1  0
 25 26  2  0
 21  4  1  0
 16 11  1  0
 25 20  1  0
 19 14  1  0
  1 27  1  0
  1 28  1  0
  1 29  1  0
  3 30  1  0
  3 31  1  0
  3 32  1  0
  6 33  1  0
  7 34  1  0
 10 35  1  0
 12 36  1  0
 13 37  1  0
 16 38  1  0
 18 39  1  0
 18 40  1  0
 22 41  1  0
 22 42  1  0
 23 43  1  0
 23 44  1  0
 24 45  1  0
 24 46  1  0
M  END
$$$$
