
     RDKit          3D

 70 73  0  0  0  0  0  0  0  0999 V2000
    1.0971    4.0797   -1.9495 C   0  0  0  0  0  0  0  0  0  0  0  0
    0.3731    2.8503   -1.9211 O   0  0  0  0  0  0  0  0  0  0  0  0
   -0.6771    2.8414   -1.0388 C   0  0  0  0  0  0  0  0  0  0  0  0
   -1.6255    3.8796   -1.0650 C   0  0  0  0  0  0  0  0  0  0  0  0
   -2.7354    3.8679   -0.2152 C   0  0  0  0  0  0  0  0  0  0  0  0
   -3.6901    4.8535   -0.1763 O   0  0  0  0  0  0  0  0  0  0  0  0
   -3.6788    5.8201   -1.2206 C   0  0  0  0  0  0  0  0  0  0  0  0
   -2.9068    2.7927    0.6681 C   0  0  0  0  0  0  0  0  0  0  0  0
   -4.0431    2.7025    1.5835 C   0  0  0  0  0  0  0  0  0  0  0  0
   -4.1882    1.6472    2.3885 C   0  0  0  0  0  0  0  0  0  0  0  0
   -3.2272    0.5372    2.4014 C   0  0  0  0  0  0  0  0  0  0  0  0
   -3.3822   -0.4226    3.1470 O   0  0  0  0  0  0  0  0  0  0  0  0
   -2.1492    0.6492    1.5386 O   0  0  0  0  0  0  0  0  0  0  0  0
   -1.9668    1.7538    0.6630 C   0  0  0  0  0  0  0  0  0  0  0  0
   -0.8321    1.7418   -0.1788 C   0  0  0  0  0  0  0  0  0  0  0  0
    0.1228    0.5392   -0.1279 C   0  0  0  0  0  0  0  0  0  0  0  0
    1.6279    0.8589   -0.3286 C   0  0  0  0  0  0  0  0  0  0  0  0
    2.5705   -0.2698    0.1335 C   0  0  0  0  0  0  0  0  0  0  0  0
    2.4426   -0.6024    1.5581 N   0  0  0  0  0  0  0  0  0  0  0  0
    2.9836    0.4217    2.4607 C   0  0  0  0  0  0  0  0  0  0  0  0
    4.2694    0.0064    3.1715 C   0  0  0  0  0  0  0  0  0  0  0  0
    4.0890   -1.2829    3.9710 C   0  0  0  0  0  0  0  0  0  0  0  0
    3.0592   -2.2289    3.3341 C   0  0  0  0  0  0  0  0  0  0  0  0
    3.4168   -3.6878    3.6107 C   0  0  0  0  0  0  0  0  0  0  0  0
    2.9349   -1.9613    1.8282 C   0  0  0  0  0  0  0  0  0  0  0  0
   -0.3503   -0.5951   -1.0336 C   0  0  0  0  0  0  0  0  0  0  0  0
   -0.3495   -0.4866   -2.4252 C   0  0  0  0  0  0  0  0  0  0  0  0
   -0.7824   -1.5517   -3.2310 C   0  0  0  0  0  0  0  0  0  0  0  0
   -1.2459   -2.7650   -2.6940 C   0  0  0  0  0  0  0  0  0  0  0  0
   -1.6600   -3.8315   -3.5042 N   0  0  0  0  0  0  0  0  0  0  0  0
   -2.4265   -4.9174   -2.8949 C   0  0  0  0  0  0  0  0  0  0  0  0
   -1.9394   -3.5771   -4.9155 C   0  0  0  0  0  0  0  0  0  0  0  0
   -1.2243   -2.8551   -1.2918 C   0  0  0  0  0  0  0  0  0  0  0  0
   -0.7941   -1.7972   -0.4767 C   0  0  0  0  0  0  0  0  0  0  0  0
    1.2262    4.5036   -0.9473 H   0  0  0  0  0  0  0  0  0  0  0  0
    2.0916    3.8703   -2.3554 H   0  0  0  0  0  0  0  0  0  0  0  0
    0.6098    4.7980   -2.6157 H   0  0  0  0  0  0  0  0  0  0  0  0
   -1.4892    4.6855   -1.7765 H   0  0  0  0  0  0  0  0  0  0  0  0
   -3.7440    5.3430   -2.2048 H   0  0  0  0  0  0  0  0  0  0  0  0
   -4.5630    6.4538   -1.0993 H   0  0  0  0  0  0  0  0  0  0  0  0
   -2.7962    6.4649   -1.1491 H   0  0  0  0  0  0  0  0  0  0  0  0
   -4.7700    3.5077    1.5941 H   0  0  0  0  0  0  0  0  0  0  0  0
   -5.0250    1.5587    3.0701 H   0  0  0  0  0  0  0  0  0  0  0  0
    0.0658    0.1775    0.9068 H   0  0  0  0  0  0  0  0  0  0  0  0
    1.8785    1.7846    0.2030 H   0  0  0  0  0  0  0  0  0  0  0  0
    1.8526    1.0401   -1.3859 H   0  0  0  0  0  0  0  0  0  0  0  0
    3.6078    0.0060   -0.0971 H   0  0  0  0  0  0  0  0  0  0  0  0
    2.3518   -1.1554   -0.4767 H   0  0  0  0  0  0  0  0  0  0  0  0
    2.2175    0.6310    3.2182 H   0  0  0  0  0  0  0  0  0  0  0  0
    3.1601    1.3736    1.9478 H   0  0  0  0  0  0  0  0  0  0  0  0
    5.0642   -0.1342    2.4277 H   0  0  0  0  0  0  0  0  0  0  0  0
    4.6081    0.8073    3.8388 H   0  0  0  0  0  0  0  0  0  0  0  0
    3.7608   -1.0429    4.9906 H   0  0  0  0  0  0  0  0  0  0  0  0
    5.0677   -1.7685    4.0739 H   0  0  0  0  0  0  0  0  0  0  0  0
    2.0817   -2.0370    3.7986 H   0  0  0  0  0  0  0  0  0  0  0  0
    4.3781   -3.9548    3.1593 H   0  0  0  0  0  0  0  0  0  0  0  0
    3.4826   -3.8727    4.6878 H   0  0  0  0  0  0  0  0  0  0  0  0
    2.6541   -4.3583    3.2013 H   0  0  0  0  0  0  0  0  0  0  0  0
    2.2337   -2.6815    1.3885 H   0  0  0  0  0  0  0  0  0  0  0  0
    3.9096   -2.1249    1.3482 H   0  0  0  0  0  0  0  0  0  0  0  0
   -0.0106    0.4268   -2.9071 H   0  0  0  0  0  0  0  0  0  0  0  0
   -0.7417   -1.3949   -4.3041 H   0  0  0  0  0  0  0  0  0  0  0  0
   -2.7070   -5.6716   -3.6391 H   0  0  0  0  0  0  0  0  0  0  0  0
   -1.8335   -5.4470   -2.1418 H   0  0  0  0  0  0  0  0  0  0  0  0
   -3.3506   -4.5425   -2.4410 H   0  0  0  0  0  0  0  0  0  0  0  0
   -1.0416   -3.2375   -5.4432 H   0  0  0  0  0  0  0  0  0  0  0  0
   -2.2579   -4.4920   -5.4278 H   0  0  0  0  0  0  0  0  0  0  0  0
   -2.7392   -2.8376   -5.0329 H   0  0  0  0  0  0  0  0  0  0  0  0
   -1.5405   -3.7600   -0.7830 H   0  0  0  0  0  0  0  0  0  0  0  0
   -0.8041   -1.9301    0.6038 H   0  0  0  0  0  0  0  0  0  0  0  0
  1  2  1  0
  2  3  1  0
  3  4  2  0
  4  5  1  0
  5  6  1  0
  6  7  1  0
  5  8  2  0
  8  9  1  0
  9 10  2  0
 10 11  1  0
 11 12  2  0
 11 13  1  0
 13 14  1  0
 14 15  2  0
 15 16  1  0
 16 17  1  0
 17 18  1  0
 18 19  1  0
 19 20  1  0
 20 21  1  0
 21 22  1  0
 22 23  1  0
 23 24  1  0
 23 25  1  0
 16 26  1  0
 26 27  2  0
 27 28  1  0
 28 29  2  0
 29 30  1  0
 30 31  1  0
 30 32  1  0
 29 33  1  0
 33 34  2  0
 15  3  1  0
 25 19  1  0
 34 26  1  0
 14  8  1  0
  1 35  1  0
  1 36  1  0
  1 37  1  0
  4 38  1  0
  7 39  1  0
  7 40  1  0
  7 41  1  0
  9 42  1  0
 10 43  1  0
 16 44  1  0
 17 45  1  0
 17 46  1  0
 18 47  1  0
 18 48  1  0
 20 49  1  0
 20 50  1  0
 21 51  1  0
 21 52  1  0
 22 53  1  0
 22 54  1  0
 23 55  1  0
 24 56  1  0
 24 57  1  0
 24 58  1  0
 25 59  1  0
 25 60  1  0
 27 61  1  0
 28 62  1  0
 31 63  1  0
 31 64  1  0
 31 65  1  0
 32 66  1  0
 32 67  1  0
 32 68  1  0
 33 69  1  0
 34 70  1  0
M  END
$$$$
