
     RDKit          3D

 51 52  0  0  0  0  0  0  0  0999 V2000
    4.7446    0.4191   -0.9590 C   0  0  0  0  0  0  0  0  0  0  0  0
    4.1103   -0.6042   -0.1178 N   0  0  0  0  0  0  0  0  0  0  0  0
    3.1897   -0.0773    0.8950 C   0  0  0  0  0  0  0  0  0  0  0  0
    3.8193   -2.1064   -0.8011 S   0  0  0  0  0  6  0  0  0  0  0  0
    3.2292   -2.9780    0.1876 O   0  0  0  0  0  0  0  0  0  0  0  0
    4.9986   -2.5108   -1.5322 O   0  0  0  0  0  0  0  0  0  0  0  0
    2.6659   -1.7548   -1.9832 N   0  0  0  0  0  0  0  0  0  0  0  0
    1.3445   -1.4107   -1.5745 C   0  0  0  0  0  0  0  0  0  0  0  0
    0.4927   -2.3313   -0.9776 C   0  0  0  0  0  0  0  0  0  0  0  0
   -0.8053   -1.9524   -0.6099 C   0  0  0  0  0  0  0  0  0  0  0  0
   -1.2954   -0.6649   -0.8679 C   0  0  0  0  0  0  0  0  0  0  0  0
   -2.5925   -0.2376   -0.3976 N   0  0  0  0  0  0  0  0  0  0  0  0
   -3.8718   -1.3095   -0.2198 S   0  0  0  0  0  6  0  0  0  0  0  0
   -3.8364   -2.2609   -1.3040 O   0  0  0  0  0  0  0  0  0  0  0  0
   -5.0488   -0.5186    0.0511 O   0  0  0  0  0  0  0  0  0  0  0  0
   -3.4416   -2.0997    1.2168 N   0  0  0  0  0  0  0  0  0  0  0  0
   -3.4078   -1.2343    2.4143 C   0  0  0  0  0  0  0  0  0  0  0  0
   -4.2246   -3.3312    1.4614 C   0  0  0  0  0  0  0  0  0  0  0  0
   -0.3999    0.2571   -1.4368 C   0  0  0  0  0  0  0  0  0  0  0  0
   -0.8479    1.9560   -1.6990 S   0  0  0  0  0  6  0  0  0  0  0  0
   -2.2989    2.0234   -1.7583 O   0  0  0  0  0  0  0  0  0  0  0  0
   -0.0508    2.4527   -2.8055 O   0  0  0  0  0  0  0  0  0  0  0  0
   -0.3227    2.8149   -0.2328 C   0  0  0  0  0  0  0  0  0  0  0  0
   -1.1859    2.9089    0.8613 C   0  0  0  0  0  0  0  0  0  0  0  0
   -0.7610    3.5729    2.0117 C   0  0  0  0  0  0  0  0  0  0  0  0
    0.5113    4.1430    2.0613 C   0  0  0  0  0  0  0  0  0  0  0  0
    1.3626    4.0612    0.9588 C   0  0  0  0  0  0  0  0  0  0  0  0
    0.9456    3.4015   -0.1965 C   0  0  0  0  0  0  0  0  0  0  0  0
    0.8962   -0.1210   -1.8245 C   0  0  0  0  0  0  0  0  0  0  0  0
    5.5632    0.0002   -1.5517 H   0  0  0  0  0  0  0  0  0  0  0  0
    5.1778    1.2022   -0.3265 H   0  0  0  0  0  0  0  0  0  0  0  0
    4.0136    0.8807   -1.6276 H   0  0  0  0  0  0  0  0  0  0  0  0
    2.6350   -0.8696    1.4070 H   0  0  0  0  0  0  0  0  0  0  0  0
    2.4774    0.6246    0.4556 H   0  0  0  0  0  0  0  0  0  0  0  0
    3.7653    0.4552    1.6605 H   0  0  0  0  0  0  0  0  0  0  0  0
    2.6704   -2.5492   -2.6269 H   0  0  0  0  0  0  0  0  0  0  0  0
    0.8206   -3.3494   -0.7756 H   0  0  0  0  0  0  0  0  0  0  0  0
   -1.4172   -2.7084   -0.1255 H   0  0  0  0  0  0  0  0  0  0  0  0
   -2.9666    0.5644   -0.9311 H   0  0  0  0  0  0  0  0  0  0  0  0
   -2.9227   -1.7696    3.2379 H   0  0  0  0  0  0  0  0  0  0  0  0
   -4.4183   -0.9550    2.7284 H   0  0  0  0  0  0  0  0  0  0  0  0
   -2.8202   -0.3309    2.2360 H   0  0  0  0  0  0  0  0  0  0  0  0
   -4.0901   -4.0399    0.6394 H   0  0  0  0  0  0  0  0  0  0  0  0
   -3.8682   -3.8251    2.3722 H   0  0  0  0  0  0  0  0  0  0  0  0
   -5.2879   -3.1040    1.5808 H   0  0  0  0  0  0  0  0  0  0  0  0
   -2.1825    2.4773    0.8297 H   0  0  0  0  0  0  0  0  0  0  0  0
   -1.4241    3.6544    2.8694 H   0  0  0  0  0  0  0  0  0  0  0  0
    0.8368    4.6646    2.9586 H   0  0  0  0  0  0  0  0  0  0  0  0
    2.3461    4.5223    0.9997 H   0  0  0  0  0  0  0  0  0  0  0  0
    1.6086    3.3569   -1.0577 H   0  0  0  0  0  0  0  0  0  0  0  0
    1.5634    0.5908   -2.3059 H   0  0  0  0  0  0  0  0  0  0  0  0
  1  2  1  0
  2  3  1  0
  2  4  1  0
  4  5  2  0
  4  6  2  0
  4  7  1  0
  7  8  1  0
  8  9  2  0
  9 10  1  0
 10 11  2  0
 11 12  1  0
 12 13  1  0
 13 14  2  0
 13 15  2  0
 13 16  1  0
 16 17  1  0
 16 18  1  0
 11 19  1  0
 19 20  1  0
 20 21  2  0
 20 22  2  0
 20 23  1  0
 23 24  2  0
 24 25  1  0
 25 26  2  0
 26 27  1  0
 27 28  2  0
 19 29  2  0
 29  8  1  0
 28 23  1  0
  1 30  1  0
  1 31  1  0
  1 32  1  0
  3 33  1  0
  3 34  1  0
  3 35  1  0
  7 36  1  0
  9 37  1  0
 10 38  1  0
 12 39  1  0
 17 40  1  0
 17 41  1  0
 17 42  1  0
 18 43  1  0
 18 44  1  0
 18 45  1  0
 24 46  1  0
 25 47  1  0
 26 48  1  0
 27 49  1  0
 28 50  1  0
 29 51  1  0
M  END
$$$$
