
     RDKit          3D

 44 46  0  0  0  0  0  0  0  0999 V2000
    5.9598    1.4895   -0.0325 C   0  0  0  0  0  0  0  0  0  0  0  0
    4.7373    0.5541    0.0253 C   0  0  0  0  0  0  0  0  0  0  0  0
    4.2655    0.4687    1.4829 C   0  0  0  0  0  0  0  0  0  0  0  0
    5.1575   -0.8328   -0.4804 C   0  0  0  0  0  0  0  0  0  0  0  0
    3.6253    1.1087   -0.8934 C   0  0  0  0  0  0  0  0  0  0  0  0
    3.8456    2.0415   -1.6737 O   0  0  0  0  0  0  0  0  0  0  0  0
    2.2522    0.4603   -0.8552 C   0  0  0  0  0  0  0  0  0  0  0  0
    1.1164    1.4938    0.1212 S   0  0  0  0  0  0  0  0  0  0  0  0
   -0.4073    0.5588   -0.0378 C   0  0  0  0  0  0  0  0  0  0  0  0
   -0.3176   -0.5848   -0.7671 N   0  0  0  0  0  0  0  0  0  0  0  0
   -1.4477   -1.2891   -0.9145 C   0  0  0  0  0  0  0  0  0  0  0  0
   -2.6725   -0.9401   -0.3682 C   0  0  0  0  0  0  0  0  0  0  0  0
   -2.7679    0.2114    0.4020 C   0  0  0  0  0  0  0  0  0  0  0  0
   -4.0454    0.5880    1.0106 C   0  0  0  0  0  0  0  0  0  0  0  0
   -4.9333    1.5739    0.6269 C   0  0  0  0  0  0  0  0  0  0  0  0
   -6.0663    1.6462    1.4899 C   0  0  0  0  0  0  0  0  0  0  0  0
   -6.0051    0.7122    2.5000 C   0  0  0  0  0  0  0  0  0  0  0  0
   -4.5878   -0.2402    2.4103 S   0  0  0  0  0  0  0  0  0  0  0  0
   -1.6035    0.9915    0.5638 C   0  0  0  0  0  0  0  0  0  0  0  0
   -1.6424    2.1969    1.3410 C   0  0  0  0  0  0  0  0  0  0  0  0
   -1.6951    3.1718    1.9695 N   0  0  0  0  0  0  0  0  0  0  0  0
   -3.7100   -1.9660   -0.7046 C   0  0  0  0  0  0  0  0  0  0  0  0
   -3.0479   -2.6900   -1.8867 C   0  0  0  0  0  0  0  0  0  0  0  0
   -1.5352   -2.5888   -1.6633 C   0  0  0  0  0  0  0  0  0  0  0  0
    6.3524    1.5726   -1.0526 H   0  0  0  0  0  0  0  0  0  0  0  0
    6.7720    1.1231    0.6052 H   0  0  0  0  0  0  0  0  0  0  0  0
    5.7003    2.5008    0.3019 H   0  0  0  0  0  0  0  0  0  0  0  0
    3.9048    1.4412    1.8378 H   0  0  0  0  0  0  0  0  0  0  0  0
    5.0805    0.1530    2.1447 H   0  0  0  0  0  0  0  0  0  0  0  0
    3.4515   -0.2528    1.6085 H   0  0  0  0  0  0  0  0  0  0  0  0
    6.0054   -1.2225    0.0955 H   0  0  0  0  0  0  0  0  0  0  0  0
    4.3438   -1.5607   -0.3999 H   0  0  0  0  0  0  0  0  0  0  0  0
    5.4540   -0.7950   -1.5350 H   0  0  0  0  0  0  0  0  0  0  0  0
    1.9004    0.3710   -1.8891 H   0  0  0  0  0  0  0  0  0  0  0  0
    2.3179   -0.5453   -0.4333 H   0  0  0  0  0  0  0  0  0  0  0  0
   -4.7814    2.2201   -0.2304 H   0  0  0  0  0  0  0  0  0  0  0  0
   -6.8821    2.3495    1.3751 H   0  0  0  0  0  0  0  0  0  0  0  0
   -6.7220    0.5459    3.2924 H   0  0  0  0  0  0  0  0  0  0  0  0
   -3.8565   -2.6485    0.1393 H   0  0  0  0  0  0  0  0  0  0  0  0
   -4.6650   -1.5236   -1.0021 H   0  0  0  0  0  0  0  0  0  0  0  0
   -3.3107   -2.1703   -2.8186 H   0  0  0  0  0  0  0  0  0  0  0  0
   -3.3885   -3.7251   -1.9868 H   0  0  0  0  0  0  0  0  0  0  0  0
   -1.1692   -3.4056   -1.0334 H   0  0  0  0  0  0  0  0  0  0  0  0
   -0.9823   -2.5630   -2.6056 H   0  0  0  0  0  0  0  0  0  0  0  0
  1  2  1  0
  2  3  1  0
  2  4  1  0
  2  5  1  0
  5  6  2  0
  5  7  1  0
  7  8  1  0
  8  9  1  0
  9 10  2  0
 10 11  1  0
 11 12  2  0
 12 13  1  0
 13 14  1  0
 14 15  2  0
 15 16  1  0
 16 17  2  0
 17 18  1  0
 13 19  2  0
 19 20  1  0
 20 21  3  0
 12 22  1  0
 22 23  1  0
 23 24  1  0
 19  9  1  0
 24 11  1  0
 18 14  1  0
  1 25  1  0
  1 26  1  0
  1 27  1  0
  3 28  1  0
  3 29  1  0
  3 30  1  0
  4 31  1  0
  4 32  1  0
  4 33  1  0
  7 34  1  0
  7 35  1  0
 15 36  1  0
 16 37  1  0
 17 38  1  0
 22 39  1  0
 22 40  1  0
 23 41  1  0
 23 42  1  0
 24 43  1  0
 24 44  1  0
M  END
$$$$
