
     RDKit          3D

 39 41  0  0  0  0  0  0  0  0999 V2000
    4.1866   -1.5020   -2.6734 O   0  0  0  0  0  0  0  0  0  0  0  0
    3.0711   -1.2206   -2.2607 C   0  0  0  0  0  0  0  0  0  0  0  0
    2.0207   -1.3095   -3.1110 O   0  0  0  0  0  0  0  0  0  0  0  0
    2.6793   -0.8646   -0.8185 C   0  0  0  0  0  0  0  0  0  0  0  0
    3.6654   -0.0476    0.0102 C   0  0  0  0  0  0  0  0  0  0  0  0
    4.7131    0.6990   -0.5493 C   0  0  0  0  0  0  0  0  0  0  0  0
    5.5788    1.4363    0.2631 C   0  0  0  0  0  0  0  0  0  0  0  0
    5.4142    1.4378    1.6456 C   0  0  0  0  0  0  0  0  0  0  0  0
    4.3842    0.7004    2.2209 C   0  0  0  0  0  0  0  0  0  0  0  0
    3.5176   -0.0362    1.4116 C   0  0  0  0  0  0  0  0  0  0  0  0
    1.2930   -0.3626   -0.7227 N   0  0  0  0  0  0  0  0  0  0  0  0
    0.3314   -1.2052   -0.1968 C   0  0  0  0  0  0  0  0  0  0  0  0
    0.5186   -2.3364    0.2312 O   0  0  0  0  0  0  0  0  0  0  0  0
   -1.0017   -0.5490   -0.2023 C   0  0  0  0  0  0  0  0  0  0  0  0
   -2.0956   -1.1760    0.2521 C   0  0  0  0  0  0  0  0  0  0  0  0
   -3.4620   -0.6401    0.2782 C   0  0  0  0  0  0  0  0  0  0  0  0
   -4.4691   -1.3196   -0.4258 C   0  0  0  0  0  0  0  0  0  0  0  0
   -5.7858   -0.8540   -0.4069 C   0  0  0  0  0  0  0  0  0  0  0  0
   -6.0894    0.2851    0.3220 C   0  0  0  0  0  0  0  0  0  0  0  0
   -7.3759    0.7409    0.3407 O   0  0  0  0  0  0  0  0  0  0  0  0
   -5.1011    0.9614    1.0321 C   0  0  0  0  0  0  0  0  0  0  0  0
   -5.4737    2.0766    1.7315 O   0  0  0  0  0  0  0  0  0  0  0  0
   -3.7872    0.5039    1.0222 C   0  0  0  0  0  0  0  0  0  0  0  0
   -0.8800    1.0213   -0.8762 S   0  0  0  0  0  0  0  0  0  0  0  0
    0.8469    0.8575   -1.1901 C   0  0  0  0  0  0  0  0  0  0  0  0
    1.6920    2.0682   -1.9670 S   0  0  0  0  0  0  0  0  0  0  0  0
    2.4272   -1.5761   -3.9642 H   0  0  0  0  0  0  0  0  0  0  0  0
    2.7013   -1.8583   -0.3468 H   0  0  0  0  0  0  0  0  0  0  0  0
    4.8773    0.7290   -1.6248 H   0  0  0  0  0  0  0  0  0  0  0  0
    6.3840    2.0114   -0.1880 H   0  0  0  0  0  0  0  0  0  0  0  0
    6.0908    2.0121    2.2731 H   0  0  0  0  0  0  0  0  0  0  0  0
    4.2573    0.6959    3.3005 H   0  0  0  0  0  0  0  0  0  0  0  0
    2.7248   -0.6123    1.8869 H   0  0  0  0  0  0  0  0  0  0  0  0
   -2.0102   -2.1976    0.6222 H   0  0  0  0  0  0  0  0  0  0  0  0
   -4.2360   -2.2144   -0.9993 H   0  0  0  0  0  0  0  0  0  0  0  0
   -6.5653   -1.3747   -0.9548 H   0  0  0  0  0  0  0  0  0  0  0  0
   -7.3453    1.5378    0.9069 H   0  0  0  0  0  0  0  0  0  0  0  0
   -4.6783    2.4593    2.1403 H   0  0  0  0  0  0  0  0  0  0  0  0
   -3.0192    1.0226    1.5872 H   0  0  0  0  0  0  0  0  0  0  0  0
  1  2  2  0
  2  3  1  0
  2  4  1  0
  4  5  1  0
  5  6  2  0
  6  7  1  0
  7  8  2  0
  8  9  1  0
  9 10  2  0
  4 11  1  0
 11 12  1  0
 12 13  2  0
 12 14  1  0
 14 15  2  3
 15 16  1  0
 16 17  2  0
 17 18  1  0
 18 19  2  0
 19 20  1  0
 19 21  1  0
 21 22  1  0
 21 23  2  0
 14 24  1  0
 24 25  1  0
 25 26  2  0
 10  5  1  0
 25 11  1  0
 23 16  1  0
  3 27  1  0
  4 28  1  0
  6 29  1  0
  7 30  1  0
  8 31  1  0
  9 32  1  0
 10 33  1  0
 15 34  1  0
 17 35  1  0
 18 36  1  0
 20 37  1  0
 22 38  1  0
 23 39  1  0
M  END
$$$$
