
     RDKit          3D

 42 45  0  0  0  0  0  0  0  0999 V2000
    6.5423    1.4638    3.5751 O   0  0  0  0  0  0  0  0  0  0  0  0
    6.3519    1.7834    2.4151 C   0  0  0  0  0  0  0  0  0  0  0  0
    6.4601    3.0692    2.0289 O   0  0  0  0  0  0  0  0  0  0  0  0
    6.0039    0.8807    1.2627 C   0  0  0  0  0  0  0  0  0  0  0  0
    5.6924   -0.5372    1.7378 C   0  0  0  0  0  0  0  0  0  0  0  0
    5.4214   -1.5155    0.5897 C   0  0  0  0  0  0  0  0  0  0  0  0
    4.2076   -1.2011   -0.1684 N   0  0  0  0  0  0  0  0  0  0  0  0
    2.9801   -1.5033    0.3989 C   0  0  0  0  0  0  0  0  0  0  0  0
    2.8066   -2.0190    1.4948 O   0  0  0  0  0  0  0  0  0  0  0  0
    1.8693   -1.1200   -0.5161 C   0  0  0  0  0  0  0  0  0  0  0  0
    0.5975   -1.2920   -0.1340 C   0  0  0  0  0  0  0  0  0  0  0  0
   -0.5746   -0.9671   -0.8732 C   0  0  0  0  0  0  0  0  0  0  0  0
   -0.8313   -0.8469   -2.2326 C   0  0  0  0  0  0  0  0  0  0  0  0
   -2.1983   -0.5169   -2.3932 C   0  0  0  0  0  0  0  0  0  0  0  0
   -2.7526   -0.4579   -1.1303 C   0  0  0  0  0  0  0  0  0  0  0  0
   -4.1137   -0.1632   -0.7734 C   0  0  0  0  0  0  0  0  0  0  0  0
   -5.0344    0.0997   -1.6769 N   0  0  0  0  0  0  0  0  0  0  0  0
   -6.2466    0.3453   -1.0538 C   0  0  0  0  0  0  0  0  0  0  0  0
   -7.4588    0.6614   -1.7004 C   0  0  0  0  0  0  0  0  0  0  0  0
   -8.6136    0.8862   -0.9437 C   0  0  0  0  0  0  0  0  0  0  0  0
   -8.5742    0.7999    0.4444 C   0  0  0  0  0  0  0  0  0  0  0  0
   -7.3846    0.4880    1.1100 C   0  0  0  0  0  0  0  0  0  0  0  0
   -6.2310    0.2642    0.3400 C   0  0  0  0  0  0  0  0  0  0  0  0
   -4.6385   -0.1325    0.8583 S   0  0  0  0  0  0  0  0  0  0  0  0
   -1.7683   -0.7414   -0.2214 O   0  0  0  0  0  0  0  0  0  0  0  0
    2.5127   -0.4532   -1.9579 S   0  0  0  0  0  0  0  0  0  0  0  0
    4.1792   -0.6550   -1.4344 C   0  0  0  0  0  0  0  0  0  0  0  0
    5.4630   -0.2178   -2.4052 S   0  0  0  0  0  0  0  0  0  0  0  0
    6.6944    3.5490    2.8514 H   0  0  0  0  0  0  0  0  0  0  0  0
    5.1312    1.3038    0.7542 H   0  0  0  0  0  0  0  0  0  0  0  0
    6.8557    0.8703    0.5746 H   0  0  0  0  0  0  0  0  0  0  0  0
    4.8387   -0.5107    2.4258 H   0  0  0  0  0  0  0  0  0  0  0  0
    6.5421   -0.9189    2.3182 H   0  0  0  0  0  0  0  0  0  0  0  0
    5.2934   -2.5187    1.0152 H   0  0  0  0  0  0  0  0  0  0  0  0
    6.2918   -1.5654   -0.0706 H   0  0  0  0  0  0  0  0  0  0  0  0
    0.4060   -1.6912    0.8616 H   0  0  0  0  0  0  0  0  0  0  0  0
   -0.1229   -0.9913   -3.0358 H   0  0  0  0  0  0  0  0  0  0  0  0
   -2.7308   -0.3481   -3.3198 H   0  0  0  0  0  0  0  0  0  0  0  0
   -7.4856    0.7278   -2.7835 H   0  0  0  0  0  0  0  0  0  0  0  0
   -9.5466    1.1298   -1.4467 H   0  0  0  0  0  0  0  0  0  0  0  0
   -9.4797    0.9771    1.0213 H   0  0  0  0  0  0  0  0  0  0  0  0
   -7.3550    0.4209    2.1934 H   0  0  0  0  0  0  0  0  0  0  0  0
  1  2  2  0
  2  3  1  0
  2  4  1  0
  4  5  1  0
  5  6  1  0
  6  7  1  0
  7  8  1  0
  8  9  2  0
  8 10  1  0
 10 11  2  3
 11 12  1  0
 12 13  2  0
 13 14  1  0
 14 15  2  0
 15 16  1  0
 16 17  2  0
 17 18  1  0
 18 19  2  0
 19 20  1  0
 20 21  2  0
 21 22  1  0
 22 23  2  0
 23 24  1  0
 15 25  1  0
 10 26  1  0
 26 27  1  0
 27 28  2  0
 27  7  1  0
 25 12  1  0
 24 16  1  0
 23 18  1  0
  3 29  1  0
  4 30  1  0
  4 31  1  0
  5 32  1  0
  5 33  1  0
  6 34  1  0
  6 35  1  0
 11 36  1  0
 13 37  1  0
 14 38  1  0
 19 39  1  0
 20 40  1  0
 21 41  1  0
 22 42  1  0
M  END
$$$$
