
     RDKit          3D

 35 37  0  0  0  0  0  0  0  0999 V2000
   -0.4739    3.1144   -0.4272 C   0  0  0  0  0  0  0  0  0  0  0  0
   -0.8440    1.6857   -0.1991 C   0  0  0  0  0  0  0  0  0  0  0  0
   -1.9534    1.2147    0.5827 C   0  0  0  0  0  0  0  0  0  0  0  0
   -2.9122    2.0509    1.2881 C   0  0  0  0  0  0  0  0  0  0  0  0
   -3.8442    1.5318    2.0211 N   0  0  0  0  0  0  0  0  0  0  0  0
   -4.6144    2.5607    2.5799 O   0  0  0  0  0  0  0  0  0  0  0  0
   -1.9243   -0.1702    0.5154 C   0  0  0  0  0  0  0  0  0  0  0  0
   -2.7367   -1.2136    1.0615 C   0  0  0  0  0  0  0  0  0  0  0  0
   -2.4910   -2.4983    0.7458 C   0  0  0  0  0  0  0  0  0  0  0  0
   -1.4136   -2.8646   -0.1504 C   0  0  0  0  0  0  0  0  0  0  0  0
   -0.6324   -1.8954   -0.6517 C   0  0  0  0  0  0  0  0  0  0  0  0
   -0.8678   -0.5571   -0.3076 N   0  0  0  0  0  0  0  0  0  0  0  0
   -0.1663    0.5733   -0.6911 C   0  0  0  0  0  0  0  0  0  0  0  0
    1.0309    0.5735   -1.5111 C   0  0  0  0  0  0  0  0  0  0  0  0
    1.1022    1.1899   -2.5713 O   0  0  0  0  0  0  0  0  0  0  0  0
    2.2439   -0.1661   -1.0419 C   0  0  0  0  0  0  0  0  0  0  0  0
    2.4467   -0.4791    0.3118 C   0  0  0  0  0  0  0  0  0  0  0  0
    3.5962   -1.1694    0.7050 C   0  0  0  0  0  0  0  0  0  0  0  0
    4.5402   -1.5353   -0.2485 C   0  0  0  0  0  0  0  0  0  0  0  0
    5.6403   -2.1962    0.1334 F   0  0  0  0  0  0  0  0  0  0  0  0
    4.3614   -1.2208   -1.5905 C   0  0  0  0  0  0  0  0  0  0  0  0
    3.2141   -0.5318   -1.9889 C   0  0  0  0  0  0  0  0  0  0  0  0
    0.5489    3.2181   -0.8014 H   0  0  0  0  0  0  0  0  0  0  0  0
   -0.5359    3.6834    0.5060 H   0  0  0  0  0  0  0  0  0  0  0  0
   -1.1536    3.5664   -1.1563 H   0  0  0  0  0  0  0  0  0  0  0  0
   -2.8137    3.1449    1.1793 H   0  0  0  0  0  0  0  0  0  0  0  0
   -5.2821    2.0671    3.0921 H   0  0  0  0  0  0  0  0  0  0  0  0
   -3.5568   -0.9656    1.7281 H   0  0  0  0  0  0  0  0  0  0  0  0
   -3.1071   -3.2940    1.1534 H   0  0  0  0  0  0  0  0  0  0  0  0
   -1.2664   -3.9096   -0.3997 H   0  0  0  0  0  0  0  0  0  0  0  0
    0.1788   -2.1143   -1.3333 H   0  0  0  0  0  0  0  0  0  0  0  0
    1.7288   -0.1852    1.0740 H   0  0  0  0  0  0  0  0  0  0  0  0
    3.7638   -1.4188    1.7485 H   0  0  0  0  0  0  0  0  0  0  0  0
    5.1154   -1.5092   -2.3165 H   0  0  0  0  0  0  0  0  0  0  0  0
    3.0783   -0.2802   -3.0396 H   0  0  0  0  0  0  0  0  0  0  0  0
  1  2  1  0
  2  3  1  0
  3  4  1  0
  4  5  2  3
  5  6  1  0
  3  7  2  0
  7  8  1  0
  8  9  2  0
  9 10  1  0
 10 11  2  0
 11 12  1  0
 12 13  1  0
 13 14  1  0
 14 15  2  0
 14 16  1  0
 16 17  2  0
 17 18  1  0
 18 19  2  0
 19 20  1  0
 19 21  1  0
 21 22  2  0
 13  2  2  0
 22 16  1  0
 12  7  1  0
  1 23  1  0
  1 24  1  0
  1 25  1  0
  4 26  1  0
  6 27  1  0
  8 28  1  0
  9 29  1  0
 10 30  1  0
 11 31  1  0
 17 32  1  0
 18 33  1  0
 21 34  1  0
 22 35  1  0
M  END
$$$$
