
     RDKit          3D

 51 56  0  0  0  0  0  0  0  0999 V2000
   -1.6326   -1.7893   -0.6410 O   0  0  0  0  0  0  0  0  0  0  0  0
   -1.9189   -1.2422    0.4354 C   0  0  0  0  0  0  0  0  0  0  0  0
   -3.2460   -1.5708    1.0595 C   0  0  0  0  0  0  0  0  0  0  0  0
   -4.0878   -2.4791    0.3867 C   0  0  0  0  0  0  0  0  0  0  0  0
   -5.3410   -2.8198    0.9133 C   0  0  0  0  0  0  0  0  0  0  0  0
   -5.7485   -2.2747    2.1296 C   0  0  0  0  0  0  0  0  0  0  0  0
   -7.2831   -2.6864    2.7803 Cl  0  0  0  0  0  0  0  0  0  0  0  0
   -4.9281   -1.3681    2.8052 C   0  0  0  0  0  0  0  0  0  0  0  0
   -3.6824   -1.0106    2.2671 C   0  0  0  0  0  0  0  0  0  0  0  0
   -0.9596   -0.2912    1.1689 C   0  0  0  0  0  0  0  0  0  0  0  0
    0.4311   -0.3563    0.6343 C   0  0  0  0  0  0  0  0  0  0  0  0
    0.9383    0.9091    0.2940 C   0  0  0  0  0  0  0  0  0  0  0  0
    2.2601    0.7531   -0.0529 C   0  0  0  0  0  0  0  0  0  0  0  0
    3.1283    1.6831   -0.4570 O   0  0  0  0  0  0  0  0  0  0  0  0
    2.5671   -0.6239    0.0470 N   0  0  0  0  0  0  0  0  0  0  0  0
    3.8623   -1.2125   -0.1238 C   0  0  0  0  0  0  0  0  0  0  0  0
    5.0111   -0.5155    0.2815 C   0  0  0  0  0  0  0  0  0  0  0  0
    6.2783   -1.0838    0.1095 C   0  0  0  0  0  0  0  0  0  0  0  0
    6.4007   -2.3487   -0.4622 C   0  0  0  0  0  0  0  0  0  0  0  0
    7.9601   -3.0366   -0.6870 Cl  0  0  0  0  0  0  0  0  0  0  0  0
    5.2661   -3.0538   -0.8598 C   0  0  0  0  0  0  0  0  0  0  0  0
    3.9980   -2.4920   -0.6813 C   0  0  0  0  0  0  0  0  0  0  0  0
    1.3848   -1.3073    0.3688 C   0  0  0  0  0  0  0  0  0  0  0  0
    1.3091   -2.6355    0.4547 O   0  0  0  0  0  0  0  0  0  0  0  0
   -0.0702    1.9800    0.4965 C   0  0  0  0  0  0  0  0  0  0  0  0
   -0.4188    2.7060   -0.7731 C   0  0  0  0  0  0  0  0  0  0  0  0
    0.5125    3.2632   -1.6583 C   0  0  0  0  0  0  0  0  0  0  0  0
    0.0939    3.9975   -2.7738 C   0  0  0  0  0  0  0  0  0  0  0  0
   -1.2631    4.2189   -3.0068 C   0  0  0  0  0  0  0  0  0  0  0  0
   -2.2082    3.7140   -2.1150 C   0  0  0  0  0  0  0  0  0  0  0  0
   -1.7771    2.9723   -1.0109 C   0  0  0  0  0  0  0  0  0  0  0  0
   -2.7746    2.4638   -0.0575 C   0  0  0  0  0  0  0  0  0  0  0  0
   -2.5338    1.5845    0.8691 N   0  0  0  0  0  0  0  0  0  0  0  0
   -1.2327    1.1600    0.9760 N   0  0  0  0  0  0  0  0  0  0  0  0
   -3.7841   -2.9065   -0.5721 H   0  0  0  0  0  0  0  0  0  0  0  0
   -5.9835   -3.5117    0.3660 H   0  0  0  0  0  0  0  0  0  0  0  0
   -5.2592   -0.9231    3.7446 H   0  0  0  0  0  0  0  0  0  0  0  0
   -3.0901   -0.2717    2.8053 H   0  0  0  0  0  0  0  0  0  0  0  0
   -0.9346   -0.5054    2.2438 H   0  0  0  0  0  0  0  0  0  0  0  0
    3.8278    1.2448   -0.9802 H   0  0  0  0  0  0  0  0  0  0  0  0
    4.9437    0.4481    0.7866 H   0  0  0  0  0  0  0  0  0  0  0  0
    7.1619   -0.5408    0.4356 H   0  0  0  0  0  0  0  0  0  0  0  0
    5.3580   -4.0411   -1.3079 H   0  0  0  0  0  0  0  0  0  0  0  0
    3.1336   -3.0584   -1.0206 H   0  0  0  0  0  0  0  0  0  0  0  0
    0.3621   -2.8740    0.3689 H   0  0  0  0  0  0  0  0  0  0  0  0
    0.2068    2.6711    1.2987 H   0  0  0  0  0  0  0  0  0  0  0  0
    1.5792    3.1527   -1.4905 H   0  0  0  0  0  0  0  0  0  0  0  0
    0.8392    4.4061   -3.4586 H   0  0  0  0  0  0  0  0  0  0  0  0
   -1.5790    4.7907   -3.8771 H   0  0  0  0  0  0  0  0  0  0  0  0
   -3.2651    3.8906   -2.2916 H   0  0  0  0  0  0  0  0  0  0  0  0
   -3.8122    2.8214   -0.1678 H   0  0  0  0  0  0  0  0  0  0  0  0
  1  2  2  0
  2  3  1  0
  3  4  2  0
  4  5  1  0
  5  6  2  0
  6  7  1  0
  6  8  1  0
  8  9  2  0
  2 10  1  0
 10 11  1  0
 11 12  1  0
 12 13  2  0
 13 14  1  0
 13 15  1  0
 15 16  1  0
 16 17  2  0
 17 18  1  0
 18 19  2  0
 19 20  1  0
 19 21  1  0
 21 22  2  0
 15 23  1  0
 23 24  1  0
 12 25  1  0
 25 26  1  0
 26 27  2  0
 27 28  1  0
 28 29  2  0
 29 30  1  0
 30 31  2  0
 31 32  1  0
 32 33  2  0
 33 34  1  0
  9  3  1  0
 34 10  1  0
 23 11  2  0
 34 25  1  0
 22 16  1  0
 31 26  1  0
  4 35  1  0
  5 36  1  0
  8 37  1  0
  9 38  1  0
 10 39  1  0
 14 40  1  0
 17 41  1  0
 18 42  1  0
 21 43  1  0
 22 44  1  0
 24 45  1  0
 25 46  1  0
 27 47  1  0
 28 48  1  0
 29 49  1  0
 30 50  1  0
 32 51  1  0
M  END
$$$$
