
     RDKit          3D

 53 54  0  0  0  0  0  0  0  0999 V2000
   -0.0058    3.6812   -1.6071 C   0  0  0  0  0  0  0  0  0  0  0  0
   -0.7726    2.3454   -1.6876 C   0  0  0  0  0  0  0  0  0  0  0  0
   -1.8902    2.5029   -2.7391 C   0  0  0  0  0  0  0  0  0  0  0  0
    0.1781    1.2172   -2.1584 C   0  0  0  0  0  0  0  0  0  0  0  0
    1.1847    0.8553   -1.1833 N   0  0  0  0  0  0  0  0  0  0  0  0
    2.4800    1.2940   -1.2407 C   0  0  0  0  0  0  0  0  0  0  0  0
    2.9279    2.0204   -2.1178 O   0  0  0  0  0  0  0  0  0  0  0  0
    3.3004    0.8008   -0.1064 C   0  0  0  0  0  0  0  0  0  0  0  0
    4.6033    1.1141   -0.0408 C   0  0  0  0  0  0  0  0  0  0  0  0
    5.4951    0.6651    1.0350 C   0  0  0  0  0  0  0  0  0  0  0  0
    5.0943    0.6543    2.3797 C   0  0  0  0  0  0  0  0  0  0  0  0
    5.9808    0.2437    3.3785 C   0  0  0  0  0  0  0  0  0  0  0  0
    7.2690   -0.1472    3.0341 C   0  0  0  0  0  0  0  0  0  0  0  0
    8.1175   -0.5424    3.9920 F   0  0  0  0  0  0  0  0  0  0  0  0
    7.6904   -0.1306    1.7103 C   0  0  0  0  0  0  0  0  0  0  0  0
    6.8052    0.2817    0.7115 C   0  0  0  0  0  0  0  0  0  0  0  0
   -1.3956    2.0665   -0.2960 C   0  0  0  0  0  0  0  0  0  0  0  0
   -2.1544    0.8304   -0.2102 N   0  0  0  0  0  0  0  0  0  0  0  0
   -1.6195   -0.3278    0.2906 C   0  0  0  0  0  0  0  0  0  0  0  0
   -0.4518   -0.4499    0.6493 O   0  0  0  0  0  0  0  0  0  0  0  0
   -2.5229   -1.5034    0.3102 C   0  0  0  0  0  0  0  0  0  0  0  0
   -3.8536   -1.4368    0.4712 C   0  0  0  0  0  0  0  0  0  0  0  0
   -4.7097   -2.6288    0.5177 C   0  0  0  0  0  0  0  0  0  0  0  0
   -5.9202   -2.6243   -0.1899 C   0  0  0  0  0  0  0  0  0  0  0  0
   -6.7688   -3.7331   -0.1473 C   0  0  0  0  0  0  0  0  0  0  0  0
   -6.4116   -4.8409    0.6114 C   0  0  0  0  0  0  0  0  0  0  0  0
   -7.2278   -5.9011    0.6548 F   0  0  0  0  0  0  0  0  0  0  0  0
   -5.2236   -4.8603    1.3311 C   0  0  0  0  0  0  0  0  0  0  0  0
   -4.3731   -3.7528    1.2879 C   0  0  0  0  0  0  0  0  0  0  0  0
    0.7732    3.6537   -0.8377 H   0  0  0  0  0  0  0  0  0  0  0  0
   -0.6805    4.5085   -1.3582 H   0  0  0  0  0  0  0  0  0  0  0  0
    0.4741    3.9216   -2.5625 H   0  0  0  0  0  0  0  0  0  0  0  0
   -1.4756    2.7704   -3.7177 H   0  0  0  0  0  0  0  0  0  0  0  0
   -2.4577    1.5749   -2.8654 H   0  0  0  0  0  0  0  0  0  0  0  0
   -2.5967    3.2895   -2.4520 H   0  0  0  0  0  0  0  0  0  0  0  0
   -0.3886    0.3019   -2.3646 H   0  0  0  0  0  0  0  0  0  0  0  0
    0.6698    1.5020   -3.0964 H   0  0  0  0  0  0  0  0  0  0  0  0
    0.8774    0.2702   -0.4058 H   0  0  0  0  0  0  0  0  0  0  0  0
    2.8152    0.1860    0.6409 H   0  0  0  0  0  0  0  0  0  0  0  0
    5.0627    1.7119   -0.8261 H   0  0  0  0  0  0  0  0  0  0  0  0
    4.0950    0.9752    2.6646 H   0  0  0  0  0  0  0  0  0  0  0  0
    5.6757    0.2325    4.4201 H   0  0  0  0  0  0  0  0  0  0  0  0
    8.7021   -0.4360    1.4632 H   0  0  0  0  0  0  0  0  0  0  0  0
    7.1431    0.2927   -0.3232 H   0  0  0  0  0  0  0  0  0  0  0  0
   -0.6205    2.0607    0.4797 H   0  0  0  0  0  0  0  0  0  0  0  0
   -2.0963    2.8686   -0.0337 H   0  0  0  0  0  0  0  0  0  0  0  0
   -3.0884    0.8232   -0.5965 H   0  0  0  0  0  0  0  0  0  0  0  0
   -2.0014   -2.4531    0.2378 H   0  0  0  0  0  0  0  0  0  0  0  0
   -4.3704   -0.4881    0.5831 H   0  0  0  0  0  0  0  0  0  0  0  0
   -6.2101   -1.7628   -0.7866 H   0  0  0  0  0  0  0  0  0  0  0  0
   -7.7032   -3.7389   -0.6997 H   0  0  0  0  0  0  0  0  0  0  0  0
   -4.9687   -5.7330    1.9246 H   0  0  0  0  0  0  0  0  0  0  0  0
   -3.4558   -3.7733    1.8713 H   0  0  0  0  0  0  0  0  0  0  0  0
  1  2  1  0
  2  3  1  0
  2  4  1  0
  4  5  1  0
  5  6  1  0
  6  7  2  0
  6  8  1  0
  8  9  2  3
  9 10  1  0
 10 11  2  0
 11 12  1  0
 12 13  2  0
 13 14  1  0
 13 15  1  0
 15 16  2  0
  2 17  1  0
 17 18  1  0
 18 19  1  0
 19 20  2  0
 19 21  1  0
 21 22  2  3
 22 23  1  0
 23 24  2  0
 24 25  1  0
 25 26  2  0
 26 27  1  0
 26 28  1  0
 28 29  2  0
 16 10  1  0
 29 23  1  0
  1 30  1  0
  1 31  1  0
  1 32  1  0
  3 33  1  0
  3 34  1  0
  3 35  1  0
  4 36  1  0
  4 37  1  0
  5 38  1  0
  8 39  1  0
  9 40  1  0
 11 41  1  0
 12 42  1  0
 15 43  1  0
 16 44  1  0
 17 45  1  0
 17 46  1  0
 18 47  1  0
 21 48  1  0
 22 49  1  0
 24 50  1  0
 25 51  1  0
 28 52  1  0
 29 53  1  0
M  END
$$$$
