
     RDKit          3D

 60 64  0  0  0  0  0  0  0  0999 V2000
   -4.3044   -3.2053   -2.2894 C   0  0  0  0  0  0  0  0  0  0  0  0
   -3.6234   -1.8644   -2.0519 C   0  0  0  0  0  0  0  0  0  0  0  0
   -4.1009   -1.1722   -0.7669 C   0  0  0  0  0  0  0  0  0  0  0  0
   -3.7197   -1.9046    0.4367 N   0  0  0  0  0  0  0  0  0  0  0  0
   -2.3757   -1.7970    0.7833 C   0  0  0  0  0  0  0  0  0  0  0  0
   -1.8747   -2.8629    1.4228 N   0  0  0  0  0  0  0  0  0  0  0  0
   -0.5979   -2.7685    1.7924 C   0  0  0  0  0  0  0  0  0  0  0  0
    0.2250   -1.7478    1.5303 N   0  0  0  0  0  0  0  0  0  0  0  0
   -0.2858   -0.6950    0.8529 C   0  0  0  0  0  0  0  0  0  0  0  0
    0.6428    0.2684    0.3886 N   0  0  0  0  0  0  0  0  0  0  0  0
    0.9551   -0.0087   -1.0435 C   0  0  0  0  0  0  0  0  0  0  0  0
    2.3164    0.5832   -1.4759 C   0  0  0  0  0  0  0  0  0  0  0  0
    3.4173    0.0366   -0.6625 N   0  0  0  0  0  0  0  0  0  0  0  0
    4.7029   -0.0872   -1.1607 C   0  0  0  0  0  0  0  0  0  0  0  0
    5.6382   -0.9665   -0.5902 C   0  0  0  0  0  0  0  0  0  0  0  0
    6.9402   -1.0966   -1.0914 C   0  0  0  0  0  0  0  0  0  0  0  0
    7.3446   -0.3421   -2.1848 C   0  0  0  0  0  0  0  0  0  0  0  0
    6.4462    0.5396   -2.7720 C   0  0  0  0  0  0  0  0  0  0  0  0
    5.1464    0.6609   -2.2642 C   0  0  0  0  0  0  0  0  0  0  0  0
    3.0676   -0.3965    0.7055 C   0  0  0  0  0  0  0  0  0  0  0  0
    1.8530    0.3920    1.2429 C   0  0  0  0  0  0  0  0  0  0  0  0
   -1.6437   -0.6382    0.4965 C   0  0  0  0  0  0  0  0  0  0  0  0
   -2.3157    0.4670   -0.1438 N   0  0  0  0  0  0  0  0  0  0  0  0
   -1.8876    1.8471    0.0827 C   0  0  0  0  0  0  0  0  0  0  0  0
   -2.3217    2.3796    1.4341 C   0  0  0  0  0  0  0  0  0  0  0  0
   -1.4453    2.3634    2.5280 C   0  0  0  0  0  0  0  0  0  0  0  0
   -1.8543    2.8408    3.7746 C   0  0  0  0  0  0  0  0  0  0  0  0
   -3.1431    3.3424    3.9419 C   0  0  0  0  0  0  0  0  0  0  0  0
   -4.0256    3.3623    2.8645 C   0  0  0  0  0  0  0  0  0  0  0  0
   -3.6189    2.8804    1.6189 C   0  0  0  0  0  0  0  0  0  0  0  0
   -3.5781    0.2763   -0.7195 C   0  0  0  0  0  0  0  0  0  0  0  0
   -4.2270    1.1858   -1.2434 O   0  0  0  0  0  0  0  0  0  0  0  0
   -5.3936   -3.0947   -2.3088 H   0  0  0  0  0  0  0  0  0  0  0  0
   -4.0437   -3.9299   -1.5122 H   0  0  0  0  0  0  0  0  0  0  0  0
   -3.9894   -3.6211   -3.2521 H   0  0  0  0  0  0  0  0  0  0  0  0
   -3.8346   -1.2137   -2.9101 H   0  0  0  0  0  0  0  0  0  0  0  0
   -2.5366   -2.0123   -2.0432 H   0  0  0  0  0  0  0  0  0  0  0  0
   -5.1963   -1.1067   -0.7720 H   0  0  0  0  0  0  0  0  0  0  0  0
   -4.0329   -2.8632    0.5377 H   0  0  0  0  0  0  0  0  0  0  0  0
   -0.1820   -3.6058    2.3418 H   0  0  0  0  0  0  0  0  0  0  0  0
    0.1692    0.4169   -1.6783 H   0  0  0  0  0  0  0  0  0  0  0  0
    0.9827   -1.0918   -1.2327 H   0  0  0  0  0  0  0  0  0  0  0  0
    2.4535    0.3394   -2.5362 H   0  0  0  0  0  0  0  0  0  0  0  0
    2.2991    1.6752   -1.3742 H   0  0  0  0  0  0  0  0  0  0  0  0
    5.3628   -1.5948    0.2518 H   0  0  0  0  0  0  0  0  0  0  0  0
    7.6314   -1.7932   -0.6244 H   0  0  0  0  0  0  0  0  0  0  0  0
    8.3528   -0.4405   -2.5764 H   0  0  0  0  0  0  0  0  0  0  0  0
    6.7518    1.1407   -3.6239 H   0  0  0  0  0  0  0  0  0  0  0  0
    4.4888    1.3810   -2.7429 H   0  0  0  0  0  0  0  0  0  0  0  0
    2.8573   -1.4720    0.7010 H   0  0  0  0  0  0  0  0  0  0  0  0
    3.9023   -0.2130    1.3926 H   0  0  0  0  0  0  0  0  0  0  0  0
    2.1159    1.4585    1.2603 H   0  0  0  0  0  0  0  0  0  0  0  0
    1.6528    0.1273    2.2890 H   0  0  0  0  0  0  0  0  0  0  0  0
   -2.3290    2.4914   -0.6893 H   0  0  0  0  0  0  0  0  0  0  0  0
   -0.8163    1.9841   -0.0586 H   0  0  0  0  0  0  0  0  0  0  0  0
   -0.4357    1.9775    2.4167 H   0  0  0  0  0  0  0  0  0  0  0  0
   -1.1663    2.8202    4.6157 H   0  0  0  0  0  0  0  0  0  0  0  0
   -3.4608    3.7150    4.9120 H   0  0  0  0  0  0  0  0  0  0  0  0
   -5.0323    3.7528    2.9918 H   0  0  0  0  0  0  0  0  0  0  0  0
   -4.3227    2.9006    0.7888 H   0  0  0  0  0  0  0  0  0  0  0  0
  1  2  1  0
  2  3  1  0
  3  4  1  0
  4  5  1  0
  5  6  2  0
  6  7  1  0
  7  8  2  0
  8  9  1  0
  9 10  1  0
 10 11  1  0
 11 12  1  0
 12 13  1  0
 13 14  1  0
 14 15  2  0
 15 16  1  0
 16 17  2  0
 17 18  1  0
 18 19  2  0
 13 20  1  0
 20 21  1  0
  9 22  2  0
 22 23  1  0
 23 24  1  0
 24 25  1  0
 25 26  2  0
 26 27  1  0
 27 28  2  0
 28 29  1  0
 29 30  2  0
 23 31  1  0
 31 32  2  0
 31  3  1  0
 22  5  1  0
 30 25  1  0
 21 10  1  0
 19 14  1  0
  1 33  1  0
  1 34  1  0
  1 35  1  0
  2 36  1  0
  2 37  1  0
  3 38  1  0
  4 39  1  0
  7 40  1  0
 11 41  1  0
 11 42  1  0
 12 43  1  0
 12 44  1  0
 15 45  1  0
 16 46  1  0
 17 47  1  0
 18 48  1  0
 19 49  1  0
 20 50  1  0
 20 51  1  0
 21 52  1  0
 21 53  1  0
 24 54  1  0
 24 55  1  0
 26 56  1  0
 27 57  1  0
 28 58  1  0
 29 59  1  0
 30 60  1  0
M  END
$$$$
