
     RDKit          3D

 57 61  0  0  0  0  0  0  0  0999 V2000
    7.6958    1.0169   -2.6390 C   0  0  0  0  0  0  0  0  0  0  0  0
    7.2133   -0.3207   -2.6624 O   0  0  0  0  0  0  0  0  0  0  0  0
    6.3538   -0.6833   -1.6622 C   0  0  0  0  0  0  0  0  0  0  0  0
    5.9171   -2.0088   -1.7196 C   0  0  0  0  0  0  0  0  0  0  0  0
    5.0344   -2.5133   -0.7612 C   0  0  0  0  0  0  0  0  0  0  0  0
    4.5788   -1.6944    0.2785 C   0  0  0  0  0  0  0  0  0  0  0  0
    3.6035   -2.2151    1.3019 C   0  0  0  0  0  0  0  0  0  0  0  0
    2.2479   -1.8663    0.9356 N   0  0  0  0  0  0  0  0  0  0  0  0
    1.6155   -0.7753    1.4837 C   0  0  0  0  0  0  0  0  0  0  0  0
    2.1158   -0.0815    2.3650 O   0  0  0  0  0  0  0  0  0  0  0  0
    0.2921   -0.4114    0.8954 C   0  0  0  0  0  0  0  0  0  0  0  0
   -0.5039   -1.3199    0.3061 C   0  0  0  0  0  0  0  0  0  0  0  0
   -1.7832   -0.9802   -0.2993 C   0  0  0  0  0  0  0  0  0  0  0  0
   -2.5651   -2.0449   -0.9900 C   0  0  0  0  0  0  0  0  0  0  0  0
   -2.1146   -3.1917   -1.0486 O   0  0  0  0  0  0  0  0  0  0  0  0
   -3.7717   -1.6541   -1.5400 N   0  0  0  0  0  0  0  0  0  0  0  0
   -4.5660   -2.5928   -2.1903 C   0  0  0  0  0  0  0  0  0  0  0  0
   -5.7363   -2.2598   -2.7485 C   0  0  0  0  0  0  0  0  0  0  0  0
   -6.1973   -0.8988   -2.6861 C   0  0  0  0  0  0  0  0  0  0  0  0
   -5.4638    0.0368   -2.0718 C   0  0  0  0  0  0  0  0  0  0  0  0
   -4.1620   -0.3319   -1.4457 C   0  0  0  0  0  0  0  0  0  0  0  0
   -3.4757    0.5936   -0.8568 N   0  0  0  0  0  0  0  0  0  0  0  0
   -2.2743    0.2793   -0.2611 C   0  0  0  0  0  0  0  0  0  0  0  0
   -1.5177    1.2752    0.4024 N   0  0  0  0  0  0  0  0  0  0  0  0
   -2.0750    2.6294    0.5642 C   0  0  0  0  0  0  0  0  0  0  0  0
   -2.9593    2.7333    1.7831 C   0  0  0  0  0  0  0  0  0  0  0  0
   -4.3478    2.5849    1.7012 C   0  0  0  0  0  0  0  0  0  0  0  0
   -5.1262    2.6849    2.8506 C   0  0  0  0  0  0  0  0  0  0  0  0
   -4.4882    2.9318    4.0538 C   0  0  0  0  0  0  0  0  0  0  0  0
   -3.1532    3.0792    4.1775 N   0  0  0  0  0  0  0  0  0  0  0  0
   -2.4196    2.9713    3.0434 C   0  0  0  0  0  0  0  0  0  0  0  0
   -0.2715    0.9898    0.9806 C   0  0  0  0  0  0  0  0  0  0  0  0
    0.3985    1.9321    1.5856 N   0  0  0  0  0  0  0  0  0  0  0  0
    5.0134   -0.3628    0.3285 C   0  0  0  0  0  0  0  0  0  0  0  0
    5.8967    0.1394   -0.6335 C   0  0  0  0  0  0  0  0  0  0  0  0
    8.3704    1.1436   -3.4913 H   0  0  0  0  0  0  0  0  0  0  0  0
    6.8763    1.7340   -2.7538 H   0  0  0  0  0  0  0  0  0  0  0  0
    8.2703    1.2139   -1.7278 H   0  0  0  0  0  0  0  0  0  0  0  0
    6.2687   -2.6545   -2.5208 H   0  0  0  0  0  0  0  0  0  0  0  0
    4.7104   -3.5486   -0.8347 H   0  0  0  0  0  0  0  0  0  0  0  0
    3.6537   -3.3083    1.3544 H   0  0  0  0  0  0  0  0  0  0  0  0
    3.8526   -1.8312    2.2975 H   0  0  0  0  0  0  0  0  0  0  0  0
    1.9071   -2.2585    0.0698 H   0  0  0  0  0  0  0  0  0  0  0  0
   -0.2221   -2.3679    0.2587 H   0  0  0  0  0  0  0  0  0  0  0  0
   -4.1964   -3.6147   -2.2270 H   0  0  0  0  0  0  0  0  0  0  0  0
   -6.3498   -2.9990   -3.2536 H   0  0  0  0  0  0  0  0  0  0  0  0
   -7.1475   -0.6514   -3.1486 H   0  0  0  0  0  0  0  0  0  0  0  0
   -5.7746    1.0718   -2.0053 H   0  0  0  0  0  0  0  0  0  0  0  0
   -2.6448    2.9214   -0.3284 H   0  0  0  0  0  0  0  0  0  0  0  0
   -1.2853    3.3899    0.6204 H   0  0  0  0  0  0  0  0  0  0  0  0
   -4.8245    2.3881    0.7447 H   0  0  0  0  0  0  0  0  0  0  0  0
   -6.2031    2.5718    2.8090 H   0  0  0  0  0  0  0  0  0  0  0  0
   -5.0503    3.0192    4.9788 H   0  0  0  0  0  0  0  0  0  0  0  0
   -1.3474    3.0889    3.1847 H   0  0  0  0  0  0  0  0  0  0  0  0
    1.2698    1.5478    1.9941 H   0  0  0  0  0  0  0  0  0  0  0  0
    4.6597    0.2959    1.1211 H   0  0  0  0  0  0  0  0  0  0  0  0
    6.2026    1.1768   -0.5490 H   0  0  0  0  0  0  0  0  0  0  0  0
  1  2  1  0
  2  3  1  0
  3  4  2  0
  4  5  1  0
  5  6  2  0
  6  7  1  0
  7  8  1  0
  8  9  1  0
  9 10  2  0
  9 11  1  0
 11 12  2  0
 12 13  1  0
 13 14  1  0
 14 15  2  0
 14 16  1  0
 16 17  1  0
 17 18  2  0
 18 19  1  0
 19 20  2  0
 20 21  1  0
 21 22  2  0
 22 23  1  0
 23 24  1  0
 24 25  1  0
 25 26  1  0
 26 27  2  0
 27 28  1  0
 28 29  2  0
 29 30  1  0
 30 31  2  0
 24 32  1  0
 32 33  2  3
  6 34  1  0
 34 35  2  0
 35  3  1  0
 32 11  1  0
 23 13  2  0
 31 26  1  0
 21 16  1  0
  1 36  1  0
  1 37  1  0
  1 38  1  0
  4 39  1  0
  5 40  1  0
  7 41  1  0
  7 42  1  0
  8 43  1  0
 12 44  1  0
 17 45  1  0
 18 46  1  0
 19 47  1  0
 20 48  1  0
 25 49  1  0
 25 50  1  0
 27 51  1  0
 28 52  1  0
 29 53  1  0
 31 54  1  0
 33 55  1  0
 34 56  1  0
 35 57  1  0
M  END
$$$$
