
     RDKit          3D

 54 56  0  0  0  0  0  0  0  0999 V2000
   -8.5284    0.3654    0.1371 C   0  0  0  0  0  0  0  0  0  0  0  0
   -7.6260   -0.1439   -0.9761 C   0  0  0  0  0  0  0  0  0  0  0  0
   -6.2303   -0.5432   -0.4944 C   0  0  0  0  0  0  0  0  0  0  0  0
   -5.4179    0.6315    0.0421 C   0  0  0  0  0  0  0  0  0  0  0  0
   -4.0688    0.2229    0.3820 N   0  0  0  0  0  0  0  0  0  0  0  0
   -3.0869    1.1704    0.6022 C   0  0  0  0  0  0  0  0  0  0  0  0
   -3.2625    2.3704    0.4214 O   0  0  0  0  0  0  0  0  0  0  0  0
   -1.7598    0.5723    1.0765 C   0  0  0  0  0  0  0  0  0  0  0  0
   -0.7748    1.6610    1.5387 C   0  0  0  0  0  0  0  0  0  0  0  0
    0.1239    2.1309    0.3982 C   0  0  0  0  0  0  0  0  0  0  0  0
    1.0064    0.9939   -0.1574 C   0  0  0  0  0  0  0  0  0  0  0  0
    2.4155    1.0439    0.4670 C   0  0  0  0  0  0  0  0  0  0  0  0
    3.3315    0.1504   -0.2267 N   0  0  0  0  0  0  0  0  0  0  0  0
    4.6701   -0.0551    0.0756 C   0  0  0  0  0  0  0  0  0  0  0  0
    5.2940    0.8053    0.9403 N   0  0  0  0  0  0  0  0  0  0  0  0
    6.6014    0.7356    1.3420 C   0  0  0  0  0  0  0  0  0  0  0  0
    7.1552    1.9104    2.4033 S   0  0  0  0  0  0  0  0  0  0  0  0
    7.3789   -0.2803    0.8648 N   0  0  0  0  0  0  0  0  0  0  0  0
    6.8318   -1.1118    0.0378 C   0  0  0  0  0  0  0  0  0  0  0  0
    7.6630   -2.2272   -0.4965 C   0  0  0  0  0  0  0  0  0  0  0  0
    7.1526   -3.1094   -1.3652 C   0  0  0  0  0  0  0  0  0  0  0  0
    5.7901   -3.0268   -1.8297 C   0  0  0  0  0  0  0  0  0  0  0  0
    4.9629   -2.0644   -1.3976 C   0  0  0  0  0  0  0  0  0  0  0  0
    5.4091   -1.0632   -0.4421 C   0  0  0  0  0  0  0  0  0  0  0  0
    0.3533   -0.3900    0.0406 C   0  0  0  0  0  0  0  0  0  0  0  0
   -1.1686   -0.3206   -0.0288 C   0  0  0  0  0  0  0  0  0  0  0  0
   -9.5362    0.5475   -0.2499 H   0  0  0  0  0  0  0  0  0  0  0  0
   -8.1590    1.3071    0.5541 H   0  0  0  0  0  0  0  0  0  0  0  0
   -8.6042   -0.3660    0.9478 H   0  0  0  0  0  0  0  0  0  0  0  0
   -8.0990   -1.0200   -1.4360 H   0  0  0  0  0  0  0  0  0  0  0  0
   -7.5459    0.6200   -1.7586 H   0  0  0  0  0  0  0  0  0  0  0  0
   -6.3116   -1.3209    0.2758 H   0  0  0  0  0  0  0  0  0  0  0  0
   -5.6907   -0.9987   -1.3348 H   0  0  0  0  0  0  0  0  0  0  0  0
   -5.8669    1.0418    0.9522 H   0  0  0  0  0  0  0  0  0  0  0  0
   -5.3661    1.4355   -0.7002 H   0  0  0  0  0  0  0  0  0  0  0  0
   -3.9466   -0.6820    0.8174 H   0  0  0  0  0  0  0  0  0  0  0  0
   -1.9920   -0.0446    1.9556 H   0  0  0  0  0  0  0  0  0  0  0  0
   -1.3039    2.5173    1.9722 H   0  0  0  0  0  0  0  0  0  0  0  0
   -0.1437    1.2570    2.3412 H   0  0  0  0  0  0  0  0  0  0  0  0
   -0.5074    2.5175   -0.4127 H   0  0  0  0  0  0  0  0  0  0  0  0
    0.7356    2.9770    0.7316 H   0  0  0  0  0  0  0  0  0  0  0  0
    1.1139    1.1696   -1.2372 H   0  0  0  0  0  0  0  0  0  0  0  0
    2.3680    0.7787    1.5300 H   0  0  0  0  0  0  0  0  0  0  0  0
    2.8036    2.0670    0.3951 H   0  0  0  0  0  0  0  0  0  0  0  0
    2.8896   -0.6300   -0.6985 H   0  0  0  0  0  0  0  0  0  0  0  0
    4.7702    1.5809    1.3146 H   0  0  0  0  0  0  0  0  0  0  0  0
    8.6882   -2.2831   -0.1499 H   0  0  0  0  0  0  0  0  0  0  0  0
    7.7689   -3.9180   -1.7482 H   0  0  0  0  0  0  0  0  0  0  0  0
    5.4541   -3.7665   -2.5509 H   0  0  0  0  0  0  0  0  0  0  0  0
    3.9515   -2.0268   -1.7833 H   0  0  0  0  0  0  0  0  0  0  0  0
    0.7175   -1.0823   -0.7278 H   0  0  0  0  0  0  0  0  0  0  0  0
    0.6447   -0.8183    1.0081 H   0  0  0  0  0  0  0  0  0  0  0  0
   -1.5844   -1.3320    0.0589 H   0  0  0  0  0  0  0  0  0  0  0  0
   -1.4638    0.0442   -1.0215 H   0  0  0  0  0  0  0  0  0  0  0  0
  1  2  1  0
  2  3  1  0
  3  4  1  0
  4  5  1  0
  5  6  1  0
  6  7  2  0
  6  8  1  0
  8  9  1  0
  9 10  1  0
 10 11  1  0
 11 12  1  0
 12 13  1  0
 13 14  1  0
 14 15  1  0
 15 16  1  0
 16 17  2  0
 16 18  1  0
 18 19  2  0
 19 20  1  0
 20 21  2  0
 21 22  1  0
 22 23  2  0
 23 24  1  0
 11 25  1  0
 25 26  1  0
 26  8  1  0
 24 14  2  0
 24 19  1  0
  1 27  1  0
  1 28  1  0
  1 29  1  0
  2 30  1  0
  2 31  1  0
  3 32  1  0
  3 33  1  0
  4 34  1  0
  4 35  1  0
  5 36  1  0
  8 37  1  0
  9 38  1  0
  9 39  1  0
 10 40  1  0
 10 41  1  0
 11 42  1  0
 12 43  1  0
 12 44  1  0
 13 45  1  0
 15 46  1  0
 20 47  1  0
 21 48  1  0
 22 49  1  0
 23 50  1  0
 25 51  1  0
 25 52  1  0
 26 53  1  0
 26 54  1  0
M  END
$$$$
