
     RDKit          3D

 50 52  0  0  0  0  0  0  0  0999 V2000
    5.9580    2.2541   -2.4261 C   0  0  0  0  0  0  0  0  0  0  0  0
    4.7354    1.5796   -2.1530 O   0  0  0  0  0  0  0  0  0  0  0  0
    4.6722    0.2440   -2.4829 C   0  0  0  0  0  0  0  0  0  0  0  0
    5.7135   -0.4877   -3.0615 C   0  0  0  0  0  0  0  0  0  0  0  0
    5.5383   -1.8413   -3.3552 C   0  0  0  0  0  0  0  0  0  0  0  0
    4.3267   -2.4669   -3.0733 C   0  0  0  0  0  0  0  0  0  0  0  0
    3.2806   -1.7445   -2.4954 C   0  0  0  0  0  0  0  0  0  0  0  0
    3.4430   -0.3906   -2.1964 C   0  0  0  0  0  0  0  0  0  0  0  0
    2.4357    0.4101   -1.6131 N   0  0  0  0  0  0  0  0  0  0  0  0
    1.1569    0.0428   -1.2288 C   0  0  0  0  0  0  0  0  0  0  0  0
    0.6673   -1.0786   -1.3290 O   0  0  0  0  0  0  0  0  0  0  0  0
    0.3855    1.2271   -0.6390 C   0  0  0  0  0  0  0  0  0  0  0  0
   -0.9289    0.8471   -0.2474 O   0  0  0  0  0  0  0  0  0  0  0  0
   -1.5967    1.8127    0.4230 C   0  0  0  0  0  0  0  0  0  0  0  0
   -1.2272    2.9604    0.6108 O   0  0  0  0  0  0  0  0  0  0  0  0
   -2.9337    1.3109    0.7890 C   0  0  0  0  0  0  0  0  0  0  0  0
   -4.0289    1.9988    0.2447 C   0  0  0  0  0  0  0  0  0  0  0  0
   -5.3217    1.5684    0.5488 C   0  0  0  0  0  0  0  0  0  0  0  0
   -6.4775    2.2698   -0.0224 N   0  0  0  0  0  4  0  0  0  0  0  0
   -6.2559    3.1850   -0.8273 O   0  0  0  0  0  0  0  0  0  0  0  0
   -7.6065    1.9031    0.3330 O   0  0  0  0  0  1  0  0  0  0  0  0
   -5.5232    0.4676    1.3876 C   0  0  0  0  0  0  0  0  0  0  0  0
   -4.4198   -0.1951    1.9379 C   0  0  0  0  0  0  0  0  0  0  0  0
   -3.1033    0.2208    1.6708 C   0  0  0  0  0  0  0  0  0  0  0  0
   -2.0022   -0.4222    2.2415 N   0  0  0  0  0  0  0  0  0  0  0  0
   -1.9966   -0.6431    3.6961 C   0  0  0  0  0  0  0  0  0  0  0  0
   -1.1270   -1.8824    3.8753 C   0  0  0  0  0  0  0  0  0  0  0  0
   -1.4927   -2.7104    2.6568 C   0  0  0  0  0  0  0  0  0  0  0  0
   -1.5900   -1.6630    1.5509 C   0  0  0  0  0  0  0  0  0  0  0  0
    6.7845    1.8205   -1.8537 H   0  0  0  0  0  0  0  0  0  0  0  0
    5.8430    3.2943   -2.1067 H   0  0  0  0  0  0  0  0  0  0  0  0
    6.1756    2.2578   -3.4992 H   0  0  0  0  0  0  0  0  0  0  0  0
    6.6718   -0.0382   -3.2972 H   0  0  0  0  0  0  0  0  0  0  0  0
    6.3486   -2.4093   -3.8057 H   0  0  0  0  0  0  0  0  0  0  0  0
    4.1904   -3.5209   -3.3031 H   0  0  0  0  0  0  0  0  0  0  0  0
    2.3514   -2.2668   -2.2925 H   0  0  0  0  0  0  0  0  0  0  0  0
    2.7256    1.3732   -1.4672 H   0  0  0  0  0  0  0  0  0  0  0  0
    0.3229    2.0086   -1.4053 H   0  0  0  0  0  0  0  0  0  0  0  0
    0.9457    1.5913    0.2310 H   0  0  0  0  0  0  0  0  0  0  0  0
   -3.8544    2.8527   -0.4075 H   0  0  0  0  0  0  0  0  0  0  0  0
   -6.5242    0.1117    1.6244 H   0  0  0  0  0  0  0  0  0  0  0  0
   -4.6024   -1.0566    2.5765 H   0  0  0  0  0  0  0  0  0  0  0  0
   -2.9943   -0.8373    4.1043 H   0  0  0  0  0  0  0  0  0  0  0  0
   -1.5728    0.2206    4.2185 H   0  0  0  0  0  0  0  0  0  0  0  0
   -0.0649   -1.6111    3.8440 H   0  0  0  0  0  0  0  0  0  0  0  0
   -1.3245   -2.4008    4.8175 H   0  0  0  0  0  0  0  0  0  0  0  0
   -0.7568   -3.4876    2.4333 H   0  0  0  0  0  0  0  0  0  0  0  0
   -2.4669   -3.1911    2.8071 H   0  0  0  0  0  0  0  0  0  0  0  0
   -2.2773   -1.9849    0.7599 H   0  0  0  0  0  0  0  0  0  0  0  0
   -0.6024   -1.5026    1.1063 H   0  0  0  0  0  0  0  0  0  0  0  0
  1  2  1  0
  2  3  1  0
  3  4  2  0
  4  5  1  0
  5  6  2  0
  6  7  1  0
  7  8  2  0
  8  9  1  0
  9 10  1  0
 10 11  2  0
 10 12  1  0
 12 13  1  0
 13 14  1  0
 14 15  2  0
 14 16  1  0
 16 17  2  0
 17 18  1  0
 18 19  1  0
 19 20  2  0
 19 21  1  0
 18 22  2  0
 22 23  1  0
 23 24  2  0
 24 25  1  0
 25 26  1  0
 26 27  1  0
 27 28  1  0
 28 29  1  0
  8  3  1  0
 24 16  1  0
 29 25  1  0
  1 30  1  0
  1 31  1  0
  1 32  1  0
  4 33  1  0
  5 34  1  0
  6 35  1  0
  7 36  1  0
  9 37  1  0
 12 38  1  0
 12 39  1  0
 17 40  1  0
 22 41  1  0
 23 42  1  0
 26 43  1  0
 26 44  1  0
 27 45  1  0
 27 46  1  0
 28 47  1  0
 28 48  1  0
 29 49  1  0
 29 50  1  0
M  CHG  2  19   1  21  -1
M  END
$$$$
