
     RDKit          3D

 54 58  0  0  0  0  0  0  0  0999 V2000
    6.6708   -1.7518    0.1245 C   0  0  0  0  0  0  0  0  0  0  0  0
    5.3138   -1.2736   -0.3665 C   0  0  0  0  0  0  0  0  0  0  0  0
    4.2412   -1.3706    0.7091 C   0  0  0  0  0  0  0  0  0  0  0  0
    4.4607   -1.9194    1.7886 O   0  0  0  0  0  0  0  0  0  0  0  0
    3.0011   -0.8152    0.4020 N   0  0  0  0  0  0  0  0  0  0  0  0
    2.6684   -0.2311   -0.8935 C   0  0  0  0  0  0  0  0  0  0  0  0
    1.1604   -0.1225   -1.0991 C   0  0  0  0  0  0  0  0  0  0  0  0
    0.5067    0.7664   -0.0100 C   0  0  0  0  0  0  0  0  0  0  0  0
    1.1296    0.4648    1.3876 C   0  0  0  0  0  0  0  0  0  0  0  0
    1.9624   -0.8134    1.4256 C   0  0  0  0  0  0  0  0  0  0  0  0
    0.9058    2.1448   -0.2687 O   0  0  0  0  0  0  0  0  0  0  0  0
    0.2005    2.8559   -1.1944 C   0  0  0  0  0  0  0  0  0  0  0  0
    0.7518    4.0777   -1.5795 C   0  0  0  0  0  0  0  0  0  0  0  0
    0.1144    4.8610   -2.5454 C   0  0  0  0  0  0  0  0  0  0  0  0
   -1.0762    4.4195   -3.1236 C   0  0  0  0  0  0  0  0  0  0  0  0
   -1.8516    5.3829   -4.3186 Cl  0  0  0  0  0  0  0  0  0  0  0  0
   -1.6407    3.2069   -2.7383 C   0  0  0  0  0  0  0  0  0  0  0  0
   -0.9994    2.4384   -1.7623 C   0  0  0  0  0  0  0  0  0  0  0  0
   -1.5763    1.1642   -1.3154 C   0  0  0  0  0  0  0  0  0  0  0  0
   -2.4158    0.5944   -2.0065 O   0  0  0  0  0  0  0  0  0  0  0  0
   -1.0428    0.6305    0.0078 C   0  0  0  0  0  0  0  0  0  0  0  0
   -1.5715   -0.7646    0.3027 C   0  0  0  0  0  0  0  0  0  0  0  0
   -2.7641   -0.3869    1.1156 C   0  0  0  0  0  0  0  0  0  0  0  0
   -3.8429   -1.3522    1.4326 C   0  0  0  0  0  0  0  0  0  0  0  0
   -3.7566   -2.6987    1.0590 C   0  0  0  0  0  0  0  0  0  0  0  0
   -4.7937   -3.5818    1.3787 C   0  0  0  0  0  0  0  0  0  0  0  0
   -5.9130   -3.1216    2.0708 C   0  0  0  0  0  0  0  0  0  0  0  0
   -7.1839   -4.2125    2.4613 Cl  0  0  0  0  0  0  0  0  0  0  0  0
   -6.0064   -1.7844    2.4485 C   0  0  0  0  0  0  0  0  0  0  0  0
   -4.9717   -0.9003    2.1304 C   0  0  0  0  0  0  0  0  0  0  0  0
   -2.7593    0.8345    1.5464 N   0  0  0  0  0  0  0  0  0  0  0  0
   -1.5953    1.4579    1.0464 O   0  0  0  0  0  0  0  0  0  0  0  0
    7.4179   -1.6569   -0.6694 H   0  0  0  0  0  0  0  0  0  0  0  0
    7.0073   -1.1628    0.9841 H   0  0  0  0  0  0  0  0  0  0  0  0
    6.6310   -2.8022    0.4317 H   0  0  0  0  0  0  0  0  0  0  0  0
    5.0117   -1.8903   -1.2192 H   0  0  0  0  0  0  0  0  0  0  0  0
    5.4026   -0.2318   -0.6916 H   0  0  0  0  0  0  0  0  0  0  0  0
    3.0970   -0.8463   -1.6904 H   0  0  0  0  0  0  0  0  0  0  0  0
    3.1434    0.7553   -0.9443 H   0  0  0  0  0  0  0  0  0  0  0  0
    0.9842    0.2850   -2.1010 H   0  0  0  0  0  0  0  0  0  0  0  0
    0.7293   -1.1308   -1.0832 H   0  0  0  0  0  0  0  0  0  0  0  0
    0.3597    0.3968    2.1643 H   0  0  0  0  0  0  0  0  0  0  0  0
    1.7779    1.2979    1.6930 H   0  0  0  0  0  0  0  0  0  0  0  0
    1.3372   -1.6962    1.2528 H   0  0  0  0  0  0  0  0  0  0  0  0
    2.4037   -0.9266    2.4218 H   0  0  0  0  0  0  0  0  0  0  0  0
    1.6816    4.4212   -1.1318 H   0  0  0  0  0  0  0  0  0  0  0  0
    0.5512    5.8115   -2.8422 H   0  0  0  0  0  0  0  0  0  0  0  0
   -2.5739    2.8664   -3.1809 H   0  0  0  0  0  0  0  0  0  0  0  0
   -1.8269   -1.3440   -0.5870 H   0  0  0  0  0  0  0  0  0  0  0  0
   -0.9093   -1.3524    0.9428 H   0  0  0  0  0  0  0  0  0  0  0  0
   -2.8967   -3.0880    0.5225 H   0  0  0  0  0  0  0  0  0  0  0  0
   -4.7227   -4.6264    1.0853 H   0  0  0  0  0  0  0  0  0  0  0  0
   -6.8774   -1.4217    2.9883 H   0  0  0  0  0  0  0  0  0  0  0  0
   -5.0553    0.1433    2.4293 H   0  0  0  0  0  0  0  0  0  0  0  0
  1  2  1  0
  2  3  1  0
  3  4  2  0
  3  5  1  0
  5  6  1  0
  6  7  1  0
  7  8  1  0
  8  9  1  0
  9 10  1  0
  8 11  1  0
 11 12  1  0
 12 13  2  0
 13 14  1  0
 14 15  2  0
 15 16  1  0
 15 17  1  0
 17 18  2  0
 18 19  1  0
 19 20  2  0
 19 21  1  0
 21 22  1  0
 22 23  1  0
 23 24  1  0
 24 25  2  0
 25 26  1  0
 26 27  2  0
 27 28  1  0
 27 29  1  0
 29 30  2  0
 23 31  2  0
 31 32  1  0
 10  5  1  0
 18 12  1  0
 32 21  1  0
 21  8  1  0
 30 24  1  0
  1 33  1  0
  1 34  1  0
  1 35  1  0
  2 36  1  0
  2 37  1  0
  6 38  1  0
  6 39  1  0
  7 40  1  0
  7 41  1  0
  9 42  1  0
  9 43  1  0
 10 44  1  0
 10 45  1  0
 13 46  1  0
 14 47  1  0
 17 48  1  0
 22 49  1  0
 22 50  1  0
 25 51  1  0
 26 52  1  0
 29 53  1  0
 30 54  1  0
M  END
$$$$
