
     RDKit          3D

 46 49  0  0  0  0  0  0  0  0999 V2000
   -0.5823    1.3786    2.5894 O   0  0  0  0  0  0  0  0  0  0  0  0
   -0.7060    0.5553    1.6863 C   0  0  0  0  0  0  0  0  0  0  0  0
    0.3808    0.3059    0.7585 C   0  0  0  0  0  0  0  0  0  0  0  0
    1.0799   -0.8802    0.6388 C   0  0  0  0  0  0  0  0  0  0  0  0
    2.0162   -0.7030   -0.3495 N   0  0  0  0  0  0  0  0  0  0  0  0
    2.9738   -1.6426   -0.8271 C   0  0  0  0  0  0  0  0  0  0  0  0
    3.8427   -1.2729   -1.8661 C   0  0  0  0  0  0  0  0  0  0  0  0
    4.7882   -2.1790   -2.3510 C   0  0  0  0  0  0  0  0  0  0  0  0
    4.8745   -3.4572   -1.8042 C   0  0  0  0  0  0  0  0  0  0  0  0
    4.0169   -3.8318   -0.7712 C   0  0  0  0  0  0  0  0  0  0  0  0
    3.0674   -2.9303   -0.2801 C   0  0  0  0  0  0  0  0  0  0  0  0
    1.9295    0.5344   -0.8917 N   0  0  0  0  0  0  0  0  0  0  0  0
    0.9758    1.1735   -0.1964 C   0  0  0  0  0  0  0  0  0  0  0  0
    0.6347    2.5579   -0.5255 C   0  0  0  0  0  0  0  0  0  0  0  0
    0.4513    3.5222    0.4752 C   0  0  0  0  0  0  0  0  0  0  0  0
    0.1212    4.8379    0.1378 C   0  0  0  0  0  0  0  0  0  0  0  0
   -0.0166    5.1909   -1.1990 C   0  0  0  0  0  0  0  0  0  0  0  0
   -0.3323    6.4523   -1.5200 F   0  0  0  0  0  0  0  0  0  0  0  0
    0.1744    4.2553   -2.2077 C   0  0  0  0  0  0  0  0  0  0  0  0
    0.5033    2.9402   -1.8714 C   0  0  0  0  0  0  0  0  0  0  0  0
   -1.8656   -0.2059    1.5240 N   0  0  0  0  0  0  0  0  0  0  0  0
   -2.1546   -1.0258    0.3434 C   0  0  0  0  0  0  0  0  0  0  0  0
   -3.6503   -1.1060    0.0566 C   0  0  0  0  0  0  0  0  0  0  0  0
   -4.4381   -1.6484    1.2484 C   0  0  0  0  0  0  0  0  0  0  0  0
   -3.7975   -1.3090    2.5943 C   0  0  0  0  0  0  0  0  0  0  0  0
   -2.9261   -0.0617    2.5181 C   0  0  0  0  0  0  0  0  0  0  0  0
    0.9768   -1.8055    1.1837 H   0  0  0  0  0  0  0  0  0  0  0  0
    3.7970   -0.2787   -2.3078 H   0  0  0  0  0  0  0  0  0  0  0  0
    5.4580   -1.8835   -3.1548 H   0  0  0  0  0  0  0  0  0  0  0  0
    5.6123   -4.1607   -2.1818 H   0  0  0  0  0  0  0  0  0  0  0  0
    4.0894   -4.8295   -0.3446 H   0  0  0  0  0  0  0  0  0  0  0  0
    2.4248   -3.2658    0.5273 H   0  0  0  0  0  0  0  0  0  0  0  0
    0.5794    3.2693    1.5253 H   0  0  0  0  0  0  0  0  0  0  0  0
   -0.0220    5.5862    0.9108 H   0  0  0  0  0  0  0  0  0  0  0  0
    0.0717    4.5528   -3.2460 H   0  0  0  0  0  0  0  0  0  0  0  0
    0.6612    2.2104   -2.6633 H   0  0  0  0  0  0  0  0  0  0  0  0
   -1.7531   -2.0273    0.5365 H   0  0  0  0  0  0  0  0  0  0  0  0
   -1.6428   -0.6187   -0.5340 H   0  0  0  0  0  0  0  0  0  0  0  0
   -3.8369   -1.7275   -0.8263 H   0  0  0  0  0  0  0  0  0  0  0  0
   -4.0197   -0.1005   -0.1836 H   0  0  0  0  0  0  0  0  0  0  0  0
   -4.5344   -2.7379    1.1674 H   0  0  0  0  0  0  0  0  0  0  0  0
   -5.4584   -1.2481    1.2091 H   0  0  0  0  0  0  0  0  0  0  0  0
   -3.1767   -2.1563    2.9132 H   0  0  0  0  0  0  0  0  0  0  0  0
   -4.5755   -1.1862    3.3560 H   0  0  0  0  0  0  0  0  0  0  0  0
   -3.5253    0.8126    2.2367 H   0  0  0  0  0  0  0  0  0  0  0  0
   -2.4872    0.1440    3.5007 H   0  0  0  0  0  0  0  0  0  0  0  0
  1  2  2  0
  2  3  1  0
  3  4  2  0
  4  5  1  0
  5  6  1  0
  6  7  2  0
  7  8  1  0
  8  9  2  0
  9 10  1  0
 10 11  2  0
  5 12  1  0
 12 13  2  0
 13 14  1  0
 14 15  2  0
 15 16  1  0
 16 17  2  0
 17 18  1  0
 17 19  1  0
 19 20  2  0
  2 21  1  0
 21 22  1  0
 22 23  1  0
 23 24  1  0
 24 25  1  0
 25 26  1  0
 13  3  1  0
 20 14  1  0
 26 21  1  0
 11  6  1  0
  4 27  1  0
  7 28  1  0
  8 29  1  0
  9 30  1  0
 10 31  1  0
 11 32  1  0
 15 33  1  0
 16 34  1  0
 19 35  1  0
 20 36  1  0
 22 37  1  0
 22 38  1  0
 23 39  1  0
 23 40  1  0
 24 41  1  0
 24 42  1  0
 25 43  1  0
 25 44  1  0
 26 45  1  0
 26 46  1  0
M  END
$$$$
