
     RDKit          3D

 44 46  0  0  0  0  0  0  0  0999 V2000
    5.0329   -0.0160    0.3066 C   0  0  0  0  0  0  0  0  0  0  0  0
    3.7544    0.8092    0.5189 C   0  0  0  0  0  0  0  0  0  0  0  0
    3.8592    2.1748   -0.1714 C   0  0  0  0  0  0  0  0  0  0  0  0
    3.5790    1.0388    2.0349 C   0  0  0  0  0  0  0  0  0  0  0  0
    2.5230    0.0520   -0.0237 C   0  0  0  0  0  0  0  0  0  0  0  0
    1.5521   -0.1821    0.7053 O   0  0  0  0  0  0  0  0  0  0  0  0
    2.5051   -0.3649   -1.4867 C   0  0  0  0  0  0  0  0  0  0  0  0
    1.2990    0.6221   -2.4218 S   0  0  0  0  0  0  0  0  0  0  0  0
   -0.2027   -0.0350   -1.7017 C   0  0  0  0  0  0  0  0  0  0  0  0
   -0.4220   -1.3454   -1.9907 N   0  0  0  0  0  0  0  0  0  0  0  0
   -1.5189   -1.8880   -1.4475 C   0  0  0  0  0  0  0  0  0  0  0  0
   -2.4241   -1.2076   -0.6441 C   0  0  0  0  0  0  0  0  0  0  0  0
   -2.2212    0.1425   -0.3785 C   0  0  0  0  0  0  0  0  0  0  0  0
   -3.1739    0.8882    0.4457 C   0  0  0  0  0  0  0  0  0  0  0  0
   -3.0376    1.3245    1.7506 C   0  0  0  0  0  0  0  0  0  0  0  0
   -4.1903    2.0318    2.2101 C   0  0  0  0  0  0  0  0  0  0  0  0
   -5.1602    2.1248    1.2355 C   0  0  0  0  0  0  0  0  0  0  0  0
   -4.6866    1.3527   -0.2179 S   0  0  0  0  0  0  0  0  0  0  0  0
   -1.0696    0.7476   -0.9177 C   0  0  0  0  0  0  0  0  0  0  0  0
   -0.7816    2.1327   -0.6734 C   0  0  0  0  0  0  0  0  0  0  0  0
   -0.5442    3.2566   -0.4898 N   0  0  0  0  0  0  0  0  0  0  0  0
   -3.5374   -2.1154   -0.2199 C   0  0  0  0  0  0  0  0  0  0  0  0
   -2.9218   -3.4974   -0.4951 C   0  0  0  0  0  0  0  0  0  0  0  0
   -1.9451   -3.3129   -1.6634 C   0  0  0  0  0  0  0  0  0  0  0  0
    5.3552   -0.0396   -0.7482 H   0  0  0  0  0  0  0  0  0  0  0  0
    4.8923   -1.0585    0.6212 H   0  0  0  0  0  0  0  0  0  0  0  0
    5.8661    0.3940    0.8856 H   0  0  0  0  0  0  0  0  0  0  0  0
    2.9331    2.7507   -0.0400 H   0  0  0  0  0  0  0  0  0  0  0  0
    4.6826    2.7680    0.2411 H   0  0  0  0  0  0  0  0  0  0  0  0
    4.0326    2.0752   -1.2503 H   0  0  0  0  0  0  0  0  0  0  0  0
    2.6472    1.5770    2.2600 H   0  0  0  0  0  0  0  0  0  0  0  0
    4.4075    1.6261    2.4485 H   0  0  0  0  0  0  0  0  0  0  0  0
    3.5453    0.0840    2.5732 H   0  0  0  0  0  0  0  0  0  0  0  0
    3.4847   -0.2113   -1.9424 H   0  0  0  0  0  0  0  0  0  0  0  0
    2.2870   -1.4360   -1.5483 H   0  0  0  0  0  0  0  0  0  0  0  0
   -2.1568    1.1394    2.3562 H   0  0  0  0  0  0  0  0  0  0  0  0
   -4.2952    2.4494    3.2057 H   0  0  0  0  0  0  0  0  0  0  0  0
   -6.1281    2.6082    1.3069 H   0  0  0  0  0  0  0  0  0  0  0  0
   -3.7959   -2.0075    0.8399 H   0  0  0  0  0  0  0  0  0  0  0  0
   -4.4234   -1.9474   -0.8442 H   0  0  0  0  0  0  0  0  0  0  0  0
   -2.3623   -3.8286    0.3919 H   0  0  0  0  0  0  0  0  0  0  0  0
   -3.6815   -4.2573   -0.6993 H   0  0  0  0  0  0  0  0  0  0  0  0
   -2.4536   -3.4060   -2.6295 H   0  0  0  0  0  0  0  0  0  0  0  0
   -1.1040   -4.0132   -1.6124 H   0  0  0  0  0  0  0  0  0  0  0  0
  1  2  1  0
  2  3  1  0
  2  4  1  0
  2  5  1  0
  5  6  2  0
  5  7  1  0
  7  8  1  0
  8  9  1  0
  9 10  2  0
 10 11  1  0
 11 12  2  0
 12 13  1  0
 13 14  1  0
 14 15  2  0
 15 16  1  0
 16 17  2  0
 17 18  1  0
 13 19  2  0
 19 20  1  0
 20 21  3  0
 12 22  1  0
 22 23  1  0
 23 24  1  0
 19  9  1  0
 24 11  1  0
 18 14  1  0
  1 25  1  0
  1 26  1  0
  1 27  1  0
  3 28  1  0
  3 29  1  0
  3 30  1  0
  4 31  1  0
  4 32  1  0
  4 33  1  0
  7 34  1  0
  7 35  1  0
 15 36  1  0
 16 37  1  0
 17 38  1  0
 22 39  1  0
 22 40  1  0
 23 41  1  0
 23 42  1  0
 24 43  1  0
 24 44  1  0
M  END
$$$$
