
     RDKit          3D

 60 61  0  0  0  0  0  0  0  0999 V2000
   -0.4570   -4.0327   -0.8951 C   0  0  0  0  0  0  0  0  0  0  0  0
   -0.3328   -2.6816   -0.4680 O   0  0  0  0  0  0  0  0  0  0  0  0
    0.6956   -1.9449   -0.9983 C   0  0  0  0  0  0  0  0  0  0  0  0
    1.7993   -2.5112   -1.6457 C   0  0  0  0  0  0  0  0  0  0  0  0
    2.8202   -1.6998   -2.1393 C   0  0  0  0  0  0  0  0  0  0  0  0
    2.7515   -0.3141   -1.9805 C   0  0  0  0  0  0  0  0  0  0  0  0
    3.8609    0.4836   -2.5464 C   0  0  0  0  0  0  0  0  0  0  0  0
    4.2128    0.2902   -3.7083 O   0  0  0  0  0  0  0  0  0  0  0  0
    4.5990    1.4709   -1.7141 C   0  0  0  0  0  0  0  0  0  0  0  0
    4.6203    1.4813   -0.3726 C   0  0  0  0  0  0  0  0  0  0  0  0
    5.3781    2.4607    0.4181 C   0  0  0  0  0  0  0  0  0  0  0  0
    4.8184    2.9461    1.6078 C   0  0  0  0  0  0  0  0  0  0  0  0
    5.5184    3.8578    2.4016 C   0  0  0  0  0  0  0  0  0  0  0  0
    6.7839    4.2787    2.0137 C   0  0  0  0  0  0  0  0  0  0  0  0
    7.4313    5.1697    2.8166 O   0  0  0  0  0  0  0  0  0  0  0  0
    7.3657    3.7984    0.8458 C   0  0  0  0  0  0  0  0  0  0  0  0
    6.6636    2.8857    0.0522 C   0  0  0  0  0  0  0  0  0  0  0  0
    1.6356    0.2660   -1.3613 C   0  0  0  0  0  0  0  0  0  0  0  0
    1.5762    1.6337   -1.3008 O   0  0  0  0  0  0  0  0  0  0  0  0
    0.6049   -0.5418   -0.8366 C   0  0  0  0  0  0  0  0  0  0  0  0
   -0.6013    0.0558   -0.1354 C   0  0  0  0  0  0  0  0  0  0  0  0
   -1.7078    0.4105   -1.0967 C   0  0  0  0  0  0  0  0  0  0  0  0
   -2.9813   -0.0341   -1.0903 C   0  0  0  0  0  0  0  0  0  0  0  0
   -3.9616    0.4416   -2.1332 C   0  0  0  0  0  0  0  0  0  0  0  0
   -3.5414   -1.0378   -0.1033 C   0  0  0  0  0  0  0  0  0  0  0  0
   -4.2700   -0.3605    1.0615 C   0  0  0  0  0  0  0  0  0  0  0  0
   -4.8087   -1.3733    2.0360 C   0  0  0  0  0  0  0  0  0  0  0  0
   -6.0832   -1.7909    2.1647 C   0  0  0  0  0  0  0  0  0  0  0  0
   -7.2296   -1.3424    1.3006 C   0  0  0  0  0  0  0  0  0  0  0  0
   -6.4596   -2.7939    3.2237 C   0  0  0  0  0  0  0  0  0  0  0  0
    0.3445   -4.6501   -0.4764 H   0  0  0  0  0  0  0  0  0  0  0  0
   -0.4855   -4.1071   -1.9878 H   0  0  0  0  0  0  0  0  0  0  0  0
   -1.4067   -4.4163   -0.5109 H   0  0  0  0  0  0  0  0  0  0  0  0
    1.8993   -3.5840   -1.7754 H   0  0  0  0  0  0  0  0  0  0  0  0
    3.6703   -2.1489   -2.6493 H   0  0  0  0  0  0  0  0  0  0  0  0
    5.1721    2.1817   -2.3009 H   0  0  0  0  0  0  0  0  0  0  0  0
    4.0499    0.7608    0.2067 H   0  0  0  0  0  0  0  0  0  0  0  0
    3.8274    2.6269    1.9226 H   0  0  0  0  0  0  0  0  0  0  0  0
    5.0763    4.2373    3.3185 H   0  0  0  0  0  0  0  0  0  0  0  0
    8.2870    5.3863    2.4114 H   0  0  0  0  0  0  0  0  0  0  0  0
    8.3580    4.1131    0.5389 H   0  0  0  0  0  0  0  0  0  0  0  0
    7.1376    2.5034   -0.8491 H   0  0  0  0  0  0  0  0  0  0  0  0
    0.6631    1.9249   -1.1544 H   0  0  0  0  0  0  0  0  0  0  0  0
   -0.2994    0.9655    0.3991 H   0  0  0  0  0  0  0  0  0  0  0  0
   -0.9382   -0.6084    0.6667 H   0  0  0  0  0  0  0  0  0  0  0  0
   -1.4252    1.1184   -1.8752 H   0  0  0  0  0  0  0  0  0  0  0  0
   -4.8172    0.9330   -1.6596 H   0  0  0  0  0  0  0  0  0  0  0  0
   -3.5128    1.1592   -2.8281 H   0  0  0  0  0  0  0  0  0  0  0  0
   -4.3283   -0.4050   -2.7227 H   0  0  0  0  0  0  0  0  0  0  0  0
   -2.7517   -1.6902    0.2837 H   0  0  0  0  0  0  0  0  0  0  0  0
   -4.2278   -1.7121   -0.6330 H   0  0  0  0  0  0  0  0  0  0  0  0
   -3.5746    0.2926    1.6046 H   0  0  0  0  0  0  0  0  0  0  0  0
   -5.0624    0.2980    0.6924 H   0  0  0  0  0  0  0  0  0  0  0  0
   -4.0560   -1.7839    2.7092 H   0  0  0  0  0  0  0  0  0  0  0  0
   -7.9393   -0.7558    1.8923 H   0  0  0  0  0  0  0  0  0  0  0  0
   -6.9177   -0.7362    0.4466 H   0  0  0  0  0  0  0  0  0  0  0  0
   -7.7567   -2.2121    0.8939 H   0  0  0  0  0  0  0  0  0  0  0  0
   -7.2099   -2.3686    3.8977 H   0  0  0  0  0  0  0  0  0  0  0  0
   -5.6015   -3.0990    3.8315 H   0  0  0  0  0  0  0  0  0  0  0  0
   -6.8762   -3.6949    2.7621 H   0  0  0  0  0  0  0  0  0  0  0  0
  1  2  1  0
  2  3  1  0
  3  4  2  0
  4  5  1  0
  5  6  2  0
  6  7  1  0
  7  8  2  0
  7  9  1  0
  9 10  2  3
 10 11  1  0
 11 12  2  0
 12 13  1  0
 13 14  2  0
 14 15  1  0
 14 16  1  0
 16 17  2  0
  6 18  1  0
 18 19  1  0
 18 20  2  0
 20 21  1  0
 21 22  1  0
 22 23  2  3
 23 24  1  0
 23 25  1  0
 25 26  1  0
 26 27  1  0
 27 28  2  3
 28 29  1  0
 28 30  1  0
 20  3  1  0
 17 11  1  0
  1 31  1  0
  1 32  1  0
  1 33  1  0
  4 34  1  0
  5 35  1  0
  9 36  1  0
 10 37  1  0
 12 38  1  0
 13 39  1  0
 15 40  1  0
 16 41  1  0
 17 42  1  0
 19 43  1  0
 21 44  1  0
 21 45  1  0
 22 46  1  0
 24 47  1  0
 24 48  1  0
 24 49  1  0
 25 50  1  0
 25 51  1  0
 26 52  1  0
 26 53  1  0
 27 54  1  0
 29 55  1  0
 29 56  1  0
 29 57  1  0
 30 58  1  0
 30 59  1  0
 30 60  1  0
M  END
$$$$
