
     RDKit          3D

 45 47  0  0  0  0  0  0  0  0999 V2000
   -2.7890   -1.5285    1.0505 O   0  0  0  0  0  0  0  0  0  0  0  0
   -2.3568   -0.9477    0.0597 C   0  0  0  0  0  0  0  0  0  0  0  0
   -0.9717   -1.2508   -0.5179 C   0  0  0  0  0  0  0  0  0  0  0  0
   -0.4353   -0.2083   -1.3392 O   0  0  0  0  0  0  0  0  0  0  0  0
    0.1443    0.8188   -0.6439 C   0  0  0  0  0  0  0  0  0  0  0  0
    0.1464    0.9090    0.5749 O   0  0  0  0  0  0  0  0  0  0  0  0
    0.7077    1.8252   -1.6266 C   0  0  0  0  0  0  0  0  0  0  0  0
    1.9993    2.8793   -0.8950 S   0  0  0  0  0  0  0  0  0  0  0  0
    3.3022    1.6708   -0.7503 C   0  0  0  0  0  0  0  0  0  0  0  0
    4.1621    1.4356   -1.8235 C   0  0  0  0  0  0  0  0  0  0  0  0
    5.1774    0.4822   -1.7138 C   0  0  0  0  0  0  0  0  0  0  0  0
    5.3500   -0.2479   -0.5276 C   0  0  0  0  0  0  0  0  0  0  0  0
    6.3630   -1.2120   -0.4011 C   0  0  0  0  0  0  0  0  0  0  0  0
    6.5211   -1.9280    0.7866 C   0  0  0  0  0  0  0  0  0  0  0  0
    5.6700   -1.6893    1.8617 C   0  0  0  0  0  0  0  0  0  0  0  0
    4.6590   -0.7335    1.7525 C   0  0  0  0  0  0  0  0  0  0  0  0
    4.4863   -0.0048    0.5649 C   0  0  0  0  0  0  0  0  0  0  0  0
    3.4731    0.9599    0.4410 C   0  0  0  0  0  0  0  0  0  0  0  0
   -3.0797   -0.0255   -0.6714 N   0  0  0  0  0  0  0  0  0  0  0  0
   -4.4227    0.4132   -0.3402 C   0  0  0  0  0  0  0  0  0  0  0  0
   -4.5651    1.0179    1.0660 C   0  0  0  0  0  0  0  0  0  0  0  0
   -5.6211    0.1732    1.7710 C   0  0  0  0  0  0  0  0  0  0  0  0
   -6.4897   -0.3505    0.6397 C   0  0  0  0  0  0  0  0  0  0  0  0
   -5.4778   -0.6943   -0.4425 C   0  0  0  0  0  0  0  0  0  0  0  0
   -1.0695   -2.1408   -1.1484 H   0  0  0  0  0  0  0  0  0  0  0  0
   -0.2811   -1.4984    0.2967 H   0  0  0  0  0  0  0  0  0  0  0  0
   -0.1144    2.4644   -1.9619 H   0  0  0  0  0  0  0  0  0  0  0  0
    1.1233    1.3046   -2.4951 H   0  0  0  0  0  0  0  0  0  0  0  0
    4.0563    1.9934   -2.7508 H   0  0  0  0  0  0  0  0  0  0  0  0
    5.8374    0.3159   -2.5623 H   0  0  0  0  0  0  0  0  0  0  0  0
    7.0397   -1.4120   -1.2289 H   0  0  0  0  0  0  0  0  0  0  0  0
    7.3097   -2.6710    0.8722 H   0  0  0  0  0  0  0  0  0  0  0  0
    5.7923   -2.2452    2.7877 H   0  0  0  0  0  0  0  0  0  0  0  0
    4.0037   -0.5605    2.6039 H   0  0  0  0  0  0  0  0  0  0  0  0
    2.8082    1.1542    1.2817 H   0  0  0  0  0  0  0  0  0  0  0  0
   -2.6537    0.3370   -1.5148 H   0  0  0  0  0  0  0  0  0  0  0  0
   -4.6595    1.1953   -1.0727 H   0  0  0  0  0  0  0  0  0  0  0  0
   -4.9278    2.0498    0.9783 H   0  0  0  0  0  0  0  0  0  0  0  0
   -3.6302    1.0539    1.6341 H   0  0  0  0  0  0  0  0  0  0  0  0
   -6.1936    0.7520    2.5015 H   0  0  0  0  0  0  0  0  0  0  0  0
   -5.1452   -0.6618    2.2981 H   0  0  0  0  0  0  0  0  0  0  0  0
   -7.0878   -1.2157    0.9392 H   0  0  0  0  0  0  0  0  0  0  0  0
   -7.1705    0.4338    0.2888 H   0  0  0  0  0  0  0  0  0  0  0  0
   -5.0521   -1.6855   -0.2500 H   0  0  0  0  0  0  0  0  0  0  0  0
   -5.9380   -0.7275   -1.4353 H   0  0  0  0  0  0  0  0  0  0  0  0
  1  2  2  0
  2  3  1  0
  3  4  1  0
  4  5  1  0
  5  6  2  0
  5  7  1  0
  7  8  1  0
  8  9  1  0
  9 10  2  0
 10 11  1  0
 11 12  2  0
 12 13  1  0
 13 14  2  0
 14 15  1  0
 15 16  2  0
 16 17  1  0
 17 18  2  0
  2 19  1  0
 19 20  1  0
 20 21  1  0
 21 22  1  0
 22 23  1  0
 23 24  1  0
 18  9  1  0
 24 20  1  0
 17 12  1  0
  3 25  1  0
  3 26  1  0
  7 27  1  0
  7 28  1  0
 10 29  1  0
 11 30  1  0
 13 31  1  0
 14 32  1  0
 15 33  1  0
 16 34  1  0
 18 35  1  0
 19 36  1  0
 20 37  1  0
 21 38  1  0
 21 39  1  0
 22 40  1  0
 22 41  1  0
 23 42  1  0
 23 43  1  0
 24 44  1  0
 24 45  1  0
M  END
$$$$
