
     RDKit          3D

 58 61  0  0  0  0  0  0  0  0999 V2000
    7.7120   -2.7284   -0.1363 C   0  0  0  0  0  0  0  0  0  0  0  0
    6.8493   -1.5747   -0.5544 C   0  0  0  0  0  0  0  0  0  0  0  0
    6.5131   -1.3850   -1.8995 C   0  0  0  0  0  0  0  0  0  0  0  0
    5.7351   -0.2914   -2.2891 C   0  0  0  0  0  0  0  0  0  0  0  0
    5.2940    0.6407   -1.3408 C   0  0  0  0  0  0  0  0  0  0  0  0
    4.4369    1.8114   -1.7468 C   0  0  0  0  0  0  0  0  0  0  0  0
    3.0476    1.5472   -1.4469 N   0  0  0  0  0  0  0  0  0  0  0  0
    2.4200    2.1071   -0.3563 C   0  0  0  0  0  0  0  0  0  0  0  0
    2.9473    2.9484    0.3639 O   0  0  0  0  0  0  0  0  0  0  0  0
    1.0069    1.5749   -0.1243 C   0  0  0  0  0  0  0  0  0  0  0  0
    1.0588    0.1176    0.3572 C   0  0  0  0  0  0  0  0  0  0  0  0
   -0.3348   -0.4313    0.6640 C   0  0  0  0  0  0  0  0  0  0  0  0
   -1.0809    0.4533    1.6742 C   0  0  0  0  0  0  0  0  0  0  0  0
   -2.4735   -0.0921    2.0388 C   0  0  0  0  0  0  0  0  0  0  0  0
   -3.3579   -0.1354    0.8783 N   0  0  0  0  0  0  0  0  0  0  0  0
   -4.7478   -0.0994    0.9222 C   0  0  0  0  0  0  0  0  0  0  0  0
   -5.3540    0.6612    1.8871 N   0  0  0  0  0  0  0  0  0  0  0  0
   -6.7030    0.8221    2.0575 C   0  0  0  0  0  0  0  0  0  0  0  0
   -7.2199    1.8353    3.2907 S   0  0  0  0  0  0  0  0  0  0  0  0
   -7.5508    0.1558    1.2202 N   0  0  0  0  0  0  0  0  0  0  0  0
   -7.0212   -0.5650    0.2847 C   0  0  0  0  0  0  0  0  0  0  0  0
   -7.9303   -1.2908   -0.6466 C   0  0  0  0  0  0  0  0  0  0  0  0
   -7.4395   -2.0427   -1.6403 C   0  0  0  0  0  0  0  0  0  0  0  0
   -6.0225   -2.1870   -1.8624 C   0  0  0  0  0  0  0  0  0  0  0  0
   -5.1262   -1.5793   -1.0720 C   0  0  0  0  0  0  0  0  0  0  0  0
   -5.5488   -0.7459    0.0433 C   0  0  0  0  0  0  0  0  0  0  0  0
   -1.1462    1.9049    1.1755 C   0  0  0  0  0  0  0  0  0  0  0  0
    0.2485    2.4527    0.8801 C   0  0  0  0  0  0  0  0  0  0  0  0
    5.6378    0.4523    0.0047 C   0  0  0  0  0  0  0  0  0  0  0  0
    6.4138   -0.6417    0.3933 C   0  0  0  0  0  0  0  0  0  0  0  0
    7.3821   -3.1277    0.8285 H   0  0  0  0  0  0  0  0  0  0  0  0
    7.6574   -3.5458   -0.8625 H   0  0  0  0  0  0  0  0  0  0  0  0
    8.7538   -2.4050   -0.0510 H   0  0  0  0  0  0  0  0  0  0  0  0
    6.8560   -2.0889   -2.6548 H   0  0  0  0  0  0  0  0  0  0  0  0
    5.4825   -0.1706   -3.3401 H   0  0  0  0  0  0  0  0  0  0  0  0
    4.5070    1.9819   -2.8268 H   0  0  0  0  0  0  0  0  0  0  0  0
    4.7831    2.7247   -1.2503 H   0  0  0  0  0  0  0  0  0  0  0  0
    2.6146    0.7671   -1.9197 H   0  0  0  0  0  0  0  0  0  0  0  0
    0.4770    1.6175   -1.0858 H   0  0  0  0  0  0  0  0  0  0  0  0
    1.6863    0.0460    1.2555 H   0  0  0  0  0  0  0  0  0  0  0  0
    1.5328   -0.5208   -0.3979 H   0  0  0  0  0  0  0  0  0  0  0  0
   -0.2436   -1.4510    1.0566 H   0  0  0  0  0  0  0  0  0  0  0  0
   -0.8951   -0.4993   -0.2762 H   0  0  0  0  0  0  0  0  0  0  0  0
   -0.4947    0.4505    2.6044 H   0  0  0  0  0  0  0  0  0  0  0  0
   -2.3791   -1.1054    2.4469 H   0  0  0  0  0  0  0  0  0  0  0  0
   -2.8869    0.5334    2.8366 H   0  0  0  0  0  0  0  0  0  0  0  0
   -3.0095   -0.7691    0.1675 H   0  0  0  0  0  0  0  0  0  0  0  0
   -4.7746    1.2125    2.5012 H   0  0  0  0  0  0  0  0  0  0  0  0
   -8.9948   -1.1763   -0.4792 H   0  0  0  0  0  0  0  0  0  0  0  0
   -8.1125   -2.5648   -2.3140 H   0  0  0  0  0  0  0  0  0  0  0  0
   -5.7011   -2.8045   -2.6964 H   0  0  0  0  0  0  0  0  0  0  0  0
   -4.0719   -1.7112   -1.2802 H   0  0  0  0  0  0  0  0  0  0  0  0
   -1.6294    2.5378    1.9293 H   0  0  0  0  0  0  0  0  0  0  0  0
   -1.7553    1.9701    0.2656 H   0  0  0  0  0  0  0  0  0  0  0  0
    0.8112    2.5255    1.8200 H   0  0  0  0  0  0  0  0  0  0  0  0
    0.1634    3.4747    0.4907 H   0  0  0  0  0  0  0  0  0  0  0  0
    5.3007    1.1640    0.7575 H   0  0  0  0  0  0  0  0  0  0  0  0
    6.6763   -0.7599    1.4423 H   0  0  0  0  0  0  0  0  0  0  0  0
  1  2  1  0
  2  3  2  0
  3  4  1  0
  4  5  2  0
  5  6  1  0
  6  7  1  0
  7  8  1  0
  8  9  2  0
  8 10  1  0
 10 11  1  0
 11 12  1  0
 12 13  1  0
 13 14  1  0
 14 15  1  0
 15 16  1  0
 16 17  1  0
 17 18  1  0
 18 19  2  0
 18 20  1  0
 20 21  2  0
 21 22  1  0
 22 23  2  0
 23 24  1  0
 24 25  2  0
 25 26  1  0
 13 27  1  0
 27 28  1  0
  5 29  1  0
 29 30  2  0
 30  2  1  0
 28 10  1  0
 26 16  2  0
 26 21  1  0
  1 31  1  0
  1 32  1  0
  1 33  1  0
  3 34  1  0
  4 35  1  0
  6 36  1  0
  6 37  1  0
  7 38  1  0
 10 39  1  0
 11 40  1  0
 11 41  1  0
 12 42  1  0
 12 43  1  0
 13 44  1  0
 14 45  1  0
 14 46  1  0
 15 47  1  0
 17 48  1  0
 22 49  1  0
 23 50  1  0
 24 51  1  0
 25 52  1  0
 27 53  1  0
 27 54  1  0
 28 55  1  0
 28 56  1  0
 29 57  1  0
 30 58  1  0
M  END
$$$$
