
     RDKit          3D

 54 54  0  0  0  0  0  0  0  0999 V2000
    8.8634    0.3590   -0.7454 C   0  0  0  0  0  0  0  0  0  0  0  0
    8.6591    0.1538    0.5640 C   0  0  0  0  0  0  0  0  0  0  0  0
    7.6961   -0.8334    1.1513 C   0  0  0  0  0  0  0  0  0  0  0  0
    6.3795   -0.6143    0.5990 N   0  0  0  0  0  0  0  0  0  0  0  0
    5.8550   -1.4507   -0.3574 C   0  0  0  0  0  0  0  0  0  0  0  0
    6.3937   -2.4812   -0.7378 O   0  0  0  0  0  0  0  0  0  0  0  0
    4.6376   -1.0001   -0.7953 N   0  0  0  0  0  0  0  0  0  0  0  0
    3.9594   -1.8275   -1.6575 C   0  0  0  0  0  0  0  0  0  0  0  0
    4.0207   -1.7139   -2.8797 O   0  0  0  0  0  0  0  0  0  0  0  0
    3.0497   -2.8529   -0.9744 C   0  0  0  0  0  0  0  0  0  0  0  0
    1.6905   -2.4254   -0.8524 O   0  0  0  0  0  0  0  0  0  0  0  0
    1.4763   -1.4073    0.0170 C   0  0  0  0  0  0  0  0  0  0  0  0
    2.3648   -0.8520    0.6534 O   0  0  0  0  0  0  0  0  0  0  0  0
    0.0398   -1.0444    0.0763 C   0  0  0  0  0  0  0  0  0  0  0  0
   -0.9230   -1.8726   -0.5633 C   0  0  0  0  0  0  0  0  0  0  0  0
   -1.7009   -2.5569   -1.0876 N   0  0  0  0  0  0  0  0  0  0  0  0
   -0.2822    0.0642    0.7712 C   0  0  0  0  0  0  0  0  0  0  0  0
   -1.5913    0.5950    0.9697 C   0  0  0  0  0  0  0  0  0  0  0  0
   -2.1830    0.8378    2.2273 C   0  0  0  0  0  0  0  0  0  0  0  0
   -3.4425    1.3576    2.0082 C   0  0  0  0  0  0  0  0  0  0  0  0
   -4.4533    1.7869    3.0133 C   0  0  0  0  0  0  0  0  0  0  0  0
   -3.6348    1.4170    0.6403 N   0  0  0  0  0  0  0  0  0  0  0  0
   -4.8541    1.8735   -0.0211 C   0  0  0  0  0  0  0  0  0  0  0  0
   -5.6986    0.7423   -0.6358 C   0  0  0  0  0  0  0  0  0  0  0  0
   -6.8132    1.3401   -1.4963 C   0  0  0  0  0  0  0  0  0  0  0  0
   -6.3033   -0.1747    0.4288 C   0  0  0  0  0  0  0  0  0  0  0  0
   -2.4729    1.0220   -0.0082 C   0  0  0  0  0  0  0  0  0  0  0  0
   -2.3118    1.0903   -1.4919 C   0  0  0  0  0  0  0  0  0  0  0  0
    8.3238   -0.2047   -1.5027 H   0  0  0  0  0  0  0  0  0  0  0  0
    9.5953    1.0827   -1.0898 H   0  0  0  0  0  0  0  0  0  0  0  0
    9.2525    0.7235    1.2760 H   0  0  0  0  0  0  0  0  0  0  0  0
    7.6139   -0.6566    2.2294 H   0  0  0  0  0  0  0  0  0  0  0  0
    8.0413   -1.8608    0.9974 H   0  0  0  0  0  0  0  0  0  0  0  0
    6.0647    0.3457    0.5667 H   0  0  0  0  0  0  0  0  0  0  0  0
    4.0854   -0.7541    0.0231 H   0  0  0  0  0  0  0  0  0  0  0  0
    3.4450   -3.1332    0.0097 H   0  0  0  0  0  0  0  0  0  0  0  0
    3.0599   -3.7639   -1.5833 H   0  0  0  0  0  0  0  0  0  0  0  0
    0.5082    0.6163    1.2790 H   0  0  0  0  0  0  0  0  0  0  0  0
   -1.7470    0.6524    3.2011 H   0  0  0  0  0  0  0  0  0  0  0  0
   -4.0800    1.6299    4.0312 H   0  0  0  0  0  0  0  0  0  0  0  0
   -5.3798    1.2155    2.9087 H   0  0  0  0  0  0  0  0  0  0  0  0
   -4.6790    2.8526    2.9037 H   0  0  0  0  0  0  0  0  0  0  0  0
   -5.4476    2.4476    0.6985 H   0  0  0  0  0  0  0  0  0  0  0  0
   -4.5438    2.5888   -0.7916 H   0  0  0  0  0  0  0  0  0  0  0  0
   -5.0698    0.1254   -1.2875 H   0  0  0  0  0  0  0  0  0  0  0  0
   -7.4916    1.9557   -0.8964 H   0  0  0  0  0  0  0  0  0  0  0  0
   -6.3968    1.9692   -2.2901 H   0  0  0  0  0  0  0  0  0  0  0  0
   -7.4042    0.5507   -1.9722 H   0  0  0  0  0  0  0  0  0  0  0  0
   -6.9457    0.3850    1.1171 H   0  0  0  0  0  0  0  0  0  0  0  0
   -6.9125   -0.9574   -0.0367 H   0  0  0  0  0  0  0  0  0  0  0  0
   -5.5237   -0.6731    1.0140 H   0  0  0  0  0  0  0  0  0  0  0  0
   -2.8580    0.2776   -1.9791 H   0  0  0  0  0  0  0  0  0  0  0  0
   -1.2595    1.0092   -1.7813 H   0  0  0  0  0  0  0  0  0  0  0  0
   -2.6719    2.0439   -1.8886 H   0  0  0  0  0  0  0  0  0  0  0  0
  1  2  2  0
  2  3  1  0
  3  4  1  0
  4  5  1  0
  5  6  2  0
  5  7  1  0
  7  8  1  0
  8  9  2  0
  8 10  1  0
 10 11  1  0
 11 12  1  0
 12 13  2  0
 12 14  1  0
 14 15  1  0
 15 16  3  0
 14 17  2  3
 17 18  1  0
 18 19  1  0
 19 20  2  0
 20 21  1  0
 20 22  1  0
 22 23  1  0
 23 24  1  0
 24 25  1  0
 24 26  1  0
 22 27  1  0
 27 28  1  0
 27 18  2  0
  1 29  1  0
  1 30  1  0
  2 31  1  0
  3 32  1  0
  3 33  1  0
  4 34  1  0
  7 35  1  0
 10 36  1  0
 10 37  1  0
 17 38  1  0
 19 39  1  0
 21 40  1  0
 21 41  1  0
 21 42  1  0
 23 43  1  0
 23 44  1  0
 24 45  1  0
 25 46  1  0
 25 47  1  0
 25 48  1  0
 26 49  1  0
 26 50  1  0
 26 51  1  0
 28 52  1  0
 28 53  1  0
 28 54  1  0
M  END
$$$$
