
     RDKit          3D

 36 38  0  0  0  0  0  0  0  0999 V2000
   -6.7730    0.9433    1.2833 C   0  0  0  0  0  0  0  0  0  0  0  0
   -5.6147    0.4628    1.9542 O   0  0  0  0  0  0  0  0  0  0  0  0
   -4.4867    0.2973    1.2004 C   0  0  0  0  0  0  0  0  0  0  0  0
   -4.3570    0.5781   -0.1583 C   0  0  0  0  0  0  0  0  0  0  0  0
   -3.1352    0.3612   -0.8108 C   0  0  0  0  0  0  0  0  0  0  0  0
   -2.0246   -0.1411   -0.1178 C   0  0  0  0  0  0  0  0  0  0  0  0
   -0.7346   -0.3536   -0.7867 C   0  0  0  0  0  0  0  0  0  0  0  0
   -0.5513   -0.7022   -2.0675 C   0  0  0  0  0  0  0  0  0  0  0  0
    0.9157   -0.7036   -2.2717 C   0  0  0  0  0  0  0  0  0  0  0  0
    1.4284   -0.9648   -3.3465 O   0  0  0  0  0  0  0  0  0  0  0  0
    1.4844   -0.3558   -1.0457 N   0  0  0  0  0  0  0  0  0  0  0  0
    2.8413   -0.2778   -0.6695 C   0  0  0  0  0  0  0  0  0  0  0  0
    3.2019   -0.0538    0.6708 C   0  0  0  0  0  0  0  0  0  0  0  0
    4.5458    0.0294    1.0563 C   0  0  0  0  0  0  0  0  0  0  0  0
    5.5496   -0.1133    0.0934 C   0  0  0  0  0  0  0  0  0  0  0  0
    6.9604   -0.0264    0.4903 N   0  0  0  0  0  4  0  0  0  0  0  0
    7.2098    0.1834    1.6861 O   0  0  0  0  0  0  0  0  0  0  0  0
    7.8182   -0.1649   -0.3931 O   0  0  0  0  0  1  0  0  0  0  0  0
    5.2146   -0.3398   -1.2445 C   0  0  0  0  0  0  0  0  0  0  0  0
    3.8662   -0.4217   -1.6165 C   0  0  0  0  0  0  0  0  0  0  0  0
    0.4604   -0.1755   -0.1004 N   0  0  0  0  0  0  0  0  0  0  0  0
   -2.1660   -0.4156    1.2487 C   0  0  0  0  0  0  0  0  0  0  0  0
   -3.3854   -0.1995    1.8982 C   0  0  0  0  0  0  0  0  0  0  0  0
   -7.5821    1.0069    2.0172 H   0  0  0  0  0  0  0  0  0  0  0  0
   -7.0901    0.2504    0.4970 H   0  0  0  0  0  0  0  0  0  0  0  0
   -6.6075    1.9486    0.8821 H   0  0  0  0  0  0  0  0  0  0  0  0
   -5.1834    0.9698   -0.7423 H   0  0  0  0  0  0  0  0  0  0  0  0
   -3.0667    0.6035   -1.8691 H   0  0  0  0  0  0  0  0  0  0  0  0
   -1.2615   -0.9139   -2.8438 H   0  0  0  0  0  0  0  0  0  0  0  0
    2.4435    0.0401    1.4443 H   0  0  0  0  0  0  0  0  0  0  0  0
    4.7863    0.1981    2.1042 H   0  0  0  0  0  0  0  0  0  0  0  0
    5.9798   -0.4561   -2.0098 H   0  0  0  0  0  0  0  0  0  0  0  0
    3.6418   -0.5967   -2.6665 H   0  0  0  0  0  0  0  0  0  0  0  0
    0.4820    0.7463    0.3397 H   0  0  0  0  0  0  0  0  0  0  0  0
   -1.3332   -0.8175    1.8223 H   0  0  0  0  0  0  0  0  0  0  0  0
   -3.4775   -0.4256    2.9581 H   0  0  0  0  0  0  0  0  0  0  0  0
  1  2  1  0
  2  3  1  0
  3  4  2  0
  4  5  1  0
  5  6  2  0
  6  7  1  0
  7  8  2  0
  8  9  1  0
  9 10  2  0
  9 11  1  0
 11 12  1  0
 12 13  2  0
 13 14  1  0
 14 15  2  0
 15 16  1  0
 16 17  2  0
 16 18  1  0
 15 19  1  0
 19 20  2  0
 11 21  1  0
  6 22  1  0
 22 23  2  0
 23  3  1  0
 21  7  1  0
 20 12  1  0
  1 24  1  0
  1 25  1  0
  1 26  1  0
  4 27  1  0
  5 28  1  0
  8 29  1  0
 13 30  1  0
 14 31  1  0
 19 32  1  0
 20 33  1  0
 21 34  1  0
 22 35  1  0
 23 36  1  0
M  CHG  2  16   1  18  -1
M  END
$$$$
