
     RDKit          3D

 45 47  0  0  0  0  0  0  0  0999 V2000
    6.9724   -0.8971    1.6761 C   0  0  0  0  0  0  0  0  0  0  0  0
    6.3373   -0.1329    0.6612 O   0  0  0  0  0  0  0  0  0  0  0  0
    4.9694   -0.2058    0.5743 C   0  0  0  0  0  0  0  0  0  0  0  0
    4.1605   -0.9500    1.4361 C   0  0  0  0  0  0  0  0  0  0  0  0
    2.7708   -0.9649    1.2723 C   0  0  0  0  0  0  0  0  0  0  0  0
    2.1701   -0.2422    0.2439 C   0  0  0  0  0  0  0  0  0  0  0  0
    0.7760   -0.1983    0.0295 N   0  0  0  0  0  0  0  0  0  0  0  0
   -0.1883   -0.9956    0.6073 C   0  0  0  0  0  0  0  0  0  0  0  0
    0.0410   -1.9784    1.3068 O   0  0  0  0  0  0  0  0  0  0  0  0
   -1.4963   -0.6065    0.3115 N   0  0  0  0  0  0  0  0  0  0  0  0
   -2.5841   -1.4893    0.7356 C   0  0  0  0  0  0  0  0  0  0  0  0
   -3.7975   -1.3382   -0.1693 C   0  0  0  0  0  0  0  0  0  0  0  0
   -4.3192    0.1025   -0.1559 C   0  0  0  0  0  0  0  0  0  0  0  0
   -3.2606    1.1292    0.2518 C   0  0  0  0  0  0  0  0  0  0  0  0
   -1.8790    0.7043   -0.2225 C   0  0  0  0  0  0  0  0  0  0  0  0
   -5.4206    0.1904    0.7692 O   0  0  0  0  0  0  0  0  0  0  0  0
   -6.4728    0.8174    0.0371 C   0  0  0  0  0  0  0  0  0  0  0  0
   -6.2155    0.3834   -1.3784 C   0  0  0  0  0  0  0  0  0  0  0  0
   -4.7925    0.4330   -1.4776 O   0  0  0  0  0  0  0  0  0  0  0  0
    2.9786    0.5141   -0.6164 C   0  0  0  0  0  0  0  0  0  0  0  0
    4.3720    0.5354   -0.4629 C   0  0  0  0  0  0  0  0  0  0  0  0
    5.2309    1.2472   -1.2648 O   0  0  0  0  0  0  0  0  0  0  0  0
    4.6784    1.9625   -2.3594 C   0  0  0  0  0  0  0  0  0  0  0  0
    8.0515   -0.7368    1.5893 H   0  0  0  0  0  0  0  0  0  0  0  0
    6.7842   -1.9675    1.5422 H   0  0  0  0  0  0  0  0  0  0  0  0
    6.6665   -0.5618    2.6725 H   0  0  0  0  0  0  0  0  0  0  0  0
    4.5744   -1.5318    2.2528 H   0  0  0  0  0  0  0  0  0  0  0  0
    2.1833   -1.5480    1.9756 H   0  0  0  0  0  0  0  0  0  0  0  0
    0.4677    0.3378   -0.7650 H   0  0  0  0  0  0  0  0  0  0  0  0
   -2.2433   -2.5306    0.7214 H   0  0  0  0  0  0  0  0  0  0  0  0
   -2.8319   -1.2400    1.7744 H   0  0  0  0  0  0  0  0  0  0  0  0
   -3.5146   -1.6259   -1.1904 H   0  0  0  0  0  0  0  0  0  0  0  0
   -4.5807   -2.0359    0.1503 H   0  0  0  0  0  0  0  0  0  0  0  0
   -3.2484    1.2429    1.3438 H   0  0  0  0  0  0  0  0  0  0  0  0
   -3.5029    2.1154   -0.1622 H   0  0  0  0  0  0  0  0  0  0  0  0
   -1.1462    1.4572    0.0863 H   0  0  0  0  0  0  0  0  0  0  0  0
   -1.8483    0.6323   -1.3159 H   0  0  0  0  0  0  0  0  0  0  0  0
   -6.3673    1.9015    0.1522 H   0  0  0  0  0  0  0  0  0  0  0  0
   -7.4485    0.5055    0.4172 H   0  0  0  0  0  0  0  0  0  0  0  0
   -6.6786    1.0342   -2.1238 H   0  0  0  0  0  0  0  0  0  0  0  0
   -6.5341   -0.6506   -1.5494 H   0  0  0  0  0  0  0  0  0  0  0  0
    2.5059    1.0844   -1.4075 H   0  0  0  0  0  0  0  0  0  0  0  0
    5.5029    2.4390   -2.8984 H   0  0  0  0  0  0  0  0  0  0  0  0
    4.0064    2.7547   -2.0135 H   0  0  0  0  0  0  0  0  0  0  0  0
    4.1709    1.2887   -3.0575 H   0  0  0  0  0  0  0  0  0  0  0  0
  1  2  1  0
  2  3  1  0
  3  4  2  0
  4  5  1  0
  5  6  2  0
  6  7  1  0
  7  8  1  0
  8  9  2  0
  8 10  1  0
 10 11  1  0
 11 12  1  0
 12 13  1  0
 13 14  1  0
 14 15  1  0
 13 16  1  0
 16 17  1  0
 17 18  1  0
 18 19  1  0
  6 20  1  0
 20 21  2  0
 21 22  1  0
 22 23  1  0
 21  3  1  0
 15 10  1  0
 19 13  1  0
  1 24  1  0
  1 25  1  0
  1 26  1  0
  4 27  1  0
  5 28  1  0
  7 29  1  0
 11 30  1  0
 11 31  1  0
 12 32  1  0
 12 33  1  0
 14 34  1  0
 14 35  1  0
 15 36  1  0
 15 37  1  0
 17 38  1  0
 17 39  1  0
 18 40  1  0
 18 41  1  0
 20 42  1  0
 23 43  1  0
 23 44  1  0
 23 45  1  0
M  END
$$$$
