
     RDKit          3D

 67 71  0  0  0  0  0  0  0  0999 V2000
   -4.2263   -1.6629    6.1214 C   0  0  0  0  0  0  0  0  0  0  0  0
   -4.4852   -0.5353    5.2958 O   0  0  0  0  0  0  0  0  0  0  0  0
   -4.6936   -0.9177    3.9396 C   0  0  0  0  0  0  0  0  0  0  0  0
   -5.0099    0.3261    3.1717 C   0  0  0  0  0  0  0  0  0  0  0  0
   -4.2832    0.8882    2.1912 C   0  0  0  0  0  0  0  0  0  0  0  0
   -2.9965    0.4251    1.7014 C   0  0  0  0  0  0  0  0  0  0  0  0
   -1.9314    0.5046    2.5353 C   0  0  0  0  0  0  0  0  0  0  0  0
   -0.6169    0.0539    2.0788 C   0  0  0  0  0  0  0  0  0  0  0  0
    0.4567    0.1979    2.8682 C   0  0  0  0  0  0  0  0  0  0  0  0
    1.8000   -0.2262    2.4045 C   0  0  0  0  0  0  0  0  0  0  0  0
    2.7773    0.2765    2.9579 O   0  0  0  0  0  0  0  0  0  0  0  0
    1.8913   -1.2775    1.2881 C   0  0  0  0  0  0  0  0  0  0  0  0
    1.6840   -2.6898    1.8611 C   0  0  0  0  0  0  0  0  0  0  0  0
    3.1315   -1.1479    0.5638 O   0  0  0  0  0  0  0  0  0  0  0  0
    4.3004   -1.5054    1.1445 C   0  0  0  0  0  0  0  0  0  0  0  0
    4.4365   -2.0718    2.2174 O   0  0  0  0  0  0  0  0  0  0  0  0
    5.4436   -1.1211    0.2793 C   0  0  0  0  0  0  0  0  0  0  0  0
    6.7304   -1.3460    0.7330 C   0  0  0  0  0  0  0  0  0  0  0  0
    7.8254   -1.0309   -0.0029 N   0  0  0  0  0  0  0  0  0  0  0  0
    7.5954   -0.4784   -1.2113 C   0  0  0  0  0  0  0  0  0  0  0  0
    8.6677   -0.1273   -2.0219 C   0  0  0  0  0  0  0  0  0  0  0  0
    8.4711    0.4455   -3.2795 C   0  0  0  0  0  0  0  0  0  0  0  0
    7.1789    0.6714   -3.7360 C   0  0  0  0  0  0  0  0  0  0  0  0
    6.0930    0.3237   -2.9311 C   0  0  0  0  0  0  0  0  0  0  0  0
    6.2751   -0.2462   -1.6776 C   0  0  0  0  0  0  0  0  0  0  0  0
    5.1982   -0.5658   -0.9361 N   0  0  0  0  0  0  0  0  0  0  0  0
    0.7866   -1.0795    0.2453 C   0  0  0  0  0  0  0  0  0  0  0  0
    0.8980   -1.4360   -0.9294 O   0  0  0  0  0  0  0  0  0  0  0  0
   -0.5003   -0.5148    0.7421 C   0  0  0  0  0  0  0  0  0  0  0  0
   -1.6034   -0.5503   -0.0257 C   0  0  0  0  0  0  0  0  0  0  0  0
   -2.8651   -0.0781    0.3824 N   0  0  0  0  0  0  0  0  0  0  0  0
   -4.0025   -0.1781   -0.5586 C   0  0  0  0  0  0  0  0  0  0  0  0
   -3.8585    0.7848   -1.7202 C   0  0  0  0  0  0  0  0  0  0  0  0
   -3.5439    0.3141   -3.0039 C   0  0  0  0  0  0  0  0  0  0  0  0
   -3.4063    1.1988   -4.0802 C   0  0  0  0  0  0  0  0  0  0  0  0
   -3.5853    2.5685   -3.8893 C   0  0  0  0  0  0  0  0  0  0  0  0
   -3.4852    3.5356   -4.8513 O   0  0  0  0  0  0  0  0  0  0  0  0
   -3.0815    3.1111   -6.1469 C   0  0  0  0  0  0  0  0  0  0  0  0
   -3.8991    3.0427   -2.6142 C   0  0  0  0  0  0  0  0  0  0  0  0
   -4.0311    2.1624   -1.5371 C   0  0  0  0  0  0  0  0  0  0  0  0
   -5.0906   -2.3344    6.1316 H   0  0  0  0  0  0  0  0  0  0  0  0
   -4.0456   -1.3122    7.1411 H   0  0  0  0  0  0  0  0  0  0  0  0
   -3.3379   -2.1979    5.7733 H   0  0  0  0  0  0  0  0  0  0  0  0
   -5.5468   -1.6023    3.8740 H   0  0  0  0  0  0  0  0  0  0  0  0
   -3.8073   -1.4359    3.5595 H   0  0  0  0  0  0  0  0  0  0  0  0
   -5.9466    0.8055    3.4487 H   0  0  0  0  0  0  0  0  0  0  0  0
   -4.6683    1.7828    1.7062 H   0  0  0  0  0  0  0  0  0  0  0  0
   -2.0344    0.9040    3.5410 H   0  0  0  0  0  0  0  0  0  0  0  0
    0.4198    0.6675    3.8451 H   0  0  0  0  0  0  0  0  0  0  0  0
    0.6290   -2.8956    2.0777 H   0  0  0  0  0  0  0  0  0  0  0  0
    2.0391   -3.4540    1.1605 H   0  0  0  0  0  0  0  0  0  0  0  0
    2.2210   -2.8299    2.8050 H   0  0  0  0  0  0  0  0  0  0  0  0
    6.9285   -1.7872    1.7044 H   0  0  0  0  0  0  0  0  0  0  0  0
    9.6789   -0.3042   -1.6633 H   0  0  0  0  0  0  0  0  0  0  0  0
    9.3256    0.7127   -3.8962 H   0  0  0  0  0  0  0  0  0  0  0  0
    7.0111    1.1162   -4.7138 H   0  0  0  0  0  0  0  0  0  0  0  0
    5.0806    0.4996   -3.2879 H   0  0  0  0  0  0  0  0  0  0  0  0
   -1.5807   -0.9625   -1.0318 H   0  0  0  0  0  0  0  0  0  0  0  0
   -4.0633   -1.2095   -0.9330 H   0  0  0  0  0  0  0  0  0  0  0  0
   -4.9705    0.0015   -0.0771 H   0  0  0  0  0  0  0  0  0  0  0  0
   -3.3936   -0.7498   -3.1780 H   0  0  0  0  0  0  0  0  0  0  0  0
   -3.1591    0.7838   -5.0512 H   0  0  0  0  0  0  0  0  0  0  0  0
   -2.0862    2.6538   -6.1215 H   0  0  0  0  0  0  0  0  0  0  0  0
   -3.0237    3.9984   -6.7852 H   0  0  0  0  0  0  0  0  0  0  0  0
   -3.8190    2.4315   -6.5882 H   0  0  0  0  0  0  0  0  0  0  0  0
   -4.0348    4.1102   -2.4559 H   0  0  0  0  0  0  0  0  0  0  0  0
   -4.2614    2.5645   -0.5549 H   0  0  0  0  0  0  0  0  0  0  0  0
  1  2  1  0
  2  3  1  0
  3  4  1  0
  4  5  2  3
  5  6  1  0
  6  7  2  0
  7  8  1  0
  8  9  2  0
  9 10  1  0
 10 11  2  0
 10 12  1  0
 12 13  1  0
 12 14  1  0
 14 15  1  0
 15 16  2  0
 15 17  1  0
 17 18  2  0
 18 19  1  0
 19 20  2  0
 20 21  1  0
 21 22  2  0
 22 23  1  0
 23 24  2  0
 24 25  1  0
 25 26  2  0
 12 27  1  0
 27 28  2  0
 27 29  1  0
 29 30  2  0
 30 31  1  0
 31 32  1  0
 32 33  1  0
 33 34  2  0
 34 35  1  0
 35 36  2  0
 36 37  1  0
 37 38  1  0
 36 39  1  0
 39 40  2  0
 31  6  1  0
 40 33  1  0
 29  8  1  0
 26 17  1  0
 25 20  1  0
  1 41  1  0
  1 42  1  0
  1 43  1  0
  3 44  1  0
  3 45  1  0
  4 46  1  0
  5 47  1  0
  7 48  1  0
  9 49  1  0
 13 50  1  0
 13 51  1  0
 13 52  1  0
 18 53  1  0
 21 54  1  0
 22 55  1  0
 23 56  1  0
 24 57  1  0
 30 58  1  0
 32 59  1  0
 32 60  1  0
 34 61  1  0
 35 62  1  0
 38 63  1  0
 38 64  1  0
 38 65  1  0
 39 66  1  0
 40 67  1  0
M  END
$$$$
