
     RDKit          3D

 47 50  0  0  0  0  0  0  0  0999 V2000
    1.0558    5.6181   -4.9347 C   0  0  0  0  0  0  0  0  0  0  0  0
    1.2059    4.6149   -3.8281 C   0  0  0  0  0  0  0  0  0  0  0  0
    2.4823    4.2281   -3.4026 C   0  0  0  0  0  0  0  0  0  0  0  0
    2.6605    3.3157   -2.3563 C   0  0  0  0  0  0  0  0  0  0  0  0
    1.5138    2.8068   -1.7386 C   0  0  0  0  0  0  0  0  0  0  0  0
    1.3920    1.9080   -0.6980 N   0  0  0  0  0  0  0  0  0  0  0  0
    0.0696    1.7008   -0.4244 C   0  0  0  0  0  0  0  0  0  0  0  0
   -0.5145    0.8441    0.5643 C   0  0  0  0  0  0  0  0  0  0  0  0
    0.1553    0.1427    1.3207 O   0  0  0  0  0  0  0  0  0  0  0  0
   -1.9222    0.8690    0.5540 N   0  0  0  0  0  0  0  0  0  0  0  0
   -2.6671    0.0773    1.5287 C   0  0  0  0  0  0  0  0  0  0  0  0
   -2.7652   -1.3893    1.1117 C   0  0  0  0  0  0  0  0  0  0  0  0
   -3.8371   -1.9395    0.8674 O   0  0  0  0  0  0  0  0  0  0  0  0
   -1.5636   -2.0642    1.1001 N   0  0  0  0  0  0  0  0  0  0  0  0
   -1.4766   -3.4739    0.7784 C   0  0  0  0  0  0  0  0  0  0  0  0
   -0.0562   -4.0315    0.9261 C   0  0  0  0  0  0  0  0  0  0  0  0
    0.4431   -4.0288    2.3538 C   0  0  0  0  0  0  0  0  0  0  0  0
    1.3186   -3.0281    2.8021 C   0  0  0  0  0  0  0  0  0  0  0  0
    1.7673   -3.0189    4.1258 C   0  0  0  0  0  0  0  0  0  0  0  0
    1.3433   -4.0111    5.0078 C   0  0  0  0  0  0  0  0  0  0  0  0
    1.8961   -4.0017    6.6392 Cl  0  0  0  0  0  0  0  0  0  0  0  0
    0.4694   -5.0083    4.5786 C   0  0  0  0  0  0  0  0  0  0  0  0
    0.0194   -5.0173    3.2553 C   0  0  0  0  0  0  0  0  0  0  0  0
   -2.6968    1.6593   -0.3178 N   0  0  0  0  0  0  0  0  0  0  0  0
   -2.1073    2.4188   -1.1968 C   0  0  0  0  0  0  0  0  0  0  0  0
   -0.6748    2.4686   -1.2859 C   0  0  0  0  0  0  0  0  0  0  0  0
    0.2204    3.1781   -2.1265 C   0  0  0  0  0  0  0  0  0  0  0  0
    0.0688    4.1005   -3.1820 C   0  0  0  0  0  0  0  0  0  0  0  0
    1.1220    6.6325   -4.5294 H   0  0  0  0  0  0  0  0  0  0  0  0
    0.0917    5.5018   -5.4440 H   0  0  0  0  0  0  0  0  0  0  0  0
    1.8388    5.4845   -5.6907 H   0  0  0  0  0  0  0  0  0  0  0  0
    3.3645    4.6392   -3.8922 H   0  0  0  0  0  0  0  0  0  0  0  0
    3.6562    3.0219   -2.0396 H   0  0  0  0  0  0  0  0  0  0  0  0
    2.1642    1.4637   -0.2158 H   0  0  0  0  0  0  0  0  0  0  0  0
   -3.6775    0.4878    1.6323 H   0  0  0  0  0  0  0  0  0  0  0  0
   -2.1736    0.1336    2.5055 H   0  0  0  0  0  0  0  0  0  0  0  0
   -0.7190   -1.5609    1.3779 H   0  0  0  0  0  0  0  0  0  0  0  0
   -2.1906   -4.0171    1.4103 H   0  0  0  0  0  0  0  0  0  0  0  0
   -1.8072   -3.5877   -0.2620 H   0  0  0  0  0  0  0  0  0  0  0  0
    0.6334   -3.4605    0.2893 H   0  0  0  0  0  0  0  0  0  0  0  0
   -0.0309   -5.0619    0.5491 H   0  0  0  0  0  0  0  0  0  0  0  0
    1.6526   -2.2436    2.1253 H   0  0  0  0  0  0  0  0  0  0  0  0
    2.4436   -2.2361    4.4598 H   0  0  0  0  0  0  0  0  0  0  0  0
    0.1341   -5.7799    5.2661 H   0  0  0  0  0  0  0  0  0  0  0  0
   -0.6654   -5.7997    2.9331 H   0  0  0  0  0  0  0  0  0  0  0  0
   -2.7121    3.0354   -1.8806 H   0  0  0  0  0  0  0  0  0  0  0  0
   -0.9251    4.4091   -3.4964 H   0  0  0  0  0  0  0  0  0  0  0  0
  1  2  1  0
  2  3  2  0
  3  4  1  0
  4  5  2  0
  5  6  1  0
  6  7  1  0
  7  8  1  0
  8  9  2  0
  8 10  1  0
 10 11  1  0
 11 12  1  0
 12 13  2  0
 12 14  1  0
 14 15  1  0
 15 16  1  0
 16 17  1  0
 17 18  2  0
 18 19  1  0
 19 20  2  0
 20 21  1  0
 20 22  1  0
 22 23  2  0
 10 24  1  0
 24 25  2  0
 25 26  1  0
 26 27  1  0
 27 28  2  0
 28  2  1  0
 27  5  1  0
 26  7  2  0
 23 17  1  0
  1 29  1  0
  1 30  1  0
  1 31  1  0
  3 32  1  0
  4 33  1  0
  6 34  1  0
 11 35  1  0
 11 36  1  0
 14 37  1  0
 15 38  1  0
 15 39  1  0
 16 40  1  0
 16 41  1  0
 18 42  1  0
 19 43  1  0
 22 44  1  0
 23 45  1  0
 25 46  1  0
 28 47  1  0
M  END
$$$$
