
     RDKit          3D

 57 60  0  0  0  0  0  0  0  0999 V2000
   -6.0105    2.8866   -0.3395 C   0  0  0  0  0  0  0  0  0  0  0  0
   -5.7553    1.5764    0.3030 C   0  0  0  0  0  0  0  0  0  0  0  0
   -6.7816    0.8321    0.7274 N   0  0  0  0  0  0  0  0  0  0  0  0
   -6.2209   -0.3054    1.2721 O   0  0  0  0  0  0  0  0  0  0  0  0
   -4.8674   -0.2372    1.1773 C   0  0  0  0  0  0  0  0  0  0  0  0
   -4.1239   -1.3907    1.7199 C   0  0  0  0  0  0  0  0  0  0  0  0
   -4.5076    0.9412    0.5560 C   0  0  0  0  0  0  0  0  0  0  0  0
   -3.1457    1.4491    0.2375 C   0  0  0  0  0  0  0  0  0  0  0  0
   -2.2095    0.4345   -0.1465 O   0  0  0  0  0  0  0  0  0  0  0  0
   -2.3722   -0.2007   -1.3467 C   0  0  0  0  0  0  0  0  0  0  0  0
   -3.1247    0.2940   -2.4155 C   0  0  0  0  0  0  0  0  0  0  0  0
   -3.2427   -0.4421   -3.6008 C   0  0  0  0  0  0  0  0  0  0  0  0
   -2.6114   -1.6776   -3.7332 C   0  0  0  0  0  0  0  0  0  0  0  0
   -1.8498   -2.1791   -2.6818 C   0  0  0  0  0  0  0  0  0  0  0  0
   -1.7180   -1.4330   -1.5038 C   0  0  0  0  0  0  0  0  0  0  0  0
   -0.9147   -2.0250   -0.4144 C   0  0  0  0  0  0  0  0  0  0  0  0
   -1.3630   -3.0209    0.1496 O   0  0  0  0  0  0  0  0  0  0  0  0
    0.3149   -1.4567   -0.1076 N   0  0  0  0  0  0  0  0  0  0  0  0
    0.9358   -0.3493   -0.8417 C   0  0  0  0  0  0  0  0  0  0  0  0
    2.4717   -0.3237   -0.7150 C   0  0  0  0  0  0  0  0  0  0  0  0
    2.9014   -0.3186    0.6938 N   0  0  0  0  0  0  0  0  0  0  0  0
    4.1247    0.2024    1.0840 C   0  0  0  0  0  0  0  0  0  0  0  0
    4.3904    0.5454    2.4199 C   0  0  0  0  0  0  0  0  0  0  0  0
    5.6227    1.0709    2.8246 C   0  0  0  0  0  0  0  0  0  0  0  0
    6.6328    1.2746    1.8929 C   0  0  0  0  0  0  0  0  0  0  0  0
    6.4120    0.9599    0.5490 C   0  0  0  0  0  0  0  0  0  0  0  0
    7.5025    1.1515   -0.4730 C   0  0  0  0  0  0  0  0  0  0  0  0
    8.3025    0.0562   -0.5919 F   0  0  0  0  0  0  0  0  0  0  0  0
    7.0263    1.4029   -1.7249 F   0  0  0  0  0  0  0  0  0  0  0  0
    8.3334    2.1910   -0.1802 F   0  0  0  0  0  0  0  0  0  0  0  0
    5.1663    0.4214    0.1673 C   0  0  0  0  0  0  0  0  0  0  0  0
    2.0150   -0.9849    1.6685 C   0  0  0  0  0  0  0  0  0  0  0  0
    1.0904   -2.0164    0.9983 C   0  0  0  0  0  0  0  0  0  0  0  0
   -7.0728    3.1495   -0.3145 H   0  0  0  0  0  0  0  0  0  0  0  0
   -5.4558    3.6787    0.1733 H   0  0  0  0  0  0  0  0  0  0  0  0
   -5.6929    2.8644   -1.3870 H   0  0  0  0  0  0  0  0  0  0  0  0
   -3.1024   -1.1110    1.9949 H   0  0  0  0  0  0  0  0  0  0  0  0
   -4.6145   -1.7808    2.6170 H   0  0  0  0  0  0  0  0  0  0  0  0
   -4.0769   -2.1936    0.9795 H   0  0  0  0  0  0  0  0  0  0  0  0
   -2.7397    1.9015    1.1510 H   0  0  0  0  0  0  0  0  0  0  0  0
   -3.1592    2.2561   -0.5034 H   0  0  0  0  0  0  0  0  0  0  0  0
   -3.6362    1.2479   -2.3662 H   0  0  0  0  0  0  0  0  0  0  0  0
   -3.8395   -0.0513   -4.4223 H   0  0  0  0  0  0  0  0  0  0  0  0
   -2.7176   -2.2503   -4.6517 H   0  0  0  0  0  0  0  0  0  0  0  0
   -1.3638   -3.1485   -2.7715 H   0  0  0  0  0  0  0  0  0  0  0  0
    0.6571   -0.3973   -1.8987 H   0  0  0  0  0  0  0  0  0  0  0  0
    0.5223    0.5765   -0.4245 H   0  0  0  0  0  0  0  0  0  0  0  0
    2.8258    0.5727   -1.2373 H   0  0  0  0  0  0  0  0  0  0  0  0
    2.8968   -1.2028   -1.2144 H   0  0  0  0  0  0  0  0  0  0  0  0
    3.6247    0.4278    3.1820 H   0  0  0  0  0  0  0  0  0  0  0  0
    5.7853    1.3225    3.8698 H   0  0  0  0  0  0  0  0  0  0  0  0
    7.5896    1.6815    2.2159 H   0  0  0  0  0  0  0  0  0  0  0  0
    5.0339    0.1512   -0.8786 H   0  0  0  0  0  0  0  0  0  0  0  0
    2.5987   -1.5157    2.4305 H   0  0  0  0  0  0  0  0  0  0  0  0
    1.4073   -0.2216    2.1700 H   0  0  0  0  0  0  0  0  0  0  0  0
    0.4179   -2.4509    1.7460 H   0  0  0  0  0  0  0  0  0  0  0  0
    1.6882   -2.8352    0.5790 H   0  0  0  0  0  0  0  0  0  0  0  0
  1  2  1  0
  2  3  2  0
  3  4  1  0
  4  5  1  0
  5  6  1  0
  5  7  2  0
  7  8  1  0
  8  9  1  0
  9 10  1  0
 10 11  2  0
 11 12  1  0
 12 13  2  0
 13 14  1  0
 14 15  2  0
 15 16  1  0
 16 17  2  0
 16 18  1  0
 18 19  1  0
 19 20  1  0
 20 21  1  0
 21 22  1  0
 22 23  2  0
 23 24  1  0
 24 25  2  0
 25 26  1  0
 26 27  1  0
 27 28  1  0
 27 29  1  0
 27 30  1  0
 26 31  2  0
 21 32  1  0
 32 33  1  0
  7  2  1  0
 15 10  1  0
 33 18  1  0
 31 22  1  0
  1 34  1  0
  1 35  1  0
  1 36  1  0
  6 37  1  0
  6 38  1  0
  6 39  1  0
  8 40  1  0
  8 41  1  0
 11 42  1  0
 12 43  1  0
 13 44  1  0
 14 45  1  0
 19 46  1  0
 19 47  1  0
 20 48  1  0
 20 49  1  0
 23 50  1  0
 24 51  1  0
 25 52  1  0
 31 53  1  0
 32 54  1  0
 32 55  1  0
 33 56  1  0
 33 57  1  0
M  END
$$$$
