
     RDKit          3D

 44 47  0  0  0  0  0  0  0  0999 V2000
    7.6340   -1.9617    0.6341 C   0  0  0  0  0  0  0  0  0  0  0  0
    7.3745   -1.0987   -0.5882 C   0  0  0  0  0  0  0  0  0  0  0  0
    6.6277    0.0641   -0.2367 O   0  0  0  0  0  0  0  0  0  0  0  0
    5.2601    0.0304   -0.2707 C   0  0  0  0  0  0  0  0  0  0  0  0
    4.4935   -1.1168   -0.4911 C   0  0  0  0  0  0  0  0  0  0  0  0
    3.0955   -1.0441   -0.5043 C   0  0  0  0  0  0  0  0  0  0  0  0
    2.4443    0.1777   -0.3029 C   0  0  0  0  0  0  0  0  0  0  0  0
    0.9543    0.2019   -0.3231 C   0  0  0  0  0  0  0  0  0  0  0  0
    0.3592   -0.7915    0.0741 O   0  0  0  0  0  0  0  0  0  0  0  0
    0.3934    1.3561   -0.8386 N   0  0  0  0  0  0  0  0  0  0  0  0
   -0.9797    1.6703   -0.9392 C   0  0  0  0  0  0  0  0  0  0  0  0
   -1.3089    2.8674   -1.5873 C   0  0  0  0  0  0  0  0  0  0  0  0
   -2.6401    3.2579   -1.7273 C   0  0  0  0  0  0  0  0  0  0  0  0
   -3.6561    2.4532   -1.2156 C   0  0  0  0  0  0  0  0  0  0  0  0
   -3.3556    1.2518   -0.5570 C   0  0  0  0  0  0  0  0  0  0  0  0
   -4.4486    0.4357   -0.0282 C   0  0  0  0  0  0  0  0  0  0  0  0
   -5.7509    0.6665   -0.0884 N   0  0  0  0  0  0  0  0  0  0  0  0
   -6.2932   -0.4105    0.5618 C   0  0  0  0  0  0  0  0  0  0  0  0
   -7.6187   -0.7612    0.8373 C   0  0  0  0  0  0  0  0  0  0  0  0
   -7.8241   -1.9540    1.5360 C   0  0  0  0  0  0  0  0  0  0  0  0
   -6.7242   -2.7203    1.9168 C   0  0  0  0  0  0  0  0  0  0  0  0
   -5.4264   -2.4216    1.6729 N   0  0  0  0  0  0  0  0  0  0  0  0
   -5.2883   -1.2655    0.9987 C   0  0  0  0  0  0  0  0  0  0  0  0
   -4.0982   -0.7210    0.6192 O   0  0  0  0  0  0  0  0  0  0  0  0
   -2.0074    0.8724   -0.4250 C   0  0  0  0  0  0  0  0  0  0  0  0
    3.1986    1.3267   -0.0546 C   0  0  0  0  0  0  0  0  0  0  0  0
    4.5954    1.2490   -0.0436 C   0  0  0  0  0  0  0  0  0  0  0  0
    5.4739    2.7098    0.2597 Cl  0  0  0  0  0  0  0  0  0  0  0  0
    6.7014   -2.3361    1.0662 H   0  0  0  0  0  0  0  0  0  0  0  0
    8.1327   -1.3783    1.4153 H   0  0  0  0  0  0  0  0  0  0  0  0
    8.2662   -2.8162    0.3766 H   0  0  0  0  0  0  0  0  0  0  0  0
    8.3385   -0.7428   -0.9695 H   0  0  0  0  0  0  0  0  0  0  0  0
    6.9177   -1.6607   -1.4101 H   0  0  0  0  0  0  0  0  0  0  0  0
    4.9447   -2.0917   -0.6441 H   0  0  0  0  0  0  0  0  0  0  0  0
    2.5129   -1.9499   -0.6701 H   0  0  0  0  0  0  0  0  0  0  0  0
    1.0230    2.0287   -1.2560 H   0  0  0  0  0  0  0  0  0  0  0  0
   -0.5352    3.5128   -1.9953 H   0  0  0  0  0  0  0  0  0  0  0  0
   -2.8871    4.1874   -2.2340 H   0  0  0  0  0  0  0  0  0  0  0  0
   -4.6927    2.7676   -1.3302 H   0  0  0  0  0  0  0  0  0  0  0  0
   -8.4417   -0.1322    0.5206 H   0  0  0  0  0  0  0  0  0  0  0  0
   -8.8295   -2.2822    1.7809 H   0  0  0  0  0  0  0  0  0  0  0  0
   -6.8736   -3.6510    2.4615 H   0  0  0  0  0  0  0  0  0  0  0  0
   -1.7785   -0.0555    0.0918 H   0  0  0  0  0  0  0  0  0  0  0  0
    2.7171    2.2759    0.1618 H   0  0  0  0  0  0  0  0  0  0  0  0
  1  2  1  0
  2  3  1  0
  3  4  1  0
  4  5  2  0
  5  6  1  0
  6  7  2  0
  7  8  1  0
  8  9  2  0
  8 10  1  0
 10 11  1  0
 11 12  2  0
 12 13  1  0
 13 14  2  0
 14 15  1  0
 15 16  1  0
 16 17  2  0
 17 18  1  0
 18 19  2  0
 19 20  1  0
 20 21  2  0
 21 22  1  0
 22 23  2  0
 23 24  1  0
 15 25  2  0
  7 26  1  0
 26 27  2  0
 27 28  1  0
 27  4  1  0
 25 11  1  0
 24 16  1  0
 23 18  1  0
  1 29  1  0
  1 30  1  0
  1 31  1  0
  2 32  1  0
  2 33  1  0
  5 34  1  0
  6 35  1  0
 10 36  1  0
 12 37  1  0
 13 38  1  0
 14 39  1  0
 19 40  1  0
 20 41  1  0
 21 42  1  0
 25 43  1  0
 26 44  1  0
M  END
$$$$
