
     RDKit          3D

 43 45  0  0  0  0  0  0  0  0999 V2000
   -3.8967   -3.5711    0.8390 C   0  0  0  0  0  0  0  0  0  0  0  0
   -3.6670   -2.3836    0.0143 N   0  0  0  0  0  0  0  0  0  0  0  0
   -4.4891   -2.4559   -1.1963 C   0  0  0  0  0  0  0  0  0  0  0  0
   -3.9679   -1.1662    0.7935 C   0  0  0  0  0  0  0  0  0  0  0  0
   -3.4778    0.0995    0.1365 C   0  0  0  0  0  0  0  0  0  0  0  0
   -4.3464    1.0497   -0.4284 C   0  0  0  0  0  0  0  0  0  0  0  0
   -5.6948    0.8219   -0.3725 O   0  0  0  0  0  0  0  0  0  0  0  0
   -3.8718    2.2234   -1.0501 C   0  0  0  0  0  0  0  0  0  0  0  0
   -2.5017    2.4790   -1.1235 C   0  0  0  0  0  0  0  0  0  0  0  0
   -1.6573    1.5415   -0.5641 C   0  0  0  0  0  0  0  0  0  0  0  0
   -2.1221    0.3830    0.0520 C   0  0  0  0  0  0  0  0  0  0  0  0
   -1.1022   -0.4007    0.5459 O   0  0  0  0  0  0  0  0  0  0  0  0
    0.0907    0.2612    0.2386 C   0  0  0  0  0  0  0  0  0  0  0  0
    1.2830   -0.2457    0.5795 C   0  0  0  0  0  0  0  0  0  0  0  0
    2.5791    0.3454    0.3253 C   0  0  0  0  0  0  0  0  0  0  0  0
    3.7284   -0.2496    0.6841 C   0  0  0  0  0  0  0  0  0  0  0  0
    5.0652    0.3193    0.4504 C   0  0  0  0  0  0  0  0  0  0  0  0
    5.3717    1.0812   -0.6852 C   0  0  0  0  0  0  0  0  0  0  0  0
    6.6635    1.5768   -0.8831 C   0  0  0  0  0  0  0  0  0  0  0  0
    7.6655    1.3075    0.0463 C   0  0  0  0  0  0  0  0  0  0  0  0
    7.3783    0.5386    1.1717 C   0  0  0  0  0  0  0  0  0  0  0  0
    6.0867    0.0430    1.3694 C   0  0  0  0  0  0  0  0  0  0  0  0
   -0.2028    1.5325   -0.4840 C   0  0  0  0  0  0  0  0  0  0  0  0
    0.5457    2.3811   -0.9175 O   0  0  0  0  0  0  0  0  0  0  0  0
   -3.6448   -4.4812    0.2830 H   0  0  0  0  0  0  0  0  0  0  0  0
   -4.9374   -3.6482    1.1744 H   0  0  0  0  0  0  0  0  0  0  0  0
   -3.2487   -3.5581    1.7226 H   0  0  0  0  0  0  0  0  0  0  0  0
   -4.2673   -3.3727   -1.7546 H   0  0  0  0  0  0  0  0  0  0  0  0
   -5.5617   -2.4447   -0.9708 H   0  0  0  0  0  0  0  0  0  0  0  0
   -4.2682   -1.6273   -1.8770 H   0  0  0  0  0  0  0  0  0  0  0  0
   -5.0393   -1.1061    1.0243 H   0  0  0  0  0  0  0  0  0  0  0  0
   -3.4669   -1.2223    1.7703 H   0  0  0  0  0  0  0  0  0  0  0  0
   -6.1605    1.5528   -0.8122 H   0  0  0  0  0  0  0  0  0  0  0  0
   -4.5624    2.9434   -1.4812 H   0  0  0  0  0  0  0  0  0  0  0  0
   -2.1102    3.3731   -1.5972 H   0  0  0  0  0  0  0  0  0  0  0  0
    1.2834   -1.2010    1.1017 H   0  0  0  0  0  0  0  0  0  0  0  0
    2.6006    1.3163   -0.1649 H   0  0  0  0  0  0  0  0  0  0  0  0
    3.7142   -1.2085    1.1971 H   0  0  0  0  0  0  0  0  0  0  0  0
    4.6123    1.2920   -1.4345 H   0  0  0  0  0  0  0  0  0  0  0  0
    6.8852    2.1701   -1.7664 H   0  0  0  0  0  0  0  0  0  0  0  0
    8.6694    1.6934   -0.1085 H   0  0  0  0  0  0  0  0  0  0  0  0
    8.1586    0.3234    1.8968 H   0  0  0  0  0  0  0  0  0  0  0  0
    5.8836   -0.5545    2.2552 H   0  0  0  0  0  0  0  0  0  0  0  0
  1  2  1  0
  2  3  1  0
  2  4  1  0
  4  5  1  0
  5  6  2  0
  6  7  1  0
  6  8  1  0
  8  9  2  0
  9 10  1  0
 10 11  2  0
 11 12  1  0
 12 13  1  0
 13 14  2  3
 14 15  1  0
 15 16  2  3
 16 17  1  0
 17 18  2  0
 18 19  1  0
 19 20  2  0
 20 21  1  0
 21 22  2  0
 13 23  1  0
 23 24  2  0
 11  5  1  0
 22 17  1  0
 23 10  1  0
  1 25  1  0
  1 26  1  0
  1 27  1  0
  3 28  1  0
  3 29  1  0
  3 30  1  0
  4 31  1  0
  4 32  1  0
  7 33  1  0
  8 34  1  0
  9 35  1  0
 14 36  1  0
 15 37  1  0
 16 38  1  0
 18 39  1  0
 19 40  1  0
 20 41  1  0
 21 42  1  0
 22 43  1  0
M  END
$$$$
