
     RDKit          3D

 61 63  0  0  0  0  0  0  0  0999 V2000
    7.6719    1.6010   -1.2086 C   0  0  0  0  0  0  0  0  0  0  0  0
    6.7397    1.7753   -0.0194 C   0  0  0  0  0  0  0  0  0  0  0  0
    5.3172    1.3311   -0.3545 C   0  0  0  0  0  0  0  0  0  0  0  0
    4.3930    1.4684    0.8526 C   0  0  0  0  0  0  0  0  0  0  0  0
    3.0424    1.0622    0.5274 N   0  0  0  0  0  0  0  0  0  0  0  0
    2.1344    1.9275   -0.0508 C   0  0  0  0  0  0  0  0  0  0  0  0
    2.3775    3.1166   -0.2479 O   0  0  0  0  0  0  0  0  0  0  0  0
    0.8117    1.2565   -0.4616 C   0  0  0  0  0  0  0  0  0  0  0  0
   -0.2927    2.2710   -0.7969 C   0  0  0  0  0  0  0  0  0  0  0  0
   -1.0892    2.6566    0.4279 C   0  0  0  0  0  0  0  0  0  0  0  0
   -0.6649    3.7057    1.2534 C   0  0  0  0  0  0  0  0  0  0  0  0
   -1.3863    4.0337    2.4029 C   0  0  0  0  0  0  0  0  0  0  0  0
   -2.5338    3.3159    2.7377 C   0  0  0  0  0  0  0  0  0  0  0  0
   -2.9626    2.2686    1.9241 C   0  0  0  0  0  0  0  0  0  0  0  0
   -2.2436    1.9384    0.7746 C   0  0  0  0  0  0  0  0  0  0  0  0
    1.0818    0.4452   -1.6720 N   0  0  0  0  0  0  0  0  0  0  0  0
    1.3131   -1.1972   -1.5296 S   0  0  0  0  0  6  0  0  0  0  0  0
    1.7905   -1.6622   -2.8117 O   0  0  0  0  0  0  0  0  0  0  0  0
    2.0481   -1.4356   -0.3065 O   0  0  0  0  0  0  0  0  0  0  0  0
   -0.3539   -1.7705   -1.3308 C   0  0  0  0  0  0  0  0  0  0  0  0
   -1.1653   -1.9245   -2.4542 C   0  0  0  0  0  0  0  0  0  0  0  0
   -2.4844   -2.3656   -2.2998 C   0  0  0  0  0  0  0  0  0  0  0  0
   -3.0064   -2.6602   -1.0284 C   0  0  0  0  0  0  0  0  0  0  0  0
   -2.1707   -2.5110    0.0790 C   0  0  0  0  0  0  0  0  0  0  0  0
   -0.8438   -2.0749   -0.0613 C   0  0  0  0  0  0  0  0  0  0  0  0
   -2.6936   -2.8117    1.4203 C   0  0  0  0  0  0  0  0  0  0  0  0
   -1.9766   -2.6039    2.3958 O   0  0  0  0  0  0  0  0  0  0  0  0
   -3.9862   -3.3044    1.4900 N   0  0  0  0  0  0  0  0  0  0  0  0
   -4.5198   -3.6396    2.7982 C   0  0  0  0  0  0  0  0  0  0  0  0
   -4.8576   -3.4116    0.4124 C   0  0  0  0  0  0  0  0  0  0  0  0
   -6.0282   -3.7667    0.5681 O   0  0  0  0  0  0  0  0  0  0  0  0
   -4.3459   -3.0929   -0.8422 N   0  0  0  0  0  0  0  0  0  0  0  0
   -5.2306   -3.2180   -1.9948 C   0  0  0  0  0  0  0  0  0  0  0  0
    7.3291    2.1881   -2.0662 H   0  0  0  0  0  0  0  0  0  0  0  0
    7.7291    0.5503   -1.5116 H   0  0  0  0  0  0  0  0  0  0  0  0
    8.6816    1.9356   -0.9501 H   0  0  0  0  0  0  0  0  0  0  0  0
    6.7370    2.8294    0.2828 H   0  0  0  0  0  0  0  0  0  0  0  0
    7.1234    1.1940    0.8272 H   0  0  0  0  0  0  0  0  0  0  0  0
    5.3211    0.2867   -0.6925 H   0  0  0  0  0  0  0  0  0  0  0  0
    4.9330    1.9272   -1.1914 H   0  0  0  0  0  0  0  0  0  0  0  0
    4.3806    2.5041    1.2121 H   0  0  0  0  0  0  0  0  0  0  0  0
    4.7330    0.8250    1.6714 H   0  0  0  0  0  0  0  0  0  0  0  0
    2.8469    0.0599    0.4876 H   0  0  0  0  0  0  0  0  0  0  0  0
    0.4823    0.6133    0.3630 H   0  0  0  0  0  0  0  0  0  0  0  0
   -0.9897    1.8418   -1.5308 H   0  0  0  0  0  0  0  0  0  0  0  0
    0.1073    3.1734   -1.2770 H   0  0  0  0  0  0  0  0  0  0  0  0
    0.2313    4.2752    1.0089 H   0  0  0  0  0  0  0  0  0  0  0  0
   -1.0499    4.8480    3.0396 H   0  0  0  0  0  0  0  0  0  0  0  0
   -3.0950    3.5748    3.6329 H   0  0  0  0  0  0  0  0  0  0  0  0
   -3.8569    1.7090    2.1878 H   0  0  0  0  0  0  0  0  0  0  0  0
   -2.5931    1.1183    0.1519 H   0  0  0  0  0  0  0  0  0  0  0  0
    1.5324    0.8933   -2.4722 H   0  0  0  0  0  0  0  0  0  0  0  0
   -0.7823   -1.7028   -3.4501 H   0  0  0  0  0  0  0  0  0  0  0  0
   -3.0820   -2.4734   -3.2005 H   0  0  0  0  0  0  0  0  0  0  0  0
   -0.2084   -1.9715    0.8180 H   0  0  0  0  0  0  0  0  0  0  0  0
   -5.0578   -4.5910    2.7449 H   0  0  0  0  0  0  0  0  0  0  0  0
   -5.2232   -2.8558    3.0990 H   0  0  0  0  0  0  0  0  0  0  0  0
   -3.7356   -3.7243    3.5542 H   0  0  0  0  0  0  0  0  0  0  0  0
   -4.8237   -3.9648   -2.6839 H   0  0  0  0  0  0  0  0  0  0  0  0
   -5.3193   -2.2470   -2.4910 H   0  0  0  0  0  0  0  0  0  0  0  0
   -6.2363   -3.5398   -1.7130 H   0  0  0  0  0  0  0  0  0  0  0  0
  1  2  1  0
  2  3  1  0
  3  4  1  0
  4  5  1  0
  5  6  1  0
  6  7  2  0
  6  8  1  0
  8  9  1  0
  9 10  1  0
 10 11  2  0
 11 12  1  0
 12 13  2  0
 13 14  1  0
 14 15  2  0
  8 16  1  0
 16 17  1  0
 17 18  2  0
 17 19  2  0
 17 20  1  0
 20 21  2  0
 21 22  1  0
 22 23  2  0
 23 24  1  0
 24 25  2  0
 24 26  1  0
 26 27  2  0
 26 28  1  0
 28 29  1  0
 28 30  1  0
 30 31  2  0
 30 32  1  0
 32 33  1  0
 15 10  1  0
 25 20  1  0
 32 23  1  0
  1 34  1  0
  1 35  1  0
  1 36  1  0
  2 37  1  0
  2 38  1  0
  3 39  1  0
  3 40  1  0
  4 41  1  0
  4 42  1  0
  5 43  1  0
  8 44  1  0
  9 45  1  0
  9 46  1  0
 11 47  1  0
 12 48  1  0
 13 49  1  0
 14 50  1  0
 15 51  1  0
 16 52  1  0
 21 53  1  0
 22 54  1  0
 25 55  1  0
 29 56  1  0
 29 57  1  0
 29 58  1  0
 33 59  1  0
 33 60  1  0
 33 61  1  0
M  END
$$$$
