
     RDKit          3D

 52 55  0  0  0  0  0  0  0  0999 V2000
    3.4041    2.5112    0.2216 O   0  0  0  0  0  0  0  0  0  0  0  0
    3.2399    1.5301   -0.5003 C   0  0  0  0  0  0  0  0  0  0  0  0
    2.1470    1.3887   -1.3427 N   0  0  0  0  0  0  0  0  0  0  0  0
    1.0725    2.2919   -1.0969 N   0  0  0  0  0  0  0  0  0  0  0  0
   -0.0653    1.5923   -0.5969 C   0  0  0  0  0  0  0  0  0  0  0  0
   -1.1386    2.3258   -0.1424 C   0  0  0  0  0  0  0  0  0  0  0  0
   -2.2346    1.6308    0.3161 C   0  0  0  0  0  0  0  0  0  0  0  0
   -3.3496    2.2647    0.7976 N   0  0  0  0  0  0  0  0  0  0  0  0
   -4.4917    1.4982    1.2834 C   0  0  0  0  0  0  0  0  0  0  0  0
   -5.4119    2.5698    1.8706 C   0  0  0  0  0  0  0  0  0  0  0  0
   -5.1374    3.7733    0.9811 C   0  0  0  0  0  0  0  0  0  0  0  0
   -3.6327    3.6899    0.7253 C   0  0  0  0  0  0  0  0  0  0  0  0
   -2.2293    0.2866    0.3130 N   0  0  0  0  0  0  0  0  0  0  0  0
   -1.1625   -0.3720   -0.1598 C   0  0  0  0  0  0  0  0  0  0  0  0
   -1.1722   -1.7386   -0.1327 N   0  0  0  0  0  0  0  0  0  0  0  0
   -0.1684   -2.5310   -0.8094 C   0  0  0  0  0  0  0  0  0  0  0  0
   -0.6110   -3.9632   -0.5130 C   0  0  0  0  0  0  0  0  0  0  0  0
   -2.1297   -3.8525   -0.4962 C   0  0  0  0  0  0  0  0  0  0  0  0
   -2.3867   -2.4846    0.1450 C   0  0  0  0  0  0  0  0  0  0  0  0
   -0.0760    0.2464   -0.6332 N   0  0  0  0  0  0  0  0  0  0  0  0
    4.1961    0.3886   -0.4666 C   0  0  0  0  0  0  0  0  0  0  0  0
    4.3231   -0.5076   -1.5405 C   0  0  0  0  0  0  0  0  0  0  0  0
    5.2257   -1.5753   -1.4625 C   0  0  0  0  0  0  0  0  0  0  0  0
    6.0081   -1.7391   -0.3096 C   0  0  0  0  0  0  0  0  0  0  0  0
    6.9284   -2.8788   -0.2150 N   0  0  0  0  0  4  0  0  0  0  0  0
    7.0799   -3.5805   -1.2291 O   0  0  0  0  0  0  0  0  0  0  0  0
    7.4859   -3.0798    0.8752 O   0  0  0  0  0  1  0  0  0  0  0  0
    5.9036   -0.8372    0.7582 C   0  0  0  0  0  0  0  0  0  0  0  0
    4.9989    0.2266    0.6730 C   0  0  0  0  0  0  0  0  0  0  0  0
    1.8128    0.4478   -1.5571 H   0  0  0  0  0  0  0  0  0  0  0  0
    1.3665    2.9910   -0.4031 H   0  0  0  0  0  0  0  0  0  0  0  0
   -1.1066    3.4058   -0.1481 H   0  0  0  0  0  0  0  0  0  0  0  0
   -4.9901    0.9820    0.4523 H   0  0  0  0  0  0  0  0  0  0  0  0
   -4.2148    0.7664    2.0519 H   0  0  0  0  0  0  0  0  0  0  0  0
   -5.1182    2.7928    2.9069 H   0  0  0  0  0  0  0  0  0  0  0  0
   -6.4643    2.2671    1.8673 H   0  0  0  0  0  0  0  0  0  0  0  0
   -5.4356    4.7212    1.4413 H   0  0  0  0  0  0  0  0  0  0  0  0
   -5.6832    3.6677    0.0346 H   0  0  0  0  0  0  0  0  0  0  0  0
   -3.3919    4.1266   -0.2514 H   0  0  0  0  0  0  0  0  0  0  0  0
   -3.0772    4.2222    1.5061 H   0  0  0  0  0  0  0  0  0  0  0  0
   -0.1882   -2.3432   -1.8910 H   0  0  0  0  0  0  0  0  0  0  0  0
    0.8411   -2.3461   -0.4285 H   0  0  0  0  0  0  0  0  0  0  0  0
   -0.2449   -4.6785   -1.2551 H   0  0  0  0  0  0  0  0  0  0  0  0
   -0.2497   -4.2746    0.4750 H   0  0  0  0  0  0  0  0  0  0  0  0
   -2.5160   -3.8625   -1.5248 H   0  0  0  0  0  0  0  0  0  0  0  0
   -2.6084   -4.6673    0.0563 H   0  0  0  0  0  0  0  0  0  0  0  0
   -3.2866   -2.0328   -0.2876 H   0  0  0  0  0  0  0  0  0  0  0  0
   -2.5197   -2.5853    1.2301 H   0  0  0  0  0  0  0  0  0  0  0  0
    3.7382   -0.3854   -2.4499 H   0  0  0  0  0  0  0  0  0  0  0  0
    5.3049   -2.2646   -2.3018 H   0  0  0  0  0  0  0  0  0  0  0  0
    6.5078   -0.9482    1.6559 H   0  0  0  0  0  0  0  0  0  0  0  0
    4.9084    0.9233    1.5074 H   0  0  0  0  0  0  0  0  0  0  0  0
  1  2  2  0
  2  3  1  0
  3  4  1  0
  4  5  1  0
  5  6  2  0
  6  7  1  0
  7  8  1  0
  8  9  1  0
  9 10  1  0
 10 11  1  0
 11 12  1  0
  7 13  2  0
 13 14  1  0
 14 15  1  0
 15 16  1  0
 16 17  1  0
 17 18  1  0
 18 19  1  0
 14 20  2  0
  2 21  1  0
 21 22  2  0
 22 23  1  0
 23 24  2  0
 24 25  1  0
 25 26  2  0
 25 27  1  0
 24 28  1  0
 28 29  2  0
 20  5  1  0
 29 21  1  0
 12  8  1  0
 19 15  1  0
  3 30  1  0
  4 31  1  0
  6 32  1  0
  9 33  1  0
  9 34  1  0
 10 35  1  0
 10 36  1  0
 11 37  1  0
 11 38  1  0
 12 39  1  0
 12 40  1  0
 16 41  1  0
 16 42  1  0
 17 43  1  0
 17 44  1  0
 18 45  1  0
 18 46  1  0
 19 47  1  0
 19 48  1  0
 22 49  1  0
 23 50  1  0
 28 51  1  0
 29 52  1  0
M  CHG  2  25   1  27  -1
M  END
$$$$
