
     RDKit          3D

 39 41  0  0  0  0  0  0  0  0999 V2000
    1.5319    3.1969   -2.9549 C   0  0  0  0  0  0  0  0  0  0  0  0
    0.4332    3.8640   -2.1448 C   0  0  0  0  0  0  0  0  0  0  0  0
   -1.1274    2.9206   -2.2138 S   0  0  0  0  0  0  0  0  0  0  0  0
   -0.7682    1.5528   -1.1186 C   0  0  0  0  0  0  0  0  0  0  0  0
   -1.5995    0.4527   -1.1465 C   0  0  0  0  0  0  0  0  0  0  0  0
   -1.3136   -0.5863   -0.2852 C   0  0  0  0  0  0  0  0  0  0  0  0
   -2.0956   -1.7196   -0.2329 N   0  0  0  0  0  0  0  0  0  0  0  0
   -2.8794   -2.2034   -1.3652 C   0  0  0  0  0  0  0  0  0  0  0  0
   -2.9250   -3.7206   -1.1749 C   0  0  0  0  0  0  0  0  0  0  0  0
   -2.7141   -3.9029    0.3195 C   0  0  0  0  0  0  0  0  0  0  0  0
   -1.6943   -2.8163    0.6437 C   0  0  0  0  0  0  0  0  0  0  0  0
   -0.2741   -0.4943    0.5607 N   0  0  0  0  0  0  0  0  0  0  0  0
    0.4948    0.6047    0.5129 C   0  0  0  0  0  0  0  0  0  0  0  0
    1.6115    0.7064    1.4586 C   0  0  0  0  0  0  0  0  0  0  0  0
    1.7598    1.8864    2.2209 C   0  0  0  0  0  0  0  0  0  0  0  0
    2.7936    2.0368    3.1489 C   0  0  0  0  0  0  0  0  0  0  0  0
    3.7113    1.0099    3.3347 C   0  0  0  0  0  0  0  0  0  0  0  0
    3.5977   -0.1608    2.5870 C   0  0  0  0  0  0  0  0  0  0  0  0
    2.5609   -0.3134    1.6542 C   0  0  0  0  0  0  0  0  0  0  0  0
    2.5620   -1.7833    0.7356 Cl  0  0  0  0  0  0  0  0  0  0  0  0
    0.2793    1.6557   -0.2911 N   0  0  0  0  0  0  0  0  0  0  0  0
    2.4363    3.8141   -2.9303 H   0  0  0  0  0  0  0  0  0  0  0  0
    1.7967    2.2117   -2.5589 H   0  0  0  0  0  0  0  0  0  0  0  0
    1.2405    3.0814   -4.0043 H   0  0  0  0  0  0  0  0  0  0  0  0
    0.7467    4.0274   -1.1090 H   0  0  0  0  0  0  0  0  0  0  0  0
    0.2301    4.8518   -2.5720 H   0  0  0  0  0  0  0  0  0  0  0  0
   -2.4516    0.4197   -1.8112 H   0  0  0  0  0  0  0  0  0  0  0  0
   -2.4310   -1.9644   -2.3361 H   0  0  0  0  0  0  0  0  0  0  0  0
   -3.8878   -1.7777   -1.3231 H   0  0  0  0  0  0  0  0  0  0  0  0
   -3.8625   -4.1581   -1.5296 H   0  0  0  0  0  0  0  0  0  0  0  0
   -2.1010   -4.1897   -1.7263 H   0  0  0  0  0  0  0  0  0  0  0  0
   -3.6520   -3.7160    0.8561 H   0  0  0  0  0  0  0  0  0  0  0  0
   -2.3592   -4.9036    0.5805 H   0  0  0  0  0  0  0  0  0  0  0  0
   -0.6839   -3.1662    0.3979 H   0  0  0  0  0  0  0  0  0  0  0  0
   -1.7367   -2.5399    1.7025 H   0  0  0  0  0  0  0  0  0  0  0  0
    1.0481    2.7018    2.0921 H   0  0  0  0  0  0  0  0  0  0  0  0
    2.8771    2.9557    3.7242 H   0  0  0  0  0  0  0  0  0  0  0  0
    4.5179    1.1208    4.0548 H   0  0  0  0  0  0  0  0  0  0  0  0
    4.3274   -0.9548    2.7281 H   0  0  0  0  0  0  0  0  0  0  0  0
  1  2  1  0
  2  3  1  0
  3  4  1  0
  4  5  2  0
  5  6  1  0
  6  7  1  0
  7  8  1  0
  8  9  1  0
  9 10  1  0
 10 11  1  0
  6 12  2  0
 12 13  1  0
 13 14  1  0
 14 15  2  0
 15 16  1  0
 16 17  2  0
 17 18  1  0
 18 19  2  0
 19 20  1  0
 13 21  2  0
 21  4  1  0
 11  7  1  0
 19 14  1  0
  1 22  1  0
  1 23  1  0
  1 24  1  0
  2 25  1  0
  2 26  1  0
  5 27  1  0
  8 28  1  0
  8 29  1  0
  9 30  1  0
  9 31  1  0
 10 32  1  0
 10 33  1  0
 11 34  1  0
 11 35  1  0
 15 36  1  0
 16 37  1  0
 17 38  1  0
 18 39  1  0
M  END
$$$$
