
     RDKit          3D

 54 57  0  0  0  0  0  0  0  0999 V2000
   -7.9178    0.2315   -0.6011 C   0  0  0  0  0  0  0  0  0  0  0  0
   -7.1209    1.2274    0.0241 O   0  0  0  0  0  0  0  0  0  0  0  0
   -5.7998    0.9292    0.2118 C   0  0  0  0  0  0  0  0  0  0  0  0
   -5.1143    1.7974    1.0587 C   0  0  0  0  0  0  0  0  0  0  0  0
   -3.7541    1.6092    1.3232 C   0  0  0  0  0  0  0  0  0  0  0  0
   -3.0491    0.5443    0.7381 C   0  0  0  0  0  0  0  0  0  0  0  0
   -1.6549    0.4022    1.0262 N   0  0  0  0  0  0  0  0  0  0  0  0
   -1.0181    1.4070    1.7019 N   0  0  0  0  0  0  0  0  0  0  0  0
    0.2687    1.0712    1.7033 C   0  0  0  0  0  0  0  0  0  0  0  0
    0.4960   -0.1766    1.1163 C   0  0  0  0  0  0  0  0  0  0  0  0
   -0.7600   -0.6229    0.7449 C   0  0  0  0  0  0  0  0  0  0  0  0
   -1.0308   -1.9725    0.1664 C   0  0  0  0  0  0  0  0  0  0  0  0
    0.1611   -2.9523    0.4157 C   0  0  0  0  0  0  0  0  0  0  0  0
    0.1274   -3.4816    1.8647 C   0  0  0  0  0  0  0  0  0  0  0  0
    0.0165   -4.1566   -0.5327 C   0  0  0  0  0  0  0  0  0  0  0  0
    1.5188   -2.2448    0.1201 C   0  0  0  0  0  0  0  0  0  0  0  0
    1.7464   -0.9726    0.9699 C   0  0  0  0  0  0  0  0  0  0  0  0
    2.8249   -0.1295    0.4953 N   0  0  0  0  0  0  0  0  0  0  0  0
    2.8908    0.4557   -0.7531 C   0  0  0  0  0  0  0  0  0  0  0  0
    2.1346    0.2206   -1.6880 O   0  0  0  0  0  0  0  0  0  0  0  0
    3.9865    1.4571   -0.8908 C   0  0  0  0  0  0  0  0  0  0  0  0
    4.1941    2.1032   -2.0986 C   0  0  0  0  0  0  0  0  0  0  0  0
    5.1717    3.0314   -2.2618 N   0  0  0  0  0  0  0  0  0  0  0  0
    5.9282    3.2952   -1.1670 C   0  0  0  0  0  0  0  0  0  0  0  0
    7.0097    4.3216   -1.2934 C   0  0  0  0  0  0  0  0  0  0  0  0
    5.7098    2.6385    0.0428 C   0  0  0  0  0  0  0  0  0  0  0  0
    4.7429    1.7056    0.2182 N   0  0  0  0  0  0  0  0  0  0  0  0
   -3.7389   -0.3126   -0.1245 C   0  0  0  0  0  0  0  0  0  0  0  0
   -5.1063   -0.1230   -0.3810 C   0  0  0  0  0  0  0  0  0  0  0  0
   -8.9526    0.5875   -0.6142 H   0  0  0  0  0  0  0  0  0  0  0  0
   -7.8930   -0.7067   -0.0327 H   0  0  0  0  0  0  0  0  0  0  0  0
   -7.6118    0.0681   -1.6401 H   0  0  0  0  0  0  0  0  0  0  0  0
   -5.6390    2.6326    1.5163 H   0  0  0  0  0  0  0  0  0  0  0  0
   -3.2566    2.3121    1.9887 H   0  0  0  0  0  0  0  0  0  0  0  0
    0.9831    1.7466    2.1547 H   0  0  0  0  0  0  0  0  0  0  0  0
   -1.9433   -2.4032    0.5923 H   0  0  0  0  0  0  0  0  0  0  0  0
   -1.1787   -1.8562   -0.9146 H   0  0  0  0  0  0  0  0  0  0  0  0
    0.1612   -2.6757    2.6049 H   0  0  0  0  0  0  0  0  0  0  0  0
   -0.7894   -4.0524    2.0509 H   0  0  0  0  0  0  0  0  0  0  0  0
    0.9769   -4.1471    2.0578 H   0  0  0  0  0  0  0  0  0  0  0  0
    0.0176   -3.8371   -1.5803 H   0  0  0  0  0  0  0  0  0  0  0  0
   -0.9211   -4.6934   -0.3492 H   0  0  0  0  0  0  0  0  0  0  0  0
    0.8432   -4.8667   -0.4043 H   0  0  0  0  0  0  0  0  0  0  0  0
    1.5442   -2.0029   -0.9495 H   0  0  0  0  0  0  0  0  0  0  0  0
    2.3564   -2.9375    0.2833 H   0  0  0  0  0  0  0  0  0  0  0  0
    2.0536   -1.2917    1.9753 H   0  0  0  0  0  0  0  0  0  0  0  0
    3.4771    0.2466    1.1776 H   0  0  0  0  0  0  0  0  0  0  0  0
    3.5827    1.8966   -2.9715 H   0  0  0  0  0  0  0  0  0  0  0  0
    7.9851    3.8724   -1.0789 H   0  0  0  0  0  0  0  0  0  0  0  0
    7.0396    4.7343   -2.3065 H   0  0  0  0  0  0  0  0  0  0  0  0
    6.8321    5.1464   -0.5958 H   0  0  0  0  0  0  0  0  0  0  0  0
    6.3161    2.8529    0.9177 H   0  0  0  0  0  0  0  0  0  0  0  0
   -3.2532   -1.1213   -0.6513 H   0  0  0  0  0  0  0  0  0  0  0  0
   -5.5934   -0.8073   -1.0688 H   0  0  0  0  0  0  0  0  0  0  0  0
  1  2  1  0
  2  3  1  0
  3  4  2  0
  4  5  1  0
  5  6  2  0
  6  7  1  0
  7  8  1  0
  8  9  2  0
  9 10  1  0
 10 11  2  0
 11 12  1  0
 12 13  1  0
 13 14  1  0
 13 15  1  0
 13 16  1  0
 16 17  1  0
 17 18  1  0
 18 19  1  0
 19 20  2  0
 19 21  1  0
 21 22  2  0
 22 23  1  0
 23 24  2  0
 24 25  1  0
 24 26  1  0
 26 27  2  0
  6 28  1  0
 28 29  2  0
 29  3  1  0
 11  7  1  0
 27 21  1  0
 17 10  1  0
  1 30  1  0
  1 31  1  0
  1 32  1  0
  4 33  1  0
  5 34  1  0
  9 35  1  0
 12 36  1  0
 12 37  1  0
 14 38  1  0
 14 39  1  0
 14 40  1  0
 15 41  1  0
 15 42  1  0
 15 43  1  0
 16 44  1  0
 16 45  1  0
 17 46  1  0
 18 47  1  0
 22 48  1  0
 25 49  1  0
 25 50  1  0
 25 51  1  0
 26 52  1  0
 28 53  1  0
 29 54  1  0
M  END
$$$$
