
     RDKit          3D

 63 67  0  0  0  0  0  0  0  0999 V2000
   -2.8961    6.2687    2.0233 C   0  0  0  0  0  0  0  0  0  0  0  0
   -3.4837    5.7365    0.8433 O   0  0  0  0  0  0  0  0  0  0  0  0
   -3.4837    4.3752    0.7136 C   0  0  0  0  0  0  0  0  0  0  0  0
   -4.0399    3.9021   -0.4766 C   0  0  0  0  0  0  0  0  0  0  0  0
   -4.1016    2.5308   -0.7407 C   0  0  0  0  0  0  0  0  0  0  0  0
   -3.6087    1.6079    0.1893 C   0  0  0  0  0  0  0  0  0  0  0  0
   -3.6536    0.1650   -0.0829 C   0  0  0  0  0  0  0  0  0  0  0  0
   -5.1838   -0.5787   -0.2712 S   0  0  0  0  0  0  0  0  0  0  0  0
   -4.5029   -2.1374   -0.5109 C   0  0  0  0  0  0  0  0  0  0  0  0
   -5.2116   -3.3373   -0.7470 C   0  0  0  0  0  0  0  0  0  0  0  0
   -4.4980   -4.5237   -0.9276 C   0  0  0  0  0  0  0  0  0  0  0  0
   -5.0440   -5.7570   -1.1629 O   0  0  0  0  0  0  0  0  0  0  0  0
   -6.4623   -5.8298   -1.2407 C   0  0  0  0  0  0  0  0  0  0  0  0
   -3.1095   -4.5081   -0.8756 C   0  0  0  0  0  0  0  0  0  0  0  0
   -2.4121   -3.3184   -0.6416 C   0  0  0  0  0  0  0  0  0  0  0  0
   -3.1100   -2.0999   -0.4477 C   0  0  0  0  0  0  0  0  0  0  0  0
   -2.6252   -0.7597   -0.1919 C   0  0  0  0  0  0  0  0  0  0  0  0
   -1.2226   -0.3754   -0.0591 C   0  0  0  0  0  0  0  0  0  0  0  0
   -0.6152    0.4466   -1.0120 C   0  0  0  0  0  0  0  0  0  0  0  0
    0.7289    0.8009   -0.8726 C   0  0  0  0  0  0  0  0  0  0  0  0
    1.4816    0.3376    0.2095 C   0  0  0  0  0  0  0  0  0  0  0  0
    2.7810    0.7607    0.2210 O   0  0  0  0  0  0  0  0  0  0  0  0
    3.6281    0.2464    1.2496 C   0  0  0  0  0  0  0  0  0  0  0  0
    5.0587    0.7879    1.0579 C   0  0  0  0  0  0  0  0  0  0  0  0
    5.7231    0.3932   -0.2010 N   0  0  0  0  0  0  0  0  0  0  0  0
    7.0148    1.1003   -0.3420 C   0  0  0  0  0  0  0  0  0  0  0  0
    7.7546    0.6782   -1.6206 C   0  0  0  0  0  0  0  0  0  0  0  0
    7.9860   -0.7365   -1.6376 O   0  0  0  0  0  0  0  0  0  0  0  0
    6.7348   -1.4321   -1.5661 C   0  0  0  0  0  0  0  0  0  0  0  0
    5.9613   -1.0617   -0.2888 C   0  0  0  0  0  0  0  0  0  0  0  0
    0.8760   -0.4836    1.1610 C   0  0  0  0  0  0  0  0  0  0  0  0
   -0.4707   -0.8406    1.0260 C   0  0  0  0  0  0  0  0  0  0  0  0
   -3.0528    2.0872    1.3824 C   0  0  0  0  0  0  0  0  0  0  0  0
   -2.9897    3.4616    1.6438 C   0  0  0  0  0  0  0  0  0  0  0  0
   -1.8358    6.0041    2.0907 H   0  0  0  0  0  0  0  0  0  0  0  0
   -3.4418    5.9465    2.9160 H   0  0  0  0  0  0  0  0  0  0  0  0
   -2.9638    7.3595    1.9677 H   0  0  0  0  0  0  0  0  0  0  0  0
   -4.4252    4.6082   -1.2083 H   0  0  0  0  0  0  0  0  0  0  0  0
   -4.5309    2.1929   -1.6810 H   0  0  0  0  0  0  0  0  0  0  0  0
   -6.2943   -3.3058   -0.7835 H   0  0  0  0  0  0  0  0  0  0  0  0
   -6.7334   -6.8717   -1.4361 H   0  0  0  0  0  0  0  0  0  0  0  0
   -6.8437   -5.2254   -2.0702 H   0  0  0  0  0  0  0  0  0  0  0  0
   -6.9249   -5.5380   -0.2921 H   0  0  0  0  0  0  0  0  0  0  0  0
   -2.5544   -5.4320   -1.0214 H   0  0  0  0  0  0  0  0  0  0  0  0
   -1.3251   -3.3352   -0.6147 H   0  0  0  0  0  0  0  0  0  0  0  0
   -1.1777    0.8170   -1.8655 H   0  0  0  0  0  0  0  0  0  0  0  0
    1.1957    1.4426   -1.6164 H   0  0  0  0  0  0  0  0  0  0  0  0
    3.6291   -0.8492    1.2435 H   0  0  0  0  0  0  0  0  0  0  0  0
    3.2638    0.5953    2.2239 H   0  0  0  0  0  0  0  0  0  0  0  0
    5.6682    0.4869    1.9195 H   0  0  0  0  0  0  0  0  0  0  0  0
    4.9891    1.8834    1.0730 H   0  0  0  0  0  0  0  0  0  0  0  0
    6.8469    2.1829   -0.3764 H   0  0  0  0  0  0  0  0  0  0  0  0
    7.6534    0.8828    0.5243 H   0  0  0  0  0  0  0  0  0  0  0  0
    8.7302    1.1730   -1.6642 H   0  0  0  0  0  0  0  0  0  0  0  0
    7.1952    0.9660   -2.5191 H   0  0  0  0  0  0  0  0  0  0  0  0
    6.9533   -2.5048   -1.5672 H   0  0  0  0  0  0  0  0  0  0  0  0
    6.1458   -1.2121   -2.4649 H   0  0  0  0  0  0  0  0  0  0  0  0
    5.0124   -1.6070   -0.3031 H   0  0  0  0  0  0  0  0  0  0  0  0
    6.5359   -1.3975    0.5842 H   0  0  0  0  0  0  0  0  0  0  0  0
    1.4187   -0.8615    2.0204 H   0  0  0  0  0  0  0  0  0  0  0  0
   -0.9296   -1.4803    1.7768 H   0  0  0  0  0  0  0  0  0  0  0  0
   -2.6615    1.3918    2.1211 H   0  0  0  0  0  0  0  0  0  0  0  0
   -2.5470    3.7804    2.5808 H   0  0  0  0  0  0  0  0  0  0  0  0
  1  2  1  0
  2  3  1  0
  3  4  2  0
  4  5  1  0
  5  6  2  0
  6  7  1  0
  7  8  1  0
  8  9  1  0
  9 10  2  0
 10 11  1  0
 11 12  1  0
 12 13  1  0
 11 14  2  0
 14 15  1  0
 15 16  2  0
 16 17  1  0
 17 18  1  0
 18 19  2  0
 19 20  1  0
 20 21  2  0
 21 22  1  0
 22 23  1  0
 23 24  1  0
 24 25  1  0
 25 26  1  0
 26 27  1  0
 27 28  1  0
 28 29  1  0
 29 30  1  0
 21 31  1  0
 31 32  2  0
  6 33  1  0
 33 34  2  0
 34  3  1  0
 17  7  2  0
 32 18  1  0
 16  9  1  0
 30 25  1  0
  1 35  1  0
  1 36  1  0
  1 37  1  0
  4 38  1  0
  5 39  1  0
 10 40  1  0
 13 41  1  0
 13 42  1  0
 13 43  1  0
 14 44  1  0
 15 45  1  0
 19 46  1  0
 20 47  1  0
 23 48  1  0
 23 49  1  0
 24 50  1  0
 24 51  1  0
 26 52  1  0
 26 53  1  0
 27 54  1  0
 27 55  1  0
 29 56  1  0
 29 57  1  0
 30 58  1  0
 30 59  1  0
 31 60  1  0
 32 61  1  0
 33 62  1  0
 34 63  1  0
M  END
$$$$
