
     RDKit          3D

 37 39  0  0  0  0  0  0  0  0999 V2000
    4.7837   -0.6559   -1.3686 C   0  0  0  0  0  0  0  0  0  0  0  0
    4.2582   -0.1756   -0.0470 C   0  0  0  0  0  0  0  0  0  0  0  0
    5.1348    0.3368    0.9175 C   0  0  0  0  0  0  0  0  0  0  0  0
    4.6498    0.7918    2.1442 C   0  0  0  0  0  0  0  0  0  0  0  0
    3.2839    0.7568    2.4061 C   0  0  0  0  0  0  0  0  0  0  0  0
    2.8875    1.1918    3.6426 O   0  0  0  0  0  0  0  0  0  0  0  0
    2.3837    0.2980    1.4352 C   0  0  0  0  0  0  0  0  0  0  0  0
    0.9291    0.3050    1.7321 C   0  0  0  0  0  0  0  0  0  0  0  0
    0.5658    0.2045    2.9040 O   0  0  0  0  0  0  0  0  0  0  0  0
   -0.0987    0.4501    0.6826 C   0  0  0  0  0  0  0  0  0  0  0  0
    0.0756    1.2776   -0.4183 C   0  0  0  0  0  0  0  0  0  0  0  0
   -0.8482    1.4296   -1.3976 N   0  0  0  0  0  0  0  0  0  0  0  0
   -2.0108    0.7623   -1.2469 C   0  0  0  0  0  0  0  0  0  0  0  0
   -2.2928   -0.0640   -0.1735 C   0  0  0  0  0  0  0  0  0  0  0  0
   -1.3143   -0.2237    0.8113 C   0  0  0  0  0  0  0  0  0  0  0  0
   -3.5823   -0.8115   -0.1547 C   0  0  0  0  0  0  0  0  0  0  0  0
   -4.5865   -0.2574   -1.0451 N   0  0  0  0  0  0  0  0  0  0  0  0
   -5.9195   -0.8244   -0.9632 C   0  0  0  0  0  0  0  0  0  0  0  0
   -4.2384    0.4552   -2.1752 C   0  0  0  0  0  0  0  0  0  0  0  0
   -5.0202    0.7015   -3.0913 O   0  0  0  0  0  0  0  0  0  0  0  0
   -2.9635    0.9241   -2.2323 N   0  0  0  0  0  0  0  0  0  0  0  0
    2.8797   -0.1873    0.2158 C   0  0  0  0  0  0  0  0  0  0  0  0
    4.7904    0.1674   -2.0894 H   0  0  0  0  0  0  0  0  0  0  0  0
    4.1637   -1.4680   -1.7627 H   0  0  0  0  0  0  0  0  0  0  0  0
    5.8021   -1.0456   -1.2667 H   0  0  0  0  0  0  0  0  0  0  0  0
    6.2056    0.3722    0.7263 H   0  0  0  0  0  0  0  0  0  0  0  0
    5.3366    1.1668    2.8986 H   0  0  0  0  0  0  0  0  0  0  0  0
    1.9514    0.9184    3.7704 H   0  0  0  0  0  0  0  0  0  0  0  0
    0.9750    1.8713   -0.5577 H   0  0  0  0  0  0  0  0  0  0  0  0
   -1.4922   -0.8690    1.6691 H   0  0  0  0  0  0  0  0  0  0  0  0
   -3.9963   -0.8030    0.8601 H   0  0  0  0  0  0  0  0  0  0  0  0
   -3.4043   -1.8502   -0.4572 H   0  0  0  0  0  0  0  0  0  0  0  0
   -6.2484   -0.8252    0.0800 H   0  0  0  0  0  0  0  0  0  0  0  0
   -6.6350   -0.2482   -1.5566 H   0  0  0  0  0  0  0  0  0  0  0  0
   -5.8890   -1.8505   -1.3416 H   0  0  0  0  0  0  0  0  0  0  0  0
   -2.7249    1.5157   -3.0137 H   0  0  0  0  0  0  0  0  0  0  0  0
    2.2087   -0.5957   -0.5365 H   0  0  0  0  0  0  0  0  0  0  0  0
  1  2  1  0
  2  3  2  0
  3  4  1  0
  4  5  2  0
  5  6  1  0
  5  7  1  0
  7  8  1  0
  8  9  2  0
  8 10  1  0
 10 11  2  0
 11 12  1  0
 12 13  2  0
 13 14  1  0
 14 15  2  0
 14 16  1  0
 16 17  1  0
 17 18  1  0
 17 19  1  0
 19 20  2  0
 19 21  1  0
  7 22  2  0
 22  2  1  0
 15 10  1  0
 21 13  1  0
  1 23  1  0
  1 24  1  0
  1 25  1  0
  3 26  1  0
  4 27  1  0
  6 28  1  0
 11 29  1  0
 15 30  1  0
 16 31  1  0
 16 32  1  0
 18 33  1  0
 18 34  1  0
 18 35  1  0
 21 36  1  0
 22 37  1  0
M  END
$$$$
