
     RDKit          3D

 53 56  0  0  0  0  0  0  0  0999 V2000
    1.4812   -1.8860    2.9318 O   0  0  0  0  0  0  0  0  0  0  0  0
    1.2769   -1.6933    1.7335 C   0  0  0  0  0  0  0  0  0  0  0  0
    0.0517   -2.2596    1.0325 C   0  0  0  0  0  0  0  0  0  0  0  0
   -1.0373   -2.7180    1.9998 C   0  0  0  0  0  0  0  0  0  0  0  0
   -1.9923   -1.3287    2.7104 S   0  0  0  0  0  0  0  0  0  0  0  0
   -3.2129   -1.0714    1.4492 C   0  0  0  0  0  0  0  0  0  0  0  0
   -4.3509   -0.4831    1.8314 N   0  0  0  0  0  0  0  0  0  0  0  0
   -5.2781   -0.2659    0.8789 C   0  0  0  0  0  0  0  0  0  0  0  0
   -6.4995    0.3676    1.3555 C   0  0  0  0  0  0  0  0  0  0  0  0
   -6.9267    0.8050    2.5946 C   0  0  0  0  0  0  0  0  0  0  0  0
   -8.2252    1.3383    2.4139 C   0  0  0  0  0  0  0  0  0  0  0  0
   -8.5135    1.1950    1.0775 C   0  0  0  0  0  0  0  0  0  0  0  0
   -7.4757    0.6084    0.4265 O   0  0  0  0  0  0  0  0  0  0  0  0
   -5.0896   -0.6143   -0.4408 C   0  0  0  0  0  0  0  0  0  0  0  0
   -3.8822   -1.2074   -0.7544 C   0  0  0  0  0  0  0  0  0  0  0  0
   -3.6169   -1.6256   -2.1899 C   0  0  0  0  0  0  0  0  0  0  0  0
   -3.9660   -0.6621   -3.0902 F   0  0  0  0  0  0  0  0  0  0  0  0
   -4.3226   -2.7360   -2.5468 F   0  0  0  0  0  0  0  0  0  0  0  0
   -2.3090   -1.9139   -2.4469 F   0  0  0  0  0  0  0  0  0  0  0  0
   -2.9385   -1.4469    0.1917 N   0  0  0  0  0  0  0  0  0  0  0  0
    2.1737   -0.9896    0.9437 N   0  0  0  0  0  0  0  0  0  0  0  0
    3.3353   -0.3588    1.5753 C   0  0  0  0  0  0  0  0  0  0  0  0
    3.7651    0.9451    0.8777 C   0  0  0  0  0  0  0  0  0  0  0  0
    3.9823    0.7570   -0.5696 N   0  0  0  0  0  0  0  0  0  0  0  0
    4.8877    1.5562   -1.2532 C   0  0  0  0  0  0  0  0  0  0  0  0
    5.5242    1.1288   -2.4301 C   0  0  0  0  0  0  0  0  0  0  0  0
    6.4377    1.9387   -3.1184 C   0  0  0  0  0  0  0  0  0  0  0  0
    6.7363    3.2106   -2.6465 C   0  0  0  0  0  0  0  0  0  0  0  0
    6.1199    3.6682   -1.4895 C   0  0  0  0  0  0  0  0  0  0  0  0
    5.2087    2.8504   -0.8084 C   0  0  0  0  0  0  0  0  0  0  0  0
    3.3805   -0.4312   -1.1912 C   0  0  0  0  0  0  0  0  0  0  0  0
    2.0527   -0.8116   -0.5074 C   0  0  0  0  0  0  0  0  0  0  0  0
   -0.3417   -1.5316    0.3179 H   0  0  0  0  0  0  0  0  0  0  0  0
    0.3948   -3.1347    0.4671 H   0  0  0  0  0  0  0  0  0  0  0  0
   -1.7248   -3.4072    1.4975 H   0  0  0  0  0  0  0  0  0  0  0  0
   -0.6015   -3.2761    2.8357 H   0  0  0  0  0  0  0  0  0  0  0  0
   -6.3589    0.7406    3.5132 H   0  0  0  0  0  0  0  0  0  0  0  0
   -8.8709    1.7722    3.1645 H   0  0  0  0  0  0  0  0  0  0  0  0
   -9.3687    1.4460    0.4652 H   0  0  0  0  0  0  0  0  0  0  0  0
   -5.8468   -0.4306   -1.1945 H   0  0  0  0  0  0  0  0  0  0  0  0
    3.1292   -0.1551    2.6320 H   0  0  0  0  0  0  0  0  0  0  0  0
    4.1510   -1.0913    1.5344 H   0  0  0  0  0  0  0  0  0  0  0  0
    2.9868    1.7046    1.0188 H   0  0  0  0  0  0  0  0  0  0  0  0
    4.6794    1.2949    1.3719 H   0  0  0  0  0  0  0  0  0  0  0  0
    5.3428    0.1355   -2.8294 H   0  0  0  0  0  0  0  0  0  0  0  0
    6.9162    1.5663   -4.0205 H   0  0  0  0  0  0  0  0  0  0  0  0
    7.4451    3.8407   -3.1769 H   0  0  0  0  0  0  0  0  0  0  0  0
    6.3374    4.6642   -1.1132 H   0  0  0  0  0  0  0  0  0  0  0  0
    4.7318    3.2623    0.0770 H   0  0  0  0  0  0  0  0  0  0  0  0
    3.1628   -0.2527   -2.2509 H   0  0  0  0  0  0  0  0  0  0  0  0
    4.0841   -1.2698   -1.1216 H   0  0  0  0  0  0  0  0  0  0  0  0
    1.6605   -1.7284   -0.9585 H   0  0  0  0  0  0  0  0  0  0  0  0
    1.3143   -0.0160   -0.6651 H   0  0  0  0  0  0  0  0  0  0  0  0
  1  2  2  0
  2  3  1  0
  3  4  1  0
  4  5  1  0
  5  6  1  0
  6  7  2  0
  7  8  1  0
  8  9  1  0
  9 10  2  0
 10 11  1  0
 11 12  2  0
 12 13  1  0
  8 14  2  0
 14 15  1  0
 15 16  1  0
 16 17  1  0
 16 18  1  0
 16 19  1  0
 15 20  2  0
  2 21  1  0
 21 22  1  0
 22 23  1  0
 23 24  1  0
 24 25  1  0
 25 26  2  0
 26 27  1  0
 27 28  2  0
 28 29  1  0
 29 30  2  0
 24 31  1  0
 31 32  1  0
 20  6  1  0
 32 21  1  0
 13  9  1  0
 30 25  1  0
  3 33  1  0
  3 34  1  0
  4 35  1  0
  4 36  1  0
 10 37  1  0
 11 38  1  0
 12 39  1  0
 14 40  1  0
 22 41  1  0
 22 42  1  0
 23 43  1  0
 23 44  1  0
 26 45  1  0
 27 46  1  0
 28 47  1  0
 29 48  1  0
 30 49  1  0
 31 50  1  0
 31 51  1  0
 32 52  1  0
 32 53  1  0
M  END
$$$$
