
     RDKit          3D

 42 44  0  0  0  0  0  0  0  0999 V2000
    0.1780    4.9674   -1.2675 C   0  0  0  0  0  0  0  0  0  0  0  0
   -1.0534    4.4663   -1.7746 O   0  0  0  0  0  0  0  0  0  0  0  0
   -1.1554    3.1059   -1.9250 C   0  0  0  0  0  0  0  0  0  0  0  0
   -0.1687    2.1704   -1.6156 C   0  0  0  0  0  0  0  0  0  0  0  0
   -0.4050    0.8015   -1.8169 C   0  0  0  0  0  0  0  0  0  0  0  0
    0.6739   -0.1497   -1.5074 C   0  0  0  0  0  0  0  0  0  0  0  0
    0.5881   -1.2198   -0.6919 C   0  0  0  0  0  0  0  0  0  0  0  0
   -0.6033   -1.6257   -0.0311 C   0  0  0  0  0  0  0  0  0  0  0  0
   -1.5907   -1.9574    0.4807 N   0  0  0  0  0  0  0  0  0  0  0  0
    1.8233   -2.0384   -0.5488 C   0  0  0  0  0  0  0  0  0  0  0  0
    2.5543   -2.2605   -1.5111 O   0  0  0  0  0  0  0  0  0  0  0  0
    2.0925   -2.5733    0.7805 C   0  0  0  0  0  0  0  0  0  0  0  0
    2.6651   -3.8167    0.9888 C   0  0  0  0  0  0  0  0  0  0  0  0
    2.7771   -4.0272    2.3339 N   0  0  0  0  0  0  0  0  0  0  0  0
    2.3330   -2.9243    3.0236 C   0  0  0  0  0  0  0  0  0  0  0  0
    2.2871   -2.6942    4.4041 C   0  0  0  0  0  0  0  0  0  0  0  0
    1.8050   -1.4593    4.8421 C   0  0  0  0  0  0  0  0  0  0  0  0
    1.3941   -0.4907    3.9326 C   0  0  0  0  0  0  0  0  0  0  0  0
    1.4469   -0.7359    2.5548 C   0  0  0  0  0  0  0  0  0  0  0  0
    1.9099   -1.9841    2.0799 C   0  0  0  0  0  0  0  0  0  0  0  0
   -1.6315    0.3757   -2.3515 C   0  0  0  0  0  0  0  0  0  0  0  0
   -2.6365    1.2994   -2.6499 C   0  0  0  0  0  0  0  0  0  0  0  0
   -3.8632    0.9786   -3.1671 O   0  0  0  0  0  0  0  0  0  0  0  0
   -4.2755   -0.3771   -3.0554 C   0  0  0  0  0  0  0  0  0  0  0  0
   -2.3804    2.6584   -2.4395 C   0  0  0  0  0  0  0  0  0  0  0  0
   -3.3493    3.5864   -2.7389 O   0  0  0  0  0  0  0  0  0  0  0  0
    1.0084    4.7265   -1.9392 H   0  0  0  0  0  0  0  0  0  0  0  0
    0.0981    6.0574   -1.2142 H   0  0  0  0  0  0  0  0  0  0  0  0
    0.3667    4.5972   -0.2545 H   0  0  0  0  0  0  0  0  0  0  0  0
    0.7913    2.4827   -1.2170 H   0  0  0  0  0  0  0  0  0  0  0  0
    1.6246    0.0871   -1.9875 H   0  0  0  0  0  0  0  0  0  0  0  0
    2.9894   -4.5709    0.2824 H   0  0  0  0  0  0  0  0  0  0  0  0
    3.1522   -4.8608    2.7662 H   0  0  0  0  0  0  0  0  0  0  0  0
    2.6163   -3.4443    5.1163 H   0  0  0  0  0  0  0  0  0  0  0  0
    1.7551   -1.2516    5.9087 H   0  0  0  0  0  0  0  0  0  0  0  0
    1.0274    0.4671    4.2945 H   0  0  0  0  0  0  0  0  0  0  0  0
    1.1297    0.0474    1.8734 H   0  0  0  0  0  0  0  0  0  0  0  0
   -1.7853   -0.6809   -2.5476 H   0  0  0  0  0  0  0  0  0  0  0  0
   -4.1953   -0.7382   -2.0243 H   0  0  0  0  0  0  0  0  0  0  0  0
   -5.3290   -0.4313   -3.3461 H   0  0  0  0  0  0  0  0  0  0  0  0
   -3.7085   -1.0139   -3.7419 H   0  0  0  0  0  0  0  0  0  0  0  0
   -2.9567    4.4509   -2.5164 H   0  0  0  0  0  0  0  0  0  0  0  0
  1  2  1  0
  2  3  1  0
  3  4  2  0
  4  5  1  0
  5  6  1  0
  6  7  2  3
  7  8  1  0
  8  9  3  0
  7 10  1  0
 10 11  2  0
 10 12  1  0
 12 13  2  0
 13 14  1  0
 14 15  1  0
 15 16  2  0
 16 17  1  0
 17 18  2  0
 18 19  1  0
 19 20  2  0
  5 21  2  0
 21 22  1  0
 22 23  1  0
 23 24  1  0
 22 25  2  0
 25 26  1  0
 25  3  1  0
 20 12  1  0
 20 15  1  0
  1 27  1  0
  1 28  1  0
  1 29  1  0
  4 30  1  0
  6 31  1  0
 13 32  1  0
 14 33  1  0
 16 34  1  0
 17 35  1  0
 18 36  1  0
 19 37  1  0
 21 38  1  0
 24 39  1  0
 24 40  1  0
 24 41  1  0
 26 42  1  0
M  END
$$$$
