
     RDKit          3D

 47 50  0  0  0  0  0  0  0  0999 V2000
   -7.0578    0.5762    1.3729 C   0  0  0  0  0  0  0  0  0  0  0  0
   -5.7157    0.7695    0.6705 C   0  0  0  0  0  0  0  0  0  0  0  0
   -5.8558    0.5584   -0.8484 C   0  0  0  0  0  0  0  0  0  0  0  0
   -4.5422    0.8409   -1.5975 C   0  0  0  0  0  0  0  0  0  0  0  0
   -3.3380    0.2571   -0.9063 C   0  0  0  0  0  0  0  0  0  0  0  0
   -3.4204   -0.1744    0.4064 C   0  0  0  0  0  0  0  0  0  0  0  0
   -1.9352   -0.7068    1.0214 S   0  0  0  0  0  0  0  0  0  0  0  0
   -1.1223   -0.3122   -0.4094 C   0  0  0  0  0  0  0  0  0  0  0  0
    0.2553   -0.4423   -0.5267 N   0  0  0  0  0  0  0  0  0  0  0  0
    1.1527   -0.9499    0.3992 C   0  0  0  0  0  0  0  0  0  0  0  0
    0.8510   -1.4487    1.4789 O   0  0  0  0  0  0  0  0  0  0  0  0
    2.5443   -0.8587   -0.0356 C   0  0  0  0  0  0  0  0  0  0  0  0
    3.1691   -0.3168   -1.1485 C   0  0  0  0  0  0  0  0  0  0  0  0
    4.5599   -0.5419   -0.9964 C   0  0  0  0  0  0  0  0  0  0  0  0
    4.7171   -1.2029    0.2018 C   0  0  0  0  0  0  0  0  0  0  0  0
    5.8948   -1.7195    0.9401 C   0  0  0  0  0  0  0  0  0  0  0  0
    6.7416   -0.6209    1.3845 N   0  0  0  0  0  0  0  0  0  0  0  0
    6.5672    0.1411    2.5091 C   0  0  0  0  0  0  0  0  0  0  0  0
    7.6131    1.0236    2.5147 C   0  0  0  0  0  0  0  0  0  0  0  0
    7.9900    2.3604    3.7589 Br  0  0  0  0  0  0  0  0  0  0  0  0
    8.3729    0.7278    1.3769 C   0  0  0  0  0  0  0  0  0  0  0  0
    7.8493   -0.2861    0.6779 N   0  0  0  0  0  0  0  0  0  0  0  0
    3.5025   -1.4009    0.7843 O   0  0  0  0  0  0  0  0  0  0  0  0
   -1.9771    0.1544   -1.4062 C   0  0  0  0  0  0  0  0  0  0  0  0
   -1.4510    0.5092   -2.7263 C   0  0  0  0  0  0  0  0  0  0  0  0
   -2.3090    0.4148   -3.7820 N   0  0  0  0  0  0  0  0  0  0  0  0
   -0.2707    0.7951   -2.9202 O   0  0  0  0  0  0  0  0  0  0  0  0
   -4.6590   -0.1915    1.2504 C   0  0  0  0  0  0  0  0  0  0  0  0
   -6.9588    0.7425    2.4507 H   0  0  0  0  0  0  0  0  0  0  0  0
   -7.4459   -0.4365    1.2199 H   0  0  0  0  0  0  0  0  0  0  0  0
   -7.8008    1.2842    0.9911 H   0  0  0  0  0  0  0  0  0  0  0  0
   -5.3864    1.8033    0.8445 H   0  0  0  0  0  0  0  0  0  0  0  0
   -6.1657   -0.4772   -1.0433 H   0  0  0  0  0  0  0  0  0  0  0  0
   -6.6436    1.2046   -1.2540 H   0  0  0  0  0  0  0  0  0  0  0  0
   -4.3989    1.9256   -1.6782 H   0  0  0  0  0  0  0  0  0  0  0  0
   -4.6521    0.4475   -2.6103 H   0  0  0  0  0  0  0  0  0  0  0  0
    0.6261   -0.0889   -1.4045 H   0  0  0  0  0  0  0  0  0  0  0  0
    2.6937    0.1909   -1.9767 H   0  0  0  0  0  0  0  0  0  0  0  0
    5.3557   -0.2483   -1.6690 H   0  0  0  0  0  0  0  0  0  0  0  0
    5.6007   -2.2840    1.8315 H   0  0  0  0  0  0  0  0  0  0  0  0
    6.4982   -2.3768    0.3049 H   0  0  0  0  0  0  0  0  0  0  0  0
    5.7296   -0.0077    3.1764 H   0  0  0  0  0  0  0  0  0  0  0  0
    9.2811    1.1972    1.0224 H   0  0  0  0  0  0  0  0  0  0  0  0
   -1.8745    0.4936   -4.6923 H   0  0  0  0  0  0  0  0  0  0  0  0
   -3.1012   -0.2074   -3.7180 H   0  0  0  0  0  0  0  0  0  0  0  0
   -4.4318    0.0984    2.2835 H   0  0  0  0  0  0  0  0  0  0  0  0
   -5.0519   -1.2161    1.2748 H   0  0  0  0  0  0  0  0  0  0  0  0
  1  2  1  0
  2  3  1  0
  3  4  1  0
  4  5  1  0
  5  6  2  0
  6  7  1  0
  7  8  1  0
  8  9  1  0
  9 10  1  0
 10 11  2  0
 10 12  1  0
 12 13  2  0
 13 14  1  0
 14 15  2  0
 15 16  1  0
 16 17  1  0
 17 18  1  0
 18 19  2  0
 19 20  1  0
 19 21  1  0
 21 22  2  0
 15 23  1  0
  8 24  2  0
 24 25  1  0
 25 26  1  0
 25 27  2  0
  6 28  1  0
 28  2  1  0
 24  5  1  0
 23 12  1  0
 22 17  1  0
  1 29  1  0
  1 30  1  0
  1 31  1  0
  2 32  1  0
  3 33  1  0
  3 34  1  0
  4 35  1  0
  4 36  1  0
  9 37  1  0
 13 38  1  0
 14 39  1  0
 16 40  1  0
 16 41  1  0
 18 42  1  0
 21 43  1  0
 26 44  1  0
 26 45  1  0
 28 46  1  0
 28 47  1  0
M  END
$$$$
