
     RDKit          3D

 42 45  0  0  0  0  0  0  0  0999 V2000
   -4.4751    2.4686   -1.5865 O   0  0  0  0  0  0  0  0  0  0  0  0
   -4.1032    1.7528   -0.6573 C   0  0  0  0  0  0  0  0  0  0  0  0
   -2.7543    1.8584   -0.1047 C   0  0  0  0  0  0  0  0  0  0  0  0
   -1.7003    0.9139   -0.1878 C   0  0  0  0  0  0  0  0  0  0  0  0
   -0.6437    1.5079    0.4595 C   0  0  0  0  0  0  0  0  0  0  0  0
    0.7560    1.1230    0.7535 C   0  0  0  0  0  0  0  0  0  0  0  0
    1.1279    0.1307   -0.2057 O   0  0  0  0  0  0  0  0  0  0  0  0
    2.4566   -0.1867   -0.2717 C   0  0  0  0  0  0  0  0  0  0  0  0
    3.4183    0.1185    0.6890 C   0  0  0  0  0  0  0  0  0  0  0  0
    4.7524   -0.2608    0.4957 C   0  0  0  0  0  0  0  0  0  0  0  0
    5.1364   -0.9491   -0.6623 C   0  0  0  0  0  0  0  0  0  0  0  0
    6.4991   -1.3035   -0.8425 N   0  0  0  0  0  0  0  0  0  0  0  0
    7.0978   -1.9371   -1.9043 C   0  0  0  0  0  0  0  0  0  0  0  0
    8.3905   -2.0565   -1.7039 N   0  0  0  0  0  0  0  0  0  0  0  0
    8.5544   -1.4835   -0.4809 C   0  0  0  0  0  0  0  0  0  0  0  0
    7.4456   -1.0130    0.0879 N   0  0  0  0  0  0  0  0  0  0  0  0
    4.1682   -1.2673   -1.6210 C   0  0  0  0  0  0  0  0  0  0  0  0
    2.8357   -0.8866   -1.4179 C   0  0  0  0  0  0  0  0  0  0  0  0
   -1.0363    2.7233    0.9179 O   0  0  0  0  0  0  0  0  0  0  0  0
   -2.3566    2.9511    0.5677 N   0  0  0  0  0  0  0  0  0  0  0  0
   -4.9336    0.7920   -0.0977 N   0  0  0  0  0  0  0  0  0  0  0  0
   -6.3088    0.6450   -0.5427 C   0  0  0  0  0  0  0  0  0  0  0  0
   -7.0071   -0.0777    0.5996 C   0  0  0  0  0  0  0  0  0  0  0  0
   -5.8888   -0.9165    1.2026 C   0  0  0  0  0  0  0  0  0  0  0  0
   -4.6792    0.0022    1.0992 C   0  0  0  0  0  0  0  0  0  0  0  0
   -1.7065   -0.0496   -0.6724 H   0  0  0  0  0  0  0  0  0  0  0  0
    1.4045    2.0039    0.6828 H   0  0  0  0  0  0  0  0  0  0  0  0
    0.8007    0.6939    1.7609 H   0  0  0  0  0  0  0  0  0  0  0  0
    3.1694    0.6400    1.6054 H   0  0  0  0  0  0  0  0  0  0  0  0
    5.4849   -0.0130    1.2660 H   0  0  0  0  0  0  0  0  0  0  0  0
    6.5655   -2.2772   -2.7800 H   0  0  0  0  0  0  0  0  0  0  0  0
    9.5151   -1.4061    0.0152 H   0  0  0  0  0  0  0  0  0  0  0  0
    4.4073   -1.8009   -2.5335 H   0  0  0  0  0  0  0  0  0  0  0  0
    2.0839   -1.1383   -2.1611 H   0  0  0  0  0  0  0  0  0  0  0  0
   -6.7615    1.6139   -0.7675 H   0  0  0  0  0  0  0  0  0  0  0  0
   -6.3003    0.0395   -1.4547 H   0  0  0  0  0  0  0  0  0  0  0  0
   -7.3669    0.6463    1.3396 H   0  0  0  0  0  0  0  0  0  0  0  0
   -7.8580   -0.6772    0.2670 H   0  0  0  0  0  0  0  0  0  0  0  0
   -6.0917   -1.2351    2.2288 H   0  0  0  0  0  0  0  0  0  0  0  0
   -5.7325   -1.8116    0.5892 H   0  0  0  0  0  0  0  0  0  0  0  0
   -4.6207    0.6830    1.9554 H   0  0  0  0  0  0  0  0  0  0  0  0
   -3.7449   -0.5604    1.0217 H   0  0  0  0  0  0  0  0  0  0  0  0
  1  2  2  0
  2  3  1  0
  3  4  1  0
  4  5  2  0
  5  6  1  0
  6  7  1  0
  7  8  1  0
  8  9  2  0
  9 10  1  0
 10 11  2  0
 11 12  1  0
 12 13  1  0
 13 14  2  0
 14 15  1  0
 15 16  2  0
 11 17  1  0
 17 18  2  0
  5 19  1  0
 19 20  1  0
  2 21  1  0
 21 22  1  0
 22 23  1  0
 23 24  1  0
 24 25  1  0
 20  3  2  0
 25 21  1  0
 18  8  1  0
 16 12  1  0
  4 26  1  0
  6 27  1  0
  6 28  1  0
  9 29  1  0
 10 30  1  0
 13 31  1  0
 15 32  1  0
 17 33  1  0
 18 34  1  0
 22 35  1  0
 22 36  1  0
 23 37  1  0
 23 38  1  0
 24 39  1  0
 24 40  1  0
 25 41  1  0
 25 42  1  0
M  END
$$$$
