
     RDKit          3D

 55 58  0  0  0  0  0  0  0  0999 V2000
    7.5735    0.6618    0.0602 C   0  0  0  0  0  0  0  0  0  0  0  0
    6.1949    0.9227    0.2938 O   0  0  0  0  0  0  0  0  0  0  0  0
    5.3550   -0.1565    0.3830 C   0  0  0  0  0  0  0  0  0  0  0  0
    5.7414   -1.4853    0.1770 C   0  0  0  0  0  0  0  0  0  0  0  0
    4.8050   -2.5190    0.2667 C   0  0  0  0  0  0  0  0  0  0  0  0
    3.4742   -2.2348    0.5556 C   0  0  0  0  0  0  0  0  0  0  0  0
    3.0779   -0.9155    0.7619 C   0  0  0  0  0  0  0  0  0  0  0  0
    4.0130    0.1332    0.6923 C   0  0  0  0  0  0  0  0  0  0  0  0
    3.5375    1.5514    0.9039 C   0  0  0  0  0  0  0  0  0  0  0  0
    3.1269    2.1487   -0.3623 N   0  0  0  0  0  0  0  0  0  0  0  0
    1.9867    3.3637   -0.3445 S   0  0  0  0  0  6  0  0  0  0  0  0
    2.1498    4.1232    0.8746 O   0  0  0  0  0  0  0  0  0  0  0  0
    2.0260    3.9915   -1.6467 O   0  0  0  0  0  0  0  0  0  0  0  0
    0.4789    2.4301   -0.2498 C   0  0  0  0  0  0  0  0  0  0  0  0
   -0.2580    2.4093    0.9459 C   0  0  0  0  0  0  0  0  0  0  0  0
   -1.4362    1.6587    1.0313 C   0  0  0  0  0  0  0  0  0  0  0  0
   -1.8638    0.9605   -0.0874 C   0  0  0  0  0  0  0  0  0  0  0  0
   -1.1254    0.9948   -1.2750 C   0  0  0  0  0  0  0  0  0  0  0  0
    0.0508    1.7218   -1.3772 C   0  0  0  0  0  0  0  0  0  0  0  0
   -1.7303    0.0982   -2.3094 C   0  0  0  0  0  0  0  0  0  0  0  0
   -3.1191   -0.1847   -1.6971 C   0  0  0  0  0  0  0  0  0  0  0  0
   -4.1819    0.6911   -2.3741 C   0  0  0  0  0  0  0  0  0  0  0  0
   -3.0018    0.1406   -0.2522 N   0  0  0  0  0  0  0  0  0  0  0  0
   -3.8539   -0.2714    0.7703 C   0  0  0  0  0  0  0  0  0  0  0  0
   -3.7499    0.1368    1.9339 O   0  0  0  0  0  0  0  0  0  0  0  0
   -4.9340   -1.3250    0.3853 C   0  0  0  0  0  0  0  0  0  0  0  0
   -4.4868   -2.8154    0.3594 C   0  0  0  0  0  0  0  0  0  0  0  0
   -5.8803   -3.1800    0.9016 C   0  0  0  0  0  0  0  0  0  0  0  0
   -5.9440   -1.7593    1.4901 C   0  0  0  0  0  0  0  0  0  0  0  0
    7.7255    0.1979   -0.9199 H   0  0  0  0  0  0  0  0  0  0  0  0
    8.0992    1.6215    0.0583 H   0  0  0  0  0  0  0  0  0  0  0  0
    8.0019    0.0497    0.8607 H   0  0  0  0  0  0  0  0  0  0  0  0
    6.7653   -1.7535   -0.0618 H   0  0  0  0  0  0  0  0  0  0  0  0
    5.1166   -3.5479    0.1041 H   0  0  0  0  0  0  0  0  0  0  0  0
    2.7449   -3.0384    0.6177 H   0  0  0  0  0  0  0  0  0  0  0  0
    2.0323   -0.7028    0.9771 H   0  0  0  0  0  0  0  0  0  0  0  0
    2.7081    1.5366    1.6208 H   0  0  0  0  0  0  0  0  0  0  0  0
    4.3267    2.1597    1.3591 H   0  0  0  0  0  0  0  0  0  0  0  0
    3.8363    2.2369   -1.0870 H   0  0  0  0  0  0  0  0  0  0  0  0
    0.0793    2.9700    1.8155 H   0  0  0  0  0  0  0  0  0  0  0  0
   -1.9953    1.6514    1.9611 H   0  0  0  0  0  0  0  0  0  0  0  0
    0.6289    1.7306   -2.2967 H   0  0  0  0  0  0  0  0  0  0  0  0
   -1.7811    0.5668   -3.2965 H   0  0  0  0  0  0  0  0  0  0  0  0
   -1.1438   -0.8254   -2.3717 H   0  0  0  0  0  0  0  0  0  0  0  0
   -3.3869   -1.2383   -1.8249 H   0  0  0  0  0  0  0  0  0  0  0  0
   -5.1672    0.5663   -1.9181 H   0  0  0  0  0  0  0  0  0  0  0  0
   -4.2681    0.4364   -3.4357 H   0  0  0  0  0  0  0  0  0  0  0  0
   -3.9288    1.7550   -2.3010 H   0  0  0  0  0  0  0  0  0  0  0  0
   -5.4828   -1.0496   -0.5233 H   0  0  0  0  0  0  0  0  0  0  0  0
   -4.2489   -3.2255   -0.6254 H   0  0  0  0  0  0  0  0  0  0  0  0
   -3.6671   -3.0507    1.0487 H   0  0  0  0  0  0  0  0  0  0  0  0
   -5.9109   -3.9975    1.6257 H   0  0  0  0  0  0  0  0  0  0  0  0
   -6.6235   -3.3668    0.1180 H   0  0  0  0  0  0  0  0  0  0  0  0
   -5.5617   -1.6953    2.5155 H   0  0  0  0  0  0  0  0  0  0  0  0
   -6.9250   -1.2784    1.4488 H   0  0  0  0  0  0  0  0  0  0  0  0
  1  2  1  0
  2  3  1  0
  3  4  2  0
  4  5  1  0
  5  6  2  0
  6  7  1  0
  7  8  2  0
  8  9  1  0
  9 10  1  0
 10 11  1  0
 11 12  2  0
 11 13  2  0
 11 14  1  0
 14 15  2  0
 15 16  1  0
 16 17  2  0
 17 18  1  0
 18 19  2  0
 18 20  1  0
 20 21  1  0
 21 22  1  0
 21 23  1  0
 23 24  1  0
 24 25  2  0
 24 26  1  0
 26 27  1  0
 27 28  1  0
 28 29  1  0
  8  3  1  0
 19 14  1  0
 29 26  1  0
 23 17  1  0
  1 30  1  0
  1 31  1  0
  1 32  1  0
  4 33  1  0
  5 34  1  0
  6 35  1  0
  7 36  1  0
  9 37  1  0
  9 38  1  0
 10 39  1  0
 15 40  1  0
 16 41  1  0
 19 42  1  0
 20 43  1  0
 20 44  1  0
 21 45  1  0
 22 46  1  0
 22 47  1  0
 22 48  1  0
 26 49  1  0
 27 50  1  0
 27 51  1  0
 28 52  1  0
 28 53  1  0
 29 54  1  0
 29 55  1  0
M  END
$$$$
