
     RDKit          3D

 50 52  0  0  0  0  0  0  0  0999 V2000
    5.4001   -2.3684   -2.9027 C   0  0  0  0  0  0  0  0  0  0  0  0
    4.3168   -1.4990   -2.5916 O   0  0  0  0  0  0  0  0  0  0  0  0
    4.4517   -0.1786   -2.9587 C   0  0  0  0  0  0  0  0  0  0  0  0
    5.5622    0.3602   -3.6158 C   0  0  0  0  0  0  0  0  0  0  0  0
    5.5930    1.7181   -3.9399 C   0  0  0  0  0  0  0  0  0  0  0  0
    4.5183    2.5397   -3.6108 C   0  0  0  0  0  0  0  0  0  0  0  0
    3.4044    2.0108   -2.9547 C   0  0  0  0  0  0  0  0  0  0  0  0
    3.3616    0.6552   -2.6241 C   0  0  0  0  0  0  0  0  0  0  0  0
    2.2740    0.0433   -1.9601 N   0  0  0  0  0  0  0  0  0  0  0  0
    1.1037    0.6288   -1.5090 C   0  0  0  0  0  0  0  0  0  0  0  0
    0.8002    1.8135   -1.6125 O   0  0  0  0  0  0  0  0  0  0  0  0
    0.1840   -0.3919   -0.8346 C   0  0  0  0  0  0  0  0  0  0  0  0
   -0.9873    0.2343   -0.3155 O   0  0  0  0  0  0  0  0  0  0  0  0
   -1.8139   -0.6133    0.3410 C   0  0  0  0  0  0  0  0  0  0  0  0
   -1.6480   -1.8097    0.4961 O   0  0  0  0  0  0  0  0  0  0  0  0
   -2.9611    0.1703    0.8430 C   0  0  0  0  0  0  0  0  0  0  0  0
   -3.7322    0.8442   -0.1234 C   0  0  0  0  0  0  0  0  0  0  0  0
   -4.8539    1.5759    0.2749 C   0  0  0  0  0  0  0  0  0  0  0  0
   -5.6646    2.2728   -0.7301 N   0  0  0  0  0  4  0  0  0  0  0  0
   -5.4367    2.0277   -1.9228 O   0  0  0  0  0  0  0  0  0  0  0  0
   -6.5335    3.0581   -0.3261 O   0  0  0  0  0  1  0  0  0  0  0  0
   -5.2151    1.6388    1.6218 C   0  0  0  0  0  0  0  0  0  0  0  0
   -4.4410    0.9628    2.5695 C   0  0  0  0  0  0  0  0  0  0  0  0
   -3.2983    0.2213    2.2112 C   0  0  0  0  0  0  0  0  0  0  0  0
   -2.6140   -0.3794    3.2623 N   0  0  0  0  0  0  0  0  0  0  0  0
   -1.2116   -0.0209    3.4951 C   0  0  0  0  0  0  0  0  0  0  0  0
   -0.7072   -1.1532    4.3822 C   0  0  0  0  0  0  0  0  0  0  0  0
   -1.4148   -2.3652    3.7995 C   0  0  0  0  0  0  0  0  0  0  0  0
   -2.7985   -1.8310    3.4286 C   0  0  0  0  0  0  0  0  0  0  0  0
    5.5593   -2.4294   -3.9841 H   0  0  0  0  0  0  0  0  0  0  0  0
    6.3135   -2.0622   -2.3818 H   0  0  0  0  0  0  0  0  0  0  0  0
    5.1363   -3.3703   -2.5495 H   0  0  0  0  0  0  0  0  0  0  0  0
    6.4191   -0.2450   -3.8904 H   0  0  0  0  0  0  0  0  0  0  0  0
    6.4570    2.1362   -4.4511 H   0  0  0  0  0  0  0  0  0  0  0  0
    4.5418    3.5968   -3.8642 H   0  0  0  0  0  0  0  0  0  0  0  0
    2.5865    2.6834   -2.7172 H   0  0  0  0  0  0  0  0  0  0  0  0
    2.4100   -0.9522   -1.8059 H   0  0  0  0  0  0  0  0  0  0  0  0
   -0.1015   -1.1393   -1.5845 H   0  0  0  0  0  0  0  0  0  0  0  0
    0.7423   -0.8650   -0.0169 H   0  0  0  0  0  0  0  0  0  0  0  0
   -3.4481    0.7876   -1.1733 H   0  0  0  0  0  0  0  0  0  0  0  0
   -6.0854    2.2015    1.9528 H   0  0  0  0  0  0  0  0  0  0  0  0
   -4.7234    1.0200    3.6204 H   0  0  0  0  0  0  0  0  0  0  0  0
   -1.1294    0.9474    3.9993 H   0  0  0  0  0  0  0  0  0  0  0  0
   -0.6238    0.0162    2.5731 H   0  0  0  0  0  0  0  0  0  0  0  0
   -1.0252   -0.9949    5.4196 H   0  0  0  0  0  0  0  0  0  0  0  0
    0.3821   -1.2477    4.3645 H   0  0  0  0  0  0  0  0  0  0  0  0
   -0.8881   -2.7085    2.9020 H   0  0  0  0  0  0  0  0  0  0  0  0
   -1.4663   -3.2038    4.4999 H   0  0  0  0  0  0  0  0  0  0  0  0
   -3.1945   -2.3374    2.5419 H   0  0  0  0  0  0  0  0  0  0  0  0
   -3.5006   -1.9987    4.2530 H   0  0  0  0  0  0  0  0  0  0  0  0
  1  2  1  0
  2  3  1  0
  3  4  2  0
  4  5  1  0
  5  6  2  0
  6  7  1  0
  7  8  2  0
  8  9  1  0
  9 10  1  0
 10 11  2  0
 10 12  1  0
 12 13  1  0
 13 14  1  0
 14 15  2  0
 14 16  1  0
 16 17  2  0
 17 18  1  0
 18 19  1  0
 19 20  2  0
 19 21  1  0
 18 22  2  0
 22 23  1  0
 23 24  2  0
 24 25  1  0
 25 26  1  0
 26 27  1  0
 27 28  1  0
 28 29  1  0
  8  3  1  0
 24 16  1  0
 29 25  1  0
  1 30  1  0
  1 31  1  0
  1 32  1  0
  4 33  1  0
  5 34  1  0
  6 35  1  0
  7 36  1  0
  9 37  1  0
 12 38  1  0
 12 39  1  0
 17 40  1  0
 22 41  1  0
 23 42  1  0
 26 43  1  0
 26 44  1  0
 27 45  1  0
 27 46  1  0
 28 47  1  0
 28 48  1  0
 29 49  1  0
 29 50  1  0
M  CHG  2  19   1  21  -1
M  END
$$$$
