
     RDKit          3D

 50 53  0  0  0  0  0  0  0  0999 V2000
   -6.3343    5.1294   -0.9789 C   0  0  0  0  0  0  0  0  0  0  0  0
   -6.2471    3.6606   -0.9147 C   0  0  0  0  0  0  0  0  0  0  0  0
   -6.7368    2.7031   -0.0614 C   0  0  0  0  0  0  0  0  0  0  0  0
   -6.2732    1.4822   -0.5975 C   0  0  0  0  0  0  0  0  0  0  0  0
   -6.5313    0.2461   -0.0343 N   0  0  0  0  0  0  0  0  0  0  0  0
   -6.0287   -1.2142   -0.6603 S   0  0  0  0  0  6  0  0  0  0  0  0
   -6.4150   -1.3157   -2.0505 O   0  0  0  0  0  0  0  0  0  0  0  0
   -6.4636   -2.2133    0.2966 O   0  0  0  0  0  0  0  0  0  0  0  0
   -4.2584   -1.1296   -0.5506 C   0  0  0  0  0  0  0  0  0  0  0  0
   -3.6332   -1.3567    0.6769 C   0  0  0  0  0  0  0  0  0  0  0  0
   -2.2373   -1.3096    0.7644 C   0  0  0  0  0  0  0  0  0  0  0  0
   -1.4623   -1.0480   -0.3689 C   0  0  0  0  0  0  0  0  0  0  0  0
   -0.0539   -0.9792   -0.3630 N   0  0  0  0  0  0  0  0  0  0  0  0
    0.7950   -1.1188    0.7236 C   0  0  0  0  0  0  0  0  0  0  0  0
    0.4655   -1.3207    1.8863 O   0  0  0  0  0  0  0  0  0  0  0  0
    2.2483   -0.9854    0.3130 C   0  0  0  0  0  0  0  0  0  0  0  0
    3.1777   -1.1391    1.5112 C   0  0  0  0  0  0  0  0  0  0  0  0
    4.5709   -1.0067    1.1224 N   0  0  0  0  0  0  0  0  0  0  0  0
    5.2319    0.1887    1.0405 C   0  0  0  0  0  0  0  0  0  0  0  0
    4.8205    1.3104    1.2660 O   0  0  0  0  0  0  0  0  0  0  0  0
    6.5821   -0.1152    0.5699 C   0  0  0  0  0  0  0  0  0  0  0  0
    7.6594    0.7177    0.3400 C   0  0  0  0  0  0  0  0  0  0  0  0
    8.8358    0.1243   -0.1293 C   0  0  0  0  0  0  0  0  0  0  0  0
    8.9041   -1.2663   -0.3577 C   0  0  0  0  0  0  0  0  0  0  0  0
    7.7972   -2.0879   -0.1207 C   0  0  0  0  0  0  0  0  0  0  0  0
    6.6491   -1.4787    0.3460 C   0  0  0  0  0  0  0  0  0  0  0  0
    5.3417   -2.0445    0.6739 C   0  0  0  0  0  0  0  0  0  0  0  0
    5.0432   -3.2134    0.5234 O   0  0  0  0  0  0  0  0  0  0  0  0
   -2.1047   -0.8430   -1.5987 C   0  0  0  0  0  0  0  0  0  0  0  0
   -3.4983   -0.8886   -1.6949 C   0  0  0  0  0  0  0  0  0  0  0  0
   -5.5462    1.6866   -1.6967 N   0  0  0  0  0  0  0  0  0  0  0  0
   -5.5314    3.0538   -1.8977 O   0  0  0  0  0  0  0  0  0  0  0  0
   -6.8043    5.4454   -1.9152 H   0  0  0  0  0  0  0  0  0  0  0  0
   -6.9290    5.5240   -0.1493 H   0  0  0  0  0  0  0  0  0  0  0  0
   -5.3366    5.5757   -0.9249 H   0  0  0  0  0  0  0  0  0  0  0  0
   -7.3420    2.8658    0.8166 H   0  0  0  0  0  0  0  0  0  0  0  0
   -7.0483    0.1702    0.8354 H   0  0  0  0  0  0  0  0  0  0  0  0
   -4.2164   -1.5755    1.5684 H   0  0  0  0  0  0  0  0  0  0  0  0
   -1.7860   -1.4896    1.7354 H   0  0  0  0  0  0  0  0  0  0  0  0
    0.3810   -0.7953   -1.2591 H   0  0  0  0  0  0  0  0  0  0  0  0
    2.4721   -1.7515   -0.4389 H   0  0  0  0  0  0  0  0  0  0  0  0
    2.3922   -0.0031   -0.1526 H   0  0  0  0  0  0  0  0  0  0  0  0
    3.0397   -2.1232    1.9742 H   0  0  0  0  0  0  0  0  0  0  0  0
    2.9552   -0.3740    2.2642 H   0  0  0  0  0  0  0  0  0  0  0  0
    7.5918    1.7862    0.5169 H   0  0  0  0  0  0  0  0  0  0  0  0
    9.7113    0.7421   -0.3227 H   0  0  0  0  0  0  0  0  0  0  0  0
    9.8314   -1.7037   -0.7244 H   0  0  0  0  0  0  0  0  0  0  0  0
    7.8348   -3.1584   -0.2949 H   0  0  0  0  0  0  0  0  0  0  0  0
   -1.5331   -0.6412   -2.5014 H   0  0  0  0  0  0  0  0  0  0  0  0
   -3.9800   -0.7221   -2.6566 H   0  0  0  0  0  0  0  0  0  0  0  0
  1  2  1  0
  2  3  2  0
  3  4  1  0
  4  5  1  0
  5  6  1  0
  6  7  2  0
  6  8  2  0
  6  9  1  0
  9 10  2  0
 10 11  1  0
 11 12  2  0
 12 13  1  0
 13 14  1  0
 14 15  2  0
 14 16  1  0
 16 17  1  0
 17 18  1  0
 18 19  1  0
 19 20  2  0
 19 21  1  0
 21 22  2  0
 22 23  1  0
 23 24  2  0
 24 25  1  0
 25 26  2  0
 26 27  1  0
 27 28  2  0
 12 29  1  0
 29 30  2  0
  4 31  2  0
 31 32  1  0
 32  2  1  0
 30  9  1  0
 27 18  1  0
 26 21  1  0
  1 33  1  0
  1 34  1  0
  1 35  1  0
  3 36  1  0
  5 37  1  0
 10 38  1  0
 11 39  1  0
 13 40  1  0
 16 41  1  0
 16 42  1  0
 17 43  1  0
 17 44  1  0
 22 45  1  0
 23 46  1  0
 24 47  1  0
 25 48  1  0
 29 49  1  0
 30 50  1  0
M  END
$$$$
