
     RDKit          3D

 55 58  0  0  0  0  0  0  0  0999 V2000
   -3.4021   -3.5630    3.7058 C   0  0  0  0  0  0  0  0  0  0  0  0
   -3.1646   -3.5946    2.2641 N   0  0  0  0  0  0  0  0  0  0  0  0
   -3.8886   -4.6227    1.5210 C   0  0  0  0  0  0  0  0  0  0  0  0
   -2.7631   -2.4261    1.6102 C   0  0  0  0  0  0  0  0  0  0  0  0
   -2.2792   -1.3067    2.3092 C   0  0  0  0  0  0  0  0  0  0  0  0
   -1.8648   -0.1355    1.6574 C   0  0  0  0  0  0  0  0  0  0  0  0
   -1.9187   -0.0345    0.2676 C   0  0  0  0  0  0  0  0  0  0  0  0
   -1.5263    1.1675   -0.3594 N   0  0  0  0  0  0  0  0  0  0  0  0
   -0.4890    1.1500   -1.2945 C   0  0  0  0  0  0  0  0  0  0  0  0
    0.4439    0.2600   -1.3722 N   0  0  0  0  0  0  0  0  0  0  0  0
    1.3632    0.3460   -2.3807 C   0  0  0  0  0  0  0  0  0  0  0  0
    1.1139    0.0988   -3.5565 O   0  0  0  0  0  0  0  0  0  0  0  0
    2.7621    0.6760   -1.9182 C   0  0  0  0  0  0  0  0  0  0  0  0
    3.5842   -0.6038   -1.8508 C   0  0  0  0  0  0  0  0  0  0  0  0
    4.9871   -0.3377   -1.3676 C   0  0  0  0  0  0  0  0  0  0  0  0
    5.3093   -0.4757   -0.0112 C   0  0  0  0  0  0  0  0  0  0  0  0
    6.6052   -0.2164    0.4361 C   0  0  0  0  0  0  0  0  0  0  0  0
    7.5874    0.1884   -0.4664 C   0  0  0  0  0  0  0  0  0  0  0  0
    7.2748    0.3354   -1.8165 C   0  0  0  0  0  0  0  0  0  0  0  0
    5.9799    0.0764   -2.2660 C   0  0  0  0  0  0  0  0  0  0  0  0
   -0.6063    2.5776   -2.3530 S   0  0  0  0  0  0  0  0  0  0  0  0
   -2.0063    3.2584   -1.4205 C   0  0  0  0  0  0  0  0  0  0  0  0
   -1.5224    4.1708   -0.3028 C   0  0  0  0  0  0  0  0  0  0  0  0
   -2.7782    4.0326    0.9464 S   0  0  0  0  0  6  0  0  0  0  0  0
   -3.7166    5.1203    0.7626 O   0  0  0  0  0  0  0  0  0  0  0  0
   -2.1452    3.7648    2.2194 O   0  0  0  0  0  0  0  0  0  0  0  0
   -3.5416    2.5432    0.3545 C   0  0  0  0  0  0  0  0  0  0  0  0
   -2.6553    2.0296   -0.7707 C   0  0  0  0  0  0  0  0  0  0  0  0
   -2.3670   -1.1416   -0.4525 C   0  0  0  0  0  0  0  0  0  0  0  0
   -2.7749   -2.3100    0.2094 C   0  0  0  0  0  0  0  0  0  0  0  0
   -2.4865   -3.3125    4.2525 H   0  0  0  0  0  0  0  0  0  0  0  0
   -3.7154   -4.5434    4.0808 H   0  0  0  0  0  0  0  0  0  0  0  0
   -4.1903   -2.8454    3.9591 H   0  0  0  0  0  0  0  0  0  0  0  0
   -4.1333   -5.4793    2.1591 H   0  0  0  0  0  0  0  0  0  0  0  0
   -4.8299   -4.2284    1.1224 H   0  0  0  0  0  0  0  0  0  0  0  0
   -3.2805   -5.0218    0.7023 H   0  0  0  0  0  0  0  0  0  0  0  0
   -2.2004   -1.3146    3.3923 H   0  0  0  0  0  0  0  0  0  0  0  0
   -1.4924    0.6952    2.2545 H   0  0  0  0  0  0  0  0  0  0  0  0
    3.1944    1.3956   -2.6240 H   0  0  0  0  0  0  0  0  0  0  0  0
    2.7200    1.1745   -0.9423 H   0  0  0  0  0  0  0  0  0  0  0  0
    3.6260   -1.0852   -2.8371 H   0  0  0  0  0  0  0  0  0  0  0  0
    3.0981   -1.3349   -1.1912 H   0  0  0  0  0  0  0  0  0  0  0  0
    4.5538   -0.7904    0.7063 H   0  0  0  0  0  0  0  0  0  0  0  0
    6.8482   -0.3305    1.4896 H   0  0  0  0  0  0  0  0  0  0  0  0
    8.5963    0.3880   -0.1173 H   0  0  0  0  0  0  0  0  0  0  0  0
    8.0397    0.6520   -2.5212 H   0  0  0  0  0  0  0  0  0  0  0  0
    5.7501    0.1950   -3.3230 H   0  0  0  0  0  0  0  0  0  0  0  0
   -2.7102    3.7794   -2.0787 H   0  0  0  0  0  0  0  0  0  0  0  0
   -1.4398    5.2125   -0.6220 H   0  0  0  0  0  0  0  0  0  0  0  0
   -0.5788    3.8523    0.1509 H   0  0  0  0  0  0  0  0  0  0  0  0
   -4.5200    2.8304   -0.0453 H   0  0  0  0  0  0  0  0  0  0  0  0
   -3.6936    1.8554    1.1863 H   0  0  0  0  0  0  0  0  0  0  0  0
   -3.2705    1.4874   -1.5026 H   0  0  0  0  0  0  0  0  0  0  0  0
   -2.3899   -1.1215   -1.5397 H   0  0  0  0  0  0  0  0  0  0  0  0
   -3.0958   -3.1374   -0.4163 H   0  0  0  0  0  0  0  0  0  0  0  0
  1  2  1  0
  2  3  1  0
  2  4  1  0
  4  5  2  0
  5  6  1  0
  6  7  2  0
  7  8  1  0
  8  9  1  0
  9 10  2  3
 10 11  1  0
 11 12  2  0
 11 13  1  0
 13 14  1  0
 14 15  1  0
 15 16  2  0
 16 17  1  0
 17 18  2  0
 18 19  1  0
 19 20  2  0
  9 21  1  0
 21 22  1  0
 22 23  1  0
 23 24  1  0
 24 25  2  0
 24 26  2  0
 24 27  1  0
 27 28  1  0
  7 29  1  0
 29 30  2  0
 30  4  1  0
 28  8  1  0
 20 15  1  0
 28 22  1  0
  1 31  1  0
  1 32  1  0
  1 33  1  0
  3 34  1  0
  3 35  1  0
  3 36  1  0
  5 37  1  0
  6 38  1  0
 13 39  1  0
 13 40  1  0
 14 41  1  0
 14 42  1  0
 16 43  1  0
 17 44  1  0
 18 45  1  0
 19 46  1  0
 20 47  1  0
 22 48  1  0
 23 49  1  0
 23 50  1  0
 27 51  1  0
 27 52  1  0
 28 53  1  0
 29 54  1  0
 30 55  1  0
M  END
$$$$
