
     RDKit          3D

 47 50  0  0  0  0  0  0  0  0999 V2000
   -0.5358   -0.1975   -3.0321 O   0  0  0  0  0  0  0  0  0  0  0  0
   -0.1038    0.6953   -2.2961 C   0  0  0  0  0  0  0  0  0  0  0  0
   -0.5239    2.1485   -2.5117 C   0  0  0  0  0  0  0  0  0  0  0  0
   -2.3157    2.2878   -2.7782 S   0  0  0  0  0  0  0  0  0  0  0  0
   -2.8947    1.6113   -1.2900 C   0  0  0  0  0  0  0  0  0  0  0  0
   -2.2424    1.6427   -0.1464 N   0  0  0  0  0  0  0  0  0  0  0  0
   -3.0346    0.9903    0.7754 N   0  0  0  0  0  0  0  0  0  0  0  0
   -4.1232    0.6153    0.1324 C   0  0  0  0  0  0  0  0  0  0  0  0
   -5.2961   -0.1056    0.6098 C   0  0  0  0  0  0  0  0  0  0  0  0
   -5.3831   -0.4810    1.9591 C   0  0  0  0  0  0  0  0  0  0  0  0
   -6.4971   -1.1766    2.4390 C   0  0  0  0  0  0  0  0  0  0  0  0
   -7.5383   -1.5060    1.5742 C   0  0  0  0  0  0  0  0  0  0  0  0
   -7.4691   -1.1387    0.2332 C   0  0  0  0  0  0  0  0  0  0  0  0
   -6.3556   -0.4426   -0.2467 C   0  0  0  0  0  0  0  0  0  0  0  0
   -4.1082    0.9890   -1.1837 O   0  0  0  0  0  0  0  0  0  0  0  0
    0.7967    0.4192   -1.2796 N   0  0  0  0  0  0  0  0  0  0  0  0
    1.3611    1.4171   -0.3654 C   0  0  0  0  0  0  0  0  0  0  0  0
    2.2931    0.8302    0.7170 C   0  0  0  0  0  0  0  0  0  0  0  0
    3.2911   -0.0695    0.1203 N   0  0  0  0  0  0  0  0  0  0  0  0
    4.5098   -0.3291    0.7363 C   0  0  0  0  0  0  0  0  0  0  0  0
    5.5504   -0.9735    0.0439 C   0  0  0  0  0  0  0  0  0  0  0  0
    6.7924   -1.2320    0.6346 C   0  0  0  0  0  0  0  0  0  0  0  0
    7.0301   -0.8463    1.9469 C   0  0  0  0  0  0  0  0  0  0  0  0
    6.0261   -0.2033    2.6600 C   0  0  0  0  0  0  0  0  0  0  0  0
    4.7864    0.0518    2.0591 C   0  0  0  0  0  0  0  0  0  0  0  0
    2.8085   -0.9982   -0.9256 C   0  0  0  0  0  0  0  0  0  0  0  0
    1.2793   -0.9510   -1.0938 C   0  0  0  0  0  0  0  0  0  0  0  0
   -0.2456    2.8118   -1.6937 H   0  0  0  0  0  0  0  0  0  0  0  0
   -0.0110    2.5054   -3.4109 H   0  0  0  0  0  0  0  0  0  0  0  0
   -4.5765   -0.2357    2.6496 H   0  0  0  0  0  0  0  0  0  0  0  0
   -6.5465   -1.4635    3.4878 H   0  0  0  0  0  0  0  0  0  0  0  0
   -8.4032   -2.0514    1.9458 H   0  0  0  0  0  0  0  0  0  0  0  0
   -8.2815   -1.3940   -0.4436 H   0  0  0  0  0  0  0  0  0  0  0  0
   -6.3268   -0.1701   -1.3018 H   0  0  0  0  0  0  0  0  0  0  0  0
    1.9181    2.1314   -0.9813 H   0  0  0  0  0  0  0  0  0  0  0  0
    0.5415    1.9559    0.1185 H   0  0  0  0  0  0  0  0  0  0  0  0
    1.7060    0.2773    1.4591 H   0  0  0  0  0  0  0  0  0  0  0  0
    2.7686    1.6771    1.2234 H   0  0  0  0  0  0  0  0  0  0  0  0
    5.4189   -1.2686   -0.9936 H   0  0  0  0  0  0  0  0  0  0  0  0
    7.5701   -1.7287    0.0610 H   0  0  0  0  0  0  0  0  0  0  0  0
    7.9929   -1.0439    2.4093 H   0  0  0  0  0  0  0  0  0  0  0  0
    6.2005    0.1019    3.6883 H   0  0  0  0  0  0  0  0  0  0  0  0
    4.0316    0.5403    2.6675 H   0  0  0  0  0  0  0  0  0  0  0  0
    3.0873   -2.0326   -0.6899 H   0  0  0  0  0  0  0  0  0  0  0  0
    3.2771   -0.7216   -1.8773 H   0  0  0  0  0  0  0  0  0  0  0  0
    0.7874   -1.3433   -0.1963 H   0  0  0  0  0  0  0  0  0  0  0  0
    0.9877   -1.5951   -1.9295 H   0  0  0  0  0  0  0  0  0  0  0  0
  1  2  2  0
  2  3  1  0
  3  4  1  0
  4  5  1  0
  5  6  2  0
  6  7  1  0
  7  8  2  0
  8  9  1  0
  9 10  2  0
 10 11  1  0
 11 12  2  0
 12 13  1  0
 13 14  2  0
  8 15  1  0
  2 16  1  0
 16 17  1  0
 17 18  1  0
 18 19  1  0
 19 20  1  0
 20 21  2  0
 21 22  1  0
 22 23  2  0
 23 24  1  0
 24 25  2  0
 19 26  1  0
 26 27  1  0
 15  5  1  0
 27 16  1  0
 14  9  1  0
 25 20  1  0
  3 28  1  0
  3 29  1  0
 10 30  1  0
 11 31  1  0
 12 32  1  0
 13 33  1  0
 14 34  1  0
 17 35  1  0
 17 36  1  0
 18 37  1  0
 18 38  1  0
 21 39  1  0
 22 40  1  0
 23 41  1  0
 24 42  1  0
 25 43  1  0
 26 44  1  0
 26 45  1  0
 27 46  1  0
 27 47  1  0
M  END
$$$$
