
     RDKit          3D

 62 64  0  0  0  0  0  0  0  0999 V2000
   -4.5220    2.7429   -1.4659 C   0  0  0  0  0  0  0  0  0  0  0  0
   -3.6172    1.7540   -0.7764 C   0  0  0  0  0  0  0  0  0  0  0  0
   -2.3034    2.2158   -0.5170 C   0  0  0  0  0  0  0  0  0  0  0  0
   -1.3480    1.4079    0.0879 C   0  0  0  0  0  0  0  0  0  0  0  0
   -0.1029    2.0032    0.3458 O   0  0  0  0  0  0  0  0  0  0  0  0
    0.8757    1.3314    1.0590 C   0  0  0  0  0  0  0  0  0  0  0  0
    1.9040    1.9015    1.4146 O   0  0  0  0  0  0  0  0  0  0  0  0
    0.6316   -0.1058    1.3768 C   0  0  0  0  0  0  0  0  0  0  0  0
    1.8156   -0.7561    2.0540 C   0  0  0  0  0  0  0  0  0  0  0  0
    2.8954   -1.1094    1.0355 C   0  0  0  0  0  0  0  0  0  0  0  0
    2.6901   -1.1779   -0.1734 O   0  0  0  0  0  0  0  0  0  0  0  0
    4.1174   -1.4047    1.6102 N   0  0  0  0  0  0  0  0  0  0  0  0
    5.2881   -1.6818    0.7973 C   0  0  0  0  0  0  0  0  0  0  0  0
    6.0422   -0.3989    0.4426 C   0  0  0  0  0  0  0  0  0  0  0  0
    7.2381   -0.7147   -0.4640 C   0  0  0  0  0  0  0  0  0  0  0  0
    8.0719    0.4210   -0.8764 N   0  0  0  0  0  0  0  0  0  0  0  0
    7.3466    1.3853   -1.6984 C   0  0  0  0  0  0  0  0  0  0  0  0
    8.7257    1.0906    0.2477 C   0  0  0  0  0  0  0  0  0  0  0  0
   -0.5318   -0.7220    1.0590 C   0  0  0  0  0  0  0  0  0  0  0  0
   -0.7670   -2.1994    1.2537 C   0  0  0  0  0  0  0  0  0  0  0  0
   -1.5975    0.0936    0.4448 C   0  0  0  0  0  0  0  0  0  0  0  0
   -2.9079   -0.3519    0.1872 C   0  0  0  0  0  0  0  0  0  0  0  0
   -3.3674   -1.5935    0.4919 O   0  0  0  0  0  0  0  0  0  0  0  0
   -4.6490   -1.6690    0.1074 C   0  0  0  0  0  0  0  0  0  0  0  0
   -5.0981   -0.4836   -0.4563 C   0  0  0  0  0  0  0  0  0  0  0  0
   -6.5377   -0.2835   -0.9508 C   0  0  0  0  0  0  0  0  0  0  0  0
   -6.5901    0.2133   -2.4045 C   0  0  0  0  0  0  0  0  0  0  0  0
   -7.3023    0.6672   -0.0099 C   0  0  0  0  0  0  0  0  0  0  0  0
   -7.3305   -1.6230   -0.9473 C   0  0  0  0  0  0  0  0  0  0  0  0
   -3.9377    0.4093   -0.4049 C   0  0  0  0  0  0  0  0  0  0  0  0
   -4.1571    3.7671   -1.3438 H   0  0  0  0  0  0  0  0  0  0  0  0
   -4.5518    2.5347   -2.5377 H   0  0  0  0  0  0  0  0  0  0  0  0
   -5.5250    2.7311   -1.0522 H   0  0  0  0  0  0  0  0  0  0  0  0
   -2.0167    3.2338   -0.7861 H   0  0  0  0  0  0  0  0  0  0  0  0
    2.2389   -0.0827    2.8114 H   0  0  0  0  0  0  0  0  0  0  0  0
    1.5418   -1.6675    2.5969 H   0  0  0  0  0  0  0  0  0  0  0  0
    4.2577   -1.2110    2.5930 H   0  0  0  0  0  0  0  0  0  0  0  0
    5.9263   -2.3582    1.3743 H   0  0  0  0  0  0  0  0  0  0  0  0
    4.9774   -2.2042   -0.1114 H   0  0  0  0  0  0  0  0  0  0  0  0
    6.3752    0.0866    1.3688 H   0  0  0  0  0  0  0  0  0  0  0  0
    5.3612    0.3003   -0.0552 H   0  0  0  0  0  0  0  0  0  0  0  0
    7.8807   -1.4524    0.0349 H   0  0  0  0  0  0  0  0  0  0  0  0
    6.8760   -1.2244   -1.3697 H   0  0  0  0  0  0  0  0  0  0  0  0
    6.8651    0.8892   -2.5487 H   0  0  0  0  0  0  0  0  0  0  0  0
    8.0392    2.1185   -2.1176 H   0  0  0  0  0  0  0  0  0  0  0  0
    6.5843    1.9326   -1.1339 H   0  0  0  0  0  0  0  0  0  0  0  0
    9.4675    1.8131   -0.1159 H   0  0  0  0  0  0  0  0  0  0  0  0
    8.0153    1.6292    0.8900 H   0  0  0  0  0  0  0  0  0  0  0  0
    9.2769    0.3674    0.8630 H   0  0  0  0  0  0  0  0  0  0  0  0
   -1.1259   -2.6670    0.3299 H   0  0  0  0  0  0  0  0  0  0  0  0
    0.1416   -2.7504    1.5127 H   0  0  0  0  0  0  0  0  0  0  0  0
   -1.4931   -2.3733    2.0545 H   0  0  0  0  0  0  0  0  0  0  0  0
   -5.1181   -2.6258    0.3018 H   0  0  0  0  0  0  0  0  0  0  0  0
   -5.9209   -0.3696   -3.0502 H   0  0  0  0  0  0  0  0  0  0  0  0
   -7.6057    0.1328   -2.8153 H   0  0  0  0  0  0  0  0  0  0  0  0
   -6.3172    1.2637   -2.4993 H   0  0  0  0  0  0  0  0  0  0  0  0
   -8.3139    0.8666   -0.3835 H   0  0  0  0  0  0  0  0  0  0  0  0
   -6.8004    1.6302    0.1210 H   0  0  0  0  0  0  0  0  0  0  0  0
   -7.3947    0.2275    0.9926 H   0  0  0  0  0  0  0  0  0  0  0  0
   -6.8559   -2.3704   -1.5956 H   0  0  0  0  0  0  0  0  0  0  0  0
   -8.3557   -1.4813   -1.3072 H   0  0  0  0  0  0  0  0  0  0  0  0
   -7.4047   -2.0481    0.0603 H   0  0  0  0  0  0  0  0  0  0  0  0
  1  2  1  0
  2  3  2  0
  3  4  1  0
  4  5  1  0
  5  6  1  0
  6  7  2  0
  6  8  1  0
  8  9  1  0
  9 10  1  0
 10 11  2  0
 10 12  1  0
 12 13  1  0
 13 14  1  0
 14 15  1  0
 15 16  1  0
 16 17  1  0
 16 18  1  0
  8 19  2  0
 19 20  1  0
 19 21  1  0
 21 22  1  0
 22 23  1  0
 23 24  1  0
 24 25  2  0
 25 26  1  0
 26 27  1  0
 26 28  1  0
 26 29  1  0
 25 30  1  0
 30  2  1  0
 21  4  2  0
 30 22  2  0
  1 31  1  0
  1 32  1  0
  1 33  1  0
  3 34  1  0
  9 35  1  0
  9 36  1  0
 12 37  1  0
 13 38  1  0
 13 39  1  0
 14 40  1  0
 14 41  1  0
 15 42  1  0
 15 43  1  0
 17 44  1  0
 17 45  1  0
 17 46  1  0
 18 47  1  0
 18 48  1  0
 18 49  1  0
 20 50  1  0
 20 51  1  0
 20 52  1  0
 24 53  1  0
 27 54  1  0
 27 55  1  0
 27 56  1  0
 28 57  1  0
 28 58  1  0
 28 59  1  0
 29 60  1  0
 29 61  1  0
 29 62  1  0
M  END
$$$$
