
     RDKit          3D

 61 66  0  0  0  0  0  0  0  0999 V2000
   -2.2333    1.0244   -1.6165 O   0  0  0  0  0  0  0  0  0  0  0  0
   -2.7282    0.2801   -0.7659 C   0  0  0  0  0  0  0  0  0  0  0  0
   -1.8264   -0.5254    0.1518 C   0  0  0  0  0  0  0  0  0  0  0  0
   -0.5469    0.1265    0.3314 N   0  0  0  0  0  0  0  0  0  0  0  0
   -0.4019    1.1576    1.1825 N   0  0  0  0  0  0  0  0  0  0  0  0
    0.9057    1.3660    1.2366 N   0  0  0  0  0  0  0  0  0  0  0  0
    1.5003    0.4029    0.4518 C   0  0  0  0  0  0  0  0  0  0  0  0
    2.9438    0.2967    0.2869 C   0  0  0  0  0  0  0  0  0  0  0  0
    3.5076   -0.7055   -0.5078 C   0  0  0  0  0  0  0  0  0  0  0  0
    4.8976   -0.8030   -0.6537 C   0  0  0  0  0  0  0  0  0  0  0  0
    5.7770    0.0799   -0.0053 C   0  0  0  0  0  0  0  0  0  0  0  0
    7.1626   -0.0600   -0.1859 N   0  0  0  0  0  0  0  0  0  0  0  0
    8.0425    1.0438    0.2583 C   0  0  0  0  0  0  0  0  0  0  0  0
    9.4812    0.7946   -0.2222 C   0  0  0  0  0  0  0  0  0  0  0  0
    9.9807   -0.4661    0.2523 O   0  0  0  0  0  0  0  0  0  0  0  0
    9.1538   -1.5330   -0.2383 C   0  0  0  0  0  0  0  0  0  0  0  0
    7.6946   -1.3838    0.2238 C   0  0  0  0  0  0  0  0  0  0  0  0
    5.1948    1.0928    0.7697 C   0  0  0  0  0  0  0  0  0  0  0  0
    3.8037    1.1997    0.9187 C   0  0  0  0  0  0  0  0  0  0  0  0
    0.6022   -0.4340   -0.0998 N   0  0  0  0  0  0  0  0  0  0  0  0
   -4.1172    0.1559   -0.5270 N   0  0  0  0  0  0  0  0  0  0  0  0
   -4.6432   -0.9416    0.2165 C   0  0  0  0  0  0  0  0  0  0  0  0
   -4.3593   -2.2581   -0.1770 C   0  0  0  0  0  0  0  0  0  0  0  0
   -4.8180   -3.3365    0.5795 C   0  0  0  0  0  0  0  0  0  0  0  0
   -5.5616   -3.1079    1.7330 C   0  0  0  0  0  0  0  0  0  0  0  0
   -5.8597   -1.8031    2.1247 C   0  0  0  0  0  0  0  0  0  0  0  0
   -5.4062   -0.7149    1.3669 C   0  0  0  0  0  0  0  0  0  0  0  0
   -5.7500    0.6934    1.7518 C   0  0  0  0  0  0  0  0  0  0  0  0
   -6.7483    1.2566    0.7508 C   0  0  0  0  0  0  0  0  0  0  0  0
   -6.3152    1.3805   -0.6985 C   0  0  0  0  0  0  0  0  0  0  0  0
   -7.2358    2.0714   -1.5242 C   0  0  0  0  0  0  0  0  0  0  0  0
   -6.9679    2.3335   -2.8635 C   0  0  0  0  0  0  0  0  0  0  0  0
   -5.7706    1.9082   -3.4095 C   0  0  0  0  0  0  0  0  0  0  0  0
   -4.8536    1.2131   -2.6172 C   0  0  0  0  0  0  0  0  0  0  0  0
   -5.0976    0.9240   -1.2579 C   0  0  0  0  0  0  0  0  0  0  0  0
   -2.2487   -0.6404    1.1543 H   0  0  0  0  0  0  0  0  0  0  0  0
   -1.6400   -1.5084   -0.2912 H   0  0  0  0  0  0  0  0  0  0  0  0
    2.8720   -1.4176   -1.0305 H   0  0  0  0  0  0  0  0  0  0  0  0
    5.2894   -1.5732   -1.3138 H   0  0  0  0  0  0  0  0  0  0  0  0
    8.0385    1.1008    1.3545 H   0  0  0  0  0  0  0  0  0  0  0  0
    7.7020    2.0018   -0.1526 H   0  0  0  0  0  0  0  0  0  0  0  0
   10.1422    1.5790    0.1619 H   0  0  0  0  0  0  0  0  0  0  0  0
    9.5412    0.8132   -1.3176 H   0  0  0  0  0  0  0  0  0  0  0  0
    9.5678   -2.4741    0.1388 H   0  0  0  0  0  0  0  0  0  0  0  0
    9.2165   -1.5565   -1.3337 H   0  0  0  0  0  0  0  0  0  0  0  0
    7.6478   -1.4637    1.3169 H   0  0  0  0  0  0  0  0  0  0  0  0
    7.1206   -2.2108   -0.2042 H   0  0  0  0  0  0  0  0  0  0  0  0
    5.8063    1.8240    1.2904 H   0  0  0  0  0  0  0  0  0  0  0  0
    3.4034    2.0016    1.5367 H   0  0  0  0  0  0  0  0  0  0  0  0
   -3.8048   -2.4574   -1.0899 H   0  0  0  0  0  0  0  0  0  0  0  0
   -4.6023   -4.3538    0.2636 H   0  0  0  0  0  0  0  0  0  0  0  0
   -5.9213   -3.9468    2.3226 H   0  0  0  0  0  0  0  0  0  0  0  0
   -6.4549   -1.6402    3.0202 H   0  0  0  0  0  0  0  0  0  0  0  0
   -4.8421    1.3068    1.8052 H   0  0  0  0  0  0  0  0  0  0  0  0
   -6.1920    0.7157    2.7556 H   0  0  0  0  0  0  0  0  0  0  0  0
   -7.0261    2.2593    1.1043 H   0  0  0  0  0  0  0  0  0  0  0  0
   -7.6624    0.6468    0.7736 H   0  0  0  0  0  0  0  0  0  0  0  0
   -8.1788    2.4240   -1.1078 H   0  0  0  0  0  0  0  0  0  0  0  0
   -7.6891    2.8701   -3.4725 H   0  0  0  0  0  0  0  0  0  0  0  0
   -5.5430    2.1043   -4.4535 H   0  0  0  0  0  0  0  0  0  0  0  0
   -3.9494    0.8672   -3.1111 H   0  0  0  0  0  0  0  0  0  0  0  0
  1  2  2  0
  2  3  1  0
  3  4  1  0
  4  5  1  0
  5  6  2  0
  6  7  1  0
  7  8  1  0
  8  9  2  0
  9 10  1  0
 10 11  2  0
 11 12  1  0
 12 13  1  0
 13 14  1  0
 14 15  1  0
 15 16  1  0
 16 17  1  0
 11 18  1  0
 18 19  2  0
  7 20  2  0
  2 21  1  0
 21 22  1  0
 22 23  2  0
 23 24  1  0
 24 25  2  0
 25 26  1  0
 26 27  2  0
 27 28  1  0
 28 29  1  0
 29 30  1  0
 30 31  2  0
 31 32  1  0
 32 33  2  0
 33 34  1  0
 34 35  2  0
 20  4  1  0
 35 21  1  0
 19  8  1  0
 27 22  1  0
 35 30  1  0
 17 12  1  0
  3 36  1  0
  3 37  1  0
  9 38  1  0
 10 39  1  0
 13 40  1  0
 13 41  1  0
 14 42  1  0
 14 43  1  0
 16 44  1  0
 16 45  1  0
 17 46  1  0
 17 47  1  0
 18 48  1  0
 19 49  1  0
 23 50  1  0
 24 51  1  0
 25 52  1  0
 26 53  1  0
 28 54  1  0
 28 55  1  0
 29 56  1  0
 29 57  1  0
 31 58  1  0
 32 59  1  0
 33 60  1  0
 34 61  1  0
M  END
$$$$
