
     RDKit          3D

 34 35  0  0  0  0  0  0  0  0999 V2000
   -1.7067    1.4899    0.5384 C   0  0  0  0  0  0  0  0  0  0  0  0
   -0.8508    0.3089    0.4420 N   0  0  0  0  0  0  0  0  0  0  0  0
    0.3525    0.3348    1.1589 C   0  0  0  0  0  0  0  0  0  0  0  0
    0.6714    1.3044    1.8538 O   0  0  0  0  0  0  0  0  0  0  0  0
    1.2887   -0.8661    1.0847 C   0  0  0  0  0  0  0  0  0  0  0  0
    2.2394   -0.8704   -0.4616 S   0  0  0  0  0  0  0  0  0  0  0  0
    3.0830    0.6700   -0.2383 C   0  0  0  0  0  0  0  0  0  0  0  0
    3.9400    0.7653    0.7917 N   0  0  0  0  0  0  0  0  0  0  0  0
    4.5403    1.9588    0.9493 C   0  0  0  0  0  0  0  0  0  0  0  0
    4.3251    3.0330    0.1191 C   0  0  0  0  0  0  0  0  0  0  0  0
    3.4400    2.8181   -0.9105 C   0  0  0  0  0  0  0  0  0  0  0  0
    2.8081    1.6485   -1.1163 N   0  0  0  0  0  0  0  0  0  0  0  0
   -1.3793   -0.8807   -0.2539 C   0  0  0  0  0  0  0  0  0  0  0  0
   -2.2527   -1.7442    0.6718 C   0  0  0  0  0  0  0  0  0  0  0  0
   -2.7803   -2.8788   -0.1965 C   0  0  0  0  0  0  0  0  0  0  0  0
   -3.0803   -2.1466   -1.7977 S   0  0  0  0  0  6  0  0  0  0  0  0
   -2.3385   -2.8950   -2.7898 O   0  0  0  0  0  0  0  0  0  0  0  0
   -4.4974   -1.8795   -1.9270 O   0  0  0  0  0  0  0  0  0  0  0  0
   -2.2376   -0.6036   -1.4917 C   0  0  0  0  0  0  0  0  0  0  0  0
   -2.6775    1.1992    0.9491 H   0  0  0  0  0  0  0  0  0  0  0  0
   -1.8362    1.9133   -0.4616 H   0  0  0  0  0  0  0  0  0  0  0  0
   -1.2842    2.2687    1.1779 H   0  0  0  0  0  0  0  0  0  0  0  0
    1.9700   -0.8335    1.9424 H   0  0  0  0  0  0  0  0  0  0  0  0
    0.7270   -1.7984    1.1828 H   0  0  0  0  0  0  0  0  0  0  0  0
    5.2211    2.0281    1.7927 H   0  0  0  0  0  0  0  0  0  0  0  0
    4.8176    3.9836    0.2671 H   0  0  0  0  0  0  0  0  0  0  0  0
    3.2035    3.6044   -1.6214 H   0  0  0  0  0  0  0  0  0  0  0  0
   -0.5390   -1.4995   -0.5796 H   0  0  0  0  0  0  0  0  0  0  0  0
   -3.0910   -1.1560    1.0647 H   0  0  0  0  0  0  0  0  0  0  0  0
   -1.6953   -2.1293    1.5315 H   0  0  0  0  0  0  0  0  0  0  0  0
   -3.7043   -3.3097    0.1940 H   0  0  0  0  0  0  0  0  0  0  0  0
   -2.0256   -3.6607   -0.3216 H   0  0  0  0  0  0  0  0  0  0  0  0
   -1.6399   -0.3256   -2.3626 H   0  0  0  0  0  0  0  0  0  0  0  0
   -3.0112    0.1490   -1.3178 H   0  0  0  0  0  0  0  0  0  0  0  0
  1  2  1  0
  2  3  1  0
  3  4  2  0
  3  5  1  0
  5  6  1  0
  6  7  1  0
  7  8  2  0
  8  9  1  0
  9 10  2  0
 10 11  1  0
 11 12  2  0
  2 13  1  0
 13 14  1  0
 14 15  1  0
 15 16  1  0
 16 17  2  0
 16 18  2  0
 16 19  1  0
 12  7  1  0
 19 13  1  0
  1 20  1  0
  1 21  1  0
  1 22  1  0
  5 23  1  0
  5 24  1  0
  9 25  1  0
 10 26  1  0
 11 27  1  0
 13 28  1  0
 14 29  1  0
 14 30  1  0
 15 31  1  0
 15 32  1  0
 19 33  1  0
 19 34  1  0
M  END
$$$$
