
     RDKit          3D

 60 63  0  0  0  0  0  0  0  0999 V2000
   -9.4738   -1.1378   -0.1084 O   0  0  0  0  0  0  0  0  0  0  0  0
   -8.3992   -1.2248   -0.6765 C   0  0  0  0  0  0  0  0  0  0  0  0
   -8.3500   -1.1293   -2.0220 O   0  0  0  0  0  0  0  0  0  0  0  0
   -7.0385   -1.4792   -0.0616 C   0  0  0  0  0  0  0  0  0  0  0  0
   -7.1500   -1.7050    1.4569 C   0  0  0  0  0  0  0  0  0  0  0  0
   -7.0994   -0.4467    2.2729 C   0  0  0  0  0  0  0  0  0  0  0  0
   -6.7688    0.7481    1.7678 C   0  0  0  0  0  0  0  0  0  0  0  0
   -6.3727    0.9563    0.3386 C   0  0  0  0  0  0  0  0  0  0  0  0
   -6.0619   -0.3420   -0.4298 C   0  0  0  0  0  0  0  0  0  0  0  0
   -4.6029   -0.7848   -0.2529 C   0  0  0  0  0  0  0  0  0  0  0  0
   -4.3113   -1.8580    0.2647 O   0  0  0  0  0  0  0  0  0  0  0  0
   -3.7006    0.1295   -0.7762 N   0  0  0  0  0  0  0  0  0  0  0  0
   -2.2923    0.0646   -0.7393 C   0  0  0  0  0  0  0  0  0  0  0  0
   -1.5691   -0.9257   -0.0848 C   0  0  0  0  0  0  0  0  0  0  0  0
   -0.1646   -0.9050   -0.0890 C   0  0  0  0  0  0  0  0  0  0  0  0
    0.5686    0.0921   -0.7472 C   0  0  0  0  0  0  0  0  0  0  0  0
    1.9532    0.1174   -0.7457 N   0  0  0  0  0  0  0  0  0  0  0  0
    2.6967    0.7420   -1.8546 C   0  0  0  0  0  0  0  0  0  0  0  0
    4.0431    0.0234   -2.1085 C   0  0  0  0  0  0  0  0  0  0  0  0
    4.9447   -0.0886   -0.9430 N   0  0  0  0  0  0  0  0  0  0  0  0
    5.9349    0.9994   -0.9206 C   0  0  0  0  0  0  0  0  0  0  0  0
    7.0061    0.8186    0.1356 C   0  0  0  0  0  0  0  0  0  0  0  0
    7.8179   -0.3260    0.1380 C   0  0  0  0  0  0  0  0  0  0  0  0
    8.8127   -0.4893    1.1032 C   0  0  0  0  0  0  0  0  0  0  0  0
    9.0100    0.4915    2.0736 C   0  0  0  0  0  0  0  0  0  0  0  0
    8.2130    1.6353    2.0802 C   0  0  0  0  0  0  0  0  0  0  0  0
    7.2164    1.7995    1.1158 C   0  0  0  0  0  0  0  0  0  0  0  0
    4.1731   -0.1425    0.3225 C   0  0  0  0  0  0  0  0  0  0  0  0
    2.7434   -0.7138    0.1776 C   0  0  0  0  0  0  0  0  0  0  0  0
   -0.1831    1.0839   -1.3937 C   0  0  0  0  0  0  0  0  0  0  0  0
   -1.5858    1.0758   -1.3916 C   0  0  0  0  0  0  0  0  0  0  0  0
   -9.2907   -1.0198   -2.2770 H   0  0  0  0  0  0  0  0  0  0  0  0
   -6.7031   -2.4279   -0.5043 H   0  0  0  0  0  0  0  0  0  0  0  0
   -6.3299   -2.3502    1.7931 H   0  0  0  0  0  0  0  0  0  0  0  0
   -8.0741   -2.2435    1.6982 H   0  0  0  0  0  0  0  0  0  0  0  0
   -7.3577   -0.5326    3.3258 H   0  0  0  0  0  0  0  0  0  0  0  0
   -6.7792    1.6210    2.4164 H   0  0  0  0  0  0  0  0  0  0  0  0
   -5.5176    1.6405    0.3187 H   0  0  0  0  0  0  0  0  0  0  0  0
   -7.1982    1.4800   -0.1605 H   0  0  0  0  0  0  0  0  0  0  0  0
   -6.1561   -0.1204   -1.5023 H   0  0  0  0  0  0  0  0  0  0  0  0
   -4.0862    0.9217   -1.2731 H   0  0  0  0  0  0  0  0  0  0  0  0
   -2.0575   -1.7354    0.4482 H   0  0  0  0  0  0  0  0  0  0  0  0
    0.3412   -1.7154    0.4289 H   0  0  0  0  0  0  0  0  0  0  0  0
    2.1233    0.6935   -2.7889 H   0  0  0  0  0  0  0  0  0  0  0  0
    2.8760    1.7986   -1.6202 H   0  0  0  0  0  0  0  0  0  0  0  0
    3.8193   -1.0020   -2.4324 H   0  0  0  0  0  0  0  0  0  0  0  0
    4.5513    0.4888   -2.9622 H   0  0  0  0  0  0  0  0  0  0  0  0
    6.4600    1.0428   -1.8846 H   0  0  0  0  0  0  0  0  0  0  0  0
    5.4374    1.9714   -0.7991 H   0  0  0  0  0  0  0  0  0  0  0  0
    7.6656   -1.0993   -0.6122 H   0  0  0  0  0  0  0  0  0  0  0  0
    9.4309   -1.3833    1.0978 H   0  0  0  0  0  0  0  0  0  0  0  0
    9.7841    0.3634    2.8258 H   0  0  0  0  0  0  0  0  0  0  0  0
    8.3676    2.4001    2.8374 H   0  0  0  0  0  0  0  0  0  0  0  0
    6.6032    2.6975    1.1365 H   0  0  0  0  0  0  0  0  0  0  0  0
    4.0754    0.8632    0.7549 H   0  0  0  0  0  0  0  0  0  0  0  0
    4.7237   -0.7552    1.0455 H   0  0  0  0  0  0  0  0  0  0  0  0
    2.7830   -1.7476   -0.1861 H   0  0  0  0  0  0  0  0  0  0  0  0
    2.2892   -0.7182    1.1755 H   0  0  0  0  0  0  0  0  0  0  0  0
    0.3148    1.9095   -1.8941 H   0  0  0  0  0  0  0  0  0  0  0  0
   -2.1052    1.8797   -1.9054 H   0  0  0  0  0  0  0  0  0  0  0  0
  1  2  2  0
  2  3  1  0
  2  4  1  0
  4  5  1  0
  5  6  1  0
  6  7  2  0
  7  8  1  0
  8  9  1  0
  9 10  1  0
 10 11  2  0
 10 12  1  0
 12 13  1  0
 13 14  2  0
 14 15  1  0
 15 16  2  0
 16 17  1  0
 17 18  1  0
 18 19  1  0
 19 20  1  0
 20 21  1  0
 21 22  1  0
 22 23  2  0
 23 24  1  0
 24 25  2  0
 25 26  1  0
 26 27  2  0
 20 28  1  0
 28 29  1  0
 16 30  1  0
 30 31  2  0
  9  4  1  0
 31 13  1  0
 29 17  1  0
 27 22  1  0
  3 32  1  0
  4 33  1  0
  5 34  1  0
  5 35  1  0
  6 36  1  0
  7 37  1  0
  8 38  1  0
  8 39  1  0
  9 40  1  0
 12 41  1  0
 14 42  1  0
 15 43  1  0
 18 44  1  0
 18 45  1  0
 19 46  1  0
 19 47  1  0
 21 48  1  0
 21 49  1  0
 23 50  1  0
 24 51  1  0
 25 52  1  0
 26 53  1  0
 27 54  1  0
 28 55  1  0
 28 56  1  0
 29 57  1  0
 29 58  1  0
 30 59  1  0
 31 60  1  0
M  END
$$$$
