
     RDKit          3D

 32 33  0  0  0  0  0  0  0  0999 V2000
   -1.8235   -3.3567   -2.7673 N   0  0  0  0  0  0  0  0  0  0  0  0
   -2.1907   -2.4508   -2.1412 C   0  0  0  0  0  0  0  0  0  0  0  0
   -2.6429   -1.3451   -1.3432 C   0  0  0  0  0  0  0  0  0  0  0  0
   -4.0280   -1.1207   -1.2618 C   0  0  0  0  0  0  0  0  0  0  0  0
   -4.5113   -0.0465   -0.5107 C   0  0  0  0  0  0  0  0  0  0  0  0
   -5.9570    0.1935   -0.4237 N   0  0  0  0  0  4  0  0  0  0  0  0
   -6.7055   -0.5900   -1.0240 O   0  0  0  0  0  0  0  0  0  0  0  0
   -6.3413    1.1626    0.2454 O   0  0  0  0  0  1  0  0  0  0  0  0
   -3.6246    0.8057    0.1488 C   0  0  0  0  0  0  0  0  0  0  0  0
   -2.2463    0.5735    0.0612 C   0  0  0  0  0  0  0  0  0  0  0  0
   -1.7216   -0.5171   -0.6551 C   0  0  0  0  0  0  0  0  0  0  0  0
   -0.3393   -0.7064   -0.8106 N   0  0  0  0  0  0  0  0  0  0  0  0
    0.6136   -0.0360    0.0861 C   0  0  0  0  0  0  0  0  0  0  0  0
    2.0465   -0.4446   -0.2745 C   0  0  0  0  0  0  0  0  0  0  0  0
    3.0977    0.2456    0.5600 C   0  0  0  0  0  0  0  0  0  0  0  0
    4.4227    0.2500    0.1275 C   0  0  0  0  0  0  0  0  0  0  0  0
    5.3899    0.8624    0.9199 C   0  0  0  0  0  0  0  0  0  0  0  0
    5.0148    1.4453    2.1231 C   0  0  0  0  0  0  0  0  0  0  0  0
    3.6809    1.3885    2.4863 C   0  0  0  0  0  0  0  0  0  0  0  0
    2.7208    0.8010    1.7372 N   0  0  0  0  0  0  0  0  0  0  0  0
   -4.7123   -1.7829   -1.7916 H   0  0  0  0  0  0  0  0  0  0  0  0
   -3.9794    1.6575    0.7267 H   0  0  0  0  0  0  0  0  0  0  0  0
   -1.5906    1.2736    0.5737 H   0  0  0  0  0  0  0  0  0  0  0  0
   -0.0883   -1.6808   -0.9797 H   0  0  0  0  0  0  0  0  0  0  0  0
    0.5218    1.0520   -0.0167 H   0  0  0  0  0  0  0  0  0  0  0  0
    0.3929   -0.3104    1.1250 H   0  0  0  0  0  0  0  0  0  0  0  0
    2.1650   -1.5287   -0.1542 H   0  0  0  0  0  0  0  0  0  0  0  0
    2.2239   -0.2153   -1.3333 H   0  0  0  0  0  0  0  0  0  0  0  0
    4.7035   -0.2153   -0.8122 H   0  0  0  0  0  0  0  0  0  0  0  0
    6.4281    0.8812    0.6009 H   0  0  0  0  0  0  0  0  0  0  0  0
    5.7436    1.9290    2.7634 H   0  0  0  0  0  0  0  0  0  0  0  0
    3.3371    1.8258    3.4193 H   0  0  0  0  0  0  0  0  0  0  0  0
  1  2  3  0
  2  3  1  0
  3  4  2  0
  4  5  1  0
  5  6  1  0
  6  7  2  0
  6  8  1  0
  5  9  2  0
  9 10  1  0
 10 11  2  0
 11 12  1  0
 12 13  1  0
 13 14  1  0
 14 15  1  0
 15 16  2  0
 16 17  1  0
 17 18  2  0
 18 19  1  0
 19 20  2  0
 11  3  1  0
 20 15  1  0
  4 21  1  0
  9 22  1  0
 10 23  1  0
 12 24  1  0
 13 25  1  0
 13 26  1  0
 14 27  1  0
 14 28  1  0
 16 29  1  0
 17 30  1  0
 18 31  1  0
 19 32  1  0
M  CHG  2   6   1   8  -1
M  END
$$$$
