
     RDKit          3D

 67 72  0  0  0  0  0  0  0  0999 V2000
    4.5806    2.4327    2.3934 C   0  0  0  0  0  0  0  0  0  0  0  0
    5.0734    1.1298    1.7447 C   0  0  0  0  0  0  0  0  0  0  0  0
    5.3012    0.0906    2.8475 C   0  0  0  0  0  0  0  0  0  0  0  0
    6.3571    1.4295    0.9631 C   0  0  0  0  0  0  0  0  0  0  0  0
    3.9955    0.7319    0.8600 O   0  0  0  0  0  0  0  0  0  0  0  0
    4.0857   -0.3954    0.1074 C   0  0  0  0  0  0  0  0  0  0  0  0
    5.0528   -1.1450    0.0918 O   0  0  0  0  0  0  0  0  0  0  0  0
    2.9504   -0.5941   -0.6507 N   0  0  0  0  0  0  0  0  0  0  0  0
    2.8857   -1.7212   -1.5900 C   0  0  0  0  0  0  0  0  0  0  0  0
    1.4760   -2.3653   -1.7147 C   0  0  0  0  0  0  0  0  0  0  0  0
    0.4062   -1.4387   -1.3972 N   0  0  0  0  0  0  0  0  0  0  0  0
    0.7416   -0.0139   -1.6546 C   0  0  2  0  0  0  0  0  0  0  0  0
    1.8494    0.3878   -0.6799 C   0  0  0  0  0  0  0  0  0  0  0  0
   -0.5883    0.6105   -1.4828 C   0  0  0  0  0  0  0  0  0  0  0  0
   -1.6007   -0.3708   -1.5705 C   0  0  0  0  0  0  0  0  0  0  0  0
   -2.8144    0.2494   -1.4259 C   0  0  0  0  0  0  0  0  0  0  0  0
   -4.0584   -0.2137   -1.4250 O   0  0  0  0  0  0  0  0  0  0  0  0
   -2.5448    1.5981   -1.2383 N   0  0  0  0  0  0  0  0  0  0  0  0
   -3.5584    2.6278   -1.0455 C   0  0  0  0  0  0  0  0  0  0  0  0
   -3.8997    2.8110    0.4138 C   0  0  0  0  0  0  0  0  0  0  0  0
   -3.1552    3.6874    1.2168 C   0  0  0  0  0  0  0  0  0  0  0  0
   -3.4664    3.8494    2.5677 C   0  0  0  0  0  0  0  0  0  0  0  0
   -4.5217    3.1348    3.1314 C   0  0  0  0  0  0  0  0  0  0  0  0
   -5.2639    2.2545    2.3464 C   0  0  0  0  0  0  0  0  0  0  0  0
   -4.9534    2.0910    0.9956 C   0  0  0  0  0  0  0  0  0  0  0  0
   -1.1780    1.8322   -1.3052 C   0  0  0  0  0  0  0  0  0  0  0  0
   -0.6816    3.0582   -1.2024 O   0  0  0  0  0  0  0  0  0  0  0  0
   -0.9904   -1.7093   -1.7845 C   0  0  1  0  0  0  0  0  0  0  0  0
   -1.1741   -2.2322   -3.2364 C   0  0  0  0  0  0  0  0  0  0  0  0
   -0.7219   -1.7770   -4.2765 O   0  0  0  0  0  0  0  0  0  0  0  0
   -1.9623   -3.3841   -3.1456 N   0  0  0  0  0  0  0  0  0  0  0  0
   -2.2776   -3.6788   -1.8248 C   0  0  0  0  0  0  0  0  0  0  0  0
   -3.0225   -4.7454   -1.3683 C   0  0  0  0  0  0  0  0  0  0  0  0
   -3.2126   -4.8509    0.0117 C   0  0  0  0  0  0  0  0  0  0  0  0
   -2.6574   -3.9029    0.8910 C   0  0  0  0  0  0  0  0  0  0  0  0
   -1.9036   -2.8306    0.4058 C   0  0  0  0  0  0  0  0  0  0  0  0
   -1.7244   -2.7250   -0.9642 C   0  0  0  0  0  0  0  0  0  0  0  0
    5.3163    2.8429    3.0931 H   0  0  0  0  0  0  0  0  0  0  0  0
    3.6422    2.2677    2.9354 H   0  0  0  0  0  0  0  0  0  0  0  0
    4.3675    3.1910    1.6311 H   0  0  0  0  0  0  0  0  0  0  0  0
    5.9984    0.4616    3.6065 H   0  0  0  0  0  0  0  0  0  0  0  0
    5.7143   -0.8422    2.4520 H   0  0  0  0  0  0  0  0  0  0  0  0
    4.3564   -0.1679    3.3388 H   0  0  0  0  0  0  0  0  0  0  0  0
    6.1518    2.1003    0.1212 H   0  0  0  0  0  0  0  0  0  0  0  0
    6.8010    0.5229    0.5410 H   0  0  0  0  0  0  0  0  0  0  0  0
    7.1142    1.8953    1.6034 H   0  0  0  0  0  0  0  0  0  0  0  0
    3.1830   -1.3146   -2.5651 H   0  0  0  0  0  0  0  0  0  0  0  0
    3.6198   -2.4895   -1.3244 H   0  0  0  0  0  0  0  0  0  0  0  0
    1.3871   -2.7806   -2.7245 H   0  0  0  0  0  0  0  0  0  0  0  0
    1.4164   -3.2081   -1.0164 H   0  0  0  0  0  0  0  0  0  0  0  0
    1.0708    0.1161   -2.6945 H   0  0  0  0  0  0  0  0  0  0  0  0
    1.4665    0.4804    0.3447 H   0  0  0  0  0  0  0  0  0  0  0  0
    2.2638    1.3642   -0.9586 H   0  0  0  0  0  0  0  0  0  0  0  0
   -4.0084   -1.1862   -1.4512 H   0  0  0  0  0  0  0  0  0  0  0  0
   -3.1898    3.5641   -1.4806 H   0  0  0  0  0  0  0  0  0  0  0  0
   -4.4455    2.3483   -1.6261 H   0  0  0  0  0  0  0  0  0  0  0  0
   -2.3221    4.2434    0.7911 H   0  0  0  0  0  0  0  0  0  0  0  0
   -2.8816    4.5302    3.1804 H   0  0  0  0  0  0  0  0  0  0  0  0
   -4.7621    3.2596    4.1837 H   0  0  0  0  0  0  0  0  0  0  0  0
   -6.0822    1.6907    2.7861 H   0  0  0  0  0  0  0  0  0  0  0  0
   -5.5329    1.3914    0.3962 H   0  0  0  0  0  0  0  0  0  0  0  0
    0.2842    2.9964   -1.2972 H   0  0  0  0  0  0  0  0  0  0  0  0
   -2.2257   -3.9286   -3.9533 H   0  0  0  0  0  0  0  0  0  0  0  0
   -3.4459   -5.4797   -2.0439 H   0  0  0  0  0  0  0  0  0  0  0  0
   -3.7933   -5.6776    0.4155 H   0  0  0  0  0  0  0  0  0  0  0  0
   -2.8151   -4.0065    1.9628 H   0  0  0  0  0  0  0  0  0  0  0  0
   -1.4735   -2.0973    1.0826 H   0  0  0  0  0  0  0  0  0  0  0  0
  1  2  1  0
  2  3  1  0
  2  4  1  0
  2  5  1  0
  5  6  1  0
  6  7  2  0
  6  8  1  0
  8  9  1  0
  9 10  1  0
 10 11  1  0
 11 12  1  0
 12 13  1  0
 12 14  1  0
 14 15  1  0
 15 16  2  0
 16 17  1  0
 16 18  1  0
 18 19  1  0
 19 20  1  0
 20 21  2  0
 21 22  1  0
 22 23  2  0
 23 24  1  0
 24 25  2  0
 18 26  1  0
 26 27  1  0
 15 28  1  0
 28 29  1  0
 29 30  2  0
 29 31  1  0
 31 32  1  0
 32 33  2  0
 33 34  1  0
 34 35  2  0
 35 36  1  0
 36 37  2  0
 13  8  1  0
 26 14  2  0
 37 28  1  0
 28 11  1  1
 37 32  1  0
 25 20  1  0
  1 38  1  0
  1 39  1  0
  1 40  1  0
  3 41  1  0
  3 42  1  0
  3 43  1  0
  4 44  1  0
  4 45  1  0
  4 46  1  0
  9 47  1  0
  9 48  1  0
 10 49  1  0
 10 50  1  0
 12 51  1  6
 13 52  1  0
 13 53  1  0
 17 54  1  0
 19 55  1  0
 19 56  1  0
 21 57  1  0
 22 58  1  0
 23 59  1  0
 24 60  1  0
 25 61  1  0
 27 62  1  0
 31 63  1  0
 33 64  1  0
 34 65  1  0
 35 66  1  0
 36 67  1  0
M  END
$$$$
