
     RDKit          3D

 52 53  0  0  0  0  0  0  0  0999 V2000
    5.4562    1.0055   -0.8239 C   0  0  0  0  0  0  0  0  0  0  0  0
    4.8885   -0.1390    0.0369 C   0  0  0  0  0  0  0  0  0  0  0  0
    5.2251   -1.4807   -0.6492 C   0  0  0  0  0  0  0  0  0  0  0  0
    5.6226   -0.1237    1.3965 C   0  0  0  0  0  0  0  0  0  0  0  0
    3.3371   -0.0136    0.2602 C   0  0  0  0  0  0  0  0  0  0  0  0
    2.8920    1.3221    0.8840 C   0  0  0  0  0  0  0  0  0  0  0  0
    1.4149    1.3087    1.2941 C   0  0  0  0  0  0  0  0  0  0  0  0
    0.5509    0.3558    0.4612 C   0  0  0  0  0  0  0  0  0  0  0  0
   -0.7970    0.8711    0.4670 O   0  0  0  0  0  0  0  0  0  0  0  0
   -1.7900   -0.0265    0.2302 C   0  0  0  0  0  0  0  0  0  0  0  0
   -1.6403   -1.2215    0.0140 O   0  0  0  0  0  0  0  0  0  0  0  0
   -3.1429    0.6842    0.2521 C   0  0  0  0  0  0  0  0  0  0  0  0
   -4.4039   -0.2397    0.1499 N   0  0  0  0  0  4  0  0  0  0  0  0
   -4.4949   -1.1306    1.3828 C   0  0  0  0  0  0  0  0  0  0  0  0
   -5.6780    0.6173    0.0201 C   0  0  0  0  0  0  0  0  0  0  0  0
   -6.1204    0.4402   -1.4192 C   0  0  0  0  0  0  0  0  0  0  0  0
   -5.7377   -0.9913   -1.7238 C   0  0  0  0  0  0  0  0  0  0  0  0
   -4.3460   -1.1020   -1.1322 C   0  0  0  0  0  0  0  0  0  0  0  0
    1.0787    0.2681   -0.9670 C   0  0  0  0  0  0  0  0  0  0  0  0
    2.5031   -0.2909   -1.0164 C   0  0  0  0  0  0  0  0  0  0  0  0
    5.3156    1.9801   -0.3452 H   0  0  0  0  0  0  0  0  0  0  0  0
    6.5340    0.8780   -0.9804 H   0  0  0  0  0  0  0  0  0  0  0  0
    4.9898    1.0451   -1.8126 H   0  0  0  0  0  0  0  0  0  0  0  0
    6.3090   -1.6308   -0.7158 H   0  0  0  0  0  0  0  0  0  0  0  0
    4.8083   -2.3250   -0.0886 H   0  0  0  0  0  0  0  0  0  0  0  0
    4.8341   -1.5256   -1.6710 H   0  0  0  0  0  0  0  0  0  0  0  0
    6.6939   -0.3188    1.2686 H   0  0  0  0  0  0  0  0  0  0  0  0
    5.5353    0.8438    1.9001 H   0  0  0  0  0  0  0  0  0  0  0  0
    5.2258   -0.8928    2.0685 H   0  0  0  0  0  0  0  0  0  0  0  0
    3.0667   -0.8002    0.9815 H   0  0  0  0  0  0  0  0  0  0  0  0
    3.4879    1.5791    1.7648 H   0  0  0  0  0  0  0  0  0  0  0  0
    3.0425    2.1318    0.1589 H   0  0  0  0  0  0  0  0  0  0  0  0
    1.3306    1.0131    2.3480 H   0  0  0  0  0  0  0  0  0  0  0  0
    1.0218    2.3325    1.2518 H   0  0  0  0  0  0  0  0  0  0  0  0
    0.5681   -0.6358    0.9329 H   0  0  0  0  0  0  0  0  0  0  0  0
   -3.2483    1.2364    1.1919 H   0  0  0  0  0  0  0  0  0  0  0  0
   -3.1935    1.3695   -0.6010 H   0  0  0  0  0  0  0  0  0  0  0  0
   -5.3858   -1.7591    1.2889 H   0  0  0  0  0  0  0  0  0  0  0  0
   -3.6038   -1.7582    1.4448 H   0  0  0  0  0  0  0  0  0  0  0  0
   -4.5729   -0.4861    2.2630 H   0  0  0  0  0  0  0  0  0  0  0  0
   -6.4294    0.2202    0.7118 H   0  0  0  0  0  0  0  0  0  0  0  0
   -5.4540    1.6559    0.2812 H   0  0  0  0  0  0  0  0  0  0  0  0
   -7.1910    0.6239   -1.5468 H   0  0  0  0  0  0  0  0  0  0  0  0
   -5.5758    1.1312   -2.0736 H   0  0  0  0  0  0  0  0  0  0  0  0
   -6.4230   -1.6879   -1.2268 H   0  0  0  0  0  0  0  0  0  0  0  0
   -5.7483   -1.2084   -2.7956 H   0  0  0  0  0  0  0  0  0  0  0  0
   -3.6075   -0.6577   -1.8084 H   0  0  0  0  0  0  0  0  0  0  0  0
   -4.0610   -2.1276   -0.8799 H   0  0  0  0  0  0  0  0  0  0  0  0
    1.0586    1.2685   -1.4200 H   0  0  0  0  0  0  0  0  0  0  0  0
    0.4194   -0.3420   -1.5954 H   0  0  0  0  0  0  0  0  0  0  0  0
    2.4447   -1.3771   -1.1620 H   0  0  0  0  0  0  0  0  0  0  0  0
    2.9902    0.1110   -1.9108 H   0  0  0  0  0  0  0  0  0  0  0  0
  1  2  1  0
  2  3  1  0
  2  4  1  0
  2  5  1  0
  5  6  1  0
  6  7  1  0
  7  8  1  0
  8  9  1  0
  9 10  1  0
 10 11  2  0
 10 12  1  0
 12 13  1  0
 13 14  1  0
 13 15  1  0
 15 16  1  0
 16 17  1  0
 17 18  1  0
  8 19  1  0
 19 20  1  0
 20  5  1  0
 18 13  1  0
  1 21  1  0
  1 22  1  0
  1 23  1  0
  3 24  1  0
  3 25  1  0
  3 26  1  0
  4 27  1  0
  4 28  1  0
  4 29  1  0
  5 30  1  0
  6 31  1  0
  6 32  1  0
  7 33  1  0
  7 34  1  0
  8 35  1  0
 12 36  1  0
 12 37  1  0
 14 38  1  0
 14 39  1  0
 14 40  1  0
 15 41  1  0
 15 42  1  0
 16 43  1  0
 16 44  1  0
 17 45  1  0
 17 46  1  0
 18 47  1  0
 18 48  1  0
 19 49  1  0
 19 50  1  0
 20 51  1  0
 20 52  1  0
M  CHG  1  13   1
M  END
$$$$
