
     RDKit          3D

 52 54  0  0  0  0  0  0  0  0999 V2000
   -7.7578   -0.7564   -0.1608 C   0  0  0  0  0  0  0  0  0  0  0  0
   -6.4164   -0.9030   -0.8805 C   0  0  0  0  0  0  0  0  0  0  0  0
   -6.4150   -2.1852   -1.7160 C   0  0  0  0  0  0  0  0  0  0  0  0
   -5.2263   -0.9128    0.0931 C   0  0  0  0  0  0  0  0  0  0  0  0
   -5.0655    0.3912    0.8761 C   0  0  0  0  0  0  0  0  0  0  0  0
   -3.8912    0.3427    1.6891 O   0  0  0  0  0  0  0  0  0  0  0  0
   -2.7172    0.8179    1.1758 C   0  0  0  0  0  0  0  0  0  0  0  0
   -1.6838    0.9357    2.1120 C   0  0  0  0  0  0  0  0  0  0  0  0
   -0.4232    1.4006    1.7310 C   0  0  0  0  0  0  0  0  0  0  0  0
   -0.1861    1.7293    0.3948 C   0  0  0  0  0  0  0  0  0  0  0  0
    1.1321    2.2409   -0.0453 C   0  0  0  0  0  0  0  0  0  0  0  0
    1.1565    3.3030   -0.6632 O   0  0  0  0  0  0  0  0  0  0  0  0
    2.2743    1.5053    0.2508 N   0  0  0  0  0  0  0  0  0  0  0  0
    3.5737    2.0675   -0.1253 C   0  0  0  0  0  0  0  0  0  0  0  0
    4.7494    1.4834    0.6781 C   0  0  0  0  0  0  0  0  0  0  0  0
    4.7383    0.0185    0.6745 N   0  0  0  0  0  0  0  0  0  0  0  0
    5.9417   -0.6493    0.6003 C   0  0  0  0  0  0  0  0  0  0  0  0
    5.9420   -1.9483    0.2519 N   0  0  0  0  0  0  0  0  0  0  0  0
    7.1268   -2.5865    0.2061 C   0  0  0  0  0  0  0  0  0  0  0  0
    8.3230   -1.9851    0.4955 C   0  0  0  0  0  0  0  0  0  0  0  0
    8.2337   -0.6633    0.8429 C   0  0  0  0  0  0  0  0  0  0  0  0
    7.0715    0.0141    0.9012 N   0  0  0  0  0  0  0  0  0  0  0  0
    3.5326   -0.6724    0.2268 C   0  0  0  0  0  0  0  0  0  0  0  0
    2.2733    0.0954    0.6709 C   0  0  0  0  0  0  0  0  0  0  0  0
   -1.2171    1.6316   -0.5436 C   0  0  0  0  0  0  0  0  0  0  0  0
   -2.4784    1.1675   -0.1544 C   0  0  0  0  0  0  0  0  0  0  0  0
   -7.8966   -1.5462    0.5850 H   0  0  0  0  0  0  0  0  0  0  0  0
   -8.5885   -0.8143   -0.8726 H   0  0  0  0  0  0  0  0  0  0  0  0
   -7.8341    0.2099    0.3466 H   0  0  0  0  0  0  0  0  0  0  0  0
   -6.3009   -0.0550   -1.5673 H   0  0  0  0  0  0  0  0  0  0  0  0
   -5.4794   -2.2835   -2.2764 H   0  0  0  0  0  0  0  0  0  0  0  0
   -6.5266   -3.0725   -1.0835 H   0  0  0  0  0  0  0  0  0  0  0  0
   -7.2367   -2.1796   -2.4401 H   0  0  0  0  0  0  0  0  0  0  0  0
   -4.3042   -1.1170   -0.4649 H   0  0  0  0  0  0  0  0  0  0  0  0
   -5.3217   -1.7448    0.8033 H   0  0  0  0  0  0  0  0  0  0  0  0
   -5.0916    1.2794    0.2346 H   0  0  0  0  0  0  0  0  0  0  0  0
   -5.9037    0.4993    1.5730 H   0  0  0  0  0  0  0  0  0  0  0  0
   -1.8694    0.6742    3.1515 H   0  0  0  0  0  0  0  0  0  0  0  0
    0.3569    1.5178    2.4781 H   0  0  0  0  0  0  0  0  0  0  0  0
    3.5514    3.1571   -0.0106 H   0  0  0  0  0  0  0  0  0  0  0  0
    3.7111    1.8550   -1.1930 H   0  0  0  0  0  0  0  0  0  0  0  0
    5.6714    1.8988    0.2538 H   0  0  0  0  0  0  0  0  0  0  0  0
    4.6810    1.8231    1.7185 H   0  0  0  0  0  0  0  0  0  0  0  0
    7.0769   -3.6326   -0.0797 H   0  0  0  0  0  0  0  0  0  0  0  0
    9.2641   -2.5131    0.4552 H   0  0  0  0  0  0  0  0  0  0  0  0
    9.1176   -0.0856    1.0950 H   0  0  0  0  0  0  0  0  0  0  0  0
    3.4719   -1.6827    0.6496 H   0  0  0  0  0  0  0  0  0  0  0  0
    3.5421   -0.7606   -0.8670 H   0  0  0  0  0  0  0  0  0  0  0  0
    2.2192    0.0952    1.7658 H   0  0  0  0  0  0  0  0  0  0  0  0
    1.3830   -0.4094    0.2828 H   0  0  0  0  0  0  0  0  0  0  0  0
   -1.0382    1.9163   -1.5785 H   0  0  0  0  0  0  0  0  0  0  0  0
   -3.2459    1.0883   -0.9166 H   0  0  0  0  0  0  0  0  0  0  0  0
  1  2  1  0
  2  3  1  0
  2  4  1  0
  4  5  1  0
  5  6  1  0
  6  7  1  0
  7  8  2  0
  8  9  1  0
  9 10  2  0
 10 11  1  0
 11 12  2  0
 11 13  1  0
 13 14  1  0
 14 15  1  0
 15 16  1  0
 16 17  1  0
 17 18  2  0
 18 19  1  0
 19 20  2  0
 20 21  1  0
 21 22  2  0
 16 23  1  0
 23 24  1  0
 10 25  1  0
 25 26  2  0
 26  7  1  0
 24 13  1  0
 22 17  1  0
  1 27  1  0
  1 28  1  0
  1 29  1  0
  2 30  1  0
  3 31  1  0
  3 32  1  0
  3 33  1  0
  4 34  1  0
  4 35  1  0
  5 36  1  0
  5 37  1  0
  8 38  1  0
  9 39  1  0
 14 40  1  0
 14 41  1  0
 15 42  1  0
 15 43  1  0
 19 44  1  0
 20 45  1  0
 21 46  1  0
 23 47  1  0
 23 48  1  0
 24 49  1  0
 24 50  1  0
 25 51  1  0
 26 52  1  0
M  END
$$$$
