
     RDKit          3D

 39 42  0  0  0  0  0  0  0  0999 V2000
    2.3740   -0.6851    3.4785 N   0  0  0  0  0  0  0  0  0  0  0  0
    1.3094   -1.0635    3.2092 C   0  0  0  0  0  0  0  0  0  0  0  0
   -0.0296   -1.5731    2.8851 C   0  0  0  0  0  0  0  0  0  0  0  0
   -1.1180   -0.3435    2.1089 S   0  0  0  0  0  0  0  0  0  0  0  0
   -0.5981   -0.4855    0.4312 C   0  0  0  0  0  0  0  0  0  0  0  0
    0.6793   -0.6084    0.2484 N   0  0  0  0  0  0  0  0  0  0  0  0
    1.0982   -0.8028   -1.0290 C   0  0  0  0  0  0  0  0  0  0  0  0
    0.2897   -0.9710   -2.0706 C   0  0  0  0  0  0  0  0  0  0  0  0
    1.1070   -1.2411   -3.5492 S   0  0  0  0  0  0  0  0  0  0  0  0
    2.6798   -1.1062   -2.7207 C   0  0  0  0  0  0  0  0  0  0  0  0
    4.1295   -1.2827   -3.5213 S   0  0  0  0  0  0  0  0  0  0  0  0
    2.4398   -0.8715   -1.3626 N   0  0  0  0  0  0  0  0  0  0  0  0
    3.4817   -0.5648   -0.3796 C   0  0  0  0  0  0  0  0  0  0  0  0
    3.6057    0.9102   -0.2082 C   0  0  0  0  0  0  0  0  0  0  0  0
    3.4857    1.7483    0.8817 C   0  0  0  0  0  0  0  0  0  0  0  0
    3.7202    3.0611    0.4067 C   0  0  0  0  0  0  0  0  0  0  0  0
    3.9712    2.9422   -0.9393 C   0  0  0  0  0  0  0  0  0  0  0  0
    3.9045    1.6420   -1.3220 O   0  0  0  0  0  0  0  0  0  0  0  0
   -1.1634   -0.8724   -1.8951 C   0  0  0  0  0  0  0  0  0  0  0  0
   -1.9149   -1.0477   -2.8517 O   0  0  0  0  0  0  0  0  0  0  0  0
   -1.5594   -0.5401   -0.5886 N   0  0  0  0  0  0  0  0  0  0  0  0
   -2.9510   -0.2546   -0.3749 C   0  0  0  0  0  0  0  0  0  0  0  0
   -3.9431   -1.1311   -0.8467 C   0  0  0  0  0  0  0  0  0  0  0  0
   -5.2978   -0.8460   -0.6545 C   0  0  0  0  0  0  0  0  0  0  0  0
   -5.6673    0.3226   -0.0029 C   0  0  0  0  0  0  0  0  0  0  0  0
   -6.9651    0.5956    0.1809 F   0  0  0  0  0  0  0  0  0  0  0  0
   -4.7079    1.2166    0.4528 C   0  0  0  0  0  0  0  0  0  0  0  0
   -3.3526    0.9329    0.2614 C   0  0  0  0  0  0  0  0  0  0  0  0
   -0.5191   -1.8910    3.8119 H   0  0  0  0  0  0  0  0  0  0  0  0
    0.0370   -2.4620    2.2489 H   0  0  0  0  0  0  0  0  0  0  0  0
    3.2349   -1.0542    0.5687 H   0  0  0  0  0  0  0  0  0  0  0  0
    4.4443   -0.9735   -0.7008 H   0  0  0  0  0  0  0  0  0  0  0  0
    3.2596    1.4461    1.8953 H   0  0  0  0  0  0  0  0  0  0  0  0
    3.7127    3.9796    0.9761 H   0  0  0  0  0  0  0  0  0  0  0  0
    4.2051    3.6481   -1.7241 H   0  0  0  0  0  0  0  0  0  0  0  0
   -3.6773   -2.0515   -1.3629 H   0  0  0  0  0  0  0  0  0  0  0  0
   -6.0634   -1.5256   -1.0161 H   0  0  0  0  0  0  0  0  0  0  0  0
   -5.0191    2.1338    0.9433 H   0  0  0  0  0  0  0  0  0  0  0  0
   -2.6223    1.6699    0.5887 H   0  0  0  0  0  0  0  0  0  0  0  0
  1  2  3  0
  2  3  1  0
  3  4  1  0
  4  5  1  0
  5  6  2  0
  6  7  1  0
  7  8  2  0
  8  9  1  0
  9 10  1  0
 10 11  2  0
 10 12  1  0
 12 13  1  0
 13 14  1  0
 14 15  2  0
 15 16  1  0
 16 17  2  0
 17 18  1  0
  8 19  1  0
 19 20  2  0
 19 21  1  0
 21 22  1  0
 22 23  2  0
 23 24  1  0
 24 25  2  0
 25 26  1  0
 25 27  1  0
 27 28  2  0
 21  5  1  0
 28 22  1  0
 12  7  1  0
 18 14  1  0
  3 29  1  0
  3 30  1  0
 13 31  1  0
 13 32  1  0
 15 33  1  0
 16 34  1  0
 17 35  1  0
 23 36  1  0
 24 37  1  0
 27 38  1  0
 28 39  1  0
M  END
$$$$
