
     RDKit          3D

 50 52  0  0  0  0  0  0  0  0999 V2000
    3.0336   -0.5442   -0.8481 O   0  0  0  0  0  0  0  0  0  0  0  0
    3.6202   -1.0183    0.1154 C   0  0  0  0  0  0  0  0  0  0  0  0
    5.0167   -0.6689    0.5815 C   0  0  0  0  0  0  0  0  0  0  0  0
    5.6451    0.4827   -0.1688 C   0  0  0  0  0  0  0  0  0  0  0  0
    6.5409    0.2446   -1.2230 C   0  0  0  0  0  0  0  0  0  0  0  0
    7.1091    1.3130   -1.9185 C   0  0  0  0  0  0  0  0  0  0  0  0
    6.7792    2.6158   -1.5649 C   0  0  0  0  0  0  0  0  0  0  0  0
    7.3259    3.6393   -2.2343 F   0  0  0  0  0  0  0  0  0  0  0  0
    5.8892    2.8724   -0.5295 C   0  0  0  0  0  0  0  0  0  0  0  0
    5.3191    1.8067    0.1680 C   0  0  0  0  0  0  0  0  0  0  0  0
    3.1004   -1.9821    0.9352 O   0  0  0  0  0  0  0  0  0  0  0  0
    1.7195   -2.2581    0.6901 C   0  0  0  0  0  0  0  0  0  0  0  0
    0.8013   -1.1539    1.2386 C   0  0  0  0  0  0  0  0  0  0  0  0
    1.2537   -0.2374    1.9295 O   0  0  0  0  0  0  0  0  0  0  0  0
   -0.5549   -1.2530    0.9550 N   0  0  0  0  0  0  0  0  0  0  0  0
   -1.1603   -2.3084    0.1352 C   0  0  0  0  0  0  0  0  0  0  0  0
   -2.5881   -1.9664   -0.3163 C   0  0  0  0  0  0  0  0  0  0  0  0
   -3.4557   -1.6693    0.8514 N   0  0  0  0  0  0  0  0  0  0  0  0
   -5.0996   -1.3987    0.5561 S   0  0  0  0  0  6  0  0  0  0  0  0
   -5.7721   -1.2915    1.8329 O   0  0  0  0  0  0  0  0  0  0  0  0
   -5.5353   -2.3462   -0.4475 O   0  0  0  0  0  0  0  0  0  0  0  0
   -5.1196    0.2180   -0.1978 C   0  0  0  0  0  0  0  0  0  0  0  0
   -5.3047    1.3539    0.5981 C   0  0  0  0  0  0  0  0  0  0  0  0
   -5.3474    2.6154   -0.0001 C   0  0  0  0  0  0  0  0  0  0  0  0
   -5.2240    2.7321   -1.3852 C   0  0  0  0  0  0  0  0  0  0  0  0
   -5.2788    4.2872   -2.1182 Cl  0  0  0  0  0  0  0  0  0  0  0  0
   -5.0671    1.5970   -2.1816 C   0  0  0  0  0  0  0  0  0  0  0  0
   -5.0235    0.3329   -1.5894 C   0  0  0  0  0  0  0  0  0  0  0  0
   -2.8082   -0.9062    1.9574 C   0  0  0  0  0  0  0  0  0  0  0  0
   -1.4776   -0.2715    1.5326 C   0  0  0  0  0  0  0  0  0  0  0  0
    4.9756   -0.4124    1.6472 H   0  0  0  0  0  0  0  0  0  0  0  0
    5.6447   -1.5619    0.4805 H   0  0  0  0  0  0  0  0  0  0  0  0
    6.7988   -0.7718   -1.5118 H   0  0  0  0  0  0  0  0  0  0  0  0
    7.8022    1.1382   -2.7350 H   0  0  0  0  0  0  0  0  0  0  0  0
    5.6403    3.8976   -0.2757 H   0  0  0  0  0  0  0  0  0  0  0  0
    4.6132    2.0140    0.9703 H   0  0  0  0  0  0  0  0  0  0  0  0
    1.4781   -3.1872    1.2167 H   0  0  0  0  0  0  0  0  0  0  0  0
    1.5572   -2.4216   -0.3793 H   0  0  0  0  0  0  0  0  0  0  0  0
   -1.1625   -3.2206    0.7433 H   0  0  0  0  0  0  0  0  0  0  0  0
   -0.5378   -2.4912   -0.7447 H   0  0  0  0  0  0  0  0  0  0  0  0
   -2.5571   -1.0996   -0.9847 H   0  0  0  0  0  0  0  0  0  0  0  0
   -2.9916   -2.8202   -0.8700 H   0  0  0  0  0  0  0  0  0  0  0  0
   -5.4272    1.2670    1.6758 H   0  0  0  0  0  0  0  0  0  0  0  0
   -5.4879    3.5009    0.6153 H   0  0  0  0  0  0  0  0  0  0  0  0
   -4.9888    1.6909   -3.2622 H   0  0  0  0  0  0  0  0  0  0  0  0
   -4.9233   -0.5508   -2.2162 H   0  0  0  0  0  0  0  0  0  0  0  0
   -3.4650   -0.1231    2.3457 H   0  0  0  0  0  0  0  0  0  0  0  0
   -2.6320   -1.6146    2.7760 H   0  0  0  0  0  0  0  0  0  0  0  0
   -1.0219    0.2304    2.3923 H   0  0  0  0  0  0  0  0  0  0  0  0
   -1.6516    0.4902    0.7629 H   0  0  0  0  0  0  0  0  0  0  0  0
  1  2  2  0
  2  3  1  0
  3  4  1  0
  4  5  2  0
  5  6  1  0
  6  7  2  0
  7  8  1  0
  7  9  1  0
  9 10  2  0
  2 11  1  0
 11 12  1  0
 12 13  1  0
 13 14  2  0
 13 15  1  0
 15 16  1  0
 16 17  1  0
 17 18  1  0
 18 19  1  0
 19 20  2  0
 19 21  2  0
 19 22  1  0
 22 23  2  0
 23 24  1  0
 24 25  2  0
 25 26  1  0
 25 27  1  0
 27 28  2  0
 18 29  1  0
 29 30  1  0
 10  4  1  0
 30 15  1  0
 28 22  1  0
  3 31  1  0
  3 32  1  0
  5 33  1  0
  6 34  1  0
  9 35  1  0
 10 36  1  0
 12 37  1  0
 12 38  1  0
 16 39  1  0
 16 40  1  0
 17 41  1  0
 17 42  1  0
 23 43  1  0
 24 44  1  0
 27 45  1  0
 28 46  1  0
 29 47  1  0
 29 48  1  0
 30 49  1  0
 30 50  1  0
M  END
$$$$
