
     RDKit          3D

 39 42  0  0  0  0  0  0  0  0999 V2000
    8.5586   -1.3697   -1.1436 C   0  0  0  0  0  0  0  0  0  0  0  0
    7.1789   -1.2259   -0.8050 O   0  0  0  0  0  0  0  0  0  0  0  0
    6.6726    0.0051   -1.0677 C   0  0  0  0  0  0  0  0  0  0  0  0
    7.2904    0.9420   -1.5481 O   0  0  0  0  0  0  0  0  0  0  0  0
    5.2358    0.0764   -0.6856 C   0  0  0  0  0  0  0  0  0  0  0  0
    4.5436   -1.0181   -0.1517 C   0  0  0  0  0  0  0  0  0  0  0  0
    3.1934   -0.8976    0.1914 C   0  0  0  0  0  0  0  0  0  0  0  0
    2.5165    0.3182    0.0114 C   0  0  0  0  0  0  0  0  0  0  0  0
    1.0542    0.4428    0.3700 C   0  0  0  0  0  0  0  0  0  0  0  0
   -0.0066   -0.0510   -1.0225 S   0  0  0  0  0  0  0  0  0  0  0  0
   -1.6092    0.1240   -0.2660 C   0  0  0  0  0  0  0  0  0  0  0  0
   -1.6989    0.7672    0.9312 N   0  0  0  0  0  0  0  0  0  0  0  0
   -2.8741    0.9297    1.5454 N   0  0  0  0  0  0  0  0  0  0  0  0
   -3.9558    0.4193    0.9080 C   0  0  0  0  0  0  0  0  0  0  0  0
   -3.7979   -0.2235   -0.3061 C   0  0  0  0  0  0  0  0  0  0  0  0
   -2.6393   -0.4085   -0.9595 N   0  0  0  0  0  0  0  0  0  0  0  0
   -5.0302   -0.6368   -0.7234 N   0  0  0  0  0  0  0  0  0  0  0  0
   -5.9903   -0.2758    0.1998 C   0  0  0  0  0  0  0  0  0  0  0  0
   -7.3738   -0.4868    0.1936 C   0  0  0  0  0  0  0  0  0  0  0  0
   -8.1068   -0.0008    1.2808 C   0  0  0  0  0  0  0  0  0  0  0  0
   -7.4819    0.6693    2.3308 C   0  0  0  0  0  0  0  0  0  0  0  0
   -6.0979    0.8755    2.3235 C   0  0  0  0  0  0  0  0  0  0  0  0
   -5.3353    0.3953    1.2403 C   0  0  0  0  0  0  0  0  0  0  0  0
    3.2110    1.4081   -0.5325 C   0  0  0  0  0  0  0  0  0  0  0  0
    4.5605    1.2888   -0.8755 C   0  0  0  0  0  0  0  0  0  0  0  0
    8.7082   -1.2172   -2.2173 H   0  0  0  0  0  0  0  0  0  0  0  0
    8.8656   -2.3886   -0.8922 H   0  0  0  0  0  0  0  0  0  0  0  0
    9.1702   -0.6717   -0.5630 H   0  0  0  0  0  0  0  0  0  0  0  0
    5.0396   -1.9740    0.0003 H   0  0  0  0  0  0  0  0  0  0  0  0
    2.6710   -1.7629    0.5974 H   0  0  0  0  0  0  0  0  0  0  0  0
    0.8422   -0.1871    1.2419 H   0  0  0  0  0  0  0  0  0  0  0  0
    0.8390    1.4789    0.6569 H   0  0  0  0  0  0  0  0  0  0  0  0
   -5.1987   -1.1348   -1.5850 H   0  0  0  0  0  0  0  0  0  0  0  0
   -7.8690   -1.0054   -0.6211 H   0  0  0  0  0  0  0  0  0  0  0  0
   -9.1840   -0.1472    1.3069 H   0  0  0  0  0  0  0  0  0  0  0  0
   -8.0740    1.0383    3.1652 H   0  0  0  0  0  0  0  0  0  0  0  0
   -5.6157    1.4001    3.1451 H   0  0  0  0  0  0  0  0  0  0  0  0
    2.7053    2.3574   -0.6967 H   0  0  0  0  0  0  0  0  0  0  0  0
    5.0826    2.1472   -1.2945 H   0  0  0  0  0  0  0  0  0  0  0  0
  1  2  1  0
  2  3  1  0
  3  4  2  0
  3  5  1  0
  5  6  2  0
  6  7  1  0
  7  8  2  0
  8  9  1  0
  9 10  1  0
 10 11  1  0
 11 12  2  0
 12 13  1  0
 13 14  2  0
 14 15  1  0
 15 16  2  0
 15 17  1  0
 17 18  1  0
 18 19  2  0
 19 20  1  0
 20 21  2  0
 21 22  1  0
 22 23  2  0
  8 24  1  0
 24 25  2  0
 25  5  1  0
 16 11  1  0
 23 18  1  0
 23 14  1  0
  1 26  1  0
  1 27  1  0
  1 28  1  0
  6 29  1  0
  7 30  1  0
  9 31  1  0
  9 32  1  0
 17 33  1  0
 19 34  1  0
 20 35  1  0
 21 36  1  0
 22 37  1  0
 24 38  1  0
 25 39  1  0
M  END
$$$$
