
     RDKit          3D

 52 55  0  0  0  0  0  0  0  0999 V2000
    6.4008    2.4402   -2.9543 C   0  0  0  0  0  0  0  0  0  0  0  0
    6.2906    2.4133   -1.4376 C   0  0  0  0  0  0  0  0  0  0  0  0
    5.0166    1.7494   -0.9800 C   0  0  0  0  0  0  0  0  0  0  0  0
    4.9748    0.3669   -0.7586 C   0  0  0  0  0  0  0  0  0  0  0  0
    3.7902   -0.2537   -0.3494 C   0  0  0  0  0  0  0  0  0  0  0  0
    2.6301    0.5041   -0.1627 C   0  0  0  0  0  0  0  0  0  0  0  0
    1.3569   -0.1196    0.2680 C   0  0  0  0  0  0  0  0  0  0  0  0
    0.2825    0.5635    0.5250 N   0  0  0  0  0  0  0  0  0  0  0  0
   -0.6936   -0.3282    0.8678 N   0  0  0  0  0  0  0  0  0  0  0  0
   -1.9061    0.1106    1.3967 C   0  0  0  0  0  0  0  0  0  0  0  0
   -2.1643    1.4861    1.5532 C   0  0  0  0  0  0  0  0  0  0  0  0
   -3.3724    1.9609    2.0740 C   0  0  0  0  0  0  0  0  0  0  0  0
   -4.3599    1.0508    2.4416 C   0  0  0  0  0  0  0  0  0  0  0  0
   -5.8961    1.6480    3.0886 S   0  0  0  0  0  6  0  0  0  0  0  0
   -6.7297    2.0278    1.6743 N   0  0  0  0  0  0  0  0  0  0  0  0
   -5.6476    2.8759    3.8048 O   0  0  0  0  0  0  0  0  0  0  0  0
   -6.6139    0.5379    3.6727 O   0  0  0  0  0  0  0  0  0  0  0  0
   -4.1385   -0.3187    2.3152 C   0  0  0  0  0  0  0  0  0  0  0  0
   -2.9213   -0.7762    1.7945 C   0  0  0  0  0  0  0  0  0  0  0  0
   -0.2755   -1.7230    0.7121 C   0  0  0  0  0  0  0  0  0  0  0  0
   -0.9617   -2.4279   -0.4515 C   0  0  0  0  0  0  0  0  0  0  0  0
   -1.2796   -1.7550   -1.6456 C   0  0  0  0  0  0  0  0  0  0  0  0
   -1.8885   -2.4314   -2.7038 C   0  0  0  0  0  0  0  0  0  0  0  0
   -2.1763   -3.7837   -2.5768 C   0  0  0  0  0  0  0  0  0  0  0  0
   -2.7602   -4.4332   -3.5921 F   0  0  0  0  0  0  0  0  0  0  0  0
   -1.8653   -4.4741   -1.4120 C   0  0  0  0  0  0  0  0  0  0  0  0
   -1.2563   -3.8000   -0.3517 C   0  0  0  0  0  0  0  0  0  0  0  0
    1.2306   -1.6042    0.4715 C   0  0  0  0  0  0  0  0  0  0  0  0
    2.6664    1.8848   -0.3872 C   0  0  0  0  0  0  0  0  0  0  0  0
    3.8509    2.5025   -0.7958 C   0  0  0  0  0  0  0  0  0  0  0  0
    7.3329    2.9275   -3.2574 H   0  0  0  0  0  0  0  0  0  0  0  0
    5.5678    2.9917   -3.4035 H   0  0  0  0  0  0  0  0  0  0  0  0
    6.3963    1.4273   -3.3711 H   0  0  0  0  0  0  0  0  0  0  0  0
    6.3354    3.4363   -1.0444 H   0  0  0  0  0  0  0  0  0  0  0  0
    7.1539    1.8872   -1.0123 H   0  0  0  0  0  0  0  0  0  0  0  0
    5.8688   -0.2365   -0.9039 H   0  0  0  0  0  0  0  0  0  0  0  0
    3.8025   -1.3262   -0.1824 H   0  0  0  0  0  0  0  0  0  0  0  0
   -1.4024    2.2096    1.2674 H   0  0  0  0  0  0  0  0  0  0  0  0
   -3.5254    3.0318    2.1888 H   0  0  0  0  0  0  0  0  0  0  0  0
   -7.5395    1.4107    1.5946 H   0  0  0  0  0  0  0  0  0  0  0  0
   -6.1412    1.9933    0.8424 H   0  0  0  0  0  0  0  0  0  0  0  0
   -4.8971   -1.0385    2.6148 H   0  0  0  0  0  0  0  0  0  0  0  0
   -2.7881   -1.8502    1.7042 H   0  0  0  0  0  0  0  0  0  0  0  0
   -0.4497   -2.2802    1.6414 H   0  0  0  0  0  0  0  0  0  0  0  0
   -1.0609   -0.6930   -1.7528 H   0  0  0  0  0  0  0  0  0  0  0  0
   -2.1392   -1.9104   -3.6222 H   0  0  0  0  0  0  0  0  0  0  0  0
   -2.0984   -5.5317   -1.3382 H   0  0  0  0  0  0  0  0  0  0  0  0
   -1.0154   -4.3535    0.5538 H   0  0  0  0  0  0  0  0  0  0  0  0
    1.5927   -2.1708   -0.3906 H   0  0  0  0  0  0  0  0  0  0  0  0
    1.7944   -1.8850    1.3677 H   0  0  0  0  0  0  0  0  0  0  0  0
    1.7730    2.4901   -0.2471 H   0  0  0  0  0  0  0  0  0  0  0  0
    3.8561    3.5767   -0.9690 H   0  0  0  0  0  0  0  0  0  0  0  0
  1  2  1  0
  2  3  1  0
  3  4  2  0
  4  5  1  0
  5  6  2  0
  6  7  1  0
  7  8  2  0
  8  9  1  0
  9 10  1  0
 10 11  2  0
 11 12  1  0
 12 13  2  0
 13 14  1  0
 14 15  1  0
 14 16  2  0
 14 17  2  0
 13 18  1  0
 18 19  2  0
  9 20  1  0
 20 21  1  0
 21 22  2  0
 22 23  1  0
 23 24  2  0
 24 25  1  0
 24 26  1  0
 26 27  2  0
 20 28  1  0
  6 29  1  0
 29 30  2  0
 30  3  1  0
 28  7  1  0
 19 10  1  0
 27 21  1  0
  1 31  1  0
  1 32  1  0
  1 33  1  0
  2 34  1  0
  2 35  1  0
  4 36  1  0
  5 37  1  0
 11 38  1  0
 12 39  1  0
 15 40  1  0
 15 41  1  0
 18 42  1  0
 19 43  1  0
 20 44  1  0
 22 45  1  0
 23 46  1  0
 26 47  1  0
 27 48  1  0
 28 49  1  0
 28 50  1  0
 29 51  1  0
 30 52  1  0
M  END
$$$$
