
     RDKit          3D

 45 47  0  0  0  0  0  0  0  0999 V2000
    2.5397   -1.3957    0.7362 O   0  0  0  0  0  0  0  0  0  0  0  0
    2.1066   -0.3224    0.3221 C   0  0  0  0  0  0  0  0  0  0  0  0
    2.9032    0.5757   -0.3600 N   0  0  0  0  0  0  0  0  0  0  0  0
    4.2862    0.2998   -0.3845 N   0  0  0  0  0  0  0  0  0  0  0  0
    5.1563    1.3771   -0.2853 C   0  0  0  0  0  0  0  0  0  0  0  0
    4.7170    2.5258   -0.3817 O   0  0  0  0  0  0  0  0  0  0  0  0
    6.5534    1.0325   -0.0561 C   0  0  0  0  0  0  0  0  0  0  0  0
    7.1766   -0.2037    0.0070 C   0  0  0  0  0  0  0  0  0  0  0  0
    8.5782   -0.1013    0.2536 C   0  0  0  0  0  0  0  0  0  0  0  0
    8.9868    1.2074    0.3678 C   0  0  0  0  0  0  0  0  0  0  0  0
    7.6892    2.3011    0.1804 S   0  0  0  0  0  0  0  0  0  0  0  0
    0.6908    0.0754    0.5624 C   0  0  0  0  0  0  0  0  0  0  0  0
    0.0505    1.0731   -0.1872 C   0  0  0  0  0  0  0  0  0  0  0  0
   -1.2839    1.4008    0.0753 C   0  0  0  0  0  0  0  0  0  0  0  0
   -1.9859    0.7122    1.0693 C   0  0  0  0  0  0  0  0  0  0  0  0
   -3.6803    1.1492    1.4197 S   0  0  0  0  0  6  0  0  0  0  0  0
   -3.8585    2.5254    1.0068 O   0  0  0  0  0  0  0  0  0  0  0  0
   -3.9618    0.7297    2.7764 O   0  0  0  0  0  0  0  0  0  0  0  0
   -4.5566    0.1553    0.3623 N   0  0  0  0  0  0  0  0  0  0  0  0
   -4.6045    0.5477   -1.0643 C   0  0  0  0  0  0  0  0  0  0  0  0
   -5.4730   -0.4305   -1.8468 C   0  0  0  0  0  0  0  0  0  0  0  0
   -4.8995   -1.8451   -1.8017 C   0  0  0  0  0  0  0  0  0  0  0  0
   -4.0977   -2.1123   -0.5285 C   0  0  0  0  0  0  0  0  0  0  0  0
   -4.6162   -1.2976    0.6495 C   0  0  0  0  0  0  0  0  0  0  0  0
   -1.3527   -0.2724    1.8320 C   0  0  0  0  0  0  0  0  0  0  0  0
   -0.0197   -0.5961    1.5690 C   0  0  0  0  0  0  0  0  0  0  0  0
    2.6678    1.5668   -0.4205 H   0  0  0  0  0  0  0  0  0  0  0  0
    4.5426   -0.6245   -0.0448 H   0  0  0  0  0  0  0  0  0  0  0  0
    6.6695   -1.1526   -0.1196 H   0  0  0  0  0  0  0  0  0  0  0  0
    9.2517   -0.9455    0.3401 H   0  0  0  0  0  0  0  0  0  0  0  0
    9.9866    1.5773    0.5524 H   0  0  0  0  0  0  0  0  0  0  0  0
    0.5622    1.5993   -0.9883 H   0  0  0  0  0  0  0  0  0  0  0  0
   -1.7680    2.1889   -0.4985 H   0  0  0  0  0  0  0  0  0  0  0  0
   -5.0407    1.5486   -1.1496 H   0  0  0  0  0  0  0  0  0  0  0  0
   -3.5965    0.5713   -1.4911 H   0  0  0  0  0  0  0  0  0  0  0  0
   -6.4830   -0.4409   -1.4195 H   0  0  0  0  0  0  0  0  0  0  0  0
   -5.5754   -0.1050   -2.8875 H   0  0  0  0  0  0  0  0  0  0  0  0
   -4.2529   -2.0163   -2.6713 H   0  0  0  0  0  0  0  0  0  0  0  0
   -5.7225   -2.5648   -1.8851 H   0  0  0  0  0  0  0  0  0  0  0  0
   -4.1263   -3.1827   -0.2938 H   0  0  0  0  0  0  0  0  0  0  0  0
   -3.0449   -1.8598   -0.7087 H   0  0  0  0  0  0  0  0  0  0  0  0
   -4.0415   -1.5551    1.5438 H   0  0  0  0  0  0  0  0  0  0  0  0
   -5.6590   -1.5590    0.8641 H   0  0  0  0  0  0  0  0  0  0  0  0
   -1.8827   -0.7870    2.6307 H   0  0  0  0  0  0  0  0  0  0  0  0
    0.4684   -1.3700    2.1603 H   0  0  0  0  0  0  0  0  0  0  0  0
  1  2  2  0
  2  3  1  0
  3  4  1  0
  4  5  1  0
  5  6  2  0
  5  7  1  0
  7  8  2  0
  8  9  1  0
  9 10  2  0
 10 11  1  0
  2 12  1  0
 12 13  2  0
 13 14  1  0
 14 15  2  0
 15 16  1  0
 16 17  2  0
 16 18  2  0
 16 19  1  0
 19 20  1  0
 20 21  1  0
 21 22  1  0
 22 23  1  0
 23 24  1  0
 15 25  1  0
 25 26  2  0
 11  7  1  0
 26 12  1  0
 24 19  1  0
  3 27  1  0
  4 28  1  0
  8 29  1  0
  9 30  1  0
 10 31  1  0
 13 32  1  0
 14 33  1  0
 20 34  1  0
 20 35  1  0
 21 36  1  0
 21 37  1  0
 22 38  1  0
 22 39  1  0
 23 40  1  0
 23 41  1  0
 24 42  1  0
 24 43  1  0
 25 44  1  0
 26 45  1  0
M  END
$$$$
