
     RDKit          3D

 58 62  0  0  0  0  0  0  0  0999 V2000
   -3.8753    0.1563   -2.6901 C   0  0  0  0  0  0  0  0  0  0  0  0
   -3.2374   -1.0733   -2.0447 C   0  0  0  0  0  0  0  0  0  0  0  0
   -3.6493   -2.3794   -2.7615 C   0  0  0  0  0  0  0  0  0  0  0  0
   -4.6695   -2.9518   -1.8355 C   0  0  0  0  0  0  0  0  0  0  0  0
   -5.5000   -4.0400   -2.0536 C   0  0  0  0  0  0  0  0  0  0  0  0
   -6.3546   -4.4383   -1.0233 C   0  0  0  0  0  0  0  0  0  0  0  0
   -6.3647   -3.7522    0.2008 C   0  0  0  0  0  0  0  0  0  0  0  0
   -5.5167   -2.6618    0.4109 C   0  0  0  0  0  0  0  0  0  0  0  0
   -4.6673   -2.2851   -0.6144 C   0  0  0  0  0  0  0  0  0  0  0  0
   -3.7526   -1.1787   -0.6230 N   0  0  0  0  0  0  0  0  0  0  0  0
   -2.5504   -1.2400    0.5934 S   0  0  0  0  0  6  0  0  0  0  0  0
   -3.1714   -1.2798    1.9018 O   0  0  0  0  0  0  0  0  0  0  0  0
   -1.5557   -2.2206    0.2078 O   0  0  0  0  0  0  0  0  0  0  0  0
   -1.8104    0.3734    0.4464 C   0  0  0  0  0  0  0  0  0  0  0  0
   -2.5081    1.4849    0.9348 C   0  0  0  0  0  0  0  0  0  0  0  0
   -1.9490    2.7577    0.8182 C   0  0  0  0  0  0  0  0  0  0  0  0
   -0.6946    2.9148    0.2261 C   0  0  0  0  0  0  0  0  0  0  0  0
    0.0096    1.7924   -0.2309 C   0  0  0  0  0  0  0  0  0  0  0  0
    1.3192    1.9471   -0.9028 C   0  0  0  0  0  0  0  0  0  0  0  0
    1.4679    1.3950   -1.9900 O   0  0  0  0  0  0  0  0  0  0  0  0
    2.2985    2.7280   -0.2901 N   0  0  0  0  0  0  0  0  0  0  0  0
    2.4705    2.7600    1.1703 C   0  0  0  0  0  0  0  0  0  0  0  0
    3.4511    1.6605    1.6354 C   0  0  0  0  0  0  0  0  0  0  0  0
    4.7132    1.7288    0.8758 N   0  0  0  0  0  0  0  0  0  0  0  0
    5.6755    0.8120    1.3112 C   0  0  0  0  0  0  0  0  0  0  0  0
    6.6706    0.4654    0.4751 N   0  0  0  0  0  0  0  0  0  0  0  0
    7.5996   -0.4002    0.9230 C   0  0  0  0  0  0  0  0  0  0  0  0
    7.5863   -0.9407    2.1812 C   0  0  0  0  0  0  0  0  0  0  0  0
    6.5447   -0.5329    2.9717 C   0  0  0  0  0  0  0  0  0  0  0  0
    5.5943    0.3302    2.5649 N   0  0  0  0  0  0  0  0  0  0  0  0
    4.5675    1.7724   -0.5943 C   0  0  0  0  0  0  0  0  0  0  0  0
    3.5719    2.8763   -1.0002 C   0  0  0  0  0  0  0  0  0  0  0  0
   -0.5474    0.5156   -0.1312 C   0  0  0  0  0  0  0  0  0  0  0  0
   -3.5463    0.2620   -3.7290 H   0  0  0  0  0  0  0  0  0  0  0  0
   -3.5935    1.0672   -2.1515 H   0  0  0  0  0  0  0  0  0  0  0  0
   -4.9693    0.0955   -2.6835 H   0  0  0  0  0  0  0  0  0  0  0  0
   -2.1497   -0.9612   -2.0922 H   0  0  0  0  0  0  0  0  0  0  0  0
   -2.7953   -3.0631   -2.8264 H   0  0  0  0  0  0  0  0  0  0  0  0
   -4.0499   -2.2023   -3.7642 H   0  0  0  0  0  0  0  0  0  0  0  0
   -5.4860   -4.5770   -2.9967 H   0  0  0  0  0  0  0  0  0  0  0  0
   -7.0164   -5.2891   -1.1679 H   0  0  0  0  0  0  0  0  0  0  0  0
   -7.0374   -4.0716    0.9933 H   0  0  0  0  0  0  0  0  0  0  0  0
   -5.5376   -2.1268    1.3541 H   0  0  0  0  0  0  0  0  0  0  0  0
   -3.4875    1.3620    1.3941 H   0  0  0  0  0  0  0  0  0  0  0  0
   -2.4940    3.6267    1.1802 H   0  0  0  0  0  0  0  0  0  0  0  0
   -0.2715    3.9106    0.1127 H   0  0  0  0  0  0  0  0  0  0  0  0
    1.5207    2.6338    1.6941 H   0  0  0  0  0  0  0  0  0  0  0  0
    2.8654    3.7502    1.4280 H   0  0  0  0  0  0  0  0  0  0  0  0
    2.9834    0.6770    1.4928 H   0  0  0  0  0  0  0  0  0  0  0  0
    3.6243    1.8102    2.7082 H   0  0  0  0  0  0  0  0  0  0  0  0
    8.3802   -0.6494    0.2105 H   0  0  0  0  0  0  0  0  0  0  0  0
    8.3405   -1.6332    2.5245 H   0  0  0  0  0  0  0  0  0  0  0  0
    6.4348   -0.8945    3.9896 H   0  0  0  0  0  0  0  0  0  0  0  0
    4.2097    0.8016   -0.9620 H   0  0  0  0  0  0  0  0  0  0  0  0
    5.5239    1.9979   -1.0815 H   0  0  0  0  0  0  0  0  0  0  0  0
    3.4114    2.8625   -2.0836 H   0  0  0  0  0  0  0  0  0  0  0  0
    3.9764    3.8617   -0.7387 H   0  0  0  0  0  0  0  0  0  0  0  0
   -0.0023   -0.3464   -0.5105 H   0  0  0  0  0  0  0  0  0  0  0  0
  1  2  1  0
  2  3  1  0
  3  4  1  0
  4  5  2  0
  5  6  1  0
  6  7  2  0
  7  8  1  0
  8  9  2  0
  9 10  1  0
 10 11  1  0
 11 12  2  0
 11 13  2  0
 11 14  1  0
 14 15  2  0
 15 16  1  0
 16 17  2  0
 17 18  1  0
 18 19  1  0
 19 20  2  0
 19 21  1  0
 21 22  1  0
 22 23  1  0
 23 24  1  0
 24 25  1  0
 25 26  2  0
 26 27  1  0
 27 28  2  0
 28 29  1  0
 29 30  2  0
 24 31  1  0
 31 32  1  0
 18 33  2  0
 10  2  1  0
 33 14  1  0
  9  4  1  0
 32 21  1  0
 30 25  1  0
  1 34  1  0
  1 35  1  0
  1 36  1  0
  2 37  1  0
  3 38  1  0
  3 39  1  0
  5 40  1  0
  6 41  1  0
  7 42  1  0
  8 43  1  0
 15 44  1  0
 16 45  1  0
 17 46  1  0
 22 47  1  0
 22 48  1  0
 23 49  1  0
 23 50  1  0
 27 51  1  0
 28 52  1  0
 29 53  1  0
 31 54  1  0
 31 55  1  0
 32 56  1  0
 32 57  1  0
 33 58  1  0
M  END
$$$$
