
     RDKit          3D

 53 56  0  0  0  0  0  0  0  0999 V2000
    6.0238    0.9150    2.7520 C   0  0  0  0  0  0  0  0  0  0  0  0
    5.3759    0.4348    1.4884 C   0  0  0  0  0  0  0  0  0  0  0  0
    4.0148    0.5769    1.3048 C   0  0  0  0  0  0  0  0  0  0  0  0
    3.4619    0.1079    0.1136 C   0  0  0  0  0  0  0  0  0  0  0  0
    1.9896    0.2177   -0.0118 C   0  0  0  0  0  0  0  0  0  0  0  0
    1.4739    1.3169    0.1379 O   0  0  0  0  0  0  0  0  0  0  0  0
    1.3500   -0.9915   -0.2085 N   0  0  0  0  0  0  0  0  0  0  0  0
   -0.0301   -1.2038   -0.3974 C   0  0  0  0  0  0  0  0  0  0  0  0
   -0.4752   -2.5282   -0.4149 C   0  0  0  0  0  0  0  0  0  0  0  0
   -1.8302   -2.8249   -0.5874 C   0  0  0  0  0  0  0  0  0  0  0  0
   -2.7787   -1.8043   -0.7476 C   0  0  0  0  0  0  0  0  0  0  0  0
   -4.2181   -2.1909   -0.9451 C   0  0  0  0  0  0  0  0  0  0  0  0
   -2.3215   -0.4728   -0.7545 C   0  0  0  0  0  0  0  0  0  0  0  0
   -3.4383    0.8983   -1.0149 S   0  0  0  0  0  6  0  0  0  0  0  0
   -4.3569    0.5328   -2.0720 O   0  0  0  0  0  0  0  0  0  0  0  0
   -2.6749    2.1257   -1.0966 O   0  0  0  0  0  0  0  0  0  0  0  0
   -4.3082    0.9560    0.4523 N   0  0  0  0  0  0  0  0  0  0  0  0
   -3.5105    1.3356    1.6667 C   0  0  0  0  0  0  0  0  0  0  0  0
   -3.8337    2.7635    2.1160 C   0  0  0  0  0  0  0  0  0  0  0  0
   -5.2099    2.9332    2.4868 O   0  0  0  0  0  0  0  0  0  0  0  0
   -6.1052    2.0991    1.7376 C   0  0  0  0  0  0  0  0  0  0  0  0
   -5.5784    1.7462    0.3441 C   0  0  0  0  0  0  0  0  0  0  0  0
   -0.9563   -0.1788   -0.5840 C   0  0  0  0  0  0  0  0  0  0  0  0
    4.2721   -0.4508   -0.9005 C   0  0  0  0  0  0  0  0  0  0  0  0
    3.8105   -0.8798   -2.1724 C   0  0  0  0  0  0  0  0  0  0  0  0
    4.6851   -1.4307   -3.1070 C   0  0  0  0  0  0  0  0  0  0  0  0
    6.0302   -1.5538   -2.7923 C   0  0  0  0  0  0  0  0  0  0  0  0
    6.4928   -1.1137   -1.5501 C   0  0  0  0  0  0  0  0  0  0  0  0
    5.6440   -0.5572   -0.6026 C   0  0  0  0  0  0  0  0  0  0  0  0
    6.1741   -0.1403    0.5605 N   0  0  0  0  0  0  0  0  0  0  0  0
    5.6079    0.3856    3.6149 H   0  0  0  0  0  0  0  0  0  0  0  0
    5.8606    1.9901    2.8761 H   0  0  0  0  0  0  0  0  0  0  0  0
    7.1035    0.7350    2.7293 H   0  0  0  0  0  0  0  0  0  0  0  0
    3.3905    1.0337    2.0667 H   0  0  0  0  0  0  0  0  0  0  0  0
    1.9277   -1.8232   -0.1584 H   0  0  0  0  0  0  0  0  0  0  0  0
    0.2222   -3.3527   -0.2871 H   0  0  0  0  0  0  0  0  0  0  0  0
   -2.1404   -3.8687   -0.5953 H   0  0  0  0  0  0  0  0  0  0  0  0
   -4.8823   -1.5948   -0.3139 H   0  0  0  0  0  0  0  0  0  0  0  0
   -4.5010   -2.0803   -1.9960 H   0  0  0  0  0  0  0  0  0  0  0  0
   -4.3871   -3.2372   -0.6664 H   0  0  0  0  0  0  0  0  0  0  0  0
   -3.7736    0.6221    2.4567 H   0  0  0  0  0  0  0  0  0  0  0  0
   -2.4359    1.2385    1.4920 H   0  0  0  0  0  0  0  0  0  0  0  0
   -3.6043    3.4857    1.3243 H   0  0  0  0  0  0  0  0  0  0  0  0
   -3.2274    3.0302    2.9874 H   0  0  0  0  0  0  0  0  0  0  0  0
   -7.0588    2.6306    1.6587 H   0  0  0  0  0  0  0  0  0  0  0  0
   -6.2839    1.1901    2.3238 H   0  0  0  0  0  0  0  0  0  0  0  0
   -5.3953    2.6685   -0.2197 H   0  0  0  0  0  0  0  0  0  0  0  0
   -6.3227    1.1435   -0.1864 H   0  0  0  0  0  0  0  0  0  0  0  0
   -0.6344    0.8588   -0.6116 H   0  0  0  0  0  0  0  0  0  0  0  0
    2.7657   -0.7667   -2.4562 H   0  0  0  0  0  0  0  0  0  0  0  0
    4.3179   -1.7508   -4.0791 H   0  0  0  0  0  0  0  0  0  0  0  0
    6.7266   -1.9771   -3.5117 H   0  0  0  0  0  0  0  0  0  0  0  0
    7.5522   -1.1992   -1.3167 H   0  0  0  0  0  0  0  0  0  0  0  0
  1  2  1  0
  2  3  2  0
  3  4  1  0
  4  5  1  0
  5  6  2  0
  5  7  1  0
  7  8  1  0
  8  9  2  0
  9 10  1  0
 10 11  2  0
 11 12  1  0
 11 13  1  0
 13 14  1  0
 14 15  2  0
 14 16  2  0
 14 17  1  0
 17 18  1  0
 18 19  1  0
 19 20  1  0
 20 21  1  0
 21 22  1  0
 13 23  2  0
  4 24  2  0
 24 25  1  0
 25 26  2  0
 26 27  1  0
 27 28  2  0
 28 29  1  0
 29 30  2  0
 30  2  1  0
 23  8  1  0
 29 24  1  0
 22 17  1  0
  1 31  1  0
  1 32  1  0
  1 33  1  0
  3 34  1  0
  7 35  1  0
  9 36  1  0
 10 37  1  0
 12 38  1  0
 12 39  1  0
 12 40  1  0
 18 41  1  0
 18 42  1  0
 19 43  1  0
 19 44  1  0
 21 45  1  0
 21 46  1  0
 22 47  1  0
 22 48  1  0
 23 49  1  0
 25 50  1  0
 26 51  1  0
 27 52  1  0
 28 53  1  0
M  END
$$$$
