
     RDKit          3D

 37 39  0  0  0  0  0  0  0  0999 V2000
    3.9119   -2.3981    0.7636 C   0  0  0  0  0  0  0  0  0  0  0  0
    2.8259   -1.4473    0.3567 C   0  0  0  0  0  0  0  0  0  0  0  0
    2.0047   -1.7327   -0.7349 C   0  0  0  0  0  0  0  0  0  0  0  0
    1.0057   -0.8351   -1.1277 C   0  0  0  0  0  0  0  0  0  0  0  0
    0.7915    0.3576   -0.4313 C   0  0  0  0  0  0  0  0  0  0  0  0
    1.6890    0.6926    0.5990 C   0  0  0  0  0  0  0  0  0  0  0  0
    2.6770   -0.2191    1.0058 C   0  0  0  0  0  0  0  0  0  0  0  0
    1.5930    2.0348    1.2708 C   0  0  0  0  0  0  0  0  0  0  0  0
    1.2350    3.0602    0.2103 C   0  0  0  0  0  0  0  0  0  0  0  0
   -0.0885    2.6842   -0.4382 C   0  0  0  0  0  0  0  0  0  0  0  0
   -0.2497    1.2684   -0.7819 N   0  0  0  0  0  0  0  0  0  0  0  0
   -1.5092    0.9403   -1.3109 C   0  0  0  0  0  0  0  0  0  0  0  0
   -2.2094    1.8142   -1.8390 O   0  0  0  0  0  0  0  0  0  0  0  0
   -2.0794   -0.4861   -1.0886 C   0  0  0  0  0  0  0  0  0  0  0  0
   -2.1640   -0.8372    0.3970 C   0  0  0  0  0  0  0  0  0  0  0  0
   -3.4898   -1.5451    0.5235 C   0  0  0  0  0  0  0  0  0  0  0  0
   -4.3171   -0.8331   -0.5151 C   0  0  0  0  0  0  0  0  0  0  0  0
   -3.4251   -0.6039   -1.6068 O   0  0  0  0  0  0  0  0  0  0  0  0
    4.8335   -2.1695    0.2196 H   0  0  0  0  0  0  0  0  0  0  0  0
    3.6235   -3.4333    0.5527 H   0  0  0  0  0  0  0  0  0  0  0  0
    4.1082   -2.3288    1.8387 H   0  0  0  0  0  0  0  0  0  0  0  0
    2.1450   -2.6510   -1.3017 H   0  0  0  0  0  0  0  0  0  0  0  0
    0.4531   -1.0681   -2.0319 H   0  0  0  0  0  0  0  0  0  0  0  0
    3.3475    0.0415    1.8228 H   0  0  0  0  0  0  0  0  0  0  0  0
    0.8358    1.9968    2.0624 H   0  0  0  0  0  0  0  0  0  0  0  0
    2.5495    2.3106    1.7291 H   0  0  0  0  0  0  0  0  0  0  0  0
    2.0211    3.0978   -0.5556 H   0  0  0  0  0  0  0  0  0  0  0  0
    1.1667    4.0617    0.6491 H   0  0  0  0  0  0  0  0  0  0  0  0
   -0.9116    2.9466    0.2402 H   0  0  0  0  0  0  0  0  0  0  0  0
   -0.2281    3.2806   -1.3484 H   0  0  0  0  0  0  0  0  0  0  0  0
   -1.5128   -1.2243   -1.6522 H   0  0  0  0  0  0  0  0  0  0  0  0
   -2.1648    0.0663    1.0192 H   0  0  0  0  0  0  0  0  0  0  0  0
   -1.3297   -1.4611    0.7308 H   0  0  0  0  0  0  0  0  0  0  0  0
   -3.3696   -2.5999    0.2502 H   0  0  0  0  0  0  0  0  0  0  0  0
   -3.9198   -1.4932    1.5269 H   0  0  0  0  0  0  0  0  0  0  0  0
   -5.1731   -1.4233   -0.8528 H   0  0  0  0  0  0  0  0  0  0  0  0
   -4.6758    0.1362   -0.1516 H   0  0  0  0  0  0  0  0  0  0  0  0
  1  2  1  0
  2  3  2  0
  3  4  1  0
  4  5  2  0
  5  6  1  0
  6  7  2  0
  6  8  1  0
  8  9  1  0
  9 10  1  0
 10 11  1  0
 11 12  1  0
 12 13  2  0
 12 14  1  0
 14 15  1  0
 15 16  1  0
 16 17  1  0
 17 18  1  0
  7  2  1  0
 18 14  1  0
 11  5  1  0
  1 19  1  0
  1 20  1  0
  1 21  1  0
  3 22  1  0
  4 23  1  0
  7 24  1  0
  8 25  1  0
  8 26  1  0
  9 27  1  0
  9 28  1  0
 10 29  1  0
 10 30  1  0
 14 31  1  0
 15 32  1  0
 15 33  1  0
 16 34  1  0
 16 35  1  0
 17 36  1  0
 17 37  1  0
M  END
$$$$
