
     RDKit          3D

 45 47  0  0  0  0  0  0  0  0999 V2000
    3.3014    2.4967   -3.1322 C   0  0  0  0  0  0  0  0  0  0  0  0
    2.8082    1.6336   -2.1136 O   0  0  0  0  0  0  0  0  0  0  0  0
    3.6887    0.7015   -1.6092 C   0  0  0  0  0  0  0  0  0  0  0  0
    5.0288    0.5789   -1.9885 C   0  0  0  0  0  0  0  0  0  0  0  0
    5.8316   -0.4074   -1.4119 C   0  0  0  0  0  0  0  0  0  0  0  0
    5.3012   -1.2701   -0.4564 C   0  0  0  0  0  0  0  0  0  0  0  0
    3.9649   -1.1538   -0.0688 C   0  0  0  0  0  0  0  0  0  0  0  0
    3.1518   -0.1715   -0.6366 C   0  0  0  0  0  0  0  0  0  0  0  0
    1.7923    0.0154   -0.2988 N   0  0  0  0  0  0  0  0  0  0  0  0
    1.0328   -0.6809    0.6275 C   0  0  0  0  0  0  0  0  0  0  0  0
    1.4396   -1.5848    1.3529 O   0  0  0  0  0  0  0  0  0  0  0  0
   -0.4021   -0.1389    0.7258 C   0  0  0  0  0  0  0  0  0  0  0  0
   -0.4816    0.9971    1.7501 C   0  0  0  0  0  0  0  0  0  0  0  0
   -0.8897    0.2888    3.0332 C   0  0  0  0  0  0  0  0  0  0  0  0
   -1.8776   -0.7610    2.5423 C   0  0  0  0  0  0  0  0  0  0  0  0
   -1.3378   -1.1603    1.2385 N   0  0  0  0  0  0  0  0  0  0  0  0
   -2.2126   -2.1058    0.1795 S   0  0  0  0  0  6  0  0  0  0  0  0
   -2.8824   -3.1436    0.9326 O   0  0  0  0  0  0  0  0  0  0  0  0
   -1.3706   -2.4091   -0.9578 O   0  0  0  0  0  0  0  0  0  0  0  0
   -3.4802   -0.9889   -0.4028 C   0  0  0  0  0  0  0  0  0  0  0  0
   -3.2810   -0.2674   -1.5855 C   0  0  0  0  0  0  0  0  0  0  0  0
   -4.2867    0.5825   -2.0518 C   0  0  0  0  0  0  0  0  0  0  0  0
   -5.4856    0.6930   -1.3457 C   0  0  0  0  0  0  0  0  0  0  0  0
   -6.7186    1.7457   -1.9202 Cl  0  0  0  0  0  0  0  0  0  0  0  0
   -5.6947   -0.0473   -0.1813 C   0  0  0  0  0  0  0  0  0  0  0  0
   -4.6935   -0.8997    0.2892 C   0  0  0  0  0  0  0  0  0  0  0  0
    2.4795    3.1489   -3.4428 H   0  0  0  0  0  0  0  0  0  0  0  0
    3.6241    1.9288   -4.0112 H   0  0  0  0  0  0  0  0  0  0  0  0
    4.1063    3.1345   -2.7523 H   0  0  0  0  0  0  0  0  0  0  0  0
    5.4806    1.2299   -2.7287 H   0  0  0  0  0  0  0  0  0  0  0  0
    6.8728   -0.5041   -1.7093 H   0  0  0  0  0  0  0  0  0  0  0  0
    5.9248   -2.0417   -0.0107 H   0  0  0  0  0  0  0  0  0  0  0  0
    3.5874   -1.8498    0.6737 H   0  0  0  0  0  0  0  0  0  0  0  0
    1.3535    0.7574   -0.8343 H   0  0  0  0  0  0  0  0  0  0  0  0
   -0.7145    0.2329   -0.2550 H   0  0  0  0  0  0  0  0  0  0  0  0
   -1.2673    1.7047    1.4579 H   0  0  0  0  0  0  0  0  0  0  0  0
    0.4528    1.5538    1.8674 H   0  0  0  0  0  0  0  0  0  0  0  0
   -1.3315    0.9664    3.7688 H   0  0  0  0  0  0  0  0  0  0  0  0
   -0.0183   -0.1936    3.4917 H   0  0  0  0  0  0  0  0  0  0  0  0
   -2.8698   -0.3138    2.4356 H   0  0  0  0  0  0  0  0  0  0  0  0
   -1.9295   -1.6083    3.2309 H   0  0  0  0  0  0  0  0  0  0  0  0
   -2.3584   -0.3706   -2.1527 H   0  0  0  0  0  0  0  0  0  0  0  0
   -4.1356    1.1456   -2.9697 H   0  0  0  0  0  0  0  0  0  0  0  0
   -6.6365    0.0277    0.3570 H   0  0  0  0  0  0  0  0  0  0  0  0
   -4.8669   -1.4915    1.1861 H   0  0  0  0  0  0  0  0  0  0  0  0
  1  2  1  0
  2  3  1  0
  3  4  2  0
  4  5  1  0
  5  6  2  0
  6  7  1  0
  7  8  2  0
  8  9  1  0
  9 10  1  0
 10 11  2  0
 10 12  1  0
 12 13  1  0
 13 14  1  0
 14 15  1  0
 15 16  1  0
 16 17  1  0
 17 18  2  0
 17 19  2  0
 17 20  1  0
 20 21  2  0
 21 22  1  0
 22 23  2  0
 23 24  1  0
 23 25  1  0
 25 26  2  0
  8  3  1  0
 16 12  1  0
 26 20  1  0
  1 27  1  0
  1 28  1  0
  1 29  1  0
  4 30  1  0
  5 31  1  0
  6 32  1  0
  7 33  1  0
  9 34  1  0
 12 35  1  0
 13 36  1  0
 13 37  1  0
 14 38  1  0
 14 39  1  0
 15 40  1  0
 15 41  1  0
 21 42  1  0
 22 43  1  0
 25 44  1  0
 26 45  1  0
M  END
$$$$
