
     RDKit          3D

 48 50  0  0  0  0  0  0  0  0999 V2000
   -2.9177   -0.6284    1.5621 O   0  0  0  0  0  0  0  0  0  0  0  0
   -1.8529   -0.1901    1.1339 C   0  0  0  0  0  0  0  0  0  0  0  0
   -0.5115   -0.4109    1.7976 C   0  0  0  0  0  0  0  0  0  0  0  0
   -0.6168   -1.2710    3.0571 C   0  0  0  0  0  0  0  0  0  0  0  0
    0.7101   -1.3926    3.8164 C   0  0  0  0  0  0  0  0  0  0  0  0
    1.7379   -2.1170    3.0642 N   0  0  0  0  0  0  0  0  0  0  0  0
    2.6052   -1.3950    2.2587 C   0  0  0  0  0  0  0  0  0  0  0  0
    2.6296   -0.1755    2.1669 O   0  0  0  0  0  0  0  0  0  0  0  0
    3.5030   -2.3159    1.5073 C   0  0  0  0  0  0  0  0  0  0  0  0
    4.3677   -1.9973    0.5339 C   0  0  0  0  0  0  0  0  0  0  0  0
    4.5769   -0.6480   -0.0089 C   0  0  0  0  0  0  0  0  0  0  0  0
    5.7466    0.0337    0.3561 C   0  0  0  0  0  0  0  0  0  0  0  0
    6.0008    1.3179   -0.1320 C   0  0  0  0  0  0  0  0  0  0  0  0
    5.0912    1.9329   -0.9900 C   0  0  0  0  0  0  0  0  0  0  0  0
    3.9262    1.2639   -1.3665 C   0  0  0  0  0  0  0  0  0  0  0  0
    3.6685   -0.0214   -0.8812 C   0  0  0  0  0  0  0  0  0  0  0  0
    2.2131   -0.8027   -1.4011 Cl  0  0  0  0  0  0  0  0  0  0  0  0
    3.2414   -3.9369    2.0292 S   0  0  0  0  0  0  0  0  0  0  0  0
    1.9050   -3.4864    3.0809 C   0  0  0  0  0  0  0  0  0  0  0  0
    1.0324   -4.6242    3.9331 S   0  0  0  0  0  0  0  0  0  0  0  0
   -1.7629    0.5746   -0.0120 N   0  0  0  0  0  0  0  0  0  0  0  0
   -2.9065    0.6931   -0.8065 N   0  0  0  0  0  0  0  0  0  0  0  0
   -2.7732    1.2456   -2.0632 C   0  0  0  0  0  0  0  0  0  0  0  0
   -1.6901    1.6123   -2.5132 O   0  0  0  0  0  0  0  0  0  0  0  0
   -4.0211    1.4063   -2.8607 C   0  0  0  0  0  0  0  0  0  0  0  0
   -5.1651    0.6283   -2.6327 C   0  0  0  0  0  0  0  0  0  0  0  0
   -6.3103    0.8211   -3.4136 C   0  0  0  0  0  0  0  0  0  0  0  0
   -6.3110    1.7812   -4.4248 C   0  0  0  0  0  0  0  0  0  0  0  0
   -7.7221    2.0133   -5.3808 Cl  0  0  0  0  0  0  0  0  0  0  0  0
   -5.1739    2.5484   -4.6696 C   0  0  0  0  0  0  0  0  0  0  0  0
   -4.0290    2.3584   -3.8908 C   0  0  0  0  0  0  0  0  0  0  0  0
    0.1400   -0.8967    1.0641 H   0  0  0  0  0  0  0  0  0  0  0  0
   -0.0915    0.5706    2.0460 H   0  0  0  0  0  0  0  0  0  0  0  0
   -1.3588   -0.8293    3.7343 H   0  0  0  0  0  0  0  0  0  0  0  0
   -0.9941   -2.2647    2.7880 H   0  0  0  0  0  0  0  0  0  0  0  0
    1.0823   -0.3919    4.0660 H   0  0  0  0  0  0  0  0  0  0  0  0
    0.5333   -1.9049    4.7679 H   0  0  0  0  0  0  0  0  0  0  0  0
    4.9674   -2.7683    0.0546 H   0  0  0  0  0  0  0  0  0  0  0  0
    6.4668   -0.4264    1.0296 H   0  0  0  0  0  0  0  0  0  0  0  0
    6.9082    1.8401    0.1623 H   0  0  0  0  0  0  0  0  0  0  0  0
    5.2876    2.9339   -1.3659 H   0  0  0  0  0  0  0  0  0  0  0  0
    3.2219    1.7499   -2.0373 H   0  0  0  0  0  0  0  0  0  0  0  0
   -0.8740    0.7668   -0.4760 H   0  0  0  0  0  0  0  0  0  0  0  0
   -3.7915    0.4878   -0.3492 H   0  0  0  0  0  0  0  0  0  0  0  0
   -5.1834   -0.1487   -1.8734 H   0  0  0  0  0  0  0  0  0  0  0  0
   -7.1948    0.2143   -3.2327 H   0  0  0  0  0  0  0  0  0  0  0  0
   -5.1693    3.2919   -5.4627 H   0  0  0  0  0  0  0  0  0  0  0  0
   -3.1416    2.9581   -4.0889 H   0  0  0  0  0  0  0  0  0  0  0  0
  1  2  2  0
  2  3  1  0
  3  4  1  0
  4  5  1  0
  5  6  1  0
  6  7  1  0
  7  8  2  0
  7  9  1  0
  9 10  2  3
 10 11  1  0
 11 12  2  0
 12 13  1  0
 13 14  2  0
 14 15  1  0
 15 16  2  0
 16 17  1  0
  9 18  1  0
 18 19  1  0
 19 20  2  0
  2 21  1  0
 21 22  1  0
 22 23  1  0
 23 24  2  0
 23 25  1  0
 25 26  2  0
 26 27  1  0
 27 28  2  0
 28 29  1  0
 28 30  1  0
 30 31  2  0
 19  6  1  0
 31 25  1  0
 16 11  1  0
  3 32  1  0
  3 33  1  0
  4 34  1  0
  4 35  1  0
  5 36  1  0
  5 37  1  0
 10 38  1  0
 12 39  1  0
 13 40  1  0
 14 41  1  0
 15 42  1  0
 21 43  1  0
 22 44  1  0
 26 45  1  0
 27 46  1  0
 30 47  1  0
 31 48  1  0
M  END
$$$$
