
     RDKit          3D

 43 45  0  0  0  0  0  0  0  0999 V2000
    3.6232    1.4390   -2.1599 O   0  0  0  0  0  0  0  0  0  0  0  0
    3.0095    1.3233   -1.0955 C   0  0  0  0  0  0  0  0  0  0  0  0
    3.6770    1.7002    0.2483 C   0  0  0  0  0  0  0  0  0  0  0  0
    4.1748    0.4516    0.9761 C   0  0  0  0  0  0  0  0  0  0  0  0
    5.5663    0.8247    1.4279 C   0  0  0  0  0  0  0  0  0  0  0  0
    5.9950    1.7965    0.3582 C   0  0  0  0  0  0  0  0  0  0  0  0
    4.8200    2.5552    0.0672 O   0  0  0  0  0  0  0  0  0  0  0  0
    1.6997    0.8388   -1.0661 N   0  0  0  0  0  0  0  0  0  0  0  0
    1.1487    0.3192   -2.3217 C   0  0  0  0  0  0  0  0  0  0  0  0
   -0.3776    0.4425   -2.4068 C   0  0  0  0  0  0  0  0  0  0  0  0
   -1.0565   -0.0732   -1.2001 N   0  0  0  0  0  0  0  0  0  0  0  0
   -2.4177   -0.4738   -1.2410 C   0  0  0  0  0  0  0  0  0  0  0  0
   -3.4163   -0.2635   -2.5760 S   0  0  0  0  0  0  0  0  0  0  0  0
   -2.7774   -1.1407   -0.0744 N   0  0  0  0  0  0  0  0  0  0  0  0
   -4.0437   -1.4091    0.4873 C   0  0  0  0  0  0  0  0  0  0  0  0
   -5.1800   -0.6293    0.2521 C   0  0  0  0  0  0  0  0  0  0  0  0
   -6.3927   -0.9374    0.8771 C   0  0  0  0  0  0  0  0  0  0  0  0
   -6.4627   -2.0144    1.7500 C   0  0  0  0  0  0  0  0  0  0  0  0
   -7.6232   -2.3059    2.3510 F   0  0  0  0  0  0  0  0  0  0  0  0
   -5.3398   -2.7848    2.0185 C   0  0  0  0  0  0  0  0  0  0  0  0
   -4.1285   -2.4762    1.3942 C   0  0  0  0  0  0  0  0  0  0  0  0
   -0.5125    0.5007    0.0443 C   0  0  0  0  0  0  0  0  0  0  0  0
    1.0139    0.3755    0.1424 C   0  0  0  0  0  0  0  0  0  0  0  0
    2.9706    2.2757    0.8537 H   0  0  0  0  0  0  0  0  0  0  0  0
    3.5320    0.1754    1.8176 H   0  0  0  0  0  0  0  0  0  0  0  0
    4.2154   -0.4135    0.3031 H   0  0  0  0  0  0  0  0  0  0  0  0
    6.2381   -0.0317    1.5270 H   0  0  0  0  0  0  0  0  0  0  0  0
    5.5103    1.3354    2.3964 H   0  0  0  0  0  0  0  0  0  0  0  0
    6.7957    2.4637    0.6880 H   0  0  0  0  0  0  0  0  0  0  0  0
    6.3141    1.2812   -0.5545 H   0  0  0  0  0  0  0  0  0  0  0  0
    1.4393   -0.7375   -2.3759 H   0  0  0  0  0  0  0  0  0  0  0  0
    1.5970    0.8261   -3.1827 H   0  0  0  0  0  0  0  0  0  0  0  0
   -0.7164   -0.0992   -3.2951 H   0  0  0  0  0  0  0  0  0  0  0  0
   -0.6646    1.4957   -2.5168 H   0  0  0  0  0  0  0  0  0  0  0  0
   -2.0160   -1.6927    0.2987 H   0  0  0  0  0  0  0  0  0  0  0  0
   -5.1475    0.2457   -0.3888 H   0  0  0  0  0  0  0  0  0  0  0  0
   -7.2769   -0.3358    0.6917 H   0  0  0  0  0  0  0  0  0  0  0  0
   -5.4132   -3.6183    2.7095 H   0  0  0  0  0  0  0  0  0  0  0  0
   -3.2599   -3.0914    1.6139 H   0  0  0  0  0  0  0  0  0  0  0  0
   -0.7977    1.5607    0.0463 H   0  0  0  0  0  0  0  0  0  0  0  0
   -0.9668    0.0542    0.9329 H   0  0  0  0  0  0  0  0  0  0  0  0
    1.2934   -0.6763    0.2788 H   0  0  0  0  0  0  0  0  0  0  0  0
    1.3536    0.9235    1.0228 H   0  0  0  0  0  0  0  0  0  0  0  0
  1  2  2  0
  2  3  1  0
  3  4  1  0
  4  5  1  0
  5  6  1  0
  6  7  1  0
  2  8  1  0
  8  9  1  0
  9 10  1  0
 10 11  1  0
 11 12  1  0
 12 13  2  0
 12 14  1  0
 14 15  1  0
 15 16  2  0
 16 17  1  0
 17 18  2  0
 18 19  1  0
 18 20  1  0
 20 21  2  0
 11 22  1  0
 22 23  1  0
  7  3  1  0
 23  8  1  0
 21 15  1  0
  3 24  1  0
  4 25  1  0
  4 26  1  0
  5 27  1  0
  5 28  1  0
  6 29  1  0
  6 30  1  0
  9 31  1  0
  9 32  1  0
 10 33  1  0
 10 34  1  0
 14 35  1  0
 16 36  1  0
 17 37  1  0
 20 38  1  0
 21 39  1  0
 22 40  1  0
 22 41  1  0
 23 42  1  0
 23 43  1  0
M  END
$$$$
