
     RDKit          3D

 47 49  0  0  0  0  0  0  0  0999 V2000
   -8.6265    0.6412   -1.0439 C   0  0  0  0  0  0  0  0  0  0  0  0
   -7.6695   -0.3212   -0.6264 O   0  0  0  0  0  0  0  0  0  0  0  0
   -6.3747    0.1008   -0.4522 C   0  0  0  0  0  0  0  0  0  0  0  0
   -5.9383    1.4146   -0.6495 C   0  0  0  0  0  0  0  0  0  0  0  0
   -4.5970    1.7519   -0.4484 C   0  0  0  0  0  0  0  0  0  0  0  0
   -3.6754    0.7805   -0.0527 C   0  0  0  0  0  0  0  0  0  0  0  0
   -2.2790    1.1710    0.1723 C   0  0  0  0  0  0  0  0  0  0  0  0
   -1.2113    0.7179   -0.4988 C   0  0  0  0  0  0  0  0  0  0  0  0
   -1.1672   -0.4144   -1.7878 S   0  0  0  0  0  0  0  0  0  0  0  0
    0.5815   -0.3080   -1.9493 C   0  0  0  0  0  0  0  0  0  0  0  0
    1.4262   -1.2254   -3.0569 S   0  0  0  0  0  0  0  0  0  0  0  0
    1.0796    0.6074   -1.0451 N   0  0  0  0  0  0  0  0  0  0  0  0
    2.4988    0.9405   -0.8853 C   0  0  0  0  0  0  0  0  0  0  0  0
    3.1700    0.0640    0.1659 C   0  0  0  0  0  0  0  0  0  0  0  0
    4.6388    0.4015    0.2997 C   0  0  0  0  0  0  0  0  0  0  0  0
    5.1659    1.3067   -0.3439 O   0  0  0  0  0  0  0  0  0  0  0  0
    5.2753   -0.3914    1.2184 N   0  0  0  0  0  0  0  0  0  0  0  0
    6.5549   -0.4616    1.1759 C   0  0  0  0  0  0  0  0  0  0  0  0
    7.4679    0.1213    0.3445 N   0  0  0  0  0  0  0  0  0  0  0  0
    8.8202    0.1671    0.8588 C   0  0  0  0  0  0  0  0  0  0  0  0
    9.0125   -1.1196    1.6547 C   0  0  0  0  0  0  0  0  0  0  0  0
    7.3769   -1.4425    2.3904 S   0  0  0  0  0  0  0  0  0  0  0  0
    0.1621    1.1964   -0.1919 C   0  0  0  0  0  0  0  0  0  0  0  0
    0.4209    1.9871    0.7050 O   0  0  0  0  0  0  0  0  0  0  0  0
   -4.1103   -0.5341    0.1590 C   0  0  0  0  0  0  0  0  0  0  0  0
   -5.4511   -0.8837   -0.0467 C   0  0  0  0  0  0  0  0  0  0  0  0
   -5.9578   -2.1478    0.1335 O   0  0  0  0  0  0  0  0  0  0  0  0
   -5.0355   -3.1958    0.3948 C   0  0  0  0  0  0  0  0  0  0  0  0
   -8.3722    1.0510   -2.0269 H   0  0  0  0  0  0  0  0  0  0  0  0
   -9.5922    0.1348   -1.1353 H   0  0  0  0  0  0  0  0  0  0  0  0
   -8.7379    1.4363   -0.2994 H   0  0  0  0  0  0  0  0  0  0  0  0
   -6.6168    2.2020   -0.9597 H   0  0  0  0  0  0  0  0  0  0  0  0
   -4.2814    2.7808   -0.6080 H   0  0  0  0  0  0  0  0  0  0  0  0
   -2.1425    1.9181    0.9538 H   0  0  0  0  0  0  0  0  0  0  0  0
    2.5766    1.9951   -0.5924 H   0  0  0  0  0  0  0  0  0  0  0  0
    3.0100    0.8470   -1.8492 H   0  0  0  0  0  0  0  0  0  0  0  0
    2.6916    0.2048    1.1419 H   0  0  0  0  0  0  0  0  0  0  0  0
    3.0815   -0.9941   -0.1047 H   0  0  0  0  0  0  0  0  0  0  0  0
    7.1177    0.9380   -0.1567 H   0  0  0  0  0  0  0  0  0  0  0  0
    9.5481    0.2424    0.0454 H   0  0  0  0  0  0  0  0  0  0  0  0
    8.9408    1.0450    1.5046 H   0  0  0  0  0  0  0  0  0  0  0  0
    9.7884   -1.0229    2.4183 H   0  0  0  0  0  0  0  0  0  0  0  0
    9.2630   -1.9534    0.9911 H   0  0  0  0  0  0  0  0  0  0  0  0
   -3.3882   -1.2716    0.4929 H   0  0  0  0  0  0  0  0  0  0  0  0
   -4.5539   -3.0609    1.3687 H   0  0  0  0  0  0  0  0  0  0  0  0
   -4.2935   -3.2824   -0.4061 H   0  0  0  0  0  0  0  0  0  0  0  0
   -5.5969   -4.1344    0.4300 H   0  0  0  0  0  0  0  0  0  0  0  0
  1  2  1  0
  2  3  1  0
  3  4  2  0
  4  5  1  0
  5  6  2  0
  6  7  1  0
  7  8  2  3
  8  9  1  0
  9 10  1  0
 10 11  2  0
 10 12  1  0
 12 13  1  0
 13 14  1  0
 14 15  1  0
 15 16  2  0
 15 17  1  0
 17 18  2  3
 18 19  1  0
 19 20  1  0
 20 21  1  0
 21 22  1  0
 12 23  1  0
 23 24  2  0
  6 25  1  0
 25 26  2  0
 26 27  1  0
 27 28  1  0
 26  3  1  0
 23  8  1  0
 22 18  1  0
  1 29  1  0
  1 30  1  0
  1 31  1  0
  4 32  1  0
  5 33  1  0
  7 34  1  0
 13 35  1  0
 13 36  1  0
 14 37  1  0
 14 38  1  0
 19 39  1  0
 20 40  1  0
 20 41  1  0
 21 42  1  0
 21 43  1  0
 25 44  1  0
 28 45  1  0
 28 46  1  0
 28 47  1  0
M  END
$$$$
