
     RDKit          3D

 48 50  0  0  0  0  0  0  0  0999 V2000
   -1.6424    1.2446   -0.7806 O   0  0  0  0  0  0  0  0  0  0  0  0
   -2.2261    1.3317    0.2960 C   0  0  0  0  0  0  0  0  0  0  0  0
   -1.5560    1.1759    1.6448 C   0  0  0  0  0  0  0  0  0  0  0  0
   -0.0498    0.9304    1.5623 C   0  0  0  0  0  0  0  0  0  0  0  0
    0.3026   -0.4408    0.9716 C   0  0  0  0  0  0  0  0  0  0  0  0
    1.6996   -0.7952    1.2356 N   0  0  0  0  0  0  0  0  0  0  0  0
    2.6762   -0.3602    0.3555 C   0  0  0  0  0  0  0  0  0  0  0  0
    2.4989    0.3179   -0.6467 O   0  0  0  0  0  0  0  0  0  0  0  0
    4.0163   -0.8140    0.8094 C   0  0  0  0  0  0  0  0  0  0  0  0
    5.1259   -0.5568    0.1048 C   0  0  0  0  0  0  0  0  0  0  0  0
    6.4793   -0.9839    0.4832 C   0  0  0  0  0  0  0  0  0  0  0  0
    7.2705   -0.0983    1.2292 C   0  0  0  0  0  0  0  0  0  0  0  0
    8.5610   -0.4600    1.6224 C   0  0  0  0  0  0  0  0  0  0  0  0
    9.0735   -1.7083    1.2747 C   0  0  0  0  0  0  0  0  0  0  0  0
    8.2968   -2.5978    0.5319 C   0  0  0  0  0  0  0  0  0  0  0  0
    7.0047   -2.2395    0.1365 C   0  0  0  0  0  0  0  0  0  0  0  0
    6.0951   -3.3834   -0.7888 Cl  0  0  0  0  0  0  0  0  0  0  0  0
    3.8852   -1.6659    2.2935 S   0  0  0  0  0  0  0  0  0  0  0  0
    2.1364   -1.4830    2.3500 C   0  0  0  0  0  0  0  0  0  0  0  0
    1.2255   -2.0799    3.6152 S   0  0  0  0  0  0  0  0  0  0  0  0
   -3.5797    1.5893    0.3924 N   0  0  0  0  0  0  0  0  0  0  0  0
   -4.3261    1.5191   -0.7912 N   0  0  0  0  0  0  0  0  0  0  0  0
   -5.6337    1.0883   -0.7059 C   0  0  0  0  0  0  0  0  0  0  0  0
   -6.1851    0.8791    0.3726 O   0  0  0  0  0  0  0  0  0  0  0  0
   -6.3700    0.9008   -1.9869 C   0  0  0  0  0  0  0  0  0  0  0  0
   -7.7716    0.9522   -1.9534 C   0  0  0  0  0  0  0  0  0  0  0  0
   -8.5142    0.7804   -3.1248 C   0  0  0  0  0  0  0  0  0  0  0  0
   -7.8574    0.5482   -4.3311 C   0  0  0  0  0  0  0  0  0  0  0  0
   -8.7686    0.3349   -5.7740 Cl  0  0  0  0  0  0  0  0  0  0  0  0
   -6.4653    0.4806   -4.3747 C   0  0  0  0  0  0  0  0  0  0  0  0
   -5.7188    0.6530   -3.2036 C   0  0  0  0  0  0  0  0  0  0  0  0
   -2.0426    0.3563    2.1862 H   0  0  0  0  0  0  0  0  0  0  0  0
   -1.7306    2.1002    2.2088 H   0  0  0  0  0  0  0  0  0  0  0  0
    0.3604    1.0100    2.5765 H   0  0  0  0  0  0  0  0  0  0  0  0
    0.4337    1.7188    0.9724 H   0  0  0  0  0  0  0  0  0  0  0  0
   -0.3513   -1.2150    1.3852 H   0  0  0  0  0  0  0  0  0  0  0  0
    0.1459   -0.4381   -0.1124 H   0  0  0  0  0  0  0  0  0  0  0  0
    5.0652   -0.0048   -0.8316 H   0  0  0  0  0  0  0  0  0  0  0  0
    6.8865    0.8797    1.5126 H   0  0  0  0  0  0  0  0  0  0  0  0
    9.1658    0.2333    2.2025 H   0  0  0  0  0  0  0  0  0  0  0  0
   10.0779   -1.9896    1.5822 H   0  0  0  0  0  0  0  0  0  0  0  0
    8.7036   -3.5697    0.2640 H   0  0  0  0  0  0  0  0  0  0  0  0
   -4.1025    1.3852    1.2451 H   0  0  0  0  0  0  0  0  0  0  0  0
   -3.8107    1.6705   -1.6548 H   0  0  0  0  0  0  0  0  0  0  0  0
   -8.2908    1.1291   -1.0126 H   0  0  0  0  0  0  0  0  0  0  0  0
   -9.5996    0.8262   -3.0866 H   0  0  0  0  0  0  0  0  0  0  0  0
   -5.9554    0.2858   -5.3154 H   0  0  0  0  0  0  0  0  0  0  0  0
   -4.6382    0.5626   -3.2655 H   0  0  0  0  0  0  0  0  0  0  0  0
  1  2  2  0
  2  3  1  0
  3  4  1  0
  4  5  1  0
  5  6  1  0
  6  7  1  0
  7  8  2  0
  7  9  1  0
  9 10  2  3
 10 11  1  0
 11 12  2  0
 12 13  1  0
 13 14  2  0
 14 15  1  0
 15 16  2  0
 16 17  1  0
  9 18  1  0
 18 19  1  0
 19 20  2  0
  2 21  1  0
 21 22  1  0
 22 23  1  0
 23 24  2  0
 23 25  1  0
 25 26  2  0
 26 27  1  0
 27 28  2  0
 28 29  1  0
 28 30  1  0
 30 31  2  0
 19  6  1  0
 31 25  1  0
 16 11  1  0
  3 32  1  0
  3 33  1  0
  4 34  1  0
  4 35  1  0
  5 36  1  0
  5 37  1  0
 10 38  1  0
 12 39  1  0
 13 40  1  0
 14 41  1  0
 15 42  1  0
 21 43  1  0
 22 44  1  0
 26 45  1  0
 27 46  1  0
 30 47  1  0
 31 48  1  0
M  END
$$$$
