
     RDKit          3D

 69 71  0  0  0  0  0  0  0  0999 V2000
    7.2649    3.7651    0.6975 C   0  0  0  0  0  0  0  0  0  0  0  0
    7.5531    2.5793    1.6046 C   0  0  0  0  0  0  0  0  0  0  0  0
    6.2917    1.8656    2.0975 C   0  0  0  0  0  0  0  0  0  0  0  0
    5.3788    1.2909    1.0075 C   0  0  0  0  0  0  0  0  0  0  0  0
    6.0634    0.2318    0.1401 C   0  0  0  0  0  0  0  0  0  0  0  0
    5.1377   -0.3694   -0.9234 C   0  0  0  0  0  0  0  0  0  0  0  0
    4.0331   -1.2499   -0.3349 C   0  0  0  0  0  0  0  0  0  0  0  0
    3.2533   -2.0258   -1.4012 C   0  0  0  0  0  0  0  0  0  0  0  0
    2.4886   -1.1661   -2.4147 C   0  0  0  0  0  0  0  0  0  0  0  0
    1.4250   -0.2530   -1.8063 C   0  0  0  0  0  0  0  0  0  0  0  0
    0.5276   -1.0451   -1.0081 O   0  0  0  0  0  0  0  0  0  0  0  0
   -0.7835   -0.6962   -1.0323 C   0  0  0  0  0  0  0  0  0  0  0  0
   -1.2680    0.2533   -1.6364 O   0  0  0  0  0  0  0  0  0  0  0  0
   -1.5986   -1.6397   -0.1568 C   0  0  0  0  0  0  0  0  0  0  0  0
   -2.9977   -1.7258   -0.6324 N   0  0  0  0  0  0  0  0  0  0  0  0
   -3.9430   -0.7764   -0.4264 C   0  0  0  0  0  0  0  0  0  0  0  0
   -3.7988    0.5286    0.3462 C   0  0  0  0  0  0  0  0  0  0  0  0
   -4.3962    0.3651    1.6253 O   0  0  0  0  0  0  0  0  0  0  0  0
   -4.4873    1.4831    2.4065 C   0  0  0  0  0  0  0  0  0  0  0  0
   -5.2240    1.3119    3.5828 C   0  0  0  0  0  0  0  0  0  0  0  0
   -5.4022    2.3748    4.4726 C   0  0  0  0  0  0  0  0  0  0  0  0
   -4.8369    3.6133    4.1871 C   0  0  0  0  0  0  0  0  0  0  0  0
   -5.0555    4.9269    5.2744 Cl  0  0  0  0  0  0  0  0  0  0  0  0
   -4.0938    3.7920    3.0219 C   0  0  0  0  0  0  0  0  0  0  0  0
   -3.9159    2.7268    2.1300 C   0  0  0  0  0  0  0  0  0  0  0  0
   -5.0848   -1.2214   -1.0055 N   0  0  0  0  0  4  0  0  0  0  0  0
   -6.3643   -0.5165   -0.9402 C   0  0  0  0  0  0  0  0  0  0  0  0
   -4.8528   -2.4230   -1.6635 C   0  0  0  0  0  0  0  0  0  0  0  0
   -5.6869   -3.2346   -2.4309 C   0  0  0  0  0  0  0  0  0  0  0  0
   -5.1084   -4.3995   -2.9523 C   0  0  0  0  0  0  0  0  0  0  0  0
   -3.7610   -4.7266   -2.7124 C   0  0  0  0  0  0  0  0  0  0  0  0
   -2.9296   -3.9039   -1.9406 C   0  0  0  0  0  0  0  0  0  0  0  0
   -3.5143   -2.7479   -1.4243 C   0  0  0  0  0  0  0  0  0  0  0  0
    6.8291    3.4452   -0.2533 H   0  0  0  0  0  0  0  0  0  0  0  0
    6.5775    4.4695    1.1762 H   0  0  0  0  0  0  0  0  0  0  0  0
    8.1939    4.2981    0.4724 H   0  0  0  0  0  0  0  0  0  0  0  0
    8.1105    2.9380    2.4792 H   0  0  0  0  0  0  0  0  0  0  0  0
    8.2142    1.8749    1.0871 H   0  0  0  0  0  0  0  0  0  0  0  0
    5.7045    2.5660    2.7050 H   0  0  0  0  0  0  0  0  0  0  0  0
    6.5936    1.0537    2.7712 H   0  0  0  0  0  0  0  0  0  0  0  0
    4.9946    2.0970    0.3731 H   0  0  0  0  0  0  0  0  0  0  0  0
    4.5092    0.8501    1.5069 H   0  0  0  0  0  0  0  0  0  0  0  0
    6.4652   -0.5669    0.7744 H   0  0  0  0  0  0  0  0  0  0  0  0
    6.9151    0.6832   -0.3803 H   0  0  0  0  0  0  0  0  0  0  0  0
    4.7024    0.4389   -1.5217 H   0  0  0  0  0  0  0  0  0  0  0  0
    5.7500   -0.9748   -1.6033 H   0  0  0  0  0  0  0  0  0  0  0  0
    4.4840   -1.9789    0.3502 H   0  0  0  0  0  0  0  0  0  0  0  0
    3.3420   -0.6485    0.2642 H   0  0  0  0  0  0  0  0  0  0  0  0
    3.9495   -2.6717   -1.9513 H   0  0  0  0  0  0  0  0  0  0  0  0
    2.5510   -2.7006   -0.8967 H   0  0  0  0  0  0  0  0  0  0  0  0
    1.9922   -1.8538   -3.1118 H   0  0  0  0  0  0  0  0  0  0  0  0
    3.1861   -0.5669   -3.0098 H   0  0  0  0  0  0  0  0  0  0  0  0
    0.8979    0.2614   -2.6177 H   0  0  0  0  0  0  0  0  0  0  0  0
    1.8798    0.5034   -1.1590 H   0  0  0  0  0  0  0  0  0  0  0  0
   -1.5924   -1.2741    0.8742 H   0  0  0  0  0  0  0  0  0  0  0  0
   -1.1544   -2.6392   -0.1720 H   0  0  0  0  0  0  0  0  0  0  0  0
   -4.3122    1.2814   -0.2611 H   0  0  0  0  0  0  0  0  0  0  0  0
   -2.7333    0.7457    0.4325 H   0  0  0  0  0  0  0  0  0  0  0  0
   -5.6695    0.3470    3.8142 H   0  0  0  0  0  0  0  0  0  0  0  0
   -5.9796    2.2292    5.3823 H   0  0  0  0  0  0  0  0  0  0  0  0
   -3.6472    4.7598    2.8050 H   0  0  0  0  0  0  0  0  0  0  0  0
   -3.3221    2.9129    1.2410 H   0  0  0  0  0  0  0  0  0  0  0  0
   -7.1863   -1.1716   -1.2360 H   0  0  0  0  0  0  0  0  0  0  0  0
   -6.3253    0.3454   -1.6119 H   0  0  0  0  0  0  0  0  0  0  0  0
   -6.5466   -0.1831    0.0841 H   0  0  0  0  0  0  0  0  0  0  0  0
   -6.7231   -2.9834   -2.6198 H   0  0  0  0  0  0  0  0  0  0  0  0
   -5.7170   -5.0701   -3.5612 H   0  0  0  0  0  0  0  0  0  0  0  0
   -3.3544   -5.6442   -3.1400 H   0  0  0  0  0  0  0  0  0  0  0  0
   -1.8927   -4.1605   -1.7617 H   0  0  0  0  0  0  0  0  0  0  0  0
  1  2  1  0
  2  3  1  0
  3  4  1  0
  4  5  1  0
  5  6  1  0
  6  7  1  0
  7  8  1  0
  8  9  1  0
  9 10  1  0
 10 11  1  0
 11 12  1  0
 12 13  2  0
 12 14  1  0
 14 15  1  0
 15 16  1  0
 16 17  1  0
 17 18  1  0
 18 19  1  0
 19 20  2  0
 20 21  1  0
 21 22  2  0
 22 23  1  0
 22 24  1  0
 24 25  2  0
 16 26  2  0
 26 27  1  0
 26 28  1  0
 28 29  2  0
 29 30  1  0
 30 31  2  0
 31 32  1  0
 32 33  2  0
 33 15  1  0
 25 19  1  0
 33 28  1  0
  1 34  1  0
  1 35  1  0
  1 36  1  0
  2 37  1  0
  2 38  1  0
  3 39  1  0
  3 40  1  0
  4 41  1  0
  4 42  1  0
  5 43  1  0
  5 44  1  0
  6 45  1  0
  6 46  1  0
  7 47  1  0
  7 48  1  0
  8 49  1  0
  8 50  1  0
  9 51  1  0
  9 52  1  0
 10 53  1  0
 10 54  1  0
 14 55  1  0
 14 56  1  0
 17 57  1  0
 17 58  1  0
 20 59  1  0
 21 60  1  0
 24 61  1  0
 25 62  1  0
 27 63  1  0
 27 64  1  0
 27 65  1  0
 29 66  1  0
 30 67  1  0
 31 68  1  0
 32 69  1  0
M  CHG  1  26   1
M  END
$$$$
