
     RDKit          3D

 41 42  0  0  0  0  0  0  0  0999 V2000
   -4.1708    1.1521   -1.3279 C   0  0  0  0  0  0  0  0  0  0  0  0
   -3.5985    1.3689    0.0656 C   0  0  0  0  0  0  0  0  0  0  0  0
   -2.6235    0.3120    0.4000 N   0  0  0  0  0  0  0  0  0  0  0  0
   -3.2386   -0.8748    1.0290 C   0  0  0  0  0  0  0  0  0  0  0  0
   -3.1494   -0.7910    2.5456 C   0  0  0  0  0  0  0  0  0  0  0  0
   -1.2322    0.4387    0.1758 C   0  0  0  0  0  0  0  0  0  0  0  0
   -0.3292   -0.5204    0.4833 C   0  0  0  0  0  0  0  0  0  0  0  0
    1.1027   -0.3821    0.2712 C   0  0  0  0  0  0  0  0  0  0  0  0
    1.9003   -1.4592    0.1609 C   0  0  0  0  0  0  0  0  0  0  0  0
    3.3088   -1.3629   -0.2275 C   0  0  0  0  0  0  0  0  0  0  0  0
    4.2050   -2.3613   -0.0303 C   0  0  0  0  0  0  0  0  0  0  0  0
    5.5594   -2.2426   -0.4588 C   0  0  0  0  0  0  0  0  0  0  0  0
    6.6593   -2.1342   -0.8131 N   0  0  0  0  0  0  0  0  0  0  0  0
    3.8492   -3.5801    0.6200 C   0  0  0  0  0  0  0  0  0  0  0  0
    3.5482   -4.5704    1.1457 N   0  0  0  0  0  0  0  0  0  0  0  0
    3.6408   -0.0504   -0.9256 C   0  0  0  0  0  0  0  0  0  0  0  0
    3.1055    1.1424   -0.1388 C   0  0  0  0  0  0  0  0  0  0  0  0
    1.5995    1.0406    0.1433 C   0  0  0  0  0  0  0  0  0  0  0  0
    0.7404    1.7316   -0.9133 C   0  0  0  0  0  0  0  0  0  0  0  0
   -0.7303    1.7377   -0.4658 C   0  0  0  0  0  0  0  0  0  0  0  0
   -3.3863    1.1559   -2.0906 H   0  0  0  0  0  0  0  0  0  0  0  0
   -4.8857    1.9445   -1.5703 H   0  0  0  0  0  0  0  0  0  0  0  0
   -4.6934    0.1925   -1.3964 H   0  0  0  0  0  0  0  0  0  0  0  0
   -3.1529    2.3662    0.1390 H   0  0  0  0  0  0  0  0  0  0  0  0
   -4.4189    1.3674    0.7943 H   0  0  0  0  0  0  0  0  0  0  0  0
   -4.2949   -0.9533    0.7431 H   0  0  0  0  0  0  0  0  0  0  0  0
   -2.7753   -1.7982    0.6645 H   0  0  0  0  0  0  0  0  0  0  0  0
   -3.6282   -1.6635    3.0011 H   0  0  0  0  0  0  0  0  0  0  0  0
   -2.1105   -0.7581    2.8877 H   0  0  0  0  0  0  0  0  0  0  0  0
   -3.6517    0.1070    2.9201 H   0  0  0  0  0  0  0  0  0  0  0  0
   -0.6534   -1.4722    0.8899 H   0  0  0  0  0  0  0  0  0  0  0  0
    1.4730   -2.4508    0.3061 H   0  0  0  0  0  0  0  0  0  0  0  0
    4.7179    0.0889   -1.0625 H   0  0  0  0  0  0  0  0  0  0  0  0
    3.1989   -0.0599   -1.9307 H   0  0  0  0  0  0  0  0  0  0  0  0
    3.3413    2.0757   -0.6636 H   0  0  0  0  0  0  0  0  0  0  0  0
    3.6387    1.1895    0.8211 H   0  0  0  0  0  0  0  0  0  0  0  0
    1.4292    1.5557    1.1006 H   0  0  0  0  0  0  0  0  0  0  0  0
    1.0709    2.7653   -1.0705 H   0  0  0  0  0  0  0  0  0  0  0  0
    0.8309    1.2185   -1.8801 H   0  0  0  0  0  0  0  0  0  0  0  0
   -1.3340    1.9872   -1.3448 H   0  0  0  0  0  0  0  0  0  0  0  0
   -0.8624    2.5472    0.2640 H   0  0  0  0  0  0  0  0  0  0  0  0
  1  2  1  0
  2  3  1  0
  3  4  1  0
  4  5  1  0
  3  6  1  0
  6  7  2  0
  7  8  1  0
  8  9  2  0
  9 10  1  0
 10 11  2  3
 11 12  1  0
 12 13  3  0
 11 14  1  0
 14 15  3  0
 10 16  1  0
 16 17  1  0
 17 18  1  0
 18 19  1  0
 19 20  1  0
 20  6  1  0
 18  8  1  0
  1 21  1  0
  1 22  1  0
  1 23  1  0
  2 24  1  0
  2 25  1  0
  4 26  1  0
  4 27  1  0
  5 28  1  0
  5 29  1  0
  5 30  1  0
  7 31  1  0
  9 32  1  0
 16 33  1  0
 16 34  1  0
 17 35  1  0
 17 36  1  0
 18 37  1  0
 19 38  1  0
 19 39  1  0
 20 40  1  0
 20 41  1  0
M  END
$$$$
