
     RDKit          3D

 48 51  0  0  0  0  0  0  0  0999 V2000
    1.7675    1.3009   -1.9737 C   0  0  0  0  0  0  0  0  0  0  0  0
    3.1280    1.0443   -1.3242 C   0  0  0  0  0  0  0  0  0  0  0  0
    4.0533    2.2396   -1.5418 C   0  0  0  0  0  0  0  0  0  0  0  0
    2.9843    0.7450    0.1729 C   0  0  0  0  0  0  0  0  0  0  0  0
    2.2137   -0.4517    0.3414 O   0  0  0  0  0  0  0  0  0  0  0  0
    2.0972   -0.8505    1.6278 C   0  0  0  0  0  0  0  0  0  0  0  0
    2.6097   -0.3494    2.6147 O   0  0  0  0  0  0  0  0  0  0  0  0
    1.2908   -2.0836    1.6889 C   0  0  0  0  0  0  0  0  0  0  0  0
    1.9177   -3.1861    2.2935 C   0  0  0  0  0  0  0  0  0  0  0  0
    1.2911   -4.4310    2.3134 C   0  0  0  0  0  0  0  0  0  0  0  0
    0.0379   -4.5832    1.7271 C   0  0  0  0  0  0  0  0  0  0  0  0
   -0.6010   -3.4880    1.1397 C   0  0  0  0  0  0  0  0  0  0  0  0
    0.0078   -2.2211    1.1347 C   0  0  0  0  0  0  0  0  0  0  0  0
   -0.7225   -1.1177    0.5976 N   0  0  0  0  0  0  0  0  0  0  0  0
   -1.5051   -1.1612   -0.5793 C   0  0  0  0  0  0  0  0  0  0  0  0
   -1.6159   -2.2504   -1.3342 O   0  0  0  0  0  0  0  0  0  0  0  0
   -2.0177    0.0884   -0.7607 C   0  0  0  0  0  0  0  0  0  0  0  0
   -1.5945    0.9075    0.2971 C   0  0  0  0  0  0  0  0  0  0  0  0
   -0.8481    0.1715    1.1685 C   0  0  0  0  0  0  0  0  0  0  0  0
   -0.3842    0.5472    2.3574 O   0  0  0  0  0  0  0  0  0  0  0  0
   -2.2048    2.2577    0.0915 C   0  0  0  0  0  0  0  0  0  0  0  0
   -3.7346    2.1276    0.3119 C   0  0  0  0  0  0  0  0  0  0  0  0
   -4.2013    1.2199   -0.8740 C   0  0  0  0  0  0  0  0  0  0  0  0
   -2.8882    0.9248   -1.6454 C   0  0  0  0  0  0  0  0  0  0  0  0
   -2.1860    2.3112   -1.4718 C   0  0  0  0  0  0  0  0  0  0  0  0
    1.1170    0.4250   -1.8885 H   0  0  0  0  0  0  0  0  0  0  0  0
    1.8817    1.5238   -3.0399 H   0  0  0  0  0  0  0  0  0  0  0  0
    1.2607    2.1500   -1.5032 H   0  0  0  0  0  0  0  0  0  0  0  0
    3.5659    0.1661   -1.8156 H   0  0  0  0  0  0  0  0  0  0  0  0
    5.0439    2.0469   -1.1164 H   0  0  0  0  0  0  0  0  0  0  0  0
    4.1832    2.4423   -2.6102 H   0  0  0  0  0  0  0  0  0  0  0  0
    3.6524    3.1439   -1.0714 H   0  0  0  0  0  0  0  0  0  0  0  0
    3.9774    0.6003    0.6161 H   0  0  0  0  0  0  0  0  0  0  0  0
    2.4805    1.5749    0.6839 H   0  0  0  0  0  0  0  0  0  0  0  0
    2.9089   -3.0787    2.7314 H   0  0  0  0  0  0  0  0  0  0  0  0
    1.7850   -5.2830    2.7741 H   0  0  0  0  0  0  0  0  0  0  0  0
   -0.4517   -5.5544    1.7334 H   0  0  0  0  0  0  0  0  0  0  0  0
   -1.5955   -3.6349    0.7221 H   0  0  0  0  0  0  0  0  0  0  0  0
   -2.1464   -2.0022   -2.1119 H   0  0  0  0  0  0  0  0  0  0  0  0
   -0.1004   -0.2232    2.8782 H   0  0  0  0  0  0  0  0  0  0  0  0
   -1.7159    3.0877    0.6009 H   0  0  0  0  0  0  0  0  0  0  0  0
   -3.9828    1.6774    1.2792 H   0  0  0  0  0  0  0  0  0  0  0  0
   -4.2243    3.1057    0.2462 H   0  0  0  0  0  0  0  0  0  0  0  0
   -4.6889    0.3090   -0.5101 H   0  0  0  0  0  0  0  0  0  0  0  0
   -4.9109    1.7677   -1.5043 H   0  0  0  0  0  0  0  0  0  0  0  0
   -3.0041    0.5761   -2.6713 H   0  0  0  0  0  0  0  0  0  0  0  0
   -2.7610    3.1465   -1.8864 H   0  0  0  0  0  0  0  0  0  0  0  0
   -1.1700    2.3215   -1.8829 H   0  0  0  0  0  0  0  0  0  0  0  0
  1  2  1  0
  2  3  1  0
  2  4  1  0
  4  5  1  0
  5  6  1  0
  6  7  2  0
  6  8  1  0
  8  9  2  0
  9 10  1  0
 10 11  2  0
 11 12  1  0
 12 13  2  0
 13 14  1  0
 14 15  1  0
 15 16  1  0
 15 17  2  0
 17 18  1  0
 18 19  2  0
 19 20  1  0
 18 21  1  0
 21 22  1  0
 22 23  1  0
 23 24  1  0
 24 25  1  0
 13  8  1  0
 19 14  1  0
 25 21  1  0
 24 17  1  0
  1 26  1  0
  1 27  1  0
  1 28  1  0
  2 29  1  0
  3 30  1  0
  3 31  1  0
  3 32  1  0
  4 33  1  0
  4 34  1  0
  9 35  1  0
 10 36  1  0
 11 37  1  0
 12 38  1  0
 16 39  1  0
 20 40  1  0
 21 41  1  0
 22 42  1  0
 22 43  1  0
 23 44  1  0
 23 45  1  0
 24 46  1  0
 25 47  1  0
 25 48  1  0
M  END
$$$$
