
     RDKit          3D

 46 49  0  0  0  0  0  0  0  0999 V2000
    5.6395   -1.8685   -3.0533 N   0  0  0  0  0  0  0  0  0  0  0  0
    5.6902   -0.6331   -1.9073 S   0  0  0  0  0  6  0  0  0  0  0  0
    6.4658   -1.1011   -0.7836 O   0  0  0  0  0  0  0  0  0  0  0  0
    6.0274    0.5622   -2.6459 O   0  0  0  0  0  0  0  0  0  0  0  0
    3.9904   -0.5427   -1.4186 C   0  0  0  0  0  0  0  0  0  0  0  0
    3.5032   -1.4367   -0.4659 C   0  0  0  0  0  0  0  0  0  0  0  0
    2.1579   -1.3733   -0.0830 C   0  0  0  0  0  0  0  0  0  0  0  0
    1.2788   -0.4212   -0.6268 C   0  0  0  0  0  0  0  0  0  0  0  0
   -0.0616   -0.3414   -0.2553 N   0  0  0  0  0  0  0  0  0  0  0  0
   -0.8813    0.6076   -0.7978 N   0  0  0  0  0  0  0  0  0  0  0  0
   -2.0823    0.3732   -0.3620 C   0  0  0  0  0  0  0  0  0  0  0  0
   -3.2493    1.2180   -0.7083 C   0  0  0  0  0  0  0  0  0  0  0  0
   -3.0414    2.3903   -1.4463 C   0  0  0  0  0  0  0  0  0  0  0  0
   -4.1188    3.2131   -1.7786 C   0  0  0  0  0  0  0  0  0  0  0  0
   -5.4082    2.8670   -1.3793 C   0  0  0  0  0  0  0  0  0  0  0  0
   -5.6225    1.6989   -0.6486 C   0  0  0  0  0  0  0  0  0  0  0  0
   -4.5462    0.8733   -0.3123 C   0  0  0  0  0  0  0  0  0  0  0  0
   -2.2156   -0.8487    0.5048 C   0  0  0  0  0  0  0  0  0  0  0  0
   -0.7395   -1.1811    0.7351 C   0  0  0  0  0  0  0  0  0  0  0  0
   -0.3376   -0.8812    2.1751 C   0  0  0  0  0  0  0  0  0  0  0  0
   -0.4004   -1.9093    3.1345 C   0  0  0  0  0  0  0  0  0  0  0  0
   -0.0664   -1.6594    4.4667 C   0  0  0  0  0  0  0  0  0  0  0  0
    0.3260   -0.3823    4.8478 C   0  0  0  0  0  0  0  0  0  0  0  0
    0.6453   -0.1453    6.1269 F   0  0  0  0  0  0  0  0  0  0  0  0
    0.3902    0.6504    3.9225 C   0  0  0  0  0  0  0  0  0  0  0  0
    0.0550    0.4038    2.5904 C   0  0  0  0  0  0  0  0  0  0  0  0
    1.8137    0.4721   -1.5749 C   0  0  0  0  0  0  0  0  0  0  0  0
    3.1544    0.4229   -1.9709 C   0  0  0  0  0  0  0  0  0  0  0  0
    5.8868   -1.4793   -3.9655 H   0  0  0  0  0  0  0  0  0  0  0  0
    4.7411   -2.3499   -3.0800 H   0  0  0  0  0  0  0  0  0  0  0  0
    4.1590   -2.1773   -0.0114 H   0  0  0  0  0  0  0  0  0  0  0  0
    1.8162   -2.0817    0.6670 H   0  0  0  0  0  0  0  0  0  0  0  0
   -2.0383    2.6716   -1.7628 H   0  0  0  0  0  0  0  0  0  0  0  0
   -3.9497    4.1242   -2.3472 H   0  0  0  0  0  0  0  0  0  0  0  0
   -6.2467    3.5094   -1.6363 H   0  0  0  0  0  0  0  0  0  0  0  0
   -6.6300    1.4332   -0.3367 H   0  0  0  0  0  0  0  0  0  0  0  0
   -4.7467   -0.0286    0.2578 H   0  0  0  0  0  0  0  0  0  0  0  0
   -2.7767   -0.6461    1.4211 H   0  0  0  0  0  0  0  0  0  0  0  0
   -2.7089   -1.6355   -0.0749 H   0  0  0  0  0  0  0  0  0  0  0  0
   -0.5646   -2.2419    0.5175 H   0  0  0  0  0  0  0  0  0  0  0  0
   -0.7082   -2.9133    2.8487 H   0  0  0  0  0  0  0  0  0  0  0  0
   -0.1087   -2.4506    5.2085 H   0  0  0  0  0  0  0  0  0  0  0  0
    0.7017    1.6409    4.2401 H   0  0  0  0  0  0  0  0  0  0  0  0
    0.1116    1.2212    1.8724 H   0  0  0  0  0  0  0  0  0  0  0  0
    1.1712    1.2341   -2.0138 H   0  0  0  0  0  0  0  0  0  0  0  0
    3.5242    1.1422   -2.6968 H   0  0  0  0  0  0  0  0  0  0  0  0
  1  2  1  0
  2  3  2  0
  2  4  2  0
  2  5  1  0
  5  6  2  0
  6  7  1  0
  7  8  2  0
  8  9  1  0
  9 10  1  0
 10 11  2  0
 11 12  1  0
 12 13  2  0
 13 14  1  0
 14 15  2  0
 15 16  1  0
 16 17  2  0
 11 18  1  0
 18 19  1  0
 19 20  1  0
 20 21  2  0
 21 22  1  0
 22 23  2  0
 23 24  1  0
 23 25  1  0
 25 26  2  0
  8 27  1  0
 27 28  2  0
 28  5  1  0
 19  9  1  0
 26 20  1  0
 17 12  1  0
  1 29  1  0
  1 30  1  0
  6 31  1  0
  7 32  1  0
 13 33  1  0
 14 34  1  0
 15 35  1  0
 16 36  1  0
 17 37  1  0
 18 38  1  0
 18 39  1  0
 19 40  1  0
 21 41  1  0
 22 42  1  0
 25 43  1  0
 26 44  1  0
 27 45  1  0
 28 46  1  0
M  END
$$$$
