
     RDKit          3D

 48 51  0  0  0  0  0  0  0  0999 V2000
    1.9675    1.9948   -0.0554 C   0  0  0  0  0  0  0  0  0  0  0  0
    3.0868    1.1764   -0.7001 C   0  0  0  0  0  0  0  0  0  0  0  0
    3.9318    2.0609   -1.6144 C   0  0  0  0  0  0  0  0  0  0  0  0
    2.5317   -0.0228   -1.4793 C   0  0  0  0  0  0  0  0  0  0  0  0
    1.8340   -0.8850   -0.5730 O   0  0  0  0  0  0  0  0  0  0  0  0
    1.4957   -2.0919   -1.0930 C   0  0  0  0  0  0  0  0  0  0  0  0
    1.7722   -2.5085   -2.2065 O   0  0  0  0  0  0  0  0  0  0  0  0
    0.8740   -2.9089   -0.0256 C   0  0  0  0  0  0  0  0  0  0  0  0
    1.4514   -4.1750    0.1733 C   0  0  0  0  0  0  0  0  0  0  0  0
    1.0686   -4.9656    1.2563 C   0  0  0  0  0  0  0  0  0  0  0  0
    0.1139   -4.4945    2.1530 C   0  0  0  0  0  0  0  0  0  0  0  0
   -0.4811   -3.2456    1.9546 C   0  0  0  0  0  0  0  0  0  0  0  0
   -0.1261   -2.4510    0.8504 C   0  0  0  0  0  0  0  0  0  0  0  0
   -0.8494   -1.2404    0.6229 N   0  0  0  0  0  0  0  0  0  0  0  0
   -1.3402   -0.7991   -0.6250 C   0  0  0  0  0  0  0  0  0  0  0  0
   -1.1860   -1.4997   -1.7427 O   0  0  0  0  0  0  0  0  0  0  0  0
   -2.0139    0.3642   -0.3991 C   0  0  0  0  0  0  0  0  0  0  0  0
   -1.9834    0.6463    0.9773 C   0  0  0  0  0  0  0  0  0  0  0  0
   -1.2871   -0.3372    1.6165 C   0  0  0  0  0  0  0  0  0  0  0  0
   -0.9854   -0.4778    2.9041 O   0  0  0  0  0  0  0  0  0  0  0  0
   -2.7568    1.9098    1.1877 C   0  0  0  0  0  0  0  0  0  0  0  0
   -1.9582    3.0737    0.5449 C   0  0  0  0  0  0  0  0  0  0  0  0
   -2.0135    2.7576   -0.9857 C   0  0  0  0  0  0  0  0  0  0  0  0
   -2.8230    1.4385   -1.0559 C   0  0  0  0  0  0  0  0  0  0  0  0
   -3.8529    1.7232    0.0872 C   0  0  0  0  0  0  0  0  0  0  0  0
    1.3848    1.3890    0.6453 H   0  0  0  0  0  0  0  0  0  0  0  0
    1.2851    2.3921   -0.8130 H   0  0  0  0  0  0  0  0  0  0  0  0
    2.3792    2.8414    0.5043 H   0  0  0  0  0  0  0  0  0  0  0  0
    3.7237    0.7986    0.1100 H   0  0  0  0  0  0  0  0  0  0  0  0
    4.7624    1.4927   -2.0462 H   0  0  0  0  0  0  0  0  0  0  0  0
    4.3574    2.9023   -1.0573 H   0  0  0  0  0  0  0  0  0  0  0  0
    3.3344    2.4671   -2.4377 H   0  0  0  0  0  0  0  0  0  0  0  0
    1.8367    0.3106   -2.2592 H   0  0  0  0  0  0  0  0  0  0  0  0
    3.3608   -0.5688   -1.9461 H   0  0  0  0  0  0  0  0  0  0  0  0
    2.2238   -4.5336   -0.5048 H   0  0  0  0  0  0  0  0  0  0  0  0
    1.5255   -5.9403    1.4072 H   0  0  0  0  0  0  0  0  0  0  0  0
   -0.1830   -5.1051    3.0023 H   0  0  0  0  0  0  0  0  0  0  0  0
   -1.2565   -2.9283    2.6483 H   0  0  0  0  0  0  0  0  0  0  0  0
   -1.6081   -1.0013   -2.4638 H   0  0  0  0  0  0  0  0  0  0  0  0
   -1.3441    0.2997    3.3665 H   0  0  0  0  0  0  0  0  0  0  0  0
   -3.1243    2.0829    2.1988 H   0  0  0  0  0  0  0  0  0  0  0  0
   -2.4423    4.0366    0.7427 H   0  0  0  0  0  0  0  0  0  0  0  0
   -0.9250    3.1227    0.9050 H   0  0  0  0  0  0  0  0  0  0  0  0
   -1.0106    2.6571   -1.4118 H   0  0  0  0  0  0  0  0  0  0  0  0
   -2.5349    3.5647   -1.5126 H   0  0  0  0  0  0  0  0  0  0  0  0
   -3.2501    1.1904   -2.0273 H   0  0  0  0  0  0  0  0  0  0  0  0
   -4.4572    2.6208   -0.0832 H   0  0  0  0  0  0  0  0  0  0  0  0
   -4.5083    0.8661    0.2864 H   0  0  0  0  0  0  0  0  0  0  0  0
  1  2  1  0
  2  3  1  0
  2  4  1  0
  4  5  1  0
  5  6  1  0
  6  7  2  0
  6  8  1  0
  8  9  2  0
  9 10  1  0
 10 11  2  0
 11 12  1  0
 12 13  2  0
 13 14  1  0
 14 15  1  0
 15 16  1  0
 15 17  2  0
 17 18  1  0
 18 19  2  0
 19 20  1  0
 18 21  1  0
 21 22  1  0
 22 23  1  0
 23 24  1  0
 24 25  1  0
 13  8  1  0
 19 14  1  0
 25 21  1  0
 24 17  1  0
  1 26  1  0
  1 27  1  0
  1 28  1  0
  2 29  1  0
  3 30  1  0
  3 31  1  0
  3 32  1  0
  4 33  1  0
  4 34  1  0
  9 35  1  0
 10 36  1  0
 11 37  1  0
 12 38  1  0
 16 39  1  0
 20 40  1  0
 21 41  1  0
 22 42  1  0
 22 43  1  0
 23 44  1  0
 23 45  1  0
 24 46  1  0
 25 47  1  0
 25 48  1  0
M  END
$$$$
