
     RDKit          3D

 52 55  0  0  0  0  0  0  0  0999 V2000
   -6.8297   -0.1615    1.3644 C   0  0  0  0  0  0  0  0  0  0  0  0
   -5.5044    0.2384    1.9944 C   0  0  0  0  0  0  0  0  0  0  0  0
   -4.8628    1.4119    1.2474 C   0  0  0  0  0  0  0  0  0  0  0  0
   -3.5612    1.8924    1.8959 C   0  0  0  0  0  0  0  0  0  0  0  0
   -2.4485    0.9116    1.7671 C   0  0  0  0  0  0  0  0  0  0  0  0
   -2.1129    0.0783    2.7375 N   0  0  0  0  0  0  0  0  0  0  0  0
   -1.0654   -0.6892    2.3155 N   0  0  0  0  0  0  0  0  0  0  0  0
   -0.7593   -0.3037    1.0983 C   0  0  0  0  0  0  0  0  0  0  0  0
    0.2787   -0.8027    0.2367 C   0  0  0  0  0  0  0  0  0  0  0  0
    1.1270   -1.8390    0.7139 N   0  0  0  0  0  0  0  0  0  0  0  0
    1.4024   -2.0674    2.1505 C   0  0  0  0  0  0  0  0  0  0  0  0
    2.0443   -2.7985   -0.3475 S   0  0  0  0  0  6  0  0  0  0  0  0
    2.3281   -4.0573    0.3168 O   0  0  0  0  0  0  0  0  0  0  0  0
    1.4611   -2.8072   -1.6721 O   0  0  0  0  0  0  0  0  0  0  0  0
    3.5768   -1.8927   -0.4373 C   0  0  0  0  0  0  0  0  0  0  0  0
    3.7131   -0.8616   -1.3694 C   0  0  0  0  0  0  0  0  0  0  0  0
    4.9192   -0.1644   -1.4562 C   0  0  0  0  0  0  0  0  0  0  0  0
    5.9931   -0.4958   -0.6191 C   0  0  0  0  0  0  0  0  0  0  0  0
    7.3006    0.2306   -0.7415 C   0  0  0  0  0  0  0  0  0  0  0  0
    5.8556   -1.5572    0.2858 C   0  0  0  0  0  0  0  0  0  0  0  0
    4.6515   -2.2578    0.3779 C   0  0  0  0  0  0  0  0  0  0  0  0
    0.4379   -0.2946   -0.9438 N   0  0  0  0  0  0  0  0  0  0  0  0
   -0.4252    0.7288   -1.3843 C   0  0  0  0  0  0  0  0  0  0  0  0
   -0.2242    1.2232   -2.6754 C   0  0  0  0  0  0  0  0  0  0  0  0
   -1.0344    2.2371   -3.1827 C   0  0  0  0  0  0  0  0  0  0  0  0
   -2.0571    2.7642   -2.3983 C   0  0  0  0  0  0  0  0  0  0  0  0
   -2.2784    2.2824   -1.1046 C   0  0  0  0  0  0  0  0  0  0  0  0
   -1.4659    1.2671   -0.5965 C   0  0  0  0  0  0  0  0  0  0  0  0
   -1.6044    0.7031    0.6904 N   0  0  0  0  0  0  0  0  0  0  0  0
   -7.2714   -1.0004    1.9113 H   0  0  0  0  0  0  0  0  0  0  0  0
   -6.6916   -0.4698    0.3231 H   0  0  0  0  0  0  0  0  0  0  0  0
   -7.5413    0.6700    1.3857 H   0  0  0  0  0  0  0  0  0  0  0  0
   -4.8350   -0.6289    1.9872 H   0  0  0  0  0  0  0  0  0  0  0  0
   -5.6735    0.5113    3.0425 H   0  0  0  0  0  0  0  0  0  0  0  0
   -5.5693    2.2513    1.2359 H   0  0  0  0  0  0  0  0  0  0  0  0
   -4.6934    1.1245    0.2034 H   0  0  0  0  0  0  0  0  0  0  0  0
   -3.7450    2.0723    2.9636 H   0  0  0  0  0  0  0  0  0  0  0  0
   -3.2626    2.8665    1.4988 H   0  0  0  0  0  0  0  0  0  0  0  0
    1.4702   -1.1130    2.6820 H   0  0  0  0  0  0  0  0  0  0  0  0
    0.6128   -2.6843    2.5885 H   0  0  0  0  0  0  0  0  0  0  0  0
    2.3580   -2.5696    2.3225 H   0  0  0  0  0  0  0  0  0  0  0  0
    2.8912   -0.6014   -2.0327 H   0  0  0  0  0  0  0  0  0  0  0  0
    5.0185    0.6357   -2.1870 H   0  0  0  0  0  0  0  0  0  0  0  0
    7.1427    1.2693   -1.0504 H   0  0  0  0  0  0  0  0  0  0  0  0
    7.9367   -0.2660   -1.4806 H   0  0  0  0  0  0  0  0  0  0  0  0
    7.8254    0.2542    0.2193 H   0  0  0  0  0  0  0  0  0  0  0  0
    6.6908   -1.8492    0.9195 H   0  0  0  0  0  0  0  0  0  0  0  0
    4.5662   -3.0869    1.0764 H   0  0  0  0  0  0  0  0  0  0  0  0
    0.5691    0.8055   -3.2915 H   0  0  0  0  0  0  0  0  0  0  0  0
   -0.8694    2.6103   -4.1905 H   0  0  0  0  0  0  0  0  0  0  0  0
   -2.6905    3.5531   -2.7994 H   0  0  0  0  0  0  0  0  0  0  0  0
   -3.0941    2.7269   -0.5530 H   0  0  0  0  0  0  0  0  0  0  0  0
  1  2  1  0
  2  3  1  0
  3  4  1  0
  4  5  1  0
  5  6  2  0
  6  7  1  0
  7  8  2  0
  8  9  1  0
  9 10  1  0
 10 11  1  0
 10 12  1  0
 12 13  2  0
 12 14  2  0
 12 15  1  0
 15 16  2  0
 16 17  1  0
 17 18  2  0
 18 19  1  0
 18 20  1  0
 20 21  2  0
  9 22  2  0
 22 23  1  0
 23 24  2  0
 24 25  1  0
 25 26  2  0
 26 27  1  0
 27 28  2  0
 28 29  1  0
 29  5  1  0
 29  8  1  0
 21 15  1  0
 28 23  1  0
  1 30  1  0
  1 31  1  0
  1 32  1  0
  2 33  1  0
  2 34  1  0
  3 35  1  0
  3 36  1  0
  4 37  1  0
  4 38  1  0
 11 39  1  0
 11 40  1  0
 11 41  1  0
 16 42  1  0
 17 43  1  0
 19 44  1  0
 19 45  1  0
 19 46  1  0
 20 47  1  0
 21 48  1  0
 24 49  1  0
 25 50  1  0
 26 51  1  0
 27 52  1  0
M  END
$$$$
