
     RDKit          3D

 60 64  0  0  0  0  0  0  0  0999 V2000
    3.2149    1.9797   -1.2610 O   0  0  0  0  0  0  0  0  0  0  0  0
    2.8662    0.9593   -0.6817 C   0  0  0  0  0  0  0  0  0  0  0  0
    3.6629    0.0406   -0.0245 N   0  0  0  0  0  0  0  0  0  0  0  0
    5.0694    0.0633    0.0968 C   0  0  0  0  0  0  0  0  0  0  0  0
    5.8765    1.1133   -0.3445 C   0  0  0  0  0  0  0  0  0  0  0  0
    7.2709    1.0413   -0.2289 C   0  0  0  0  0  0  0  0  0  0  0  0
    7.8714   -0.0817    0.3430 C   0  0  0  0  0  0  0  0  0  0  0  0
    9.3477   -0.1892    0.4483 C   0  0  0  0  0  0  0  0  0  0  0  0
    9.9257   -1.3248    0.7453 N   0  0  0  0  0  0  0  0  0  0  0  0
   11.3831   -1.0240    0.7200 C   0  0  0  0  0  0  0  0  0  0  0  0
   11.5060    0.5006    0.7047 C   0  0  0  0  0  0  0  0  0  0  0  0
   10.1863    0.8888    0.2606 N   0  0  0  0  0  0  0  0  0  0  0  0
    7.0689   -1.1301    0.7977 C   0  0  0  0  0  0  0  0  0  0  0  0
    5.6774   -1.0546    0.6803 C   0  0  0  0  0  0  0  0  0  0  0  0
    1.4208    0.6171   -0.7083 C   0  0  0  0  0  0  0  0  0  0  0  0
    0.7544    0.1583    0.4375 C   0  0  0  0  0  0  0  0  0  0  0  0
   -0.6057   -0.1683    0.3766 C   0  0  0  0  0  0  0  0  0  0  0  0
   -1.3012   -0.0316   -0.8325 C   0  0  0  0  0  0  0  0  0  0  0  0
   -2.6943   -0.5048   -0.9056 C   0  0  0  0  0  0  0  0  0  0  0  0
   -2.9036   -1.4749   -1.6223 O   0  0  0  0  0  0  0  0  0  0  0  0
   -3.5815    0.2224   -0.1414 N   0  0  0  0  0  0  0  0  0  0  0  0
   -4.9667   -0.0120   -0.0098 C   0  0  0  0  0  0  0  0  0  0  0  0
   -5.6172   -1.1308   -0.5306 C   0  0  0  0  0  0  0  0  0  0  0  0
   -7.0009   -1.2850   -0.3732 C   0  0  0  0  0  0  0  0  0  0  0  0
   -7.7496   -0.3193    0.3051 C   0  0  0  0  0  0  0  0  0  0  0  0
   -9.2243   -0.4730    0.4175 C   0  0  0  0  0  0  0  0  0  0  0  0
   -9.8257   -1.5807    0.0566 N   0  0  0  0  0  0  0  0  0  0  0  0
  -11.2710   -1.3247    0.2971 C   0  0  0  0  0  0  0  0  0  0  0  0
  -11.4085    0.1776    0.5499 C   0  0  0  0  0  0  0  0  0  0  0  0
  -10.0441    0.5427    0.8613 N   0  0  0  0  0  0  0  0  0  0  0  0
   -7.0991    0.7870    0.8572 C   0  0  0  0  0  0  0  0  0  0  0  0
   -5.7149    0.9398    0.6965 C   0  0  0  0  0  0  0  0  0  0  0  0
   -0.6306    0.4341   -1.9634 C   0  0  0  0  0  0  0  0  0  0  0  0
   -1.3415    0.6231   -3.2118 N   0  0  0  0  0  4  0  0  0  0  0  0
   -2.3684    1.3161   -3.1762 O   0  0  0  0  0  0  0  0  0  0  0  0
   -0.8268    0.1475   -4.2296 O   0  0  0  0  0  1  0  0  0  0  0  0
    0.7272    0.7729   -1.9143 C   0  0  0  0  0  0  0  0  0  0  0  0
    3.2178   -0.8062    0.2997 H   0  0  0  0  0  0  0  0  0  0  0  0
    5.4520    1.9992   -0.8056 H   0  0  0  0  0  0  0  0  0  0  0  0
    7.8713    1.8581   -0.6183 H   0  0  0  0  0  0  0  0  0  0  0  0
   11.8200   -1.4663   -0.1817 H   0  0  0  0  0  0  0  0  0  0  0  0
   11.8814   -1.4557    1.5931 H   0  0  0  0  0  0  0  0  0  0  0  0
   11.6941    0.8822    1.7132 H   0  0  0  0  0  0  0  0  0  0  0  0
   12.2916    0.8507    0.0290 H   0  0  0  0  0  0  0  0  0  0  0  0
    9.8516    1.7861    0.5880 H   0  0  0  0  0  0  0  0  0  0  0  0
    7.5265   -2.0138    1.2351 H   0  0  0  0  0  0  0  0  0  0  0  0
    5.0840   -1.8935    1.0339 H   0  0  0  0  0  0  0  0  0  0  0  0
    1.2838    0.0553    1.3809 H   0  0  0  0  0  0  0  0  0  0  0  0
   -1.1074   -0.5606    1.2596 H   0  0  0  0  0  0  0  0  0  0  0  0
   -3.2358    1.0678    0.2980 H   0  0  0  0  0  0  0  0  0  0  0  0
   -5.0835   -1.9074   -1.0667 H   0  0  0  0  0  0  0  0  0  0  0  0
   -7.4887   -2.1638   -0.7918 H   0  0  0  0  0  0  0  0  0  0  0  0
  -11.8645   -1.6336   -0.5706 H   0  0  0  0  0  0  0  0  0  0  0  0
  -11.5972   -1.9081    1.1644 H   0  0  0  0  0  0  0  0  0  0  0  0
  -12.0954    0.4054    1.3703 H   0  0  0  0  0  0  0  0  0  0  0  0
  -11.7389    0.6996   -0.3527 H   0  0  0  0  0  0  0  0  0  0  0  0
   -9.7713    1.4847    0.6088 H   0  0  0  0  0  0  0  0  0  0  0  0
   -7.6515    1.5334    1.4233 H   0  0  0  0  0  0  0  0  0  0  0  0
   -5.2380    1.8192    1.1208 H   0  0  0  0  0  0  0  0  0  0  0  0
    1.2438    1.1510   -2.7942 H   0  0  0  0  0  0  0  0  0  0  0  0
  1  2  2  0
  2  3  1  0
  3  4  1  0
  4  5  2  0
  5  6  1  0
  6  7  2  0
  7  8  1  0
  8  9  2  0
  9 10  1  0
 10 11  1  0
 11 12  1  0
  7 13  1  0
 13 14  2  0
  2 15  1  0
 15 16  2  0
 16 17  1  0
 17 18  2  0
 18 19  1  0
 19 20  2  0
 19 21  1  0
 21 22  1  0
 22 23  2  0
 23 24  1  0
 24 25  2  0
 25 26  1  0
 26 27  2  0
 27 28  1  0
 28 29  1  0
 29 30  1  0
 25 31  1  0
 31 32  2  0
 18 33  1  0
 33 34  1  0
 34 35  2  0
 34 36  1  0
 33 37  2  0
 14  4  1  0
 37 15  1  0
 12  8  1  0
 32 22  1  0
 30 26  1  0
  3 38  1  0
  5 39  1  0
  6 40  1  0
 10 41  1  0
 10 42  1  0
 11 43  1  0
 11 44  1  0
 12 45  1  0
 13 46  1  0
 14 47  1  0
 16 48  1  0
 17 49  1  0
 21 50  1  0
 23 51  1  0
 24 52  1  0
 28 53  1  0
 28 54  1  0
 29 55  1  0
 29 56  1  0
 30 57  1  0
 31 58  1  0
 32 59  1  0
 37 60  1  0
M  CHG  2  34   1  36  -1
M  END
$$$$
