
     RDKit          3D

 42 44  0  0  0  0  0  0  0  0999 V2000
   -3.8038   -2.2605   -0.4380 C   0  0  0  0  0  0  0  0  0  0  0  0
   -4.7790   -1.1174   -0.4790 C   0  0  0  0  0  0  0  0  0  0  0  0
   -6.1571   -1.3820   -0.4694 C   0  0  0  0  0  0  0  0  0  0  0  0
   -7.0787   -0.3381   -0.4947 C   0  0  0  0  0  0  0  0  0  0  0  0
   -6.6315    0.9794   -0.5250 C   0  0  0  0  0  0  0  0  0  0  0  0
   -5.2620    1.2580   -0.5253 C   0  0  0  0  0  0  0  0  0  0  0  0
   -4.3293    0.2156   -0.4992 C   0  0  0  0  0  0  0  0  0  0  0  0
   -2.9693    0.3822   -0.4952 O   0  0  0  0  0  0  0  0  0  0  0  0
   -2.4721    1.7135   -0.4117 C   0  0  0  0  0  0  0  0  0  0  0  0
   -0.9444    1.7042   -0.3715 C   0  0  0  0  0  0  0  0  0  0  0  0
   -0.2897    2.6575    0.0468 O   0  0  0  0  0  0  0  0  0  0  0  0
   -0.3656    0.5624   -0.8798 N   0  0  0  0  0  0  0  0  0  0  0  0
    1.0684    0.3506   -0.8566 C   0  0  0  0  0  0  0  0  0  0  0  0
    1.5574   -0.1069    0.5163 C   0  0  0  0  0  0  0  0  0  0  0  0
    3.0399   -0.2281    0.5400 C   0  0  0  0  0  0  0  0  0  0  0  0
    3.7534   -1.2335    0.0763 N   0  0  0  0  0  0  0  0  0  0  0  0
    5.0634   -0.8978    0.3175 C   0  0  0  0  0  0  0  0  0  0  0  0
    6.2389   -1.6070    0.0342 C   0  0  0  0  0  0  0  0  0  0  0  0
    7.4694   -1.0389    0.3875 C   0  0  0  0  0  0  0  0  0  0  0  0
    7.5271    0.2103    1.0113 C   0  0  0  0  0  0  0  0  0  0  0  0
    6.3638    0.9336    1.3028 C   0  0  0  0  0  0  0  0  0  0  0  0
    5.1517    0.3439    0.9360 C   0  0  0  0  0  0  0  0  0  0  0  0
    3.8493    0.7553    1.0526 N   0  0  0  0  0  0  0  0  0  0  0  0
   -4.3110   -3.2235   -0.5466 H   0  0  0  0  0  0  0  0  0  0  0  0
   -3.2697   -2.2659    0.5153 H   0  0  0  0  0  0  0  0  0  0  0  0
   -3.0824   -2.1785   -1.2571 H   0  0  0  0  0  0  0  0  0  0  0  0
   -6.5209   -2.4079   -0.4411 H   0  0  0  0  0  0  0  0  0  0  0  0
   -8.1444   -0.5540   -0.4901 H   0  0  0  0  0  0  0  0  0  0  0  0
   -7.3499    1.7953   -0.5449 H   0  0  0  0  0  0  0  0  0  0  0  0
   -4.9616    2.2990   -0.5493 H   0  0  0  0  0  0  0  0  0  0  0  0
   -2.7696    2.2944   -1.2932 H   0  0  0  0  0  0  0  0  0  0  0  0
   -2.8187    2.1876    0.5122 H   0  0  0  0  0  0  0  0  0  0  0  0
   -0.9845   -0.2189   -1.0735 H   0  0  0  0  0  0  0  0  0  0  0  0
    1.5607    1.2895   -1.1417 H   0  0  0  0  0  0  0  0  0  0  0  0
    1.2997   -0.3970   -1.6228 H   0  0  0  0  0  0  0  0  0  0  0  0
    1.2247    0.5873    1.2967 H   0  0  0  0  0  0  0  0  0  0  0  0
    1.1110   -1.0782    0.7585 H   0  0  0  0  0  0  0  0  0  0  0  0
    6.1849   -2.5745   -0.4509 H   0  0  0  0  0  0  0  0  0  0  0  0
    8.3892   -1.5759    0.1708 H   0  0  0  0  0  0  0  0  0  0  0  0
    8.4954    0.6318    1.2733 H   0  0  0  0  0  0  0  0  0  0  0  0
    6.4101    1.9020    1.7857 H   0  0  0  0  0  0  0  0  0  0  0  0
    3.5365    1.6308    1.4474 H   0  0  0  0  0  0  0  0  0  0  0  0
  1  2  1  0
  2  3  2  0
  3  4  1  0
  4  5  2  0
  5  6  1  0
  6  7  2  0
  7  8  1  0
  8  9  1  0
  9 10  1  0
 10 11  2  0
 10 12  1  0
 12 13  1  0
 13 14  1  0
 14 15  1  0
 15 16  2  0
 16 17  1  0
 17 18  2  0
 18 19  1  0
 19 20  2  0
 20 21  1  0
 21 22  2  0
 22 23  1  0
  7  2  1  0
 23 15  1  0
 22 17  1  0
  1 24  1  0
  1 25  1  0
  1 26  1  0
  3 27  1  0
  4 28  1  0
  5 29  1  0
  6 30  1  0
  9 31  1  0
  9 32  1  0
 12 33  1  0
 13 34  1  0
 13 35  1  0
 14 36  1  0
 14 37  1  0
 18 38  1  0
 19 39  1  0
 20 40  1  0
 21 41  1  0
 23 42  1  0
M  END
$$$$
