
     RDKit          3D

 41 43  0  0  0  0  0  0  0  0999 V2000
   -2.9722   -0.5142    1.4706 C   0  0  0  0  0  0  0  0  0  0  0  0
   -2.5319   -0.1835    0.0670 C   0  0  0  0  0  0  0  0  0  0  0  0
   -3.4023    0.2166   -0.8865 C   0  0  0  0  0  0  0  0  0  0  0  0
   -4.8475    0.3827   -0.7082 C   0  0  0  0  0  0  0  0  0  0  0  0
   -5.7139   -0.6873   -0.9544 C   0  0  0  0  0  0  0  0  0  0  0  0
   -7.0901   -0.5287   -0.7813 C   0  0  0  0  0  0  0  0  0  0  0  0
   -7.6041    0.6982   -0.3621 C   0  0  0  0  0  0  0  0  0  0  0  0
   -6.7437    1.7677   -0.1152 C   0  0  0  0  0  0  0  0  0  0  0  0
   -5.3673    1.6114   -0.2877 C   0  0  0  0  0  0  0  0  0  0  0  0
   -1.1155   -0.2872   -0.3053 C   0  0  0  0  0  0  0  0  0  0  0  0
   -0.0193   -0.6513    0.3797 C   0  0  0  0  0  0  0  0  0  0  0  0
    0.1548   -1.1610    2.0164 S   0  0  0  0  0  0  0  0  0  0  0  0
    1.8980   -1.3687    1.8933 C   0  0  0  0  0  0  0  0  0  0  0  0
    2.8488   -1.9287    3.1442 S   0  0  0  0  0  0  0  0  0  0  0  0
    2.2848   -1.0358    0.6140 N   0  0  0  0  0  0  0  0  0  0  0  0
    3.6340   -1.0228    0.2084 N   0  0  0  0  0  0  0  0  0  0  0  0
    4.2972    0.1852    0.3527 C   0  0  0  0  0  0  0  0  0  0  0  0
    3.8378    1.1430    0.9666 O   0  0  0  0  0  0  0  0  0  0  0  0
    5.6153    0.2909   -0.3238 C   0  0  0  0  0  0  0  0  0  0  0  0
    6.0644    1.5561   -0.7027 C   0  0  0  0  0  0  0  0  0  0  0  0
    7.2918    1.6476   -1.3305 C   0  0  0  0  0  0  0  0  0  0  0  0
    8.0794    0.5816   -1.5890 N   0  0  0  0  0  0  0  0  0  0  0  0
    7.6309   -0.6277   -1.1918 C   0  0  0  0  0  0  0  0  0  0  0  0
    6.4162   -0.8274   -0.5601 C   0  0  0  0  0  0  0  0  0  0  0  0
    1.3146   -0.6582   -0.2961 C   0  0  0  0  0  0  0  0  0  0  0  0
    1.5028   -0.4121   -1.4812 O   0  0  0  0  0  0  0  0  0  0  0  0
   -2.4837    0.1460    2.1945 H   0  0  0  0  0  0  0  0  0  0  0  0
   -2.7476   -1.5585    1.7100 H   0  0  0  0  0  0  0  0  0  0  0  0
   -4.0479   -0.3924    1.6283 H   0  0  0  0  0  0  0  0  0  0  0  0
   -3.0690    0.4536   -1.8955 H   0  0  0  0  0  0  0  0  0  0  0  0
   -5.3226   -1.6484   -1.2789 H   0  0  0  0  0  0  0  0  0  0  0  0
   -7.7608   -1.3622   -0.9725 H   0  0  0  0  0  0  0  0  0  0  0  0
   -8.6757    0.8208   -0.2270 H   0  0  0  0  0  0  0  0  0  0  0  0
   -7.1443    2.7234    0.2126 H   0  0  0  0  0  0  0  0  0  0  0  0
   -4.7043    2.4503   -0.0900 H   0  0  0  0  0  0  0  0  0  0  0  0
   -0.9344   -0.0071   -1.3479 H   0  0  0  0  0  0  0  0  0  0  0  0
    3.8291   -1.5836   -0.6152 H   0  0  0  0  0  0  0  0  0  0  0  0
    5.4730    2.4469   -0.5160 H   0  0  0  0  0  0  0  0  0  0  0  0
    7.6882    2.6071   -1.6512 H   0  0  0  0  0  0  0  0  0  0  0  0
    8.3015   -1.4579   -1.3971 H   0  0  0  0  0  0  0  0  0  0  0  0
    6.1354   -1.8245   -0.2429 H   0  0  0  0  0  0  0  0  0  0  0  0
  1  2  1  0
  2  3  2  3
  3  4  1  0
  4  5  2  0
  5  6  1  0
  6  7  2  0
  7  8  1  0
  8  9  2  0
  2 10  1  0
 10 11  2  3
 11 12  1  0
 12 13  1  0
 13 14  2  0
 13 15  1  0
 15 16  1  0
 16 17  1  0
 17 18  2  0
 17 19  1  0
 19 20  2  0
 20 21  1  0
 21 22  2  0
 22 23  1  0
 23 24  2  0
 15 25  1  0
 25 26  2  0
  9  4  1  0
 25 11  1  0
 24 19  1  0
  1 27  1  0
  1 28  1  0
  1 29  1  0
  3 30  1  0
  5 31  1  0
  6 32  1  0
  7 33  1  0
  8 34  1  0
  9 35  1  0
 10 36  1  0
 16 37  1  0
 20 38  1  0
 21 39  1  0
 23 40  1  0
 24 41  1  0
M  END
$$$$
