
     RDKit          3D

 61 64  0  0  0  0  0  0  0  0999 V2000
   -9.9580    1.6157    1.2379 C   0  0  0  0  0  0  0  0  0  0  0  0
   -8.8418    0.8170    0.8421 O   0  0  0  0  0  0  0  0  0  0  0  0
   -8.1161    1.3479   -0.1753 C   0  0  0  0  0  0  0  0  0  0  0  0
   -8.3471    2.4055   -0.7414 O   0  0  0  0  0  0  0  0  0  0  0  0
   -6.9746    0.4603   -0.5279 C   0  0  0  0  0  0  0  0  0  0  0  0
   -6.1477    0.8386   -1.5926 C   0  0  0  0  0  0  0  0  0  0  0  0
   -5.0614    0.0404   -1.9626 C   0  0  0  0  0  0  0  0  0  0  0  0
   -4.7783   -1.1470   -1.2724 C   0  0  0  0  0  0  0  0  0  0  0  0
   -3.6033   -2.0158   -1.6754 C   0  0  0  0  0  0  0  0  0  0  0  0
   -2.2968   -1.6703   -1.1041 N   0  0  0  0  0  0  0  0  0  0  0  0
   -2.1851   -1.9238    0.3358 C   0  0  0  0  0  0  0  0  0  0  0  0
   -0.9759   -1.2331    0.9730 C   0  0  0  0  0  0  0  0  0  0  0  0
    0.1778   -1.1136   -0.0213 C   0  0  0  0  0  0  0  0  0  0  0  0
    1.2508   -0.4435    0.6505 O   0  0  0  0  0  0  0  0  0  0  0  0
    2.5387   -0.7006    0.2740 C   0  0  0  0  0  0  0  0  0  0  0  0
    2.9462   -1.4235   -0.8489 C   0  0  0  0  0  0  0  0  0  0  0  0
    4.3074   -1.6168   -1.1119 C   0  0  0  0  0  0  0  0  0  0  0  0
    5.2699   -1.0759   -0.2615 C   0  0  0  0  0  0  0  0  0  0  0  0
    4.8648   -0.3272    0.8455 C   0  0  0  0  0  0  0  0  0  0  0  0
    5.8561    0.2487    1.7803 C   0  0  0  0  0  0  0  0  0  0  0  0
    5.7694   -0.0355    2.9720 O   0  0  0  0  0  0  0  0  0  0  0  0
    6.8257    1.0930    1.2723 N   0  0  0  0  0  0  0  0  0  0  0  0
    6.8620    1.7009   -0.0515 C   0  0  0  0  0  0  0  0  0  0  0  0
    7.7831    2.9038    0.1089 C   0  0  0  0  0  0  0  0  0  0  0  0
    8.7292    2.4659    1.2201 C   0  0  0  0  0  0  0  0  0  0  0  0
    7.8091    1.6953    2.1545 C   0  0  0  0  0  0  0  0  0  0  0  0
    3.5055   -0.1541    1.1210 C   0  0  0  0  0  0  0  0  0  0  0  0
   -0.2694   -0.3061   -1.2499 C   0  0  0  0  0  0  0  0  0  0  0  0
   -1.7817   -0.3626   -1.4894 C   0  0  0  0  0  0  0  0  0  0  0  0
   -5.6151   -1.5240   -0.2109 C   0  0  0  0  0  0  0  0  0  0  0  0
   -6.7032   -0.7279    0.1611 C   0  0  0  0  0  0  0  0  0  0  0  0
  -10.6133    1.8205    0.3841 H   0  0  0  0  0  0  0  0  0  0  0  0
  -10.5290    1.0534    1.9835 H   0  0  0  0  0  0  0  0  0  0  0  0
   -9.6114    2.5490    1.6949 H   0  0  0  0  0  0  0  0  0  0  0  0
   -6.3460    1.7576   -2.1413 H   0  0  0  0  0  0  0  0  0  0  0  0
   -4.4381    0.3524   -2.7981 H   0  0  0  0  0  0  0  0  0  0  0  0
   -3.5264   -2.0085   -2.7713 H   0  0  0  0  0  0  0  0  0  0  0  0
   -3.8333   -3.0624   -1.4339 H   0  0  0  0  0  0  0  0  0  0  0  0
   -3.0716   -1.5946    0.8878 H   0  0  0  0  0  0  0  0  0  0  0  0
   -2.0976   -3.0066    0.4864 H   0  0  0  0  0  0  0  0  0  0  0  0
   -0.6548   -1.7805    1.8677 H   0  0  0  0  0  0  0  0  0  0  0  0
   -1.2575   -0.2311    1.3248 H   0  0  0  0  0  0  0  0  0  0  0  0
    0.4641   -2.1355   -0.3040 H   0  0  0  0  0  0  0  0  0  0  0  0
    2.2319   -1.8567   -1.5405 H   0  0  0  0  0  0  0  0  0  0  0  0
    4.6137   -2.1980   -1.9784 H   0  0  0  0  0  0  0  0  0  0  0  0
    6.3246   -1.2525   -0.4528 H   0  0  0  0  0  0  0  0  0  0  0  0
    7.2948    0.9741   -0.7465 H   0  0  0  0  0  0  0  0  0  0  0  0
    5.8612    1.9818   -0.3907 H   0  0  0  0  0  0  0  0  0  0  0  0
    8.3011    3.1640   -0.8173 H   0  0  0  0  0  0  0  0  0  0  0  0
    7.2061    3.7760    0.4373 H   0  0  0  0  0  0  0  0  0  0  0  0
    9.4973    1.7976    0.8118 H   0  0  0  0  0  0  0  0  0  0  0  0
    9.2275    3.3046    1.7142 H   0  0  0  0  0  0  0  0  0  0  0  0
    8.3296    0.9280    2.7359 H   0  0  0  0  0  0  0  0  0  0  0  0
    7.2839    2.3690    2.8419 H   0  0  0  0  0  0  0  0  0  0  0  0
    3.1994    0.4051    2.0025 H   0  0  0  0  0  0  0  0  0  0  0  0
    0.2489   -0.7000   -2.1329 H   0  0  0  0  0  0  0  0  0  0  0  0
    0.0413    0.7426   -1.1631 H   0  0  0  0  0  0  0  0  0  0  0  0
   -1.9575   -0.1656   -2.5536 H   0  0  0  0  0  0  0  0  0  0  0  0
   -2.2778    0.4387   -0.9274 H   0  0  0  0  0  0  0  0  0  0  0  0
   -5.4232   -2.4448    0.3363 H   0  0  0  0  0  0  0  0  0  0  0  0
   -7.3283   -1.0486    0.9906 H   0  0  0  0  0  0  0  0  0  0  0  0
  1  2  1  0
  2  3  1  0
  3  4  2  0
  3  5  1  0
  5  6  2  0
  6  7  1  0
  7  8  2  0
  8  9  1  0
  9 10  1  0
 10 11  1  0
 11 12  1  0
 12 13  1  0
 13 14  1  0
 14 15  1  0
 15 16  2  0
 16 17  1  0
 17 18  2  0
 18 19  1  0
 19 20  1  0
 20 21  2  0
 20 22  1  0
 22 23  1  0
 23 24  1  0
 24 25  1  0
 25 26  1  0
 19 27  2  0
 13 28  1  0
 28 29  1  0
  8 30  1  0
 30 31  2  0
 31  5  1  0
 29 10  1  0
 27 15  1  0
 26 22  1  0
  1 32  1  0
  1 33  1  0
  1 34  1  0
  6 35  1  0
  7 36  1  0
  9 37  1  0
  9 38  1  0
 11 39  1  0
 11 40  1  0
 12 41  1  0
 12 42  1  0
 13 43  1  0
 16 44  1  0
 17 45  1  0
 18 46  1  0
 23 47  1  0
 23 48  1  0
 24 49  1  0
 24 50  1  0
 25 51  1  0
 25 52  1  0
 26 53  1  0
 26 54  1  0
 27 55  1  0
 28 56  1  0
 28 57  1  0
 29 58  1  0
 29 59  1  0
 30 60  1  0
 31 61  1  0
M  END
$$$$
