
     RDKit          3D

 35 37  0  0  0  0  0  0  0  0999 V2000
   -4.9392    1.7242    0.0642 C   0  0  0  0  0  0  0  0  0  0  0  0
   -3.9004    0.7792   -0.4659 C   0  0  0  0  0  0  0  0  0  0  0  0
   -3.1501   -0.0125    0.4147 C   0  0  0  0  0  0  0  0  0  0  0  0
   -2.1637   -0.8718   -0.0717 C   0  0  0  0  0  0  0  0  0  0  0  0
   -1.9135   -0.9230   -1.4449 C   0  0  0  0  0  0  0  0  0  0  0  0
   -0.6658   -2.0136   -2.0754 S   0  0  0  0  0  6  0  0  0  0  0  0
   -0.2426   -2.9113   -1.0218 O   0  0  0  0  0  0  0  0  0  0  0  0
   -1.1365   -2.5261   -3.3454 O   0  0  0  0  0  0  0  0  0  0  0  0
    0.6010   -0.9526   -2.4457 N   0  0  0  0  0  0  0  0  0  0  0  0
    1.4427   -0.5312   -1.3829 C   0  0  0  0  0  0  0  0  0  0  0  0
    2.5599   -1.2896   -1.0362 C   0  0  0  0  0  0  0  0  0  0  0  0
    3.3629   -0.9052    0.0433 C   0  0  0  0  0  0  0  0  0  0  0  0
    3.0407    0.2434    0.7805 C   0  0  0  0  0  0  0  0  0  0  0  0
    3.8348    0.6516    1.8796 N   0  0  0  0  0  0  0  0  0  0  0  0
    4.9632    0.0753    2.4064 C   0  0  0  0  0  0  0  0  0  0  0  0
    5.3830    0.7900    3.4251 N   0  0  0  0  0  0  0  0  0  0  0  0
    4.4997    1.8302    3.5374 N   0  0  0  0  0  0  0  0  0  0  0  0
    3.5575    1.7578    2.6080 N   0  0  0  0  0  0  0  0  0  0  0  0
    1.9107    0.9982    0.4271 C   0  0  0  0  0  0  0  0  0  0  0  0
    1.1121    0.6059   -0.6503 C   0  0  0  0  0  0  0  0  0  0  0  0
   -2.6520   -0.1396   -2.3350 C   0  0  0  0  0  0  0  0  0  0  0  0
   -3.6375    0.7166   -1.8415 C   0  0  0  0  0  0  0  0  0  0  0  0
   -5.3927    1.3320    0.9805 H   0  0  0  0  0  0  0  0  0  0  0  0
   -4.4845    2.6955    0.2816 H   0  0  0  0  0  0  0  0  0  0  0  0
   -5.7462    1.8652   -0.6625 H   0  0  0  0  0  0  0  0  0  0  0  0
   -3.3348    0.0328    1.4863 H   0  0  0  0  0  0  0  0  0  0  0  0
   -1.5960   -1.4875    0.6225 H   0  0  0  0  0  0  0  0  0  0  0  0
    1.0426   -1.2192   -3.3251 H   0  0  0  0  0  0  0  0  0  0  0  0
    2.8018   -2.1955   -1.5870 H   0  0  0  0  0  0  0  0  0  0  0  0
    4.2186   -1.5307    0.2811 H   0  0  0  0  0  0  0  0  0  0  0  0
    5.4235   -0.8248    2.0331 H   0  0  0  0  0  0  0  0  0  0  0  0
    1.6310    1.8940    0.9803 H   0  0  0  0  0  0  0  0  0  0  0  0
    0.2401    1.1999   -0.9131 H   0  0  0  0  0  0  0  0  0  0  0  0
   -2.4654   -0.1895   -3.4053 H   0  0  0  0  0  0  0  0  0  0  0  0
   -4.2051    1.3319   -2.5370 H   0  0  0  0  0  0  0  0  0  0  0  0
  1  2  1  0
  2  3  2  0
  3  4  1  0
  4  5  2  0
  5  6  1  0
  6  7  2  0
  6  8  2  0
  6  9  1  0
  9 10  1  0
 10 11  2  0
 11 12  1  0
 12 13  2  0
 13 14  1  0
 14 15  1  0
 15 16  2  0
 16 17  1  0
 17 18  2  0
 13 19  1  0
 19 20  2  0
  5 21  1  0
 21 22  2  0
 22  2  1  0
 20 10  1  0
 18 14  1  0
  1 23  1  0
  1 24  1  0
  1 25  1  0
  3 26  1  0
  4 27  1  0
  9 28  1  0
 11 29  1  0
 12 30  1  0
 15 31  1  0
 19 32  1  0
 20 33  1  0
 21 34  1  0
 22 35  1  0
M  END
$$$$
