
     RDKit          3D

 60 64  0  0  0  0  0  0  0  0999 V2000
    3.4194    2.6669   -0.3475 O   0  0  0  0  0  0  0  0  0  0  0  0
    2.9134    1.5559   -0.2572 C   0  0  0  0  0  0  0  0  0  0  0  0
    3.5679    0.3553   -0.0540 N   0  0  0  0  0  0  0  0  0  0  0  0
    4.9620    0.1468    0.0247 C   0  0  0  0  0  0  0  0  0  0  0  0
    5.3980   -1.1556    0.3007 C   0  0  0  0  0  0  0  0  0  0  0  0
    6.7629   -1.4478    0.3901 C   0  0  0  0  0  0  0  0  0  0  0  0
    7.7115   -0.4402    0.1997 C   0  0  0  0  0  0  0  0  0  0  0  0
    9.1577   -0.7654    0.2932 C   0  0  0  0  0  0  0  0  0  0  0  0
    9.5685   -1.9243    0.7492 N   0  0  0  0  0  0  0  0  0  0  0  0
   11.0541   -1.8446    0.6935 C   0  0  0  0  0  0  0  0  0  0  0  0
   11.3859   -0.6283   -0.1708 C   0  0  0  0  0  0  0  0  0  0  0  0
   10.1425    0.1069   -0.1134 N   0  0  0  0  0  0  0  0  0  0  0  0
    7.2831    0.8619   -0.0689 C   0  0  0  0  0  0  0  0  0  0  0  0
    5.9148    1.1508   -0.1596 C   0  0  0  0  0  0  0  0  0  0  0  0
    1.4267    1.4659   -0.3338 C   0  0  0  0  0  0  0  0  0  0  0  0
    0.7783    0.3613   -0.9100 C   0  0  0  0  0  0  0  0  0  0  0  0
   -0.6203    0.3186   -0.9787 C   0  0  0  0  0  0  0  0  0  0  0  0
   -1.3814    1.3815   -0.4711 C   0  0  0  0  0  0  0  0  0  0  0  0
   -2.8502    1.3615   -0.6370 C   0  0  0  0  0  0  0  0  0  0  0  0
   -3.3571    2.3173   -1.2055 O   0  0  0  0  0  0  0  0  0  0  0  0
   -3.4674    0.2366   -0.1298 N   0  0  0  0  0  0  0  0  0  0  0  0
   -4.8433   -0.0718   -0.1803 C   0  0  0  0  0  0  0  0  0  0  0  0
   -5.7957    0.7171   -0.8287 C   0  0  0  0  0  0  0  0  0  0  0  0
   -7.1453    0.3405   -0.8400 C   0  0  0  0  0  0  0  0  0  0  0  0
   -7.5544   -0.8307   -0.1981 C   0  0  0  0  0  0  0  0  0  0  0  0
   -8.9816   -1.2403   -0.1954 C   0  0  0  0  0  0  0  0  0  0  0  0
   -9.3475   -2.4397    0.1883 N   0  0  0  0  0  0  0  0  0  0  0  0
  -10.8282   -2.4468    0.0341 C   0  0  0  0  0  0  0  0  0  0  0  0
  -11.2467   -0.9887   -0.1543 C   0  0  0  0  0  0  0  0  0  0  0  0
   -9.9977   -0.3872   -0.5643 N   0  0  0  0  0  0  0  0  0  0  0  0
   -6.6046   -1.6291    0.4435 C   0  0  0  0  0  0  0  0  0  0  0  0
   -5.2583   -1.2500    0.4533 C   0  0  0  0  0  0  0  0  0  0  0  0
   -0.7258    2.4845    0.0808 C   0  0  0  0  0  0  0  0  0  0  0  0
   -1.4846    3.5672    0.6753 N   0  0  0  0  0  4  0  0  0  0  0  0
   -1.2326    4.7143    0.2864 O   0  0  0  0  0  0  0  0  0  0  0  0
   -2.2663    3.2616    1.5860 O   0  0  0  0  0  1  0  0  0  0  0  0
    0.6717    2.5410    0.1529 C   0  0  0  0  0  0  0  0  0  0  0  0
    3.0020   -0.4636    0.1224 H   0  0  0  0  0  0  0  0  0  0  0  0
    4.6890   -1.9647    0.4542 H   0  0  0  0  0  0  0  0  0  0  0  0
    7.0831   -2.4644    0.6091 H   0  0  0  0  0  0  0  0  0  0  0  0
   11.4409   -1.7244    1.7116 H   0  0  0  0  0  0  0  0  0  0  0  0
   11.4730   -2.7615    0.2677 H   0  0  0  0  0  0  0  0  0  0  0  0
   12.2280   -0.0524    0.2217 H   0  0  0  0  0  0  0  0  0  0  0  0
   11.5992   -0.9289   -1.2020 H   0  0  0  0  0  0  0  0  0  0  0  0
    9.9319    0.6900   -0.9145 H   0  0  0  0  0  0  0  0  0  0  0  0
    7.9960    1.6720   -0.1914 H   0  0  0  0  0  0  0  0  0  0  0  0
    5.6298    2.1770   -0.3709 H   0  0  0  0  0  0  0  0  0  0  0  0
    1.3479   -0.4520   -1.3556 H   0  0  0  0  0  0  0  0  0  0  0  0
   -1.1056   -0.5229   -1.4714 H   0  0  0  0  0  0  0  0  0  0  0  0
   -2.8939   -0.4206    0.3839 H   0  0  0  0  0  0  0  0  0  0  0  0
   -5.5235    1.6335   -1.3436 H   0  0  0  0  0  0  0  0  0  0  0  0
   -7.8568    0.9652   -1.3719 H   0  0  0  0  0  0  0  0  0  0  0  0
  -11.0902   -3.0504   -0.8421 H   0  0  0  0  0  0  0  0  0  0  0  0
  -11.3048   -2.8868    0.9154 H   0  0  0  0  0  0  0  0  0  0  0  0
  -11.5821   -0.5535    0.7929 H   0  0  0  0  0  0  0  0  0  0  0  0
  -12.0314   -0.8717   -0.9063 H   0  0  0  0  0  0  0  0  0  0  0  0
   -9.8756    0.5905   -0.3273 H   0  0  0  0  0  0  0  0  0  0  0  0
   -6.9098   -2.5475    0.9405 H   0  0  0  0  0  0  0  0  0  0  0  0
   -4.5474   -1.8925    0.9657 H   0  0  0  0  0  0  0  0  0  0  0  0
    1.1709    3.4070    0.5875 H   0  0  0  0  0  0  0  0  0  0  0  0
  1  2  2  0
  2  3  1  0
  3  4  1  0
  4  5  2  0
  5  6  1  0
  6  7  2  0
  7  8  1  0
  8  9  2  0
  9 10  1  0
 10 11  1  0
 11 12  1  0
  7 13  1  0
 13 14  2  0
  2 15  1  0
 15 16  2  0
 16 17  1  0
 17 18  2  0
 18 19  1  0
 19 20  2  0
 19 21  1  0
 21 22  1  0
 22 23  2  0
 23 24  1  0
 24 25  2  0
 25 26  1  0
 26 27  2  0
 27 28  1  0
 28 29  1  0
 29 30  1  0
 25 31  1  0
 31 32  2  0
 18 33  1  0
 33 34  1  0
 34 35  2  0
 34 36  1  0
 33 37  2  0
 14  4  1  0
 37 15  1  0
 12  8  1  0
 32 22  1  0
 30 26  1  0
  3 38  1  0
  5 39  1  0
  6 40  1  0
 10 41  1  0
 10 42  1  0
 11 43  1  0
 11 44  1  0
 12 45  1  0
 13 46  1  0
 14 47  1  0
 16 48  1  0
 17 49  1  0
 21 50  1  0
 23 51  1  0
 24 52  1  0
 28 53  1  0
 28 54  1  0
 29 55  1  0
 29 56  1  0
 30 57  1  0
 31 58  1  0
 32 59  1  0
 37 60  1  0
M  CHG  2  34   1  36  -1
M  END
$$$$
