
     RDKit          3D

 58 61  0  0  0  0  0  0  0  0999 V2000
    1.9639   -2.2816   -3.1252 O   0  0  0  0  0  0  0  0  0  0  0  0
    2.3758   -1.1735   -2.7843 C   0  0  0  0  0  0  0  0  0  0  0  0
    3.8209   -0.9091   -2.4287 C   0  0  0  0  0  0  0  0  0  0  0  0
    4.1568   -1.4326   -1.0338 C   0  0  0  0  0  0  0  0  0  0  0  0
    3.5856   -0.5887    0.1272 C   0  0  0  0  0  0  0  0  0  0  0  0
    4.1699    0.8391    0.1268 C   0  0  0  0  0  0  0  0  0  0  0  0
    4.1372    1.4674    1.5127 C   0  0  0  0  0  0  0  0  0  0  0  0
    4.9948    0.6793    2.5021 C   0  0  0  0  0  0  0  0  0  0  0  0
    5.0601   -0.8188    2.1906 C   0  0  0  0  0  0  0  0  0  0  0  0
    3.8022   -1.2995    1.4809 C   0  0  0  0  0  0  0  0  0  0  0  0
    1.5508   -0.0699   -2.6878 N   0  0  0  0  0  0  0  0  0  0  0  0
    0.1571   -0.3408   -2.7046 N   0  0  0  0  0  0  0  0  0  0  0  0
   -0.5517    0.1386   -1.6157 C   0  0  0  0  0  0  0  0  0  0  0  0
   -0.0596    0.8965   -0.7855 O   0  0  0  0  0  0  0  0  0  0  0  0
   -1.8349   -0.3343   -1.6027 N   0  0  0  0  0  0  0  0  0  0  0  0
   -2.8577    0.0324   -0.6194 C   0  0  0  0  0  0  0  0  0  0  0  0
   -4.1548   -0.7514   -0.9503 C   0  0  0  0  0  0  0  0  0  0  0  0
   -5.2761   -0.4073    0.0420 C   0  0  0  0  0  0  0  0  0  0  0  0
   -5.5641    1.1004   -0.0221 C   0  0  0  0  0  0  0  0  0  0  0  0
   -4.2944    1.8937    0.3335 C   0  0  0  0  0  0  0  0  0  0  0  0
   -3.8367    1.5090    1.7515 C   0  0  0  0  0  0  0  0  0  0  0  0
   -3.5465   -0.0005    1.8254 C   0  0  0  0  0  0  0  0  0  0  0  0
   -4.8210   -0.7800    1.4625 C   0  0  0  0  0  0  0  0  0  0  0  0
   -2.4331   -0.3474    0.8228 C   0  0  0  0  0  0  0  0  0  0  0  0
   -3.1830    1.5461   -0.6715 C   0  0  0  0  0  0  0  0  0  0  0  0
    4.0542    0.1537   -2.5345 H   0  0  0  0  0  0  0  0  0  0  0  0
    4.4320   -1.4331   -3.1734 H   0  0  0  0  0  0  0  0  0  0  0  0
    5.2481   -1.4848   -0.9343 H   0  0  0  0  0  0  0  0  0  0  0  0
    3.7876   -2.4619   -0.9461 H   0  0  0  0  0  0  0  0  0  0  0  0
    2.4994   -0.5171   -0.0110 H   0  0  0  0  0  0  0  0  0  0  0  0
    3.6065    1.4657   -0.5714 H   0  0  0  0  0  0  0  0  0  0  0  0
    5.2071    0.8290   -0.2276 H   0  0  0  0  0  0  0  0  0  0  0  0
    3.0998    1.5009    1.8656 H   0  0  0  0  0  0  0  0  0  0  0  0
    4.4855    2.5061    1.4704 H   0  0  0  0  0  0  0  0  0  0  0  0
    4.5983    0.8314    3.5137 H   0  0  0  0  0  0  0  0  0  0  0  0
    6.0162    1.0796    2.5094 H   0  0  0  0  0  0  0  0  0  0  0  0
    5.2125   -1.3809    3.1176 H   0  0  0  0  0  0  0  0  0  0  0  0
    5.9337   -1.0274    1.5583 H   0  0  0  0  0  0  0  0  0  0  0  0
    3.8317   -2.3895    1.3531 H   0  0  0  0  0  0  0  0  0  0  0  0
    2.9397   -1.0928    2.1299 H   0  0  0  0  0  0  0  0  0  0  0  0
    1.8103    0.6896   -2.0556 H   0  0  0  0  0  0  0  0  0  0  0  0
   -0.0464   -1.3014   -2.9715 H   0  0  0  0  0  0  0  0  0  0  0  0
   -2.1379   -0.8074   -2.4337 H   0  0  0  0  0  0  0  0  0  0  0  0
   -4.4858   -0.5309   -1.9727 H   0  0  0  0  0  0  0  0  0  0  0  0
   -3.9552   -1.8297   -0.9223 H   0  0  0  0  0  0  0  0  0  0  0  0
   -6.1844   -0.9668   -0.2174 H   0  0  0  0  0  0  0  0  0  0  0  0
   -5.9106    1.3744   -1.0269 H   0  0  0  0  0  0  0  0  0  0  0  0
   -6.3724    1.3564    0.6737 H   0  0  0  0  0  0  0  0  0  0  0  0
   -4.5074    2.9680    0.2919 H   0  0  0  0  0  0  0  0  0  0  0  0
   -2.9363    2.0765    2.0230 H   0  0  0  0  0  0  0  0  0  0  0  0
   -4.6121    1.7755    2.4782 H   0  0  0  0  0  0  0  0  0  0  0  0
   -3.2250   -0.2690    2.8389 H   0  0  0  0  0  0  0  0  0  0  0  0
   -5.6165   -0.5552    2.1829 H   0  0  0  0  0  0  0  0  0  0  0  0
   -4.6328   -1.8599    1.5233 H   0  0  0  0  0  0  0  0  0  0  0  0
   -2.2015   -1.4201    0.8761 H   0  0  0  0  0  0  0  0  0  0  0  0
   -1.5157    0.1782    1.1182 H   0  0  0  0  0  0  0  0  0  0  0  0
   -2.2908    2.1426   -0.4418 H   0  0  0  0  0  0  0  0  0  0  0  0
   -3.4935    1.8334   -1.6860 H   0  0  0  0  0  0  0  0  0  0  0  0
  1  2  2  0
  2  3  1  0
  3  4  1  0
  4  5  1  0
  5  6  1  0
  6  7  1  0
  7  8  1  0
  8  9  1  0
  9 10  1  0
  2 11  1  0
 11 12  1  0
 12 13  1  0
 13 14  2  0
 13 15  1  0
 15 16  1  0
 16 17  1  0
 17 18  1  0
 18 19  1  0
 19 20  1  0
 20 21  1  0
 21 22  1  0
 22 23  1  0
 22 24  1  0
 20 25  1  0
 10  5  1  0
 24 16  1  0
 25 16  1  0
 23 18  1  0
  3 26  1  0
  3 27  1  0
  4 28  1  0
  4 29  1  0
  5 30  1  0
  6 31  1  0
  6 32  1  0
  7 33  1  0
  7 34  1  0
  8 35  1  0
  8 36  1  0
  9 37  1  0
  9 38  1  0
 10 39  1  0
 10 40  1  0
 11 41  1  0
 12 42  1  0
 15 43  1  0
 17 44  1  0
 17 45  1  0
 18 46  1  0
 19 47  1  0
 19 48  1  0
 20 49  1  0
 21 50  1  0
 21 51  1  0
 22 52  1  0
 23 53  1  0
 23 54  1  0
 24 55  1  0
 24 56  1  0
 25 57  1  0
 25 58  1  0
M  END
$$$$
