
     RDKit          3D

 53 56  0  0  0  0  0  0  0  0999 V2000
    7.4757    1.8410    1.1427 C   0  0  0  0  0  0  0  0  0  0  0  0
    6.8037    2.6065    0.0106 C   0  0  0  0  0  0  0  0  0  0  0  0
    5.3063    2.3167   -0.0783 C   0  0  0  0  0  0  0  0  0  0  0  0
    5.1231    0.9352   -0.3883 O   0  0  0  0  0  0  0  0  0  0  0  0
    3.8393    0.4684   -0.4141 C   0  0  0  0  0  0  0  0  0  0  0  0
    3.7222   -0.9121   -0.5647 C   0  0  0  0  0  0  0  0  0  0  0  0
    2.4634   -1.5234   -0.5982 C   0  0  0  0  0  0  0  0  0  0  0  0
    1.2795   -0.7726   -0.4882 C   0  0  0  0  0  0  0  0  0  0  0  0
   -0.0503   -1.4173   -0.5114 C   0  0  0  0  0  0  0  0  0  0  0  0
   -1.1311   -0.6198   -0.5120 N   0  0  0  0  0  0  0  0  0  0  0  0
   -2.3397   -1.2121   -0.5135 C   0  0  0  0  0  0  0  0  0  0  0  0
   -3.4957   -0.3885   -0.4649 N   0  0  0  0  0  0  0  0  0  0  0  0
   -3.8516   -0.1461    0.9570 C   0  0  0  0  0  0  0  0  0  0  0  0
   -4.7061    1.1325    1.1106 C   0  0  0  0  0  0  0  0  0  0  0  0
   -4.0632    2.3741    0.6253 N   0  0  0  0  0  0  0  0  0  0  0  0
   -3.5147    3.1733    1.7172 C   0  0  0  0  0  0  0  0  0  0  0  0
   -3.0144    2.0793   -0.3809 C   0  0  0  0  0  0  0  0  0  0  0  0
   -3.3494    0.8560   -1.2610 C   0  0  0  0  0  0  0  0  0  0  0  0
   -2.4875   -2.6106   -0.5201 C   0  0  0  0  0  0  0  0  0  0  0  0
   -3.7275   -3.2981   -0.5448 C   0  0  0  0  0  0  0  0  0  0  0  0
   -3.7750   -4.6897   -0.5495 C   0  0  0  0  0  0  0  0  0  0  0  0
   -2.5882   -5.4083   -0.5339 C   0  0  0  0  0  0  0  0  0  0  0  0
   -1.3665   -4.7290   -0.5202 C   0  0  0  0  0  0  0  0  0  0  0  0
   -1.2954   -3.3408   -0.5168 C   0  0  0  0  0  0  0  0  0  0  0  0
   -0.0928   -2.7603   -0.5103 N   0  0  0  0  0  0  0  0  0  0  0  0
    1.4229    0.6211   -0.3496 C   0  0  0  0  0  0  0  0  0  0  0  0
    2.6831    1.2365   -0.3125 C   0  0  0  0  0  0  0  0  0  0  0  0
    8.5410    2.0908    1.1868 H   0  0  0  0  0  0  0  0  0  0  0  0
    7.3895    0.7589    0.9990 H   0  0  0  0  0  0  0  0  0  0  0  0
    7.0272    2.0969    2.1081 H   0  0  0  0  0  0  0  0  0  0  0  0
    6.9573    3.6816    0.1603 H   0  0  0  0  0  0  0  0  0  0  0  0
    7.2883    2.3266   -0.9325 H   0  0  0  0  0  0  0  0  0  0  0  0
    4.8296    2.5632    0.8787 H   0  0  0  0  0  0  0  0  0  0  0  0
    4.8765    2.9347   -0.8758 H   0  0  0  0  0  0  0  0  0  0  0  0
    4.6176   -1.5229   -0.6515 H   0  0  0  0  0  0  0  0  0  0  0  0
    2.4151   -2.6051   -0.7117 H   0  0  0  0  0  0  0  0  0  0  0  0
   -2.9568   -0.0459    1.5877 H   0  0  0  0  0  0  0  0  0  0  0  0
   -4.4261   -1.0001    1.3345 H   0  0  0  0  0  0  0  0  0  0  0  0
   -5.6269    0.9995    0.5275 H   0  0  0  0  0  0  0  0  0  0  0  0
   -5.0297    1.2338    2.1544 H   0  0  0  0  0  0  0  0  0  0  0  0
   -2.7363    2.6373    2.2734 H   0  0  0  0  0  0  0  0  0  0  0  0
   -3.0873    4.1067    1.3325 H   0  0  0  0  0  0  0  0  0  0  0  0
   -4.3080    3.4564    2.4189 H   0  0  0  0  0  0  0  0  0  0  0  0
   -2.0485    1.9034    0.1092 H   0  0  0  0  0  0  0  0  0  0  0  0
   -2.8948    2.9585   -1.0243 H   0  0  0  0  0  0  0  0  0  0  0  0
   -4.3077    1.0358   -1.7666 H   0  0  0  0  0  0  0  0  0  0  0  0
   -2.6117    0.7500   -2.0671 H   0  0  0  0  0  0  0  0  0  0  0  0
   -4.6579   -2.7347   -0.5721 H   0  0  0  0  0  0  0  0  0  0  0  0
   -4.7314   -5.2055   -0.5701 H   0  0  0  0  0  0  0  0  0  0  0  0
   -2.6048   -6.4949   -0.5386 H   0  0  0  0  0  0  0  0  0  0  0  0
   -0.4415   -5.3015   -0.5145 H   0  0  0  0  0  0  0  0  0  0  0  0
    0.5382    1.2498   -0.2636 H   0  0  0  0  0  0  0  0  0  0  0  0
    2.7191    2.3152   -0.2066 H   0  0  0  0  0  0  0  0  0  0  0  0
  1  2  1  0
  2  3  1  0
  3  4  1  0
  4  5  1  0
  5  6  2  0
  6  7  1  0
  7  8  2  0
  8  9  1  0
  9 10  2  0
 10 11  1  0
 11 12  1  0
 12 13  1  0
 13 14  1  0
 14 15  1  0
 15 16  1  0
 15 17  1  0
 17 18  1  0
 11 19  2  0
 19 20  1  0
 20 21  2  0
 21 22  1  0
 22 23  2  0
 23 24  1  0
 24 25  2  0
  8 26  1  0
 26 27  2  0
 27  5  1  0
 25  9  1  0
 18 12  1  0
 24 19  1  0
  1 28  1  0
  1 29  1  0
  1 30  1  0
  2 31  1  0
  2 32  1  0
  3 33  1  0
  3 34  1  0
  6 35  1  0
  7 36  1  0
 13 37  1  0
 13 38  1  0
 14 39  1  0
 14 40  1  0
 16 41  1  0
 16 42  1  0
 16 43  1  0
 17 44  1  0
 17 45  1  0
 18 46  1  0
 18 47  1  0
 20 48  1  0
 21 49  1  0
 22 50  1  0
 23 51  1  0
 26 52  1  0
 27 53  1  0
M  END
$$$$
