
     RDKit          3D

 34 34  0  0  0  0  0  0  0  0999 V2000
    5.0916   -1.4400   -1.5523 C   0  0  0  0  0  0  0  0  0  0  0  0
    4.4466   -0.3133   -0.9769 O   0  0  0  0  0  0  0  0  0  0  0  0
    3.2055   -0.5038   -0.4213 C   0  0  0  0  0  0  0  0  0  0  0  0
    2.5114   -1.7179   -0.4352 C   0  0  0  0  0  0  0  0  0  0  0  0
    1.2481   -1.8183    0.1532 C   0  0  0  0  0  0  0  0  0  0  0  0
    0.6620   -0.7087    0.7699 C   0  0  0  0  0  0  0  0  0  0  0  0
   -0.7145   -0.8040    1.3705 C   0  0  0  0  0  0  0  0  0  0  0  0
   -1.7144   -0.3618    0.4281 N   0  0  0  0  0  0  0  0  0  0  0  0
   -3.0277   -0.2615    0.8017 C   0  0  0  0  0  0  0  0  0  0  0  0
   -3.4405   -0.4880    1.9310 O   0  0  0  0  0  0  0  0  0  0  0  0
   -3.9163    0.1481   -0.3078 C   0  0  0  0  0  0  0  0  0  0  0  0
   -5.2317    0.2667   -0.0796 C   0  0  0  0  0  0  0  0  0  0  0  0
   -6.1896    0.6678   -1.1128 C   0  0  0  0  0  0  0  0  0  0  0  0
   -7.3881    0.7866   -0.9366 O   0  0  0  0  0  0  0  0  0  0  0  0
   -5.6290    0.9021   -2.3095 O   0  0  0  0  0  0  0  0  0  0  0  0
    1.3535    0.5129    0.7757 C   0  0  0  0  0  0  0  0  0  0  0  0
    2.6208    0.6233    0.1903 C   0  0  0  0  0  0  0  0  0  0  0  0
    3.3595    1.7804    0.1541 O   0  0  0  0  0  0  0  0  0  0  0  0
    2.8502    2.9107    0.8467 C   0  0  0  0  0  0  0  0  0  0  0  0
    6.0710   -1.1149   -1.9164 H   0  0  0  0  0  0  0  0  0  0  0  0
    5.2582   -2.2247   -0.8070 H   0  0  0  0  0  0  0  0  0  0  0  0
    4.5284   -1.8210   -2.4105 H   0  0  0  0  0  0  0  0  0  0  0  0
    2.9252   -2.6067   -0.8996 H   0  0  0  0  0  0  0  0  0  0  0  0
    0.7245   -2.7721    0.1251 H   0  0  0  0  0  0  0  0  0  0  0  0
   -0.9455   -1.8358    1.6607 H   0  0  0  0  0  0  0  0  0  0  0  0
   -0.7831   -0.1955    2.2804 H   0  0  0  0  0  0  0  0  0  0  0  0
   -1.4364   -0.2247   -0.5342 H   0  0  0  0  0  0  0  0  0  0  0  0
   -3.4788    0.3450   -1.2778 H   0  0  0  0  0  0  0  0  0  0  0  0
   -5.6661    0.0703    0.8956 H   0  0  0  0  0  0  0  0  0  0  0  0
   -6.3909    1.1547   -2.8728 H   0  0  0  0  0  0  0  0  0  0  0  0
    0.8749    1.3686    1.2426 H   0  0  0  0  0  0  0  0  0  0  0  0
    3.5849    3.7168    0.7571 H   0  0  0  0  0  0  0  0  0  0  0  0
    1.9166    3.2612    0.3948 H   0  0  0  0  0  0  0  0  0  0  0  0
    2.7196    2.6977    1.9129 H   0  0  0  0  0  0  0  0  0  0  0  0
  1  2  1  0
  2  3  1  0
  3  4  2  0
  4  5  1  0
  5  6  2  0
  6  7  1  0
  7  8  1  0
  8  9  1  0
  9 10  2  0
  9 11  1  0
 11 12  2  3
 12 13  1  0
 13 14  2  0
 13 15  1  0
  6 16  1  0
 16 17  2  0
 17 18  1  0
 18 19  1  0
 17  3  1  0
  1 20  1  0
  1 21  1  0
  1 22  1  0
  4 23  1  0
  5 24  1  0
  7 25  1  0
  7 26  1  0
  8 27  1  0
 11 28  1  0
 12 29  1  0
 15 30  1  0
 16 31  1  0
 19 32  1  0
 19 33  1  0
 19 34  1  0
M  END
$$$$
