
     RDKit          3D

 49 51  0  0  0  0  0  0  0  0999 V2000
    4.4007    3.6204    0.0228 C   0  0  0  0  0  0  0  0  0  0  0  0
    5.3355    2.4315    0.1626 C   0  0  0  0  0  0  0  0  0  0  0  0
    5.0262    1.1801   -1.1204 S   0  0  0  0  0  0  0  0  0  0  0  0
    3.4717    0.5678   -0.6084 C   0  0  0  0  0  0  0  0  0  0  0  0
    3.1615    0.5322    0.6438 N   0  0  0  0  0  0  0  0  0  0  0  0
    1.9121    0.0651    0.9820 C   0  0  0  0  0  0  0  0  0  0  0  0
    1.4977    0.0887    2.1373 O   0  0  0  0  0  0  0  0  0  0  0  0
    1.0188   -0.4547   -0.1030 C   0  0  0  0  0  0  0  0  0  0  0  0
    1.4233   -0.3628   -1.3811 C   0  0  0  0  0  0  0  0  0  0  0  0
    2.6648    0.1507   -1.6116 N   0  0  0  0  0  0  0  0  0  0  0  0
    0.6393   -0.7868   -2.4258 N   0  0  0  0  0  0  0  0  0  0  0  0
   -0.6293   -0.9869   -2.2243 C   0  0  0  0  0  0  0  0  0  0  0  0
   -1.4793   -1.3899   -3.4047 C   0  0  0  0  0  0  0  0  0  0  0  0
   -1.3288   -0.8026   -0.8906 C   0  0  0  0  0  0  0  0  0  0  0  0
   -2.0002    0.5501   -0.8095 C   0  0  0  0  0  0  0  0  0  0  0  0
   -1.8283    1.4652   -1.6009 O   0  0  0  0  0  0  0  0  0  0  0  0
   -2.8369    0.5937    0.2643 O   0  0  0  0  0  0  0  0  0  0  0  0
   -3.5330    1.8357    0.4811 C   0  0  0  0  0  0  0  0  0  0  0  0
   -2.6269    2.8030    1.2343 C   0  0  0  0  0  0  0  0  0  0  0  0
   -4.7788    1.5136    1.2974 C   0  0  0  0  0  0  0  0  0  0  0  0
   -0.3360   -0.9770    0.2729 C   0  0  0  0  0  0  0  0  0  0  0  0
   -0.2705   -2.4231    0.7588 C   0  0  0  0  0  0  0  0  0  0  0  0
   -0.5527   -2.7150    2.0988 C   0  0  0  0  0  0  0  0  0  0  0  0
   -0.4925   -4.0321    2.5284 C   0  0  0  0  0  0  0  0  0  0  0  0
   -0.1757   -5.0696    1.7261 N   0  0  0  0  0  0  0  0  0  0  0  0
    0.1148   -4.7729    0.4436 C   0  0  0  0  0  0  0  0  0  0  0  0
    0.0837   -3.4880   -0.0796 C   0  0  0  0  0  0  0  0  0  0  0  0
    3.3582    3.3437    0.2056 H   0  0  0  0  0  0  0  0  0  0  0  0
    4.6681    4.3918    0.7518 H   0  0  0  0  0  0  0  0  0  0  0  0
    4.4686    4.0725   -0.9711 H   0  0  0  0  0  0  0  0  0  0  0  0
    5.2624    1.9861    1.1585 H   0  0  0  0  0  0  0  0  0  0  0  0
    6.3689    2.7772    0.0475 H   0  0  0  0  0  0  0  0  0  0  0  0
    2.9634    0.2070   -2.5767 H   0  0  0  0  0  0  0  0  0  0  0  0
   -2.1425   -0.5634   -3.6746 H   0  0  0  0  0  0  0  0  0  0  0  0
   -2.0826   -2.2616   -3.1447 H   0  0  0  0  0  0  0  0  0  0  0  0
   -0.8501   -1.6402   -4.2622 H   0  0  0  0  0  0  0  0  0  0  0  0
   -2.1332   -1.5487   -0.8382 H   0  0  0  0  0  0  0  0  0  0  0  0
   -3.8453    2.2685   -0.4737 H   0  0  0  0  0  0  0  0  0  0  0  0
   -3.1497    3.7358    1.4670 H   0  0  0  0  0  0  0  0  0  0  0  0
   -1.7385    3.0471    0.6442 H   0  0  0  0  0  0  0  0  0  0  0  0
   -2.2678    2.3565    2.1686 H   0  0  0  0  0  0  0  0  0  0  0  0
   -5.4089    0.7942    0.7636 H   0  0  0  0  0  0  0  0  0  0  0  0
   -4.5142    1.0483    2.2531 H   0  0  0  0  0  0  0  0  0  0  0  0
   -5.3673    2.4125    1.4969 H   0  0  0  0  0  0  0  0  0  0  0  0
   -0.7060   -0.3734    1.1128 H   0  0  0  0  0  0  0  0  0  0  0  0
   -0.8013   -1.9348    2.8111 H   0  0  0  0  0  0  0  0  0  0  0  0
   -0.7010   -4.2906    3.5645 H   0  0  0  0  0  0  0  0  0  0  0  0
    0.3875   -5.6217   -0.1769 H   0  0  0  0  0  0  0  0  0  0  0  0
    0.3500   -3.3430   -1.1212 H   0  0  0  0  0  0  0  0  0  0  0  0
  1  2  1  0
  2  3  1  0
  3  4  1  0
  4  5  2  0
  5  6  1  0
  6  7  2  0
  6  8  1  0
  8  9  2  0
  9 10  1  0
  9 11  1  0
 11 12  2  0
 12 13  1  0
 12 14  1  0
 14 15  1  0
 15 16  2  0
 15 17  1  0
 17 18  1  0
 18 19  1  0
 18 20  1  0
 14 21  1  0
 21 22  1  0
 22 23  2  0
 23 24  1  0
 24 25  2  0
 25 26  1  0
 26 27  2  0
 10  4  1  0
 27 22  1  0
 21  8  1  0
  1 28  1  0
  1 29  1  0
  1 30  1  0
  2 31  1  0
  2 32  1  0
 10 33  1  0
 13 34  1  0
 13 35  1  0
 13 36  1  0
 14 37  1  0
 18 38  1  0
 19 39  1  0
 19 40  1  0
 19 41  1  0
 20 42  1  0
 20 43  1  0
 20 44  1  0
 21 45  1  0
 23 46  1  0
 24 47  1  0
 26 48  1  0
 27 49  1  0
M  END
$$$$
