
     RDKit          3D

 44 46  0  0  0  0  0  0  0  0999 V2000
    3.7155    1.9615    1.3876 C   0  0  0  0  0  0  0  0  0  0  0  0
    2.5987    1.2237    0.7288 C   0  0  0  0  0  0  0  0  0  0  0  0
    1.2639    1.5762    0.7237 C   0  0  0  0  0  0  0  0  0  0  0  0
    0.5558    0.6721   -0.1076 C   0  0  0  0  0  0  0  0  0  0  0  0
   -0.8800    0.6851   -0.4299 C   0  0  0  0  0  0  0  0  0  0  0  0
   -1.3609   -0.0581   -1.2888 O   0  0  0  0  0  0  0  0  0  0  0  0
   -1.7620    1.6996    0.3057 C   0  0  0  0  0  0  0  0  0  0  0  0
   -3.1531    1.4982    0.0458 O   0  0  0  0  0  0  0  0  0  0  0  0
   -3.6871    0.4456    0.7251 C   0  0  0  0  0  0  0  0  0  0  0  0
   -3.1081   -0.2118    1.5753 O   0  0  0  0  0  0  0  0  0  0  0  0
   -5.0645    0.2057    0.2676 C   0  0  0  0  0  0  0  0  0  0  0  0
   -5.3178    0.0933   -1.0509 C   0  0  0  0  0  0  0  0  0  0  0  0
   -6.6484   -0.1996   -1.5339 C   0  0  0  0  0  0  0  0  0  0  0  0
   -7.6452   -0.3846   -0.6610 C   0  0  0  0  0  0  0  0  0  0  0  0
   -7.4090   -0.2817    0.6852 N   0  0  0  0  0  0  0  0  0  0  0  0
   -6.1787    0.0167    1.2359 C   0  0  0  0  0  0  0  0  0  0  0  0
   -6.0427    0.1458    2.4474 O   0  0  0  0  0  0  0  0  0  0  0  0
    1.4901   -0.2599   -0.5560 C   0  0  0  0  0  0  0  0  0  0  0  0
    1.2306   -1.5102   -1.3397 C   0  0  0  0  0  0  0  0  0  0  0  0
    2.7514    0.1033   -0.0823 N   0  0  0  0  0  0  0  0  0  0  0  0
    3.9849   -0.5409   -0.3964 C   0  0  0  0  0  0  0  0  0  0  0  0
    4.9171   -0.8155    0.6140 C   0  0  0  0  0  0  0  0  0  0  0  0
    6.1246   -1.4410    0.2956 C   0  0  0  0  0  0  0  0  0  0  0  0
    6.3948   -1.7846   -1.0241 C   0  0  0  0  0  0  0  0  0  0  0  0
    7.5547   -2.3827   -1.3253 F   0  0  0  0  0  0  0  0  0  0  0  0
    5.4795   -1.5177   -2.0354 C   0  0  0  0  0  0  0  0  0  0  0  0
    4.2690   -0.8951   -1.7240 C   0  0  0  0  0  0  0  0  0  0  0  0
    3.4068    2.9853    1.6273 H   0  0  0  0  0  0  0  0  0  0  0  0
    3.9984    1.4788    2.3275 H   0  0  0  0  0  0  0  0  0  0  0  0
    4.5924    2.0376    0.7378 H   0  0  0  0  0  0  0  0  0  0  0  0
    0.8594    2.4311    1.2524 H   0  0  0  0  0  0  0  0  0  0  0  0
   -1.5654    1.6792    1.3837 H   0  0  0  0  0  0  0  0  0  0  0  0
   -1.5086    2.6980   -0.0660 H   0  0  0  0  0  0  0  0  0  0  0  0
   -4.5267    0.1919   -1.7904 H   0  0  0  0  0  0  0  0  0  0  0  0
   -6.8105   -0.2768   -2.6042 H   0  0  0  0  0  0  0  0  0  0  0  0
   -8.6605   -0.6149   -0.9673 H   0  0  0  0  0  0  0  0  0  0  0  0
   -8.1641   -0.4098    1.3485 H   0  0  0  0  0  0  0  0  0  0  0  0
    0.2666   -1.9495   -1.0642 H   0  0  0  0  0  0  0  0  0  0  0  0
    1.9755   -2.2868   -1.1440 H   0  0  0  0  0  0  0  0  0  0  0  0
    1.2139   -1.2920   -2.4118 H   0  0  0  0  0  0  0  0  0  0  0  0
    4.7044   -0.5933    1.6558 H   0  0  0  0  0  0  0  0  0  0  0  0
    6.8509   -1.6707    1.0688 H   0  0  0  0  0  0  0  0  0  0  0  0
    5.7162   -1.7895   -3.0592 H   0  0  0  0  0  0  0  0  0  0  0  0
    3.5780   -0.6619   -2.5303 H   0  0  0  0  0  0  0  0  0  0  0  0
  1  2  1  0
  2  3  2  0
  3  4  1  0
  4  5  1  0
  5  6  2  0
  5  7  1  0
  7  8  1  0
  8  9  1  0
  9 10  2  0
  9 11  1  0
 11 12  2  0
 12 13  1  0
 13 14  2  0
 14 15  1  0
 15 16  1  0
 16 17  2  0
  4 18  2  0
 18 19  1  0
 18 20  1  0
 20 21  1  0
 21 22  2  0
 22 23  1  0
 23 24  2  0
 24 25  1  0
 24 26  1  0
 26 27  2  0
 20  2  1  0
 27 21  1  0
 16 11  1  0
  1 28  1  0
  1 29  1  0
  1 30  1  0
  3 31  1  0
  7 32  1  0
  7 33  1  0
 12 34  1  0
 13 35  1  0
 14 36  1  0
 15 37  1  0
 19 38  1  0
 19 39  1  0
 19 40  1  0
 22 41  1  0
 23 42  1  0
 26 43  1  0
 27 44  1  0
M  END
$$$$
