
     RDKit          3D

 58 61  0  0  0  0  0  0  0  0999 V2000
   -6.8191    3.2963   -1.2208 C   0  0  0  0  0  0  0  0  0  0  0  0
   -5.3625    3.2765   -0.8630 C   0  0  0  0  0  0  0  0  0  0  0  0
   -4.7422    4.4233   -0.3577 C   0  0  0  0  0  0  0  0  0  0  0  0
   -3.3959    4.3949    0.0035 C   0  0  0  0  0  0  0  0  0  0  0  0
   -2.6597    3.2153   -0.1275 C   0  0  0  0  0  0  0  0  0  0  0  0
   -3.2612    2.0475   -0.6177 C   0  0  0  0  0  0  0  0  0  0  0  0
   -2.5205    0.7961   -0.7581 C   0  0  0  0  0  0  0  0  0  0  0  0
   -2.9507   -0.3817   -1.1683 N   0  0  0  0  0  0  0  0  0  0  0  0
   -1.8177   -1.1788   -1.1079 C   0  0  0  0  0  0  0  0  0  0  0  0
   -1.8040   -2.8511   -1.5186 S   0  0  0  0  0  6  0  0  0  0  0  0
   -0.4093   -3.2581   -1.4874 O   0  0  0  0  0  0  0  0  0  0  0  0
   -2.6047   -2.9719   -2.7213 O   0  0  0  0  0  0  0  0  0  0  0  0
   -2.6618   -3.6457   -0.1865 C   0  0  0  0  0  0  0  0  0  0  0  0
   -4.0619   -3.6149   -0.1604 C   0  0  0  0  0  0  0  0  0  0  0  0
   -4.7420   -4.2553    0.8759 C   0  0  0  0  0  0  0  0  0  0  0  0
   -4.0209   -4.9219    1.8625 C   0  0  0  0  0  0  0  0  0  0  0  0
   -4.6771   -5.5367    2.8549 F   0  0  0  0  0  0  0  0  0  0  0  0
   -2.6295   -4.9639    1.8339 C   0  0  0  0  0  0  0  0  0  0  0  0
   -1.9402   -4.3261    0.8016 C   0  0  0  0  0  0  0  0  0  0  0  0
   -0.7481   -0.4502   -0.6340 C   0  0  0  0  0  0  0  0  0  0  0  0
    0.5426   -0.7351   -0.3495 N   0  0  0  0  0  0  0  0  0  0  0  0
    1.5240    0.3340   -0.2376 C   0  0  0  0  0  0  0  0  0  0  0  0
    2.8683   -0.2431    0.2075 C   0  0  0  0  0  0  0  0  0  0  0  0
    3.9198    0.8653    0.3354 C   0  0  0  0  0  0  0  0  0  0  0  0
    5.2022    0.3513    0.8318 N   0  0  0  0  0  0  0  0  0  0  0  0
    5.9649   -0.4186   -0.1761 C   0  0  0  0  0  0  0  0  0  0  0  0
    7.1467    0.3556   -0.7845 C   0  0  0  0  0  0  0  0  0  0  0  0
    8.0968    0.8020    0.1911 O   0  0  0  0  0  0  0  0  0  0  0  0
    7.5091    1.0481    1.4761 C   0  0  0  0  0  0  0  0  0  0  0  0
    6.0299    1.4477    1.3822 C   0  0  0  0  0  0  0  0  0  0  0  0
   -1.1942    0.8222   -0.4146 O   0  0  0  0  0  0  0  0  0  0  0  0
   -4.6182    2.0931   -0.9776 C   0  0  0  0  0  0  0  0  0  0  0  0
   -7.0467    2.5449   -1.9846 H   0  0  0  0  0  0  0  0  0  0  0  0
   -7.1055    4.2713   -1.6290 H   0  0  0  0  0  0  0  0  0  0  0  0
   -7.4249    3.0905   -0.3329 H   0  0  0  0  0  0  0  0  0  0  0  0
   -5.3054    5.3472   -0.2437 H   0  0  0  0  0  0  0  0  0  0  0  0
   -2.9195    5.2920    0.3911 H   0  0  0  0  0  0  0  0  0  0  0  0
   -1.6114    3.2180    0.1627 H   0  0  0  0  0  0  0  0  0  0  0  0
   -4.6224   -3.0971   -0.9371 H   0  0  0  0  0  0  0  0  0  0  0  0
   -5.8268   -4.2422    0.9198 H   0  0  0  0  0  0  0  0  0  0  0  0
   -2.0937   -5.4959    2.6142 H   0  0  0  0  0  0  0  0  0  0  0  0
   -0.8533   -4.3661    0.7771 H   0  0  0  0  0  0  0  0  0  0  0  0
    0.9099   -1.6166   -0.7208 H   0  0  0  0  0  0  0  0  0  0  0  0
    1.1907    1.0807    0.4936 H   0  0  0  0  0  0  0  0  0  0  0  0
    1.6369    0.8335   -1.2074 H   0  0  0  0  0  0  0  0  0  0  0  0
    2.7459   -0.7527    1.1721 H   0  0  0  0  0  0  0  0  0  0  0  0
    3.1883   -1.0058   -0.5116 H   0  0  0  0  0  0  0  0  0  0  0  0
    4.0519    1.3852   -0.6222 H   0  0  0  0  0  0  0  0  0  0  0  0
    3.5296    1.6045    1.0475 H   0  0  0  0  0  0  0  0  0  0  0  0
    6.3638   -1.3015    0.3390 H   0  0  0  0  0  0  0  0  0  0  0  0
    5.3267   -0.7938   -0.9825 H   0  0  0  0  0  0  0  0  0  0  0  0
    7.6841   -0.2800   -1.4954 H   0  0  0  0  0  0  0  0  0  0  0  0
    6.7894    1.2312   -1.3391 H   0  0  0  0  0  0  0  0  0  0  0  0
    8.0861    1.8479    1.9514 H   0  0  0  0  0  0  0  0  0  0  0  0
    7.6342    0.1478    2.0896 H   0  0  0  0  0  0  0  0  0  0  0  0
    5.6574    1.7105    2.3783 H   0  0  0  0  0  0  0  0  0  0  0  0
    5.9525    2.3390    0.7454 H   0  0  0  0  0  0  0  0  0  0  0  0
   -5.1008    1.1918   -1.3555 H   0  0  0  0  0  0  0  0  0  0  0  0
  1  2  1  0
  2  3  2  0
  3  4  1  0
  4  5  2  0
  5  6  1  0
  6  7  1  0
  7  8  2  0
  8  9  1  0
  9 10  1  0
 10 11  2  0
 10 12  2  0
 10 13  1  0
 13 14  2  0
 14 15  1  0
 15 16  2  0
 16 17  1  0
 16 18  1  0
 18 19  2  0
  9 20  2  0
 20 21  1  0
 21 22  1  0
 22 23  1  0
 23 24  1  0
 24 25  1  0
 25 26  1  0
 26 27  1  0
 27 28  1  0
 28 29  1  0
 29 30  1  0
 20 31  1  0
  6 32  2  0
 32  2  1  0
 31  7  1  0
 19 13  1  0
 30 25  1  0
  1 33  1  0
  1 34  1  0
  1 35  1  0
  3 36  1  0
  4 37  1  0
  5 38  1  0
 14 39  1  0
 15 40  1  0
 18 41  1  0
 19 42  1  0
 21 43  1  0
 22 44  1  0
 22 45  1  0
 23 46  1  0
 23 47  1  0
 24 48  1  0
 24 49  1  0
 26 50  1  0
 26 51  1  0
 27 52  1  0
 27 53  1  0
 29 54  1  0
 29 55  1  0
 30 56  1  0
 30 57  1  0
 32 58  1  0
M  END
$$$$
