
     RDKit          3D

 51 54  0  0  0  0  0  0  0  0999 V2000
    6.8363   -3.9813    0.5922 C   0  0  0  0  0  0  0  0  0  0  0  0
    5.8249   -2.9111    0.3061 C   0  0  0  0  0  0  0  0  0  0  0  0
    4.4597   -3.2164    0.2698 C   0  0  0  0  0  0  0  0  0  0  0  0
    3.5185   -2.2271   -0.0271 C   0  0  0  0  0  0  0  0  0  0  0  0
    3.9292   -0.9177   -0.3079 C   0  0  0  0  0  0  0  0  0  0  0  0
    2.9230    0.1627   -0.6176 C   0  0  0  0  0  0  0  0  0  0  0  0
    2.8448    1.1251    0.4719 N   0  0  0  0  0  0  0  0  0  0  0  0
    2.0751    2.5842    0.2357 S   0  0  0  0  0  6  0  0  0  0  0  0
    2.6453    3.2096   -0.9364 O   0  0  0  0  0  0  0  0  0  0  0  0
    2.0386    3.2504    1.5181 O   0  0  0  0  0  0  0  0  0  0  0  0
    0.4144    2.0867   -0.1570 C   0  0  0  0  0  0  0  0  0  0  0  0
   -0.4485    1.7029    0.8816 C   0  0  0  0  0  0  0  0  0  0  0  0
   -1.7650    1.3113    0.6008 C   0  0  0  0  0  0  0  0  0  0  0  0
   -2.2020    1.3112   -0.7135 C   0  0  0  0  0  0  0  0  0  0  0  0
   -1.3353    1.7277   -1.7342 C   0  0  0  0  0  0  0  0  0  0  0  0
   -0.0261    2.1151   -1.4804 C   0  0  0  0  0  0  0  0  0  0  0  0
   -1.9940    1.6605   -3.0758 C   0  0  0  0  0  0  0  0  0  0  0  0
   -3.4428    1.3686   -2.6899 C   0  0  0  0  0  0  0  0  0  0  0  0
   -3.4528    0.9870   -1.2687 N   0  0  0  0  0  0  0  0  0  0  0  0
   -4.6280    0.4859   -0.7161 C   0  0  0  0  0  0  0  0  0  0  0  0
   -5.6544    0.4503   -1.4160 O   0  0  0  0  0  0  0  0  0  0  0  0
   -4.6362   -0.0687    0.7276 C   0  0  0  0  0  0  0  0  0  0  0  0
   -5.8113   -1.0199    1.1181 C   0  0  0  0  0  0  0  0  0  0  0  0
   -5.7804   -0.3792    2.5168 C   0  0  0  0  0  0  0  0  0  0  0  0
   -5.1698    0.8675    1.8522 C   0  0  0  0  0  0  0  0  0  0  0  0
    5.2977   -0.6164   -0.2800 C   0  0  0  0  0  0  0  0  0  0  0  0
    6.2372   -1.6058    0.0175 C   0  0  0  0  0  0  0  0  0  0  0  0
    7.1434   -4.4647   -0.3403 H   0  0  0  0  0  0  0  0  0  0  0  0
    7.7214   -3.5615    1.0818 H   0  0  0  0  0  0  0  0  0  0  0  0
    6.4227   -4.7399    1.2650 H   0  0  0  0  0  0  0  0  0  0  0  0
    4.1200   -4.2294    0.4748 H   0  0  0  0  0  0  0  0  0  0  0  0
    2.4636   -2.4917   -0.0399 H   0  0  0  0  0  0  0  0  0  0  0  0
    1.9387   -0.2934   -0.7703 H   0  0  0  0  0  0  0  0  0  0  0  0
    3.2092    0.6509   -1.5557 H   0  0  0  0  0  0  0  0  0  0  0  0
    2.8687    0.7833    1.4299 H   0  0  0  0  0  0  0  0  0  0  0  0
   -0.1048    1.7194    1.9147 H   0  0  0  0  0  0  0  0  0  0  0  0
   -2.3994    1.0502    1.4344 H   0  0  0  0  0  0  0  0  0  0  0  0
    0.6273    2.4320   -2.2888 H   0  0  0  0  0  0  0  0  0  0  0  0
   -1.5705    0.8388   -3.6625 H   0  0  0  0  0  0  0  0  0  0  0  0
   -1.9072    2.5973   -3.6333 H   0  0  0  0  0  0  0  0  0  0  0  0
   -4.0708    2.2613   -2.8024 H   0  0  0  0  0  0  0  0  0  0  0  0
   -3.8759    0.5709   -3.3039 H   0  0  0  0  0  0  0  0  0  0  0  0
   -3.6934   -0.5703    0.9823 H   0  0  0  0  0  0  0  0  0  0  0  0
   -5.5842   -2.0890    1.0877 H   0  0  0  0  0  0  0  0  0  0  0  0
   -6.7495   -0.8433    0.5793 H   0  0  0  0  0  0  0  0  0  0  0  0
   -5.1037   -0.8816    3.2175 H   0  0  0  0  0  0  0  0  0  0  0  0
   -6.7510   -0.2359    2.9977 H   0  0  0  0  0  0  0  0  0  0  0  0
   -5.9147    1.5968    1.5117 H   0  0  0  0  0  0  0  0  0  0  0  0
   -4.4200    1.3889    2.4516 H   0  0  0  0  0  0  0  0  0  0  0  0
    5.6377    0.3967   -0.4889 H   0  0  0  0  0  0  0  0  0  0  0  0
    7.2942   -1.3487    0.0253 H   0  0  0  0  0  0  0  0  0  0  0  0
  1  2  1  0
  2  3  2  0
  3  4  1  0
  4  5  2  0
  5  6  1  0
  6  7  1  0
  7  8  1  0
  8  9  2  0
  8 10  2  0
  8 11  1  0
 11 12  2  0
 12 13  1  0
 13 14  2  0
 14 15  1  0
 15 16  2  0
 15 17  1  0
 17 18  1  0
 18 19  1  0
 19 20  1  0
 20 21  2  0
 20 22  1  0
 22 23  1  0
 23 24  1  0
 24 25  1  0
  5 26  1  0
 26 27  2  0
 27  2  1  0
 16 11  1  0
 25 22  1  0
 19 14  1  0
  1 28  1  0
  1 29  1  0
  1 30  1  0
  3 31  1  0
  4 32  1  0
  6 33  1  0
  6 34  1  0
  7 35  1  0
 12 36  1  0
 13 37  1  0
 16 38  1  0
 17 39  1  0
 17 40  1  0
 18 41  1  0
 18 42  1  0
 22 43  1  0
 23 44  1  0
 23 45  1  0
 24 46  1  0
 24 47  1  0
 25 48  1  0
 25 49  1  0
 26 50  1  0
 27 51  1  0
M  END
$$$$
