
     RDKit          3D

 49 52  0  0  0  0  0  0  0  0999 V2000
   -5.3387   -2.5479    1.6102 C   0  0  0  0  0  0  0  0  0  0  0  0
   -4.8961   -1.2211    1.0631 C   0  0  0  0  0  0  0  0  0  0  0  0
   -5.0052   -0.9382   -0.3053 C   0  0  0  0  0  0  0  0  0  0  0  0
   -4.6208    0.3083   -0.8007 C   0  0  0  0  0  0  0  0  0  0  0  0
   -4.1163    1.2734    0.0757 C   0  0  0  0  0  0  0  0  0  0  0  0
   -3.6668    2.8700   -0.5492 S   0  0  0  0  0  6  0  0  0  0  0  0
   -4.3680    3.0866   -1.8032 O   0  0  0  0  0  0  0  0  0  0  0  0
   -3.7007    3.8301    0.5374 O   0  0  0  0  0  0  0  0  0  0  0  0
   -1.9959    2.7590   -0.9798 C   0  0  0  0  0  0  0  0  0  0  0  0
   -1.2292    1.6503   -0.6284 N   0  0  0  0  0  0  0  0  0  0  0  0
    0.0094    1.7939   -1.0458 C   0  0  0  0  0  0  0  0  0  0  0  0
    1.0365    0.9401   -0.8603 N   0  0  0  0  0  0  0  0  0  0  0  0
    1.1323   -0.2057   -0.0343 C   0  0  0  0  0  0  0  0  0  0  0  0
    0.0468   -0.8333    0.5868 C   0  0  0  0  0  0  0  0  0  0  0  0
    0.2395   -1.9612    1.3914 C   0  0  0  0  0  0  0  0  0  0  0  0
    1.5181   -2.4818    1.5755 C   0  0  0  0  0  0  0  0  0  0  0  0
    2.6128   -1.8810    0.9512 C   0  0  0  0  0  0  0  0  0  0  0  0
    2.4371   -0.7433    0.1471 C   0  0  0  0  0  0  0  0  0  0  0  0
    3.5136   -0.0952   -0.5139 N   0  0  0  0  0  0  0  0  0  0  0  0
    4.1121   -0.9124   -1.6026 C   0  0  0  0  0  0  0  0  0  0  0  0
    5.5631   -1.3086   -1.2862 C   0  0  0  0  0  0  0  0  0  0  0  0
    6.4234   -0.1841   -1.0254 O   0  0  0  0  0  0  0  0  0  0  0  0
    5.7545    0.9120   -0.3784 C   0  0  0  0  0  0  0  0  0  0  0  0
    4.5110    0.4832    0.4181 C   0  0  0  0  0  0  0  0  0  0  0  0
    0.3003    3.2672   -1.9131 S   0  0  0  0  0  0  0  0  0  0  0  0
   -1.3095    3.7343   -1.6538 C   0  0  0  0  0  0  0  0  0  0  0  0
   -1.8350    5.2607   -2.2221 Cl  0  0  0  0  0  0  0  0  0  0  0  0
   -4.0129    1.0105    1.4439 C   0  0  0  0  0  0  0  0  0  0  0  0
   -4.3998   -0.2389    1.9328 C   0  0  0  0  0  0  0  0  0  0  0  0
   -4.5412   -2.9959    2.2125 H   0  0  0  0  0  0  0  0  0  0  0  0
   -5.5843   -3.2531    0.8082 H   0  0  0  0  0  0  0  0  0  0  0  0
   -6.2297   -2.4143    2.2320 H   0  0  0  0  0  0  0  0  0  0  0  0
   -5.4025   -1.6821   -0.9938 H   0  0  0  0  0  0  0  0  0  0  0  0
   -4.7196    0.5158   -1.8640 H   0  0  0  0  0  0  0  0  0  0  0  0
    1.9726    1.2151   -1.1569 H   0  0  0  0  0  0  0  0  0  0  0  0
   -0.9647   -0.4630    0.4549 H   0  0  0  0  0  0  0  0  0  0  0  0
   -0.6145   -2.4311    1.8735 H   0  0  0  0  0  0  0  0  0  0  0  0
    1.6628   -3.3581    2.2031 H   0  0  0  0  0  0  0  0  0  0  0  0
    3.6005   -2.3075    1.0980 H   0  0  0  0  0  0  0  0  0  0  0  0
    4.1059   -0.2865   -2.5042 H   0  0  0  0  0  0  0  0  0  0  0  0
    3.5145   -1.8057   -1.8305 H   0  0  0  0  0  0  0  0  0  0  0  0
    5.9923   -1.8593   -2.1324 H   0  0  0  0  0  0  0  0  0  0  0  0
    5.6032   -1.9718   -0.4118 H   0  0  0  0  0  0  0  0  0  0  0  0
    6.4817    1.3973    0.2822 H   0  0  0  0  0  0  0  0  0  0  0  0
    5.4813    1.6329   -1.1580 H   0  0  0  0  0  0  0  0  0  0  0  0
    4.0756    1.3556    0.9190 H   0  0  0  0  0  0  0  0  0  0  0  0
    4.8111   -0.2410    1.1854 H   0  0  0  0  0  0  0  0  0  0  0  0
   -3.6385    1.7655    2.1324 H   0  0  0  0  0  0  0  0  0  0  0  0
   -4.3222   -0.4398    2.9996 H   0  0  0  0  0  0  0  0  0  0  0  0
  1  2  1  0
  2  3  2  0
  3  4  1  0
  4  5  2  0
  5  6  1  0
  6  7  2  0
  6  8  2  0
  6  9  1  0
  9 10  1  0
 10 11  2  0
 11 12  1  0
 12 13  1  0
 13 14  2  0
 14 15  1  0
 15 16  2  0
 16 17  1  0
 17 18  2  0
 18 19  1  0
 19 20  1  0
 20 21  1  0
 21 22  1  0
 22 23  1  0
 23 24  1  0
 11 25  1  0
 25 26  1  0
 26 27  1  0
  5 28  1  0
 28 29  2  0
 29  2  1  0
 26  9  2  0
 18 13  1  0
 24 19  1  0
  1 30  1  0
  1 31  1  0
  1 32  1  0
  3 33  1  0
  4 34  1  0
 12 35  1  0
 14 36  1  0
 15 37  1  0
 16 38  1  0
 17 39  1  0
 20 40  1  0
 20 41  1  0
 21 42  1  0
 21 43  1  0
 23 44  1  0
 23 45  1  0
 24 46  1  0
 24 47  1  0
 28 48  1  0
 29 49  1  0
M  END
$$$$
