
     RDKit          3D

 42 44  0  0  0  0  0  0  0  0999 V2000
   -2.6063    1.9976   -3.9112 C   0  0  0  0  0  0  0  0  0  0  0  0
   -3.6663    1.5047   -3.0992 O   0  0  0  0  0  0  0  0  0  0  0  0
   -3.3062    0.8770   -1.9326 C   0  0  0  0  0  0  0  0  0  0  0  0
   -2.0268    0.8540   -1.3786 C   0  0  0  0  0  0  0  0  0  0  0  0
   -1.7916    0.1613   -0.1817 C   0  0  0  0  0  0  0  0  0  0  0  0
   -0.4600    0.1295    0.4449 C   0  0  0  0  0  0  0  0  0  0  0  0
    0.6897   -0.3053   -0.1144 C   0  0  0  0  0  0  0  0  0  0  0  0
    0.7264   -0.8386   -1.4392 C   0  0  0  0  0  0  0  0  0  0  0  0
    0.7979   -1.2201   -2.5335 N   0  0  0  0  0  0  0  0  0  0  0  0
    1.8563   -0.2954    0.7161 C   0  0  0  0  0  0  0  0  0  0  0  0
    1.9155   -0.5429    2.0148 N   0  0  0  0  0  0  0  0  0  0  0  0
    3.2350   -0.4625    2.3687 C   0  0  0  0  0  0  0  0  0  0  0  0
    3.8356   -0.6717    3.6188 C   0  0  0  0  0  0  0  0  0  0  0  0
    5.2236   -0.5335    3.7315 C   0  0  0  0  0  0  0  0  0  0  0  0
    5.9967   -0.1929    2.6213 C   0  0  0  0  0  0  0  0  0  0  0  0
    5.4122    0.0231    1.3675 C   0  0  0  0  0  0  0  0  0  0  0  0
    4.0208   -0.1201    1.2756 C   0  0  0  0  0  0  0  0  0  0  0  0
    3.1201    0.0226    0.2389 N   0  0  0  0  0  0  0  0  0  0  0  0
    3.4799    0.4901   -1.0819 C   0  0  0  0  0  0  0  0  0  0  0  0
   -2.8537   -0.4821    0.4753 C   0  0  0  0  0  0  0  0  0  0  0  0
   -4.1437   -0.4581   -0.0602 C   0  0  0  0  0  0  0  0  0  0  0  0
   -5.2420   -1.0526    0.5009 O   0  0  0  0  0  0  0  0  0  0  0  0
   -5.0485   -1.7994    1.6932 C   0  0  0  0  0  0  0  0  0  0  0  0
   -4.3523    0.2262   -1.2627 C   0  0  0  0  0  0  0  0  0  0  0  0
   -5.6122    0.2663   -1.8120 O   0  0  0  0  0  0  0  0  0  0  0  0
   -3.0450    2.3717   -4.8412 H   0  0  0  0  0  0  0  0  0  0  0  0
   -1.9007    1.2016   -4.1718 H   0  0  0  0  0  0  0  0  0  0  0  0
   -2.0970    2.8347   -3.4230 H   0  0  0  0  0  0  0  0  0  0  0  0
   -1.2062    1.3775   -1.8572 H   0  0  0  0  0  0  0  0  0  0  0  0
   -0.4556    0.4695    1.4820 H   0  0  0  0  0  0  0  0  0  0  0  0
    3.2277   -0.9386    4.4761 H   0  0  0  0  0  0  0  0  0  0  0  0
    5.7014   -0.6959    4.6948 H   0  0  0  0  0  0  0  0  0  0  0  0
    7.0749   -0.0929    2.7316 H   0  0  0  0  0  0  0  0  0  0  0  0
    6.0244    0.2857    0.5115 H   0  0  0  0  0  0  0  0  0  0  0  0
    4.4040    1.0708   -1.0294 H   0  0  0  0  0  0  0  0  0  0  0  0
    3.6249   -0.3797   -1.7267 H   0  0  0  0  0  0  0  0  0  0  0  0
    2.6930    1.1434   -1.4655 H   0  0  0  0  0  0  0  0  0  0  0  0
   -2.6483   -0.9997    1.4077 H   0  0  0  0  0  0  0  0  0  0  0  0
   -6.0151   -2.2219    1.9842 H   0  0  0  0  0  0  0  0  0  0  0  0
   -4.7078   -1.1555    2.5105 H   0  0  0  0  0  0  0  0  0  0  0  0
   -4.3569   -2.6327    1.5306 H   0  0  0  0  0  0  0  0  0  0  0  0
   -5.5180    0.7847   -2.6327 H   0  0  0  0  0  0  0  0  0  0  0  0
  1  2  1  0
  2  3  1  0
  3  4  2  0
  4  5  1  0
  5  6  1  0
  6  7  2  3
  7  8  1  0
  8  9  3  0
  7 10  1  0
 10 11  2  0
 11 12  1  0
 12 13  2  0
 13 14  1  0
 14 15  2  0
 15 16  1  0
 16 17  2  0
 17 18  1  0
 18 19  1  0
  5 20  2  0
 20 21  1  0
 21 22  1  0
 22 23  1  0
 21 24  2  0
 24 25  1  0
 24  3  1  0
 18 10  1  0
 17 12  1  0
  1 26  1  0
  1 27  1  0
  1 28  1  0
  4 29  1  0
  6 30  1  0
 13 31  1  0
 14 32  1  0
 15 33  1  0
 16 34  1  0
 19 35  1  0
 19 36  1  0
 19 37  1  0
 20 38  1  0
 23 39  1  0
 23 40  1  0
 23 41  1  0
 25 42  1  0
M  END
$$$$
