
     RDKit          3D

 36 38  0  0  0  0  0  0  0  0999 V2000
   -2.4047    1.0387    0.4773 C   0  0  0  0  0  0  0  0  0  0  0  0
   -1.9519   -0.3661    0.8255 C   0  0  0  0  0  0  0  0  0  0  0  0
   -0.7194   -0.7721    0.6948 N   0  0  0  0  0  0  0  0  0  0  0  0
    0.1967    0.1050    0.2018 N   0  0  0  0  0  0  0  0  0  0  0  0
    1.5268   -0.3495    0.0590 C   0  0  0  0  0  0  0  0  0  0  0  0
    1.9040   -1.5170    0.6464 N   0  0  0  0  0  0  0  0  0  0  0  0
    3.1519   -1.9644    0.4838 C   0  0  0  0  0  0  0  0  0  0  0  0
    4.1308   -1.3898   -0.2108 N   0  0  0  0  0  0  0  0  0  0  0  0
    3.7500   -0.2266   -0.7616 C   0  0  0  0  0  0  0  0  0  0  0  0
    4.8622    0.6664   -1.6821 S   0  0  0  0  0  0  0  0  0  0  0  0
    3.7296    1.9062   -1.9828 C   0  0  0  0  0  0  0  0  0  0  0  0
    4.1419    3.0856   -2.8045 C   0  0  0  0  0  0  0  0  0  0  0  0
    2.5033    1.6566   -1.3782 C   0  0  0  0  0  0  0  0  0  0  0  0
    1.3427    2.6007   -1.4394 C   0  0  0  0  0  0  0  0  0  0  0  0
    2.5017    0.3740   -0.6777 C   0  0  0  0  0  0  0  0  0  0  0  0
   -2.9796   -1.3287    1.3345 C   0  0  0  0  0  0  0  0  0  0  0  0
   -2.5908   -2.5789    1.8068 C   0  0  0  0  0  0  0  0  0  0  0  0
   -3.5742   -3.4527    2.2620 C   0  0  0  0  0  0  0  0  0  0  0  0
   -4.9056   -3.0546    2.2296 C   0  0  0  0  0  0  0  0  0  0  0  0
   -5.2020   -1.7927    1.7400 C   0  0  0  0  0  0  0  0  0  0  0  0
   -4.2731   -0.9209    1.2902 N   0  0  0  0  0  0  0  0  0  0  0  0
   -2.4142    1.1522   -0.6107 H   0  0  0  0  0  0  0  0  0  0  0  0
   -1.7126    1.7684    0.9089 H   0  0  0  0  0  0  0  0  0  0  0  0
   -3.3992    1.2725    0.8622 H   0  0  0  0  0  0  0  0  0  0  0  0
   -0.0842    0.7104   -0.5599 H   0  0  0  0  0  0  0  0  0  0  0  0
    3.3906   -2.9040    0.9709 H   0  0  0  0  0  0  0  0  0  0  0  0
    5.1209    2.9472   -3.2748 H   0  0  0  0  0  0  0  0  0  0  0  0
    3.4151    3.2641   -3.6039 H   0  0  0  0  0  0  0  0  0  0  0  0
    4.1929    3.9816   -2.1771 H   0  0  0  0  0  0  0  0  0  0  0  0
    0.9268    2.7668   -0.4407 H   0  0  0  0  0  0  0  0  0  0  0  0
    0.5608    2.1979   -2.0909 H   0  0  0  0  0  0  0  0  0  0  0  0
    1.6311    3.5807   -1.8317 H   0  0  0  0  0  0  0  0  0  0  0  0
   -1.5446   -2.8701    1.8225 H   0  0  0  0  0  0  0  0  0  0  0  0
   -3.3006   -4.4348    2.6375 H   0  0  0  0  0  0  0  0  0  0  0  0
   -5.6943   -3.7128    2.5773 H   0  0  0  0  0  0  0  0  0  0  0  0
   -6.2287   -1.4393    1.6957 H   0  0  0  0  0  0  0  0  0  0  0  0
  1  2  1  0
  2  3  2  3
  3  4  1  0
  4  5  1  0
  5  6  2  0
  6  7  1  0
  7  8  2  0
  8  9  1  0
  9 10  1  0
 10 11  1  0
 11 12  1  0
 11 13  2  0
 13 14  1  0
 13 15  1  0
  2 16  1  0
 16 17  2  0
 17 18  1  0
 18 19  2  0
 19 20  1  0
 20 21  2  0
 15  5  1  0
 21 16  1  0
 15  9  2  0
  1 22  1  0
  1 23  1  0
  1 24  1  0
  4 25  1  0
  7 26  1  0
 12 27  1  0
 12 28  1  0
 12 29  1  0
 14 30  1  0
 14 31  1  0
 14 32  1  0
 17 33  1  0
 18 34  1  0
 19 35  1  0
 20 36  1  0
M  END
$$$$
