
     RDKit          3D

 36 38  0  0  0  0  0  0  0  0999 V2000
    5.8979   -0.0015    0.4901 C   0  0  0  0  0  0  0  0  0  0  0  0
    4.4496   -0.3629    0.3320 C   0  0  0  0  0  0  0  0  0  0  0  0
    3.6490   -0.5845    1.4617 C   0  0  0  0  0  0  0  0  0  0  0  0
    2.2950   -0.8928    1.3211 C   0  0  0  0  0  0  0  0  0  0  0  0
    1.7380   -0.9634    0.0428 C   0  0  0  0  0  0  0  0  0  0  0  0
    0.0197   -1.3472   -0.1623 S   0  0  0  0  0  6  0  0  0  0  0  0
   -0.0757   -2.4159   -1.1319 O   0  0  0  0  0  0  0  0  0  0  0  0
   -0.5934   -1.4643    1.1433 O   0  0  0  0  0  0  0  0  0  0  0  0
   -0.6005    0.0718   -0.8828 N   0  0  0  0  0  0  0  0  0  0  0  0
   -0.6335    1.2587    0.0304 C   0  0  0  0  0  0  0  0  0  0  0  0
   -1.9160    1.5087    0.8250 C   0  0  0  0  0  0  0  0  0  0  0  0
   -1.9672    2.3993    1.6749 O   0  0  0  0  0  0  0  0  0  0  0  0
   -3.0256    0.7843    0.4722 N   0  0  0  0  0  0  0  0  0  0  0  0
   -4.3677    1.1294    0.8520 C   0  0  0  0  0  0  0  0  0  0  0  0
   -5.2015    0.1364    0.0660 C   0  0  0  0  0  0  0  0  0  0  0  0
   -4.3541   -0.2571   -1.0368 O   0  0  0  0  0  0  0  0  0  0  0  0
   -3.0299   -0.2865   -0.4869 C   0  0  0  0  0  0  0  0  0  0  0  0
   -1.9364   -0.1182   -1.5441 C   0  0  0  0  0  0  0  0  0  0  0  0
    2.5203   -0.7386   -1.0926 C   0  0  0  0  0  0  0  0  0  0  0  0
    3.8732   -0.4315   -0.9441 C   0  0  0  0  0  0  0  0  0  0  0  0
    6.0053    1.0846    0.5705 H   0  0  0  0  0  0  0  0  0  0  0  0
    6.3210   -0.4670    1.3864 H   0  0  0  0  0  0  0  0  0  0  0  0
    6.4839   -0.3533   -0.3655 H   0  0  0  0  0  0  0  0  0  0  0  0
    4.0794   -0.5218    2.4594 H   0  0  0  0  0  0  0  0  0  0  0  0
    1.6898   -1.0720    2.2070 H   0  0  0  0  0  0  0  0  0  0  0  0
    0.2000    1.2283    0.7389 H   0  0  0  0  0  0  0  0  0  0  0  0
   -0.4737    2.1435   -0.5987 H   0  0  0  0  0  0  0  0  0  0  0  0
   -4.5085    1.0588    1.9340 H   0  0  0  0  0  0  0  0  0  0  0  0
   -4.5608    2.1590    0.5327 H   0  0  0  0  0  0  0  0  0  0  0  0
   -5.4276   -0.7576    0.6580 H   0  0  0  0  0  0  0  0  0  0  0  0
   -6.1353    0.5621   -0.3101 H   0  0  0  0  0  0  0  0  0  0  0  0
   -2.9162   -1.2316    0.0560 H   0  0  0  0  0  0  0  0  0  0  0  0
   -2.1407    0.7614   -2.1685 H   0  0  0  0  0  0  0  0  0  0  0  0
   -1.9191   -0.9671   -2.2355 H   0  0  0  0  0  0  0  0  0  0  0  0
    2.0830   -0.8010   -2.0867 H   0  0  0  0  0  0  0  0  0  0  0  0
    4.4785   -0.2503   -1.8301 H   0  0  0  0  0  0  0  0  0  0  0  0
  1  2  1  0
  2  3  2  0
  3  4  1  0
  4  5  2  0
  5  6  1  0
  6  7  2  0
  6  8  2  0
  6  9  1  0
  9 10  1  0
 10 11  1  0
 11 12  2  0
 11 13  1  0
 13 14  1  0
 14 15  1  0
 15 16  1  0
 16 17  1  0
 17 18  1  0
  5 19  1  0
 19 20  2  0
 20  2  1  0
 18  9  1  0
 17 13  1  0
  1 21  1  0
  1 22  1  0
  1 23  1  0
  3 24  1  0
  4 25  1  0
 10 26  1  0
 10 27  1  0
 14 28  1  0
 14 29  1  0
 15 30  1  0
 15 31  1  0
 17 32  1  0
 18 33  1  0
 18 34  1  0
 19 35  1  0
 20 36  1  0
M  END
$$$$
