
     RDKit          3D

 45 47  0  0  0  0  0  0  0  0999 V2000
   -5.1951   -0.8045    1.4319 C   0  0  0  0  0  0  0  0  0  0  0  0
   -3.8214   -0.3848    1.1635 N   0  0  0  0  0  0  0  0  0  0  0  0
   -2.9942   -1.4649    0.5952 C   0  0  0  0  0  0  0  0  0  0  0  0
   -3.3810   -1.5028   -0.8874 C   0  0  0  0  0  0  0  0  0  0  0  0
   -3.8729   -0.0858   -1.1946 C   0  0  0  0  0  0  0  0  0  0  0  0
   -3.7366    0.6673    0.1336 C   0  0  0  0  0  0  0  0  0  0  0  0
   -2.3486    1.3134    0.2918 C   0  0  0  0  0  0  0  0  0  0  0  0
   -1.2103    0.2967    0.1082 C   0  0  0  0  0  0  0  0  0  0  0  0
    0.0182    0.8046    0.6612 O   0  0  0  0  0  0  0  0  0  0  0  0
    0.7174    1.6680   -0.1257 C   0  0  0  0  0  0  0  0  0  0  0  0
    0.3526    2.0810   -1.2197 O   0  0  0  0  0  0  0  0  0  0  0  0
    1.9744    2.1256    0.5658 C   0  0  0  0  0  0  0  0  0  0  0  0
    2.8851    0.9684    0.9726 C   0  0  0  0  0  0  0  0  0  0  0  0
    3.3643    0.1629   -0.1545 N   0  0  0  0  0  0  0  0  0  0  0  0
    4.1456   -0.9937    0.2888 C   0  0  0  0  0  0  0  0  0  0  0  0
    4.7915   -1.4745   -0.9994 C   0  0  0  0  0  0  0  0  0  0  0  0
    4.9352   -0.2232   -1.8575 C   0  0  0  0  0  0  0  0  0  0  0  0
    4.2477    0.8860   -1.0719 C   0  0  0  0  0  0  0  0  0  0  0  0
   -1.5306   -1.0366    0.8017 C   0  0  0  0  0  0  0  0  0  0  0  0
   -5.2041   -1.5925    2.1931 H   0  0  0  0  0  0  0  0  0  0  0  0
   -5.7697    0.0336    1.8414 H   0  0  0  0  0  0  0  0  0  0  0  0
   -5.7254   -1.1795    0.5506 H   0  0  0  0  0  0  0  0  0  0  0  0
   -3.1565   -2.4299    1.0884 H   0  0  0  0  0  0  0  0  0  0  0  0
   -2.5488   -1.7961   -1.5356 H   0  0  0  0  0  0  0  0  0  0  0  0
   -4.1964   -2.2163   -1.0560 H   0  0  0  0  0  0  0  0  0  0  0  0
   -3.3017    0.3781   -2.0054 H   0  0  0  0  0  0  0  0  0  0  0  0
   -4.9219   -0.1245   -1.5112 H   0  0  0  0  0  0  0  0  0  0  0  0
   -4.5050    1.4397    0.2503 H   0  0  0  0  0  0  0  0  0  0  0  0
   -2.2334    2.1283   -0.4330 H   0  0  0  0  0  0  0  0  0  0  0  0
   -2.2666    1.7844    1.2809 H   0  0  0  0  0  0  0  0  0  0  0  0
   -1.0628    0.0922   -0.9604 H   0  0  0  0  0  0  0  0  0  0  0  0
    2.5007    2.8234   -0.0949 H   0  0  0  0  0  0  0  0  0  0  0  0
    1.6769    2.6997    1.4512 H   0  0  0  0  0  0  0  0  0  0  0  0
    3.7330    1.3732    1.5407 H   0  0  0  0  0  0  0  0  0  0  0  0
    2.3352    0.3150    1.6619 H   0  0  0  0  0  0  0  0  0  0  0  0
    3.5173   -1.7699    0.7369 H   0  0  0  0  0  0  0  0  0  0  0  0
    4.9201   -0.7067    1.0115 H   0  0  0  0  0  0  0  0  0  0  0  0
    5.7562   -1.9579   -0.8160 H   0  0  0  0  0  0  0  0  0  0  0  0
    4.1439   -2.1988   -1.5081 H   0  0  0  0  0  0  0  0  0  0  0  0
    4.4503   -0.3781   -2.8281 H   0  0  0  0  0  0  0  0  0  0  0  0
    5.9872    0.0179   -2.0421 H   0  0  0  0  0  0  0  0  0  0  0  0
    4.9994    1.4733   -0.5293 H   0  0  0  0  0  0  0  0  0  0  0  0
    3.6969    1.5561   -1.7391 H   0  0  0  0  0  0  0  0  0  0  0  0
   -0.8515   -1.8105    0.4221 H   0  0  0  0  0  0  0  0  0  0  0  0
   -1.3145   -0.9575    1.8760 H   0  0  0  0  0  0  0  0  0  0  0  0
  1  2  1  0
  2  3  1  0
  3  4  1  0
  4  5  1  0
  5  6  1  0
  6  7  1  0
  7  8  1  0
  8  9  1  0
  9 10  1  0
 10 11  2  0
 10 12  1  0
 12 13  1  0
 13 14  1  0
 14 15  1  0
 15 16  1  0
 16 17  1  0
 17 18  1  0
  8 19  1  0
  6  2  1  0
 18 14  1  0
 19  3  1  0
  1 20  1  0
  1 21  1  0
  1 22  1  0
  3 23  1  0
  4 24  1  0
  4 25  1  0
  5 26  1  0
  5 27  1  0
  6 28  1  0
  7 29  1  0
  7 30  1  0
  8 31  1  0
 12 32  1  0
 12 33  1  0
 13 34  1  0
 13 35  1  0
 15 36  1  0
 15 37  1  0
 16 38  1  0
 16 39  1  0
 17 40  1  0
 17 41  1  0
 18 42  1  0
 18 43  1  0
 19 44  1  0
 19 45  1  0
M  END
$$$$
