
     RDKit          3D

 69 71  0  0  0  0  0  0  0  0999 V2000
    8.6517    3.4624    0.6023 C   0  0  0  0  0  0  0  0  0  0  0  0
    8.4587    2.0287    0.1306 C   0  0  0  0  0  0  0  0  0  0  0  0
    7.9843    1.9275   -1.3214 C   0  0  0  0  0  0  0  0  0  0  0  0
    6.6298    2.5771   -1.6217 C   0  0  0  0  0  0  0  0  0  0  0  0
    5.4480    2.0900   -0.7757 C   0  0  0  0  0  0  0  0  0  0  0  0
    5.1893    0.5860   -0.8995 C   0  0  0  0  0  0  0  0  0  0  0  0
    3.9775    0.1050   -0.0912 C   0  0  0  0  0  0  0  0  0  0  0  0
    2.6420    0.6136   -0.6410 C   0  0  0  0  0  0  0  0  0  0  0  0
    1.4280    0.0785    0.1208 C   0  0  0  0  0  0  0  0  0  0  0  0
    1.2249   -1.4275   -0.0298 C   0  0  0  0  0  0  0  0  0  0  0  0
    0.0016   -1.8233    0.6194 O   0  0  0  0  0  0  0  0  0  0  0  0
   -1.1297   -1.7224   -0.1298 C   0  0  0  0  0  0  0  0  0  0  0  0
   -1.1850   -1.3265   -1.2874 O   0  0  0  0  0  0  0  0  0  0  0  0
   -2.3386   -2.1609    0.6866 C   0  0  0  0  0  0  0  0  0  0  0  0
   -3.6079   -2.0315   -0.0780 N   0  0  0  0  0  0  0  0  0  0  0  0
   -4.0703   -0.8773   -0.6250 C   0  0  0  0  0  0  0  0  0  0  0  0
   -3.5073    0.5307   -0.4680 C   0  0  0  0  0  0  0  0  0  0  0  0
   -2.8379    0.7495    0.7703 O   0  0  0  0  0  0  0  0  0  0  0  0
   -3.5967    1.0545    1.8660 C   0  0  0  0  0  0  0  0  0  0  0  0
   -2.8601    1.4890    2.9733 C   0  0  0  0  0  0  0  0  0  0  0  0
   -3.4992    1.8109    4.1734 C   0  0  0  0  0  0  0  0  0  0  0  0
   -4.8820    1.6918    4.2690 C   0  0  0  0  0  0  0  0  0  0  0  0
   -5.6782    2.0790    5.7428 Cl  0  0  0  0  0  0  0  0  0  0  0  0
   -5.6250    1.2545    3.1734 C   0  0  0  0  0  0  0  0  0  0  0  0
   -4.9839    0.9339    1.9703 C   0  0  0  0  0  0  0  0  0  0  0  0
   -5.1669   -1.1992   -1.3549 N   0  0  0  0  0  4  0  0  0  0  0  0
   -5.9071   -0.2605   -2.1970 C   0  0  0  0  0  0  0  0  0  0  0  0
   -5.4692   -2.5471   -1.1964 C   0  0  0  0  0  0  0  0  0  0  0  0
   -6.5130   -3.3229   -1.6974 C   0  0  0  0  0  0  0  0  0  0  0  0
   -6.5027   -4.6782   -1.3435 C   0  0  0  0  0  0  0  0  0  0  0  0
   -5.4948   -5.2194   -0.5260 C   0  0  0  0  0  0  0  0  0  0  0  0
   -4.4512   -4.4303   -0.0232 C   0  0  0  0  0  0  0  0  0  0  0  0
   -4.4682   -3.0829   -0.3815 C   0  0  0  0  0  0  0  0  0  0  0  0
    9.3518    3.9985   -0.0476 H   0  0  0  0  0  0  0  0  0  0  0  0
    9.0574    3.4743    1.6203 H   0  0  0  0  0  0  0  0  0  0  0  0
    7.7046    4.0111    0.6169 H   0  0  0  0  0  0  0  0  0  0  0  0
    7.7612    1.5129    0.7999 H   0  0  0  0  0  0  0  0  0  0  0  0
    9.4167    1.5027    0.2170 H   0  0  0  0  0  0  0  0  0  0  0  0
    7.9541    0.8696   -1.6091 H   0  0  0  0  0  0  0  0  0  0  0  0
    8.7364    2.3926   -1.9724 H   0  0  0  0  0  0  0  0  0  0  0  0
    6.3967    2.4095   -2.6812 H   0  0  0  0  0  0  0  0  0  0  0  0
    6.7158    3.6644   -1.5044 H   0  0  0  0  0  0  0  0  0  0  0  0
    5.6029    2.3573    0.2768 H   0  0  0  0  0  0  0  0  0  0  0  0
    4.5616    2.6442   -1.1067 H   0  0  0  0  0  0  0  0  0  0  0  0
    5.0577    0.3154   -1.9543 H   0  0  0  0  0  0  0  0  0  0  0  0
    6.0651    0.0355   -0.5381 H   0  0  0  0  0  0  0  0  0  0  0  0
    4.0876    0.4092    0.9570 H   0  0  0  0  0  0  0  0  0  0  0  0
    3.9863   -0.9910   -0.1057 H   0  0  0  0  0  0  0  0  0  0  0  0
    2.6150    1.7073   -0.5811 H   0  0  0  0  0  0  0  0  0  0  0  0
    2.5522    0.3516   -1.7025 H   0  0  0  0  0  0  0  0  0  0  0  0
    1.5060    0.3284    1.1859 H   0  0  0  0  0  0  0  0  0  0  0  0
    0.5326    0.6021   -0.2364 H   0  0  0  0  0  0  0  0  0  0  0  0
    2.0289   -1.9766    0.4703 H   0  0  0  0  0  0  0  0  0  0  0  0
    1.2258   -1.7399   -1.0813 H   0  0  0  0  0  0  0  0  0  0  0  0
   -2.1882   -3.2080    0.9655 H   0  0  0  0  0  0  0  0  0  0  0  0
   -2.4211   -1.5675    1.5998 H   0  0  0  0  0  0  0  0  0  0  0  0
   -4.3160    1.2496   -0.6320 H   0  0  0  0  0  0  0  0  0  0  0  0
   -2.7863    0.6418   -1.2835 H   0  0  0  0  0  0  0  0  0  0  0  0
   -1.7784    1.5870    2.9060 H   0  0  0  0  0  0  0  0  0  0  0  0
   -2.9150    2.1543    5.0244 H   0  0  0  0  0  0  0  0  0  0  0  0
   -6.7059    1.1628    3.2534 H   0  0  0  0  0  0  0  0  0  0  0  0
   -5.6089    0.5924    1.1530 H   0  0  0  0  0  0  0  0  0  0  0  0
   -6.5516    0.3504   -1.5600 H   0  0  0  0  0  0  0  0  0  0  0  0
   -5.2002    0.3773   -2.7349 H   0  0  0  0  0  0  0  0  0  0  0  0
   -6.5132   -0.7913   -2.9355 H   0  0  0  0  0  0  0  0  0  0  0  0
   -7.2908   -2.9088   -2.3264 H   0  0  0  0  0  0  0  0  0  0  0  0
   -7.2941   -5.3330   -1.7126 H   0  0  0  0  0  0  0  0  0  0  0  0
   -5.5276   -6.2828   -0.2810 H   0  0  0  0  0  0  0  0  0  0  0  0
   -3.6801   -4.8560    0.6065 H   0  0  0  0  0  0  0  0  0  0  0  0
  1  2  1  0
  2  3  1  0
  3  4  1  0
  4  5  1  0
  5  6  1  0
  6  7  1  0
  7  8  1  0
  8  9  1  0
  9 10  1  0
 10 11  1  0
 11 12  1  0
 12 13  2  0
 12 14  1  0
 14 15  1  0
 15 16  1  0
 16 17  1  0
 17 18  1  0
 18 19  1  0
 19 20  2  0
 20 21  1  0
 21 22  2  0
 22 23  1  0
 22 24  1  0
 24 25  2  0
 16 26  2  0
 26 27  1  0
 26 28  1  0
 28 29  2  0
 29 30  1  0
 30 31  2  0
 31 32  1  0
 32 33  2  0
 33 15  1  0
 25 19  1  0
 33 28  1  0
  1 34  1  0
  1 35  1  0
  1 36  1  0
  2 37  1  0
  2 38  1  0
  3 39  1  0
  3 40  1  0
  4 41  1  0
  4 42  1  0
  5 43  1  0
  5 44  1  0
  6 45  1  0
  6 46  1  0
  7 47  1  0
  7 48  1  0
  8 49  1  0
  8 50  1  0
  9 51  1  0
  9 52  1  0
 10 53  1  0
 10 54  1  0
 14 55  1  0
 14 56  1  0
 17 57  1  0
 17 58  1  0
 20 59  1  0
 21 60  1  0
 24 61  1  0
 25 62  1  0
 27 63  1  0
 27 64  1  0
 27 65  1  0
 29 66  1  0
 30 67  1  0
 31 68  1  0
 32 69  1  0
M  CHG  1  26   1
M  END
$$$$
