
     RDKit          3D

 55 58  0  0  0  0  0  0  0  0999 V2000
    3.7161   -1.8570    2.0904 C   0  0  0  0  0  0  0  0  0  0  0  0
    3.5931   -0.6298    1.3809 O   0  0  0  0  0  0  0  0  0  0  0  0
    4.7429    0.0709    1.1236 C   0  0  0  0  0  0  0  0  0  0  0  0
    6.0156   -0.3063    1.5686 C   0  0  0  0  0  0  0  0  0  0  0  0
    7.1369    0.4672    1.2566 C   0  0  0  0  0  0  0  0  0  0  0  0
    6.9982    1.6258    0.5005 C   0  0  0  0  0  0  0  0  0  0  0  0
    5.7364    2.0141    0.0573 C   0  0  0  0  0  0  0  0  0  0  0  0
    4.5970    1.2439    0.3594 C   0  0  0  0  0  0  0  0  0  0  0  0
    3.2487    1.7181   -0.1366 C   0  0  0  0  0  0  0  0  0  0  0  0
    3.2324    1.8415   -1.5962 N   0  0  0  0  0  0  0  0  0  0  0  0
    1.9501    2.6383   -2.3179 S   0  0  0  0  0  6  0  0  0  0  0  0
    1.8396    3.9476   -1.7127 O   0  0  0  0  0  0  0  0  0  0  0  0
    2.0995    2.4677   -3.7459 O   0  0  0  0  0  0  0  0  0  0  0  0
    0.5501    1.6715   -1.8027 C   0  0  0  0  0  0  0  0  0  0  0  0
    0.3101    0.4346   -2.4253 C   0  0  0  0  0  0  0  0  0  0  0  0
   -0.7795   -0.3502   -2.0321 C   0  0  0  0  0  0  0  0  0  0  0  0
   -1.6058    0.1165   -1.0218 C   0  0  0  0  0  0  0  0  0  0  0  0
   -1.3716    1.3613   -0.4277 C   0  0  0  0  0  0  0  0  0  0  0  0
   -0.3035    2.1595   -0.8087 C   0  0  0  0  0  0  0  0  0  0  0  0
   -2.4547    1.7011    0.5478 C   0  0  0  0  0  0  0  0  0  0  0  0
   -3.1473    0.3332    0.7265 C   0  0  0  0  0  0  0  0  0  0  0  0
   -2.6847   -0.3240    2.0334 C   0  0  0  0  0  0  0  0  0  0  0  0
   -2.7501   -0.4822   -0.4500 N   0  0  0  0  0  0  0  0  0  0  0  0
   -3.3658   -1.6455   -0.9070 C   0  0  0  0  0  0  0  0  0  0  0  0
   -2.8870   -2.3475   -1.8070 O   0  0  0  0  0  0  0  0  0  0  0  0
   -4.7293   -2.0081   -0.2487 C   0  0  0  0  0  0  0  0  0  0  0  0
   -5.9875   -1.2441   -0.7557 C   0  0  0  0  0  0  0  0  0  0  0  0
   -6.7804   -2.5502   -0.5679 C   0  0  0  0  0  0  0  0  0  0  0  0
   -5.4478   -3.2990   -0.7478 C   0  0  0  0  0  0  0  0  0  0  0  0
    4.3466   -2.5672    1.5454 H   0  0  0  0  0  0  0  0  0  0  0  0
    2.7177   -2.2951    2.1728 H   0  0  0  0  0  0  0  0  0  0  0  0
    4.0911   -1.6889    3.1048 H   0  0  0  0  0  0  0  0  0  0  0  0
    6.1730   -1.1994    2.1644 H   0  0  0  0  0  0  0  0  0  0  0  0
    8.1202    0.1627    1.6063 H   0  0  0  0  0  0  0  0  0  0  0  0
    7.8699    2.2276    0.2556 H   0  0  0  0  0  0  0  0  0  0  0  0
    5.6355    2.9236   -0.5337 H   0  0  0  0  0  0  0  0  0  0  0  0
    2.4586    1.0246    0.1638 H   0  0  0  0  0  0  0  0  0  0  0  0
    3.0362    2.6843    0.3349 H   0  0  0  0  0  0  0  0  0  0  0  0
    3.5779    1.0441   -2.1263 H   0  0  0  0  0  0  0  0  0  0  0  0
    0.9641    0.0788   -3.2189 H   0  0  0  0  0  0  0  0  0  0  0  0
   -0.9501   -1.3046   -2.5194 H   0  0  0  0  0  0  0  0  0  0  0  0
   -0.1442    3.1327   -0.3535 H   0  0  0  0  0  0  0  0  0  0  0  0
   -2.0666    2.1150    1.4829 H   0  0  0  0  0  0  0  0  0  0  0  0
   -3.1403    2.4201    0.0855 H   0  0  0  0  0  0  0  0  0  0  0  0
   -4.2345    0.4543    0.7514 H   0  0  0  0  0  0  0  0  0  0  0  0
   -1.5946   -0.4337    2.0625 H   0  0  0  0  0  0  0  0  0  0  0  0
   -2.9865    0.2817    2.8941 H   0  0  0  0  0  0  0  0  0  0  0  0
   -3.1091   -1.3225    2.1618 H   0  0  0  0  0  0  0  0  0  0  0  0
   -4.6727   -2.0195    0.8466 H   0  0  0  0  0  0  0  0  0  0  0  0
   -6.3205   -0.4062   -0.1377 H   0  0  0  0  0  0  0  0  0  0  0  0
   -5.9214   -0.9121   -1.7982 H   0  0  0  0  0  0  0  0  0  0  0  0
   -7.2172   -2.6615    0.4313 H   0  0  0  0  0  0  0  0  0  0  0  0
   -7.5476   -2.7535   -1.3186 H   0  0  0  0  0  0  0  0  0  0  0  0
   -5.3188   -4.1856   -0.1207 H   0  0  0  0  0  0  0  0  0  0  0  0
   -5.2382   -3.5689   -1.7897 H   0  0  0  0  0  0  0  0  0  0  0  0
  1  2  1  0
  2  3  1  0
  3  4  2  0
  4  5  1  0
  5  6  2  0
  6  7  1  0
  7  8  2  0
  8  9  1  0
  9 10  1  0
 10 11  1  0
 11 12  2  0
 11 13  2  0
 11 14  1  0
 14 15  2  0
 15 16  1  0
 16 17  2  0
 17 18  1  0
 18 19  2  0
 18 20  1  0
 20 21  1  0
 21 22  1  0
 21 23  1  0
 23 24  1  0
 24 25  2  0
 24 26  1  0
 26 27  1  0
 27 28  1  0
 28 29  1  0
  8  3  1  0
 19 14  1  0
 29 26  1  0
 23 17  1  0
  1 30  1  0
  1 31  1  0
  1 32  1  0
  4 33  1  0
  5 34  1  0
  6 35  1  0
  7 36  1  0
  9 37  1  0
  9 38  1  0
 10 39  1  0
 15 40  1  0
 16 41  1  0
 19 42  1  0
 20 43  1  0
 20 44  1  0
 21 45  1  0
 22 46  1  0
 22 47  1  0
 22 48  1  0
 26 49  1  0
 27 50  1  0
 27 51  1  0
 28 52  1  0
 28 53  1  0
 29 54  1  0
 29 55  1  0
M  END
$$$$
