
     RDKit          3D

 42 44  0  0  0  0  0  0  0  0999 V2000
    5.6265   -0.4649    0.0685 C   0  0  0  0  0  0  0  0  0  0  0  0
    4.5836   -0.7780   -0.9935 C   0  0  0  0  0  0  0  0  0  0  0  0
    3.2196   -0.2667   -0.6074 C   0  0  0  0  0  0  0  0  0  0  0  0
    2.8188    1.0261   -0.9572 C   0  0  0  0  0  0  0  0  0  0  0  0
    1.5602    1.5032   -0.5825 C   0  0  0  0  0  0  0  0  0  0  0  0
    0.6727    0.7030    0.1585 C   0  0  0  0  0  0  0  0  0  0  0  0
   -0.7024    1.2696    0.5169 C   0  0  0  0  0  0  0  0  0  0  0  0
   -1.7141    1.0582   -0.6295 C   0  0  0  0  0  0  0  0  0  0  0  0
   -2.7097    2.2007   -0.5918 C   0  0  0  0  0  0  0  0  0  0  0  0
   -2.4199    3.3818   -0.7286 O   0  0  0  0  0  0  0  0  0  0  0  0
   -3.9937    1.8532   -0.3956 O   0  0  0  0  0  0  0  0  0  0  0  0
   -2.3369   -0.3193   -0.5659 C   0  0  0  0  0  0  0  0  0  0  0  0
   -2.7921   -0.9526   -1.7338 C   0  0  0  0  0  0  0  0  0  0  0  0
   -3.3939   -2.2098   -1.6664 C   0  0  0  0  0  0  0  0  0  0  0  0
   -3.5536   -2.8437   -0.4362 C   0  0  0  0  0  0  0  0  0  0  0  0
   -3.1081   -2.2220    0.7302 C   0  0  0  0  0  0  0  0  0  0  0  0
   -2.4966   -0.9628    0.6699 C   0  0  0  0  0  0  0  0  0  0  0  0
   -2.0144   -0.3326    1.9314 C   0  0  0  0  0  0  0  0  0  0  0  0
   -2.3209   -0.8331    3.0097 O   0  0  0  0  0  0  0  0  0  0  0  0
   -1.2150    0.8009    1.8143 N   0  0  0  0  0  0  0  0  0  0  0  0
   -0.6502    1.3942    3.0163 C   0  0  0  0  0  0  0  0  0  0  0  0
    1.0844   -0.5906    0.5082 C   0  0  0  0  0  0  0  0  0  0  0  0
    2.3440   -1.0677    0.1330 C   0  0  0  0  0  0  0  0  0  0  0  0
    5.3676   -0.9259    1.0278 H   0  0  0  0  0  0  0  0  0  0  0  0
    5.7186    0.6147    0.2289 H   0  0  0  0  0  0  0  0  0  0  0  0
    6.6053   -0.8469   -0.2382 H   0  0  0  0  0  0  0  0  0  0  0  0
    4.8856   -0.3365   -1.9510 H   0  0  0  0  0  0  0  0  0  0  0  0
    4.5380   -1.8611   -1.1604 H   0  0  0  0  0  0  0  0  0  0  0  0
    3.4857    1.6723   -1.5240 H   0  0  0  0  0  0  0  0  0  0  0  0
    1.2786    2.5138   -0.8744 H   0  0  0  0  0  0  0  0  0  0  0  0
   -0.5515    2.3501    0.6536 H   0  0  0  0  0  0  0  0  0  0  0  0
   -1.2064    1.1523   -1.6000 H   0  0  0  0  0  0  0  0  0  0  0  0
   -4.4883    2.6989   -0.3805 H   0  0  0  0  0  0  0  0  0  0  0  0
   -2.6863   -0.4690   -2.7027 H   0  0  0  0  0  0  0  0  0  0  0  0
   -3.7446   -2.6936   -2.5749 H   0  0  0  0  0  0  0  0  0  0  0  0
   -4.0269   -3.8210   -0.3829 H   0  0  0  0  0  0  0  0  0  0  0  0
   -3.2370   -2.7224    1.6880 H   0  0  0  0  0  0  0  0  0  0  0  0
   -1.1784    1.0641    3.9148 H   0  0  0  0  0  0  0  0  0  0  0  0
    0.4006    1.1029    3.0993 H   0  0  0  0  0  0  0  0  0  0  0  0
   -0.7260    2.4832    2.9482 H   0  0  0  0  0  0  0  0  0  0  0  0
    0.4405   -1.2494    1.0849 H   0  0  0  0  0  0  0  0  0  0  0  0
    2.6368   -2.0735    0.4273 H   0  0  0  0  0  0  0  0  0  0  0  0
  1  2  1  0
  2  3  1  0
  3  4  2  0
  4  5  1  0
  5  6  2  0
  6  7  1  0
  7  8  1  0
  8  9  1  0
  9 10  2  0
  9 11  1  0
  8 12  1  0
 12 13  2  0
 13 14  1  0
 14 15  2  0
 15 16  1  0
 16 17  2  0
 17 18  1  0
 18 19  2  0
 18 20  1  0
 20 21  1  0
  6 22  1  0
 22 23  2  0
 23  3  1  0
 20  7  1  0
 17 12  1  0
  1 24  1  0
  1 25  1  0
  1 26  1  0
  2 27  1  0
  2 28  1  0
  4 29  1  0
  5 30  1  0
  7 31  1  0
  8 32  1  0
 11 33  1  0
 13 34  1  0
 14 35  1  0
 15 36  1  0
 16 37  1  0
 21 38  1  0
 21 39  1  0
 21 40  1  0
 22 41  1  0
 23 42  1  0
M  END
$$$$
