
     RDKit          3D

 43 45  0  0  0  0  0  0  0  0999 V2000
   -2.4334    3.4634   -1.4640 C   0  0  0  0  0  0  0  0  0  0  0  0
   -2.2202    2.4378   -0.3623 C   0  0  0  0  0  0  0  0  0  0  0  0
   -2.2513    1.0115   -0.9117 C   0  0  0  0  0  0  0  0  0  0  0  0
   -2.0187   -0.0136    0.1997 C   0  0  0  0  0  0  0  0  0  0  0  0
   -1.7293   -1.3594   -0.2980 N   0  0  0  0  0  0  0  0  0  0  0  0
   -2.6451   -2.2517   -0.8620 C   0  0  0  0  0  0  0  0  0  0  0  0
   -4.2007   -2.0055   -1.3673 S   0  0  0  0  0  0  0  0  0  0  0  0
   -2.0553   -3.5065   -0.9082 N   0  0  0  0  0  0  0  0  0  0  0  0
   -0.8869   -3.5418   -0.0740 C   0  0  0  0  0  0  0  0  0  0  0  0
   -0.5043   -2.0647    0.1041 C   0  0  0  0  0  0  0  0  0  0  0  0
    0.7259   -1.7265   -0.7642 C   0  0  0  0  0  0  0  0  0  0  0  0
    1.3999   -0.4066   -0.4303 C   0  0  0  0  0  0  0  0  0  0  0  0
    1.2856    0.6384   -1.3638 C   0  0  0  0  0  0  0  0  0  0  0  0
    1.8399    1.8879   -1.1124 C   0  0  0  0  0  0  0  0  0  0  0  0
    2.5304    2.1113    0.0737 C   0  0  0  0  0  0  0  0  0  0  0  0
    2.6936    1.0855    1.0148 C   0  0  0  0  0  0  0  0  0  0  0  0
    3.4134    1.3306    2.1959 C   0  0  0  0  0  0  0  0  0  0  0  0
    3.6096    0.3251    3.1399 C   0  0  0  0  0  0  0  0  0  0  0  0
    3.0930   -0.9420    2.9108 C   0  0  0  0  0  0  0  0  0  0  0  0
    2.3719   -1.2001    1.7420 C   0  0  0  0  0  0  0  0  0  0  0  0
    2.1394   -0.1981    0.7702 C   0  0  0  0  0  0  0  0  0  0  0  0
   -1.6502    3.3891   -2.2253 H   0  0  0  0  0  0  0  0  0  0  0  0
   -3.4026    3.3196   -1.9521 H   0  0  0  0  0  0  0  0  0  0  0  0
   -2.4086    4.4759   -1.0491 H   0  0  0  0  0  0  0  0  0  0  0  0
   -1.2567    2.6308    0.1235 H   0  0  0  0  0  0  0  0  0  0  0  0
   -2.9985    2.5590    0.4000 H   0  0  0  0  0  0  0  0  0  0  0  0
   -3.2181    0.8366   -1.3944 H   0  0  0  0  0  0  0  0  0  0  0  0
   -1.4962    0.8998   -1.6954 H   0  0  0  0  0  0  0  0  0  0  0  0
   -1.1815    0.3020    0.8315 H   0  0  0  0  0  0  0  0  0  0  0  0
   -2.9040   -0.0740    0.8432 H   0  0  0  0  0  0  0  0  0  0  0  0
   -2.6398   -4.3111   -1.1018 H   0  0  0  0  0  0  0  0  0  0  0  0
   -0.1180   -4.1689   -0.5325 H   0  0  0  0  0  0  0  0  0  0  0  0
   -1.1834   -3.9837    0.8837 H   0  0  0  0  0  0  0  0  0  0  0  0
   -0.3200   -1.8705    1.1660 H   0  0  0  0  0  0  0  0  0  0  0  0
    1.4876   -2.5109   -0.6640 H   0  0  0  0  0  0  0  0  0  0  0  0
    0.4391   -1.7402   -1.8245 H   0  0  0  0  0  0  0  0  0  0  0  0
    0.7475    0.4843   -2.2974 H   0  0  0  0  0  0  0  0  0  0  0  0
    1.7308    2.6884   -1.8393 H   0  0  0  0  0  0  0  0  0  0  0  0
    2.9539    3.0972    0.2533 H   0  0  0  0  0  0  0  0  0  0  0  0
    3.8352    2.3151    2.3881 H   0  0  0  0  0  0  0  0  0  0  0  0
    4.1717    0.5317    4.0467 H   0  0  0  0  0  0  0  0  0  0  0  0
    3.2526   -1.7341    3.6377 H   0  0  0  0  0  0  0  0  0  0  0  0
    2.0022   -2.2112    1.5993 H   0  0  0  0  0  0  0  0  0  0  0  0
  1  2  1  0
  2  3  1  0
  3  4  1  0
  4  5  1  0
  5  6  1  0
  6  7  2  0
  6  8  1  0
  8  9  1  0
  9 10  1  0
 10 11  1  0
 11 12  1  0
 12 13  2  0
 13 14  1  0
 14 15  2  0
 15 16  1  0
 16 17  2  0
 17 18  1  0
 18 19  2  0
 19 20  1  0
 20 21  2  0
 10  5  1  0
 21 12  1  0
 21 16  1  0
  1 22  1  0
  1 23  1  0
  1 24  1  0
  2 25  1  0
  2 26  1  0
  3 27  1  0
  3 28  1  0
  4 29  1  0
  4 30  1  0
  8 31  1  0
  9 32  1  0
  9 33  1  0
 10 34  1  0
 11 35  1  0
 11 36  1  0
 13 37  1  0
 14 38  1  0
 15 39  1  0
 17 40  1  0
 18 41  1  0
 19 42  1  0
 20 43  1  0
M  END
$$$$
