
     RDKit          3D

 44 46  0  0  0  0  0  0  0  0999 V2000
    5.7162   -2.2484   -1.4534 C   0  0  0  0  0  0  0  0  0  0  0  0
    4.6675   -1.1940   -1.2442 C   0  0  0  0  0  0  0  0  0  0  0  0
    4.9687   -0.0365   -0.5139 C   0  0  0  0  0  0  0  0  0  0  0  0
    3.9881    0.9331   -0.2845 C   0  0  0  0  0  0  0  0  0  0  0  0
    2.6897    0.7495   -0.7775 C   0  0  0  0  0  0  0  0  0  0  0  0
    1.6101    1.7459   -0.5599 C   0  0  0  0  0  0  0  0  0  0  0  0
    0.5444    1.7353   -1.1559 O   0  0  0  0  0  0  0  0  0  0  0  0
    1.9589    2.6225    0.4128 O   0  0  0  0  0  0  0  0  0  0  0  0
    0.9520    3.5730    0.7617 C   0  0  0  0  0  0  0  0  0  0  0  0
   -0.1573    2.9641    1.6211 C   0  0  0  0  0  0  0  0  0  0  0  0
   -0.1338    2.9926    2.8493 O   0  0  0  0  0  0  0  0  0  0  0  0
   -1.1746    2.3754    0.9020 N   0  0  0  0  0  0  0  0  0  0  0  0
   -2.2001    1.5844    1.5651 C   0  0  0  0  0  0  0  0  0  0  0  0
   -1.7153    0.1495    1.8494 C   0  0  0  0  0  0  0  0  0  0  0  0
   -2.6248   -0.5974    2.8214 C   0  0  0  0  0  0  0  0  0  0  0  0
   -3.9482   -0.7449    2.2989 O   0  0  0  0  0  0  0  0  0  0  0  0
   -3.9169   -1.1995    1.0048 C   0  0  0  0  0  0  0  0  0  0  0  0
   -5.1043   -1.7233    0.4957 C   0  0  0  0  0  0  0  0  0  0  0  0
   -5.1463   -2.2053   -0.8152 C   0  0  0  0  0  0  0  0  0  0  0  0
   -4.0019   -2.1586   -1.6145 C   0  0  0  0  0  0  0  0  0  0  0  0
   -2.8156   -1.6215   -1.1078 C   0  0  0  0  0  0  0  0  0  0  0  0
   -2.7763   -1.1308    0.1974 C   0  0  0  0  0  0  0  0  0  0  0  0
   -1.5895   -0.5822    0.6125 O   0  0  0  0  0  0  0  0  0  0  0  0
    2.3832   -0.4110   -1.4998 C   0  0  0  0  0  0  0  0  0  0  0  0
    3.3648   -1.3801   -1.7243 C   0  0  0  0  0  0  0  0  0  0  0  0
    6.7003   -1.7901   -1.5995 H   0  0  0  0  0  0  0  0  0  0  0  0
    5.5004   -2.8481   -2.3440 H   0  0  0  0  0  0  0  0  0  0  0  0
    5.7593   -2.9125   -0.5838 H   0  0  0  0  0  0  0  0  0  0  0  0
    5.9715    0.1170   -0.1184 H   0  0  0  0  0  0  0  0  0  0  0  0
    4.2522    1.8246    0.2805 H   0  0  0  0  0  0  0  0  0  0  0  0
    0.5320    4.0526   -0.1316 H   0  0  0  0  0  0  0  0  0  0  0  0
    1.4314    4.3664    1.3452 H   0  0  0  0  0  0  0  0  0  0  0  0
   -0.9582    2.1253   -0.0641 H   0  0  0  0  0  0  0  0  0  0  0  0
   -3.0661    1.5968    0.8960 H   0  0  0  0  0  0  0  0  0  0  0  0
   -2.4746    2.0870    2.4991 H   0  0  0  0  0  0  0  0  0  0  0  0
   -0.7098    0.1846    2.2857 H   0  0  0  0  0  0  0  0  0  0  0  0
   -2.6994   -0.0586    3.7729 H   0  0  0  0  0  0  0  0  0  0  0  0
   -2.2277   -1.5979    3.0380 H   0  0  0  0  0  0  0  0  0  0  0  0
   -5.9930   -1.7619    1.1201 H   0  0  0  0  0  0  0  0  0  0  0  0
   -6.0716   -2.6183   -1.2129 H   0  0  0  0  0  0  0  0  0  0  0  0
   -4.0367   -2.5336   -2.6358 H   0  0  0  0  0  0  0  0  0  0  0  0
   -1.9293   -1.5715   -1.7347 H   0  0  0  0  0  0  0  0  0  0  0  0
    1.3760   -0.5716   -1.8811 H   0  0  0  0  0  0  0  0  0  0  0  0
    3.1047   -2.2820   -2.2763 H   0  0  0  0  0  0  0  0  0  0  0  0
  1  2  1  0
  2  3  2  0
  3  4  1  0
  4  5  2  0
  5  6  1  0
  6  7  2  0
  6  8  1  0
  8  9  1  0
  9 10  1  0
 10 11  2  0
 10 12  1  0
 12 13  1  0
 13 14  1  0
 14 15  1  0
 15 16  1  0
 16 17  1  0
 17 18  2  0
 18 19  1  0
 19 20  2  0
 20 21  1  0
 21 22  2  0
 22 23  1  0
  5 24  1  0
 24 25  2  0
 25  2  1  0
 23 14  1  0
 22 17  1  0
  1 26  1  0
  1 27  1  0
  1 28  1  0
  3 29  1  0
  4 30  1  0
  9 31  1  0
  9 32  1  0
 12 33  1  0
 13 34  1  0
 13 35  1  0
 14 36  1  0
 15 37  1  0
 15 38  1  0
 18 39  1  0
 19 40  1  0
 20 41  1  0
 21 42  1  0
 24 43  1  0
 25 44  1  0
M  END
$$$$
