
     RDKit          3D

 38 40  0  0  0  0  0  0  0  0999 V2000
   -5.7082   -3.2732   -2.3394 C   0  0  0  0  0  0  0  0  0  0  0  0
   -4.5345   -2.5033   -2.5678 O   0  0  0  0  0  0  0  0  0  0  0  0
   -3.9578   -1.9087   -1.4806 C   0  0  0  0  0  0  0  0  0  0  0  0
   -4.3885   -2.0245   -0.1577 C   0  0  0  0  0  0  0  0  0  0  0  0
   -3.7104   -1.3556    0.8680 C   0  0  0  0  0  0  0  0  0  0  0  0
   -2.5926   -0.5769    0.5721 C   0  0  0  0  0  0  0  0  0  0  0  0
   -1.9548    0.0982    1.5728 O   0  0  0  0  0  0  0  0  0  0  0  0
   -2.1391   -0.4747   -0.7457 C   0  0  0  0  0  0  0  0  0  0  0  0
   -0.9640    0.3419   -1.1262 C   0  0  0  0  0  0  0  0  0  0  0  0
   -1.0474    1.0782   -2.1074 O   0  0  0  0  0  0  0  0  0  0  0  0
    0.3184    0.2728   -0.3889 C   0  0  0  0  0  0  0  0  0  0  0  0
    0.7176   -0.8538    0.3186 C   0  0  0  0  0  0  0  0  0  0  0  0
    1.9018   -0.9585    0.9734 N   0  0  0  0  0  0  0  0  0  0  0  0
    2.7200    0.1115    0.9169 C   0  0  0  0  0  0  0  0  0  0  0  0
    2.4277    1.2723    0.2233 C   0  0  0  0  0  0  0  0  0  0  0  0
    1.2068    1.3484   -0.4518 C   0  0  0  0  0  0  0  0  0  0  0  0
    3.4596    2.3441    0.1440 C   0  0  0  0  0  0  0  0  0  0  0  0
    4.4597    2.2585    1.1940 N   0  0  0  0  0  0  0  0  0  0  0  0
    5.3955    3.3620    1.2984 C   0  0  0  0  0  0  0  0  0  0  0  0
    4.7986    1.0482    1.7669 C   0  0  0  0  0  0  0  0  0  0  0  0
    5.8153    0.8739    2.4359 O   0  0  0  0  0  0  0  0  0  0  0  0
    3.9216    0.0238    1.5916 N   0  0  0  0  0  0  0  0  0  0  0  0
   -2.8365   -1.1275   -1.7697 C   0  0  0  0  0  0  0  0  0  0  0  0
   -5.4956   -4.1335   -1.6964 H   0  0  0  0  0  0  0  0  0  0  0  0
   -6.5107   -2.6559   -1.9223 H   0  0  0  0  0  0  0  0  0  0  0  0
   -6.0503   -3.6561   -3.3057 H   0  0  0  0  0  0  0  0  0  0  0  0
   -5.2544   -2.6224    0.1089 H   0  0  0  0  0  0  0  0  0  0  0  0
   -4.0745   -1.4523    1.8871 H   0  0  0  0  0  0  0  0  0  0  0  0
   -2.4401   -0.0180    2.4077 H   0  0  0  0  0  0  0  0  0  0  0  0
    0.0985   -1.7435    0.3806 H   0  0  0  0  0  0  0  0  0  0  0  0
    0.9479    2.2335   -1.0292 H   0  0  0  0  0  0  0  0  0  0  0  0
    2.9772    3.3252    0.2229 H   0  0  0  0  0  0  0  0  0  0  0  0
    3.9788    2.2794   -0.8194 H   0  0  0  0  0  0  0  0  0  0  0  0
    6.0058    3.2813    2.2023 H   0  0  0  0  0  0  0  0  0  0  0  0
    4.8414    4.3044    1.3315 H   0  0  0  0  0  0  0  0  0  0  0  0
    6.0528    3.3500    0.4239 H   0  0  0  0  0  0  0  0  0  0  0  0
    4.1201   -0.8425    2.0681 H   0  0  0  0  0  0  0  0  0  0  0  0
   -2.5056   -1.0267   -2.8020 H   0  0  0  0  0  0  0  0  0  0  0  0
  1  2  1  0
  2  3  1  0
  3  4  2  0
  4  5  1  0
  5  6  2  0
  6  7  1  0
  6  8  1  0
  8  9  1  0
  9 10  2  0
  9 11  1  0
 11 12  2  0
 12 13  1  0
 13 14  2  0
 14 15  1  0
 15 16  2  0
 15 17  1  0
 17 18  1  0
 18 19  1  0
 18 20  1  0
 20 21  2  0
 20 22  1  0
  8 23  2  0
 23  3  1  0
 16 11  1  0
 22 14  1  0
  1 24  1  0
  1 25  1  0
  1 26  1  0
  4 27  1  0
  5 28  1  0
  7 29  1  0
 12 30  1  0
 16 31  1  0
 17 32  1  0
 17 33  1  0
 19 34  1  0
 19 35  1  0
 19 36  1  0
 22 37  1  0
 23 38  1  0
M  END
$$$$
