
     RDKit          3D

 44 47  0  0  0  0  0  0  0  0999 V2000
   -6.4681    1.4121   -1.3660 C   0  0  0  0  0  0  0  0  0  0  0  0
   -5.1525    1.4080   -1.9053 O   0  0  0  0  0  0  0  0  0  0  0  0
   -4.2114    0.6779   -1.2339 C   0  0  0  0  0  0  0  0  0  0  0  0
   -2.9365    0.7064   -1.8009 C   0  0  0  0  0  0  0  0  0  0  0  0
   -1.8792    0.0035   -1.2180 C   0  0  0  0  0  0  0  0  0  0  0  0
   -2.0790   -0.7432   -0.0477 C   0  0  0  0  0  0  0  0  0  0  0  0
   -0.9475   -1.5235    0.6033 C   0  0  0  0  0  0  0  0  0  0  0  0
    0.2381   -0.6436    0.9325 C   0  0  0  0  0  0  0  0  0  0  0  0
    1.5140   -1.0511    0.8063 C   0  0  0  0  0  0  0  0  0  0  0  0
    2.6099   -0.1200    1.1378 C   0  0  0  0  0  0  0  0  0  0  0  0
    3.1743   -0.2084    2.4111 C   0  0  0  0  0  0  0  0  0  0  0  0
    4.1907    0.6651    2.7364 C   0  0  0  0  0  0  0  0  0  0  0  0
    4.6711    1.6029    1.8953 N   0  0  0  0  0  0  0  0  0  0  0  0
    4.1306    1.6972    0.6709 C   0  0  0  0  0  0  0  0  0  0  0  0
    4.6256    2.6668   -0.1919 C   0  0  0  0  0  0  0  0  0  0  0  0
    4.1216    2.8336   -1.4844 C   0  0  0  0  0  0  0  0  0  0  0  0
    3.0981    2.0096   -1.9268 C   0  0  0  0  0  0  0  0  0  0  0  0
    2.4649    2.1984   -3.5139 Cl  0  0  0  0  0  0  0  0  0  0  0  0
    2.5816    1.0272   -1.0866 C   0  0  0  0  0  0  0  0  0  0  0  0
    3.0858    0.8555    0.2261 C   0  0  0  0  0  0  0  0  0  0  0  0
    1.9152   -2.4364    0.3763 C   0  0  0  0  0  0  0  0  0  0  0  0
    0.7037   -3.3464    0.2704 C   0  0  0  0  0  0  0  0  0  0  0  0
    0.7769   -4.5506    0.5168 O   0  0  0  0  0  0  0  0  0  0  0  0
   -0.5636   -2.7275   -0.2633 C   0  0  0  0  0  0  0  0  0  0  0  0
   -3.3635   -0.7689    0.5150 C   0  0  0  0  0  0  0  0  0  0  0  0
   -4.4211   -0.0637   -0.0725 C   0  0  0  0  0  0  0  0  0  0  0  0
   -6.8964    0.4043   -1.3621 H   0  0  0  0  0  0  0  0  0  0  0  0
   -7.0925    2.0363   -2.0126 H   0  0  0  0  0  0  0  0  0  0  0  0
   -6.4826    1.8526   -0.3636 H   0  0  0  0  0  0  0  0  0  0  0  0
   -2.7646    1.2828   -2.7070 H   0  0  0  0  0  0  0  0  0  0  0  0
   -0.9000    0.0498   -1.6885 H   0  0  0  0  0  0  0  0  0  0  0  0
   -1.3054   -1.9033    1.5712 H   0  0  0  0  0  0  0  0  0  0  0  0
    0.0161    0.3610    1.2939 H   0  0  0  0  0  0  0  0  0  0  0  0
    2.8301   -0.9362    3.1384 H   0  0  0  0  0  0  0  0  0  0  0  0
    4.6623    0.6366    3.7149 H   0  0  0  0  0  0  0  0  0  0  0  0
    5.4294    3.3138    0.1539 H   0  0  0  0  0  0  0  0  0  0  0  0
    4.5345    3.6045   -2.1292 H   0  0  0  0  0  0  0  0  0  0  0  0
    1.7808    0.3921   -1.4552 H   0  0  0  0  0  0  0  0  0  0  0  0
    2.4056   -2.4076   -0.6026 H   0  0  0  0  0  0  0  0  0  0  0  0
    2.6023   -2.8786    1.1064 H   0  0  0  0  0  0  0  0  0  0  0  0
   -0.3830   -2.4556   -1.3104 H   0  0  0  0  0  0  0  0  0  0  0  0
   -1.3648   -3.4758   -0.2535 H   0  0  0  0  0  0  0  0  0  0  0  0
   -3.5571   -1.3408    1.4206 H   0  0  0  0  0  0  0  0  0  0  0  0
   -5.3944   -0.1167    0.4035 H   0  0  0  0  0  0  0  0  0  0  0  0
  1  2  1  0
  2  3  1  0
  3  4  2  0
  4  5  1  0
  5  6  2  0
  6  7  1  0
  7  8  1  0
  8  9  2  0
  9 10  1  0
 10 11  2  0
 11 12  1  0
 12 13  2  0
 13 14  1  0
 14 15  2  0
 15 16  1  0
 16 17  2  0
 17 18  1  0
 17 19  1  0
 19 20  2  0
  9 21  1  0
 21 22  1  0
 22 23  2  0
 22 24  1  0
  6 25  1  0
 25 26  2  0
 26  3  1  0
 24  7  1  0
 20 10  1  0
 20 14  1  0
  1 27  1  0
  1 28  1  0
  1 29  1  0
  4 30  1  0
  5 31  1  0
  7 32  1  0
  8 33  1  0
 11 34  1  0
 12 35  1  0
 15 36  1  0
 16 37  1  0
 19 38  1  0
 21 39  1  0
 21 40  1  0
 24 41  1  0
 24 42  1  0
 25 43  1  0
 26 44  1  0
M  END
$$$$
