
     RDKit          3D

 50 52  0  0  0  0  0  0  0  0999 V2000
   -4.9283    2.5523   -0.9536 O   0  0  0  0  0  0  0  0  0  0  0  0
   -4.2891    1.5493   -1.2622 C   0  0  0  0  0  0  0  0  0  0  0  0
   -3.3470    1.5228   -2.4683 C   0  0  0  0  0  0  0  0  0  0  0  0
   -1.9679    1.3763   -2.1252 O   0  0  0  0  0  0  0  0  0  0  0  0
   -1.5569    0.1078   -1.8920 C   0  0  0  0  0  0  0  0  0  0  0  0
   -2.2702   -0.8840   -1.9153 O   0  0  0  0  0  0  0  0  0  0  0  0
   -0.1020    0.0699   -1.5807 C   0  0  0  0  0  0  0  0  0  0  0  0
    0.6819    1.2320   -1.5117 C   0  0  0  0  0  0  0  0  0  0  0  0
    2.0442    1.1434   -1.2138 C   0  0  0  0  0  0  0  0  0  0  0  0
    2.6202   -0.1091   -0.9795 C   0  0  0  0  0  0  0  0  0  0  0  0
    4.3584   -0.2003   -0.6107 S   0  0  0  0  0  6  0  0  0  0  0  0
    4.7052   -1.5907   -0.4107 O   0  0  0  0  0  0  0  0  0  0  0  0
    5.0337    0.6050   -1.6057 O   0  0  0  0  0  0  0  0  0  0  0  0
    4.4573    0.5968    0.8905 N   0  0  0  0  0  0  0  0  0  0  0  0
    3.7560   -0.0077    2.0518 C   0  0  0  0  0  0  0  0  0  0  0  0
    4.6054   -1.0629    2.7533 C   0  0  0  0  0  0  0  0  0  0  0  0
    5.9895   -0.5313    3.1102 C   0  0  0  0  0  0  0  0  0  0  0  0
    6.6715    0.0768    1.8890 C   0  0  0  0  0  0  0  0  0  0  0  0
    5.7913    1.1422    1.2484 C   0  0  0  0  0  0  0  0  0  0  0  0
    1.8538   -1.2746   -1.0522 C   0  0  0  0  0  0  0  0  0  0  0  0
    0.4918   -1.1814   -1.3499 C   0  0  0  0  0  0  0  0  0  0  0  0
   -4.3704    0.3606   -0.5759 N   0  0  0  0  0  0  0  0  0  0  0  0
   -5.3167    0.1519    0.4930 C   0  0  0  0  0  0  0  0  0  0  0  0
   -6.5527   -0.4362   -0.0767 C   0  0  0  0  0  0  0  0  0  0  0  0
   -7.6901    0.1115   -0.6342 C   0  0  0  0  0  0  0  0  0  0  0  0
   -8.5168   -0.9758   -1.0041 C   0  0  0  0  0  0  0  0  0  0  0  0
   -7.8321   -2.1151   -0.6518 C   0  0  0  0  0  0  0  0  0  0  0  0
   -6.6375   -1.7985   -0.0888 O   0  0  0  0  0  0  0  0  0  0  0  0
   -3.4468    2.4803   -2.9915 H   0  0  0  0  0  0  0  0  0  0  0  0
   -3.6707    0.7471   -3.1732 H   0  0  0  0  0  0  0  0  0  0  0  0
    0.2475    2.2134   -1.6899 H   0  0  0  0  0  0  0  0  0  0  0  0
    2.6518    2.0454   -1.1675 H   0  0  0  0  0  0  0  0  0  0  0  0
    3.5134    0.8004    2.7535 H   0  0  0  0  0  0  0  0  0  0  0  0
    2.7966   -0.4378    1.7496 H   0  0  0  0  0  0  0  0  0  0  0  0
    4.0951   -1.3963    3.6642 H   0  0  0  0  0  0  0  0  0  0  0  0
    4.7125   -1.9475    2.1162 H   0  0  0  0  0  0  0  0  0  0  0  0
    6.6057   -1.3402    3.5180 H   0  0  0  0  0  0  0  0  0  0  0  0
    5.8978    0.2293    3.8952 H   0  0  0  0  0  0  0  0  0  0  0  0
    7.6289    0.5193    2.1858 H   0  0  0  0  0  0  0  0  0  0  0  0
    6.8956   -0.7136    1.1630 H   0  0  0  0  0  0  0  0  0  0  0  0
    5.6421    1.9773    1.9443 H   0  0  0  0  0  0  0  0  0  0  0  0
    6.2865    1.5704    0.3711 H   0  0  0  0  0  0  0  0  0  0  0  0
    2.3037   -2.2510   -0.8834 H   0  0  0  0  0  0  0  0  0  0  0  0
   -0.1043   -2.0912   -1.4063 H   0  0  0  0  0  0  0  0  0  0  0  0
   -3.9274   -0.4632   -0.9813 H   0  0  0  0  0  0  0  0  0  0  0  0
   -5.5341    1.0970    1.0007 H   0  0  0  0  0  0  0  0  0  0  0  0
   -4.8556   -0.5306    1.2138 H   0  0  0  0  0  0  0  0  0  0  0  0
   -7.8857    1.1681   -0.7598 H   0  0  0  0  0  0  0  0  0  0  0  0
   -9.4899   -0.9354   -1.4726 H   0  0  0  0  0  0  0  0  0  0  0  0
   -8.0451   -3.1720   -0.7315 H   0  0  0  0  0  0  0  0  0  0  0  0
  1  2  2  0
  2  3  1  0
  3  4  1  0
  4  5  1  0
  5  6  2  0
  5  7  1  0
  7  8  2  0
  8  9  1  0
  9 10  2  0
 10 11  1  0
 11 12  2  0
 11 13  2  0
 11 14  1  0
 14 15  1  0
 15 16  1  0
 16 17  1  0
 17 18  1  0
 18 19  1  0
 10 20  1  0
 20 21  2  0
  2 22  1  0
 22 23  1  0
 23 24  1  0
 24 25  2  0
 25 26  1  0
 26 27  2  0
 27 28  1  0
 21  7  1  0
 28 24  1  0
 19 14  1  0
  3 29  1  0
  3 30  1  0
  8 31  1  0
  9 32  1  0
 15 33  1  0
 15 34  1  0
 16 35  1  0
 16 36  1  0
 17 37  1  0
 17 38  1  0
 18 39  1  0
 18 40  1  0
 19 41  1  0
 19 42  1  0
 20 43  1  0
 21 44  1  0
 22 45  1  0
 23 46  1  0
 23 47  1  0
 25 48  1  0
 26 49  1  0
 27 50  1  0
M  END
$$$$
