
     RDKit          3D

 50 52  0  0  0  0  0  0  0  0999 V2000
    6.5586   -0.3842   -1.5823 C   0  0  0  0  0  0  0  0  0  0  0  0
    5.1472   -0.2131   -1.6672 O   0  0  0  0  0  0  0  0  0  0  0  0
    4.6703    0.4738   -2.7622 C   0  0  0  0  0  0  0  0  0  0  0  0
    5.4419    0.8633   -3.8602 C   0  0  0  0  0  0  0  0  0  0  0  0
    4.8518    1.5554   -4.9195 C   0  0  0  0  0  0  0  0  0  0  0  0
    3.4932    1.8594   -4.8843 C   0  0  0  0  0  0  0  0  0  0  0  0
    2.7138    1.4751   -3.7907 C   0  0  0  0  0  0  0  0  0  0  0  0
    3.2924    0.7835   -2.7256 C   0  0  0  0  0  0  0  0  0  0  0  0
    2.5794    0.3709   -1.5761 N   0  0  0  0  0  0  0  0  0  0  0  0
    1.2581    0.6185   -1.2480 C   0  0  0  0  0  0  0  0  0  0  0  0
    0.4473    1.2367   -1.9303 O   0  0  0  0  0  0  0  0  0  0  0  0
    0.9009    0.0260    0.1176 C   0  0  0  0  0  0  0  0  0  0  0  0
   -0.4158    0.3875    0.5273 O   0  0  0  0  0  0  0  0  0  0  0  0
   -0.6566    0.1762    1.8403 C   0  0  0  0  0  0  0  0  0  0  0  0
    0.1194   -0.2593    2.6729 O   0  0  0  0  0  0  0  0  0  0  0  0
   -2.0152    0.6476    2.1397 C   0  0  0  0  0  0  0  0  0  0  0  0
   -2.0769    1.9951    2.5465 C   0  0  0  0  0  0  0  0  0  0  0  0
   -3.3162    2.5807    2.7907 C   0  0  0  0  0  0  0  0  0  0  0  0
   -3.3948    3.9841    3.2090 N   0  0  0  0  0  4  0  0  0  0  0  0
   -4.5216    4.4805    3.3518 O   0  0  0  0  0  0  0  0  0  0  0  0
   -2.3291    4.5888    3.4002 O   0  0  0  0  0  1  0  0  0  0  0  0
   -4.4819    1.8354    2.6287 C   0  0  0  0  0  0  0  0  0  0  0  0
   -4.3950    0.4940    2.2285 C   0  0  0  0  0  0  0  0  0  0  0  0
   -3.1675   -0.1601    1.9832 C   0  0  0  0  0  0  0  0  0  0  0  0
   -3.1649   -1.4885    1.6064 N   0  0  0  0  0  0  0  0  0  0  0  0
   -2.0421   -2.4128    1.7960 C   0  0  0  0  0  0  0  0  0  0  0  0
   -2.6656   -3.8037    1.6702 C   0  0  0  0  0  0  0  0  0  0  0  0
   -3.8319   -3.5698    0.7284 C   0  0  0  0  0  0  0  0  0  0  0  0
   -4.3676   -2.2230    1.2022 C   0  0  0  0  0  0  0  0  0  0  0  0
    6.9292   -1.0271   -2.3869 H   0  0  0  0  0  0  0  0  0  0  0  0
    6.7753   -0.8817   -0.6322 H   0  0  0  0  0  0  0  0  0  0  0  0
    7.0731    0.5818   -1.5754 H   0  0  0  0  0  0  0  0  0  0  0  0
    6.5017    0.6438   -3.9259 H   0  0  0  0  0  0  0  0  0  0  0  0
    5.4540    1.8595   -5.7740 H   0  0  0  0  0  0  0  0  0  0  0  0
    3.0338    2.3992   -5.7093 H   0  0  0  0  0  0  0  0  0  0  0  0
    1.6583    1.7296   -3.7997 H   0  0  0  0  0  0  0  0  0  0  0  0
    3.1598   -0.1236   -0.9039 H   0  0  0  0  0  0  0  0  0  0  0  0
    0.9570   -1.0660    0.0338 H   0  0  0  0  0  0  0  0  0  0  0  0
    1.6450    0.3868    0.8425 H   0  0  0  0  0  0  0  0  0  0  0  0
   -1.1559    2.5671    2.6467 H   0  0  0  0  0  0  0  0  0  0  0  0
   -5.4639    2.2701    2.8069 H   0  0  0  0  0  0  0  0  0  0  0  0
   -5.3350   -0.0432    2.1236 H   0  0  0  0  0  0  0  0  0  0  0  0
   -1.5704   -2.3049    2.7794 H   0  0  0  0  0  0  0  0  0  0  0  0
   -1.3008   -2.2753    1.0047 H   0  0  0  0  0  0  0  0  0  0  0  0
   -3.0348   -4.1409    2.6503 H   0  0  0  0  0  0  0  0  0  0  0  0
   -1.9566   -4.5483    1.2972 H   0  0  0  0  0  0  0  0  0  0  0  0
   -3.4734   -3.4951   -0.3055 H   0  0  0  0  0  0  0  0  0  0  0  0
   -4.5852   -4.3603    0.7765 H   0  0  0  0  0  0  0  0  0  0  0  0
   -5.0314   -2.3684    2.0622 H   0  0  0  0  0  0  0  0  0  0  0  0
   -4.9114   -1.7214    0.3961 H   0  0  0  0  0  0  0  0  0  0  0  0
  1  2  1  0
  2  3  1  0
  3  4  2  0
  4  5  1  0
  5  6  2  0
  6  7  1  0
  7  8  2  0
  8  9  1  0
  9 10  1  0
 10 11  2  0
 10 12  1  0
 12 13  1  0
 13 14  1  0
 14 15  2  0
 14 16  1  0
 16 17  2  0
 17 18  1  0
 18 19  1  0
 19 20  2  0
 19 21  1  0
 18 22  2  0
 22 23  1  0
 23 24  2  0
 24 25  1  0
 25 26  1  0
 26 27  1  0
 27 28  1  0
 28 29  1  0
  8  3  1  0
 24 16  1  0
 29 25  1  0
  1 30  1  0
  1 31  1  0
  1 32  1  0
  4 33  1  0
  5 34  1  0
  6 35  1  0
  7 36  1  0
  9 37  1  0
 12 38  1  0
 12 39  1  0
 17 40  1  0
 22 41  1  0
 23 42  1  0
 26 43  1  0
 26 44  1  0
 27 45  1  0
 27 46  1  0
 28 47  1  0
 28 48  1  0
 29 49  1  0
 29 50  1  0
M  CHG  2  19   1  21  -1
M  END
$$$$
