
     RDKit          3D

 41 43  0  0  0  0  0  0  0  0999 V2000
   -4.1467    1.5257   -0.5720 O   0  0  0  0  0  0  0  0  0  0  0  0
   -4.4663    0.3528   -0.4504 C   0  0  0  0  0  0  0  0  0  0  0  0
   -3.6262   -0.7303   -0.2716 O   0  0  0  0  0  0  0  0  0  0  0  0
   -2.2639   -0.4144   -0.2410 C   0  0  0  0  0  0  0  0  0  0  0  0
   -1.5746   -0.6223    0.9525 C   0  0  0  0  0  0  0  0  0  0  0  0
   -0.2034   -0.3685    1.0020 C   0  0  0  0  0  0  0  0  0  0  0  0
    0.4644    0.0781   -0.1449 C   0  0  0  0  0  0  0  0  0  0  0  0
    1.9165    0.3547   -0.1194 C   0  0  0  0  0  0  0  0  0  0  0  0
    2.6199    0.1834    0.9545 N   0  0  0  0  0  0  0  0  0  0  0  0
    3.9679    0.4155    0.8913 N   0  0  0  0  0  0  0  0  0  0  0  0
    4.7990    0.2002   -0.2013 C   0  0  0  0  0  0  0  0  0  0  0  0
    4.4567   -0.0916   -1.3429 O   0  0  0  0  0  0  0  0  0  0  0  0
    6.2522    0.3392    0.1409 C   0  0  0  0  0  0  0  0  0  0  0  0
    7.2171    0.1861   -0.8475 C   0  0  0  0  0  0  0  0  0  0  0  0
    8.5542    0.3197   -0.4859 C   0  0  0  0  0  0  0  0  0  0  0  0
    8.8785    0.5980    0.8386 C   0  0  0  0  0  0  0  0  0  0  0  0
    7.8494    0.7326    1.7584 C   0  0  0  0  0  0  0  0  0  0  0  0
    6.5409    0.6098    1.4468 N   0  0  0  0  0  0  0  0  0  0  0  0
   -0.2336    0.2649   -1.3441 C   0  0  0  0  0  0  0  0  0  0  0  0
   -1.6048    0.0094   -1.3955 C   0  0  0  0  0  0  0  0  0  0  0  0
   -5.8836   -0.1086   -0.4731 C   0  0  0  0  0  0  0  0  0  0  0  0
   -6.2437   -1.4605   -0.3677 C   0  0  0  0  0  0  0  0  0  0  0  0
   -7.5914   -1.8341   -0.3965 C   0  0  0  0  0  0  0  0  0  0  0  0
   -8.5796   -0.8598   -0.5305 C   0  0  0  0  0  0  0  0  0  0  0  0
  -10.3992   -1.3688   -0.5689 Br  0  0  0  0  0  0  0  0  0  0  0  0
   -8.2353    0.4862   -0.6367 C   0  0  0  0  0  0  0  0  0  0  0  0
   -6.8890    0.8607   -0.6082 C   0  0  0  0  0  0  0  0  0  0  0  0
   -2.0958   -0.9749    1.8373 H   0  0  0  0  0  0  0  0  0  0  0  0
    0.3401   -0.5208    1.9314 H   0  0  0  0  0  0  0  0  0  0  0  0
    2.3428    0.7404   -1.0602 H   0  0  0  0  0  0  0  0  0  0  0  0
    4.4408    0.4722    1.7940 H   0  0  0  0  0  0  0  0  0  0  0  0
    6.9351   -0.0323   -1.8726 H   0  0  0  0  0  0  0  0  0  0  0  0
    9.3367    0.2068   -1.2316 H   0  0  0  0  0  0  0  0  0  0  0  0
    9.9128    0.7071    1.1480 H   0  0  0  0  0  0  0  0  0  0  0  0
    8.0607    0.9494    2.8023 H   0  0  0  0  0  0  0  0  0  0  0  0
    0.2805    0.6043   -2.2398 H   0  0  0  0  0  0  0  0  0  0  0  0
   -2.1501    0.1489   -2.3242 H   0  0  0  0  0  0  0  0  0  0  0  0
   -5.4913   -2.2388   -0.2637 H   0  0  0  0  0  0  0  0  0  0  0  0
   -7.8581   -2.8851   -0.3140 H   0  0  0  0  0  0  0  0  0  0  0  0
   -9.0019    1.2500   -0.7415 H   0  0  0  0  0  0  0  0  0  0  0  0
   -6.6277    1.9149   -0.6915 H   0  0  0  0  0  0  0  0  0  0  0  0
  1  2  2  0
  2  3  1  0
  3  4  1  0
  4  5  2  0
  5  6  1  0
  6  7  2  0
  7  8  1  0
  8  9  2  3
  9 10  1  0
 10 11  1  0
 11 12  2  0
 11 13  1  0
 13 14  2  0
 14 15  1  0
 15 16  2  0
 16 17  1  0
 17 18  2  0
  7 19  1  0
 19 20  2  0
  2 21  1  0
 21 22  2  0
 22 23  1  0
 23 24  2  0
 24 25  1  0
 24 26  1  0
 26 27  2  0
 20  4  1  0
 27 21  1  0
 18 13  1  0
  5 28  1  0
  6 29  1  0
  8 30  1  0
 10 31  1  0
 14 32  1  0
 15 33  1  0
 16 34  1  0
 17 35  1  0
 19 36  1  0
 20 37  1  0
 22 38  1  0
 23 39  1  0
 26 40  1  0
 27 41  1  0
M  END
$$$$
