
     RDKit          3D

 55 57  0  0  0  0  0  0  0  0999 V2000
    7.8955    0.8682   -0.3018 C   0  0  0  0  0  0  0  0  0  0  0  0
    7.3282   -0.5360   -0.2267 C   0  0  0  0  0  0  0  0  0  0  0  0
    6.3608   -0.6301    0.8111 O   0  0  0  0  0  0  0  0  0  0  0  0
    5.0425   -0.4080    0.5260 C   0  0  0  0  0  0  0  0  0  0  0  0
    4.5585    0.1117   -0.6761 C   0  0  0  0  0  0  0  0  0  0  0  0
    3.1835    0.2951   -0.8649 C   0  0  0  0  0  0  0  0  0  0  0  0
    2.2662   -0.0278    0.1469 C   0  0  0  0  0  0  0  0  0  0  0  0
    0.8037    0.1934   -0.1223 C   0  0  0  0  0  0  0  0  0  0  0  0
    0.4787    0.6928   -1.1979 O   0  0  0  0  0  0  0  0  0  0  0  0
   -0.2272   -0.2023    0.9118 C   0  0  0  0  0  0  0  0  0  0  0  0
   -0.3736    0.7843    2.0224 C   0  0  0  0  0  0  0  0  0  0  0  0
    0.5277    1.3606    2.6107 O   0  0  0  0  0  0  0  0  0  0  0  0
   -1.8454    0.9344    2.3669 C   0  0  0  0  0  0  0  0  0  0  0  0
   -2.2732    1.5943    3.2890 O   0  0  0  0  0  0  0  0  0  0  0  0
   -2.5459    0.2048    1.4269 N   0  0  0  0  0  0  0  0  0  0  0  0
   -3.9698    0.4752    1.2192 C   0  0  0  0  0  0  0  0  0  0  0  0
   -4.2664    1.8656    0.6082 C   0  0  0  0  0  0  0  0  0  0  0  0
   -3.7927    1.9856   -0.7847 N   0  0  0  0  0  0  0  0  0  0  0  0
   -4.8180    1.5565   -1.7369 C   0  0  0  0  0  0  0  0  0  0  0  0
   -3.3653    3.3395   -1.0830 C   0  0  0  0  0  0  0  0  0  0  0  0
   -1.6609   -0.1944    0.3374 C   0  0  0  0  0  0  0  0  0  0  0  0
   -2.0080   -1.5454   -0.2554 C   0  0  0  0  0  0  0  0  0  0  0  0
   -2.2841   -2.6667    0.5447 C   0  0  0  0  0  0  0  0  0  0  0  0
   -2.5375   -3.9121   -0.0376 C   0  0  0  0  0  0  0  0  0  0  0  0
   -2.5321   -4.0528   -1.4226 C   0  0  0  0  0  0  0  0  0  0  0  0
   -2.2717   -2.9464   -2.2277 C   0  0  0  0  0  0  0  0  0  0  0  0
   -2.0098   -1.6998   -1.6542 C   0  0  0  0  0  0  0  0  0  0  0  0
    2.7471   -0.5284    1.3484 C   0  0  0  0  0  0  0  0  0  0  0  0
    4.1204   -0.7174    1.5390 C   0  0  0  0  0  0  0  0  0  0  0  0
    4.6344   -1.3606    3.0661 Cl  0  0  0  0  0  0  0  0  0  0  0  0
    8.3965    1.1204    0.6384 H   0  0  0  0  0  0  0  0  0  0  0  0
    8.6243    0.9476   -1.1186 H   0  0  0  0  0  0  0  0  0  0  0  0
    7.1025    1.6163   -0.4402 H   0  0  0  0  0  0  0  0  0  0  0  0
    8.1394   -1.2270    0.0349 H   0  0  0  0  0  0  0  0  0  0  0  0
    6.9366   -0.8807   -1.1905 H   0  0  0  0  0  0  0  0  0  0  0  0
    5.2206    0.3961   -1.4918 H   0  0  0  0  0  0  0  0  0  0  0  0
    2.8303    0.6884   -1.8115 H   0  0  0  0  0  0  0  0  0  0  0  0
    0.0171   -1.1784    1.3495 H   0  0  0  0  0  0  0  0  0  0  0  0
   -4.4004   -0.3262    0.6162 H   0  0  0  0  0  0  0  0  0  0  0  0
   -4.4459    0.4240    2.2038 H   0  0  0  0  0  0  0  0  0  0  0  0
   -5.3365    2.0694    0.6687 H   0  0  0  0  0  0  0  0  0  0  0  0
   -3.7849    2.6170    1.2369 H   0  0  0  0  0  0  0  0  0  0  0  0
   -5.6973    2.2159   -1.7304 H   0  0  0  0  0  0  0  0  0  0  0  0
   -4.4085    1.5357   -2.7581 H   0  0  0  0  0  0  0  0  0  0  0  0
   -5.1523    0.5392   -1.5225 H   0  0  0  0  0  0  0  0  0  0  0  0
   -2.9616    3.3835   -2.0972 H   0  0  0  0  0  0  0  0  0  0  0  0
   -4.1743    4.0638   -0.9891 H   0  0  0  0  0  0  0  0  0  0  0  0
   -2.5640    3.6369   -0.4017 H   0  0  0  0  0  0  0  0  0  0  0  0
   -1.7501    0.5770   -0.4323 H   0  0  0  0  0  0  0  0  0  0  0  0
   -2.2927   -2.5802    1.6298 H   0  0  0  0  0  0  0  0  0  0  0  0
   -2.7555   -4.7753    0.5961 H   0  0  0  0  0  0  0  0  0  0  0  0
   -2.7265   -5.0220   -1.8770 H   0  0  0  0  0  0  0  0  0  0  0  0
   -2.2578   -3.0530   -3.3160 H   0  0  0  0  0  0  0  0  0  0  0  0
   -1.8053   -0.8490   -2.2969 H   0  0  0  0  0  0  0  0  0  0  0  0
    2.0806   -0.7732    2.1703 H   0  0  0  0  0  0  0  0  0  0  0  0
  1  2  1  0
  2  3  1  0
  3  4  1  0
  4  5  2  0
  5  6  1  0
  6  7  2  0
  7  8  1  0
  8  9  2  0
  8 10  1  0
 10 11  1  0
 11 12  2  0
 11 13  1  0
 13 14  2  0
 13 15  1  0
 15 16  1  0
 16 17  1  0
 17 18  1  0
 18 19  1  0
 18 20  1  0
 15 21  1  0
 21 22  1  0
 22 23  2  0
 23 24  1  0
 24 25  2  0
 25 26  1  0
 26 27  2  0
  7 28  1  0
 28 29  2  0
 29 30  1  0
 29  4  1  0
 21 10  1  0
 27 22  1  0
  1 31  1  0
  1 32  1  0
  1 33  1  0
  2 34  1  0
  2 35  1  0
  5 36  1  0
  6 37  1  0
 10 38  1  0
 16 39  1  0
 16 40  1  0
 17 41  1  0
 17 42  1  0
 19 43  1  0
 19 44  1  0
 19 45  1  0
 20 46  1  0
 20 47  1  0
 20 48  1  0
 21 49  1  0
 23 50  1  0
 24 51  1  0
 25 52  1  0
 26 53  1  0
 27 54  1  0
 28 55  1  0
M  END
$$$$
