
     RDKit          3D

 49 51  0  0  0  0  0  0  0  0999 V2000
   -0.8054    3.8788    1.4933 N   0  0  0  0  0  0  0  0  0  0  0  0
    0.2086    3.1898    2.0480 C   0  0  0  0  0  0  0  0  0  0  0  0
    0.8433    3.6153    3.0977 N   0  0  0  0  0  0  0  0  0  0  0  0
    1.8584    2.5645    3.3616 C   0  0  0  0  0  0  0  0  0  0  0  0
    1.6072    1.4194    2.3540 C   0  0  0  0  0  0  0  0  0  0  0  0
    2.8952    1.0739    1.5897 C   0  0  0  0  0  0  0  0  0  0  0  0
    2.8096   -0.1448    0.6965 C   0  0  0  0  0  0  0  0  0  0  0  0
    3.0977   -0.0325   -0.6726 C   0  0  0  0  0  0  0  0  0  0  0  0
    3.0342   -1.1513   -1.5045 C   0  0  0  0  0  0  0  0  0  0  0  0
    2.6804   -2.3854   -0.9727 C   0  0  0  0  0  0  0  0  0  0  0  0
    2.5972   -3.4430   -1.8281 O   0  0  0  0  0  0  0  0  0  0  0  0
    2.4089   -2.5257    0.3847 C   0  0  0  0  0  0  0  0  0  0  0  0
    2.4849   -1.4073    1.2195 C   0  0  0  0  0  0  0  0  0  0  0  0
    0.5745    2.0032    1.4839 N   0  0  0  0  0  0  0  0  0  0  0  0
   -0.4135    1.0776    0.9190 C   0  0  0  0  0  0  0  0  0  0  0  0
   -0.5740    1.2854   -0.5896 C   0  0  0  0  0  0  0  0  0  0  0  0
   -1.4919    0.2491   -1.1965 C   0  0  0  0  0  0  0  0  0  0  0  0
   -0.9679   -0.9443   -1.7108 C   0  0  0  0  0  0  0  0  0  0  0  0
   -1.8050   -1.9346   -2.2466 C   0  0  0  0  0  0  0  0  0  0  0  0
   -1.2056   -3.2134   -2.7838 C   0  0  0  0  0  0  0  0  0  0  0  0
   -2.1342   -4.0629   -3.3080 F   0  0  0  0  0  0  0  0  0  0  0  0
   -0.5544   -3.9292   -1.8229 F   0  0  0  0  0  0  0  0  0  0  0  0
   -0.2988   -2.9958   -3.7748 F   0  0  0  0  0  0  0  0  0  0  0  0
   -3.1910   -1.7119   -2.2618 C   0  0  0  0  0  0  0  0  0  0  0  0
   -3.7400   -0.5245   -1.7468 C   0  0  0  0  0  0  0  0  0  0  0  0
   -5.2328   -0.2954   -1.7897 C   0  0  0  0  0  0  0  0  0  0  0  0
   -5.9451   -1.4120   -1.4710 F   0  0  0  0  0  0  0  0  0  0  0  0
   -5.6624    0.0837   -3.0239 F   0  0  0  0  0  0  0  0  0  0  0  0
   -5.6559    0.6727   -0.9304 F   0  0  0  0  0  0  0  0  0  0  0  0
   -2.8786    0.4502   -1.2184 C   0  0  0  0  0  0  0  0  0  0  0  0
   -0.8851    4.7827    1.9486 H   0  0  0  0  0  0  0  0  0  0  0  0
   -0.6812    4.0059    0.4982 H   0  0  0  0  0  0  0  0  0  0  0  0
    2.8585    3.0011    3.2624 H   0  0  0  0  0  0  0  0  0  0  0  0
    1.7509    2.2015    4.3893 H   0  0  0  0  0  0  0  0  0  0  0  0
    1.2153    0.5538    2.9017 H   0  0  0  0  0  0  0  0  0  0  0  0
    3.2080    1.9424    0.9949 H   0  0  0  0  0  0  0  0  0  0  0  0
    3.7056    0.8892    2.3073 H   0  0  0  0  0  0  0  0  0  0  0  0
    3.3715    0.9286   -1.1029 H   0  0  0  0  0  0  0  0  0  0  0  0
    3.2538   -1.0586   -2.5642 H   0  0  0  0  0  0  0  0  0  0  0  0
    2.3277   -4.2321   -1.3280 H   0  0  0  0  0  0  0  0  0  0  0  0
    2.1418   -3.4889    0.8081 H   0  0  0  0  0  0  0  0  0  0  0  0
    2.2883   -1.5318    2.2823 H   0  0  0  0  0  0  0  0  0  0  0  0
   -0.1108    0.0404    1.1045 H   0  0  0  0  0  0  0  0  0  0  0  0
   -1.3786    1.1939    1.4296 H   0  0  0  0  0  0  0  0  0  0  0  0
   -0.9702    2.2833   -0.8092 H   0  0  0  0  0  0  0  0  0  0  0  0
    0.4027    1.2462   -1.0871 H   0  0  0  0  0  0  0  0  0  0  0  0
    0.1086   -1.1104   -1.6969 H   0  0  0  0  0  0  0  0  0  0  0  0
   -3.8555   -2.4712   -2.6782 H   0  0  0  0  0  0  0  0  0  0  0  0
   -3.2950    1.3746   -0.8160 H   0  0  0  0  0  0  0  0  0  0  0  0
  1  2  1  0
  2  3  2  0
  3  4  1  0
  4  5  1  0
  5  6  1  0
  6  7  1  0
  7  8  2  0
  8  9  1  0
  9 10  2  0
 10 11  1  0
 10 12  1  0
 12 13  2  0
  5 14  1  0
 14 15  1  0
 15 16  1  0
 16 17  1  0
 17 18  2  0
 18 19  1  0
 19 20  1  0
 20 21  1  0
 20 22  1  0
 20 23  1  0
 19 24  2  0
 24 25  1  0
 25 26  1  0
 26 27  1  0
 26 28  1  0
 26 29  1  0
 25 30  2  0
 14  2  1  0
 30 17  1  0
 13  7  1  0
  1 31  1  0
  1 32  1  0
  4 33  1  0
  4 34  1  0
  5 35  1  0
  6 36  1  0
  6 37  1  0
  8 38  1  0
  9 39  1  0
 11 40  1  0
 12 41  1  0
 13 42  1  0
 15 43  1  0
 15 44  1  0
 16 45  1  0
 16 46  1  0
 18 47  1  0
 24 48  1  0
 30 49  1  0
M  END
$$$$
