
     RDKit          3D

 45 47  0  0  0  0  0  0  0  0999 V2000
   -2.8216   -3.0989    1.0600 O   0  0  0  0  0  0  0  0  0  0  0  0
   -2.8015   -2.3424    0.0925 C   0  0  0  0  0  0  0  0  0  0  0  0
   -1.9805   -2.6467   -1.1628 C   0  0  0  0  0  0  0  0  0  0  0  0
   -0.6519   -2.1252   -1.0906 O   0  0  0  0  0  0  0  0  0  0  0  0
   -0.5466   -0.7753   -1.2670 C   0  0  0  0  0  0  0  0  0  0  0  0
   -1.4968   -0.0475   -1.5260 O   0  0  0  0  0  0  0  0  0  0  0  0
    0.9058   -0.3690   -1.1213 C   0  0  0  0  0  0  0  0  0  0  0  0
    1.0789    1.4217   -0.8319 S   0  0  0  0  0  0  0  0  0  0  0  0
    2.8570    1.5188   -0.7444 C   0  0  0  0  0  0  0  0  0  0  0  0
    3.5589    2.1998   -1.7392 C   0  0  0  0  0  0  0  0  0  0  0  0
    4.9534    2.2735   -1.6915 C   0  0  0  0  0  0  0  0  0  0  0  0
    5.6676    1.6741   -0.6430 C   0  0  0  0  0  0  0  0  0  0  0  0
    7.0693    1.7352   -0.5826 C   0  0  0  0  0  0  0  0  0  0  0  0
    7.7644    1.1368    0.4694 C   0  0  0  0  0  0  0  0  0  0  0  0
    7.0672    0.4710    1.4741 C   0  0  0  0  0  0  0  0  0  0  0  0
    5.6734    0.4020    1.4293 C   0  0  0  0  0  0  0  0  0  0  0  0
    4.9595    0.9969    0.3764 C   0  0  0  0  0  0  0  0  0  0  0  0
    3.5576    0.9331    0.3153 C   0  0  0  0  0  0  0  0  0  0  0  0
   -3.4918   -1.1474    0.0374 N   0  0  0  0  0  0  0  0  0  0  0  0
   -4.1991   -0.6306    1.1983 C   0  0  0  0  0  0  0  0  0  0  0  0
   -5.4876   -1.4020    1.4872 C   0  0  0  0  0  0  0  0  0  0  0  0
   -6.5080   -0.8307    0.5045 C   0  0  0  0  0  0  0  0  0  0  0  0
   -6.0277    0.5827    0.1716 C   0  0  0  0  0  0  0  0  0  0  0  0
   -4.7250    0.7811    0.9448 C   0  0  0  0  0  0  0  0  0  0  0  0
   -1.9070   -3.7351   -1.2602 H   0  0  0  0  0  0  0  0  0  0  0  0
   -2.4963   -2.2886   -2.0620 H   0  0  0  0  0  0  0  0  0  0  0  0
    1.4349   -0.6469   -2.0374 H   0  0  0  0  0  0  0  0  0  0  0  0
    1.3324   -0.9062   -0.2688 H   0  0  0  0  0  0  0  0  0  0  0  0
    3.0302    2.6760   -2.5615 H   0  0  0  0  0  0  0  0  0  0  0  0
    5.4791    2.8057   -2.4815 H   0  0  0  0  0  0  0  0  0  0  0  0
    7.6323    2.2525   -1.3570 H   0  0  0  0  0  0  0  0  0  0  0  0
    8.8500    1.1919    0.5040 H   0  0  0  0  0  0  0  0  0  0  0  0
    7.6071    0.0055    2.2944 H   0  0  0  0  0  0  0  0  0  0  0  0
    5.1478   -0.1228    2.2251 H   0  0  0  0  0  0  0  0  0  0  0  0
    3.0112    0.4278    1.1075 H   0  0  0  0  0  0  0  0  0  0  0  0
   -3.1337   -0.4666   -0.6364 H   0  0  0  0  0  0  0  0  0  0  0  0
   -3.5116   -0.6586    2.0518 H   0  0  0  0  0  0  0  0  0  0  0  0
   -5.8176   -1.1928    2.5125 H   0  0  0  0  0  0  0  0  0  0  0  0
   -5.3913   -2.4858    1.3839 H   0  0  0  0  0  0  0  0  0  0  0  0
   -7.5165   -0.8310    0.9302 H   0  0  0  0  0  0  0  0  0  0  0  0
   -6.5386   -1.4363   -0.4091 H   0  0  0  0  0  0  0  0  0  0  0  0
   -5.8518    0.6721   -0.9071 H   0  0  0  0  0  0  0  0  0  0  0  0
   -6.7693    1.3408    0.4450 H   0  0  0  0  0  0  0  0  0  0  0  0
   -4.0203    1.4193    0.4010 H   0  0  0  0  0  0  0  0  0  0  0  0
   -4.9458    1.2683    1.9029 H   0  0  0  0  0  0  0  0  0  0  0  0
  1  2  2  0
  2  3  1  0
  3  4  1  0
  4  5  1  0
  5  6  2  0
  5  7  1  0
  7  8  1  0
  8  9  1  0
  9 10  2  0
 10 11  1  0
 11 12  2  0
 12 13  1  0
 13 14  2  0
 14 15  1  0
 15 16  2  0
 16 17  1  0
 17 18  2  0
  2 19  1  0
 19 20  1  0
 20 21  1  0
 21 22  1  0
 22 23  1  0
 23 24  1  0
 18  9  1  0
 24 20  1  0
 17 12  1  0
  3 25  1  0
  3 26  1  0
  7 27  1  0
  7 28  1  0
 10 29  1  0
 11 30  1  0
 13 31  1  0
 14 32  1  0
 15 33  1  0
 16 34  1  0
 18 35  1  0
 19 36  1  0
 20 37  1  0
 21 38  1  0
 21 39  1  0
 22 40  1  0
 22 41  1  0
 23 42  1  0
 23 43  1  0
 24 44  1  0
 24 45  1  0
M  END
$$$$
