
     RDKit          3D

 62 65  0  0  0  0  0  0  0  0999 V2000
   -1.6880   -3.5506    3.3472 C   0  0  0  0  0  0  0  0  0  0  0  0
   -2.9960   -2.8300    3.0569 C   0  0  0  0  0  0  0  0  0  0  0  0
   -2.8785   -1.8746    1.8793 C   0  0  0  0  0  0  0  0  0  0  0  0
   -1.8165   -1.7394    1.2670 O   0  0  0  0  0  0  0  0  0  0  0  0
   -4.0258   -1.1653    1.5248 N   0  0  0  0  0  0  0  0  0  0  0  0
   -5.2316   -1.1067    2.3391 C   0  0  0  0  0  0  0  0  0  0  0  0
   -3.9117   -0.1801    0.4468 C   0  0  0  0  0  0  0  0  0  0  0  0
   -3.2947    1.1379    0.9224 C   0  0  0  0  0  0  0  0  0  0  0  0
   -3.0026    2.0858   -0.2214 C   0  0  0  0  0  0  0  0  0  0  0  0
   -3.9782    3.0356   -0.5703 C   0  0  0  0  0  0  0  0  0  0  0  0
   -3.7100    3.9081   -1.6052 C   0  0  0  0  0  0  0  0  0  0  0  0
   -2.5291    3.8725   -2.3035 C   0  0  0  0  0  0  0  0  0  0  0  0
   -1.5415    2.9567   -1.9975 C   0  0  0  0  0  0  0  0  0  0  0  0
   -0.4307    2.8556   -2.7811 O   0  0  0  0  0  0  0  0  0  0  0  0
    0.5029    3.8881   -2.4798 C   0  0  0  0  0  0  0  0  0  0  0  0
   -1.7804    2.0515   -0.9482 C   0  0  0  0  0  0  0  0  0  0  0  0
   -0.7586    1.0498   -0.5829 C   0  0  0  0  0  0  0  0  0  0  0  0
    0.5024    1.3290   -0.5259 N   0  0  0  0  0  0  0  0  0  0  0  0
    1.2959    0.2983   -0.1146 N   0  0  0  0  0  0  0  0  0  0  0  0
    2.6695    0.4267   -0.1421 C   0  0  0  0  0  0  0  0  0  0  0  0
    3.2989    1.4025   -0.5306 O   0  0  0  0  0  0  0  0  0  0  0  0
    3.4271   -0.7414    0.3816 C   0  0  0  0  0  0  0  0  0  0  0  0
    2.9264   -2.1568    0.4622 C   0  0  0  0  0  0  0  0  0  0  0  0
    3.9066   -1.7808   -0.6211 C   0  0  0  0  0  0  0  0  0  0  0  0
    5.3479   -2.2213   -0.5670 C   0  0  0  0  0  0  0  0  0  0  0  0
    6.3825   -1.3065   -0.8097 C   0  0  0  0  0  0  0  0  0  0  0  0
    7.7206   -1.6939   -0.7728 C   0  0  0  0  0  0  0  0  0  0  0  0
    8.0518   -3.0131   -0.4922 C   0  0  0  0  0  0  0  0  0  0  0  0
    7.0457   -3.9451   -0.2611 C   0  0  0  0  0  0  0  0  0  0  0  0
    5.7089   -3.5510   -0.3020 C   0  0  0  0  0  0  0  0  0  0  0  0
   -2.4955    4.8026   -3.2992 O   0  0  0  0  0  0  0  0  0  0  0  0
   -3.7708    5.4440   -3.1245 C   0  0  0  0  0  0  0  0  0  0  0  0
   -4.5560    4.8675   -2.0624 O   0  0  0  0  0  0  0  0  0  0  0  0
   -0.8899   -2.8381    3.5773 H   0  0  0  0  0  0  0  0  0  0  0  0
   -1.3696   -4.1447    2.4872 H   0  0  0  0  0  0  0  0  0  0  0  0
   -1.8048   -4.2229    4.2014 H   0  0  0  0  0  0  0  0  0  0  0  0
   -3.7637   -3.5778    2.8253 H   0  0  0  0  0  0  0  0  0  0  0  0
   -3.2964   -2.2637    3.9458 H   0  0  0  0  0  0  0  0  0  0  0  0
   -5.1610   -0.2438    3.0044 H   0  0  0  0  0  0  0  0  0  0  0  0
   -6.1014   -0.9990    1.6871 H   0  0  0  0  0  0  0  0  0  0  0  0
   -5.3702   -2.0060    2.9392 H   0  0  0  0  0  0  0  0  0  0  0  0
   -3.3094   -0.6197   -0.3536 H   0  0  0  0  0  0  0  0  0  0  0  0
   -4.9031   -0.0115    0.0178 H   0  0  0  0  0  0  0  0  0  0  0  0
   -3.9777    1.6211    1.6308 H   0  0  0  0  0  0  0  0  0  0  0  0
   -2.3830    0.9619    1.5031 H   0  0  0  0  0  0  0  0  0  0  0  0
   -4.9237    3.0953   -0.0452 H   0  0  0  0  0  0  0  0  0  0  0  0
    1.4708    3.6028   -2.8995 H   0  0  0  0  0  0  0  0  0  0  0  0
    0.6285    4.0301   -1.4024 H   0  0  0  0  0  0  0  0  0  0  0  0
    0.1965    4.8266   -2.9521 H   0  0  0  0  0  0  0  0  0  0  0  0
   -1.1265    0.0429   -0.3341 H   0  0  0  0  0  0  0  0  0  0  0  0
    0.8601   -0.5370    0.2626 H   0  0  0  0  0  0  0  0  0  0  0  0
    4.1250   -0.4502    1.1637 H   0  0  0  0  0  0  0  0  0  0  0  0
    1.9186   -2.4037    0.1559 H   0  0  0  0  0  0  0  0  0  0  0  0
    3.2786   -2.7564    1.2976 H   0  0  0  0  0  0  0  0  0  0  0  0
    3.4894   -1.7135   -1.6263 H   0  0  0  0  0  0  0  0  0  0  0  0
    6.1341   -0.2721   -1.0368 H   0  0  0  0  0  0  0  0  0  0  0  0
    8.5013   -0.9619   -0.9621 H   0  0  0  0  0  0  0  0  0  0  0  0
    9.0901   -3.3143   -0.4575 H   0  0  0  0  0  0  0  0  0  0  0  0
    7.2988   -4.9785   -0.0512 H   0  0  0  0  0  0  0  0  0  0  0  0
    4.9352   -4.2924   -0.1263 H   0  0  0  0  0  0  0  0  0  0  0  0
   -3.6021    6.5037   -2.9036 H   0  0  0  0  0  0  0  0  0  0  0  0
   -4.3349    5.3674   -4.0603 H   0  0  0  0  0  0  0  0  0  0  0  0
  1  2  1  0
  2  3  1  0
  3  4  2  0
  3  5  1  0
  5  6  1  0
  5  7  1  0
  7  8  1  0
  8  9  1  0
  9 10  2  0
 10 11  1  0
 11 12  2  0
 12 13  1  0
 13 14  1  0
 14 15  1  0
 13 16  2  0
 16 17  1  0
 17 18  2  3
 18 19  1  0
 19 20  1  0
 20 21  2  0
 20 22  1  0
 22 23  1  0
 23 24  1  0
 24 25  1  0
 25 26  2  0
 26 27  1  0
 27 28  2  0
 28 29  1  0
 29 30  2  0
 12 31  1  0
 31 32  1  0
 32 33  1  0
 16  9  1  0
 24 22  1  0
 30 25  1  0
 33 11  1  0
  1 34  1  0
  1 35  1  0
  1 36  1  0
  2 37  1  0
  2 38  1  0
  6 39  1  0
  6 40  1  0
  6 41  1  0
  7 42  1  0
  7 43  1  0
  8 44  1  0
  8 45  1  0
 10 46  1  0
 15 47  1  0
 15 48  1  0
 15 49  1  0
 17 50  1  0
 19 51  1  0
 22 52  1  0
 23 53  1  0
 23 54  1  0
 24 55  1  0
 26 56  1  0
 27 57  1  0
 28 58  1  0
 29 59  1  0
 30 60  1  0
 32 61  1  0
 32 62  1  0
M  END
$$$$
