
     RDKit          3D

 50 53  0  0  0  0  0  0  0  0999 V2000
    1.3274    4.2604   -0.5569 C   0  0  0  0  0  0  0  0  0  0  0  0
    0.9273    3.3129    0.5642 C   0  0  0  0  0  0  0  0  0  0  0  0
    0.4363    1.9855    0.0345 C   0  0  0  0  0  0  0  0  0  0  0  0
    1.3619    0.9313   -0.0687 C   0  0  0  0  0  0  0  0  0  0  0  0
    0.9863   -0.3257   -0.5550 C   0  0  0  0  0  0  0  0  0  0  0  0
    1.9464   -1.4355   -0.6724 C   0  0  0  0  0  0  0  0  0  0  0  0
    3.3732   -1.3858   -0.2997 C   0  0  0  0  0  0  0  0  0  0  0  0
    4.3425   -1.0590   -1.2565 C   0  0  0  0  0  0  0  0  0  0  0  0
    5.6914   -1.0117   -0.9007 C   0  0  0  0  0  0  0  0  0  0  0  0
    6.0779   -1.2906    0.4098 C   0  0  0  0  0  0  0  0  0  0  0  0
    5.1178   -1.6170    1.3670 C   0  0  0  0  0  0  0  0  0  0  0  0
    3.7681   -1.6654    1.0147 C   0  0  0  0  0  0  0  0  0  0  0  0
    1.5053   -2.6085   -1.1520 C   0  0  0  0  0  0  0  0  0  0  0  0
    0.1167   -2.8357   -1.5670 C   0  0  0  0  0  0  0  0  0  0  0  0
   -0.2414   -3.9275   -1.9928 O   0  0  0  0  0  0  0  0  0  0  0  0
   -0.7517   -1.7663   -1.4518 O   0  0  0  0  0  0  0  0  0  0  0  0
   -0.3428   -0.5154   -0.9362 C   0  0  0  0  0  0  0  0  0  0  0  0
   -1.3113    0.5008   -0.8424 C   0  0  0  0  0  0  0  0  0  0  0  0
   -2.7497    0.2530   -1.2599 C   0  0  0  0  0  0  0  0  0  0  0  0
   -3.6866   -0.2517   -0.2425 N   0  0  0  0  0  0  0  0  0  0  0  0
   -3.8914    0.6715    0.8847 C   0  0  0  0  0  0  0  0  0  0  0  0
   -4.9601    0.1283    1.8480 C   0  0  0  0  0  0  0  0  0  0  0  0
   -4.6089   -1.1733    2.3391 O   0  0  0  0  0  0  0  0  0  0  0  0
   -4.4486   -2.0833    1.2410 C   0  0  0  0  0  0  0  0  0  0  0  0
   -3.3665   -1.5948    0.2633 C   0  0  0  0  0  0  0  0  0  0  0  0
   -0.8900    1.7578   -0.3723 C   0  0  0  0  0  0  0  0  0  0  0  0
   -1.8243    2.7585   -0.3336 O   0  0  0  0  0  0  0  0  0  0  0  0
    1.6827    5.2086   -0.1412 H   0  0  0  0  0  0  0  0  0  0  0  0
    0.4849    4.4768   -1.2217 H   0  0  0  0  0  0  0  0  0  0  0  0
    2.1325    3.8346   -1.1655 H   0  0  0  0  0  0  0  0  0  0  0  0
    1.7892    3.1519    1.2242 H   0  0  0  0  0  0  0  0  0  0  0  0
    0.1624    3.7728    1.2004 H   0  0  0  0  0  0  0  0  0  0  0  0
    2.3930    1.1069    0.2353 H   0  0  0  0  0  0  0  0  0  0  0  0
    4.0532   -0.8383   -2.2816 H   0  0  0  0  0  0  0  0  0  0  0  0
    6.4412   -0.7586   -1.6461 H   0  0  0  0  0  0  0  0  0  0  0  0
    7.1291   -1.2551    0.6852 H   0  0  0  0  0  0  0  0  0  0  0  0
    5.4207   -1.8358    2.3879 H   0  0  0  0  0  0  0  0  0  0  0  0
    3.0282   -1.9206    1.7703 H   0  0  0  0  0  0  0  0  0  0  0  0
    2.1541   -3.4714   -1.2623 H   0  0  0  0  0  0  0  0  0  0  0  0
   -3.1652    1.1759   -1.6861 H   0  0  0  0  0  0  0  0  0  0  0  0
   -2.7606   -0.4353   -2.1157 H   0  0  0  0  0  0  0  0  0  0  0  0
   -2.9592    0.8033    1.4468 H   0  0  0  0  0  0  0  0  0  0  0  0
   -4.2194    1.6510    0.5198 H   0  0  0  0  0  0  0  0  0  0  0  0
   -5.9430    0.0779    1.3638 H   0  0  0  0  0  0  0  0  0  0  0  0
   -5.0506    0.7934    2.7129 H   0  0  0  0  0  0  0  0  0  0  0  0
   -5.4132   -2.2115    0.7350 H   0  0  0  0  0  0  0  0  0  0  0  0
   -4.1604   -3.0541    1.6567 H   0  0  0  0  0  0  0  0  0  0  0  0
   -3.3007   -2.3077   -0.5659 H   0  0  0  0  0  0  0  0  0  0  0  0
   -2.4066   -1.5861    0.7930 H   0  0  0  0  0  0  0  0  0  0  0  0
   -1.3975    3.6087   -0.1512 H   0  0  0  0  0  0  0  0  0  0  0  0
  1  2  1  0
  2  3  1  0
  3  4  2  0
  4  5  1  0
  5  6  1  0
  6  7  1  0
  7  8  2  0
  8  9  1  0
  9 10  2  0
 10 11  1  0
 11 12  2  0
  6 13  2  0
 13 14  1  0
 14 15  2  0
 14 16  1  0
 16 17  1  0
 17 18  1  0
 18 19  1  0
 19 20  1  0
 20 21  1  0
 21 22  1  0
 22 23  1  0
 23 24  1  0
 24 25  1  0
 18 26  2  0
 26 27  1  0
 26  3  1  0
 17  5  2  0
 25 20  1  0
 12  7  1  0
  1 28  1  0
  1 29  1  0
  1 30  1  0
  2 31  1  0
  2 32  1  0
  4 33  1  0
  8 34  1  0
  9 35  1  0
 10 36  1  0
 11 37  1  0
 12 38  1  0
 13 39  1  0
 19 40  1  0
 19 41  1  0
 21 42  1  0
 21 43  1  0
 22 44  1  0
 22 45  1  0
 24 46  1  0
 24 47  1  0
 25 48  1  0
 25 49  1  0
 27 50  1  0
M  END
$$$$
