
     RDKit          3D

 37 38  0  0  0  0  0  0  0  0999 V2000
    5.6289    1.4171   -0.3487 C   0  0  0  0  0  0  0  0  0  0  0  0
    4.2103    1.3311   -0.2953 O   0  0  0  0  0  0  0  0  0  0  0  0
    3.6524    0.0828   -0.1951 C   0  0  0  0  0  0  0  0  0  0  0  0
    4.3849   -1.0665    0.1337 C   0  0  0  0  0  0  0  0  0  0  0  0
    3.7714   -2.3201    0.1659 C   0  0  0  0  0  0  0  0  0  0  0  0
    2.4160   -2.4374   -0.1236 C   0  0  0  0  0  0  0  0  0  0  0  0
    1.6609   -1.2951   -0.4224 C   0  0  0  0  0  0  0  0  0  0  0  0
    0.2241   -1.5056   -0.7094 C   0  0  0  0  0  0  0  0  0  0  0  0
   -0.1797   -2.4584   -1.3618 O   0  0  0  0  0  0  0  0  0  0  0  0
   -0.5040   -0.5689   -0.0337 O   0  0  0  0  0  0  0  0  0  0  0  0
   -1.8805   -0.7805   -0.2483 N   0  0  0  0  0  0  0  0  0  0  0  0
   -2.6005    0.0798    0.4082 C   0  0  0  0  0  0  0  0  0  0  0  0
   -2.0579    1.0493    1.2234 N   0  0  0  0  0  0  0  0  0  0  0  0
   -4.0889   -0.0106    0.2770 C   0  0  0  0  0  0  0  0  0  0  0  0
   -4.9028    1.0614    0.6429 C   0  0  0  0  0  0  0  0  0  0  0  0
   -6.2715    0.9137    0.5023 C   0  0  0  0  0  0  0  0  0  0  0  0
   -6.8626   -0.2062    0.0349 N   0  0  0  0  0  0  0  0  0  0  0  0
   -6.0488   -1.2219   -0.3267 C   0  0  0  0  0  0  0  0  0  0  0  0
   -4.6707   -1.1740   -0.2274 C   0  0  0  0  0  0  0  0  0  0  0  0
    2.2694   -0.0281   -0.4496 C   0  0  0  0  0  0  0  0  0  0  0  0
    1.4913    1.0344   -0.8412 O   0  0  0  0  0  0  0  0  0  0  0  0
    1.5796    2.1813    0.0007 C   0  0  0  0  0  0  0  0  0  0  0  0
    6.0715    1.1648    0.6202 H   0  0  0  0  0  0  0  0  0  0  0  0
    5.8916    2.4555   -0.5728 H   0  0  0  0  0  0  0  0  0  0  0  0
    6.0385    0.7904   -1.1480 H   0  0  0  0  0  0  0  0  0  0  0  0
    5.4459   -1.0214    0.3596 H   0  0  0  0  0  0  0  0  0  0  0  0
    4.3543   -3.2066    0.4054 H   0  0  0  0  0  0  0  0  0  0  0  0
    1.9440   -3.4187   -0.1159 H   0  0  0  0  0  0  0  0  0  0  0  0
   -2.5535    1.2011    2.0947 H   0  0  0  0  0  0  0  0  0  0  0  0
   -1.0700    0.8774    1.3822 H   0  0  0  0  0  0  0  0  0  0  0  0
   -4.4947    1.9976    1.0031 H   0  0  0  0  0  0  0  0  0  0  0  0
   -6.9519    1.7188    0.7652 H   0  0  0  0  0  0  0  0  0  0  0  0
   -6.5506   -2.1049   -0.7123 H   0  0  0  0  0  0  0  0  0  0  0  0
   -4.0695   -2.0229   -0.5369 H   0  0  0  0  0  0  0  0  0  0  0  0
    0.5980    2.6654    0.0036 H   0  0  0  0  0  0  0  0  0  0  0  0
    1.8276    1.9287    1.0379 H   0  0  0  0  0  0  0  0  0  0  0  0
    2.2973    2.8974   -0.4097 H   0  0  0  0  0  0  0  0  0  0  0  0
  1  2  1  0
  2  3  1  0
  3  4  2  0
  4  5  1  0
  5  6  2  0
  6  7  1  0
  7  8  1  0
  8  9  2  0
  8 10  1  0
 10 11  1  0
 11 12  2  3
 12 13  1  0
 12 14  1  0
 14 15  2  0
 15 16  1  0
 16 17  2  0
 17 18  1  0
 18 19  2  0
  7 20  2  0
 20 21  1  0
 21 22  1  0
 20  3  1  0
 19 14  1  0
  1 23  1  0
  1 24  1  0
  1 25  1  0
  4 26  1  0
  5 27  1  0
  6 28  1  0
 13 29  1  0
 13 30  1  0
 15 31  1  0
 16 32  1  0
 18 33  1  0
 19 34  1  0
 22 35  1  0
 22 36  1  0
 22 37  1  0
M  END
$$$$
