
     RDKit          3D

 73 75  0  0  0  0  0  0  0  0999 V2000
   11.0906   -0.2294   -0.3466 C   0  0  0  0  0  0  0  0  0  0  0  0
    9.6641   -0.0537   -0.8447 C   0  0  0  0  0  0  0  0  0  0  0  0
    8.7629    0.5289    0.2448 C   0  0  0  0  0  0  0  0  0  0  0  0
    7.3346    0.8170   -0.2307 C   0  0  0  0  0  0  0  0  0  0  0  0
    6.5469   -0.4491   -0.5821 C   0  0  0  0  0  0  0  0  0  0  0  0
    5.1095   -0.1625   -1.0328 C   0  0  0  0  0  0  0  0  0  0  0  0
    4.1903    0.2788    0.1105 C   0  0  0  0  0  0  0  0  0  0  0  0
    2.7713    0.6279   -0.3547 C   0  0  0  0  0  0  0  0  0  0  0  0
    1.9636   -0.5853   -0.8238 C   0  0  0  0  0  0  0  0  0  0  0  0
    0.5833   -0.2144   -1.3844 C   0  0  0  0  0  0  0  0  0  0  0  0
   -0.3462    0.3916   -0.3291 C   0  0  0  0  0  0  0  0  0  0  0  0
   -1.7785    0.6483   -0.8381 N   0  0  0  0  0  4  0  0  0  0  0  0
   -2.4953   -0.6570   -1.1774 C   0  0  0  0  0  0  0  0  0  0  0  0
   -1.7564    1.5172   -2.1054 C   0  0  0  0  0  0  0  0  0  0  0  0
   -2.5846    1.4633    0.2210 C   0  0  0  0  0  0  0  0  0  0  0  0
   -2.7598    0.8056    1.6052 C   0  0  0  0  0  0  0  0  0  0  0  0
   -3.7160   -0.3579    1.7104 C   0  0  0  0  0  0  0  0  0  0  0  0
   -5.0410   -0.4074    1.4377 C   0  0  0  0  0  0  0  0  0  0  0  0
   -5.8051    0.7611    0.9328 C   0  0  0  0  0  0  0  0  0  0  0  0
   -5.8158    1.9937    1.6014 C   0  0  0  0  0  0  0  0  0  0  0  0
   -6.5452    3.0690    1.0898 C   0  0  0  0  0  0  0  0  0  0  0  0
   -7.2888    2.9161   -0.0788 C   0  0  0  0  0  0  0  0  0  0  0  0
   -7.3232    1.6816   -0.7286 C   0  0  0  0  0  0  0  0  0  0  0  0
   -6.6016    0.5964   -0.2191 C   0  0  0  0  0  0  0  0  0  0  0  0
   -6.7381   -0.9905   -1.0480 S   0  0  0  0  0  0  0  0  0  0  0  0
   -6.4973   -2.1049    0.3391 C   0  0  0  0  0  0  0  0  0  0  0  0
   -7.1245   -3.3567    0.3116 C   0  0  0  0  0  0  0  0  0  0  0  0
   -6.9787   -4.2398    1.3840 C   0  0  0  0  0  0  0  0  0  0  0  0
   -6.2122   -3.8698    2.4857 C   0  0  0  0  0  0  0  0  0  0  0  0
   -6.0544   -4.9464    3.8160 Cl  0  0  0  0  0  0  0  0  0  0  0  0
   -5.5712   -2.6308    2.5231 C   0  0  0  0  0  0  0  0  0  0  0  0
   -5.6945   -1.7453    1.4426 C   0  0  0  0  0  0  0  0  0  0  0  0
   11.7183   -0.6471   -1.1399 H   0  0  0  0  0  0  0  0  0  0  0  0
   11.1260   -0.9104    0.5098 H   0  0  0  0  0  0  0  0  0  0  0  0
   11.5218    0.7294   -0.0421 H   0  0  0  0  0  0  0  0  0  0  0  0
    9.6685    0.6075   -1.7190 H   0  0  0  0  0  0  0  0  0  0  0  0
    9.2877   -1.0279   -1.1734 H   0  0  0  0  0  0  0  0  0  0  0  0
    8.7331   -0.1506    1.1051 H   0  0  0  0  0  0  0  0  0  0  0  0
    9.2000    1.4704    0.6012 H   0  0  0  0  0  0  0  0  0  0  0  0
    7.3636    1.4871   -1.0985 H   0  0  0  0  0  0  0  0  0  0  0  0
    6.8218    1.3607    0.5700 H   0  0  0  0  0  0  0  0  0  0  0  0
    6.5373   -1.1364    0.2725 H   0  0  0  0  0  0  0  0  0  0  0  0
    7.0509   -0.9709   -1.4035 H   0  0  0  0  0  0  0  0  0  0  0  0
    4.7161   -1.0827   -1.4785 H   0  0  0  0  0  0  0  0  0  0  0  0
    5.1161    0.5967   -1.8239 H   0  0  0  0  0  0  0  0  0  0  0  0
    4.1440   -0.5051    0.8756 H   0  0  0  0  0  0  0  0  0  0  0  0
    4.6077    1.1682    0.5942 H   0  0  0  0  0  0  0  0  0  0  0  0
    2.8234    1.3748   -1.1554 H   0  0  0  0  0  0  0  0  0  0  0  0
    2.2540    1.1002    0.4881 H   0  0  0  0  0  0  0  0  0  0  0  0
    1.8464   -1.2948    0.0037 H   0  0  0  0  0  0  0  0  0  0  0  0
    2.5084   -1.1098   -1.6166 H   0  0  0  0  0  0  0  0  0  0  0  0
    0.7285    0.4810   -2.2188 H   0  0  0  0  0  0  0  0  0  0  0  0
    0.1417   -1.1269   -1.7991 H   0  0  0  0  0  0  0  0  0  0  0  0
   -0.4249   -0.2865    0.5265 H   0  0  0  0  0  0  0  0  0  0  0  0
    0.0343    1.3587    0.0158 H   0  0  0  0  0  0  0  0  0  0  0  0
   -2.0773   -1.0573   -2.1027 H   0  0  0  0  0  0  0  0  0  0  0  0
   -3.5548   -0.4400   -1.3247 H   0  0  0  0  0  0  0  0  0  0  0  0
   -2.3388   -1.3698   -0.3667 H   0  0  0  0  0  0  0  0  0  0  0  0
   -1.3046    0.9509   -2.9231 H   0  0  0  0  0  0  0  0  0  0  0  0
   -1.1783    2.4206   -1.8919 H   0  0  0  0  0  0  0  0  0  0  0  0
   -2.7882    1.7710   -2.3672 H   0  0  0  0  0  0  0  0  0  0  0  0
   -3.5464    1.7049   -0.2399 H   0  0  0  0  0  0  0  0  0  0  0  0
   -2.0359    2.4046    0.3488 H   0  0  0  0  0  0  0  0  0  0  0  0
   -1.7860    0.4858    1.9901 H   0  0  0  0  0  0  0  0  0  0  0  0
   -3.0819    1.5755    2.3168 H   0  0  0  0  0  0  0  0  0  0  0  0
   -3.2217   -1.2782    2.0288 H   0  0  0  0  0  0  0  0  0  0  0  0
   -5.2926    2.1214    2.5451 H   0  0  0  0  0  0  0  0  0  0  0  0
   -6.5607    4.0188    1.6196 H   0  0  0  0  0  0  0  0  0  0  0  0
   -7.8724    3.7492   -0.4663 H   0  0  0  0  0  0  0  0  0  0  0  0
   -7.9473    1.5672   -1.6144 H   0  0  0  0  0  0  0  0  0  0  0  0
   -7.7459   -3.6492   -0.5335 H   0  0  0  0  0  0  0  0  0  0  0  0
   -7.4813   -5.2045    1.3589 H   0  0  0  0  0  0  0  0  0  0  0  0
   -4.9997   -2.3519    3.4041 H   0  0  0  0  0  0  0  0  0  0  0  0
  1  2  1  0
  2  3  1  0
  3  4  1  0
  4  5  1  0
  5  6  1  0
  6  7  1  0
  7  8  1  0
  8  9  1  0
  9 10  1  0
 10 11  1  0
 11 12  1  0
 12 13  1  0
 12 14  1  0
 12 15  1  0
 15 16  1  0
 16 17  1  0
 17 18  2  3
 18 19  1  0
 19 20  2  0
 20 21  1  0
 21 22  2  0
 22 23  1  0
 23 24  2  0
 24 25  1  0
 25 26  1  0
 26 27  2  0
 27 28  1  0
 28 29  2  0
 29 30  1  0
 29 31  1  0
 31 32  2  0
 32 18  1  0
 24 19  1  0
 32 26  1  0
  1 33  1  0
  1 34  1  0
  1 35  1  0
  2 36  1  0
  2 37  1  0
  3 38  1  0
  3 39  1  0
  4 40  1  0
  4 41  1  0
  5 42  1  0
  5 43  1  0
  6 44  1  0
  6 45  1  0
  7 46  1  0
  7 47  1  0
  8 48  1  0
  8 49  1  0
  9 50  1  0
  9 51  1  0
 10 52  1  0
 10 53  1  0
 11 54  1  0
 11 55  1  0
 13 56  1  0
 13 57  1  0
 13 58  1  0
 14 59  1  0
 14 60  1  0
 14 61  1  0
 15 62  1  0
 15 63  1  0
 16 64  1  0
 16 65  1  0
 17 66  1  0
 20 67  1  0
 21 68  1  0
 22 69  1  0
 23 70  1  0
 27 71  1  0
 28 72  1  0
 31 73  1  0
M  CHG  1  12   1
M  END
$$$$
