
     RDKit          3D

 44 45  0  0  0  0  0  0  0  0999 V2000
    6.5038    2.1215   -1.4277 C   0  0  0  0  0  0  0  0  0  0  0  0
    5.4647    1.1092   -1.8276 C   0  0  0  0  0  0  0  0  0  0  0  0
    5.7640    0.0136   -2.2893 O   0  0  0  0  0  0  0  0  0  0  0  0
    4.1686    1.5136   -1.6097 N   0  0  0  0  0  0  0  0  0  0  0  0
    3.0436    0.6388   -1.8869 C   0  0  0  0  0  0  0  0  0  0  0  0
    2.8514   -0.4419   -0.8193 C   0  0  0  0  0  0  0  0  0  0  0  0
    1.6703   -1.2062   -1.0680 O   0  0  0  0  0  0  0  0  0  0  0  0
    0.5519   -0.7259   -0.4200 C   0  0  0  0  0  0  0  0  0  0  0  0
    0.4939    0.5575   -0.0928 N   0  0  0  0  0  0  0  0  0  0  0  0
   -0.6329    0.9383    0.4931 C   0  0  0  0  0  0  0  0  0  0  0  0
   -0.7605    2.2722    0.8958 N   0  0  0  0  0  0  0  0  0  0  0  0
    0.0768    3.2099    0.1652 C   0  0  0  0  0  0  0  0  0  0  0  0
   -2.1258    2.6945    1.1710 C   0  0  0  0  0  0  0  0  0  0  0  0
   -1.6356    0.0958    0.7319 N   0  0  0  0  0  0  0  0  0  0  0  0
   -1.4974   -1.1715    0.3479 C   0  0  0  0  0  0  0  0  0  0  0  0
   -2.5277   -2.0535    0.6041 N   0  0  0  0  0  0  0  0  0  0  0  0
   -2.5854   -3.3290   -0.1163 C   0  0  0  0  0  0  0  0  0  0  0  0
   -3.9740   -3.5089   -0.7530 C   0  0  0  0  0  0  0  0  0  0  0  0
   -5.0611   -3.4606    0.1847 O   0  0  0  0  0  0  0  0  0  0  0  0
   -4.7847   -2.6565    1.3420 C   0  0  0  0  0  0  0  0  0  0  0  0
   -3.8018   -1.5071    1.0733 C   0  0  0  0  0  0  0  0  0  0  0  0
   -0.4054   -1.6208   -0.2478 N   0  0  0  0  0  0  0  0  0  0  0  0
    6.0652    3.1121   -1.2785 H   0  0  0  0  0  0  0  0  0  0  0  0
    6.9790    1.7980   -0.4980 H   0  0  0  0  0  0  0  0  0  0  0  0
    7.2540    2.1960   -2.2199 H   0  0  0  0  0  0  0  0  0  0  0  0
    3.9950    2.3652   -1.0921 H   0  0  0  0  0  0  0  0  0  0  0  0
    3.1917    0.1653   -2.8647 H   0  0  0  0  0  0  0  0  0  0  0  0
    2.1577    1.2745   -1.9784 H   0  0  0  0  0  0  0  0  0  0  0  0
    2.8725   -0.0248    0.1969 H   0  0  0  0  0  0  0  0  0  0  0  0
    3.6922   -1.1442   -0.8625 H   0  0  0  0  0  0  0  0  0  0  0  0
    1.1416    2.9753    0.2783 H   0  0  0  0  0  0  0  0  0  0  0  0
   -0.1769    3.2257   -0.9012 H   0  0  0  0  0  0  0  0  0  0  0  0
   -0.0576    4.2252    0.5554 H   0  0  0  0  0  0  0  0  0  0  0  0
   -2.7516    2.6367    0.2727 H   0  0  0  0  0  0  0  0  0  0  0  0
   -2.5814    2.0958    1.9683 H   0  0  0  0  0  0  0  0  0  0  0  0
   -2.1391    3.7332    1.5203 H   0  0  0  0  0  0  0  0  0  0  0  0
   -1.8318   -3.4196   -0.9060 H   0  0  0  0  0  0  0  0  0  0  0  0
   -2.4079   -4.1342    0.6062 H   0  0  0  0  0  0  0  0  0  0  0  0
   -4.1506   -2.7279   -1.5022 H   0  0  0  0  0  0  0  0  0  0  0  0
   -4.0296   -4.4729   -1.2686 H   0  0  0  0  0  0  0  0  0  0  0  0
   -4.3919   -3.3213    2.1205 H   0  0  0  0  0  0  0  0  0  0  0  0
   -5.7397   -2.2606    1.7019 H   0  0  0  0  0  0  0  0  0  0  0  0
   -3.6638   -0.9380    2.0001 H   0  0  0  0  0  0  0  0  0  0  0  0
   -4.2237   -0.8420    0.3093 H   0  0  0  0  0  0  0  0  0  0  0  0
  1  2  1  0
  2  3  2  0
  2  4  1  0
  4  5  1  0
  5  6  1  0
  6  7  1  0
  7  8  1  0
  8  9  2  0
  9 10  1  0
 10 11  1  0
 11 12  1  0
 11 13  1  0
 10 14  2  0
 14 15  1  0
 15 16  1  0
 16 17  1  0
 17 18  1  0
 18 19  1  0
 19 20  1  0
 20 21  1  0
 15 22  2  0
 22  8  1  0
 21 16  1  0
  1 23  1  0
  1 24  1  0
  1 25  1  0
  4 26  1  0
  5 27  1  0
  5 28  1  0
  6 29  1  0
  6 30  1  0
 12 31  1  0
 12 32  1  0
 12 33  1  0
 13 34  1  0
 13 35  1  0
 13 36  1  0
 17 37  1  0
 17 38  1  0
 18 39  1  0
 18 40  1  0
 20 41  1  0
 20 42  1  0
 21 43  1  0
 21 44  1  0
M  END
$$$$
