
     RDKit          3D

 52 53  0  0  0  0  0  0  0  0999 V2000
   -6.4218   -0.8576    0.5297 C   0  0  0  0  0  0  0  0  0  0  0  0
   -6.0989   -0.1029   -0.7549 C   0  0  0  0  0  0  0  0  0  0  0  0
   -4.7636   -0.5387   -1.3932 C   0  0  0  0  0  0  0  0  0  0  0  0
   -4.6040    0.0972   -2.7806 C   0  0  0  0  0  0  0  0  0  0  0  0
   -3.5608   -0.2272   -0.5175 C   0  0  0  0  0  0  0  0  0  0  0  0
   -2.7550   -1.2705   -0.0404 C   0  0  0  0  0  0  0  0  0  0  0  0
   -1.6441   -1.0077    0.7687 C   0  0  0  0  0  0  0  0  0  0  0  0
   -1.3149    0.3063    1.1311 C   0  0  0  0  0  0  0  0  0  0  0  0
   -0.1028    0.6395    1.9854 C   0  0  0  0  0  0  0  0  0  0  0  0
    0.1112   -0.3243    3.1555 C   0  0  0  0  0  0  0  0  0  0  0  0
    1.0932    0.6566    1.1402 N   0  0  0  0  0  0  0  0  0  0  0  0
    1.8403    1.7341    0.7743 C   0  0  0  0  0  0  0  0  0  0  0  0
    1.6398    3.3082    1.2937 S   0  0  0  0  0  0  0  0  0  0  0  0
    2.8759    1.4903   -0.0777 N   0  0  0  0  0  0  0  0  0  0  0  0
    3.4307    0.2140   -0.5403 C   0  0  0  0  0  0  0  0  0  0  0  0
    4.2200   -0.4901    0.5805 C   0  0  0  0  0  0  0  0  0  0  0  0
    5.7129   -0.1885    0.5017 C   0  0  0  0  0  0  0  0  0  0  0  0
    6.3183   -0.6666   -0.8199 C   0  0  0  0  0  0  0  0  0  0  0  0
    5.3292   -0.6402   -1.9881 C   0  0  0  0  0  0  0  0  0  0  0  0
    4.2752    0.4456   -1.8071 C   0  0  0  0  0  0  0  0  0  0  0  0
   -2.1142    1.3499    0.6390 C   0  0  0  0  0  0  0  0  0  0  0  0
   -3.2243    1.0874   -0.1687 C   0  0  0  0  0  0  0  0  0  0  0  0
   -6.4350   -1.9391    0.3563 H   0  0  0  0  0  0  0  0  0  0  0  0
   -7.4093   -0.5628    0.9001 H   0  0  0  0  0  0  0  0  0  0  0  0
   -5.6938   -0.6423    1.3173 H   0  0  0  0  0  0  0  0  0  0  0  0
   -6.1020    0.9741   -0.5477 H   0  0  0  0  0  0  0  0  0  0  0  0
   -6.9128   -0.2854   -1.4679 H   0  0  0  0  0  0  0  0  0  0  0  0
   -4.8101   -1.6255   -1.5502 H   0  0  0  0  0  0  0  0  0  0  0  0
   -4.6219    1.1919   -2.7339 H   0  0  0  0  0  0  0  0  0  0  0  0
   -5.4160   -0.2189   -3.4451 H   0  0  0  0  0  0  0  0  0  0  0  0
   -3.6569   -0.2034   -3.2444 H   0  0  0  0  0  0  0  0  0  0  0  0
   -2.9847   -2.3025   -0.2969 H   0  0  0  0  0  0  0  0  0  0  0  0
   -1.0416   -1.8472    1.1058 H   0  0  0  0  0  0  0  0  0  0  0  0
   -0.2625    1.6266    2.4316 H   0  0  0  0  0  0  0  0  0  0  0  0
    0.3831   -1.3313    2.8193 H   0  0  0  0  0  0  0  0  0  0  0  0
   -0.7898   -0.4016    3.7739 H   0  0  0  0  0  0  0  0  0  0  0  0
    0.9311    0.0284    3.7924 H   0  0  0  0  0  0  0  0  0  0  0  0
    1.2231   -0.1829    0.6000 H   0  0  0  0  0  0  0  0  0  0  0  0
    3.4447    2.3165   -0.2312 H   0  0  0  0  0  0  0  0  0  0  0  0
    2.5867   -0.4302   -0.8123 H   0  0  0  0  0  0  0  0  0  0  0  0
    4.0818   -1.5749    0.4847 H   0  0  0  0  0  0  0  0  0  0  0  0
    3.8392   -0.2156    1.5708 H   0  0  0  0  0  0  0  0  0  0  0  0
    6.2413   -0.6606    1.3384 H   0  0  0  0  0  0  0  0  0  0  0  0
    5.8683    0.8936    0.6056 H   0  0  0  0  0  0  0  0  0  0  0  0
    7.1881   -0.0402   -1.0534 H   0  0  0  0  0  0  0  0  0  0  0  0
    6.7003   -1.6891   -0.7064 H   0  0  0  0  0  0  0  0  0  0  0  0
    5.8731   -0.4900   -2.9275 H   0  0  0  0  0  0  0  0  0  0  0  0
    4.8324   -1.6157   -2.0687 H   0  0  0  0  0  0  0  0  0  0  0  0
    4.7785    1.4218   -1.7665 H   0  0  0  0  0  0  0  0  0  0  0  0
    3.6150    0.4817   -2.6835 H   0  0  0  0  0  0  0  0  0  0  0  0
   -1.8726    2.3845    0.8782 H   0  0  0  0  0  0  0  0  0  0  0  0
   -3.8201    1.9255   -0.5262 H   0  0  0  0  0  0  0  0  0  0  0  0
  1  2  1  0
  2  3  1  0
  3  4  1  0
  3  5  1  0
  5  6  2  0
  6  7  1  0
  7  8  2  0
  8  9  1  0
  9 10  1  0
  9 11  1  0
 11 12  1  0
 12 13  2  0
 12 14  1  0
 14 15  1  0
 15 16  1  0
 16 17  1  0
 17 18  1  0
 18 19  1  0
 19 20  1  0
  8 21  1  0
 21 22  2  0
 22  5  1  0
 20 15  1  0
  1 23  1  0
  1 24  1  0
  1 25  1  0
  2 26  1  0
  2 27  1  0
  3 28  1  0
  4 29  1  0
  4 30  1  0
  4 31  1  0
  6 32  1  0
  7 33  1  0
  9 34  1  0
 10 35  1  0
 10 36  1  0
 10 37  1  0
 11 38  1  0
 14 39  1  0
 15 40  1  0
 16 41  1  0
 16 42  1  0
 17 43  1  0
 17 44  1  0
 18 45  1  0
 18 46  1  0
 19 47  1  0
 19 48  1  0
 20 49  1  0
 20 50  1  0
 21 51  1  0
 22 52  1  0
M  END
$$$$
