
     RDKit          3D

 72 76  0  0  0  0  0  0  0  0999 V2000
    9.7486   -1.7094   -1.2413 C   0  0  0  0  0  0  0  0  0  0  0  0
    8.7790   -1.4240   -2.2419 O   0  0  0  0  0  0  0  0  0  0  0  0
    7.5713   -0.9468   -1.8144 C   0  0  0  0  0  0  0  0  0  0  0  0
    6.6597   -0.6684   -2.8375 C   0  0  0  0  0  0  0  0  0  0  0  0
    5.3844   -0.1806   -2.5425 C   0  0  0  0  0  0  0  0  0  0  0  0
    5.0066    0.0337   -1.2128 C   0  0  0  0  0  0  0  0  0  0  0  0
    3.6677    0.5266   -0.8927 C   0  0  0  0  0  0  0  0  0  0  0  0
    3.5410    1.7019   -0.2691 N   0  0  0  0  0  0  0  0  0  0  0  0
    1.9386    2.0426   -0.0643 S   0  0  0  0  0  0  0  0  0  0  0  0
    1.3413    0.5946   -0.7448 C   0  0  0  0  0  0  0  0  0  0  0  0
   -0.0784    0.3090   -0.8562 C   0  0  0  0  0  0  0  0  0  0  0  0
   -0.5267   -0.3688   -1.7875 O   0  0  0  0  0  0  0  0  0  0  0  0
   -0.9501    0.8155    0.1293 N   0  0  0  0  0  0  0  0  0  0  0  0
   -0.6467    0.6184    1.5241 C   0  0  0  0  0  0  0  0  0  0  0  0
   -1.0674    1.5387    2.4917 C   0  0  0  0  0  0  0  0  0  0  0  0
   -0.7686    1.3429    3.8440 C   0  0  0  0  0  0  0  0  0  0  0  0
   -0.0420    0.2279    4.2344 C   0  0  0  0  0  0  0  0  0  0  0  0
    0.2460    0.0433    5.5287 F   0  0  0  0  0  0  0  0  0  0  0  0
    0.3926   -0.6970    3.2968 C   0  0  0  0  0  0  0  0  0  0  0  0
    0.0933   -0.5017    1.9459 C   0  0  0  0  0  0  0  0  0  0  0  0
   -2.3940    0.9040   -0.2497 C   0  0  0  0  0  0  0  0  0  0  0  0
   -3.2034   -0.3719    0.1463 C   0  0  0  0  0  0  0  0  0  0  0  0
   -4.3674   -0.3700    0.5431 O   0  0  0  0  0  0  0  0  0  0  0  0
   -2.5438   -1.5658   -0.1253 N   0  0  0  0  0  0  0  0  0  0  0  0
   -3.1947   -2.8451    0.0456 C   0  0  0  0  0  0  0  0  0  0  0  0
   -2.2012   -3.9997    0.0698 C   0  0  0  0  0  0  0  0  0  0  0  0
   -3.0840   -5.2119   -0.1766 C   0  0  0  0  0  0  0  0  0  0  0  0
   -4.1493   -4.7322   -1.1593 C   0  0  0  0  0  0  0  0  0  0  0  0
   -4.1220   -3.2039   -1.1149 C   0  0  0  0  0  0  0  0  0  0  0  0
   -3.0017    2.2788    0.0384 C   0  0  0  0  0  0  0  0  0  0  0  0
   -2.5041    3.3871   -0.6725 C   0  0  0  0  0  0  0  0  0  0  0  0
   -3.0006    4.6729   -0.4434 C   0  0  0  0  0  0  0  0  0  0  0  0
   -4.0074    4.8896    0.4957 C   0  0  0  0  0  0  0  0  0  0  0  0
   -4.3996    6.1915    0.6245 O   0  0  0  0  0  0  0  0  0  0  0  0
   -5.4763    6.4529    1.5151 C   0  0  0  0  0  0  0  0  0  0  0  0
   -4.5106    3.8038    1.2081 C   0  0  0  0  0  0  0  0  0  0  0  0
   -4.0104    2.5132    0.9840 C   0  0  0  0  0  0  0  0  0  0  0  0
    2.4195   -0.1442   -1.1930 C   0  0  0  0  0  0  0  0  0  0  0  0
    2.2993   -1.3530   -1.8009 N   0  0  0  0  0  0  0  0  0  0  0  0
    5.9235   -0.2309   -0.1884 C   0  0  0  0  0  0  0  0  0  0  0  0
    7.1990   -0.7237   -0.4875 C   0  0  0  0  0  0  0  0  0  0  0  0
    9.4058   -2.5132   -0.5798 H   0  0  0  0  0  0  0  0  0  0  0  0
   10.0078   -0.8102   -0.6730 H   0  0  0  0  0  0  0  0  0  0  0  0
   10.6560   -2.0566   -1.7463 H   0  0  0  0  0  0  0  0  0  0  0  0
    6.9493   -0.8284   -3.8731 H   0  0  0  0  0  0  0  0  0  0  0  0
    4.6976    0.0430   -3.3554 H   0  0  0  0  0  0  0  0  0  0  0  0
   -1.5826    2.4532    2.2199 H   0  0  0  0  0  0  0  0  0  0  0  0
   -1.0869    2.0646    4.5903 H   0  0  0  0  0  0  0  0  0  0  0  0
    0.9595   -1.5642    3.6181 H   0  0  0  0  0  0  0  0  0  0  0  0
    0.4236   -1.2632    1.2419 H   0  0  0  0  0  0  0  0  0  0  0  0
   -2.4395    0.8565   -1.3496 H   0  0  0  0  0  0  0  0  0  0  0  0
   -1.7903   -1.5111   -0.8081 H   0  0  0  0  0  0  0  0  0  0  0  0
   -3.7683   -2.8281    0.9813 H   0  0  0  0  0  0  0  0  0  0  0  0
   -1.6595   -4.0647    1.0184 H   0  0  0  0  0  0  0  0  0  0  0  0
   -1.4597   -3.9015   -0.7327 H   0  0  0  0  0  0  0  0  0  0  0  0
   -3.5598   -5.5227    0.7612 H   0  0  0  0  0  0  0  0  0  0  0  0
   -2.5192   -6.0648   -0.5637 H   0  0  0  0  0  0  0  0  0  0  0  0
   -3.9303   -5.0833   -2.1736 H   0  0  0  0  0  0  0  0  0  0  0  0
   -5.1346   -5.1226   -0.8841 H   0  0  0  0  0  0  0  0  0  0  0  0
   -3.7335   -2.8149   -2.0645 H   0  0  0  0  0  0  0  0  0  0  0  0
   -5.1239   -2.7826   -0.9812 H   0  0  0  0  0  0  0  0  0  0  0  0
   -1.7176    3.2592   -1.4145 H   0  0  0  0  0  0  0  0  0  0  0  0
   -2.5981    5.5134   -1.0042 H   0  0  0  0  0  0  0  0  0  0  0  0
   -5.2139    6.1859    2.5433 H   0  0  0  0  0  0  0  0  0  0  0  0
   -5.6758    7.5284    1.4926 H   0  0  0  0  0  0  0  0  0  0  0  0
   -6.3874    5.9398    1.1921 H   0  0  0  0  0  0  0  0  0  0  0  0
   -5.2918    3.9207    1.9518 H   0  0  0  0  0  0  0  0  0  0  0  0
   -4.4239    1.7028    1.5797 H   0  0  0  0  0  0  0  0  0  0  0  0
    1.4141   -1.6126   -2.2389 H   0  0  0  0  0  0  0  0  0  0  0  0
    3.0998   -1.7882   -2.2542 H   0  0  0  0  0  0  0  0  0  0  0  0
    5.6471   -0.0542    0.8491 H   0  0  0  0  0  0  0  0  0  0  0  0
    7.8749   -0.9206    0.3393 H   0  0  0  0  0  0  0  0  0  0  0  0
  1  2  1  0
  2  3  1  0
  3  4  2  0
  4  5  1  0
  5  6  2  0
  6  7  1  0
  7  8  2  0
  8  9  1  0
  9 10  1  0
 10 11  1  0
 11 12  2  0
 11 13  1  0
 13 14  1  0
 14 15  2  0
 15 16  1  0
 16 17  2  0
 17 18  1  0
 17 19  1  0
 19 20  2  0
 13 21  1  0
 21 22  1  0
 22 23  2  0
 22 24  1  0
 24 25  1  0
 25 26  1  0
 26 27  1  0
 27 28  1  0
 28 29  1  0
 21 30  1  0
 30 31  2  0
 31 32  1  0
 32 33  2  0
 33 34  1  0
 34 35  1  0
 33 36  1  0
 36 37  2  0
 10 38  2  0
 38 39  1  0
  6 40  1  0
 40 41  2  0
 41  3  1  0
 38  7  1  0
 20 14  1  0
 29 25  1  0
 37 30  1  0
  1 42  1  0
  1 43  1  0
  1 44  1  0
  4 45  1  0
  5 46  1  0
 15 47  1  0
 16 48  1  0
 19 49  1  0
 20 50  1  0
 21 51  1  0
 24 52  1  0
 25 53  1  0
 26 54  1  0
 26 55  1  0
 27 56  1  0
 27 57  1  0
 28 58  1  0
 28 59  1  0
 29 60  1  0
 29 61  1  0
 31 62  1  0
 32 63  1  0
 35 64  1  0
 35 65  1  0
 35 66  1  0
 36 67  1  0
 37 68  1  0
 39 69  1  0
 39 70  1  0
 40 71  1  0
 41 72  1  0
M  END
$$$$
