
     RDKit          3D

 32 32  0  0  0  0  0  0  0  0999 V2000
    4.9687   -0.6325   -0.8402 C   0  0  0  0  0  0  0  0  0  0  0  0
    4.8241   -1.1799    0.5698 C   0  0  0  0  0  0  0  0  0  0  0  0
    4.2524    0.0977    1.7287 S   0  0  0  0  0  0  0  0  0  0  0  0
    2.5470    0.1823    1.3546 C   0  0  0  0  0  0  0  0  0  0  0  0
    1.9314   -0.6918    0.5895 N   0  0  0  0  0  0  0  0  0  0  0  0
    0.5906   -0.4048    0.4509 N   0  0  0  0  0  0  0  0  0  0  0  0
    0.2339    0.6746    1.1132 C   0  0  0  0  0  0  0  0  0  0  0  0
   -1.0235    1.1781    1.1766 N   0  0  0  0  0  0  0  0  0  0  0  0
   -1.9863    1.0012    0.0166 C   0  0  0  0  0  0  0  0  0  0  0  0
   -2.1579   -0.4628   -0.0580 N   0  0  0  0  0  0  0  0  0  0  0  0
   -3.0515   -1.0487   -0.9075 C   0  0  0  0  0  0  0  0  0  0  0  0
   -2.9520   -2.5470   -0.9909 C   0  0  0  0  0  0  0  0  0  0  0  0
   -3.8636   -0.4027   -1.5539 O   0  0  0  0  0  0  0  0  0  0  0  0
   -1.4634    1.6893   -1.2829 C   0  0  0  0  0  0  0  0  0  0  0  0
   -2.3417    1.7142   -2.3025 F   0  0  0  0  0  0  0  0  0  0  0  0
   -1.1069    2.9768   -1.0317 F   0  0  0  0  0  0  0  0  0  0  0  0
   -0.3463    1.0767   -1.7534 F   0  0  0  0  0  0  0  0  0  0  0  0
   -3.2878    1.8078    0.3412 C   0  0  0  0  0  0  0  0  0  0  0  0
   -4.1363    2.0079   -0.6800 F   0  0  0  0  0  0  0  0  0  0  0  0
   -2.9447    3.0445    0.8085 F   0  0  0  0  0  0  0  0  0  0  0  0
   -3.9868    1.2221    1.3494 F   0  0  0  0  0  0  0  0  0  0  0  0
    1.5273    1.4130    1.9728 S   0  0  0  0  0  0  0  0  0  0  0  0
    5.6691    0.2087   -0.8716 H   0  0  0  0  0  0  0  0  0  0  0  0
    5.3606   -1.4125   -1.5014 H   0  0  0  0  0  0  0  0  0  0  0  0
    4.0111   -0.3011   -1.2533 H   0  0  0  0  0  0  0  0  0  0  0  0
    4.1558   -2.0467    0.5891 H   0  0  0  0  0  0  0  0  0  0  0  0
    5.8032   -1.5236    0.9199 H   0  0  0  0  0  0  0  0  0  0  0  0
   -1.0865    2.1176    1.5737 H   0  0  0  0  0  0  0  0  0  0  0  0
   -1.3404   -1.0034    0.2046 H   0  0  0  0  0  0  0  0  0  0  0  0
   -3.9568   -2.9757   -0.9429 H   0  0  0  0  0  0  0  0  0  0  0  0
   -2.4778   -2.8226   -1.9361 H   0  0  0  0  0  0  0  0  0  0  0  0
   -2.3652   -2.9566   -0.1635 H   0  0  0  0  0  0  0  0  0  0  0  0
  1  2  1  0
  2  3  1  0
  3  4  1  0
  4  5  2  0
  5  6  1  0
  6  7  2  0
  7  8  1  0
  8  9  1  0
  9 10  1  0
 10 11  1  0
 11 12  1  0
 11 13  2  0
  9 14  1  0
 14 15  1  0
 14 16  1  0
 14 17  1  0
  9 18  1  0
 18 19  1  0
 18 20  1  0
 18 21  1  0
  7 22  1  0
 22  4  1  0
  1 23  1  0
  1 24  1  0
  1 25  1  0
  2 26  1  0
  2 27  1  0
  8 28  1  0
 10 29  1  0
 12 30  1  0
 12 31  1  0
 12 32  1  0
M  END
$$$$
