
     RDKit          3D

 43 44  0  0  0  0  0  0  0  0999 V2000
   -1.0577    3.3427   -1.8284 C   0  0  0  0  0  0  0  0  0  0  0  0
   -1.7278    2.7644   -0.5969 C   0  0  0  0  0  0  0  0  0  0  0  0
   -1.6346    1.3360   -0.6631 O   0  0  0  0  0  0  0  0  0  0  0  0
   -2.3665    0.6752    0.2852 C   0  0  0  0  0  0  0  0  0  0  0  0
   -3.0501    1.2451    1.1283 O   0  0  0  0  0  0  0  0  0  0  0  0
   -2.2738   -0.7867    0.1701 C   0  0  0  0  0  0  0  0  0  0  0  0
   -1.2779   -1.4648   -0.5235 C   0  0  0  0  0  0  0  0  0  0  0  0
   -0.1883   -0.9078   -1.1793 N   0  0  0  0  0  0  0  0  0  0  0  0
    0.8300   -1.5656   -1.8499 C   0  0  0  0  0  0  0  0  0  0  0  0
    0.9664   -2.7746   -2.0116 O   0  0  0  0  0  0  0  0  0  0  0  0
    1.8709   -0.5955   -2.4208 C   0  0  0  0  0  0  0  0  0  0  0  0
    2.8939   -0.2622   -1.4806 O   0  0  0  0  0  0  0  0  0  0  0  0
    2.5477    0.6656   -0.5582 C   0  0  0  0  0  0  0  0  0  0  0  0
    1.4635    1.2250   -0.4927 O   0  0  0  0  0  0  0  0  0  0  0  0
    3.6666    0.9243    0.3820 C   0  0  0  0  0  0  0  0  0  0  0  0
    3.4863    1.8967    1.3674 C   0  0  0  0  0  0  0  0  0  0  0  0
    4.5290    2.1373    2.2423 C   0  0  0  0  0  0  0  0  0  0  0  0
    5.7090    1.4842    2.1949 N   0  0  0  0  0  0  0  0  0  0  0  0
    5.8564    0.5453    1.2362 C   0  0  0  0  0  0  0  0  0  0  0  0
    4.8756    0.2300    0.3135 C   0  0  0  0  0  0  0  0  0  0  0  0
   -1.5015   -3.1437   -0.4903 S   0  0  0  0  0  0  0  0  0  0  0  0
   -2.8870   -3.0359    0.4905 C   0  0  0  0  0  0  0  0  0  0  0  0
   -3.5855   -4.2868    0.9151 C   0  0  0  0  0  0  0  0  0  0  0  0
   -3.2133   -1.7213    0.7821 C   0  0  0  0  0  0  0  0  0  0  0  0
   -4.3904   -1.3056    1.6131 C   0  0  0  0  0  0  0  0  0  0  0  0
   -1.5419    2.9735   -2.7386 H   0  0  0  0  0  0  0  0  0  0  0  0
   -1.1058    4.4352   -1.8211 H   0  0  0  0  0  0  0  0  0  0  0  0
   -0.0084    3.0370   -1.8814 H   0  0  0  0  0  0  0  0  0  0  0  0
   -1.2190    3.1176    0.3065 H   0  0  0  0  0  0  0  0  0  0  0  0
   -2.7782    3.0764   -0.5762 H   0  0  0  0  0  0  0  0  0  0  0  0
   -0.0958    0.1060   -1.0840 H   0  0  0  0  0  0  0  0  0  0  0  0
    1.3875    0.3049   -2.8201 H   0  0  0  0  0  0  0  0  0  0  0  0
    2.3541   -1.0855   -3.2735 H   0  0  0  0  0  0  0  0  0  0  0  0
    2.5591    2.4535    1.4554 H   0  0  0  0  0  0  0  0  0  0  0  0
    4.4427    2.8826    3.0284 H   0  0  0  0  0  0  0  0  0  0  0  0
    6.8164    0.0359    1.2310 H   0  0  0  0  0  0  0  0  0  0  0  0
    5.0615   -0.5387   -0.4283 H   0  0  0  0  0  0  0  0  0  0  0  0
   -3.6604   -4.3264    2.0069 H   0  0  0  0  0  0  0  0  0  0  0  0
   -4.5978   -4.3132    0.4982 H   0  0  0  0  0  0  0  0  0  0  0  0
   -3.0642   -5.1917    0.5858 H   0  0  0  0  0  0  0  0  0  0  0  0
   -4.0515   -0.8370    2.5425 H   0  0  0  0  0  0  0  0  0  0  0  0
   -5.0236   -2.1565    1.8818 H   0  0  0  0  0  0  0  0  0  0  0  0
   -5.0158   -0.5950    1.0632 H   0  0  0  0  0  0  0  0  0  0  0  0
  1  2  1  0
  2  3  1  0
  3  4  1  0
  4  5  2  0
  4  6  1  0
  6  7  2  0
  7  8  1  0
  8  9  1  0
  9 10  2  0
  9 11  1  0
 11 12  1  0
 12 13  1  0
 13 14  2  0
 13 15  1  0
 15 16  2  0
 16 17  1  0
 17 18  2  0
 18 19  1  0
 19 20  2  0
  7 21  1  0
 21 22  1  0
 22 23  1  0
 22 24  2  0
 24 25  1  0
 24  6  1  0
 20 15  1  0
  1 26  1  0
  1 27  1  0
  1 28  1  0
  2 29  1  0
  2 30  1  0
  8 31  1  0
 11 32  1  0
 11 33  1  0
 16 34  1  0
 17 35  1  0
 19 36  1  0
 20 37  1  0
 23 38  1  0
 23 39  1  0
 23 40  1  0
 25 41  1  0
 25 42  1  0
 25 43  1  0
M  END
$$$$
