
     RDKit          3D

 43 46  0  0  0  0  0  0  0  0999 V2000
    4.3260    1.0275    3.4734 C   0  0  0  0  0  0  0  0  0  0  0  0
    4.3035   -0.3385    3.0831 O   0  0  0  0  0  0  0  0  0  0  0  0
    3.1650   -0.6901    2.3875 C   0  0  0  0  0  0  0  0  0  0  0  0
    2.2724    0.2444    2.0684 N   0  0  0  0  0  0  0  0  0  0  0  0
    1.2152   -0.1899    1.3984 C   0  0  0  0  0  0  0  0  0  0  0  0
    0.2896    0.7844    1.0818 N   0  0  0  0  0  0  0  0  0  0  0  0
   -0.5564    0.7141   -0.1098 C   0  0  0  0  0  0  0  0  0  0  0  0
    0.2584    0.4761   -1.4033 C   0  0  0  0  0  0  0  0  0  0  0  0
   -0.6693    0.4914   -2.6318 C   0  0  0  0  0  0  0  0  0  0  0  0
   -1.7412   -0.6011   -2.4720 C   0  0  0  0  0  0  0  0  0  0  0  0
   -2.5829   -0.3404   -1.2105 C   0  0  0  0  0  0  0  0  0  0  0  0
   -3.2554    1.0360   -1.3242 C   0  0  0  0  0  0  0  0  0  0  0  0
   -2.1863    2.1292   -1.4700 C   0  0  0  0  0  0  0  0  0  0  0  0
   -1.3547    1.8629   -2.7343 C   0  0  0  0  0  0  0  0  0  0  0  0
   -1.2618    2.0959   -0.2427 C   0  0  0  0  0  0  0  0  0  0  0  0
   -1.6636   -0.3584    0.0246 C   0  0  0  0  0  0  0  0  0  0  0  0
    1.0302   -1.4520    1.0498 N   0  0  0  0  0  0  0  0  0  0  0  0
    1.9908   -2.2934    1.4197 C   0  0  0  0  0  0  0  0  0  0  0  0
    1.8921   -3.6297    1.0911 O   0  0  0  0  0  0  0  0  0  0  0  0
    0.6846   -3.9543    0.4154 C   0  0  0  0  0  0  0  0  0  0  0  0
    3.0866   -1.9745    2.0860 N   0  0  0  0  0  0  0  0  0  0  0  0
    3.4832    1.2689    4.1306 H   0  0  0  0  0  0  0  0  0  0  0  0
    5.2469    1.1978    4.0396 H   0  0  0  0  0  0  0  0  0  0  0  0
    4.3464    1.6898    2.6009 H   0  0  0  0  0  0  0  0  0  0  0  0
    0.7534    1.6750    1.2292 H   0  0  0  0  0  0  0  0  0  0  0  0
    1.0349    1.2448   -1.5112 H   0  0  0  0  0  0  0  0  0  0  0  0
    0.7812   -0.4870   -1.3710 H   0  0  0  0  0  0  0  0  0  0  0  0
   -0.0828    0.3038   -3.5382 H   0  0  0  0  0  0  0  0  0  0  0  0
   -1.2645   -1.5870   -2.4073 H   0  0  0  0  0  0  0  0  0  0  0  0
   -2.3902   -0.6188   -3.3562 H   0  0  0  0  0  0  0  0  0  0  0  0
   -3.3490   -1.1176   -1.1105 H   0  0  0  0  0  0  0  0  0  0  0  0
   -3.8698    1.2278   -0.4360 H   0  0  0  0  0  0  0  0  0  0  0  0
   -3.9307    1.0536   -2.1884 H   0  0  0  0  0  0  0  0  0  0  0  0
   -2.6685    3.1103   -1.5444 H   0  0  0  0  0  0  0  0  0  0  0  0
   -1.9998    1.8945   -3.6209 H   0  0  0  0  0  0  0  0  0  0  0  0
   -0.6013    2.6501   -2.8605 H   0  0  0  0  0  0  0  0  0  0  0  0
   -1.8423    2.3128    0.6643 H   0  0  0  0  0  0  0  0  0  0  0  0
   -0.5143    2.8966   -0.3255 H   0  0  0  0  0  0  0  0  0  0  0  0
   -1.2404   -1.3630    0.1233 H   0  0  0  0  0  0  0  0  0  0  0  0
   -2.2538   -0.1838    0.9337 H   0  0  0  0  0  0  0  0  0  0  0  0
    0.6141   -3.4344   -0.5466 H   0  0  0  0  0  0  0  0  0  0  0  0
    0.6953   -5.0292    0.2106 H   0  0  0  0  0  0  0  0  0  0  0  0
   -0.1905   -3.7447    1.0405 H   0  0  0  0  0  0  0  0  0  0  0  0
  1  2  1  0
  2  3  1  0
  3  4  2  0
  4  5  1  0
  5  6  1  0
  6  7  1  0
  7  8  1  0
  8  9  1  0
  9 10  1  0
 10 11  1  0
 11 12  1  0
 12 13  1  0
 13 14  1  0
 13 15  1  0
 11 16  1  0
  5 17  2  0
 17 18  1  0
 18 19  1  0
 19 20  1  0
 18 21  2  0
 21  3  1  0
 15  7  1  0
 16  7  1  0
 14  9  1  0
  1 22  1  0
  1 23  1  0
  1 24  1  0
  6 25  1  0
  8 26  1  0
  8 27  1  0
  9 28  1  0
 10 29  1  0
 10 30  1  0
 11 31  1  0
 12 32  1  0
 12 33  1  0
 13 34  1  0
 14 35  1  0
 14 36  1  0
 15 37  1  0
 15 38  1  0
 16 39  1  0
 16 40  1  0
 20 41  1  0
 20 42  1  0
 20 43  1  0
M  END
$$$$
