
     RDKit          3D

 59 62  0  0  0  0  0  0  0  0999 V2000
   -7.4798    0.3484   -2.5920 C   0  0  0  0  0  0  0  0  0  0  0  0
   -7.3129   -0.0763   -1.1359 C   0  0  0  0  0  0  0  0  0  0  0  0
   -5.9951    0.1383   -0.5409 N   0  0  0  0  0  0  0  0  0  0  0  0
   -4.8924   -0.5362   -1.2263 C   0  0  0  0  0  0  0  0  0  0  0  0
   -3.5705   -0.4767   -0.4110 C   0  0  0  0  0  0  0  0  0  0  0  0
   -3.5067    0.6188    0.5905 N   0  0  0  0  0  0  0  0  0  0  0  0
   -2.1195    0.9145    0.9894 C   0  0  0  0  0  0  0  0  0  0  0  0
   -1.5235   -0.1495    1.8776 C   0  0  0  0  0  0  0  0  0  0  0  0
   -2.2479   -0.7917    2.8999 C   0  0  0  0  0  0  0  0  0  0  0  0
   -3.5842   -0.5515    3.0828 O   0  0  0  0  0  0  0  0  0  0  0  0
   -1.6581   -1.7210    3.7777 C   0  0  0  0  0  0  0  0  0  0  0  0
   -0.3086   -2.0491    3.6578 C   0  0  0  0  0  0  0  0  0  0  0  0
    0.3976   -1.4188    2.6537 C   0  0  0  0  0  0  0  0  0  0  0  0
   -0.1824   -0.4891    1.7874 C   0  0  0  0  0  0  0  0  0  0  0  0
    0.7185    0.0212    0.8755 O   0  0  0  0  0  0  0  0  0  0  0  0
    1.9310   -0.6057    1.1422 C   0  0  0  0  0  0  0  0  0  0  0  0
    3.0753   -0.4181    0.4722 C   0  0  0  0  0  0  0  0  0  0  0  0
    3.2283    0.4975   -0.6392 C   0  0  0  0  0  0  0  0  0  0  0  0
    4.3289    0.6590   -1.3924 C   0  0  0  0  0  0  0  0  0  0  0  0
    5.5954   -0.0860   -1.2831 C   0  0  0  0  0  0  0  0  0  0  0  0
    5.6004   -1.4704   -1.5157 C   0  0  0  0  0  0  0  0  0  0  0  0
    6.7855   -2.1993   -1.4338 C   0  0  0  0  0  0  0  0  0  0  0  0
    7.9765   -1.5495   -1.1278 C   0  0  0  0  0  0  0  0  0  0  0  0
    7.9885   -0.1689   -0.9094 C   0  0  0  0  0  0  0  0  0  0  0  0
    6.8048    0.5749   -0.9903 C   0  0  0  0  0  0  0  0  0  0  0  0
    6.7256    1.9332   -0.8049 O   0  0  0  0  0  0  0  0  0  0  0  0
    7.9294    2.6221   -0.4921 C   0  0  0  0  0  0  0  0  0  0  0  0
    1.8009   -1.5484    2.2835 C   0  0  0  0  0  0  0  0  0  0  0  0
    2.6401   -2.2586    2.7914 O   0  0  0  0  0  0  0  0  0  0  0  0
   -4.1828    1.8130    0.0559 C   0  0  0  0  0  0  0  0  0  0  0  0
   -5.6783    1.5490   -0.2741 C   0  0  0  0  0  0  0  0  0  0  0  0
   -8.5062    0.1492   -2.9185 H   0  0  0  0  0  0  0  0  0  0  0  0
   -6.8122   -0.2100   -3.2548 H   0  0  0  0  0  0  0  0  0  0  0  0
   -7.2927    1.4170   -2.7314 H   0  0  0  0  0  0  0  0  0  0  0  0
   -8.0688    0.4363   -0.5273 H   0  0  0  0  0  0  0  0  0  0  0  0
   -7.5573   -1.1434   -1.0592 H   0  0  0  0  0  0  0  0  0  0  0  0
   -5.1380   -1.5898   -1.4056 H   0  0  0  0  0  0  0  0  0  0  0  0
   -4.7169   -0.0708   -2.2045 H   0  0  0  0  0  0  0  0  0  0  0  0
   -2.7431   -0.4016   -1.1286 H   0  0  0  0  0  0  0  0  0  0  0  0
   -3.4530   -1.4290    0.1197 H   0  0  0  0  0  0  0  0  0  0  0  0
   -2.0982    1.8414    1.5787 H   0  0  0  0  0  0  0  0  0  0  0  0
   -1.4966    1.0907    0.1030 H   0  0  0  0  0  0  0  0  0  0  0  0
   -3.9098   -0.1036    2.2681 H   0  0  0  0  0  0  0  0  0  0  0  0
   -2.2669   -2.1861    4.5501 H   0  0  0  0  0  0  0  0  0  0  0  0
    0.1662   -2.7634    4.3208 H   0  0  0  0  0  0  0  0  0  0  0  0
    3.9528   -0.9781    0.7904 H   0  0  0  0  0  0  0  0  0  0  0  0
    2.3729    1.1337   -0.8637 H   0  0  0  0  0  0  0  0  0  0  0  0
    4.3319    1.4255   -2.1650 H   0  0  0  0  0  0  0  0  0  0  0  0
    4.6763   -1.9882   -1.7619 H   0  0  0  0  0  0  0  0  0  0  0  0
    6.7769   -3.2721   -1.6086 H   0  0  0  0  0  0  0  0  0  0  0  0
    8.9016   -2.1170   -1.0614 H   0  0  0  0  0  0  0  0  0  0  0  0
    8.9410    0.2949   -0.6784 H   0  0  0  0  0  0  0  0  0  0  0  0
    8.6566    2.5317   -1.3057 H   0  0  0  0  0  0  0  0  0  0  0  0
    7.6878    3.6836   -0.3799 H   0  0  0  0  0  0  0  0  0  0  0  0
    8.3487    2.2741    0.4579 H   0  0  0  0  0  0  0  0  0  0  0  0
   -4.1372    2.6328    0.7833 H   0  0  0  0  0  0  0  0  0  0  0  0
   -3.6685    2.1550   -0.8531 H   0  0  0  0  0  0  0  0  0  0  0  0
   -5.9468    2.1926   -1.1191 H   0  0  0  0  0  0  0  0  0  0  0  0
   -6.2843    1.8697    0.5820 H   0  0  0  0  0  0  0  0  0  0  0  0
  1  2  1  0
  2  3  1  0
  3  4  1  0
  4  5  1  0
  5  6  1  0
  6  7  1  0
  7  8  1  0
  8  9  2  0
  9 10  1  0
  9 11  1  0
 11 12  2  0
 12 13  1  0
 13 14  2  0
 14 15  1  0
 15 16  1  0
 16 17  2  3
 17 18  1  0
 18 19  2  3
 19 20  1  0
 20 21  2  0
 21 22  1  0
 22 23  2  0
 23 24  1  0
 24 25  2  0
 25 26  1  0
 26 27  1  0
 16 28  1  0
 28 29  2  0
  6 30  1  0
 30 31  1  0
 31  3  1  0
 14  8  1  0
 25 20  1  0
 28 13  1  0
  1 32  1  0
  1 33  1  0
  1 34  1  0
  2 35  1  0
  2 36  1  0
  4 37  1  0
  4 38  1  0
  5 39  1  0
  5 40  1  0
  7 41  1  0
  7 42  1  0
 10 43  1  0
 11 44  1  0
 12 45  1  0
 17 46  1  0
 18 47  1  0
 19 48  1  0
 21 49  1  0
 22 50  1  0
 23 51  1  0
 24 52  1  0
 27 53  1  0
 27 54  1  0
 27 55  1  0
 30 56  1  0
 30 57  1  0
 31 58  1  0
 31 59  1  0
M  END
$$$$
