
     RDKit          3D

 62 65  0  0  0  0  0  0  0  0999 V2000
    2.9590    1.2039   -5.0269 C   0  0  0  0  0  0  0  0  0  0  0  0
    2.2754    0.4588   -4.0256 O   0  0  0  0  0  0  0  0  0  0  0  0
    3.0335   -0.0554   -2.9990 C   0  0  0  0  0  0  0  0  0  0  0  0
    4.4131    0.1161   -2.8570 C   0  0  0  0  0  0  0  0  0  0  0  0
    5.0779   -0.4288   -1.7546 C   0  0  0  0  0  0  0  0  0  0  0  0
    4.3607   -1.1591   -0.8056 C   0  0  0  0  0  0  0  0  0  0  0  0
    5.1997   -1.8862    0.5852 S   0  0  0  0  0  6  0  0  0  0  0  0
    4.6339   -3.2011    0.7946 O   0  0  0  0  0  0  0  0  0  0  0  0
    6.6209   -1.7135    0.3664 O   0  0  0  0  0  0  0  0  0  0  0  0
    4.7630   -0.8987    1.8878 N   0  0  0  0  0  0  0  0  0  0  0  0
    5.2667    0.5022    1.8821 C   0  0  0  0  0  0  0  0  0  0  0  0
    5.0904    1.1071    3.2825 C   0  0  0  0  0  0  0  0  0  0  0  0
    3.7175    1.0584    3.7041 O   0  0  0  0  0  0  0  0  0  0  0  0
    3.2566   -0.3030    3.7462 C   0  0  0  0  0  0  0  0  0  0  0  0
    3.3508   -0.9603    2.3638 C   0  0  0  0  0  0  0  0  0  0  0  0
    2.9894   -1.3712   -0.9584 C   0  0  0  0  0  0  0  0  0  0  0  0
    2.3145   -0.7901   -2.0307 C   0  0  0  0  0  0  0  0  0  0  0  0
    0.9173   -0.8979   -2.2110 N   0  0  0  0  0  0  0  0  0  0  0  0
   -0.0183   -1.3251   -1.2811 C   0  0  0  0  0  0  0  0  0  0  0  0
    0.2277   -1.6686   -0.1272 O   0  0  0  0  0  0  0  0  0  0  0  0
   -1.4411   -1.3071   -1.8442 C   0  0  0  0  0  0  0  0  0  0  0  0
   -2.3932   -1.3776   -0.7870 O   0  0  0  0  0  0  0  0  0  0  0  0
   -3.6841   -1.3375   -1.2007 C   0  0  0  0  0  0  0  0  0  0  0  0
   -4.0449   -1.3171   -2.3699 O   0  0  0  0  0  0  0  0  0  0  0  0
   -4.6206   -1.3211   -0.0190 C   0  0  0  0  0  0  0  0  0  0  0  0
   -4.4177   -0.0865    0.8560 C   0  0  0  0  0  0  0  0  0  0  0  0
   -5.4527    0.0303    1.9968 C   0  0  0  0  0  0  0  0  0  0  0  0
   -5.9612    1.4783    1.8561 C   0  0  0  0  0  0  0  0  0  0  0  0
   -6.8804    1.5603    0.6246 C   0  0  0  0  0  0  0  0  0  0  0  0
   -5.8964    1.4550   -0.5487 C   0  0  0  0  0  0  0  0  0  0  0  0
   -4.5377    1.2904    0.1544 C   0  0  0  0  0  0  0  0  0  0  0  0
   -4.7145    2.2137    1.3649 C   0  0  0  0  0  0  0  0  0  0  0  0
    3.4402    2.0891   -4.6037 H   0  0  0  0  0  0  0  0  0  0  0  0
    3.6805    0.5783   -5.5612 H   0  0  0  0  0  0  0  0  0  0  0  0
    2.2149    1.5463   -5.7513 H   0  0  0  0  0  0  0  0  0  0  0  0
    5.0021    0.6690   -3.5805 H   0  0  0  0  0  0  0  0  0  0  0  0
    6.1521   -0.2903   -1.6538 H   0  0  0  0  0  0  0  0  0  0  0  0
    6.3260    0.5321    1.6123 H   0  0  0  0  0  0  0  0  0  0  0  0
    4.6941    1.0861    1.1530 H   0  0  0  0  0  0  0  0  0  0  0  0
    5.3962    2.1583    3.2780 H   0  0  0  0  0  0  0  0  0  0  0  0
    5.7086    0.5813    4.0206 H   0  0  0  0  0  0  0  0  0  0  0  0
    2.2144   -0.2899    4.0807 H   0  0  0  0  0  0  0  0  0  0  0  0
    3.8440   -0.8547    4.4896 H   0  0  0  0  0  0  0  0  0  0  0  0
    2.7072   -0.4132    1.6676 H   0  0  0  0  0  0  0  0  0  0  0  0
    3.0101   -1.9971    2.4385 H   0  0  0  0  0  0  0  0  0  0  0  0
    2.4706   -1.9977   -0.2390 H   0  0  0  0  0  0  0  0  0  0  0  0
    0.5848   -0.4739   -3.0725 H   0  0  0  0  0  0  0  0  0  0  0  0
   -1.5883   -0.3751   -2.4003 H   0  0  0  0  0  0  0  0  0  0  0  0
   -1.5513   -2.1713   -2.5074 H   0  0  0  0  0  0  0  0  0  0  0  0
   -4.4449   -2.2334    0.5611 H   0  0  0  0  0  0  0  0  0  0  0  0
   -5.6471   -1.3924   -0.3878 H   0  0  0  0  0  0  0  0  0  0  0  0
   -3.4186   -0.1486    1.3096 H   0  0  0  0  0  0  0  0  0  0  0  0
   -4.9571   -0.1087    2.9650 H   0  0  0  0  0  0  0  0  0  0  0  0
   -6.2640   -0.7015    1.9251 H   0  0  0  0  0  0  0  0  0  0  0  0
   -6.4152    1.8725    2.7672 H   0  0  0  0  0  0  0  0  0  0  0  0
   -7.4045    2.5222    0.5900 H   0  0  0  0  0  0  0  0  0  0  0  0
   -7.6303    0.7630    0.6065 H   0  0  0  0  0  0  0  0  0  0  0  0
   -5.9138    2.3842   -1.1314 H   0  0  0  0  0  0  0  0  0  0  0  0
   -6.1459    0.6372   -1.2300 H   0  0  0  0  0  0  0  0  0  0  0  0
   -3.6850    1.5331   -0.4847 H   0  0  0  0  0  0  0  0  0  0  0  0
   -3.8782    2.1701    2.0718 H   0  0  0  0  0  0  0  0  0  0  0  0
   -4.9067    3.2565    1.0899 H   0  0  0  0  0  0  0  0  0  0  0  0
  1  2  1  0
  2  3  1  0
  3  4  2  0
  4  5  1  0
  5  6  2  0
  6  7  1  0
  7  8  2  0
  7  9  2  0
  7 10  1  0
 10 11  1  0
 11 12  1  0
 12 13  1  0
 13 14  1  0
 14 15  1  0
  6 16  1  0
 16 17  2  0
 17 18  1  0
 18 19  1  0
 19 20  2  0
 19 21  1  0
 21 22  1  0
 22 23  1  0
 23 24  2  0
 23 25  1  0
 25 26  1  0
 26 27  1  0
 27 28  1  0
 28 29  1  0
 29 30  1  0
 30 31  1  0
 31 32  1  0
 17  3  1  0
 31 26  1  0
 15 10  1  0
 32 28  1  0
  1 33  1  0
  1 34  1  0
  1 35  1  0
  4 36  1  0
  5 37  1  0
 11 38  1  0
 11 39  1  0
 12 40  1  0
 12 41  1  0
 14 42  1  0
 14 43  1  0
 15 44  1  0
 15 45  1  0
 16 46  1  0
 18 47  1  0
 21 48  1  0
 21 49  1  0
 25 50  1  0
 25 51  1  0
 26 52  1  0
 27 53  1  0
 27 54  1  0
 28 55  1  0
 29 56  1  0
 29 57  1  0
 30 58  1  0
 30 59  1  0
 31 60  1  0
 32 61  1  0
 32 62  1  0
M  END
$$$$
