
     RDKit          3D

 35 36  0  0  0  0  0  0  0  0999 V2000
   -6.0974    0.9179    0.5027 N   0  0  0  0  0  0  0  0  0  0  0  0
   -4.9756    0.4634   -0.1340 C   0  0  0  0  0  0  0  0  0  0  0  0
   -4.7412   -0.9902   -0.2511 C   0  0  0  0  0  0  0  0  0  0  0  0
   -3.6384   -1.3489   -0.9057 C   0  0  0  0  0  0  0  0  0  0  0  0
   -2.7871   -0.4010   -1.4218 N   0  0  0  0  0  0  0  0  0  0  0  0
   -1.5708   -0.8130   -2.1138 C   0  0  0  0  0  0  0  0  0  0  0  0
   -0.4044   -0.8525   -1.1289 C   0  0  0  0  0  0  0  0  0  0  0  0
   -0.0676   -1.8845   -0.5523 O   0  0  0  0  0  0  0  0  0  0  0  0
    0.1950    0.3717   -0.9121 N   0  0  0  0  0  0  0  0  0  0  0  0
    1.2162    0.5480    0.1045 C   0  0  0  0  0  0  0  0  0  0  0  0
    2.5692   -0.0186   -0.3201 C   0  0  0  0  0  0  0  0  0  0  0  0
    3.5783    0.1223    0.7880 C   0  0  0  0  0  0  0  0  0  0  0  0
    3.7929   -0.9227    1.6838 C   0  0  0  0  0  0  0  0  0  0  0  0
    4.7185   -0.7494    2.7086 C   0  0  0  0  0  0  0  0  0  0  0  0
    5.3989    0.4572    2.8145 C   0  0  0  0  0  0  0  0  0  0  0  0
    5.1214    1.4466    1.8870 C   0  0  0  0  0  0  0  0  0  0  0  0
    4.2273    1.3081    0.8834 N   0  0  0  0  0  0  0  0  0  0  0  0
   -3.0138    0.9650   -1.2422 C   0  0  0  0  0  0  0  0  0  0  0  0
   -2.1872    1.7906   -1.6320 O   0  0  0  0  0  0  0  0  0  0  0  0
   -4.1619    1.3582   -0.6006 N   0  0  0  0  0  0  0  0  0  0  0  0
   -6.4315    0.3703    1.2859 H   0  0  0  0  0  0  0  0  0  0  0  0
   -6.0351    1.9099    0.7137 H   0  0  0  0  0  0  0  0  0  0  0  0
   -5.4455   -1.6941    0.1663 H   0  0  0  0  0  0  0  0  0  0  0  0
   -3.3770   -2.3934   -1.0477 H   0  0  0  0  0  0  0  0  0  0  0  0
   -1.3405   -0.1156   -2.9276 H   0  0  0  0  0  0  0  0  0  0  0  0
   -1.6987   -1.8048   -2.5620 H   0  0  0  0  0  0  0  0  0  0  0  0
   -0.3251    1.1994   -1.2104 H   0  0  0  0  0  0  0  0  0  0  0  0
    1.2942    1.6239    0.2980 H   0  0  0  0  0  0  0  0  0  0  0  0
    0.8637    0.0702    1.0266 H   0  0  0  0  0  0  0  0  0  0  0  0
    2.9322    0.5135   -1.2085 H   0  0  0  0  0  0  0  0  0  0  0  0
    2.4856   -1.0714   -0.6147 H   0  0  0  0  0  0  0  0  0  0  0  0
    3.2484   -1.8574    1.5883 H   0  0  0  0  0  0  0  0  0  0  0  0
    4.9055   -1.5500    3.4183 H   0  0  0  0  0  0  0  0  0  0  0  0
    6.1265    0.6235    3.6004 H   0  0  0  0  0  0  0  0  0  0  0  0
    5.6252    2.4080    1.9270 H   0  0  0  0  0  0  0  0  0  0  0  0
  1  2  1  0
  2  3  1  0
  3  4  2  0
  4  5  1  0
  5  6  1  0
  6  7  1  0
  7  8  2  0
  7  9  1  0
  9 10  1  0
 10 11  1  0
 11 12  1  0
 12 13  2  0
 13 14  1  0
 14 15  2  0
 15 16  1  0
 16 17  2  0
  5 18  1  0
 18 19  2  0
 18 20  1  0
 20  2  2  0
 17 12  1  0
  1 21  1  0
  1 22  1  0
  3 23  1  0
  4 24  1  0
  6 25  1  0
  6 26  1  0
  9 27  1  0
 10 28  1  0
 10 29  1  0
 11 30  1  0
 11 31  1  0
 13 32  1  0
 14 33  1  0
 15 34  1  0
 16 35  1  0
M  END
$$$$
