
     RDKit          3D

 53 56  0  0  0  0  0  0  0  0999 V2000
    6.1959    1.5069   -1.7942 C   0  0  0  0  0  0  0  0  0  0  0  0
    5.3297    0.6946   -0.8790 C   0  0  0  0  0  0  0  0  0  0  0  0
    3.9543    0.8142   -0.9296 C   0  0  0  0  0  0  0  0  0  0  0  0
    3.1979    0.0425   -0.0461 C   0  0  0  0  0  0  0  0  0  0  0  0
    1.7238    0.1703   -0.1211 C   0  0  0  0  0  0  0  0  0  0  0  0
    1.1140    0.5655    0.8622 O   0  0  0  0  0  0  0  0  0  0  0  0
    1.1997   -0.2145   -1.3413 N   0  0  0  0  0  0  0  0  0  0  0  0
   -0.1516   -0.1645   -1.7394 C   0  0  0  0  0  0  0  0  0  0  0  0
   -0.4832   -0.7657   -2.9565 C   0  0  0  0  0  0  0  0  0  0  0  0
   -1.8018   -0.7597   -3.4212 C   0  0  0  0  0  0  0  0  0  0  0  0
   -2.8243   -0.1454   -2.6839 C   0  0  0  0  0  0  0  0  0  0  0  0
   -4.2199   -0.1583   -3.2422 C   0  0  0  0  0  0  0  0  0  0  0  0
   -2.4880    0.4468   -1.4528 C   0  0  0  0  0  0  0  0  0  0  0  0
   -3.7297    1.2192   -0.4252 S   0  0  0  0  0  6  0  0  0  0  0  0
   -4.9327    0.4158   -0.4762 O   0  0  0  0  0  0  0  0  0  0  0  0
   -3.7460    2.6194   -0.7888 O   0  0  0  0  0  0  0  0  0  0  0  0
   -3.1224    1.0830    1.1572 N   0  0  0  0  0  0  0  0  0  0  0  0
   -3.0551   -0.2917    1.7473 C   0  0  0  0  0  0  0  0  0  0  0  0
   -4.3808   -0.7026    2.4029 C   0  0  0  0  0  0  0  0  0  0  0  0
   -4.8244    0.2694    3.3602 O   0  0  0  0  0  0  0  0  0  0  0  0
   -5.0025    1.5470    2.7305 C   0  0  0  0  0  0  0  0  0  0  0  0
   -3.6799    2.0508    2.1495 C   0  0  0  0  0  0  0  0  0  0  0  0
   -1.1569    0.4537   -0.9982 C   0  0  0  0  0  0  0  0  0  0  0  0
    3.8133   -0.8233    0.8830 C   0  0  0  0  0  0  0  0  0  0  0  0
    3.1220   -1.6344    1.8184 C   0  0  0  0  0  0  0  0  0  0  0  0
    3.8128   -2.4712    2.6925 C   0  0  0  0  0  0  0  0  0  0  0  0
    5.1985   -2.5127    2.6446 C   0  0  0  0  0  0  0  0  0  0  0  0
    5.8831   -1.7160    1.7237 C   0  0  0  0  0  0  0  0  0  0  0  0
    5.2191   -0.8725    0.8426 C   0  0  0  0  0  0  0  0  0  0  0  0
    5.9511   -0.1416   -0.0179 N   0  0  0  0  0  0  0  0  0  0  0  0
    7.2552    1.2885   -1.6244 H   0  0  0  0  0  0  0  0  0  0  0  0
    5.9636    1.2757   -2.8384 H   0  0  0  0  0  0  0  0  0  0  0  0
    6.0356    2.5749   -1.6175 H   0  0  0  0  0  0  0  0  0  0  0  0
    3.4810    1.5033   -1.6218 H   0  0  0  0  0  0  0  0  0  0  0  0
    1.8419   -0.6431   -1.9977 H   0  0  0  0  0  0  0  0  0  0  0  0
    0.2759   -1.2537   -3.5630 H   0  0  0  0  0  0  0  0  0  0  0  0
   -2.0237   -1.2374   -4.3744 H   0  0  0  0  0  0  0  0  0  0  0  0
   -4.8282   -0.9089   -2.7291 H   0  0  0  0  0  0  0  0  0  0  0  0
   -4.2160   -0.4069   -4.3095 H   0  0  0  0  0  0  0  0  0  0  0  0
   -4.6872    0.8275   -3.1564 H   0  0  0  0  0  0  0  0  0  0  0  0
   -2.7576   -1.0298    0.9967 H   0  0  0  0  0  0  0  0  0  0  0  0
   -2.2625   -0.2732    2.5058 H   0  0  0  0  0  0  0  0  0  0  0  0
   -4.2434   -1.6484    2.9373 H   0  0  0  0  0  0  0  0  0  0  0  0
   -5.1743   -0.8629    1.6667 H   0  0  0  0  0  0  0  0  0  0  0  0
   -5.7829    1.4690    1.9654 H   0  0  0  0  0  0  0  0  0  0  0  0
   -5.3575    2.2430    3.4971 H   0  0  0  0  0  0  0  0  0  0  0  0
   -3.8006    3.0441    1.7072 H   0  0  0  0  0  0  0  0  0  0  0  0
   -2.9385    2.1519    2.9521 H   0  0  0  0  0  0  0  0  0  0  0  0
   -0.9235    0.9629   -0.0679 H   0  0  0  0  0  0  0  0  0  0  0  0
    2.0352   -1.6091    1.8791 H   0  0  0  0  0  0  0  0  0  0  0  0
    3.2692   -3.0816    3.4091 H   0  0  0  0  0  0  0  0  0  0  0  0
    5.7523   -3.1580    3.3216 H   0  0  0  0  0  0  0  0  0  0  0  0
    6.9700   -1.7527    1.6937 H   0  0  0  0  0  0  0  0  0  0  0  0
  1  2  1  0
  2  3  2  0
  3  4  1  0
  4  5  1  0
  5  6  2  0
  5  7  1  0
  7  8  1  0
  8  9  2  0
  9 10  1  0
 10 11  2  0
 11 12  1  0
 11 13  1  0
 13 14  1  0
 14 15  2  0
 14 16  2  0
 14 17  1  0
 17 18  1  0
 18 19  1  0
 19 20  1  0
 20 21  1  0
 21 22  1  0
 13 23  2  0
  4 24  2  0
 24 25  1  0
 25 26  2  0
 26 27  1  0
 27 28  2  0
 28 29  1  0
 29 30  2  0
 30  2  1  0
 23  8  1  0
 29 24  1  0
 22 17  1  0
  1 31  1  0
  1 32  1  0
  1 33  1  0
  3 34  1  0
  7 35  1  0
  9 36  1  0
 10 37  1  0
 12 38  1  0
 12 39  1  0
 12 40  1  0
 18 41  1  0
 18 42  1  0
 19 43  1  0
 19 44  1  0
 21 45  1  0
 21 46  1  0
 22 47  1  0
 22 48  1  0
 23 49  1  0
 25 50  1  0
 26 51  1  0
 27 52  1  0
 28 53  1  0
M  END
$$$$
