
     RDKit          3D

 47 49  0  0  0  0  0  0  0  0999 V2000
    6.3426   -3.4704   -3.3315 C   0  0  0  0  0  0  0  0  0  0  0  0
    5.7478   -3.4707   -2.0402 O   0  0  0  0  0  0  0  0  0  0  0  0
    4.8996   -2.4393   -1.7494 C   0  0  0  0  0  0  0  0  0  0  0  0
    4.5202   -1.4174   -2.6165 C   0  0  0  0  0  0  0  0  0  0  0  0
    3.6357   -0.4205   -2.1839 C   0  0  0  0  0  0  0  0  0  0  0  0
    3.1344   -0.4196   -0.8766 C   0  0  0  0  0  0  0  0  0  0  0  0
    2.2209    0.6001   -0.5333 N   0  0  0  0  0  0  0  0  0  0  0  0
    1.8568    1.1188    0.7041 C   0  0  0  0  0  0  0  0  0  0  0  0
    2.8178    1.0620    2.0834 S   0  0  0  0  0  0  0  0  0  0  0  0
    0.6139    1.7822    0.6488 N   0  0  0  0  0  0  0  0  0  0  0  0
    0.1414    2.7022    1.6922 C   0  0  0  0  0  0  0  0  0  0  0  0
   -0.9206    2.0272    2.5565 C   0  0  0  0  0  0  0  0  0  0  0  0
   -2.0198    1.4432    1.7000 C   0  0  0  0  0  0  0  0  0  0  0  0
   -3.2745    1.1730    2.2674 C   0  0  0  0  0  0  0  0  0  0  0  0
   -4.3023    0.6147    1.4997 C   0  0  0  0  0  0  0  0  0  0  0  0
   -5.5588    0.3291    1.9748 O   0  0  0  0  0  0  0  0  0  0  0  0
   -5.8127    0.5642    3.3520 C   0  0  0  0  0  0  0  0  0  0  0  0
   -4.0708    0.3130    0.1439 C   0  0  0  0  0  0  0  0  0  0  0  0
   -5.1314   -0.2249   -0.5432 O   0  0  0  0  0  0  0  0  0  0  0  0
   -4.9113   -0.6367   -1.8838 C   0  0  0  0  0  0  0  0  0  0  0  0
   -2.8147    0.5716   -0.4176 C   0  0  0  0  0  0  0  0  0  0  0  0
   -1.7778    1.1252    0.3525 C   0  0  0  0  0  0  0  0  0  0  0  0
   -0.4363    1.3941   -0.3037 C   0  0  0  0  0  0  0  0  0  0  0  0
    3.4954   -1.4599   -0.0226 C   0  0  0  0  0  0  0  0  0  0  0  0
    4.3775   -2.4567   -0.4557 C   0  0  0  0  0  0  0  0  0  0  0  0
    6.9508   -2.5731   -3.4869 H   0  0  0  0  0  0  0  0  0  0  0  0
    7.0070   -4.3377   -3.3939 H   0  0  0  0  0  0  0  0  0  0  0  0
    5.5843   -3.5750   -4.1144 H   0  0  0  0  0  0  0  0  0  0  0  0
    4.8900   -1.3648   -3.6347 H   0  0  0  0  0  0  0  0  0  0  0  0
    3.3597    0.3640   -2.8837 H   0  0  0  0  0  0  0  0  0  0  0  0
    1.9322    1.1902   -1.3021 H   0  0  0  0  0  0  0  0  0  0  0  0
   -0.2814    3.5768    1.1802 H   0  0  0  0  0  0  0  0  0  0  0  0
    0.9603    3.0756    2.3120 H   0  0  0  0  0  0  0  0  0  0  0  0
   -0.4749    1.2157    3.1438 H   0  0  0  0  0  0  0  0  0  0  0  0
   -1.3356    2.7651    3.2526 H   0  0  0  0  0  0  0  0  0  0  0  0
   -3.4242    1.4112    3.3156 H   0  0  0  0  0  0  0  0  0  0  0  0
   -5.7285    1.6290    3.5924 H   0  0  0  0  0  0  0  0  0  0  0  0
   -6.8428    0.2583    3.5591 H   0  0  0  0  0  0  0  0  0  0  0  0
   -5.1538   -0.0391    3.9852 H   0  0  0  0  0  0  0  0  0  0  0  0
   -4.6744    0.2189   -2.5245 H   0  0  0  0  0  0  0  0  0  0  0  0
   -5.8402   -1.0809   -2.2543 H   0  0  0  0  0  0  0  0  0  0  0  0
   -4.1311   -1.4030   -1.9408 H   0  0  0  0  0  0  0  0  0  0  0  0
   -2.6149    0.3474   -1.4606 H   0  0  0  0  0  0  0  0  0  0  0  0
   -0.1440    0.4973   -0.8587 H   0  0  0  0  0  0  0  0  0  0  0  0
   -0.5472    2.2252   -1.0099 H   0  0  0  0  0  0  0  0  0  0  0  0
    3.0836   -1.5464    0.9774 H   0  0  0  0  0  0  0  0  0  0  0  0
    4.6520   -3.2590    0.2253 H   0  0  0  0  0  0  0  0  0  0  0  0
  1  2  1  0
  2  3  1  0
  3  4  2  0
  4  5  1  0
  5  6  2  0
  6  7  1  0
  7  8  1  0
  8  9  2  0
  8 10  1  0
 10 11  1  0
 11 12  1  0
 12 13  1  0
 13 14  2  0
 14 15  1  0
 15 16  1  0
 16 17  1  0
 15 18  2  0
 18 19  1  0
 19 20  1  0
 18 21  1  0
 21 22  2  0
 22 23  1  0
  6 24  1  0
 24 25  2  0
 25  3  1  0
 23 10  1  0
 22 13  1  0
  1 26  1  0
  1 27  1  0
  1 28  1  0
  4 29  1  0
  5 30  1  0
  7 31  1  0
 11 32  1  0
 11 33  1  0
 12 34  1  0
 12 35  1  0
 14 36  1  0
 17 37  1  0
 17 38  1  0
 17 39  1  0
 20 40  1  0
 20 41  1  0
 20 42  1  0
 21 43  1  0
 23 44  1  0
 23 45  1  0
 24 46  1  0
 25 47  1  0
M  END
$$$$
