
     RDKit          3D

 51 54  0  0  0  0  0  0  0  0999 V2000
    1.1180    1.5932    2.7440 O   0  0  0  0  0  0  0  0  0  0  0  0
    1.4850    0.5974    2.1168 C   0  0  0  0  0  0  0  0  0  0  0  0
    0.5812   -0.6343    2.0001 C   0  0  0  0  0  0  0  0  0  0  0  0
   -0.0700   -0.7180    0.6690 N   0  0  0  0  0  0  0  0  0  0  0  0
   -0.7397   -2.0266    0.5027 C   0  0  0  0  0  0  0  0  0  0  0  0
   -2.0492   -2.1963    1.3120 C   0  0  0  0  0  0  0  0  0  0  0  0
   -3.0395   -1.1208    1.1105 N   0  0  0  0  0  0  0  0  0  0  0  0
   -3.7307   -1.2713   -0.1809 C   0  0  0  0  0  0  0  0  0  0  0  0
   -4.9644   -0.4003   -0.3077 C   0  0  0  0  0  0  0  0  0  0  0  0
   -4.9280    0.7143   -1.1687 C   0  0  0  0  0  0  0  0  0  0  0  0
   -6.0357    1.5539   -1.3026 C   0  0  0  0  0  0  0  0  0  0  0  0
   -7.1987    1.2930   -0.5825 C   0  0  0  0  0  0  0  0  0  0  0  0
   -7.2556    0.1896    0.2684 C   0  0  0  0  0  0  0  0  0  0  0  0
   -6.1479   -0.6545    0.4066 C   0  0  0  0  0  0  0  0  0  0  0  0
   -6.3137   -2.0141    1.4625 Cl  0  0  0  0  0  0  0  0  0  0  0  0
   -2.3820    0.1911    1.2736 C   0  0  0  0  0  0  0  0  0  0  0  0
   -1.0674    0.3606    0.4713 C   0  0  0  0  0  0  0  0  0  0  0  0
    2.6969    0.4339    1.4742 N   0  0  0  0  0  0  0  0  0  0  0  0
    3.3242    1.5092    1.3753 N   0  0  0  0  0  0  0  0  0  0  0  0
    4.5851    1.3349    0.7930 C   0  0  0  0  0  0  0  0  0  0  0  0
    5.7432    1.8441    1.3342 C   0  0  0  0  0  0  0  0  0  0  0  0
    5.9888    2.5574    2.4266 O   0  0  0  0  0  0  0  0  0  0  0  0
    6.7691    1.4753    0.5080 N   0  0  0  0  0  0  0  0  0  0  0  0
    6.2910    0.7507   -0.5640 C   0  0  0  0  0  0  0  0  0  0  0  0
    6.9777    0.1809   -1.6428 C   0  0  0  0  0  0  0  0  0  0  0  0
    6.2227   -0.5010   -2.6018 C   0  0  0  0  0  0  0  0  0  0  0  0
    4.8371   -0.6011   -2.4901 C   0  0  0  0  0  0  0  0  0  0  0  0
    4.1643   -0.0267   -1.4050 C   0  0  0  0  0  0  0  0  0  0  0  0
    4.9024    0.6583   -0.4172 C   0  0  0  0  0  0  0  0  0  0  0  0
    1.2217   -1.5106    2.1634 H   0  0  0  0  0  0  0  0  0  0  0  0
   -0.1403   -0.6153    2.8228 H   0  0  0  0  0  0  0  0  0  0  0  0
   -0.9598   -2.1593   -0.5654 H   0  0  0  0  0  0  0  0  0  0  0  0
   -0.0466   -2.8388    0.7560 H   0  0  0  0  0  0  0  0  0  0  0  0
   -2.4939   -3.1737    1.0871 H   0  0  0  0  0  0  0  0  0  0  0  0
   -1.8061   -2.2354    2.3821 H   0  0  0  0  0  0  0  0  0  0  0  0
   -4.0616   -2.3107   -0.3140 H   0  0  0  0  0  0  0  0  0  0  0  0
   -3.0547   -1.0833   -1.0249 H   0  0  0  0  0  0  0  0  0  0  0  0
   -4.0280    0.9389   -1.7399 H   0  0  0  0  0  0  0  0  0  0  0  0
   -5.9891    2.4131   -1.9687 H   0  0  0  0  0  0  0  0  0  0  0  0
   -8.0623    1.9455   -0.6854 H   0  0  0  0  0  0  0  0  0  0  0  0
   -8.1696   -0.0103    0.8220 H   0  0  0  0  0  0  0  0  0  0  0  0
   -2.1653    0.3236    2.3419 H   0  0  0  0  0  0  0  0  0  0  0  0
   -3.0662    1.0113    1.0292 H   0  0  0  0  0  0  0  0  0  0  0  0
   -1.3082    0.3973   -0.5994 H   0  0  0  0  0  0  0  0  0  0  0  0
   -0.6302    1.3407    0.6920 H   0  0  0  0  0  0  0  0  0  0  0  0
    5.1212    2.7242    2.8434 H   0  0  0  0  0  0  0  0  0  0  0  0
    7.7381    1.7105    0.6688 H   0  0  0  0  0  0  0  0  0  0  0  0
    8.0560    0.2605   -1.7364 H   0  0  0  0  0  0  0  0  0  0  0  0
    6.7271   -0.9572   -3.4520 H   0  0  0  0  0  0  0  0  0  0  0  0
    4.2704   -1.1332   -3.2501 H   0  0  0  0  0  0  0  0  0  0  0  0
    3.0829   -0.1105   -1.3265 H   0  0  0  0  0  0  0  0  0  0  0  0
  1  2  2  0
  2  3  1  0
  3  4  1  0
  4  5  1  0
  5  6  1  0
  6  7  1  0
  7  8  1  0
  8  9  1  0
  9 10  2  0
 10 11  1  0
 11 12  2  0
 12 13  1  0
 13 14  2  0
 14 15  1  0
  7 16  1  0
 16 17  1  0
  2 18  1  0
 18 19  2  3
 19 20  1  0
 20 21  2  0
 21 22  1  0
 21 23  1  0
 23 24  1  0
 24 25  2  0
 25 26  1  0
 26 27  2  0
 27 28  1  0
 28 29  2  0
 17  4  1  0
 29 20  1  0
 14  9  1  0
 29 24  1  0
  3 30  1  0
  3 31  1  0
  5 32  1  0
  5 33  1  0
  6 34  1  0
  6 35  1  0
  8 36  1  0
  8 37  1  0
 10 38  1  0
 11 39  1  0
 12 40  1  0
 13 41  1  0
 16 42  1  0
 16 43  1  0
 17 44  1  0
 17 45  1  0
 22 46  1  0
 23 47  1  0
 25 48  1  0
 26 49  1  0
 27 50  1  0
 28 51  1  0
M  END
$$$$
