
     RDKit          3D

 46 50  0  0  0  0  0  0  0  0999 V2000
   -8.1785    1.0247   -0.3975 C   0  0  0  0  0  0  0  0  0  0  0  0
   -6.7123    0.8583   -0.0954 C   0  0  0  0  0  0  0  0  0  0  0  0
   -5.7717    1.3252   -1.0363 C   0  0  0  0  0  0  0  0  0  0  0  0
   -4.4014    1.1813   -0.7774 C   0  0  0  0  0  0  0  0  0  0  0  0
   -3.3197    1.5616   -1.5490 N   0  0  0  0  0  0  0  0  0  0  0  0
   -2.2961    1.1886   -0.8336 C   0  0  0  0  0  0  0  0  0  0  0  0
   -0.5968    1.2944   -1.0746 S   0  0  0  0  0  0  0  0  0  0  0  0
   -0.3247    0.5214    0.4663 C   0  0  0  0  0  0  0  0  0  0  0  0
    0.8293    0.1833    1.0566 C   0  0  0  0  0  0  0  0  0  0  0  0
    2.1423    0.4037    0.5557 C   0  0  0  0  0  0  0  0  0  0  0  0
    2.6841    1.3797   -0.2723 C   0  0  0  0  0  0  0  0  0  0  0  0
    4.0671    1.1127   -0.4248 C   0  0  0  0  0  0  0  0  0  0  0  0
    4.3291   -0.0119    0.3225 C   0  0  0  0  0  0  0  0  0  0  0  0
    5.5211   -0.8046    0.6115 C   0  0  0  0  0  0  0  0  0  0  0  0
    5.6857   -1.3410    1.9023 C   0  0  0  0  0  0  0  0  0  0  0  0
    6.8415   -2.0445    2.2562 C   0  0  0  0  0  0  0  0  0  0  0  0
    7.8622   -2.2225    1.3273 C   0  0  0  0  0  0  0  0  0  0  0  0
    7.7198   -1.7111    0.0393 C   0  0  0  0  0  0  0  0  0  0  0  0
    6.5501   -1.0221   -0.3217 C   0  0  0  0  0  0  0  0  0  0  0  0
    6.4744   -0.5663   -1.7195 C   0  0  0  0  0  0  0  0  0  0  0  0
    7.2973    0.1216   -2.2918 O   0  0  0  0  0  0  0  0  0  0  0  0
    5.4063   -1.0857   -2.3464 O   0  0  0  0  0  0  0  0  0  0  0  0
    3.1808   -0.4228    0.9305 O   0  0  0  0  0  0  0  0  0  0  0  0
   -1.6058    0.1806    1.1562 C   0  0  0  0  0  0  0  0  0  0  0  0
   -1.7944   -0.3573    2.2315 O   0  0  0  0  0  0  0  0  0  0  0  0
   -2.6313    0.6000    0.3392 N   0  0  0  0  0  0  0  0  0  0  0  0
   -3.9994    0.5741    0.4156 C   0  0  0  0  0  0  0  0  0  0  0  0
   -4.9016    0.0992    1.3719 C   0  0  0  0  0  0  0  0  0  0  0  0
   -6.2759    0.2484    1.1024 C   0  0  0  0  0  0  0  0  0  0  0  0
   -7.2666   -0.2572    2.1203 C   0  0  0  0  0  0  0  0  0  0  0  0
   -8.3370    1.5151   -1.3640 H   0  0  0  0  0  0  0  0  0  0  0  0
   -8.6564    1.6443    0.3678 H   0  0  0  0  0  0  0  0  0  0  0  0
   -8.6712    0.0482   -0.4396 H   0  0  0  0  0  0  0  0  0  0  0  0
   -6.0854    1.7965   -1.9625 H   0  0  0  0  0  0  0  0  0  0  0  0
    0.7917   -0.3545    2.0036 H   0  0  0  0  0  0  0  0  0  0  0  0
    2.1541    2.2118   -0.7138 H   0  0  0  0  0  0  0  0  0  0  0  0
    4.7815    1.6860   -0.9994 H   0  0  0  0  0  0  0  0  0  0  0  0
    4.9114   -1.1975    2.6548 H   0  0  0  0  0  0  0  0  0  0  0  0
    6.9448   -2.4438    3.2625 H   0  0  0  0  0  0  0  0  0  0  0  0
    8.7647   -2.7622    1.6040 H   0  0  0  0  0  0  0  0  0  0  0  0
    8.5148   -1.8579   -0.6893 H   0  0  0  0  0  0  0  0  0  0  0  0
    5.4764   -0.7653   -3.2691 H   0  0  0  0  0  0  0  0  0  0  0  0
   -4.5500   -0.3679    2.2885 H   0  0  0  0  0  0  0  0  0  0  0  0
   -7.8886    0.5656    2.4864 H   0  0  0  0  0  0  0  0  0  0  0  0
   -6.7630   -0.6996    2.9865 H   0  0  0  0  0  0  0  0  0  0  0  0
   -7.9030   -1.0309    1.6793 H   0  0  0  0  0  0  0  0  0  0  0  0
  1  2  1  0
  2  3  2  0
  3  4  1  0
  4  5  1  0
  5  6  2  0
  6  7  1  0
  7  8  1  0
  8  9  2  3
  9 10  1  0
 10 11  2  0
 11 12  1  0
 12 13  2  0
 13 14  1  0
 14 15  2  0
 15 16  1  0
 16 17  2  0
 17 18  1  0
 18 19  2  0
 19 20  1  0
 20 21  2  0
 20 22  1  0
 13 23  1  0
  8 24  1  0
 24 25  2  0
 24 26  1  0
 26 27  1  0
 27 28  1  0
 28 29  2  0
 29 30  1  0
 29  2  1  0
 27  4  2  0
 26  6  1  0
 23 10  1  0
 19 14  1  0
  1 31  1  0
  1 32  1  0
  1 33  1  0
  3 34  1  0
  9 35  1  0
 11 36  1  0
 12 37  1  0
 15 38  1  0
 16 39  1  0
 17 40  1  0
 18 41  1  0
 22 42  1  0
 28 43  1  0
 30 44  1  0
 30 45  1  0
 30 46  1  0
M  END
$$$$
