
     RDKit          3D

 36 38  0  0  0  0  0  0  0  0999 V2000
   -4.3721    2.2089    0.8663 C   0  0  0  0  0  0  0  0  0  0  0  0
   -3.4027    1.2010    0.4942 N   0  0  0  0  0  0  0  0  0  0  0  0
   -2.0427    1.3760    0.5249 C   0  0  0  0  0  0  0  0  0  0  0  0
   -1.4508    0.2040    0.1051 C   0  0  0  0  0  0  0  0  0  0  0  0
   -0.0459   -0.0447   -0.0069 C   0  0  0  0  0  0  0  0  0  0  0  0
    0.9359    0.8496    0.2019 C   0  0  0  0  0  0  0  0  0  0  0  0
    2.3619    0.5334    0.0654 C   0  0  0  0  0  0  0  0  0  0  0  0
    2.9160   -0.6331    0.5908 C   0  0  0  0  0  0  0  0  0  0  0  0
    4.2788   -0.8717    0.4536 C   0  0  0  0  0  0  0  0  0  0  0  0
    5.0730    0.0182   -0.1821 N   0  0  0  0  0  4  0  0  0  0  0  0
    6.5151   -0.2534   -0.3090 C   0  0  0  0  0  0  0  0  0  0  0  0
    4.5624    1.1668   -0.6791 C   0  0  0  0  0  0  0  0  0  0  0  0
    3.2055    1.4476   -0.5623 C   0  0  0  0  0  0  0  0  0  0  0  0
   -2.5009   -0.7221   -0.1920 C   0  0  0  0  0  0  0  0  0  0  0  0
   -2.5376   -2.0564   -0.6542 C   0  0  0  0  0  0  0  0  0  0  0  0
   -3.7718   -2.6844   -0.8433 C   0  0  0  0  0  0  0  0  0  0  0  0
   -3.8093   -4.3120   -1.4062 Cl  0  0  0  0  0  0  0  0  0  0  0  0
   -4.9642   -2.0186   -0.5850 C   0  0  0  0  0  0  0  0  0  0  0  0
   -4.9565   -0.6979   -0.1278 C   0  0  0  0  0  0  0  0  0  0  0  0
   -3.7136   -0.0708    0.0609 C   0  0  0  0  0  0  0  0  0  0  0  0
   -3.8535    3.1218    1.1699 H   0  0  0  0  0  0  0  0  0  0  0  0
   -5.0061    2.4145    0.0001 H   0  0  0  0  0  0  0  0  0  0  0  0
   -4.9656    1.8258    1.7003 H   0  0  0  0  0  0  0  0  0  0  0  0
   -1.6206    2.3187    0.8464 H   0  0  0  0  0  0  0  0  0  0  0  0
    0.2246   -1.0558   -0.3036 H   0  0  0  0  0  0  0  0  0  0  0  0
    0.6986    1.8778    0.4649 H   0  0  0  0  0  0  0  0  0  0  0  0
    2.2977   -1.3569    1.1189 H   0  0  0  0  0  0  0  0  0  0  0  0
    4.7433   -1.7687    0.8539 H   0  0  0  0  0  0  0  0  0  0  0  0
    6.8894    0.2167   -1.2220 H   0  0  0  0  0  0  0  0  0  0  0  0
    7.0054    0.1641    0.5738 H   0  0  0  0  0  0  0  0  0  0  0  0
    6.6721   -1.3335   -0.3683 H   0  0  0  0  0  0  0  0  0  0  0  0
    5.2470    1.8557   -1.1662 H   0  0  0  0  0  0  0  0  0  0  0  0
    2.8122    2.3764   -0.9724 H   0  0  0  0  0  0  0  0  0  0  0  0
   -1.6184   -2.5930   -0.8634 H   0  0  0  0  0  0  0  0  0  0  0  0
   -5.9159   -2.5225   -0.7377 H   0  0  0  0  0  0  0  0  0  0  0  0
   -5.8905   -0.1814    0.0723 H   0  0  0  0  0  0  0  0  0  0  0  0
  1  2  1  0
  2  3  1  0
  3  4  2  0
  4  5  1  0
  5  6  2  3
  6  7  1  0
  7  8  2  0
  8  9  1  0
  9 10  2  0
 10 11  1  0
 10 12  1  0
 12 13  2  0
  4 14  1  0
 14 15  2  0
 15 16  1  0
 16 17  1  0
 16 18  2  0
 18 19  1  0
 19 20  2  0
 20  2  1  0
 13  7  1  0
 20 14  1  0
  1 21  1  0
  1 22  1  0
  1 23  1  0
  3 24  1  0
  5 25  1  0
  6 26  1  0
  8 27  1  0
  9 28  1  0
 11 29  1  0
 11 30  1  0
 11 31  1  0
 12 32  1  0
 13 33  1  0
 15 34  1  0
 18 35  1  0
 19 36  1  0
M  CHG  1  10   1
M  END
$$$$
