
     RDKit          3D

 43 46  0  0  0  0  0  0  0  0999 V2000
   -4.4147   -3.0749   -1.3209 C   0  0  0  0  0  0  0  0  0  0  0  0
   -3.9803   -1.6866   -1.2792 N   0  0  0  0  0  0  0  0  0  0  0  0
   -4.9630   -0.6990   -1.3198 C   0  0  0  0  0  0  0  0  0  0  0  0
   -6.1661   -0.9410   -1.3788 O   0  0  0  0  0  0  0  0  0  0  0  0
   -4.5120    0.7660   -1.2858 C   0  0  0  0  0  0  0  0  0  0  0  0
   -5.3704    1.6442   -1.3199 O   0  0  0  0  0  0  0  0  0  0  0  0
   -3.1449    1.0267   -1.2145 N   0  0  0  0  0  0  0  0  0  0  0  0
   -2.7211    2.4196   -1.1941 C   0  0  0  0  0  0  0  0  0  0  0  0
   -2.1834   -0.0194   -1.1689 C   0  0  0  0  0  0  0  0  0  0  0  0
   -0.8107    0.2716   -1.0891 C   0  0  0  0  0  0  0  0  0  0  0  0
    0.1335   -0.7582   -1.0362 C   0  0  0  0  0  0  0  0  0  0  0  0
    1.8606   -0.3337   -0.9380 S   0  0  0  0  0  6  0  0  0  0  0  0
    2.6168   -1.5692   -0.9441 O   0  0  0  0  0  0  0  0  0  0  0  0
    2.0767    0.6854   -1.9436 O   0  0  0  0  0  0  0  0  0  0  0  0
    1.9540    0.3513    0.6181 N   0  0  0  0  0  0  0  0  0  0  0  0
    1.5799   -0.5512    1.7611 C   0  0  0  0  0  0  0  0  0  0  0  0
    2.3644   -0.0471    2.9823 C   0  0  0  0  0  0  0  0  0  0  0  0
    3.4575    0.7452    2.3459 C   0  0  0  0  0  0  0  0  0  0  0  0
    4.5744    1.2882    2.9630 C   0  0  0  0  0  0  0  0  0  0  0  0
    5.4383    2.0709    2.1962 C   0  0  0  0  0  0  0  0  0  0  0  0
    5.1628    2.3171    0.8433 C   0  0  0  0  0  0  0  0  0  0  0  0
    4.0266    1.7727    0.2361 C   0  0  0  0  0  0  0  0  0  0  0  0
    3.2006    0.9586    0.9917 C   0  0  0  0  0  0  0  0  0  0  0  0
   -0.2636   -2.0880   -1.0788 C   0  0  0  0  0  0  0  0  0  0  0  0
   -1.6243   -2.3853   -1.1592 C   0  0  0  0  0  0  0  0  0  0  0  0
   -2.5974   -1.3659   -1.2021 C   0  0  0  0  0  0  0  0  0  0  0  0
   -4.0895   -3.5857   -0.4090 H   0  0  0  0  0  0  0  0  0  0  0  0
   -5.5029   -3.1661   -1.3816 H   0  0  0  0  0  0  0  0  0  0  0  0
   -3.9917   -3.5624   -2.2051 H   0  0  0  0  0  0  0  0  0  0  0  0
   -2.0826    2.6188   -2.0607 H   0  0  0  0  0  0  0  0  0  0  0  0
   -2.1798    2.6217   -0.2644 H   0  0  0  0  0  0  0  0  0  0  0  0
   -3.5682    3.1097   -1.2413 H   0  0  0  0  0  0  0  0  0  0  0  0
   -0.4443    1.2950   -1.0674 H   0  0  0  0  0  0  0  0  0  0  0  0
    1.8676   -1.5877    1.5492 H   0  0  0  0  0  0  0  0  0  0  0  0
    0.5019   -0.5171    1.9461 H   0  0  0  0  0  0  0  0  0  0  0  0
    2.7415   -0.8777    3.5857 H   0  0  0  0  0  0  0  0  0  0  0  0
    1.7412    0.6064    3.6019 H   0  0  0  0  0  0  0  0  0  0  0  0
    4.7708    1.1226    4.0176 H   0  0  0  0  0  0  0  0  0  0  0  0
    6.3229    2.5087    2.6532 H   0  0  0  0  0  0  0  0  0  0  0  0
    5.8333    2.9464    0.2623 H   0  0  0  0  0  0  0  0  0  0  0  0
    3.8168    2.0002   -0.8030 H   0  0  0  0  0  0  0  0  0  0  0  0
    0.4668   -2.8944   -1.0562 H   0  0  0  0  0  0  0  0  0  0  0  0
   -1.8980   -3.4365   -1.1919 H   0  0  0  0  0  0  0  0  0  0  0  0
  1  2  1  0
  2  3  1  0
  3  4  2  0
  3  5  1  0
  5  6  2  0
  5  7  1  0
  7  8  1  0
  7  9  1  0
  9 10  2  0
 10 11  1  0
 11 12  1  0
 12 13  2  0
 12 14  2  0
 12 15  1  0
 15 16  1  0
 16 17  1  0
 17 18  1  0
 18 19  2  0
 19 20  1  0
 20 21  2  0
 21 22  1  0
 22 23  2  0
 11 24  2  0
 24 25  1  0
 25 26  2  0
 26  2  1  0
 26  9  1  0
 23 15  1  0
 23 18  1  0
  1 27  1  0
  1 28  1  0
  1 29  1  0
  8 30  1  0
  8 31  1  0
  8 32  1  0
 10 33  1  0
 16 34  1  0
 16 35  1  0
 17 36  1  0
 17 37  1  0
 19 38  1  0
 20 39  1  0
 21 40  1  0
 22 41  1  0
 24 42  1  0
 25 43  1  0
M  END
$$$$
