
     RDKit          3D

 48 51  0  0  0  0  0  0  0  0999 V2000
    4.2229   -1.0782   -2.3395 O   0  0  0  0  0  0  0  0  0  0  0  0
    4.0733   -0.5316   -1.2544 C   0  0  0  0  0  0  0  0  0  0  0  0
    3.0473   -0.7735   -0.3428 N   0  0  0  0  0  0  0  0  0  0  0  0
    2.2721   -1.9246   -0.1551 C   0  0  0  0  0  0  0  0  0  0  0  0
    2.5478   -3.3876   -0.9259 S   0  0  0  0  0  0  0  0  0  0  0  0
    1.2573   -1.7070    0.8052 N   0  0  0  0  0  0  0  0  0  0  0  0
    0.4614   -2.8088    1.3778 C   0  0  0  0  0  0  0  0  0  0  0  0
   -0.8927   -2.9544    0.6543 C   0  0  0  0  0  0  0  0  0  0  0  0
   -1.6667   -1.6893    0.6794 N   0  0  0  0  0  0  0  0  0  0  0  0
   -2.9294   -1.8616   -0.0596 C   0  0  0  0  0  0  0  0  0  0  0  0
   -3.8878   -0.7030    0.1267 C   0  0  0  0  0  0  0  0  0  0  0  0
   -4.3595   -0.3707    1.4194 C   0  0  0  0  0  0  0  0  0  0  0  0
   -5.2467    0.6924    1.6135 C   0  0  0  0  0  0  0  0  0  0  0  0
   -5.6462    1.4019    0.5028 C   0  0  0  0  0  0  0  0  0  0  0  0
   -5.1967    1.0868   -0.7577 C   0  0  0  0  0  0  0  0  0  0  0  0
   -4.3217    0.0443   -0.9807 C   0  0  0  0  0  0  0  0  0  0  0  0
   -5.7094    1.9092   -1.7121 O   0  0  0  0  0  0  0  0  0  0  0  0
   -6.5402    2.7721   -0.9078 C   0  0  0  0  0  0  0  0  0  0  0  0
   -6.4985    2.4614    0.5003 O   0  0  0  0  0  0  0  0  0  0  0  0
   -0.8509   -0.5908    0.1101 C   0  0  0  0  0  0  0  0  0  0  0  0
    0.5050   -0.4391    0.8367 C   0  0  0  0  0  0  0  0  0  0  0  0
    5.0154    0.5589   -0.8807 C   0  0  0  0  0  0  0  0  0  0  0  0
    4.5912    1.7171   -0.2148 C   0  0  0  0  0  0  0  0  0  0  0  0
    5.5187    2.7121    0.1104 C   0  0  0  0  0  0  0  0  0  0  0  0
    6.8610    2.5540   -0.2359 C   0  0  0  0  0  0  0  0  0  0  0  0
    7.9954    3.7821    0.1673 Cl  0  0  0  0  0  0  0  0  0  0  0  0
    7.2862    1.4131   -0.9137 C   0  0  0  0  0  0  0  0  0  0  0  0
    6.3624    0.4176   -1.2413 C   0  0  0  0  0  0  0  0  0  0  0  0
    3.0829   -0.2297    0.5053 H   0  0  0  0  0  0  0  0  0  0  0  0
    0.2924   -2.5653    2.4347 H   0  0  0  0  0  0  0  0  0  0  0  0
    1.0127   -3.7529    1.3603 H   0  0  0  0  0  0  0  0  0  0  0  0
   -0.7247   -3.2744   -0.3819 H   0  0  0  0  0  0  0  0  0  0  0  0
   -1.4655   -3.7429    1.1567 H   0  0  0  0  0  0  0  0  0  0  0  0
   -3.4525   -2.7573    0.3019 H   0  0  0  0  0  0  0  0  0  0  0  0
   -2.7354   -2.0302   -1.1273 H   0  0  0  0  0  0  0  0  0  0  0  0
   -4.0208   -0.9471    2.2788 H   0  0  0  0  0  0  0  0  0  0  0  0
   -5.6069    0.9508    2.6024 H   0  0  0  0  0  0  0  0  0  0  0  0
   -3.9846   -0.1796   -1.9870 H   0  0  0  0  0  0  0  0  0  0  0  0
   -6.2083    3.8073   -1.0479 H   0  0  0  0  0  0  0  0  0  0  0  0
   -7.5761    2.6852   -1.2556 H   0  0  0  0  0  0  0  0  0  0  0  0
   -1.3821    0.3631    0.2018 H   0  0  0  0  0  0  0  0  0  0  0  0
   -0.6665   -0.7686   -0.9578 H   0  0  0  0  0  0  0  0  0  0  0  0
    0.3468   -0.1746    1.8891 H   0  0  0  0  0  0  0  0  0  0  0  0
    1.0608    0.3777    0.3689 H   0  0  0  0  0  0  0  0  0  0  0  0
    3.5451    1.8801    0.0279 H   0  0  0  0  0  0  0  0  0  0  0  0
    5.1884    3.6134    0.6217 H   0  0  0  0  0  0  0  0  0  0  0  0
    8.3295    1.2932   -1.1948 H   0  0  0  0  0  0  0  0  0  0  0  0
    6.6937   -0.4698   -1.7793 H   0  0  0  0  0  0  0  0  0  0  0  0
  1  2  2  0
  2  3  1  0
  3  4  1  0
  4  5  2  0
  4  6  1  0
  6  7  1  0
  7  8  1  0
  8  9  1  0
  9 10  1  0
 10 11  1  0
 11 12  2  0
 12 13  1  0
 13 14  2  0
 14 15  1  0
 15 16  2  0
 15 17  1  0
 17 18  1  0
 18 19  1  0
  9 20  1  0
 20 21  1  0
  2 22  1  0
 22 23  2  0
 23 24  1  0
 24 25  2  0
 25 26  1  0
 25 27  1  0
 27 28  2  0
 21  6  1  0
 28 22  1  0
 16 11  1  0
 19 14  1  0
  3 29  1  0
  7 30  1  0
  7 31  1  0
  8 32  1  0
  8 33  1  0
 10 34  1  0
 10 35  1  0
 12 36  1  0
 13 37  1  0
 16 38  1  0
 18 39  1  0
 18 40  1  0
 20 41  1  0
 20 42  1  0
 21 43  1  0
 21 44  1  0
 23 45  1  0
 24 46  1  0
 27 47  1  0
 28 48  1  0
M  END
$$$$
