
     RDKit          3D

 48 49  0  0  0  0  0  0  0  0999 V2000
    1.1123   -0.2458    3.1023 C   0  0  0  0  0  0  0  0  0  0  0  0
    1.7318   -0.0797    1.8332 O   0  0  0  0  0  0  0  0  0  0  0  0
    0.9168   -0.1290    0.7313 C   0  0  0  0  0  0  0  0  0  0  0  0
   -0.3978   -0.6072    0.7396 C   0  0  0  0  0  0  0  0  0  0  0  0
   -1.1738   -0.6115   -0.4331 C   0  0  0  0  0  0  0  0  0  0  0  0
   -2.6016   -1.1109   -0.3982 C   0  0  0  0  0  0  0  0  0  0  0  0
   -3.4631   -0.1213    0.2460 N   0  0  0  0  0  0  0  0  0  0  0  0
   -4.9112   -0.4313    0.2153 C   0  0  0  0  0  0  0  0  0  0  0  0
   -5.2356   -1.8261    0.7747 C   0  0  0  0  0  0  0  0  0  0  0  0
   -5.5694    0.6176    1.1359 C   0  0  0  0  0  0  0  0  0  0  0  0
   -5.4936   -0.2933   -1.2195 C   0  0  0  0  0  0  0  0  0  0  0  0
   -5.0750    0.9240   -1.8397 O   0  0  0  0  0  0  0  0  0  0  0  0
   -0.6241   -0.1098   -1.6199 C   0  0  0  0  0  0  0  0  0  0  0  0
    0.6903    0.3593   -1.6410 C   0  0  0  0  0  0  0  0  0  0  0  0
    1.3794    1.0229   -3.2807 Br  0  0  0  0  0  0  0  0  0  0  0  0
    1.4685    0.3274   -0.4777 C   0  0  0  0  0  0  0  0  0  0  0  0
    2.7500    0.8252   -0.5120 O   0  0  0  0  0  0  0  0  0  0  0  0
    3.7013   -0.2419   -0.5477 C   0  0  0  0  0  0  0  0  0  0  0  0
    5.0562    0.3564   -0.8397 C   0  0  0  0  0  0  0  0  0  0  0  0
    5.8472    0.8594    0.2040 C   0  0  0  0  0  0  0  0  0  0  0  0
    7.0929    1.4309   -0.0641 C   0  0  0  0  0  0  0  0  0  0  0  0
    7.5487    1.5108   -1.3782 C   0  0  0  0  0  0  0  0  0  0  0  0
    9.0837    2.2151   -1.7090 Cl  0  0  0  0  0  0  0  0  0  0  0  0
    6.7679    1.0292   -2.4268 C   0  0  0  0  0  0  0  0  0  0  0  0
    5.5221    0.4574   -2.1587 C   0  0  0  0  0  0  0  0  0  0  0  0
    0.7741   -1.2779    3.2392 H   0  0  0  0  0  0  0  0  0  0  0  0
    1.8642   -0.0388    3.8700 H   0  0  0  0  0  0  0  0  0  0  0  0
    0.2895    0.4633    3.2426 H   0  0  0  0  0  0  0  0  0  0  0  0
   -0.8582   -0.9773    1.6515 H   0  0  0  0  0  0  0  0  0  0  0  0
   -2.9299   -1.3280   -1.4207 H   0  0  0  0  0  0  0  0  0  0  0  0
   -2.6118   -2.0593    0.1514 H   0  0  0  0  0  0  0  0  0  0  0  0
   -3.3372    0.7577   -0.2661 H   0  0  0  0  0  0  0  0  0  0  0  0
   -4.8646   -2.6248    0.1233 H   0  0  0  0  0  0  0  0  0  0  0  0
   -4.7965   -1.9689    1.7688 H   0  0  0  0  0  0  0  0  0  0  0  0
   -6.3187   -1.9662    0.8699 H   0  0  0  0  0  0  0  0  0  0  0  0
   -6.6593    0.5011    1.1481 H   0  0  0  0  0  0  0  0  0  0  0  0
   -5.3522    1.6430    0.8154 H   0  0  0  0  0  0  0  0  0  0  0  0
   -5.2164    0.5163    2.1695 H   0  0  0  0  0  0  0  0  0  0  0  0
   -5.1582   -1.1145   -1.8614 H   0  0  0  0  0  0  0  0  0  0  0  0
   -6.5893   -0.3152   -1.2093 H   0  0  0  0  0  0  0  0  0  0  0  0
   -5.5334    1.6547   -1.3904 H   0  0  0  0  0  0  0  0  0  0  0  0
   -1.2268   -0.0801   -2.5254 H   0  0  0  0  0  0  0  0  0  0  0  0
    3.7392   -0.7701    0.4127 H   0  0  0  0  0  0  0  0  0  0  0  0
    3.4480   -0.9751   -1.3253 H   0  0  0  0  0  0  0  0  0  0  0  0
    5.4882    0.8154    1.2305 H   0  0  0  0  0  0  0  0  0  0  0  0
    7.6960    1.8165    0.7531 H   0  0  0  0  0  0  0  0  0  0  0  0
    7.1179    1.1016   -3.4528 H   0  0  0  0  0  0  0  0  0  0  0  0
    4.9118    0.0987   -2.9850 H   0  0  0  0  0  0  0  0  0  0  0  0
  1  2  1  0
  2  3  1  0
  3  4  2  0
  4  5  1  0
  5  6  1  0
  6  7  1  0
  7  8  1  0
  8  9  1  0
  8 10  1  0
  8 11  1  0
 11 12  1  0
  5 13  2  0
 13 14  1  0
 14 15  1  0
 14 16  2  0
 16 17  1  0
 17 18  1  0
 18 19  1  0
 19 20  2  0
 20 21  1  0
 21 22  2  0
 22 23  1  0
 22 24  1  0
 24 25  2  0
 16  3  1  0
 25 19  1  0
  1 26  1  0
  1 27  1  0
  1 28  1  0
  4 29  1  0
  6 30  1  0
  6 31  1  0
  7 32  1  0
  9 33  1  0
  9 34  1  0
  9 35  1  0
 10 36  1  0
 10 37  1  0
 10 38  1  0
 11 39  1  0
 11 40  1  0
 12 41  1  0
 13 42  1  0
 18 43  1  0
 18 44  1  0
 20 45  1  0
 21 46  1  0
 24 47  1  0
 25 48  1  0
M  END
$$$$
