
     RDKit          3D

 58 60  0  0  0  0  0  0  0  0999 V2000
   10.2002    1.1063   -0.0124 C   0  0  0  0  0  0  0  0  0  0  0  0
    8.8333    1.1076    0.6521 C   0  0  0  0  0  0  0  0  0  0  0  0
    7.7315    0.7315   -0.3331 C   0  0  0  0  0  0  0  0  0  0  0  0
    6.3521    0.7703    0.3211 C   0  0  0  0  0  0  0  0  0  0  0  0
    5.3934    0.3597   -0.6567 O   0  0  0  0  0  0  0  0  0  0  0  0
    4.0841    0.3087   -0.2645 C   0  0  0  0  0  0  0  0  0  0  0  0
    3.5740    0.7644    0.9513 C   0  0  0  0  0  0  0  0  0  0  0  0
    2.2029    0.6671    1.2189 C   0  0  0  0  0  0  0  0  0  0  0  0
    1.3300    0.1093    0.2753 C   0  0  0  0  0  0  0  0  0  0  0  0
   -0.1291    0.0309    0.5877 C   0  0  0  0  0  0  0  0  0  0  0  0
   -0.5470    0.5326    1.6240 O   0  0  0  0  0  0  0  0  0  0  0  0
   -0.9011   -0.6349   -0.3337 N   0  0  0  0  0  0  0  0  0  0  0  0
   -2.1775   -0.3824   -0.3906 C   0  0  0  0  0  0  0  0  0  0  0  0
   -3.0437   -1.1170   -1.3837 C   0  0  0  0  0  0  0  0  0  0  0  0
   -3.7954   -2.2618   -0.7523 C   0  0  0  0  0  0  0  0  0  0  0  0
   -5.1543   -2.1282   -0.4355 C   0  0  0  0  0  0  0  0  0  0  0  0
   -5.8445   -3.1713    0.1850 C   0  0  0  0  0  0  0  0  0  0  0  0
   -5.1688   -4.3573    0.4931 C   0  0  0  0  0  0  0  0  0  0  0  0
   -5.8879   -5.4512    1.1570 N   0  0  0  0  0  4  0  0  0  0  0  0
   -7.1084   -5.3196    1.3283 O   0  0  0  0  0  0  0  0  0  0  0  0
   -5.2313   -6.4438    1.5088 O   0  0  0  0  0  1  0  0  0  0  0  0
   -3.8109   -4.5064    0.1811 C   0  0  0  0  0  0  0  0  0  0  0  0
   -3.1295   -3.4568   -0.4390 C   0  0  0  0  0  0  0  0  0  0  0  0
   -2.9145    0.6372    0.4565 C   0  0  0  0  0  0  0  0  0  0  0  0
   -3.6553    0.3305    1.3691 O   0  0  0  0  0  0  0  0  0  0  0  0
   -2.6615    1.8568   -0.0549 O   0  0  0  0  0  0  0  0  0  0  0  0
   -3.3067    2.9335    0.6316 C   0  0  0  0  0  0  0  0  0  0  0  0
   -4.6432    3.1247    0.0178 C   0  0  0  0  0  0  0  0  0  0  0  0
   -5.9148    2.7404    0.3857 C   0  0  0  0  0  0  0  0  0  0  0  0
   -6.7840    3.2230   -0.6216 C   0  0  0  0  0  0  0  0  0  0  0  0
   -5.9891    3.8685   -1.5375 C   0  0  0  0  0  0  0  0  0  0  0  0
   -4.6865    3.8092   -1.1619 O   0  0  0  0  0  0  0  0  0  0  0  0
    1.8438   -0.3516   -0.9410 C   0  0  0  0  0  0  0  0  0  0  0  0
    3.2131   -0.2459   -1.2063 C   0  0  0  0  0  0  0  0  0  0  0  0
   10.4297    0.1240   -0.4397 H   0  0  0  0  0  0  0  0  0  0  0  0
   10.2467    1.8495   -0.8157 H   0  0  0  0  0  0  0  0  0  0  0  0
   10.9763    1.3477    0.7199 H   0  0  0  0  0  0  0  0  0  0  0  0
    8.8401    0.3989    1.4881 H   0  0  0  0  0  0  0  0  0  0  0  0
    8.6387    2.1000    1.0713 H   0  0  0  0  0  0  0  0  0  0  0  0
    7.9136   -0.2691   -0.7419 H   0  0  0  0  0  0  0  0  0  0  0  0
    7.7417    1.4117   -1.1924 H   0  0  0  0  0  0  0  0  0  0  0  0
    6.3296    0.0844    1.1755 H   0  0  0  0  0  0  0  0  0  0  0  0
    6.1414    1.7941    0.6551 H   0  0  0  0  0  0  0  0  0  0  0  0
    4.2096    1.2089    1.7095 H   0  0  0  0  0  0  0  0  0  0  0  0
    1.8200    1.0320    2.1698 H   0  0  0  0  0  0  0  0  0  0  0  0
   -3.7378   -0.4057   -1.8452 H   0  0  0  0  0  0  0  0  0  0  0  0
   -2.4149   -1.5013   -2.1966 H   0  0  0  0  0  0  0  0  0  0  0  0
   -5.6837   -1.2030   -0.6536 H   0  0  0  0  0  0  0  0  0  0  0  0
   -6.8980   -3.0390    0.4304 H   0  0  0  0  0  0  0  0  0  0  0  0
   -3.2723   -5.4207    0.4183 H   0  0  0  0  0  0  0  0  0  0  0  0
   -2.0704   -3.5714   -0.6657 H   0  0  0  0  0  0  0  0  0  0  0  0
   -3.3722    2.7517    1.7111 H   0  0  0  0  0  0  0  0  0  0  0  0
   -2.6927    3.8300    0.4913 H   0  0  0  0  0  0  0  0  0  0  0  0
   -6.1759    2.1784    1.2732 H   0  0  0  0  0  0  0  0  0  0  0  0
   -7.8573    3.1169   -0.6725 H   0  0  0  0  0  0  0  0  0  0  0  0
   -6.1855    4.3938   -2.4620 H   0  0  0  0  0  0  0  0  0  0  0  0
    1.1941   -0.7922   -1.6916 H   0  0  0  0  0  0  0  0  0  0  0  0
    3.6060   -0.6038   -2.1556 H   0  0  0  0  0  0  0  0  0  0  0  0
  1  2  1  0
  2  3  1  0
  3  4  1  0
  4  5  1  0
  5  6  1  0
  6  7  2  0
  7  8  1  0
  8  9  2  0
  9 10  1  0
 10 11  2  0
 10 12  1  0
 12 13  2  3
 13 14  1  0
 14 15  1  0
 15 16  2  0
 16 17  1  0
 17 18  2  0
 18 19  1  0
 19 20  2  0
 19 21  1  0
 18 22  1  0
 22 23  2  0
 13 24  1  0
 24 25  2  0
 24 26  1  0
 26 27  1  0
 27 28  1  0
 28 29  2  0
 29 30  1  0
 30 31  2  0
 31 32  1  0
  9 33  1  0
 33 34  2  0
 34  6  1  0
 23 15  1  0
 32 28  1  0
  1 35  1  0
  1 36  1  0
  1 37  1  0
  2 38  1  0
  2 39  1  0
  3 40  1  0
  3 41  1  0
  4 42  1  0
  4 43  1  0
  7 44  1  0
  8 45  1  0
 14 46  1  0
 14 47  1  0
 16 48  1  0
 17 49  1  0
 22 50  1  0
 23 51  1  0
 27 52  1  0
 27 53  1  0
 29 54  1  0
 30 55  1  0
 31 56  1  0
 33 57  1  0
 34 58  1  0
M  CHG  2  19   1  21  -1
M  END
$$$$
