
     RDKit          3D

 47 50  0  0  0  0  0  0  0  0999 V2000
    6.9965   -0.8135   -2.6792 C   0  0  0  0  0  0  0  0  0  0  0  0
    6.5391    0.0743   -1.5486 C   0  0  0  0  0  0  0  0  0  0  0  0
    7.3171    0.8515   -1.0075 O   0  0  0  0  0  0  0  0  0  0  0  0
    5.1970   -0.0966   -1.2630 N   0  0  0  0  0  0  0  0  0  0  0  0
    4.4350    0.5649   -0.2764 C   0  0  0  0  0  0  0  0  0  0  0  0
    4.9537    1.5177    0.5992 C   0  0  0  0  0  0  0  0  0  0  0  0
    4.1288    2.1229    1.5489 C   0  0  0  0  0  0  0  0  0  0  0  0
    2.7794    1.7794    1.6284 C   0  0  0  0  0  0  0  0  0  0  0  0
    2.2399    0.8277    0.7581 C   0  0  0  0  0  0  0  0  0  0  0  0
    0.8683    0.5283    0.9013 N   0  0  0  0  0  0  0  0  0  0  0  0
    0.1190   -0.3462    0.1389 C   0  0  0  0  0  0  0  0  0  0  0  0
    0.4729   -0.9851   -0.8426 O   0  0  0  0  0  0  0  0  0  0  0  0
   -1.2972   -0.4513    0.5572 C   0  0  0  0  0  0  0  0  0  0  0  0
   -2.2474   -0.0835   -0.3971 C   0  0  0  0  0  0  0  0  0  0  0  0
   -3.5857   -0.1218   -0.0482 C   0  0  0  0  0  0  0  0  0  0  0  0
   -4.6743    0.2485   -0.9698 C   0  0  0  0  0  0  0  0  0  0  0  0
   -4.5700    0.1470   -2.3659 C   0  0  0  0  0  0  0  0  0  0  0  0
   -5.6340    0.5194   -3.1893 C   0  0  0  0  0  0  0  0  0  0  0  0
   -6.7920    0.9881   -2.5967 C   0  0  0  0  0  0  0  0  0  0  0  0
   -6.9506    1.1006   -1.2642 N   0  0  0  0  0  0  0  0  0  0  0  0
   -5.8986    0.7238   -0.4917 C   0  0  0  0  0  0  0  0  0  0  0  0
   -3.9717   -0.4955    1.1973 N   0  0  0  0  0  0  0  0  0  0  0  0
   -3.0602   -0.8839    2.1036 C   0  0  0  0  0  0  0  0  0  0  0  0
   -3.5090   -1.2939    3.3523 C   0  0  0  0  0  0  0  0  0  0  0  0
   -2.6309   -1.7303    4.3478 C   0  0  0  0  0  0  0  0  0  0  0  0
   -1.2699   -1.7655    4.0867 C   0  0  0  0  0  0  0  0  0  0  0  0
   -0.1761   -2.3105    5.2945 Cl  0  0  0  0  0  0  0  0  0  0  0  0
   -0.7891   -1.3581    2.8451 C   0  0  0  0  0  0  0  0  0  0  0  0
   -1.6788   -0.8962    1.8404 C   0  0  0  0  0  0  0  0  0  0  0  0
    3.0752    0.2252   -0.1875 C   0  0  0  0  0  0  0  0  0  0  0  0
    6.5486   -1.8082   -2.5980 H   0  0  0  0  0  0  0  0  0  0  0  0
    6.7168   -0.3594   -3.6335 H   0  0  0  0  0  0  0  0  0  0  0  0
    8.0837   -0.9265   -2.6363 H   0  0  0  0  0  0  0  0  0  0  0  0
    4.6924   -0.7676   -1.8300 H   0  0  0  0  0  0  0  0  0  0  0  0
    5.9981    1.8123    0.5709 H   0  0  0  0  0  0  0  0  0  0  0  0
    4.5449    2.8640    2.2270 H   0  0  0  0  0  0  0  0  0  0  0  0
    2.1637    2.2684    2.3786 H   0  0  0  0  0  0  0  0  0  0  0  0
    0.3821    1.0378    1.6303 H   0  0  0  0  0  0  0  0  0  0  0  0
   -1.9241    0.2427   -1.3808 H   0  0  0  0  0  0  0  0  0  0  0  0
   -3.6691   -0.2404   -2.8351 H   0  0  0  0  0  0  0  0  0  0  0  0
   -5.5599    0.4390   -4.2682 H   0  0  0  0  0  0  0  0  0  0  0  0
   -7.6474    1.2898   -3.1943 H   0  0  0  0  0  0  0  0  0  0  0  0
   -6.0775    0.8271    0.5770 H   0  0  0  0  0  0  0  0  0  0  0  0
   -4.5785   -1.2809    3.5563 H   0  0  0  0  0  0  0  0  0  0  0  0
   -3.0217   -2.0466    5.3115 H   0  0  0  0  0  0  0  0  0  0  0  0
    0.2811   -1.4187    2.6563 H   0  0  0  0  0  0  0  0  0  0  0  0
    2.6804   -0.5203   -0.8691 H   0  0  0  0  0  0  0  0  0  0  0  0
  1  2  1  0
  2  3  2  0
  2  4  1  0
  4  5  1  0
  5  6  2  0
  6  7  1  0
  7  8  2  0
  8  9  1  0
  9 10  1  0
 10 11  1  0
 11 12  2  0
 11 13  1  0
 13 14  2  0
 14 15  1  0
 15 16  1  0
 16 17  2  0
 17 18  1  0
 18 19  2  0
 19 20  1  0
 20 21  2  0
 15 22  2  0
 22 23  1  0
 23 24  2  0
 24 25  1  0
 25 26  2  0
 26 27  1  0
 26 28  1  0
 28 29  2  0
  9 30  2  0
 30  5  1  0
 29 13  1  0
 21 16  1  0
 29 23  1  0
  1 31  1  0
  1 32  1  0
  1 33  1  0
  4 34  1  0
  6 35  1  0
  7 36  1  0
  8 37  1  0
 10 38  1  0
 14 39  1  0
 17 40  1  0
 18 41  1  0
 19 42  1  0
 21 43  1  0
 24 44  1  0
 25 45  1  0
 28 46  1  0
 30 47  1  0
M  END
$$$$
