
     RDKit          3D

 46 47  0  0  0  0  0  0  0  0999 V2000
    0.7958   -1.8388    0.4330 O   0  0  0  0  0  0  0  0  0  0  0  0
    0.6864   -0.6572    0.7239 C   0  0  0  0  0  0  0  0  0  0  0  0
   -0.5065   -0.0028    0.9215 N   0  0  0  0  0  0  0  0  0  0  0  0
   -1.7827   -0.7186    0.8383 C   0  0  0  0  0  0  0  0  0  0  0  0
   -2.1404   -1.0444   -0.6266 C   0  0  0  0  0  0  0  0  0  0  0  0
   -2.5907    0.1371   -1.4888 C   0  0  0  0  0  0  0  0  0  0  0  0
   -4.1105    0.3268   -1.5799 C   0  0  0  0  0  0  0  0  0  0  0  0
   -4.7144    1.2177   -0.4970 C   0  0  0  0  0  0  0  0  0  0  0  0
   -5.2263    0.4988    0.7522 C   0  0  0  0  0  0  0  0  0  0  0  0
   -4.2719   -0.4664    1.4531 C   0  0  0  0  0  0  0  0  0  0  0  0
   -2.8504    0.0678    1.6169 C   0  0  0  0  0  0  0  0  0  0  0  0
    1.7419    0.2035    0.9066 N   0  0  0  0  0  0  0  0  0  0  0  0
    3.1093   -0.2328    0.6564 C   0  0  0  0  0  0  0  0  0  0  0  0
    3.4131   -0.2626   -0.8486 C   0  0  0  0  0  0  0  0  0  0  0  0
    4.8652   -0.6453   -1.1234 C   0  0  0  0  0  0  0  0  0  0  0  0
    5.8385    0.2627   -0.3781 C   0  0  0  0  0  0  0  0  0  0  0  0
    5.5423    0.2954    1.1181 C   0  0  0  0  0  0  0  0  0  0  0  0
    4.0922    0.6823    1.3953 C   0  0  0  0  0  0  0  0  0  0  0  0
   -0.4380    0.7180    1.6254 H   0  0  0  0  0  0  0  0  0  0  0  0
   -1.6351   -1.6778    1.3531 H   0  0  0  0  0  0  0  0  0  0  0  0
   -1.2566   -1.4812   -1.1095 H   0  0  0  0  0  0  0  0  0  0  0  0
   -2.8944   -1.8391   -0.6620 H   0  0  0  0  0  0  0  0  0  0  0  0
   -2.0895    1.0656   -1.1933 H   0  0  0  0  0  0  0  0  0  0  0  0
   -2.2458   -0.0740   -2.5105 H   0  0  0  0  0  0  0  0  0  0  0  0
   -4.3019    0.8278   -2.5388 H   0  0  0  0  0  0  0  0  0  0  0  0
   -4.6319   -0.6355   -1.6369 H   0  0  0  0  0  0  0  0  0  0  0  0
   -5.5791    1.7358   -0.9337 H   0  0  0  0  0  0  0  0  0  0  0  0
   -4.0141    2.0150   -0.2238 H   0  0  0  0  0  0  0  0  0  0  0  0
   -6.1403   -0.0523    0.4961 H   0  0  0  0  0  0  0  0  0  0  0  0
   -5.5353    1.2668    1.4733 H   0  0  0  0  0  0  0  0  0  0  0  0
   -4.2871   -1.4360    0.9460 H   0  0  0  0  0  0  0  0  0  0  0  0
   -4.6853   -0.6661    2.4507 H   0  0  0  0  0  0  0  0  0  0  0  0
   -2.7917    1.1358    1.3793 H   0  0  0  0  0  0  0  0  0  0  0  0
   -2.5852    0.0118    2.6823 H   0  0  0  0  0  0  0  0  0  0  0  0
    1.5263    1.1630    0.6783 H   0  0  0  0  0  0  0  0  0  0  0  0
    3.2111   -1.2514    1.0535 H   0  0  0  0  0  0  0  0  0  0  0  0
    2.7499   -0.9717   -1.3581 H   0  0  0  0  0  0  0  0  0  0  0  0
    3.2072    0.7223   -1.2880 H   0  0  0  0  0  0  0  0  0  0  0  0
    5.0627   -0.5921   -2.1999 H   0  0  0  0  0  0  0  0  0  0  0  0
    5.0311   -1.6862   -0.8192 H   0  0  0  0  0  0  0  0  0  0  0  0
    5.7734    1.2792   -0.7851 H   0  0  0  0  0  0  0  0  0  0  0  0
    6.8653   -0.0825   -0.5434 H   0  0  0  0  0  0  0  0  0  0  0  0
    5.7461   -0.6910    1.5526 H   0  0  0  0  0  0  0  0  0  0  0  0
    6.2143    1.0067    1.6113 H   0  0  0  0  0  0  0  0  0  0  0  0
    3.9022    0.6401    2.4748 H   0  0  0  0  0  0  0  0  0  0  0  0
    3.9309    1.7257    1.0936 H   0  0  0  0  0  0  0  0  0  0  0  0
  1  2  2  0
  2  3  1  0
  3  4  1  0
  4  5  1  0
  5  6  1  0
  6  7  1  0
  7  8  1  0
  8  9  1  0
  9 10  1  0
 10 11  1  0
  2 12  1  0
 12 13  1  0
 13 14  1  0
 14 15  1  0
 15 16  1  0
 16 17  1  0
 17 18  1  0
 11  4  1  0
 18 13  1  0
  3 19  1  0
  4 20  1  0
  5 21  1  0
  5 22  1  0
  6 23  1  0
  6 24  1  0
  7 25  1  0
  7 26  1  0
  8 27  1  0
  8 28  1  0
  9 29  1  0
  9 30  1  0
 10 31  1  0
 10 32  1  0
 11 33  1  0
 11 34  1  0
 12 35  1  0
 13 36  1  0
 14 37  1  0
 14 38  1  0
 15 39  1  0
 15 40  1  0
 16 41  1  0
 16 42  1  0
 17 43  1  0
 17 44  1  0
 18 45  1  0
 18 46  1  0
M  END
$$$$
