
     RDKit          3D

 52 55  0  0  0  0  0  0  0  0999 V2000
    8.7622    0.2434   -0.6164 C   0  0  0  0  0  0  0  0  0  0  0  0
    8.2476   -0.2772    0.7144 C   0  0  0  0  0  0  0  0  0  0  0  0
    7.2710    0.6053    1.2637 O   0  0  0  0  0  0  0  0  0  0  0  0
    5.9608    0.4395    0.9175 C   0  0  0  0  0  0  0  0  0  0  0  0
    5.0761    1.2971    1.5732 C   0  0  0  0  0  0  0  0  0  0  0  0
    3.7027    1.2424    1.3159 C   0  0  0  0  0  0  0  0  0  0  0  0
    3.1918    0.3309    0.3874 C   0  0  0  0  0  0  0  0  0  0  0  0
    1.7961    0.3190    0.1887 N   0  0  0  0  0  0  0  0  0  0  0  0
    1.1037   -0.3085   -0.8211 C   0  0  0  0  0  0  0  0  0  0  0  0
    1.6204   -0.8182   -1.8124 O   0  0  0  0  0  0  0  0  0  0  0  0
   -0.2839   -0.3006   -0.6556 N   0  0  0  0  0  0  0  0  0  0  0  0
   -0.9846   -0.1408    0.6160 C   0  0  0  0  0  0  0  0  0  0  0  0
   -2.1819    0.7911    0.4622 C   0  0  0  0  0  0  0  0  0  0  0  0
   -2.9727    0.5237   -0.8325 C   0  0  0  0  0  0  0  0  0  0  0  0
   -4.4063    0.6596   -0.6591 N   0  0  0  0  0  0  0  0  0  0  0  0
   -5.1971    1.6163   -1.3379 C   0  0  0  0  0  0  0  0  0  0  0  0
   -4.8292    2.4663   -2.1312 O   0  0  0  0  0  0  0  0  0  0  0  0
   -6.5202    1.4092   -0.9248 N   0  0  0  0  0  0  0  0  0  0  0  0
   -6.5545    0.3547   -0.0230 C   0  0  0  0  0  0  0  0  0  0  0  0
   -7.6401   -0.1848    0.6287 C   0  0  0  0  0  0  0  0  0  0  0  0
   -7.3879   -1.2527    1.4924 C   0  0  0  0  0  0  0  0  0  0  0  0
   -6.0780   -1.7430    1.6750 C   0  0  0  0  0  0  0  0  0  0  0  0
   -4.9914   -1.1753    0.9977 C   0  0  0  0  0  0  0  0  0  0  0  0
   -5.2531   -0.1213    0.1490 C   0  0  0  0  0  0  0  0  0  0  0  0
   -2.5798   -0.7924   -1.5112 C   0  0  0  0  0  0  0  0  0  0  0  0
   -1.0746   -0.8341   -1.7639 C   0  0  0  0  0  0  0  0  0  0  0  0
    4.0759   -0.5313   -0.2618 C   0  0  0  0  0  0  0  0  0  0  0  0
    5.4534   -0.4739   -0.0032 C   0  0  0  0  0  0  0  0  0  0  0  0
    9.1277    1.2708   -0.5115 H   0  0  0  0  0  0  0  0  0  0  0  0
    7.9701    0.2641   -1.3714 H   0  0  0  0  0  0  0  0  0  0  0  0
    9.5785   -0.3851   -0.9857 H   0  0  0  0  0  0  0  0  0  0  0  0
    7.8921   -1.3116    0.6521 H   0  0  0  0  0  0  0  0  0  0  0  0
    9.0825   -0.2923    1.4243 H   0  0  0  0  0  0  0  0  0  0  0  0
    5.4599    2.0151    2.2933 H   0  0  0  0  0  0  0  0  0  0  0  0
    3.0476    1.9256    1.8488 H   0  0  0  0  0  0  0  0  0  0  0  0
    1.2818    1.0361    0.6743 H   0  0  0  0  0  0  0  0  0  0  0  0
   -0.3336    0.2202    1.4150 H   0  0  0  0  0  0  0  0  0  0  0  0
   -1.3141   -1.1392    0.9287 H   0  0  0  0  0  0  0  0  0  0  0  0
   -2.8086    0.7162    1.3578 H   0  0  0  0  0  0  0  0  0  0  0  0
   -1.8279    1.8307    0.4376 H   0  0  0  0  0  0  0  0  0  0  0  0
   -2.6784    1.3179   -1.5336 H   0  0  0  0  0  0  0  0  0  0  0  0
   -7.2972    1.9579   -1.2545 H   0  0  0  0  0  0  0  0  0  0  0  0
   -8.6437    0.1957    0.4834 H   0  0  0  0  0  0  0  0  0  0  0  0
   -8.2118   -1.7153    2.0328 H   0  0  0  0  0  0  0  0  0  0  0  0
   -5.9109   -2.5765    2.3549 H   0  0  0  0  0  0  0  0  0  0  0  0
   -3.9928   -1.5640    1.1514 H   0  0  0  0  0  0  0  0  0  0  0  0
   -2.8604   -1.6465   -0.8853 H   0  0  0  0  0  0  0  0  0  0  0  0
   -3.1179   -0.9200   -2.4579 H   0  0  0  0  0  0  0  0  0  0  0  0
   -0.8256   -0.2490   -2.6580 H   0  0  0  0  0  0  0  0  0  0  0  0
   -0.7608   -1.8674   -1.9546 H   0  0  0  0  0  0  0  0  0  0  0  0
    3.7238   -1.2684   -0.9780 H   0  0  0  0  0  0  0  0  0  0  0  0
    6.0934   -1.1592   -0.5481 H   0  0  0  0  0  0  0  0  0  0  0  0
  1  2  1  0
  2  3  1  0
  3  4  1  0
  4  5  2  0
  5  6  1  0
  6  7  2  0
  7  8  1  0
  8  9  1  0
  9 10  2  0
  9 11  1  0
 11 12  1  0
 12 13  1  0
 13 14  1  0
 14 15  1  0
 15 16  1  0
 16 17  2  0
 16 18  1  0
 18 19  1  0
 19 20  2  0
 20 21  1  0
 21 22  2  0
 22 23  1  0
 23 24  2  0
 14 25  1  0
 25 26  1  0
  7 27  1  0
 27 28  2  0
 28  4  1  0
 26 11  1  0
 24 15  1  0
 24 19  1  0
  1 29  1  0
  1 30  1  0
  1 31  1  0
  2 32  1  0
  2 33  1  0
  5 34  1  0
  6 35  1  0
  8 36  1  0
 12 37  1  0
 12 38  1  0
 13 39  1  0
 13 40  1  0
 14 41  1  0
 18 42  1  0
 20 43  1  0
 21 44  1  0
 22 45  1  0
 23 46  1  0
 25 47  1  0
 25 48  1  0
 26 49  1  0
 26 50  1  0
 27 51  1  0
 28 52  1  0
M  END
$$$$
