
     RDKit          3D

 46 48  0  0  0  0  0  0  0  0999 V2000
    4.5096   -2.6475   -2.9868 C   0  0  0  0  0  0  0  0  0  0  0  0
    4.7492   -2.0266   -1.7300 O   0  0  0  0  0  0  0  0  0  0  0  0
    3.7714   -1.1977   -1.2551 C   0  0  0  0  0  0  0  0  0  0  0  0
    2.5820   -0.8747   -1.9022 C   0  0  0  0  0  0  0  0  0  0  0  0
    1.6648   -0.0078   -1.2960 C   0  0  0  0  0  0  0  0  0  0  0  0
    1.9086    0.5466   -0.0252 C   0  0  0  0  0  0  0  0  0  0  0  0
    0.8848    1.5012    0.5857 C   0  0  0  0  0  0  0  0  0  0  0  0
    1.2282    2.1328    1.9405 C   0  0  0  0  0  0  0  0  0  0  0  0
   -0.4878    0.9320    0.6136 N   0  0  0  0  0  0  0  0  0  0  0  0
   -1.6121    1.6008    0.1105 C   0  0  0  0  0  0  0  0  0  0  0  0
   -1.5640    3.0183   -0.3562 C   0  0  0  0  0  0  0  0  0  0  0  0
   -2.6532    0.6919    0.1297 C   0  0  0  0  0  0  0  0  0  0  0  0
   -3.9640    0.8608   -0.3619 C   0  0  0  0  0  0  0  0  0  0  0  0
   -4.5928    2.0219   -1.0468 C   0  0  0  0  0  0  0  0  0  0  0  0
   -4.7312   -0.2544   -0.1483 N   0  0  0  0  0  0  0  0  0  0  0  0
   -4.2508   -1.4774    0.4993 N   0  0  0  0  0  0  0  0  0  0  0  0
   -2.9758   -1.6540    0.9693 C   0  0  0  0  0  0  0  0  0  0  0  0
   -2.6314   -2.9601    1.5928 C   0  0  0  0  0  0  0  0  0  0  0  0
   -2.1826   -0.5065    0.7634 C   0  0  0  0  0  0  0  0  0  0  0  0
   -0.8585   -0.3180    1.1168 C   0  0  0  0  0  0  0  0  0  0  0  0
    0.0744   -1.2309    1.8405 C   0  0  0  0  0  0  0  0  0  0  0  0
    3.1177    0.2230    0.6063 C   0  0  0  0  0  0  0  0  0  0  0  0
    4.0332   -0.6418   -0.0028 C   0  0  0  0  0  0  0  0  0  0  0  0
    5.3696   -3.2848   -3.2142 H   0  0  0  0  0  0  0  0  0  0  0  0
    4.4268   -1.9028   -3.7852 H   0  0  0  0  0  0  0  0  0  0  0  0
    3.6219   -3.2874   -2.9484 H   0  0  0  0  0  0  0  0  0  0  0  0
    2.3327   -1.2768   -2.8786 H   0  0  0  0  0  0  0  0  0  0  0  0
    0.7424    0.2253   -1.8272 H   0  0  0  0  0  0  0  0  0  0  0  0
    0.8543    2.3297   -0.1329 H   0  0  0  0  0  0  0  0  0  0  0  0
    0.4456    2.8323    2.2556 H   0  0  0  0  0  0  0  0  0  0  0  0
    1.3338    1.3892    2.7357 H   0  0  0  0  0  0  0  0  0  0  0  0
    2.1665    2.6955    1.8823 H   0  0  0  0  0  0  0  0  0  0  0  0
   -2.5322    3.5118   -0.2481 H   0  0  0  0  0  0  0  0  0  0  0  0
   -0.8636    3.6183    0.2322 H   0  0  0  0  0  0  0  0  0  0  0  0
   -1.2668    3.0613   -1.4087 H   0  0  0  0  0  0  0  0  0  0  0  0
   -4.7477    2.8405   -0.3383 H   0  0  0  0  0  0  0  0  0  0  0  0
   -5.5682    1.7451   -1.4603 H   0  0  0  0  0  0  0  0  0  0  0  0
   -3.9672    2.3671   -1.8749 H   0  0  0  0  0  0  0  0  0  0  0  0
   -1.7327   -3.3816    1.1340 H   0  0  0  0  0  0  0  0  0  0  0  0
   -3.4446   -3.6804    1.4555 H   0  0  0  0  0  0  0  0  0  0  0  0
   -2.4698   -2.8368    2.6674 H   0  0  0  0  0  0  0  0  0  0  0  0
    0.4485   -2.0063    1.1647 H   0  0  0  0  0  0  0  0  0  0  0  0
   -0.4333   -1.7171    2.6782 H   0  0  0  0  0  0  0  0  0  0  0  0
    0.9283   -0.7147    2.2790 H   0  0  0  0  0  0  0  0  0  0  0  0
    3.3735    0.6260    1.5827 H   0  0  0  0  0  0  0  0  0  0  0  0
    4.9628   -0.8853    0.5068 H   0  0  0  0  0  0  0  0  0  0  0  0
  1  2  1  0
  2  3  1  0
  3  4  2  0
  4  5  1  0
  5  6  2  0
  6  7  1  0
  7  8  1  0
  7  9  1  0
  9 10  1  0
 10 11  1  0
 10 12  2  0
 12 13  1  0
 13 14  1  0
 13 15  2  0
 15 16  1  0
 16 17  2  0
 17 18  1  0
 17 19  1  0
 19 20  2  0
 20 21  1  0
  6 22  1  0
 22 23  2  0
 23  3  1  0
 20  9  1  0
 19 12  1  0
  1 24  1  0
  1 25  1  0
  1 26  1  0
  4 27  1  0
  5 28  1  0
  7 29  1  0
  8 30  1  0
  8 31  1  0
  8 32  1  0
 11 33  1  0
 11 34  1  0
 11 35  1  0
 14 36  1  0
 14 37  1  0
 14 38  1  0
 18 39  1  0
 18 40  1  0
 18 41  1  0
 21 42  1  0
 21 43  1  0
 21 44  1  0
 22 45  1  0
 23 46  1  0
M  END
$$$$
