
     RDKit          3D

 60 64  0  0  0  0  0  0  0  0999 V2000
   -9.3452   -0.6392    1.5250 C   0  0  0  0  0  0  0  0  0  0  0  0
   -7.8771   -0.8922    1.6947 C   0  0  0  0  0  0  0  0  0  0  0  0
   -6.9414    0.1292    1.5060 C   0  0  0  0  0  0  0  0  0  0  0  0
   -5.5706   -0.1237    1.6492 C   0  0  0  0  0  0  0  0  0  0  0  0
   -5.0979   -1.3956    1.9852 C   0  0  0  0  0  0  0  0  0  0  0  0
   -3.7421   -1.7203    2.1059 N   0  0  0  0  0  0  0  0  0  0  0  0
   -2.5542   -1.0291    1.8714 C   0  0  0  0  0  0  0  0  0  0  0  0
   -1.4569   -1.6805    2.2280 N   0  0  0  0  0  0  0  0  0  0  0  0
   -0.3284   -1.0263    1.9943 C   0  0  0  0  0  0  0  0  0  0  0  0
    0.8204   -1.6748    2.4155 O   0  0  0  0  0  0  0  0  0  0  0  0
    1.9636   -1.3763    1.7030 C   0  0  0  0  0  0  0  0  0  0  0  0
    3.1435   -1.2302    2.4097 C   0  0  0  0  0  0  0  0  0  0  0  0
    4.3068   -0.9675    1.6953 C   0  0  0  0  0  0  0  0  0  0  0  0
    4.2248   -0.8802    0.3182 C   0  0  0  0  0  0  0  0  0  0  0  0
    5.3908   -0.5962   -0.3600 O   0  0  0  0  0  0  0  0  0  0  0  0
    5.2165   -0.5585   -1.7774 C   0  0  0  0  0  0  0  0  0  0  0  0
    6.5349   -0.1767   -2.4090 C   0  0  0  0  0  0  0  0  0  0  0  0
    7.1172    1.0700   -2.1325 C   0  0  0  0  0  0  0  0  0  0  0  0
    8.3252    1.4364   -2.7274 C   0  0  0  0  0  0  0  0  0  0  0  0
    8.9629    0.5622   -3.6067 C   0  0  0  0  0  0  0  0  0  0  0  0
    8.3952   -0.6782   -3.8884 C   0  0  0  0  0  0  0  0  0  0  0  0
    7.1872   -1.0478   -3.2930 C   0  0  0  0  0  0  0  0  0  0  0  0
    3.0617   -1.0541   -0.3489 N   0  0  0  0  0  0  0  0  0  0  0  0
    1.9180   -1.3202    0.3505 N   0  0  0  0  0  0  0  0  0  0  0  0
   -0.2298    0.2055    1.5111 N   0  0  0  0  0  0  0  0  0  0  0  0
   -1.3666    0.7688    1.1355 C   0  0  0  0  0  0  0  0  0  0  0  0
   -1.3209    2.0377    0.5507 N   0  0  0  0  0  0  0  0  0  0  0  0
   -0.0240    2.3882   -0.0644 C   0  0  0  0  0  0  0  0  0  0  0  0
    0.1147    1.7202   -1.4450 C   0  0  0  0  0  0  0  0  0  0  0  0
   -0.9859    2.0744   -2.3056 O   0  0  0  0  0  0  0  0  0  0  0  0
   -2.2413    1.6810   -1.7193 C   0  0  0  0  0  0  0  0  0  0  0  0
   -2.4491    2.3487   -0.3473 C   0  0  0  0  0  0  0  0  0  0  0  0
   -2.5440    0.1766    1.3106 N   0  0  0  0  0  0  0  0  0  0  0  0
   -6.0481   -2.4137    2.1677 C   0  0  0  0  0  0  0  0  0  0  0  0
   -7.4188   -2.1694    2.0265 C   0  0  0  0  0  0  0  0  0  0  0  0
   -9.8951   -0.9831    2.4069 H   0  0  0  0  0  0  0  0  0  0  0  0
   -9.7174   -1.1666    0.6405 H   0  0  0  0  0  0  0  0  0  0  0  0
   -9.5560    0.4286    1.3981 H   0  0  0  0  0  0  0  0  0  0  0  0
   -7.2657    1.1340    1.2386 H   0  0  0  0  0  0  0  0  0  0  0  0
   -4.8862    0.7062    1.5053 H   0  0  0  0  0  0  0  0  0  0  0  0
   -3.5298   -2.6212    2.5088 H   0  0  0  0  0  0  0  0  0  0  0  0
    3.1581   -1.3134    3.4906 H   0  0  0  0  0  0  0  0  0  0  0  0
    5.2572   -0.8333    2.2008 H   0  0  0  0  0  0  0  0  0  0  0  0
    4.4697    0.1934   -2.0649 H   0  0  0  0  0  0  0  0  0  0  0  0
    4.8972   -1.5443   -2.1403 H   0  0  0  0  0  0  0  0  0  0  0  0
    6.6282    1.7609   -1.4475 H   0  0  0  0  0  0  0  0  0  0  0  0
    8.7669    2.4049   -2.5063 H   0  0  0  0  0  0  0  0  0  0  0  0
    9.9023    0.8482   -4.0721 H   0  0  0  0  0  0  0  0  0  0  0  0
    8.8927   -1.3587   -4.5752 H   0  0  0  0  0  0  0  0  0  0  0  0
    6.7591   -2.0201   -3.5260 H   0  0  0  0  0  0  0  0  0  0  0  0
    0.8328    2.1543    0.5787 H   0  0  0  0  0  0  0  0  0  0  0  0
   -0.0111    3.4772   -0.2018 H   0  0  0  0  0  0  0  0  0  0  0  0
    0.1664    0.6286   -1.3675 H   0  0  0  0  0  0  0  0  0  0  0  0
    1.0340    2.0635   -1.9299 H   0  0  0  0  0  0  0  0  0  0  0  0
   -2.2716    0.5880   -1.6478 H   0  0  0  0  0  0  0  0  0  0  0  0
   -3.0348    1.9919   -2.4063 H   0  0  0  0  0  0  0  0  0  0  0  0
   -2.4652    3.4373   -0.4882 H   0  0  0  0  0  0  0  0  0  0  0  0
   -3.4220    2.0834    0.0802 H   0  0  0  0  0  0  0  0  0  0  0  0
   -5.7276   -3.4224    2.4186 H   0  0  0  0  0  0  0  0  0  0  0  0
   -8.1233   -2.9833    2.1775 H   0  0  0  0  0  0  0  0  0  0  0  0
  1  2  1  0
  2  3  2  0
  3  4  1  0
  4  5  2  0
  5  6  1  0
  6  7  1  0
  7  8  2  0
  8  9  1  0
  9 10  1  0
 10 11  1  0
 11 12  2  0
 12 13  1  0
 13 14  2  0
 14 15  1  0
 15 16  1  0
 16 17  1  0
 17 18  2  0
 18 19  1  0
 19 20  2  0
 20 21  1  0
 21 22  2  0
 14 23  1  0
 23 24  2  0
  9 25  2  0
 25 26  1  0
 26 27  1  0
 27 28  1  0
 28 29  1  0
 29 30  1  0
 30 31  1  0
 31 32  1  0
 26 33  2  0
  5 34  1  0
 34 35  2  0
 35  2  1  0
 33  7  1  0
 24 11  1  0
 32 27  1  0
 22 17  1  0
  1 36  1  0
  1 37  1  0
  1 38  1  0
  3 39  1  0
  4 40  1  0
  6 41  1  0
 12 42  1  0
 13 43  1  0
 16 44  1  0
 16 45  1  0
 18 46  1  0
 19 47  1  0
 20 48  1  0
 21 49  1  0
 22 50  1  0
 28 51  1  0
 28 52  1  0
 29 53  1  0
 29 54  1  0
 31 55  1  0
 31 56  1  0
 32 57  1  0
 32 58  1  0
 34 59  1  0
 35 60  1  0
M  END
$$$$
