
     RDKit          3D

 40 43  0  0  0  0  0  0  0  0999 V2000
   -2.2941   -2.2980   -2.5616 O   0  0  0  0  0  0  0  0  0  0  0  0
   -3.2072   -1.5146   -2.3641 C   0  0  0  0  0  0  0  0  0  0  0  0
   -4.4861   -1.6054   -2.8680 N   0  0  0  0  0  0  0  0  0  0  0  0
   -5.1152   -0.5933   -2.3771 C   0  0  0  0  0  0  0  0  0  0  0  0
   -6.5255   -0.2208   -2.6010 C   0  0  0  0  0  0  0  0  0  0  0  0
   -6.9988    0.8889   -2.0095 C   0  0  0  0  0  0  0  0  0  0  0  0
   -6.1792    1.7408   -1.1636 C   0  0  0  0  0  0  0  0  0  0  0  0
   -4.8903    1.4546   -0.9143 C   0  0  0  0  0  0  0  0  0  0  0  0
   -4.3202    0.2763   -1.5002 C   0  0  0  0  0  0  0  0  0  0  0  0
   -3.1233   -0.3106   -1.4930 C   0  0  0  0  0  0  0  0  0  0  0  0
   -1.9563    0.1220   -0.8318 C   0  0  0  0  0  0  0  0  0  0  0  0
   -1.8889    0.3228    0.8820 S   0  0  0  0  0  0  0  0  0  0  0  0
   -0.2415    0.7407    0.7550 C   0  0  0  0  0  0  0  0  0  0  0  0
    0.5423    1.1273    1.9072 N   0  0  0  0  0  0  0  0  0  0  0  0
    1.8039    0.0562    2.2305 S   0  0  0  0  0  6  0  0  0  0  0  0
    1.3572   -1.2806    1.8993 O   0  0  0  0  0  0  0  0  0  0  0  0
    2.1963    0.3835    3.5880 O   0  0  0  0  0  0  0  0  0  0  0  0
    3.0819    0.6094    1.0865 C   0  0  0  0  0  0  0  0  0  0  0  0
    4.3426   -0.1755    1.3422 C   0  0  0  0  0  0  0  0  0  0  0  0
    4.5592   -1.4024    0.6975 C   0  0  0  0  0  0  0  0  0  0  0  0
    5.7240   -2.1320    0.9378 C   0  0  0  0  0  0  0  0  0  0  0  0
    6.6822   -1.6454    1.8245 C   0  0  0  0  0  0  0  0  0  0  0  0
    6.4759   -0.4303    2.4744 C   0  0  0  0  0  0  0  0  0  0  0  0
    5.3116    0.3016    2.2365 C   0  0  0  0  0  0  0  0  0  0  0  0
    0.2653    0.7952   -0.4496 N   0  0  0  0  0  0  0  0  0  0  0  0
   -0.7053    0.4231   -1.3424 C   0  0  0  0  0  0  0  0  0  0  0  0
   -0.4559    0.3912   -2.6585 O   0  0  0  0  0  0  0  0  0  0  0  0
   -7.1264   -0.8586   -3.2363 H   0  0  0  0  0  0  0  0  0  0  0  0
   -8.0339    1.1857   -2.1586 H   0  0  0  0  0  0  0  0  0  0  0  0
   -6.6439    2.6272   -0.7398 H   0  0  0  0  0  0  0  0  0  0  0  0
   -4.2848    2.1016   -0.2896 H   0  0  0  0  0  0  0  0  0  0  0  0
   -0.0081    1.2588    2.7541 H   0  0  0  0  0  0  0  0  0  0  0  0
    2.7383    0.4514    0.0619 H   0  0  0  0  0  0  0  0  0  0  0  0
    3.2440    1.6793    1.2510 H   0  0  0  0  0  0  0  0  0  0  0  0
    3.8167   -1.8061    0.0107 H   0  0  0  0  0  0  0  0  0  0  0  0
    5.8804   -3.0846    0.4376 H   0  0  0  0  0  0  0  0  0  0  0  0
    7.5866   -2.2172    2.0147 H   0  0  0  0  0  0  0  0  0  0  0  0
    7.2191   -0.0558    3.1736 H   0  0  0  0  0  0  0  0  0  0  0  0
    5.1634    1.2418    2.7645 H   0  0  0  0  0  0  0  0  0  0  0  0
    0.4943    0.5655   -2.7707 H   0  0  0  0  0  0  0  0  0  0  0  0
  1  2  2  0
  2  3  1  0
  3  4  2  0
  4  5  1  0
  5  6  2  0
  6  7  1  0
  7  8  2  0
  8  9  1  0
  9 10  2  0
 10 11  1  0
 11 12  1  0
 12 13  1  0
 13 14  1  0
 14 15  1  0
 15 16  2  0
 15 17  2  0
 15 18  1  0
 18 19  1  0
 19 20  2  0
 20 21  1  0
 21 22  2  0
 22 23  1  0
 23 24  2  0
 13 25  2  0
 25 26  1  0
 26 27  1  0
 10  2  1  0
 26 11  2  0
  9  4  1  0
 24 19  1  0
  5 28  1  0
  6 29  1  0
  7 30  1  0
  8 31  1  0
 14 32  1  0
 18 33  1  0
 18 34  1  0
 20 35  1  0
 21 36  1  0
 22 37  1  0
 23 38  1  0
 24 39  1  0
 27 40  1  0
M  END
$$$$
