
     RDKit          3D

 53 56  0  0  0  0  0  0  0  0999 V2000
   -9.9321   -0.1714   -0.3416 C   0  0  0  0  0  0  0  0  0  0  0  0
   -8.5877    0.2668   -0.4876 O   0  0  0  0  0  0  0  0  0  0  0  0
   -7.6824   -0.5585    0.2442 C   0  0  0  0  0  0  0  0  0  0  0  0
   -6.2785    0.0082    0.0983 C   0  0  0  0  0  0  0  0  0  0  0  0
   -5.7519    0.0083   -1.3387 C   0  0  0  0  0  0  0  0  0  0  0  0
   -4.2439    0.1228   -1.1475 C   0  0  0  0  0  0  0  0  0  0  0  0
   -3.9861   -0.5354    0.1276 N   0  0  0  0  0  0  0  0  0  0  0  0
   -2.7670   -0.8974    0.6859 C   0  0  0  0  0  0  0  0  0  0  0  0
   -2.7364   -1.5180    1.7543 O   0  0  0  0  0  0  0  0  0  0  0  0
   -1.5033   -0.5501    0.0129 C   0  0  0  0  0  0  0  0  0  0  0  0
   -0.2092   -0.9654    0.4383 C   0  0  0  0  0  0  0  0  0  0  0  0
    0.6602   -0.4110   -0.4668 C   0  0  0  0  0  0  0  0  0  0  0  0
    2.1304   -0.4335   -0.6312 C   0  0  0  0  0  0  0  0  0  0  0  0
    2.6490    0.5765    0.2438 O   0  0  0  0  0  0  0  0  0  0  0  0
    4.0057    0.4122    0.4011 C   0  0  0  0  0  0  0  0  0  0  0  0
    4.4331   -0.3655    1.4765 C   0  0  0  0  0  0  0  0  0  0  0  0
    5.7936   -0.5788    1.6818 C   0  0  0  0  0  0  0  0  0  0  0  0
    6.7341   -0.0040    0.8205 C   0  0  0  0  0  0  0  0  0  0  0  0
    8.0931   -0.1820    0.9437 O   0  0  0  0  0  0  0  0  0  0  0  0
    8.5633   -0.9336    2.0557 C   0  0  0  0  0  0  0  0  0  0  0  0
    6.3091    0.8220   -0.2568 C   0  0  0  0  0  0  0  0  0  0  0  0
    7.2224    1.4443   -1.1383 C   0  0  0  0  0  0  0  0  0  0  0  0
    6.7941    2.2718   -2.1780 C   0  0  0  0  0  0  0  0  0  0  0  0
    5.4377    2.5024   -2.3617 C   0  0  0  0  0  0  0  0  0  0  0  0
    4.5127    1.8990   -1.5098 C   0  0  0  0  0  0  0  0  0  0  0  0
    4.9236    1.0473   -0.4599 C   0  0  0  0  0  0  0  0  0  0  0  0
   -0.0497    0.3014   -1.3789 O   0  0  0  0  0  0  0  0  0  0  0  0
   -1.3967    0.2226   -1.0813 N   0  0  0  0  0  0  0  0  0  0  0  0
   -5.2251   -0.8136    0.8324 C   0  0  0  0  0  0  0  0  0  0  0  0
  -10.5750    0.4750   -0.9459 H   0  0  0  0  0  0  0  0  0  0  0  0
  -10.2451   -0.0958    0.7043 H   0  0  0  0  0  0  0  0  0  0  0  0
  -10.0421   -1.2020   -0.6933 H   0  0  0  0  0  0  0  0  0  0  0  0
   -7.9706   -0.5674    1.3028 H   0  0  0  0  0  0  0  0  0  0  0  0
   -7.7330   -1.5838   -0.1424 H   0  0  0  0  0  0  0  0  0  0  0  0
   -6.2607    1.0442    0.4638 H   0  0  0  0  0  0  0  0  0  0  0  0
   -6.1567    0.8237   -1.9457 H   0  0  0  0  0  0  0  0  0  0  0  0
   -5.9926   -0.9390   -1.8361 H   0  0  0  0  0  0  0  0  0  0  0  0
   -3.6997   -0.3620   -1.9617 H   0  0  0  0  0  0  0  0  0  0  0  0
   -3.9388    1.1705   -1.0589 H   0  0  0  0  0  0  0  0  0  0  0  0
    0.0331   -1.5830    1.2917 H   0  0  0  0  0  0  0  0  0  0  0  0
    2.4049   -0.2123   -1.6689 H   0  0  0  0  0  0  0  0  0  0  0  0
    2.5098   -1.4294   -0.3673 H   0  0  0  0  0  0  0  0  0  0  0  0
    3.7070   -0.8066    2.1528 H   0  0  0  0  0  0  0  0  0  0  0  0
    6.0860   -1.1991    2.5220 H   0  0  0  0  0  0  0  0  0  0  0  0
    8.2125   -1.9693    2.0098 H   0  0  0  0  0  0  0  0  0  0  0  0
    9.6567   -0.9519    2.0100 H   0  0  0  0  0  0  0  0  0  0  0  0
    8.2797   -0.4588    3.0015 H   0  0  0  0  0  0  0  0  0  0  0  0
    8.2928    1.2882   -1.0101 H   0  0  0  0  0  0  0  0  0  0  0  0
    7.5235    2.7402   -2.8340 H   0  0  0  0  0  0  0  0  0  0  0  0
    5.0969    3.1561   -3.1606 H   0  0  0  0  0  0  0  0  0  0  0  0
    3.4556    2.1096   -1.6620 H   0  0  0  0  0  0  0  0  0  0  0  0
   -5.1432   -0.5429    1.8900 H   0  0  0  0  0  0  0  0  0  0  0  0
   -5.4136   -1.8914    0.7598 H   0  0  0  0  0  0  0  0  0  0  0  0
  1  2  1  0
  2  3  1  0
  3  4  1  0
  4  5  1  0
  5  6  1  0
  6  7  1  0
  7  8  1  0
  8  9  2  0
  8 10  1  0
 10 11  1  0
 11 12  2  0
 12 13  1  0
 13 14  1  0
 14 15  1  0
 15 16  2  0
 16 17  1  0
 17 18  2  0
 18 19  1  0
 19 20  1  0
 18 21  1  0
 21 22  2  0
 22 23  1  0
 23 24  2  0
 24 25  1  0
 25 26  2  0
 12 27  1  0
 27 28  1  0
  7 29  1  0
 29  4  1  0
 28 10  2  0
 26 15  1  0
 26 21  1  0
  1 30  1  0
  1 31  1  0
  1 32  1  0
  3 33  1  0
  3 34  1  0
  4 35  1  0
  5 36  1  0
  5 37  1  0
  6 38  1  0
  6 39  1  0
 11 40  1  0
 13 41  1  0
 13 42  1  0
 16 43  1  0
 17 44  1  0
 20 45  1  0
 20 46  1  0
 20 47  1  0
 22 48  1  0
 23 49  1  0
 24 50  1  0
 25 51  1  0
 29 52  1  0
 29 53  1  0
M  END
$$$$
