
     RDKit          3D

 52 54  0  0  0  0  0  0  0  0999 V2000
   -3.4630    1.7334   -2.7556 C   0  0  0  0  0  0  0  0  0  0  0  0
   -3.7405    1.9574   -1.2569 C   0  0  0  0  0  0  0  0  0  0  0  0
   -4.6147    3.2213   -1.1273 C   0  0  0  0  0  0  0  0  0  0  0  0
   -2.4151    2.2004   -0.4796 C   0  0  0  0  0  0  0  0  0  0  0  0
   -1.6638    0.9211   -0.2472 C   0  0  0  0  0  0  0  0  0  0  0  0
   -2.3450   -0.2844   -0.2664 C   0  0  0  0  0  0  0  0  0  0  0  0
   -1.2853   -1.6024   -0.0610 S   0  0  0  0  0  0  0  0  0  0  0  0
    0.0740   -0.6009    0.0585 C   0  0  0  0  0  0  0  0  0  0  0  0
    1.3439   -1.1261    0.2342 N   0  0  0  0  0  0  0  0  0  0  0  0
    1.7195   -2.4548    0.2960 C   0  0  0  0  0  0  0  0  0  0  0  0
    1.0030   -3.4447    0.1749 O   0  0  0  0  0  0  0  0  0  0  0  0
    3.2286   -2.6258    0.5001 C   0  0  0  0  0  0  0  0  0  0  0  0
    3.8112   -1.4337    1.0162 O   0  0  0  0  0  0  0  0  0  0  0  0
    5.1300   -1.4706    1.3808 C   0  0  0  0  0  0  0  0  0  0  0  0
    6.0088   -2.5117    1.0665 C   0  0  0  0  0  0  0  0  0  0  0  0
    7.3454   -2.4535    1.4760 C   0  0  0  0  0  0  0  0  0  0  0  0
    7.8083   -1.3549    2.1970 C   0  0  0  0  0  0  0  0  0  0  0  0
    9.4531   -1.2940    2.6969 Cl  0  0  0  0  0  0  0  0  0  0  0  0
    6.9501   -0.3080    2.5145 C   0  0  0  0  0  0  0  0  0  0  0  0
    5.6162   -0.3670    2.1051 C   0  0  0  0  0  0  0  0  0  0  0  0
    4.5799    0.9520    2.5318 Cl  0  0  0  0  0  0  0  0  0  0  0  0
   -0.2461    0.7493   -0.0107 C   0  0  0  0  0  0  0  0  0  0  0  0
    0.7815    1.7819    0.1168 C   0  0  0  0  0  0  0  0  0  0  0  0
    0.3760    2.9843    0.6212 N   0  0  0  0  0  0  0  0  0  0  0  0
    1.9663    1.5860   -0.1385 O   0  0  0  0  0  0  0  0  0  0  0  0
   -3.8430   -0.4530   -0.4726 C   0  0  0  0  0  0  0  0  0  0  0  0
   -4.4847   -1.0416    0.8013 C   0  0  0  0  0  0  0  0  0  0  0  0
   -4.1628   -1.3845   -1.6578 C   0  0  0  0  0  0  0  0  0  0  0  0
   -4.5217    0.8544   -0.6639 N   0  0  0  0  0  0  0  0  0  0  0  0
   -3.0370    2.6357   -3.2110 H   0  0  0  0  0  0  0  0  0  0  0  0
   -4.3847    1.4983   -3.3003 H   0  0  0  0  0  0  0  0  0  0  0  0
   -2.7490    0.9242   -2.9341 H   0  0  0  0  0  0  0  0  0  0  0  0
   -4.8696    3.4274   -0.0808 H   0  0  0  0  0  0  0  0  0  0  0  0
   -5.5540    3.1194   -1.6841 H   0  0  0  0  0  0  0  0  0  0  0  0
   -4.0929    4.1028   -1.5179 H   0  0  0  0  0  0  0  0  0  0  0  0
   -1.7923    2.9139   -1.0320 H   0  0  0  0  0  0  0  0  0  0  0  0
   -2.6342    2.6427    0.5014 H   0  0  0  0  0  0  0  0  0  0  0  0
    2.0989   -0.4400    0.3064 H   0  0  0  0  0  0  0  0  0  0  0  0
    3.6600   -2.8682   -0.4776 H   0  0  0  0  0  0  0  0  0  0  0  0
    3.3687   -3.4504    1.2089 H   0  0  0  0  0  0  0  0  0  0  0  0
    5.6916   -3.3806    0.4974 H   0  0  0  0  0  0  0  0  0  0  0  0
    8.0202   -3.2690    1.2256 H   0  0  0  0  0  0  0  0  0  0  0  0
    7.3136    0.5475    3.0774 H   0  0  0  0  0  0  0  0  0  0  0  0
    1.1260    3.6116    0.8811 H   0  0  0  0  0  0  0  0  0  0  0  0
   -0.4719    3.0343    1.1678 H   0  0  0  0  0  0  0  0  0  0  0  0
   -5.5730   -1.1322    0.6976 H   0  0  0  0  0  0  0  0  0  0  0  0
   -4.0996   -2.0434    1.0251 H   0  0  0  0  0  0  0  0  0  0  0  0
   -4.2838   -0.4144    1.6790 H   0  0  0  0  0  0  0  0  0  0  0  0
   -5.2422   -1.4355   -1.8459 H   0  0  0  0  0  0  0  0  0  0  0  0
   -3.6791   -1.0629   -2.5845 H   0  0  0  0  0  0  0  0  0  0  0  0
   -3.8305   -2.4112   -1.4647 H   0  0  0  0  0  0  0  0  0  0  0  0
   -5.3954    0.7200   -1.1696 H   0  0  0  0  0  0  0  0  0  0  0  0
  1  2  1  0
  2  3  1  0
  2  4  1  0
  4  5  1  0
  5  6  2  0
  6  7  1  0
  7  8  1  0
  8  9  1  0
  9 10  1  0
 10 11  2  0
 10 12  1  0
 12 13  1  0
 13 14  1  0
 14 15  2  0
 15 16  1  0
 16 17  2  0
 17 18  1  0
 17 19  1  0
 19 20  2  0
 20 21  1  0
  8 22  2  0
 22 23  1  0
 23 24  1  0
 23 25  2  0
  6 26  1  0
 26 27  1  0
 26 28  1  0
 26 29  1  0
 29  2  1  0
 22  5  1  0
 20 14  1  0
  1 30  1  0
  1 31  1  0
  1 32  1  0
  3 33  1  0
  3 34  1  0
  3 35  1  0
  4 36  1  0
  4 37  1  0
  9 38  1  0
 12 39  1  0
 12 40  1  0
 15 41  1  0
 16 42  1  0
 19 43  1  0
 24 44  1  0
 24 45  1  0
 27 46  1  0
 27 47  1  0
 27 48  1  0
 28 49  1  0
 28 50  1  0
 28 51  1  0
 29 52  1  0
M  END
$$$$
