
     RDKit          3D

 48 52  0  0  0  0  0  0  0  0999 V2000
    5.6189   -1.1243   -0.9858 C   0  0  0  0  0  0  0  0  0  0  0  0
    4.1742   -0.7239   -1.0193 C   0  0  0  0  0  0  0  0  0  0  0  0
    3.5275   -0.5081   -2.2397 C   0  0  0  0  0  0  0  0  0  0  0  0
    2.1893   -0.1061   -2.2721 C   0  0  0  0  0  0  0  0  0  0  0  0
    1.4669    0.1027   -1.0853 C   0  0  0  0  0  0  0  0  0  0  0  0
    0.0180    0.5442   -1.1751 C   0  0  0  0  0  0  0  0  0  0  0  0
   -0.0677    1.8472   -0.4793 C   0  0  0  0  0  0  0  0  0  0  0  0
   -0.9285    1.7709    0.6278 C   0  0  0  0  0  0  0  0  0  0  0  0
   -1.0609    3.0271    1.1559 C   0  0  0  0  0  0  0  0  0  0  0  0
   -1.8596    3.5028    2.1026 O   0  0  0  0  0  0  0  0  0  0  0  0
   -0.1907    3.8414    0.4562 N   0  0  0  0  0  0  0  0  0  0  0  0
    0.0155    5.2482    0.7150 C   0  0  0  0  0  0  0  0  0  0  0  0
    0.4132    3.1285   -0.5654 C   0  0  0  0  0  0  0  0  0  0  0  0
    1.2763    3.7031   -1.3928 O   0  0  0  0  0  0  0  0  0  0  0  0
   -1.4606    0.3980    0.8280 C   0  0  0  0  0  0  0  0  0  0  0  0
   -2.9833    0.3961    0.9704 C   0  0  0  0  0  0  0  0  0  0  0  0
   -3.6220    1.3787    1.3704 O   0  0  0  0  0  0  0  0  0  0  0  0
   -3.6640   -0.7858    0.8779 N   0  0  0  0  0  0  0  0  0  0  0  0
   -3.1523   -2.0880    0.7645 C   0  0  0  0  0  0  0  0  0  0  0  0
   -3.9509   -3.0887    1.3499 C   0  0  0  0  0  0  0  0  0  0  0  0
   -3.5526   -4.4266    1.3570 C   0  0  0  0  0  0  0  0  0  0  0  0
   -2.3558   -4.7924    0.7581 C   0  0  0  0  0  0  0  0  0  0  0  0
   -1.5755   -3.8197    0.1358 C   0  0  0  0  0  0  0  0  0  0  0  0
   -1.9639   -2.4638    0.1263 C   0  0  0  0  0  0  0  0  0  0  0  0
   -1.1366   -1.5810   -0.7293 C   0  0  0  0  0  0  0  0  0  0  0  0
   -0.6446   -2.0663   -1.7478 O   0  0  0  0  0  0  0  0  0  0  0  0
   -0.9389   -0.2705   -0.3834 N   0  0  0  0  0  0  0  0  0  0  0  0
    2.1282   -0.1137    0.1362 C   0  0  0  0  0  0  0  0  0  0  0  0
    3.4675   -0.5124    0.1681 C   0  0  0  0  0  0  0  0  0  0  0  0
    5.8481   -1.6901   -0.0766 H   0  0  0  0  0  0  0  0  0  0  0  0
    5.8648   -1.7666   -1.8381 H   0  0  0  0  0  0  0  0  0  0  0  0
    6.2546   -0.2341   -1.0168 H   0  0  0  0  0  0  0  0  0  0  0  0
    4.0585   -0.6616   -3.1766 H   0  0  0  0  0  0  0  0  0  0  0  0
    1.7071    0.0292   -3.2385 H   0  0  0  0  0  0  0  0  0  0  0  0
   -0.3429    0.6026   -2.2079 H   0  0  0  0  0  0  0  0  0  0  0  0
   -2.6138    2.8775    2.1695 H   0  0  0  0  0  0  0  0  0  0  0  0
    1.0497    5.5115    0.4790 H   0  0  0  0  0  0  0  0  0  0  0  0
   -0.1715    5.4559    1.7715 H   0  0  0  0  0  0  0  0  0  0  0  0
   -0.6768    5.8138    0.0865 H   0  0  0  0  0  0  0  0  0  0  0  0
    1.6839    2.9934   -1.9216 H   0  0  0  0  0  0  0  0  0  0  0  0
   -1.0143   -0.0750    1.7100 H   0  0  0  0  0  0  0  0  0  0  0  0
   -4.6240   -0.6812    1.1885 H   0  0  0  0  0  0  0  0  0  0  0  0
   -4.8916   -2.8347    1.8356 H   0  0  0  0  0  0  0  0  0  0  0  0
   -4.1790   -5.1803    1.8285 H   0  0  0  0  0  0  0  0  0  0  0  0
   -2.0401   -5.8327    0.7486 H   0  0  0  0  0  0  0  0  0  0  0  0
   -0.6630   -4.1269   -0.3757 H   0  0  0  0  0  0  0  0  0  0  0  0
    1.6091    0.0391    1.0790 H   0  0  0  0  0  0  0  0  0  0  0  0
    3.9542   -0.6576    1.1299 H   0  0  0  0  0  0  0  0  0  0  0  0
  1  2  1  0
  2  3  2  0
  3  4  1  0
  4  5  2  0
  5  6  1  0
  6  7  1  0
  7  8  1  0
  8  9  2  0
  9 10  1  0
  9 11  1  0
 11 12  1  0
 11 13  1  0
 13 14  1  0
  8 15  1  0
 15 16  1  0
 16 17  2  0
 16 18  1  0
 18 19  1  0
 19 20  2  0
 20 21  1  0
 21 22  2  0
 22 23  1  0
 23 24  2  0
 24 25  1  0
 25 26  2  0
 25 27  1  0
  5 28  1  0
 28 29  2  0
 29  2  1  0
 27  6  1  0
 13  7  2  0
 27 15  1  0
 24 19  1  0
  1 30  1  0
  1 31  1  0
  1 32  1  0
  3 33  1  0
  4 34  1  0
  6 35  1  0
 10 36  1  0
 12 37  1  0
 12 38  1  0
 12 39  1  0
 14 40  1  0
 15 41  1  0
 18 42  1  0
 20 43  1  0
 21 44  1  0
 22 45  1  0
 23 46  1  0
 28 47  1  0
 29 48  1  0
M  END
$$$$
