
     RDKit          3D

 34 35  0  0  0  0  0  0  0  0999 V2000
   -3.8876   -2.9662    0.1080 O   0  0  0  0  0  0  0  0  0  0  0  0
   -2.8637   -2.4050   -0.3091 N   0  0  0  0  0  4  0  0  0  0  0  0
   -1.8721   -2.9930   -0.7701 O   0  0  0  0  0  1  0  0  0  0  0  0
   -2.8394   -0.9414   -0.2799 C   0  0  0  0  0  0  0  0  0  0  0  0
   -4.0617   -0.2772   -0.5068 C   0  0  0  0  0  0  0  0  0  0  0  0
   -4.1186    1.1215   -0.4779 C   0  0  0  0  0  0  0  0  0  0  0  0
   -5.4074    1.8652   -0.7309 C   0  0  0  0  0  0  0  0  0  0  0  0
   -6.4945    1.0501   -0.8163 F   0  0  0  0  0  0  0  0  0  0  0  0
   -5.6908    2.7679    0.2475 F   0  0  0  0  0  0  0  0  0  0  0  0
   -5.3736    2.5701   -1.8949 F   0  0  0  0  0  0  0  0  0  0  0  0
   -2.9400    1.8293   -0.2141 C   0  0  0  0  0  0  0  0  0  0  0  0
   -1.7289    1.1568    0.0119 C   0  0  0  0  0  0  0  0  0  0  0  0
   -1.6309   -0.2444   -0.0457 C   0  0  0  0  0  0  0  0  0  0  0  0
   -0.4335   -0.9102    0.2717 N   0  0  0  0  0  0  0  0  0  0  0  0
    0.8549   -0.2175    0.1229 C   0  0  0  0  0  0  0  0  0  0  0  0
    2.0023   -1.1750    0.4651 C   0  0  0  0  0  0  0  0  0  0  0  0
    3.3602   -0.5187    0.4139 C   0  0  0  0  0  0  0  0  0  0  0  0
    4.4176   -1.0648    1.1393 C   0  0  0  0  0  0  0  0  0  0  0  0
    5.6737   -0.4693    1.0558 C   0  0  0  0  0  0  0  0  0  0  0  0
    5.8446    0.6499    0.2517 C   0  0  0  0  0  0  0  0  0  0  0  0
    4.7476    1.1224   -0.4477 C   0  0  0  0  0  0  0  0  0  0  0  0
    3.5183    0.5626   -0.3883 N   0  0  0  0  0  0  0  0  0  0  0  0
   -4.9695   -0.8496   -0.7020 H   0  0  0  0  0  0  0  0  0  0  0  0
   -2.9546    2.9201   -0.1691 H   0  0  0  0  0  0  0  0  0  0  0  0
   -0.8594    1.7695    0.2395 H   0  0  0  0  0  0  0  0  0  0  0  0
   -0.4088   -1.8414   -0.1616 H   0  0  0  0  0  0  0  0  0  0  0  0
    0.9026    0.6400    0.8049 H   0  0  0  0  0  0  0  0  0  0  0  0
    0.9579    0.1462   -0.9078 H   0  0  0  0  0  0  0  0  0  0  0  0
    1.8350   -1.5745    1.4731 H   0  0  0  0  0  0  0  0  0  0  0  0
    2.0000   -2.0274   -0.2238 H   0  0  0  0  0  0  0  0  0  0  0  0
    4.2726   -1.9449    1.7585 H   0  0  0  0  0  0  0  0  0  0  0  0
    6.5115   -0.8804    1.6100 H   0  0  0  0  0  0  0  0  0  0  0  0
    6.8090    1.1370    0.1657 H   0  0  0  0  0  0  0  0  0  0  0  0
    4.8275    1.9924   -1.0935 H   0  0  0  0  0  0  0  0  0  0  0  0
  1  2  2  0
  2  3  1  0
  2  4  1  0
  4  5  2  0
  5  6  1  0
  6  7  1  0
  7  8  1  0
  7  9  1  0
  7 10  1  0
  6 11  2  0
 11 12  1  0
 12 13  2  0
 13 14  1  0
 14 15  1  0
 15 16  1  0
 16 17  1  0
 17 18  2  0
 18 19  1  0
 19 20  2  0
 20 21  1  0
 21 22  2  0
 13  4  1  0
 22 17  1  0
  5 23  1  0
 11 24  1  0
 12 25  1  0
 14 26  1  0
 15 27  1  0
 15 28  1  0
 16 29  1  0
 16 30  1  0
 18 31  1  0
 19 32  1  0
 20 33  1  0
 21 34  1  0
M  CHG  2   2   1   3  -1
M  END
$$$$
