
     RDKit          3D

 42 45  0  0  0  0  0  0  0  0999 V2000
   -3.8103    3.7243   -0.7745 C   0  0  0  0  0  0  0  0  0  0  0  0
   -2.5743    2.9942   -0.3381 C   0  0  0  0  0  0  0  0  0  0  0  0
   -1.6873    3.5886    0.5757 C   0  0  0  0  0  0  0  0  0  0  0  0
   -0.5074    2.9418    0.9646 C   0  0  0  0  0  0  0  0  0  0  0  0
   -0.2170    1.6946    0.4353 C   0  0  0  0  0  0  0  0  0  0  0  0
   -1.0907    1.1074   -0.4822 C   0  0  0  0  0  0  0  0  0  0  0  0
   -2.2591    1.7460   -0.8859 C   0  0  0  0  0  0  0  0  0  0  0  0
   -0.5539   -0.2008   -0.9827 C   0  0  0  0  0  0  0  0  0  0  0  0
   -1.5642   -1.3536   -0.9482 C   0  0  0  0  0  0  0  0  0  0  0  0
   -0.8410   -2.6254   -1.0074 N   0  0  0  0  0  0  0  0  0  0  0  0
   -1.7365   -3.7501   -1.2621 C   0  0  0  0  0  0  0  0  0  0  0  0
   -0.0222   -2.8571    0.1915 C   0  0  0  0  0  0  0  0  0  0  0  0
    0.3752   -1.5763    0.9319 C   0  0  0  0  0  0  0  0  0  0  0  0
    0.6612   -0.4293   -0.0461 C   0  0  0  0  0  0  0  0  0  0  0  0
    0.9040    0.8579    0.6693 N   0  0  0  0  0  0  0  0  0  0  0  0
    1.9857    1.1927    1.4933 C   0  0  0  0  0  0  0  0  0  0  0  0
    1.9947    2.2186    2.1775 O   0  0  0  0  0  0  0  0  0  0  0  0
    3.1437    0.3051    1.5641 C   0  0  0  0  0  0  0  0  0  0  0  0
    4.1981    0.3141    2.4649 C   0  0  0  0  0  0  0  0  0  0  0  0
    5.0780   -0.7293    2.0904 C   0  0  0  0  0  0  0  0  0  0  0  0
    4.5233   -1.3075    0.9743 C   0  0  0  0  0  0  0  0  0  0  0  0
    5.2557   -2.7747    0.0121 Br  0  0  0  0  0  0  0  0  0  0  0  0
    3.3628   -0.6843    0.6461 O   0  0  0  0  0  0  0  0  0  0  0  0
   -4.6076    3.0203   -1.0350 H   0  0  0  0  0  0  0  0  0  0  0  0
   -4.1914    4.3629    0.0293 H   0  0  0  0  0  0  0  0  0  0  0  0
   -3.5885    4.3468   -1.6465 H   0  0  0  0  0  0  0  0  0  0  0  0
   -1.9082    4.5698    0.9917 H   0  0  0  0  0  0  0  0  0  0  0  0
    0.1471    3.4380    1.6719 H   0  0  0  0  0  0  0  0  0  0  0  0
   -2.9112    1.2880   -1.6241 H   0  0  0  0  0  0  0  0  0  0  0  0
   -0.1859   -0.0528   -2.0074 H   0  0  0  0  0  0  0  0  0  0  0  0
   -2.2082   -1.3085   -0.0592 H   0  0  0  0  0  0  0  0  0  0  0  0
   -2.2290   -1.2510   -1.8158 H   0  0  0  0  0  0  0  0  0  0  0  0
   -2.2646   -3.6144   -2.2125 H   0  0  0  0  0  0  0  0  0  0  0  0
   -1.1677   -4.6825   -1.3485 H   0  0  0  0  0  0  0  0  0  0  0  0
   -2.4824   -3.8705   -0.4685 H   0  0  0  0  0  0  0  0  0  0  0  0
    0.8852   -3.3893   -0.1189 H   0  0  0  0  0  0  0  0  0  0  0  0
   -0.5382   -3.5054    0.9118 H   0  0  0  0  0  0  0  0  0  0  0  0
    1.2352   -1.7853    1.5757 H   0  0  0  0  0  0  0  0  0  0  0  0
   -0.4365   -1.2834    1.6124 H   0  0  0  0  0  0  0  0  0  0  0  0
    1.5282   -0.6675   -0.6702 H   0  0  0  0  0  0  0  0  0  0  0  0
    4.3030    1.0040    3.2924 H   0  0  0  0  0  0  0  0  0  0  0  0
    6.0023   -1.0162    2.5720 H   0  0  0  0  0  0  0  0  0  0  0  0
  1  2  1  0
  2  3  2  0
  3  4  1  0
  4  5  2  0
  5  6  1  0
  6  7  2  0
  6  8  1  0
  8  9  1  0
  9 10  1  0
 10 11  1  0
 10 12  1  0
 12 13  1  0
 13 14  1  0
 14 15  1  0
 15 16  1  0
 16 17  2  0
 16 18  1  0
 18 19  2  0
 19 20  1  0
 20 21  2  0
 21 22  1  0
 21 23  1  0
  7  2  1  0
 14  8  1  0
 23 18  1  0
 15  5  1  0
  1 24  1  0
  1 25  1  0
  1 26  1  0
  3 27  1  0
  4 28  1  0
  7 29  1  0
  8 30  1  0
  9 31  1  0
  9 32  1  0
 11 33  1  0
 11 34  1  0
 11 35  1  0
 12 36  1  0
 12 37  1  0
 13 38  1  0
 13 39  1  0
 14 40  1  0
 19 41  1  0
 20 42  1  0
M  END
$$$$
