
     RDKit          3D

 60 64  0  0  0  0  0  0  0  0999 V2000
    3.1663    1.4445   -1.4145 O   0  0  0  0  0  0  0  0  0  0  0  0
    2.9000    0.5467   -0.6254 C   0  0  0  0  0  0  0  0  0  0  0  0
    3.7896   -0.2274    0.0942 N   0  0  0  0  0  0  0  0  0  0  0  0
    5.1927   -0.0861    0.1467 C   0  0  0  0  0  0  0  0  0  0  0  0
    5.9050   -1.0459    0.8770 C   0  0  0  0  0  0  0  0  0  0  0  0
    7.2974   -0.9708    0.9863 C   0  0  0  0  0  0  0  0  0  0  0  0
    7.9961    0.0663    0.3638 C   0  0  0  0  0  0  0  0  0  0  0  0
    9.4745    0.1339    0.4857 C   0  0  0  0  0  0  0  0  0  0  0  0
   10.1243   -0.6185    1.3406 N   0  0  0  0  0  0  0  0  0  0  0  0
   11.5535   -0.2436    1.1601 C   0  0  0  0  0  0  0  0  0  0  0  0
   11.6255    0.5584   -0.1391 C   0  0  0  0  0  0  0  0  0  0  0  0
   10.2461    0.9605   -0.3005 N   0  0  0  0  0  0  0  0  0  0  0  0
    7.2904    1.0330   -0.3565 C   0  0  0  0  0  0  0  0  0  0  0  0
    5.8955    0.9546   -0.4641 C   0  0  0  0  0  0  0  0  0  0  0  0
    1.4625    0.2086   -0.4313 C   0  0  0  0  0  0  0  0  0  0  0  0
    0.9595   -0.2032    0.8101 C   0  0  0  0  0  0  0  0  0  0  0  0
   -0.4030   -0.4946    0.9546 C   0  0  0  0  0  0  0  0  0  0  0  0
   -1.2885   -0.3562   -0.1274 C   0  0  0  0  0  0  0  0  0  0  0  0
   -2.7011   -0.7453    0.1182 C   0  0  0  0  0  0  0  0  0  0  0  0
   -2.8766   -1.8018    0.7134 O   0  0  0  0  0  0  0  0  0  0  0  0
   -3.6665    0.1432   -0.3066 N   0  0  0  0  0  0  0  0  0  0  0  0
   -5.0654    0.0205   -0.1538 C   0  0  0  0  0  0  0  0  0  0  0  0
   -5.8574    1.0254   -0.7265 C   0  0  0  0  0  0  0  0  0  0  0  0
   -7.2524    0.9882   -0.6197 C   0  0  0  0  0  0  0  0  0  0  0  0
   -7.8717   -0.0599    0.0644 C   0  0  0  0  0  0  0  0  0  0  0  0
   -9.3501   -0.1164    0.1885 C   0  0  0  0  0  0  0  0  0  0  0  0
   -9.9351   -0.9166    1.0460 N   0  0  0  0  0  0  0  0  0  0  0  0
  -11.3899   -0.6623    0.8662 C   0  0  0  0  0  0  0  0  0  0  0  0
  -11.5289    0.1286   -0.4343 C   0  0  0  0  0  0  0  0  0  0  0  0
  -10.1870    0.6425   -0.6007 N   0  0  0  0  0  0  0  0  0  0  0  0
   -7.0871   -1.0594    0.6449 C   0  0  0  0  0  0  0  0  0  0  0  0
   -5.6914   -1.0212    0.5324 C   0  0  0  0  0  0  0  0  0  0  0  0
   -0.7668    0.0609   -1.3538 C   0  0  0  0  0  0  0  0  0  0  0  0
   -1.6147    0.2003   -2.5113 N   0  0  0  0  0  4  0  0  0  0  0  0
   -1.4763   -0.6273   -3.4171 O   0  0  0  0  0  0  0  0  0  0  0  0
   -2.3942    1.1638   -2.5084 O   0  0  0  0  0  1  0  0  0  0  0  0
    0.5945    0.3505   -1.5199 C   0  0  0  0  0  0  0  0  0  0  0  0
    3.4177   -1.0251    0.5935 H   0  0  0  0  0  0  0  0  0  0  0  0
    5.3943   -1.8670    1.3732 H   0  0  0  0  0  0  0  0  0  0  0  0
    7.8344   -1.7244    1.5586 H   0  0  0  0  0  0  0  0  0  0  0  0
   11.8724    0.3609    2.0167 H   0  0  0  0  0  0  0  0  0  0  0  0
   12.1827   -1.1375    1.1113 H   0  0  0  0  0  0  0  0  0  0  0  0
   12.3020    1.4140   -0.0665 H   0  0  0  0  0  0  0  0  0  0  0  0
   11.9328   -0.0792   -0.9747 H   0  0  0  0  0  0  0  0  0  0  0  0
    9.9322    1.1005   -1.2537 H   0  0  0  0  0  0  0  0  0  0  0  0
    7.8039    1.8688   -0.8224 H   0  0  0  0  0  0  0  0  0  0  0  0
    5.3880    1.7342   -1.0239 H   0  0  0  0  0  0  0  0  0  0  0  0
    1.6050   -0.2809    1.6826 H   0  0  0  0  0  0  0  0  0  0  0  0
   -0.7778   -0.8306    1.9225 H   0  0  0  0  0  0  0  0  0  0  0  0
   -3.3697    0.9768   -0.8089 H   0  0  0  0  0  0  0  0  0  0  0  0
   -5.4013    1.8531   -1.2651 H   0  0  0  0  0  0  0  0  0  0  0  0
   -7.8374    1.7922   -1.0557 H   0  0  0  0  0  0  0  0  0  0  0  0
  -11.7576   -0.0848    1.7218 H   0  0  0  0  0  0  0  0  0  0  0  0
  -11.9431   -1.6053    0.8192 H   0  0  0  0  0  0  0  0  0  0  0  0
  -12.2728    0.9263   -0.3616 H   0  0  0  0  0  0  0  0  0  0  0  0
  -11.7854   -0.5333   -1.2683 H   0  0  0  0  0  0  0  0  0  0  0  0
   -9.8862    0.7870   -1.5573 H   0  0  0  0  0  0  0  0  0  0  0  0
   -7.5562   -1.8769    1.1886 H   0  0  0  0  0  0  0  0  0  0  0  0
   -5.1277   -1.8211    1.0014 H   0  0  0  0  0  0  0  0  0  0  0  0
    0.9809    0.6787   -2.4848 H   0  0  0  0  0  0  0  0  0  0  0  0
  1  2  2  0
  2  3  1  0
  3  4  1  0
  4  5  2  0
  5  6  1  0
  6  7  2  0
  7  8  1  0
  8  9  2  0
  9 10  1  0
 10 11  1  0
 11 12  1  0
  7 13  1  0
 13 14  2  0
  2 15  1  0
 15 16  2  0
 16 17  1  0
 17 18  2  0
 18 19  1  0
 19 20  2  0
 19 21  1  0
 21 22  1  0
 22 23  2  0
 23 24  1  0
 24 25  2  0
 25 26  1  0
 26 27  2  0
 27 28  1  0
 28 29  1  0
 29 30  1  0
 25 31  1  0
 31 32  2  0
 18 33  1  0
 33 34  1  0
 34 35  2  0
 34 36  1  0
 33 37  2  0
 14  4  1  0
 37 15  1  0
 12  8  1  0
 32 22  1  0
 30 26  1  0
  3 38  1  0
  5 39  1  0
  6 40  1  0
 10 41  1  0
 10 42  1  0
 11 43  1  0
 11 44  1  0
 12 45  1  0
 13 46  1  0
 14 47  1  0
 16 48  1  0
 17 49  1  0
 21 50  1  0
 23 51  1  0
 24 52  1  0
 28 53  1  0
 28 54  1  0
 29 55  1  0
 29 56  1  0
 30 57  1  0
 31 58  1  0
 32 59  1  0
 37 60  1  0
M  CHG  2  34   1  36  -1
M  END
$$$$
