
     RDKit          3D

 45 47  0  0  0  0  0  0  0  0999 V2000
    6.9788    3.2816    3.1122 N   0  0  0  0  0  0  0  0  0  0  0  0
    6.4785    2.4694    2.4510 C   0  0  0  0  0  0  0  0  0  0  0  0
    5.8423    1.4617    1.6531 C   0  0  0  0  0  0  0  0  0  0  0  0
    6.6062    0.5581    0.9146 C   0  0  0  0  0  0  0  0  0  0  0  0
    5.9715   -0.4096    0.1320 C   0  0  0  0  0  0  0  0  0  0  0  0
    4.5796   -0.4929    0.0833 C   0  0  0  0  0  0  0  0  0  0  0  0
    4.1034   -1.4824   -0.7288 O   0  0  0  0  0  0  0  0  0  0  0  0
    2.6978   -1.6067   -0.8824 C   0  0  0  0  0  0  0  0  0  0  0  0
    1.9883   -0.5110   -1.7072 C   0  0  0  0  0  0  0  0  0  0  0  0
    2.6070    0.2549   -2.4452 O   0  0  0  0  0  0  0  0  0  0  0  0
    0.6075   -0.4190   -1.5644 N   0  0  0  0  0  0  0  0  0  0  0  0
   -0.0970    0.7244   -2.1600 C   0  0  0  0  0  0  0  0  0  0  0  0
   -1.3596    1.0787   -1.3591 C   0  0  0  0  0  0  0  0  0  0  0  0
   -2.2998   -0.0602   -1.3216 N   0  0  0  0  0  0  0  0  0  0  0  0
   -3.3781    0.0938   -0.4495 C   0  0  0  0  0  0  0  0  0  0  0  0
   -4.4885   -0.7438   -0.5601 C   0  0  0  0  0  0  0  0  0  0  0  0
   -5.5779   -0.5856    0.3009 C   0  0  0  0  0  0  0  0  0  0  0  0
   -5.5463    0.4123    1.2708 C   0  0  0  0  0  0  0  0  0  0  0  0
   -6.6728    0.6564    2.2200 C   0  0  0  0  0  0  0  0  0  0  0  0
   -7.5565   -0.3804    2.2863 F   0  0  0  0  0  0  0  0  0  0  0  0
   -6.2516    0.8626    3.4973 F   0  0  0  0  0  0  0  0  0  0  0  0
   -7.4028    1.7523    1.8857 F   0  0  0  0  0  0  0  0  0  0  0  0
   -4.4195    1.2195    1.3046 C   0  0  0  0  0  0  0  0  0  0  0  0
   -3.3587    1.0822    0.4724 N   0  0  0  0  0  0  0  0  0  0  0  0
   -1.6987   -1.4054   -1.3889 C   0  0  0  0  0  0  0  0  0  0  0  0
   -0.2379   -1.4139   -0.8903 C   0  0  0  0  0  0  0  0  0  0  0  0
    3.8199    0.3983    0.8378 C   0  0  0  0  0  0  0  0  0  0  0  0
    4.4506    1.3727    1.6199 C   0  0  0  0  0  0  0  0  0  0  0  0
    7.6915    0.6061    0.9314 H   0  0  0  0  0  0  0  0  0  0  0  0
    6.5704   -1.1037   -0.4515 H   0  0  0  0  0  0  0  0  0  0  0  0
    2.2247   -1.7236    0.1014 H   0  0  0  0  0  0  0  0  0  0  0  0
    2.5348   -2.5467   -1.4236 H   0  0  0  0  0  0  0  0  0  0  0  0
   -0.3579    0.4437   -3.1878 H   0  0  0  0  0  0  0  0  0  0  0  0
    0.5717    1.5900   -2.2055 H   0  0  0  0  0  0  0  0  0  0  0  0
   -1.0433    1.3578   -0.3462 H   0  0  0  0  0  0  0  0  0  0  0  0
   -1.8506    1.9458   -1.8178 H   0  0  0  0  0  0  0  0  0  0  0  0
   -4.5323   -1.5055   -1.3383 H   0  0  0  0  0  0  0  0  0  0  0  0
   -6.4443   -1.2398    0.1900 H   0  0  0  0  0  0  0  0  0  0  0  0
   -4.3277    2.0364    2.0232 H   0  0  0  0  0  0  0  0  0  0  0  0
   -2.2602   -2.1566   -0.8186 H   0  0  0  0  0  0  0  0  0  0  0  0
   -1.7204   -1.7239   -2.4392 H   0  0  0  0  0  0  0  0  0  0  0  0
    0.1891   -2.4104   -1.0292 H   0  0  0  0  0  0  0  0  0  0  0  0
   -0.2082   -1.1845    0.1806 H   0  0  0  0  0  0  0  0  0  0  0  0
    2.7353    0.3716    0.8484 H   0  0  0  0  0  0  0  0  0  0  0  0
    3.8418    2.0648    2.1986 H   0  0  0  0  0  0  0  0  0  0  0  0
  1  2  3  0
  2  3  1  0
  3  4  2  0
  4  5  1  0
  5  6  2  0
  6  7  1  0
  7  8  1  0
  8  9  1  0
  9 10  2  0
  9 11  1  0
 11 12  1  0
 12 13  1  0
 13 14  1  0
 14 15  1  0
 15 16  2  0
 16 17  1  0
 17 18  2  0
 18 19  1  0
 19 20  1  0
 19 21  1  0
 19 22  1  0
 18 23  1  0
 23 24  2  0
 14 25  1  0
 25 26  1  0
  6 27  1  0
 27 28  2  0
 28  3  1  0
 26 11  1  0
 24 15  1  0
  4 29  1  0
  5 30  1  0
  8 31  1  0
  8 32  1  0
 12 33  1  0
 12 34  1  0
 13 35  1  0
 13 36  1  0
 16 37  1  0
 17 38  1  0
 23 39  1  0
 25 40  1  0
 25 41  1  0
 26 42  1  0
 26 43  1  0
 27 44  1  0
 28 45  1  0
M  END
$$$$
