
     RDKit          3D

 39 41  0  0  0  0  0  0  0  0999 V2000
    0.2887   -1.3050   -1.5813 O   0  0  0  0  0  0  0  0  0  0  0  0
    0.0688   -0.3896   -0.7932 C   0  0  0  0  0  0  0  0  0  0  0  0
    1.0696    0.3963   -0.2682 N   0  0  0  0  0  0  0  0  0  0  0  0
    2.4790    0.1107   -0.4758 C   0  0  0  0  0  0  0  0  0  0  0  0
    2.9692   -0.9757    0.4849 C   0  0  0  0  0  0  0  0  0  0  0  0
    4.4262   -1.3598    0.2159 C   0  0  0  0  0  0  0  0  0  0  0  0
    5.2575   -0.2266   -0.3875 C   0  0  0  0  0  0  0  0  0  0  0  0
    4.7674    1.1393    0.0712 C   0  0  0  0  0  0  0  0  0  0  0  0
    3.3131    1.3940   -0.3333 C   0  0  0  0  0  0  0  0  0  0  0  0
   -1.3345   -0.0862   -0.3626 C   0  0  0  0  0  0  0  0  0  0  0  0
   -2.3622   -0.7977   -1.0052 C   0  0  0  0  0  0  0  0  0  0  0  0
   -3.7128   -0.5913   -0.6801 C   0  0  0  0  0  0  0  0  0  0  0  0
   -4.7365   -1.3028   -1.3259 C   0  0  0  0  0  0  0  0  0  0  0  0
   -6.0745   -1.0874   -0.9933 C   0  0  0  0  0  0  0  0  0  0  0  0
   -6.4058   -0.1587   -0.0116 C   0  0  0  0  0  0  0  0  0  0  0  0
   -5.3996    0.5566    0.6398 C   0  0  0  0  0  0  0  0  0  0  0  0
   -4.0479    0.3513    0.3165 C   0  0  0  0  0  0  0  0  0  0  0  0
   -3.0234    1.0613    0.9627 C   0  0  0  0  0  0  0  0  0  0  0  0
   -1.6816    0.8437    0.6277 C   0  0  0  0  0  0  0  0  0  0  0  0
   -0.7180    1.5564    1.2968 O   0  0  0  0  0  0  0  0  0  0  0  0
    0.8005    1.0305    0.4798 H   0  0  0  0  0  0  0  0  0  0  0  0
    2.5901   -0.2654   -1.5015 H   0  0  0  0  0  0  0  0  0  0  0  0
    2.3411   -1.8725    0.4215 H   0  0  0  0  0  0  0  0  0  0  0  0
    2.8736   -0.6155    1.5181 H   0  0  0  0  0  0  0  0  0  0  0  0
    4.4635   -2.2210   -0.4623 H   0  0  0  0  0  0  0  0  0  0  0  0
    4.8803   -1.6932    1.1569 H   0  0  0  0  0  0  0  0  0  0  0  0
    5.2040   -0.2788   -1.4823 H   0  0  0  0  0  0  0  0  0  0  0  0
    6.3117   -0.3620   -0.1206 H   0  0  0  0  0  0  0  0  0  0  0  0
    4.8551    1.2026    1.1633 H   0  0  0  0  0  0  0  0  0  0  0  0
    5.4064    1.9298   -0.3384 H   0  0  0  0  0  0  0  0  0  0  0  0
    2.8660    2.0761    0.4014 H   0  0  0  0  0  0  0  0  0  0  0  0
    3.2865    1.9327   -1.2894 H   0  0  0  0  0  0  0  0  0  0  0  0
   -2.1025   -1.5246   -1.7746 H   0  0  0  0  0  0  0  0  0  0  0  0
   -4.4969   -2.0334   -2.0962 H   0  0  0  0  0  0  0  0  0  0  0  0
   -6.8564   -1.6457   -1.5019 H   0  0  0  0  0  0  0  0  0  0  0  0
   -7.4479    0.0095    0.2479 H   0  0  0  0  0  0  0  0  0  0  0  0
   -5.6818    1.2772    1.4041 H   0  0  0  0  0  0  0  0  0  0  0  0
   -3.2856    1.7841    1.7310 H   0  0  0  0  0  0  0  0  0  0  0  0
   -1.1504    2.1408    1.9442 H   0  0  0  0  0  0  0  0  0  0  0  0
  1  2  2  0
  2  3  1  0
  3  4  1  0
  4  5  1  0
  5  6  1  0
  6  7  1  0
  7  8  1  0
  8  9  1  0
  2 10  1  0
 10 11  2  0
 11 12  1  0
 12 13  2  0
 13 14  1  0
 14 15  2  0
 15 16  1  0
 16 17  2  0
 17 18  1  0
 18 19  2  0
 19 20  1  0
  9  4  1  0
 19 10  1  0
 17 12  1  0
  3 21  1  0
  4 22  1  0
  5 23  1  0
  5 24  1  0
  6 25  1  0
  6 26  1  0
  7 27  1  0
  7 28  1  0
  8 29  1  0
  8 30  1  0
  9 31  1  0
  9 32  1  0
 11 33  1  0
 13 34  1  0
 14 35  1  0
 15 36  1  0
 16 37  1  0
 18 38  1  0
 20 39  1  0
M  END
$$$$
