
     RDKit          3D

 57 59  0  0  0  0  0  0  0  0999 V2000
   -7.1941   -2.0498    3.4244 C   0  0  0  0  0  0  0  0  0  0  0  0
   -6.4675   -1.7806    2.1389 C   0  0  0  0  0  0  0  0  0  0  0  0
   -6.0635   -2.8415    1.3156 C   0  0  0  0  0  0  0  0  0  0  0  0
   -5.3629   -2.5941    0.1338 C   0  0  0  0  0  0  0  0  0  0  0  0
   -5.0523   -1.2785   -0.2153 C   0  0  0  0  0  0  0  0  0  0  0  0
   -4.1600   -0.9364   -1.7097 S   0  0  0  0  0  6  0  0  0  0  0  0
   -3.8127   -2.1889   -2.3489 O   0  0  0  0  0  0  0  0  0  0  0  0
   -4.8896    0.0907   -2.4223 O   0  0  0  0  0  0  0  0  0  0  0  0
   -2.7046   -0.2499   -1.1274 N   0  0  0  0  0  0  0  0  0  0  0  0
   -1.8522   -1.1410   -0.2873 C   0  0  0  0  0  0  0  0  0  0  0  0
   -0.4844   -1.3704   -0.9193 C   0  0  0  0  0  0  0  0  0  0  0  0
    0.2671   -0.0473   -1.1227 C   0  0  0  0  0  0  0  0  0  0  0  0
    1.0175    0.3629    0.1430 C   0  0  0  0  0  0  0  0  0  0  0  0
    0.9227   -0.2360    1.2077 O   0  0  0  0  0  0  0  0  0  0  0  0
    1.8376    1.4548   -0.0242 N   0  0  0  0  0  0  0  0  0  0  0  0
    2.5235    2.0991    1.1008 C   0  0  0  0  0  0  0  0  0  0  0  0
    1.7805    3.3612    1.5165 C   0  0  0  0  0  0  0  0  0  0  0  0
    3.9908    2.3830    0.7113 C   0  0  0  0  0  0  0  0  0  0  0  0
    4.5449    3.4428    0.9819 O   0  0  0  0  0  0  0  0  0  0  0  0
    4.5877    1.2728    0.1283 N   0  0  0  0  0  0  0  0  0  0  0  0
    5.9066    1.1448   -0.3448 C   0  0  0  0  0  0  0  0  0  0  0  0
    6.8436    2.1825   -0.3349 C   0  0  0  0  0  0  0  0  0  0  0  0
    8.1343    1.9746   -0.8319 C   0  0  0  0  0  0  0  0  0  0  0  0
    8.4854    0.7307   -1.3383 C   0  0  0  0  0  0  0  0  0  0  0  0
    9.7216    0.5334   -1.8133 F   0  0  0  0  0  0  0  0  0  0  0  0
    7.5698   -0.3128   -1.3568 C   0  0  0  0  0  0  0  0  0  0  0  0
    6.2802   -0.1052   -0.8611 C   0  0  0  0  0  0  0  0  0  0  0  0
   -0.6789    1.0803   -1.5641 C   0  0  0  0  0  0  0  0  0  0  0  0
   -1.9761    0.5394   -2.1508 C   0  0  0  0  0  0  0  0  0  0  0  0
   -5.4409   -0.2111    0.5980 C   0  0  0  0  0  0  0  0  0  0  0  0
   -6.1411   -0.4660    1.7775 C   0  0  0  0  0  0  0  0  0  0  0  0
   -7.9241   -1.2595    3.6294 H   0  0  0  0  0  0  0  0  0  0  0  0
   -7.7445   -2.9955    3.3746 H   0  0  0  0  0  0  0  0  0  0  0  0
   -6.4811   -2.1008    4.2533 H   0  0  0  0  0  0  0  0  0  0  0  0
   -6.2972   -3.8685    1.5898 H   0  0  0  0  0  0  0  0  0  0  0  0
   -5.0638   -3.4260   -0.5000 H   0  0  0  0  0  0  0  0  0  0  0  0
   -1.7538   -0.6732    0.6989 H   0  0  0  0  0  0  0  0  0  0  0  0
   -2.3292   -2.1124   -0.1236 H   0  0  0  0  0  0  0  0  0  0  0  0
    0.0976   -2.0671   -0.3050 H   0  0  0  0  0  0  0  0  0  0  0  0
   -0.6168   -1.8609   -1.8926 H   0  0  0  0  0  0  0  0  0  0  0  0
    1.0269   -0.2145   -1.8981 H   0  0  0  0  0  0  0  0  0  0  0  0
    1.8350    1.9516   -0.9075 H   0  0  0  0  0  0  0  0  0  0  0  0
    2.5499    1.4112    1.9544 H   0  0  0  0  0  0  0  0  0  0  0  0
    2.2610    3.8348    2.3786 H   0  0  0  0  0  0  0  0  0  0  0  0
    1.7590    4.0939    0.7021 H   0  0  0  0  0  0  0  0  0  0  0  0
    0.7441    3.1331    1.7864 H   0  0  0  0  0  0  0  0  0  0  0  0
    3.9921    0.4546    0.0528 H   0  0  0  0  0  0  0  0  0  0  0  0
    6.6028    3.1684    0.0513 H   0  0  0  0  0  0  0  0  0  0  0  0
    8.8631    2.7791   -0.8244 H   0  0  0  0  0  0  0  0  0  0  0  0
    7.8645   -1.2790   -1.7542 H   0  0  0  0  0  0  0  0  0  0  0  0
    5.5771   -0.9342   -0.8804 H   0  0  0  0  0  0  0  0  0  0  0  0
   -0.1748    1.7086   -2.3088 H   0  0  0  0  0  0  0  0  0  0  0  0
   -0.9190    1.7380   -0.7177 H   0  0  0  0  0  0  0  0  0  0  0  0
   -1.7712   -0.0727   -3.0369 H   0  0  0  0  0  0  0  0  0  0  0  0
   -2.5960    1.3890   -2.4579 H   0  0  0  0  0  0  0  0  0  0  0  0
   -5.1994    0.8118    0.3186 H   0  0  0  0  0  0  0  0  0  0  0  0
   -6.4352    0.3669    2.4127 H   0  0  0  0  0  0  0  0  0  0  0  0
  1  2  1  0
  2  3  2  0
  3  4  1  0
  4  5  2  0
  5  6  1  0
  6  7  2  0
  6  8  2  0
  6  9  1  0
  9 10  1  0
 10 11  1  0
 11 12  1  0
 12 13  1  0
 13 14  2  0
 13 15  1  0
 15 16  1  0
 16 17  1  0
 16 18  1  0
 18 19  2  0
 18 20  1  0
 20 21  1  0
 21 22  2  0
 22 23  1  0
 23 24  2  0
 24 25  1  0
 24 26  1  0
 26 27  2  0
 12 28  1  0
 28 29  1  0
  5 30  1  0
 30 31  2  0
 31  2  1  0
 29  9  1  0
 27 21  1  0
  1 32  1  0
  1 33  1  0
  1 34  1  0
  3 35  1  0
  4 36  1  0
 10 37  1  0
 10 38  1  0
 11 39  1  0
 11 40  1  0
 12 41  1  0
 15 42  1  0
 16 43  1  0
 17 44  1  0
 17 45  1  0
 17 46  1  0
 20 47  1  0
 22 48  1  0
 23 49  1  0
 26 50  1  0
 27 51  1  0
 28 52  1  0
 28 53  1  0
 29 54  1  0
 29 55  1  0
 30 56  1  0
 31 57  1  0
M  END
$$$$
