
     RDKit          3D

 58 60  0  0  0  0  0  0  0  0999 V2000
   -5.4530    1.4456    2.7864 C   0  0  0  0  0  0  0  0  0  0  0  0
   -6.0844    0.9025    1.6342 O   0  0  0  0  0  0  0  0  0  0  0  0
   -5.3801    0.0022    0.8772 C   0  0  0  0  0  0  0  0  0  0  0  0
   -4.0997   -0.4704    1.1927 C   0  0  0  0  0  0  0  0  0  0  0  0
   -3.4602   -1.3956    0.3603 C   0  0  0  0  0  0  0  0  0  0  0  0
   -2.2068   -1.9178    0.5696 O   0  0  0  0  0  0  0  0  0  0  0  0
   -1.4225   -1.3308    1.6041 C   0  0  0  0  0  0  0  0  0  0  0  0
   -4.1159   -1.8565   -0.7942 C   0  0  0  0  0  0  0  0  0  0  0  0
   -3.4278   -2.7647   -1.6646 N   0  0  0  0  0  0  0  0  0  0  0  0
   -2.9135   -2.1793   -3.1676 S   0  0  0  0  0  6  0  0  0  0  0  0
   -4.0676   -1.7840   -3.9444 O   0  0  0  0  0  0  0  0  0  0  0  0
   -1.9462   -3.1249   -3.6807 O   0  0  0  0  0  0  0  0  0  0  0  0
   -2.0187   -0.7007   -2.7397 C   0  0  0  0  0  0  0  0  0  0  0  0
   -2.5905    0.5539   -2.9559 C   0  0  0  0  0  0  0  0  0  0  0  0
   -1.8956    1.7001   -2.5631 C   0  0  0  0  0  0  0  0  0  0  0  0
   -0.6316    1.5983   -1.9645 C   0  0  0  0  0  0  0  0  0  0  0  0
    0.0944    3.0679   -1.4250 Cl  0  0  0  0  0  0  0  0  0  0  0  0
   -0.0489    0.3370   -1.7847 C   0  0  0  0  0  0  0  0  0  0  0  0
    1.2599    0.1166   -1.1399 C   0  0  0  0  0  0  0  0  0  0  0  0
    1.4551   -0.7772   -0.3305 O   0  0  0  0  0  0  0  0  0  0  0  0
    2.1875    0.9507   -1.6593 O   0  0  0  0  0  0  0  0  0  0  0  0
    3.4917    0.8150   -1.0809 C   0  0  0  0  0  0  0  0  0  0  0  0
    4.4148    1.7417   -1.8645 C   0  0  0  0  0  0  0  0  0  0  0  0
    3.5397    1.2076    0.4139 C   0  0  0  0  0  0  0  0  0  0  0  0
    2.7127    1.9831    0.9002 O   0  0  0  0  0  0  0  0  0  0  0  0
    4.5641    0.6790    1.1734 N   0  0  0  0  0  0  0  0  0  0  0  0
    5.5206   -0.3415    0.7805 C   0  0  0  0  0  0  0  0  0  0  0  0
    6.5371   -0.3491    1.9102 C   0  0  0  0  0  0  0  0  0  0  0  0
    5.6869   -0.0137    3.1273 C   0  0  0  0  0  0  0  0  0  0  0  0
    4.6876    0.9980    2.5851 C   0  0  0  0  0  0  0  0  0  0  0  0
   -0.7462   -0.8168   -2.1756 C   0  0  0  0  0  0  0  0  0  0  0  0
   -5.3865   -1.3942   -1.1182 C   0  0  0  0  0  0  0  0  0  0  0  0
   -6.0147   -0.4696   -0.2843 C   0  0  0  0  0  0  0  0  0  0  0  0
   -7.5915    0.0799   -0.7342 Cl  0  0  0  0  0  0  0  0  0  0  0  0
   -5.2184    0.6626    3.5162 H   0  0  0  0  0  0  0  0  0  0  0  0
   -6.1579    2.1373    3.2574 H   0  0  0  0  0  0  0  0  0  0  0  0
   -4.5585    2.0177    2.5150 H   0  0  0  0  0  0  0  0  0  0  0  0
   -3.6047   -0.1227    2.0902 H   0  0  0  0  0  0  0  0  0  0  0  0
   -1.2927   -0.2533    1.4404 H   0  0  0  0  0  0  0  0  0  0  0  0
   -0.4315   -1.7922    1.5833 H   0  0  0  0  0  0  0  0  0  0  0  0
   -1.8623   -1.5318    2.5860 H   0  0  0  0  0  0  0  0  0  0  0  0
   -2.6674   -3.2710   -1.1992 H   0  0  0  0  0  0  0  0  0  0  0  0
   -3.5776    0.6502   -3.4043 H   0  0  0  0  0  0  0  0  0  0  0  0
   -2.3572    2.6762   -2.7093 H   0  0  0  0  0  0  0  0  0  0  0  0
    3.8206   -0.2212   -1.2185 H   0  0  0  0  0  0  0  0  0  0  0  0
    5.4473    1.6892   -1.5149 H   0  0  0  0  0  0  0  0  0  0  0  0
    4.0829    2.7823   -1.7805 H   0  0  0  0  0  0  0  0  0  0  0  0
    4.3949    1.4909   -2.9297 H   0  0  0  0  0  0  0  0  0  0  0  0
    4.9855   -1.2946    0.7190 H   0  0  0  0  0  0  0  0  0  0  0  0
    5.9734   -0.1225   -0.1886 H   0  0  0  0  0  0  0  0  0  0  0  0
    7.2824    0.4403    1.7500 H   0  0  0  0  0  0  0  0  0  0  0  0
    7.0598   -1.3040    2.0027 H   0  0  0  0  0  0  0  0  0  0  0  0
    6.2719    0.3816    3.9613 H   0  0  0  0  0  0  0  0  0  0  0  0
    5.1635   -0.9139    3.4728 H   0  0  0  0  0  0  0  0  0  0  0  0
    3.7191    0.9389    3.0923 H   0  0  0  0  0  0  0  0  0  0  0  0
    5.0704    2.0204    2.6633 H   0  0  0  0  0  0  0  0  0  0  0  0
   -0.3045   -1.7999   -2.0179 H   0  0  0  0  0  0  0  0  0  0  0  0
   -5.8891   -1.7528   -2.0123 H   0  0  0  0  0  0  0  0  0  0  0  0
  1  2  1  0
  2  3  1  0
  3  4  2  0
  4  5  1  0
  5  6  1  0
  6  7  1  0
  5  8  2  0
  8  9  1  0
  9 10  1  0
 10 11  2  0
 10 12  2  0
 10 13  1  0
 13 14  2  0
 14 15  1  0
 15 16  2  0
 16 17  1  0
 16 18  1  0
 18 19  1  0
 19 20  2  0
 19 21  1  0
 21 22  1  0
 22 23  1  0
 22 24  1  0
 24 25  2  0
 24 26  1  0
 26 27  1  0
 27 28  1  0
 28 29  1  0
 29 30  1  0
 18 31  2  0
  8 32  1  0
 32 33  2  0
 33 34  1  0
 33  3  1  0
 31 13  1  0
 30 26  1  0
  1 35  1  0
  1 36  1  0
  1 37  1  0
  4 38  1  0
  7 39  1  0
  7 40  1  0
  7 41  1  0
  9 42  1  0
 14 43  1  0
 15 44  1  0
 22 45  1  0
 23 46  1  0
 23 47  1  0
 23 48  1  0
 27 49  1  0
 27 50  1  0
 28 51  1  0
 28 52  1  0
 29 53  1  0
 29 54  1  0
 30 55  1  0
 30 56  1  0
 31 57  1  0
 32 58  1  0
M  END
$$$$
