
     RDKit          3D

 55 58  0  0  0  0  0  0  0  0999 V2000
   -3.6996   -4.9924    0.3747 C   0  0  0  0  0  0  0  0  0  0  0  0
   -4.1415   -3.7099    0.9202 N   0  0  0  0  0  0  0  0  0  0  0  0
   -4.9451   -3.8032    2.1409 C   0  0  0  0  0  0  0  0  0  0  0  0
   -3.2670   -2.6170    0.8604 C   0  0  0  0  0  0  0  0  0  0  0  0
   -3.7149   -1.3228    1.1548 C   0  0  0  0  0  0  0  0  0  0  0  0
   -2.8693   -0.2015    1.0831 C   0  0  0  0  0  0  0  0  0  0  0  0
   -1.5214   -0.3147    0.7175 C   0  0  0  0  0  0  0  0  0  0  0  0
   -0.6648    0.8015    0.6351 N   0  0  0  0  0  0  0  0  0  0  0  0
    0.7253    0.7722    0.7368 C   0  0  0  0  0  0  0  0  0  0  0  0
    1.4381   -0.2020    1.1971 N   0  0  0  0  0  0  0  0  0  0  0  0
    2.8018   -0.0991    1.2629 C   0  0  0  0  0  0  0  0  0  0  0  0
    3.4097    0.7308    1.9328 O   0  0  0  0  0  0  0  0  0  0  0  0
    3.5158   -1.2235    0.5383 C   0  0  0  0  0  0  0  0  0  0  0  0
    4.7150   -0.7270   -0.2635 C   0  0  0  0  0  0  0  0  0  0  0  0
    4.3237    0.0925   -1.4727 C   0  0  0  0  0  0  0  0  0  0  0  0
    4.6195    1.4602   -1.5247 C   0  0  0  0  0  0  0  0  0  0  0  0
    4.2438    2.2252   -2.6303 C   0  0  0  0  0  0  0  0  0  0  0  0
    3.5705    1.6311   -3.6956 C   0  0  0  0  0  0  0  0  0  0  0  0
    3.2758    0.2703   -3.6574 C   0  0  0  0  0  0  0  0  0  0  0  0
    3.6538   -0.4967   -2.5552 C   0  0  0  0  0  0  0  0  0  0  0  0
    1.3966    2.3037    0.1286 S   0  0  0  0  0  0  0  0  0  0  0  0
   -0.1928    2.8119   -0.5918 C   0  0  0  0  0  0  0  0  0  0  0  0
   -0.4400    4.3090   -0.5663 C   0  0  0  0  0  0  0  0  0  0  0  0
   -1.4512    4.6238    0.8631 S   0  0  0  0  0  6  0  0  0  0  0  0
   -0.7384    5.4877    1.7748 O   0  0  0  0  0  0  0  0  0  0  0  0
   -2.7886    4.9236    0.4014 O   0  0  0  0  0  0  0  0  0  0  0  0
   -1.4691    2.9757    1.5124 C   0  0  0  0  0  0  0  0  0  0  0  0
   -1.2397    2.1053    0.2806 C   0  0  0  0  0  0  0  0  0  0  0  0
   -1.0776   -1.6080    0.4154 C   0  0  0  0  0  0  0  0  0  0  0  0
   -1.9300   -2.7252    0.4738 C   0  0  0  0  0  0  0  0  0  0  0  0
   -3.3496   -4.8802   -0.6592 H   0  0  0  0  0  0  0  0  0  0  0  0
   -4.5368   -5.7006    0.3397 H   0  0  0  0  0  0  0  0  0  0  0  0
   -2.9061   -5.4389    0.9855 H   0  0  0  0  0  0  0  0  0  0  0  0
   -4.3093   -3.7974    3.0321 H   0  0  0  0  0  0  0  0  0  0  0  0
   -5.5270   -4.7316    2.1566 H   0  0  0  0  0  0  0  0  0  0  0  0
   -5.6714   -2.9893    2.2108 H   0  0  0  0  0  0  0  0  0  0  0  0
   -4.7536   -1.1552    1.4298 H   0  0  0  0  0  0  0  0  0  0  0  0
   -3.3093    0.7539    1.3431 H   0  0  0  0  0  0  0  0  0  0  0  0
    3.8482   -1.9346    1.3047 H   0  0  0  0  0  0  0  0  0  0  0  0
    2.8060   -1.7551   -0.1066 H   0  0  0  0  0  0  0  0  0  0  0  0
    5.3901   -0.1495    0.3814 H   0  0  0  0  0  0  0  0  0  0  0  0
    5.2975   -1.5897   -0.6140 H   0  0  0  0  0  0  0  0  0  0  0  0
    5.1329    1.9445   -0.6950 H   0  0  0  0  0  0  0  0  0  0  0  0
    4.4756    3.2866   -2.6560 H   0  0  0  0  0  0  0  0  0  0  0  0
    3.2793    2.2281   -4.5553 H   0  0  0  0  0  0  0  0  0  0  0  0
    2.7527   -0.1948   -4.4900 H   0  0  0  0  0  0  0  0  0  0  0  0
    3.4230   -1.5596   -2.5459 H   0  0  0  0  0  0  0  0  0  0  0  0
   -0.2055    2.4318   -1.6196 H   0  0  0  0  0  0  0  0  0  0  0  0
   -1.0253    4.6142   -1.4387 H   0  0  0  0  0  0  0  0  0  0  0  0
    0.4696    4.9128   -0.5188 H   0  0  0  0  0  0  0  0  0  0  0  0
   -0.6741    2.8901    2.2590 H   0  0  0  0  0  0  0  0  0  0  0  0
   -2.4305    2.7899    1.9963 H   0  0  0  0  0  0  0  0  0  0  0  0
   -2.1638    2.0182   -0.3071 H   0  0  0  0  0  0  0  0  0  0  0  0
   -0.0562   -1.7860    0.0977 H   0  0  0  0  0  0  0  0  0  0  0  0
   -1.4946   -3.6888    0.2224 H   0  0  0  0  0  0  0  0  0  0  0  0
  1  2  1  0
  2  3  1  0
  2  4  1  0
  4  5  2  0
  5  6  1  0
  6  7  2  0
  7  8  1  0
  8  9  1  0
  9 10  2  3
 10 11  1  0
 11 12  2  0
 11 13  1  0
 13 14  1  0
 14 15  1  0
 15 16  2  0
 16 17  1  0
 17 18  2  0
 18 19  1  0
 19 20  2  0
  9 21  1  0
 21 22  1  0
 22 23  1  0
 23 24  1  0
 24 25  2  0
 24 26  2  0
 24 27  1  0
 27 28  1  0
  7 29  1  0
 29 30  2  0
 30  4  1  0
 28  8  1  0
 20 15  1  0
 28 22  1  0
  1 31  1  0
  1 32  1  0
  1 33  1  0
  3 34  1  0
  3 35  1  0
  3 36  1  0
  5 37  1  0
  6 38  1  0
 13 39  1  0
 13 40  1  0
 14 41  1  0
 14 42  1  0
 16 43  1  0
 17 44  1  0
 18 45  1  0
 19 46  1  0
 20 47  1  0
 22 48  1  0
 23 49  1  0
 23 50  1  0
 27 51  1  0
 27 52  1  0
 28 53  1  0
 29 54  1  0
 30 55  1  0
M  END
$$$$
