
     RDKit          3D

 39 41  0  0  0  0  0  0  0  0999 V2000
    5.0064    0.2968    1.4560 C   0  0  0  0  0  0  0  0  0  0  0  0
    4.2732   -0.0996    0.1722 C   0  0  0  0  0  0  0  0  0  0  0  0
    4.8056    0.7240   -1.0012 C   0  0  0  0  0  0  0  0  0  0  0  0
    2.7554    0.0675    0.3654 C   0  0  0  0  0  0  0  0  0  0  0  0
    1.9297   -0.4462   -0.8207 C   0  0  0  0  0  0  0  0  0  0  0  0
    0.4961   -0.3856   -0.5413 N   0  0  0  0  0  0  0  0  0  0  0  0
   -0.0869   -1.4839    0.0858 C   0  0  0  0  0  0  0  0  0  0  0  0
    0.5348   -2.4917    0.4141 O   0  0  0  0  0  0  0  0  0  0  0  0
   -1.5382   -1.4036    0.3733 C   0  0  0  0  0  0  0  0  0  0  0  0
   -2.1676   -2.5002    0.9744 C   0  0  0  0  0  0  0  0  0  0  0  0
   -3.5243   -2.4478    1.2607 C   0  0  0  0  0  0  0  0  0  0  0  0
   -4.2552   -1.3030    0.9413 C   0  0  0  0  0  0  0  0  0  0  0  0
   -3.6521   -0.1806    0.3265 C   0  0  0  0  0  0  0  0  0  0  0  0
   -4.3705    0.9948   -0.0266 C   0  0  0  0  0  0  0  0  0  0  0  0
   -5.7279    1.1934    0.3034 N   0  0  0  0  0  0  0  0  0  0  0  0
   -3.6857    2.0980   -0.5479 C   0  0  0  0  0  0  0  0  0  0  0  0
   -2.3230    2.0292   -0.8136 C   0  0  0  0  0  0  0  0  0  0  0  0
   -1.6158    0.8591   -0.5239 C   0  0  0  0  0  0  0  0  0  0  0  0
   -2.2577   -0.2441    0.0512 C   0  0  0  0  0  0  0  0  0  0  0  0
   -0.1647    0.8089   -0.8181 C   0  0  0  0  0  0  0  0  0  0  0  0
    0.3899    1.8050   -1.2764 O   0  0  0  0  0  0  0  0  0  0  0  0
    4.6687   -0.3122    2.3012 H   0  0  0  0  0  0  0  0  0  0  0  0
    4.8320    1.3492    1.7047 H   0  0  0  0  0  0  0  0  0  0  0  0
    6.0862    0.1478    1.3497 H   0  0  0  0  0  0  0  0  0  0  0  0
    4.4888   -1.1575   -0.0244 H   0  0  0  0  0  0  0  0  0  0  0  0
    4.3935    0.3752   -1.9528 H   0  0  0  0  0  0  0  0  0  0  0  0
    5.8956    0.6403   -1.0713 H   0  0  0  0  0  0  0  0  0  0  0  0
    4.5551    1.7842   -0.8882 H   0  0  0  0  0  0  0  0  0  0  0  0
    2.4513   -0.4748    1.2703 H   0  0  0  0  0  0  0  0  0  0  0  0
    2.5168    1.1229    0.5498 H   0  0  0  0  0  0  0  0  0  0  0  0
    2.1377    0.1480   -1.7169 H   0  0  0  0  0  0  0  0  0  0  0  0
    2.2096   -1.4814   -1.0485 H   0  0  0  0  0  0  0  0  0  0  0  0
   -1.6000   -3.3953    1.2229 H   0  0  0  0  0  0  0  0  0  0  0  0
   -4.0153   -3.2966    1.7309 H   0  0  0  0  0  0  0  0  0  0  0  0
   -5.3143   -1.3044    1.1845 H   0  0  0  0  0  0  0  0  0  0  0  0
   -6.2648    0.3354    0.3625 H   0  0  0  0  0  0  0  0  0  0  0  0
   -5.8175    1.7225    1.1689 H   0  0  0  0  0  0  0  0  0  0  0  0
   -4.2276    3.0152   -0.7705 H   0  0  0  0  0  0  0  0  0  0  0  0
   -1.8172    2.8915   -1.2438 H   0  0  0  0  0  0  0  0  0  0  0  0
  1  2  1  0
  2  3  1  0
  2  4  1  0
  4  5  1  0
  5  6  1  0
  6  7  1  0
  7  8  2  0
  7  9  1  0
  9 10  1  0
 10 11  2  0
 11 12  1  0
 12 13  2  0
 13 14  1  0
 14 15  1  0
 14 16  2  0
 16 17  1  0
 17 18  2  0
 18 19  1  0
 18 20  1  0
 20 21  2  0
 20  6  1  0
 19  9  2  0
 19 13  1  0
  1 22  1  0
  1 23  1  0
  1 24  1  0
  2 25  1  0
  3 26  1  0
  3 27  1  0
  3 28  1  0
  4 29  1  0
  4 30  1  0
  5 31  1  0
  5 32  1  0
 10 33  1  0
 11 34  1  0
 12 35  1  0
 15 36  1  0
 15 37  1  0
 16 38  1  0
 17 39  1  0
M  END
$$$$
