
     RDKit          3D

 48 50  0  0  0  0  0  0  0  0999 V2000
    5.7117    2.1541   -0.5184 C   0  0  0  0  0  0  0  0  0  0  0  0
    5.2194    1.4079    0.7136 C   0  0  0  0  0  0  0  0  0  0  0  0
    4.6786    0.0918    0.3502 N   0  0  0  0  0  0  0  0  0  0  0  0
    5.6271   -1.0275    0.4102 C   0  0  0  0  0  0  0  0  0  0  0  0
    5.6165   -1.6835    1.7837 C   0  0  0  0  0  0  0  0  0  0  0  0
    3.3406   -0.0882    0.0122 C   0  0  0  0  0  0  0  0  0  0  0  0
    2.7785   -1.3627   -0.1840 C   0  0  0  0  0  0  0  0  0  0  0  0
    1.4304   -1.5519   -0.5274 C   0  0  0  0  0  0  0  0  0  0  0  0
    0.5876   -0.4574   -0.6892 C   0  0  0  0  0  0  0  0  0  0  0  0
   -0.8122   -0.6467   -1.0709 C   0  0  0  0  0  0  0  0  0  0  0  0
   -1.8705   -0.7871   -0.2469 C   0  0  0  0  0  0  0  0  0  0  0  0
   -1.7785   -0.7606    1.2289 C   0  0  0  0  0  0  0  0  0  0  0  0
   -0.7693   -0.5016    1.8713 O   0  0  0  0  0  0  0  0  0  0  0  0
   -2.9457   -1.0391    1.8761 N   0  0  0  0  0  0  0  0  0  0  0  0
   -4.1968   -1.0553    1.3395 C   0  0  0  0  0  0  0  0  0  0  0  0
   -5.1687   -1.0991    2.0927 O   0  0  0  0  0  0  0  0  0  0  0  0
   -4.2863   -1.0161   -0.0351 N   0  0  0  0  0  0  0  0  0  0  0  0
   -5.6191   -1.0316   -0.6225 C   0  0  0  0  0  0  0  0  0  0  0  0
   -6.1514    0.3596   -0.6577 C   0  0  0  0  0  0  0  0  0  0  0  0
   -6.9632    1.0847    0.1911 C   0  0  0  0  0  0  0  0  0  0  0  0
   -7.1035    2.3678   -0.3898 C   0  0  0  0  0  0  0  0  0  0  0  0
   -6.3695    2.3446   -1.5522 C   0  0  0  0  0  0  0  0  0  0  0  0
   -5.7860    1.1308   -1.7218 O   0  0  0  0  0  0  0  0  0  0  0  0
   -3.1994   -0.9823   -0.8933 C   0  0  0  0  0  0  0  0  0  0  0  0
   -3.2983   -1.1209   -2.1118 O   0  0  0  0  0  0  0  0  0  0  0  0
    1.1069    0.8198   -0.5067 C   0  0  0  0  0  0  0  0  0  0  0  0
    2.4567    0.9923   -0.1617 C   0  0  0  0  0  0  0  0  0  0  0  0
    6.1295    3.1239   -0.2308 H   0  0  0  0  0  0  0  0  0  0  0  0
    6.4940    1.5874   -1.0343 H   0  0  0  0  0  0  0  0  0  0  0  0
    4.9044    2.3319   -1.2352 H   0  0  0  0  0  0  0  0  0  0  0  0
    4.4935    2.0086    1.2731 H   0  0  0  0  0  0  0  0  0  0  0  0
    6.0659    1.2825    1.4011 H   0  0  0  0  0  0  0  0  0  0  0  0
    6.6420   -0.6600    0.2105 H   0  0  0  0  0  0  0  0  0  0  0  0
    5.4384   -1.7646   -0.3783 H   0  0  0  0  0  0  0  0  0  0  0  0
    4.6330   -2.0947    2.0303 H   0  0  0  0  0  0  0  0  0  0  0  0
    6.3436   -2.5009    1.8171 H   0  0  0  0  0  0  0  0  0  0  0  0
    5.8798   -0.9636    2.5657 H   0  0  0  0  0  0  0  0  0  0  0  0
    3.3747   -2.2611   -0.0619 H   0  0  0  0  0  0  0  0  0  0  0  0
    1.0580   -2.5639   -0.6623 H   0  0  0  0  0  0  0  0  0  0  0  0
   -0.9505   -0.6737   -2.1520 H   0  0  0  0  0  0  0  0  0  0  0  0
   -2.9039   -0.9945    2.8846 H   0  0  0  0  0  0  0  0  0  0  0  0
   -6.2813   -1.6688   -0.0246 H   0  0  0  0  0  0  0  0  0  0  0  0
   -5.5986   -1.4499   -1.6346 H   0  0  0  0  0  0  0  0  0  0  0  0
   -7.3919    0.7281    1.1185 H   0  0  0  0  0  0  0  0  0  0  0  0
   -7.6678    3.2072   -0.0086 H   0  0  0  0  0  0  0  0  0  0  0  0
   -6.1701    3.0708   -2.3282 H   0  0  0  0  0  0  0  0  0  0  0  0
    0.4767    1.6971   -0.6266 H   0  0  0  0  0  0  0  0  0  0  0  0
    2.7953    2.0163   -0.0421 H   0  0  0  0  0  0  0  0  0  0  0  0
  1  2  1  0
  2  3  1  0
  3  4  1  0
  4  5  1  0
  3  6  1  0
  6  7  2  0
  7  8  1  0
  8  9  2  0
  9 10  1  0
 10 11  2  3
 11 12  1  0
 12 13  2  0
 12 14  1  0
 14 15  1  0
 15 16  2  0
 15 17  1  0
 17 18  1  0
 18 19  1  0
 19 20  2  0
 20 21  1  0
 21 22  2  0
 22 23  1  0
 17 24  1  0
 24 25  2  0
  9 26  1  0
 26 27  2  0
 27  6  1  0
 24 11  1  0
 23 19  1  0
  1 28  1  0
  1 29  1  0
  1 30  1  0
  2 31  1  0
  2 32  1  0
  4 33  1  0
  4 34  1  0
  5 35  1  0
  5 36  1  0
  5 37  1  0
  7 38  1  0
  8 39  1  0
 10 40  1  0
 14 41  1  0
 18 42  1  0
 18 43  1  0
 20 44  1  0
 21 45  1  0
 22 46  1  0
 26 47  1  0
 27 48  1  0
M  END
$$$$
