
     RDKit          3D

 43 44  0  0  0  0  0  0  0  0999 V2000
    6.3302    2.5502   -2.0703 C   0  0  0  0  0  0  0  0  0  0  0  0
    6.3114    1.9637   -0.6711 C   0  0  0  0  0  0  0  0  0  0  0  0
    4.9669    1.9159   -0.1717 O   0  0  0  0  0  0  0  0  0  0  0  0
    4.2460    0.8100   -0.5138 C   0  0  0  0  0  0  0  0  0  0  0  0
    4.6673   -0.1354   -1.1701 O   0  0  0  0  0  0  0  0  0  0  0  0
    2.8498    0.8960    0.0912 C   0  0  0  0  0  0  0  0  0  0  0  0
    1.9682   -0.0927   -0.5079 N   0  0  0  0  0  0  0  0  0  0  0  0
    1.2435    0.1940   -1.6434 C   0  0  0  0  0  0  0  0  0  0  0  0
    1.1525    1.3291   -2.1042 O   0  0  0  0  0  0  0  0  0  0  0  0
    0.5414   -0.9979   -2.2707 C   0  0  0  0  0  0  0  0  0  0  0  0
   -1.1277   -1.1838   -1.5824 S   0  0  0  0  0  0  0  0  0  0  0  0
   -0.7731   -1.7924    0.0030 C   0  0  0  0  0  0  0  0  0  0  0  0
    0.3262   -2.4485    0.3081 N   0  0  0  0  0  0  0  0  0  0  0  0
    0.1481   -2.9149    1.5766 N   0  0  0  0  0  0  0  0  0  0  0  0
   -1.0374   -2.5676    2.0498 N   0  0  0  0  0  0  0  0  0  0  0  0
   -1.6380   -1.8096    1.0929 N   0  0  0  0  0  0  0  0  0  0  0  0
   -2.8781   -1.1521    1.3422 C   0  0  0  0  0  0  0  0  0  0  0  0
   -3.1337    0.0870    0.7228 C   0  0  0  0  0  0  0  0  0  0  0  0
   -4.3253    0.7884    0.9554 C   0  0  0  0  0  0  0  0  0  0  0  0
   -4.5567    2.1240    0.3107 C   0  0  0  0  0  0  0  0  0  0  0  0
   -5.2568    0.2633    1.8484 C   0  0  0  0  0  0  0  0  0  0  0  0
   -5.0139   -0.9557    2.4804 C   0  0  0  0  0  0  0  0  0  0  0  0
   -3.8365   -1.6871    2.2355 C   0  0  0  0  0  0  0  0  0  0  0  0
   -3.6951   -3.0119    2.9406 C   0  0  0  0  0  0  0  0  0  0  0  0
    5.8593    3.5388   -2.0790 H   0  0  0  0  0  0  0  0  0  0  0  0
    7.3561    2.6445   -2.4373 H   0  0  0  0  0  0  0  0  0  0  0  0
    5.7659    1.9227   -2.7673 H   0  0  0  0  0  0  0  0  0  0  0  0
    6.8810    2.6088    0.0058 H   0  0  0  0  0  0  0  0  0  0  0  0
    6.7820    0.9742   -0.6440 H   0  0  0  0  0  0  0  0  0  0  0  0
    2.9145    0.6785    1.1606 H   0  0  0  0  0  0  0  0  0  0  0  0
    2.4426    1.8987   -0.0684 H   0  0  0  0  0  0  0  0  0  0  0  0
    2.1330   -1.0681   -0.2739 H   0  0  0  0  0  0  0  0  0  0  0  0
    1.1323   -1.9108   -2.1464 H   0  0  0  0  0  0  0  0  0  0  0  0
    0.4613   -0.8142   -3.3472 H   0  0  0  0  0  0  0  0  0  0  0  0
   -2.3934    0.5689    0.0889 H   0  0  0  0  0  0  0  0  0  0  0  0
   -4.1270    2.1487   -0.6963 H   0  0  0  0  0  0  0  0  0  0  0  0
   -5.6272    2.3318    0.2116 H   0  0  0  0  0  0  0  0  0  0  0  0
   -4.0982    2.9145    0.9126 H   0  0  0  0  0  0  0  0  0  0  0  0
   -6.1780    0.8002    2.0644 H   0  0  0  0  0  0  0  0  0  0  0  0
   -5.7642   -1.3395    3.1703 H   0  0  0  0  0  0  0  0  0  0  0  0
   -3.3695   -3.7922    2.2455 H   0  0  0  0  0  0  0  0  0  0  0  0
   -2.9949   -2.9284    3.7771 H   0  0  0  0  0  0  0  0  0  0  0  0
   -4.6548   -3.3490    3.3488 H   0  0  0  0  0  0  0  0  0  0  0  0
  1  2  1  0
  2  3  1  0
  3  4  1  0
  4  5  2  0
  4  6  1  0
  6  7  1  0
  7  8  1  0
  8  9  2  0
  8 10  1  0
 10 11  1  0
 11 12  1  0
 12 13  2  0
 13 14  1  0
 14 15  2  0
 15 16  1  0
 16 17  1  0
 17 18  2  0
 18 19  1  0
 19 20  1  0
 19 21  2  0
 21 22  1  0
 22 23  2  0
 23 24  1  0
 16 12  1  0
 23 17  1  0
  1 25  1  0
  1 26  1  0
  1 27  1  0
  2 28  1  0
  2 29  1  0
  6 30  1  0
  6 31  1  0
  7 32  1  0
 10 33  1  0
 10 34  1  0
 18 35  1  0
 20 36  1  0
 20 37  1  0
 20 38  1  0
 21 39  1  0
 22 40  1  0
 24 41  1  0
 24 42  1  0
 24 43  1  0
M  END
$$$$
