
     RDKit          3D

 35 37  0  0  0  0  0  0  0  0999 V2000
   -1.4165   -2.1529    0.1952 C   0  0  0  0  0  0  0  0  0  0  0  0
   -1.1346   -0.8806   -0.5950 C   0  0  0  0  0  0  0  0  0  0  0  0
   -1.3905    0.3121    0.2120 N   0  0  0  0  0  0  0  0  0  0  0  0
   -0.4460    1.2145    0.7578 C   0  0  0  0  0  0  0  0  0  0  0  0
    0.8854    1.0953    1.0000 C   0  0  0  0  0  0  0  0  0  0  0  0
    1.9271    2.3977    1.5687 S   0  0  0  0  0  0  0  0  0  0  0  0
    3.4082    1.4824    1.3979 C   0  0  0  0  0  0  0  0  0  0  0  0
    4.9197    2.0965    1.7405 S   0  0  0  0  0  0  0  0  0  0  0  0
    3.0791    0.2156    0.9855 N   0  0  0  0  0  0  0  0  0  0  0  0
    4.0494   -0.7890    0.7884 N   0  0  0  0  0  0  0  0  0  0  0  0
    4.4637   -0.9761   -0.5177 C   0  0  0  0  0  0  0  0  0  0  0  0
    5.2714   -2.2281   -0.7243 C   0  0  0  0  0  0  0  0  0  0  0  0
    4.1949   -0.2080   -1.4371 O   0  0  0  0  0  0  0  0  0  0  0  0
    1.7425   -0.1234    0.8529 C   0  0  0  0  0  0  0  0  0  0  0  0
    1.3589   -1.2794    0.7342 O   0  0  0  0  0  0  0  0  0  0  0  0
   -1.2375    2.7968    1.2178 S   0  0  0  0  0  0  0  0  0  0  0  0
   -2.8076    2.1558    0.6986 C   0  0  0  0  0  0  0  0  0  0  0  0
   -4.0144    2.8431    0.7576 C   0  0  0  0  0  0  0  0  0  0  0  0
   -5.1647    2.2134    0.2901 C   0  0  0  0  0  0  0  0  0  0  0  0
   -5.0903    0.9172   -0.2272 C   0  0  0  0  0  0  0  0  0  0  0  0
   -3.8658    0.2374   -0.2814 C   0  0  0  0  0  0  0  0  0  0  0  0
   -2.7038    0.8519    0.1838 C   0  0  0  0  0  0  0  0  0  0  0  0
   -1.0921   -3.0295   -0.3741 H   0  0  0  0  0  0  0  0  0  0  0  0
   -0.9039   -2.1581    1.1615 H   0  0  0  0  0  0  0  0  0  0  0  0
   -2.4841   -2.2697    0.4033 H   0  0  0  0  0  0  0  0  0  0  0  0
   -0.1116   -0.8798   -0.9802 H   0  0  0  0  0  0  0  0  0  0  0  0
   -1.7421   -0.8781   -1.5094 H   0  0  0  0  0  0  0  0  0  0  0  0
    3.9184   -1.6134    1.3674 H   0  0  0  0  0  0  0  0  0  0  0  0
    5.5956   -2.6582    0.2276 H   0  0  0  0  0  0  0  0  0  0  0  0
    6.1614   -1.9867   -1.3119 H   0  0  0  0  0  0  0  0  0  0  0  0
    4.6629   -2.9624   -1.2583 H   0  0  0  0  0  0  0  0  0  0  0  0
   -4.0611    3.8514    1.1565 H   0  0  0  0  0  0  0  0  0  0  0  0
   -6.1204    2.7304    0.3260 H   0  0  0  0  0  0  0  0  0  0  0  0
   -5.9927    0.4300   -0.5904 H   0  0  0  0  0  0  0  0  0  0  0  0
   -3.8587   -0.7683   -0.6861 H   0  0  0  0  0  0  0  0  0  0  0  0
  1  2  1  0
  2  3  1  0
  3  4  1  0
  4  5  2  3
  5  6  1  0
  6  7  1  0
  7  8  2  0
  7  9  1  0
  9 10  1  0
 10 11  1  0
 11 12  1  0
 11 13  2  0
  9 14  1  0
 14 15  2  0
  4 16  1  0
 16 17  1  0
 17 18  2  0
 18 19  1  0
 19 20  2  0
 20 21  1  0
 21 22  2  0
 22  3  1  0
 14  5  1  0
 22 17  1  0
  1 23  1  0
  1 24  1  0
  1 25  1  0
  2 26  1  0
  2 27  1  0
 10 28  1  0
 12 29  1  0
 12 30  1  0
 12 31  1  0
 18 32  1  0
 19 33  1  0
 20 34  1  0
 21 35  1  0
M  END
$$$$
