
     RDKit          3D

 53 56  0  0  0  0  0  0  0  0999 V2000
    3.1151   -2.2168   -5.7118 C   0  0  0  0  0  0  0  0  0  0  0  0
    2.9359   -1.3580   -4.5938 O   0  0  0  0  0  0  0  0  0  0  0  0
    1.6638   -1.2346   -4.1061 C   0  0  0  0  0  0  0  0  0  0  0  0
    0.5312   -1.8849   -4.5880 C   0  0  0  0  0  0  0  0  0  0  0  0
   -0.7173   -1.6692   -3.9885 C   0  0  0  0  0  0  0  0  0  0  0  0
   -0.8499   -0.8031   -2.8976 C   0  0  0  0  0  0  0  0  0  0  0  0
   -2.0349   -0.5305   -2.2664 O   0  0  0  0  0  0  0  0  0  0  0  0
   -3.1445   -1.3601   -2.5807 C   0  0  0  0  0  0  0  0  0  0  0  0
    0.2860   -0.1350   -2.4098 C   0  0  0  0  0  0  0  0  0  0  0  0
    0.2244    0.8020   -1.2238 C   0  0  0  0  0  0  0  0  0  0  0  0
    0.6640    0.1244    0.0058 N   0  0  0  0  0  0  0  0  0  0  0  0
    0.7676    1.0503    1.0939 N   0  0  0  0  0  0  0  0  0  0  0  0
   -0.1576    1.0205    2.1391 C   0  0  0  0  0  0  0  0  0  0  0  0
   -1.2993    0.0854    2.0540 C   0  0  0  0  0  0  0  0  0  0  0  0
   -2.4173    0.4087    1.2831 C   0  0  0  0  0  0  0  0  0  0  0  0
   -3.4995   -0.4687    1.2476 C   0  0  0  0  0  0  0  0  0  0  0  0
   -3.4684   -1.6521    1.9909 C   0  0  0  0  0  0  0  0  0  0  0  0
   -2.3626   -1.9618    2.7962 C   0  0  0  0  0  0  0  0  0  0  0  0
   -2.3244   -3.2381    3.5834 C   0  0  0  0  0  0  0  0  0  0  0  0
   -1.2706   -1.0854    2.8195 C   0  0  0  0  0  0  0  0  0  0  0  0
   -0.0559    1.7659    3.1975 N   0  0  0  0  0  0  0  0  0  0  0  0
    1.0323    2.6430    3.2951 C   0  0  0  0  0  0  0  0  0  0  0  0
    1.1187    3.4808    4.4095 C   0  0  0  0  0  0  0  0  0  0  0  0
    2.1932    4.3631    4.5588 C   0  0  0  0  0  0  0  0  0  0  0  0
    3.1961    4.4148    3.5903 C   0  0  0  0  0  0  0  0  0  0  0  0
    3.1242    3.5830    2.4738 C   0  0  0  0  0  0  0  0  0  0  0  0
    2.0418    2.7051    2.3341 C   0  0  0  0  0  0  0  0  0  0  0  0
    1.9407    1.8082    1.1704 C   0  0  0  0  0  0  0  0  0  0  0  0
    2.8604    1.7411    0.3548 O   0  0  0  0  0  0  0  0  0  0  0  0
    1.5350   -0.3656   -3.0219 C   0  0  0  0  0  0  0  0  0  0  0  0
    2.8448   -3.2489   -5.4655 H   0  0  0  0  0  0  0  0  0  0  0  0
    4.1779   -2.2067   -5.9739 H   0  0  0  0  0  0  0  0  0  0  0  0
    2.5522   -1.8561   -6.5797 H   0  0  0  0  0  0  0  0  0  0  0  0
    0.5800   -2.5669   -5.4301 H   0  0  0  0  0  0  0  0  0  0  0  0
   -1.5712   -2.1922   -4.4062 H   0  0  0  0  0  0  0  0  0  0  0  0
   -3.4766   -1.1950   -3.6105 H   0  0  0  0  0  0  0  0  0  0  0  0
   -3.9703   -1.0806   -1.9194 H   0  0  0  0  0  0  0  0  0  0  0  0
   -2.9185   -2.4161   -2.4011 H   0  0  0  0  0  0  0  0  0  0  0  0
   -0.7877    1.2007   -1.0990 H   0  0  0  0  0  0  0  0  0  0  0  0
    0.8560    1.6720   -1.4446 H   0  0  0  0  0  0  0  0  0  0  0  0
    1.6149   -0.2196   -0.1624 H   0  0  0  0  0  0  0  0  0  0  0  0
   -2.4472    1.3325    0.7126 H   0  0  0  0  0  0  0  0  0  0  0  0
   -4.3692   -0.2305    0.6400 H   0  0  0  0  0  0  0  0  0  0  0  0
   -4.3195   -2.3287    1.9462 H   0  0  0  0  0  0  0  0  0  0  0  0
   -1.7767   -3.0994    4.5215 H   0  0  0  0  0  0  0  0  0  0  0  0
   -1.8352   -4.0245    3.0000 H   0  0  0  0  0  0  0  0  0  0  0  0
   -3.3349   -3.5690    3.8446 H   0  0  0  0  0  0  0  0  0  0  0  0
   -0.3998   -1.3045    3.4345 H   0  0  0  0  0  0  0  0  0  0  0  0
    0.3418    3.4378    5.1701 H   0  0  0  0  0  0  0  0  0  0  0  0
    2.2465    5.0070    5.4338 H   0  0  0  0  0  0  0  0  0  0  0  0
    4.0341    5.0981    3.7078 H   0  0  0  0  0  0  0  0  0  0  0  0
    3.9064    3.6168    1.7185 H   0  0  0  0  0  0  0  0  0  0  0  0
    2.4240    0.1417   -2.6464 H   0  0  0  0  0  0  0  0  0  0  0  0
  1  2  1  0
  2  3  1  0
  3  4  2  0
  4  5  1  0
  5  6  2  0
  6  7  1  0
  7  8  1  0
  6  9  1  0
  9 10  1  0
 10 11  1  0
 11 12  1  0
 12 13  1  0
 13 14  1  0
 14 15  2  0
 15 16  1  0
 16 17  2  0
 17 18  1  0
 18 19  1  0
 18 20  2  0
 13 21  2  0
 21 22  1  0
 22 23  2  0
 23 24  1  0
 24 25  2  0
 25 26  1  0
 26 27  2  0
 27 28  1  0
 28 29  2  0
  9 30  2  0
 30  3  1  0
 28 12  1  0
 20 14  1  0
 27 22  1  0
  1 31  1  0
  1 32  1  0
  1 33  1  0
  4 34  1  0
  5 35  1  0
  8 36  1  0
  8 37  1  0
  8 38  1  0
 10 39  1  0
 10 40  1  0
 11 41  1  0
 15 42  1  0
 16 43  1  0
 17 44  1  0
 19 45  1  0
 19 46  1  0
 19 47  1  0
 20 48  1  0
 23 49  1  0
 24 50  1  0
 25 51  1  0
 26 52  1  0
 30 53  1  0
M  END
$$$$
