
     RDKit          3D

 52 56  0  0  0  0  0  0  0  0999 V2000
   -5.8913    3.0260    1.7088 C   0  0  0  0  0  0  0  0  0  0  0  0
   -4.8608    2.2147    0.9815 C   0  0  0  0  0  0  0  0  0  0  0  0
   -4.2842    2.6917   -0.1987 C   0  0  0  0  0  0  0  0  0  0  0  0
   -3.3453    1.9198   -0.8898 C   0  0  0  0  0  0  0  0  0  0  0  0
   -2.9627    0.6551   -0.4213 C   0  0  0  0  0  0  0  0  0  0  0  0
   -2.0324   -0.0917   -1.1942 N   0  0  0  0  0  0  0  0  0  0  0  0
   -1.6624   -1.3786   -0.9251 C   0  0  0  0  0  0  0  0  0  0  0  0
   -0.4434   -1.9502   -0.5962 C   0  0  0  0  0  0  0  0  0  0  0  0
    0.8097   -1.2525   -0.3670 C   0  0  0  0  0  0  0  0  0  0  0  0
    0.8684   -0.0373    0.3160 C   0  0  0  0  0  0  0  0  0  0  0  0
    2.0976    0.6094    0.5152 C   0  0  0  0  0  0  0  0  0  0  0  0
    3.3099    0.0704    0.0554 C   0  0  0  0  0  0  0  0  0  0  0  0
    4.5148    0.7213    0.2502 N   0  0  0  0  0  0  0  0  0  0  0  0
    4.7040    1.6887    1.3444 C   0  0  0  0  0  0  0  0  0  0  0  0
    6.1602    1.6561    1.8400 C   0  0  0  0  0  0  0  0  0  0  0  0
    7.1299    1.9501    0.8251 O   0  0  0  0  0  0  0  0  0  0  0  0
    6.7187    1.5387   -0.4866 C   0  0  0  0  0  0  0  0  0  0  0  0
    5.7299    0.3604   -0.4965 C   0  0  0  0  0  0  0  0  0  0  0  0
    3.2263   -1.1586   -0.6167 C   0  0  0  0  0  0  0  0  0  0  0  0
    2.0034   -1.8151   -0.8192 C   0  0  0  0  0  0  0  0  0  0  0  0
   -0.5415   -3.3201   -0.5184 N   0  0  0  0  0  0  0  0  0  0  0  0
   -1.7951   -3.6139   -0.7904 C   0  0  0  0  0  0  0  0  0  0  0  0
   -2.3870   -4.8454   -0.8390 N   0  0  0  0  0  0  0  0  0  0  0  0
   -3.6341   -4.8670   -1.1946 C   0  0  0  0  0  0  0  0  0  0  0  0
   -4.4761   -3.6927   -1.5511 C   0  0  0  0  0  0  0  0  0  0  0  0
   -3.8557   -2.5087   -1.4708 C   0  0  0  0  0  0  0  0  0  0  0  0
   -2.5206   -2.4560   -1.0760 N   0  0  0  0  0  0  0  0  0  0  0  0
   -3.5656    0.1726    0.7462 C   0  0  0  0  0  0  0  0  0  0  0  0
   -4.5040    0.9436    1.4412 C   0  0  0  0  0  0  0  0  0  0  0  0
   -6.8899    2.7904    1.3282 H   0  0  0  0  0  0  0  0  0  0  0  0
   -5.7070    4.0977    1.5800 H   0  0  0  0  0  0  0  0  0  0  0  0
   -5.8639    2.8191    2.7838 H   0  0  0  0  0  0  0  0  0  0  0  0
   -4.5632    3.6667   -0.5921 H   0  0  0  0  0  0  0  0  0  0  0  0
   -2.9210    2.3114   -1.8113 H   0  0  0  0  0  0  0  0  0  0  0  0
   -1.2734    0.5354   -1.4696 H   0  0  0  0  0  0  0  0  0  0  0  0
   -0.0314    0.4191    0.7204 H   0  0  0  0  0  0  0  0  0  0  0  0
    2.0809    1.5651    1.0320 H   0  0  0  0  0  0  0  0  0  0  0  0
    4.4594    2.6906    0.9731 H   0  0  0  0  0  0  0  0  0  0  0  0
    4.0566    1.4615    2.1990 H   0  0  0  0  0  0  0  0  0  0  0  0
    6.3991    0.6674    2.2499 H   0  0  0  0  0  0  0  0  0  0  0  0
    6.2985    2.3836    2.6462 H   0  0  0  0  0  0  0  0  0  0  0  0
    6.2718    2.4107   -0.9787 H   0  0  0  0  0  0  0  0  0  0  0  0
    7.6221    1.2764   -1.0464 H   0  0  0  0  0  0  0  0  0  0  0  0
    6.1916   -0.5181   -0.0305 H   0  0  0  0  0  0  0  0  0  0  0  0
    5.4950    0.1261   -1.5411 H   0  0  0  0  0  0  0  0  0  0  0  0
    4.1213   -1.6555   -0.9798 H   0  0  0  0  0  0  0  0  0  0  0  0
    1.9927   -2.7759   -1.3311 H   0  0  0  0  0  0  0  0  0  0  0  0
   -4.1502   -5.8403   -1.2481 H   0  0  0  0  0  0  0  0  0  0  0  0
   -5.5046   -3.8322   -1.8490 H   0  0  0  0  0  0  0  0  0  0  0  0
   -4.3427   -1.5711   -1.7063 H   0  0  0  0  0  0  0  0  0  0  0  0
   -3.3020   -0.8010    1.1503 H   0  0  0  0  0  0  0  0  0  0  0  0
   -4.9504    0.5421    2.3485 H   0  0  0  0  0  0  0  0  0  0  0  0
  1  2  1  0
  2  3  2  0
  3  4  1  0
  4  5  2  0
  5  6  1  0
  6  7  1  0
  7  8  2  0
  8  9  1  0
  9 10  2  0
 10 11  1  0
 11 12  2  0
 12 13  1  0
 13 14  1  0
 14 15  1  0
 15 16  1  0
 16 17  1  0
 17 18  1  0
 12 19  1  0
 19 20  2  0
  8 21  1  0
 21 22  2  0
 22 23  1  0
 23 24  2  0
 24 25  1  0
 25 26  2  0
 26 27  1  0
  5 28  1  0
 28 29  2  0
 29  2  1  0
 27  7  1  0
 20  9  1  0
 27 22  1  0
 18 13  1  0
  1 30  1  0
  1 31  1  0
  1 32  1  0
  3 33  1  0
  4 34  1  0
  6 35  1  0
 10 36  1  0
 11 37  1  0
 14 38  1  0
 14 39  1  0
 15 40  1  0
 15 41  1  0
 17 42  1  0
 17 43  1  0
 18 44  1  0
 18 45  1  0
 19 46  1  0
 20 47  1  0
 24 48  1  0
 25 49  1  0
 26 50  1  0
 28 51  1  0
 29 52  1  0
M  END
$$$$
