
     RDKit          3D

 54 56  0  0  0  0  0  0  0  0999 V2000
    7.3129    0.7356    1.9576 C   0  0  0  0  0  0  0  0  0  0  0  0
    6.1260    1.5185    1.9706 O   0  0  0  0  0  0  0  0  0  0  0  0
    5.2850    1.3833    0.9006 C   0  0  0  0  0  0  0  0  0  0  0  0
    5.4740    0.5363   -0.1911 C   0  0  0  0  0  0  0  0  0  0  0  0
    4.5281    0.4951   -1.2221 C   0  0  0  0  0  0  0  0  0  0  0  0
    3.3818    1.3010   -1.1767 C   0  0  0  0  0  0  0  0  0  0  0  0
    2.3553    1.2420   -2.2834 C   0  0  0  0  0  0  0  0  0  0  0  0
    1.5217    0.0383   -2.2449 N   0  0  0  0  0  0  0  0  0  0  0  0
    0.5645    0.0526   -1.1361 C   0  0  0  0  0  0  0  0  0  0  0  0
   -0.3554   -1.1708   -1.2417 C   0  0  0  0  0  0  0  0  0  0  0  0
   -1.3260   -1.2839   -0.0390 C   0  0  0  0  0  0  0  0  0  0  0  0
   -2.0613   -2.6241    0.0394 C   0  0  0  0  0  0  0  0  0  0  0  0
   -2.4284   -3.3566   -1.1028 C   0  0  0  0  0  0  0  0  0  0  0  0
   -3.1130   -4.5685   -0.9825 C   0  0  0  0  0  0  0  0  0  0  0  0
   -3.4410   -5.0513    0.2773 C   0  0  0  0  0  0  0  0  0  0  0  0
   -4.0979   -6.2132    0.3891 F   0  0  0  0  0  0  0  0  0  0  0  0
   -3.1010   -4.3440    1.4219 C   0  0  0  0  0  0  0  0  0  0  0  0
   -2.4166   -3.1330    1.3039 C   0  0  0  0  0  0  0  0  0  0  0  0
   -2.2960   -0.1102    0.0488 C   0  0  0  0  0  0  0  0  0  0  0  0
   -3.1878    0.1868   -0.9904 C   0  0  0  0  0  0  0  0  0  0  0  0
   -4.0641    1.2702   -0.8861 C   0  0  0  0  0  0  0  0  0  0  0  0
   -4.0729    2.0752    0.2538 C   0  0  0  0  0  0  0  0  0  0  0  0
   -4.9781    3.0998    0.2242 O   0  0  0  0  0  0  0  0  0  0  0  0
   -5.0389    3.9368    1.3719 C   0  0  0  0  0  0  0  0  0  0  0  0
   -3.1935    1.7855    1.2955 C   0  0  0  0  0  0  0  0  0  0  0  0
   -2.3137    0.7011    1.1941 C   0  0  0  0  0  0  0  0  0  0  0  0
    3.1982    2.1481   -0.0773 C   0  0  0  0  0  0  0  0  0  0  0  0
    4.1437    2.1863    0.9503 C   0  0  0  0  0  0  0  0  0  0  0  0
    7.9470    0.9932    1.1028 H   0  0  0  0  0  0  0  0  0  0  0  0
    7.8741    0.9641    2.8688 H   0  0  0  0  0  0  0  0  0  0  0  0
    7.0799   -0.3343    1.9698 H   0  0  0  0  0  0  0  0  0  0  0  0
    6.3446   -0.1054   -0.2734 H   0  0  0  0  0  0  0  0  0  0  0  0
    4.6930   -0.1708   -2.0666 H   0  0  0  0  0  0  0  0  0  0  0  0
    1.7309    2.1443   -2.2846 H   0  0  0  0  0  0  0  0  0  0  0  0
    2.8869    1.2607   -3.2431 H   0  0  0  0  0  0  0  0  0  0  0  0
    2.1232   -0.7802   -2.1666 H   0  0  0  0  0  0  0  0  0  0  0  0
    1.0885    0.0281   -0.1742 H   0  0  0  0  0  0  0  0  0  0  0  0
   -0.0340    0.9694   -1.1780 H   0  0  0  0  0  0  0  0  0  0  0  0
   -0.9033   -1.1233   -2.1913 H   0  0  0  0  0  0  0  0  0  0  0  0
    0.2637   -2.0779   -1.2817 H   0  0  0  0  0  0  0  0  0  0  0  0
   -0.6788   -1.2529    0.8508 H   0  0  0  0  0  0  0  0  0  0  0  0
   -2.1946   -2.9943   -2.1005 H   0  0  0  0  0  0  0  0  0  0  0  0
   -3.3956   -5.1347   -1.8642 H   0  0  0  0  0  0  0  0  0  0  0  0
   -3.3738   -4.7347    2.3966 H   0  0  0  0  0  0  0  0  0  0  0  0
   -2.1649   -2.5814    2.2075 H   0  0  0  0  0  0  0  0  0  0  0  0
   -3.2147   -0.4218   -1.8908 H   0  0  0  0  0  0  0  0  0  0  0  0
   -4.7495    1.4864   -1.7021 H   0  0  0  0  0  0  0  0  0  0  0  0
   -5.3301    3.3678    2.2610 H   0  0  0  0  0  0  0  0  0  0  0  0
   -4.0898    4.4597    1.5296 H   0  0  0  0  0  0  0  0  0  0  0  0
   -5.8095    4.6930    1.1937 H   0  0  0  0  0  0  0  0  0  0  0  0
   -3.1652    2.3808    2.2017 H   0  0  0  0  0  0  0  0  0  0  0  0
   -1.6394    0.4968    2.0232 H   0  0  0  0  0  0  0  0  0  0  0  0
    2.3164    2.7815   -0.0113 H   0  0  0  0  0  0  0  0  0  0  0  0
    3.9895    2.8489    1.7985 H   0  0  0  0  0  0  0  0  0  0  0  0
  1  2  1  0
  2  3  1  0
  3  4  2  0
  4  5  1  0
  5  6  2  0
  6  7  1  0
  7  8  1  0
  8  9  1  0
  9 10  1  0
 10 11  1  0
 11 12  1  0
 12 13  2  0
 13 14  1  0
 14 15  2  0
 15 16  1  0
 15 17  1  0
 17 18  2  0
 11 19  1  0
 19 20  2  0
 20 21  1  0
 21 22  2  0
 22 23  1  0
 23 24  1  0
 22 25  1  0
 25 26  2  0
  6 27  1  0
 27 28  2  0
 28  3  1  0
 18 12  1  0
 26 19  1  0
  1 29  1  0
  1 30  1  0
  1 31  1  0
  4 32  1  0
  5 33  1  0
  7 34  1  0
  7 35  1  0
  8 36  1  0
  9 37  1  0
  9 38  1  0
 10 39  1  0
 10 40  1  0
 11 41  1  0
 13 42  1  0
 14 43  1  0
 17 44  1  0
 18 45  1  0
 20 46  1  0
 21 47  1  0
 24 48  1  0
 24 49  1  0
 24 50  1  0
 25 51  1  0
 26 52  1  0
 27 53  1  0
 28 54  1  0
M  END
$$$$
