
     RDKit          3D

 58 61  0  0  0  0  0  0  0  0999 V2000
    3.4084    2.5139    0.0345 O   0  0  0  0  0  0  0  0  0  0  0  0
    2.5053    1.7526    0.3736 C   0  0  0  0  0  0  0  0  0  0  0  0
    2.7418    0.4536    0.7527 N   0  0  0  0  0  0  0  0  0  0  0  0
    4.0799   -0.1069    0.7333 C   0  0  0  0  0  0  0  0  0  0  0  0
    4.4995   -0.5361   -0.6705 C   0  0  0  0  0  0  0  0  0  0  0  0
    5.8812   -1.1367   -0.6936 C   0  0  0  0  0  0  0  0  0  0  0  0
    6.0574   -2.5265   -0.7136 C   0  0  0  0  0  0  0  0  0  0  0  0
    7.3443   -3.0791   -0.7372 C   0  0  0  0  0  0  0  0  0  0  0  0
    8.4572   -2.2436   -0.7342 C   0  0  0  0  0  0  0  0  0  0  0  0
   10.0428   -2.9250   -0.7769 Cl  0  0  0  0  0  0  0  0  0  0  0  0
    8.2946   -0.8569   -0.6991 C   0  0  0  0  0  0  0  0  0  0  0  0
    7.0102   -0.3056   -0.6801 C   0  0  0  0  0  0  0  0  0  0  0  0
    1.0451    2.2059    0.3707 C   0  0  0  0  0  0  0  0  0  0  0  0
    0.3859    2.1249    1.7543 C   0  0  0  0  0  0  0  0  0  0  0  0
   -0.3464    0.8177    2.0507 C   0  0  0  0  0  0  0  0  0  0  0  0
   -1.2815    0.3772    0.9195 C   0  0  0  0  0  0  0  0  0  0  0  0
   -2.5012    1.3124    0.8106 C   0  0  0  0  0  0  0  0  0  0  0  0
   -3.4917    0.7710   -0.1099 N   0  0  0  0  0  0  0  0  0  0  0  0
   -4.6071    0.0140    0.2190 C   0  0  0  0  0  0  0  0  0  0  0  0
   -4.6381   -0.6211    1.4351 N   0  0  0  0  0  0  0  0  0  0  0  0
   -5.6555   -1.4099    1.9018 C   0  0  0  0  0  0  0  0  0  0  0  0
   -5.4430   -2.1493    3.3922 S   0  0  0  0  0  0  0  0  0  0  0  0
   -6.7816   -1.5466    1.1380 N   0  0  0  0  0  0  0  0  0  0  0  0
   -6.7923   -0.9660   -0.0184 C   0  0  0  0  0  0  0  0  0  0  0  0
   -8.0142   -1.0952   -0.8642 C   0  0  0  0  0  0  0  0  0  0  0  0
   -8.0708   -0.5350   -2.0776 C   0  0  0  0  0  0  0  0  0  0  0  0
   -6.9577    0.1937   -2.6343 C   0  0  0  0  0  0  0  0  0  0  0  0
   -5.8235    0.3744   -1.9470 C   0  0  0  0  0  0  0  0  0  0  0  0
   -5.6721   -0.1509   -0.6003 C   0  0  0  0  0  0  0  0  0  0  0  0
   -0.4868    0.2738   -0.3906 C   0  0  0  0  0  0  0  0  0  0  0  0
    0.2451    1.5600   -0.7642 C   0  0  0  0  0  0  0  0  0  0  0  0
    1.9690   -0.1781    0.8914 H   0  0  0  0  0  0  0  0  0  0  0  0
    4.0761   -0.9601    1.4177 H   0  0  0  0  0  0  0  0  0  0  0  0
    4.7764    0.6379    1.1324 H   0  0  0  0  0  0  0  0  0  0  0  0
    4.4727    0.3163   -1.3592 H   0  0  0  0  0  0  0  0  0  0  0  0
    3.7725   -1.2545   -1.0690 H   0  0  0  0  0  0  0  0  0  0  0  0
    5.1969   -3.1907   -0.7173 H   0  0  0  0  0  0  0  0  0  0  0  0
    7.4701   -4.1575   -0.7605 H   0  0  0  0  0  0  0  0  0  0  0  0
    9.1609   -0.1997   -0.6957 H   0  0  0  0  0  0  0  0  0  0  0  0
    6.8963    0.7778   -0.6580 H   0  0  0  0  0  0  0  0  0  0  0  0
    1.1109    3.2785    0.1292 H   0  0  0  0  0  0  0  0  0  0  0  0
   -0.3389    2.9453    1.8339 H   0  0  0  0  0  0  0  0  0  0  0  0
    1.1285    2.3052    2.5402 H   0  0  0  0  0  0  0  0  0  0  0  0
    0.3848    0.0219    2.2377 H   0  0  0  0  0  0  0  0  0  0  0  0
   -0.9116    0.9229    2.9847 H   0  0  0  0  0  0  0  0  0  0  0  0
   -1.6445   -0.6300    1.1610 H   0  0  0  0  0  0  0  0  0  0  0  0
   -2.2029    2.3021    0.4467 H   0  0  0  0  0  0  0  0  0  0  0  0
   -2.9521    1.4833    1.7978 H   0  0  0  0  0  0  0  0  0  0  0  0
   -3.5965    1.3251   -0.9539 H   0  0  0  0  0  0  0  0  0  0  0  0
   -3.8297   -0.5669    2.0261 H   0  0  0  0  0  0  0  0  0  0  0  0
   -8.8401   -1.6606   -0.4472 H   0  0  0  0  0  0  0  0  0  0  0  0
   -8.9623   -0.6396   -2.6895 H   0  0  0  0  0  0  0  0  0  0  0  0
   -7.0594    0.5681   -3.6421 H   0  0  0  0  0  0  0  0  0  0  0  0
   -5.0002    0.9036   -2.4101 H   0  0  0  0  0  0  0  0  0  0  0  0
    0.2397   -0.5403   -0.3042 H   0  0  0  0  0  0  0  0  0  0  0  0
   -1.1495   -0.0126   -1.2161 H   0  0  0  0  0  0  0  0  0  0  0  0
    0.8964    1.3622   -1.6257 H   0  0  0  0  0  0  0  0  0  0  0  0
   -0.4984    2.2861   -1.1158 H   0  0  0  0  0  0  0  0  0  0  0  0
  1  2  2  0
  2  3  1  0
  3  4  1  0
  4  5  1  0
  5  6  1  0
  6  7  2  0
  7  8  1  0
  8  9  2  0
  9 10  1  0
  9 11  1  0
 11 12  2  0
  2 13  1  0
 13 14  1  0
 14 15  1  0
 15 16  1  0
 16 17  1  0
 17 18  1  0
 18 19  1  0
 19 20  1  0
 20 21  1  0
 21 22  2  0
 21 23  1  0
 23 24  2  0
 24 25  1  0
 25 26  2  0
 26 27  1  0
 27 28  2  0
 28 29  1  0
 16 30  1  0
 30 31  1  0
 12  6  1  0
 31 13  1  0
 29 19  2  0
 29 24  1  0
  3 32  1  0
  4 33  1  0
  4 34  1  0
  5 35  1  0
  5 36  1  0
  7 37  1  0
  8 38  1  0
 11 39  1  0
 12 40  1  0
 13 41  1  0
 14 42  1  0
 14 43  1  0
 15 44  1  0
 15 45  1  0
 16 46  1  0
 17 47  1  0
 17 48  1  0
 18 49  1  0
 20 50  1  0
 25 51  1  0
 26 52  1  0
 27 53  1  0
 28 54  1  0
 30 55  1  0
 30 56  1  0
 31 57  1  0
 31 58  1  0
M  END
$$$$
