
     RDKit          3D

 40 42  0  0  0  0  0  0  0  0999 V2000
    1.0573    1.6491    0.7973 O   0  0  0  0  0  0  0  0  0  0  0  0
    0.5443    0.6601    0.2674 C   0  0  0  0  0  0  0  0  0  0  0  0
    1.2360   -0.4170   -0.2623 N   0  0  0  0  0  0  0  0  0  0  0  0
    2.5843   -0.6446   -0.1516 N   0  0  0  0  0  0  0  0  0  0  0  0
    3.3876    0.3707   -0.1632 C   0  0  0  0  0  0  0  0  0  0  0  0
    4.8459    0.2004    0.0024 C   0  0  0  0  0  0  0  0  0  0  0  0
    5.6632    1.3374   -0.0183 C   0  0  0  0  0  0  0  0  0  0  0  0
    7.0454    1.2042    0.1362 C   0  0  0  0  0  0  0  0  0  0  0  0
    7.6048   -0.0614    0.3107 C   0  0  0  0  0  0  0  0  0  0  0  0
    6.7805   -1.1829    0.3304 C   0  0  0  0  0  0  0  0  0  0  0  0
    7.3259   -2.3946    0.4990 F   0  0  0  0  0  0  0  0  0  0  0  0
    5.4045   -1.0671    0.1784 C   0  0  0  0  0  0  0  0  0  0  0  0
   -0.9435    0.5664    0.1759 C   0  0  0  0  0  0  0  0  0  0  0  0
   -1.7158    1.5882    0.6052 C   0  0  0  0  0  0  0  0  0  0  0  0
   -1.2327    2.7557    1.1499 O   0  0  0  0  0  0  0  0  0  0  0  0
   -3.0800    1.5508    0.5317 N   0  0  0  0  0  0  0  0  0  0  0  0
   -3.7910    0.4903    0.0294 C   0  0  0  0  0  0  0  0  0  0  0  0
   -3.1598   -0.6070   -0.4278 C   0  0  0  0  0  0  0  0  0  0  0  0
   -1.6635   -0.6229   -0.3748 C   0  0  0  0  0  0  0  0  0  0  0  0
   -1.0390   -1.6045   -0.7769 O   0  0  0  0  0  0  0  0  0  0  0  0
   -3.8589   -1.8179   -0.9717 C   0  0  0  0  0  0  0  0  0  0  0  0
   -5.3598   -1.8213   -0.6711 C   0  0  0  0  0  0  0  0  0  0  0  0
   -5.9693   -0.4406   -0.8896 C   0  0  0  0  0  0  0  0  0  0  0  0
   -5.2961    0.6077    0.0002 C   0  0  0  0  0  0  0  0  0  0  0  0
    0.6984   -1.2519   -0.5191 H   0  0  0  0  0  0  0  0  0  0  0  0
    3.0433    1.4053   -0.3276 H   0  0  0  0  0  0  0  0  0  0  0  0
    5.2344    2.3280   -0.1507 H   0  0  0  0  0  0  0  0  0  0  0  0
    7.6838    2.0842    0.1218 H   0  0  0  0  0  0  0  0  0  0  0  0
    8.6768   -0.1828    0.4326 H   0  0  0  0  0  0  0  0  0  0  0  0
    4.7867   -1.9594    0.1987 H   0  0  0  0  0  0  0  0  0  0  0  0
   -0.2522    2.6891    1.1984 H   0  0  0  0  0  0  0  0  0  0  0  0
   -3.5655    2.3715    0.8808 H   0  0  0  0  0  0  0  0  0  0  0  0
   -3.4208   -2.7332   -0.5569 H   0  0  0  0  0  0  0  0  0  0  0  0
   -3.7072   -1.8493   -2.0578 H   0  0  0  0  0  0  0  0  0  0  0  0
   -5.5256   -2.1312    0.3687 H   0  0  0  0  0  0  0  0  0  0  0  0
   -5.8612   -2.5598   -1.3067 H   0  0  0  0  0  0  0  0  0  0  0  0
   -5.8575   -0.1555   -1.9435 H   0  0  0  0  0  0  0  0  0  0  0  0
   -7.0444   -0.4662   -0.6790 H   0  0  0  0  0  0  0  0  0  0  0  0
   -5.6711    0.5082    1.0267 H   0  0  0  0  0  0  0  0  0  0  0  0
   -5.5884    1.6040   -0.3532 H   0  0  0  0  0  0  0  0  0  0  0  0
  1  2  2  0
  2  3  1  0
  3  4  1  0
  4  5  2  3
  5  6  1  0
  6  7  2  0
  7  8  1  0
  8  9  2  0
  9 10  1  0
 10 11  1  0
 10 12  2  0
  2 13  1  0
 13 14  2  0
 14 15  1  0
 14 16  1  0
 16 17  1  0
 17 18  2  0
 18 19  1  0
 19 20  2  0
 18 21  1  0
 21 22  1  0
 22 23  1  0
 23 24  1  0
 12  6  1  0
 19 13  1  0
 24 17  1  0
  3 25  1  0
  5 26  1  0
  7 27  1  0
  8 28  1  0
  9 29  1  0
 12 30  1  0
 15 31  1  0
 16 32  1  0
 21 33  1  0
 21 34  1  0
 22 35  1  0
 22 36  1  0
 23 37  1  0
 23 38  1  0
 24 39  1  0
 24 40  1  0
M  END
$$$$
