
     RDKit          3D

 59 60  0  0  0  0  0  0  0  0999 V2000
    6.7161   -0.6442   -1.8540 C   0  0  0  0  0  0  0  0  0  0  0  0
    6.2170    0.2635   -2.9780 C   0  0  0  0  0  0  0  0  0  0  0  0
    6.1241   -0.5138   -4.2910 C   0  0  0  0  0  0  0  0  0  0  0  0
    4.8949    0.9665   -2.6203 C   0  0  0  0  0  0  0  0  0  0  0  0
    3.7061    0.0379   -2.3808 C   0  0  0  0  0  0  0  0  0  0  0  0
    2.5116    0.7943   -2.0643 N   0  0  0  0  0  0  0  0  0  0  0  0
    1.4020    0.1814   -1.5091 C   0  0  0  0  0  0  0  0  0  0  0  0
    1.4350   -0.9786   -1.1087 O   0  0  0  0  0  0  0  0  0  0  0  0
    0.2332    1.0236   -1.4311 C   0  0  0  0  0  0  0  0  0  0  0  0
    0.3763    2.3646   -1.6287 O   0  0  0  0  0  0  0  0  0  0  0  0
   -0.8356    2.9986   -1.4489 N   0  0  0  0  0  0  0  0  0  0  0  0
   -1.7144    2.0319   -1.1405 C   0  0  0  0  0  0  0  0  0  0  0  0
   -3.1433    2.3926   -0.9103 C   0  0  0  0  0  0  0  0  0  0  0  0
   -3.7575    2.2159    0.7977 S   0  0  0  0  0  0  0  0  0  0  0  0
   -2.2980    2.6214    1.7210 C   0  0  0  0  0  0  0  0  0  0  0  0
   -1.9834    3.9375    2.0282 C   0  0  0  0  0  0  0  0  0  0  0  0
   -0.8156    4.1892    2.7426 C   0  0  0  0  0  0  0  0  0  0  0  0
   -0.0084    3.1247    3.1273 C   0  0  0  0  0  0  0  0  0  0  0  0
   -0.4045    1.8436    2.7819 C   0  0  0  0  0  0  0  0  0  0  0  0
   -1.5309    1.5653    2.0887 N   0  0  0  0  0  0  0  0  0  0  0  0
   -1.0875    0.7562   -1.1392 C   0  0  0  0  0  0  0  0  0  0  0  0
   -1.6405   -0.5552   -0.9151 C   0  0  0  0  0  0  0  0  0  0  0  0
   -1.6103   -1.4244   -1.7767 O   0  0  0  0  0  0  0  0  0  0  0  0
   -2.2010   -0.7168    0.3284 N   0  0  0  0  0  0  0  0  0  0  0  0
   -2.6184   -2.0187    0.7997 C   0  0  0  0  0  0  0  0  0  0  0  0
   -3.5832   -1.8924    1.9766 C   0  0  0  0  0  0  0  0  0  0  0  0
   -3.9442   -3.2423    2.6212 C   0  0  0  0  0  0  0  0  0  0  0  0
   -4.8054   -3.0097    3.8648 C   0  0  0  0  0  0  0  0  0  0  0  0
   -4.6748   -4.1750    1.6544 C   0  0  0  0  0  0  0  0  0  0  0  0
    6.0659   -1.5134   -1.7130 H   0  0  0  0  0  0  0  0  0  0  0  0
    7.7208   -1.0172   -2.0807 H   0  0  0  0  0  0  0  0  0  0  0  0
    6.7692   -0.0985   -0.9064 H   0  0  0  0  0  0  0  0  0  0  0  0
    6.9677    1.0526   -3.1181 H   0  0  0  0  0  0  0  0  0  0  0  0
    5.4570   -1.3777   -4.2071 H   0  0  0  0  0  0  0  0  0  0  0  0
    5.7547    0.1270   -5.0982 H   0  0  0  0  0  0  0  0  0  0  0  0
    7.1109   -0.8861   -4.5868 H   0  0  0  0  0  0  0  0  0  0  0  0
    4.6420    1.6711   -3.4236 H   0  0  0  0  0  0  0  0  0  0  0  0
    5.0520    1.5815   -1.7244 H   0  0  0  0  0  0  0  0  0  0  0  0
    3.9063   -0.6544   -1.5572 H   0  0  0  0  0  0  0  0  0  0  0  0
    3.4790   -0.5543   -3.2728 H   0  0  0  0  0  0  0  0  0  0  0  0
    2.3615    1.6854   -2.5228 H   0  0  0  0  0  0  0  0  0  0  0  0
   -3.7797    1.7758   -1.5547 H   0  0  0  0  0  0  0  0  0  0  0  0
   -3.3182    3.4332   -1.2080 H   0  0  0  0  0  0  0  0  0  0  0  0
   -2.6229    4.7559    1.7163 H   0  0  0  0  0  0  0  0  0  0  0  0
   -0.5364    5.2091    2.9933 H   0  0  0  0  0  0  0  0  0  0  0  0
    0.9087    3.2895    3.6823 H   0  0  0  0  0  0  0  0  0  0  0  0
    0.1941    0.9810    3.0618 H   0  0  0  0  0  0  0  0  0  0  0  0
   -2.0002    0.0009    1.0281 H   0  0  0  0  0  0  0  0  0  0  0  0
   -1.7138   -2.5607    1.0960 H   0  0  0  0  0  0  0  0  0  0  0  0
   -3.0792   -2.5603   -0.0322 H   0  0  0  0  0  0  0  0  0  0  0  0
   -4.4946   -1.3783    1.6452 H   0  0  0  0  0  0  0  0  0  0  0  0
   -3.1290   -1.2454    2.7390 H   0  0  0  0  0  0  0  0  0  0  0  0
   -3.0188   -3.7370    2.9418 H   0  0  0  0  0  0  0  0  0  0  0  0
   -5.0385   -3.9583    4.3599 H   0  0  0  0  0  0  0  0  0  0  0  0
   -4.2811   -2.3771    4.5890 H   0  0  0  0  0  0  0  0  0  0  0  0
   -5.7509   -2.5200    3.6078 H   0  0  0  0  0  0  0  0  0  0  0  0
   -4.9774   -5.0983    2.1604 H   0  0  0  0  0  0  0  0  0  0  0  0
   -4.0331   -4.4621    0.8161 H   0  0  0  0  0  0  0  0  0  0  0  0
   -5.5753   -3.7014    1.2497 H   0  0  0  0  0  0  0  0  0  0  0  0
  1  2  1  0
  2  3  1  0
  2  4  1  0
  4  5  1  0
  5  6  1  0
  6  7  1  0
  7  8  2  0
  7  9  1  0
  9 10  1  0
 10 11  1  0
 11 12  2  0
 12 13  1  0
 13 14  1  0
 14 15  1  0
 15 16  2  0
 16 17  1  0
 17 18  2  0
 18 19  1  0
 19 20  2  0
 12 21  1  0
 21 22  1  0
 22 23  2  0
 22 24  1  0
 24 25  1  0
 25 26  1  0
 26 27  1  0
 27 28  1  0
 27 29  1  0
 21  9  2  0
 20 15  1  0
  1 30  1  0
  1 31  1  0
  1 32  1  0
  2 33  1  0
  3 34  1  0
  3 35  1  0
  3 36  1  0
  4 37  1  0
  4 38  1  0
  5 39  1  0
  5 40  1  0
  6 41  1  0
 13 42  1  0
 13 43  1  0
 16 44  1  0
 17 45  1  0
 18 46  1  0
 19 47  1  0
 24 48  1  0
 25 49  1  0
 25 50  1  0
 26 51  1  0
 26 52  1  0
 27 53  1  0
 28 54  1  0
 28 55  1  0
 28 56  1  0
 29 57  1  0
 29 58  1  0
 29 59  1  0
M  END
$$$$
