
     RDKit          3D

 60 63  0  0  0  0  0  0  0  0999 V2000
   -6.4142    2.5636    2.2487 C   0  0  0  0  0  0  0  0  0  0  0  0
   -6.2258    2.3937    0.7426 C   0  0  0  0  0  0  0  0  0  0  0  0
   -7.4188    2.9883   -0.0033 C   0  0  0  0  0  0  0  0  0  0  0  0
   -6.1864    1.0013    0.4130 O   0  0  0  0  0  0  0  0  0  0  0  0
   -4.9801    0.3645    0.3611 C   0  0  0  0  0  0  0  0  0  0  0  0
   -3.7621    0.8572    0.8180 C   0  0  0  0  0  0  0  0  0  0  0  0
   -2.5946    0.0869    0.6971 C   0  0  0  0  0  0  0  0  0  0  0  0
   -2.6110   -1.1947    0.1171 C   0  0  0  0  0  0  0  0  0  0  0  0
   -1.3875   -2.0117   -0.0383 C   0  0  0  0  0  0  0  0  0  0  0  0
   -0.1272   -1.4634   -0.2047 C   0  0  0  0  0  0  0  0  0  0  0  0
    0.9620   -2.3239   -0.3637 C   0  0  0  0  0  0  0  0  0  0  0  0
    2.2949   -1.7055   -0.5460 C   0  0  0  0  0  0  0  0  0  0  0  0
    2.9746   -1.9641   -1.5288 O   0  0  0  0  0  0  0  0  0  0  0  0
    2.6740   -0.8435    0.4613 N   0  0  0  0  0  0  0  0  0  0  0  0
    3.9965   -0.2377    0.4847 C   0  0  0  0  0  0  0  0  0  0  0  0
    4.1552    0.8858   -0.5607 C   0  0  0  0  0  0  0  0  0  0  0  0
    5.4466    1.5919   -0.4564 N   0  0  0  0  0  0  0  0  0  0  0  0
    5.7429    2.3534   -1.6934 C   0  0  0  0  0  0  0  0  0  0  0  0
    4.9018    3.6315   -1.8565 C   0  0  0  0  0  0  0  0  0  0  0  0
    5.0490    4.5003   -0.7259 O   0  0  0  0  0  0  0  0  0  0  0  0
    4.6864    3.8250    0.4842 C   0  0  0  0  0  0  0  0  0  0  0  0
    5.5065    2.5364    0.6824 C   0  0  0  0  0  0  0  0  0  0  0  0
    0.7927   -3.7234   -0.3720 C   0  0  0  0  0  0  0  0  0  0  0  0
    1.8362   -4.6704   -0.5320 C   0  0  0  0  0  0  0  0  0  0  0  0
    1.5740   -6.0391   -0.5179 C   0  0  0  0  0  0  0  0  0  0  0  0
    0.2712   -6.4815   -0.3416 C   0  0  0  0  0  0  0  0  0  0  0  0
   -0.7587   -5.5514   -0.1817 C   0  0  0  0  0  0  0  0  0  0  0  0
   -0.5237   -4.1826   -0.1932 C   0  0  0  0  0  0  0  0  0  0  0  0
   -1.5708   -3.3549   -0.0294 N   0  0  0  0  0  0  0  0  0  0  0  0
   -3.8572   -1.6799   -0.3149 C   0  0  0  0  0  0  0  0  0  0  0  0
   -5.0217   -0.9133   -0.1937 C   0  0  0  0  0  0  0  0  0  0  0  0
   -5.5718    2.1385    2.8035 H   0  0  0  0  0  0  0  0  0  0  0  0
   -6.5052    3.6209    2.5181 H   0  0  0  0  0  0  0  0  0  0  0  0
   -7.3113    2.0355    2.5930 H   0  0  0  0  0  0  0  0  0  0  0  0
   -5.3304    2.9232    0.3954 H   0  0  0  0  0  0  0  0  0  0  0  0
   -7.5225    4.0577    0.2037 H   0  0  0  0  0  0  0  0  0  0  0  0
   -8.3504    2.4829    0.2761 H   0  0  0  0  0  0  0  0  0  0  0  0
   -7.2987    2.8529   -1.0839 H   0  0  0  0  0  0  0  0  0  0  0  0
   -3.6790    1.8321    1.2868 H   0  0  0  0  0  0  0  0  0  0  0  0
   -1.6707    0.5078    1.0863 H   0  0  0  0  0  0  0  0  0  0  0  0
    0.0158   -0.3896   -0.2547 H   0  0  0  0  0  0  0  0  0  0  0  0
    2.1280   -0.8206    1.3131 H   0  0  0  0  0  0  0  0  0  0  0  0
    4.1341    0.1433    1.5012 H   0  0  0  0  0  0  0  0  0  0  0  0
    4.7418   -1.0239    0.3122 H   0  0  0  0  0  0  0  0  0  0  0  0
    3.3066    1.5768   -0.4927 H   0  0  0  0  0  0  0  0  0  0  0  0
    4.0828    0.4189   -1.5511 H   0  0  0  0  0  0  0  0  0  0  0  0
    5.6362    1.7131   -2.5776 H   0  0  0  0  0  0  0  0  0  0  0  0
    6.8025    2.6387   -1.6538 H   0  0  0  0  0  0  0  0  0  0  0  0
    5.2402    4.1838   -2.7395 H   0  0  0  0  0  0  0  0  0  0  0  0
    3.8397    3.4016   -1.9989 H   0  0  0  0  0  0  0  0  0  0  0  0
    3.6096    3.6228    0.4743 H   0  0  0  0  0  0  0  0  0  0  0  0
    4.8802    4.5134    1.3135 H   0  0  0  0  0  0  0  0  0  0  0  0
    6.5597    2.8201    0.8092 H   0  0  0  0  0  0  0  0  0  0  0  0
    5.2159    2.0497    1.6191 H   0  0  0  0  0  0  0  0  0  0  0  0
    2.8646   -4.3442   -0.6803 H   0  0  0  0  0  0  0  0  0  0  0  0
    2.3846   -6.7516   -0.6492 H   0  0  0  0  0  0  0  0  0  0  0  0
    0.0490   -7.5455   -0.3309 H   0  0  0  0  0  0  0  0  0  0  0  0
   -1.7783   -5.9064   -0.0452 H   0  0  0  0  0  0  0  0  0  0  0  0
   -3.9300   -2.6715   -0.7607 H   0  0  0  0  0  0  0  0  0  0  0  0
   -5.9675   -1.3193   -0.5427 H   0  0  0  0  0  0  0  0  0  0  0  0
  1  2  1  0
  2  3  1  0
  2  4  1  0
  4  5  1  0
  5  6  2  0
  6  7  1  0
  7  8  2  0
  8  9  1  0
  9 10  2  0
 10 11  1  0
 11 12  1  0
 12 13  2  0
 12 14  1  0
 14 15  1  0
 15 16  1  0
 16 17  1  0
 17 18  1  0
 18 19  1  0
 19 20  1  0
 20 21  1  0
 21 22  1  0
 11 23  2  0
 23 24  1  0
 24 25  2  0
 25 26  1  0
 26 27  2  0
 27 28  1  0
 28 29  2  0
  8 30  1  0
 30 31  2  0
 31  5  1  0
 29  9  1  0
 22 17  1  0
 28 23  1  0
  1 32  1  0
  1 33  1  0
  1 34  1  0
  2 35  1  0
  3 36  1  0
  3 37  1  0
  3 38  1  0
  6 39  1  0
  7 40  1  0
 10 41  1  0
 14 42  1  0
 15 43  1  0
 15 44  1  0
 16 45  1  0
 16 46  1  0
 18 47  1  0
 18 48  1  0
 19 49  1  0
 19 50  1  0
 21 51  1  0
 21 52  1  0
 22 53  1  0
 22 54  1  0
 24 55  1  0
 25 56  1  0
 26 57  1  0
 27 58  1  0
 30 59  1  0
 31 60  1  0
M  END
$$$$
