
     RDKit          3D

 67 69  0  0  0  0  0  0  0  0999 V2000
   -4.7452    0.2740   -1.8630 C   0  0  0  0  0  0  0  0  0  0  0  0
   -3.5741    0.4029   -2.8493 C   0  0  0  0  0  0  0  0  0  0  0  0
   -3.7814   -0.5500   -4.0402 C   0  0  0  0  0  0  0  0  0  0  0  0
   -3.5472    1.8453   -3.3913 C   0  0  0  0  0  0  0  0  0  0  0  0
   -2.2838    0.1484   -2.1858 N   0  0  0  0  0  0  0  0  0  0  0  0
   -1.8954   -1.0687   -1.6341 C   0  0  0  0  0  0  0  0  0  0  0  0
   -2.6280   -2.0530   -1.6291 O   0  0  0  0  0  0  0  0  0  0  0  0
   -0.4590   -1.0305   -1.0272 C   0  0  0  0  0  0  0  0  0  0  0  0
    0.3544   -2.3283   -0.9945 C   0  0  0  0  0  0  0  0  0  0  0  0
    0.0158   -3.4544   -1.7665 C   0  0  0  0  0  0  0  0  0  0  0  0
    0.7966   -4.6133   -1.7302 C   0  0  0  0  0  0  0  0  0  0  0  0
    1.9409   -4.6491   -0.9457 C   0  0  0  0  0  0  0  0  0  0  0  0
    2.6849   -5.7622   -0.9090 F   0  0  0  0  0  0  0  0  0  0  0  0
    2.3243   -3.5445   -0.2011 C   0  0  0  0  0  0  0  0  0  0  0  0
    1.5424   -2.3885   -0.2322 C   0  0  0  0  0  0  0  0  0  0  0  0
   -0.4743   -0.3045    0.2756 N   0  0  0  0  0  0  0  0  0  0  0  0
    0.1178    0.9491    0.4608 C   0  0  0  0  0  0  0  0  0  0  0  0
   -0.0998    1.6295    1.4656 O   0  0  0  0  0  0  0  0  0  0  0  0
    1.0300    1.4831   -0.6349 C   0  0  0  0  0  0  0  0  0  0  0  0
    1.8635    2.6658   -0.1438 C   0  0  0  0  0  0  0  0  0  0  0  0
    3.0263    2.2063    0.7242 C   0  0  0  0  0  0  0  0  0  0  0  0
    3.4004    1.0374    0.7352 O   0  0  0  0  0  0  0  0  0  0  0  0
    3.5969    3.2519    1.4107 N   0  0  0  0  0  0  0  0  0  0  0  0
    4.7066    3.2318    2.2553 C   0  0  0  0  0  0  0  0  0  0  0  0
    5.5145    2.1233    2.4615 C   0  0  0  0  0  0  0  0  0  0  0  0
    6.6094    2.2410    3.3162 C   0  0  0  0  0  0  0  0  0  0  0  0
    6.8603    3.4545    3.9412 C   0  0  0  0  0  0  0  0  0  0  0  0
    6.0055    4.5076    3.6773 C   0  0  0  0  0  0  0  0  0  0  0  0
    4.9449    4.4249    2.8423 N   0  0  0  0  0  0  0  0  0  0  0  0
   -1.2768   -0.8120    1.4086 C   0  0  0  0  0  0  0  0  0  0  0  0
   -1.5185   -2.3223    1.5373 C   0  0  0  0  0  0  0  0  0  0  0  0
   -2.7371   -2.4010    2.4457 C   0  0  0  0  0  0  0  0  0  0  0  0
   -3.6306   -1.2987    1.8999 C   0  0  0  0  0  0  0  0  0  0  0  0
   -2.6742   -0.1684    1.5172 C   0  0  0  0  0  0  0  0  0  0  0  0
   -5.6980    0.5154   -2.3469 H   0  0  0  0  0  0  0  0  0  0  0  0
   -4.8304   -0.7393   -1.4598 H   0  0  0  0  0  0  0  0  0  0  0  0
   -4.6227    0.9567   -1.0155 H   0  0  0  0  0  0  0  0  0  0  0  0
   -3.8861   -1.5909   -3.7192 H   0  0  0  0  0  0  0  0  0  0  0  0
   -4.6885   -0.2924   -4.5988 H   0  0  0  0  0  0  0  0  0  0  0  0
   -2.9348   -0.5027   -4.7344 H   0  0  0  0  0  0  0  0  0  0  0  0
   -2.7183    1.9847   -4.0958 H   0  0  0  0  0  0  0  0  0  0  0  0
   -4.4782    2.0975   -3.9113 H   0  0  0  0  0  0  0  0  0  0  0  0
   -3.4093    2.5706   -2.5805 H   0  0  0  0  0  0  0  0  0  0  0  0
   -1.7729    0.9636   -1.8698 H   0  0  0  0  0  0  0  0  0  0  0  0
    0.0949   -0.4320   -1.7584 H   0  0  0  0  0  0  0  0  0  0  0  0
   -0.8681   -3.4626   -2.4011 H   0  0  0  0  0  0  0  0  0  0  0  0
    0.5160   -5.4859   -2.3112 H   0  0  0  0  0  0  0  0  0  0  0  0
    3.2291   -3.5839    0.3976 H   0  0  0  0  0  0  0  0  0  0  0  0
    1.8711   -1.5339    0.3586 H   0  0  0  0  0  0  0  0  0  0  0  0
    0.3917    1.8223   -1.4570 H   0  0  0  0  0  0  0  0  0  0  0  0
    1.6879    0.6899   -1.0005 H   0  0  0  0  0  0  0  0  0  0  0  0
    1.2492    3.3902    0.4058 H   0  0  0  0  0  0  0  0  0  0  0  0
    2.2959    3.1837   -1.0094 H   0  0  0  0  0  0  0  0  0  0  0  0
    3.1552    4.1617    1.3930 H   0  0  0  0  0  0  0  0  0  0  0  0
    5.3210    1.1715    1.9824 H   0  0  0  0  0  0  0  0  0  0  0  0
    7.2539    1.3846    3.4988 H   0  0  0  0  0  0  0  0  0  0  0  0
    7.6987    3.5743    4.6169 H   0  0  0  0  0  0  0  0  0  0  0  0
    6.1565    5.4778    4.1421 H   0  0  0  0  0  0  0  0  0  0  0  0
   -0.7303   -0.5225    2.3180 H   0  0  0  0  0  0  0  0  0  0  0  0
   -0.6514   -2.8423    1.9606 H   0  0  0  0  0  0  0  0  0  0  0  0
   -1.7676   -2.8015    0.5890 H   0  0  0  0  0  0  0  0  0  0  0  0
   -2.4558   -2.1891    3.4844 H   0  0  0  0  0  0  0  0  0  0  0  0
   -3.2189   -3.3830    2.4094 H   0  0  0  0  0  0  0  0  0  0  0  0
   -4.3841   -0.9746    2.6218 H   0  0  0  0  0  0  0  0  0  0  0  0
   -4.1537   -1.6562    1.0049 H   0  0  0  0  0  0  0  0  0  0  0  0
   -2.9935    0.3178    0.5937 H   0  0  0  0  0  0  0  0  0  0  0  0
   -2.6694    0.6033    2.2956 H   0  0  0  0  0  0  0  0  0  0  0  0
  1  2  1  0
  2  3  1  0
  2  4  1  0
  2  5  1  0
  5  6  1  0
  6  7  2  0
  6  8  1  0
  8  9  1  0
  9 10  2  0
 10 11  1  0
 11 12  2  0
 12 13  1  0
 12 14  1  0
 14 15  2  0
  8 16  1  0
 16 17  1  0
 17 18  2  0
 17 19  1  0
 19 20  1  0
 20 21  1  0
 21 22  2  0
 21 23  1  0
 23 24  1  0
 24 25  2  0
 25 26  1  0
 26 27  2  0
 27 28  1  0
 28 29  2  0
 16 30  1  0
 30 31  1  0
 31 32  1  0
 32 33  1  0
 33 34  1  0
 15  9  1  0
 29 24  1  0
 34 30  1  0
  1 35  1  0
  1 36  1  0
  1 37  1  0
  3 38  1  0
  3 39  1  0
  3 40  1  0
  4 41  1  0
  4 42  1  0
  4 43  1  0
  5 44  1  0
  8 45  1  0
 10 46  1  0
 11 47  1  0
 14 48  1  0
 15 49  1  0
 19 50  1  0
 19 51  1  0
 20 52  1  0
 20 53  1  0
 23 54  1  0
 25 55  1  0
 26 56  1  0
 27 57  1  0
 28 58  1  0
 30 59  1  0
 31 60  1  0
 31 61  1  0
 32 62  1  0
 32 63  1  0
 33 64  1  0
 33 65  1  0
 34 66  1  0
 34 67  1  0
M  END
$$$$
