
     RDKit          3D

 46 48  0  0  0  0  0  0  0  0999 V2000
   -1.5968    0.3783   -3.5381 N   0  0  0  0  0  0  0  0  0  0  0  0
   -0.4725    0.0066   -2.8965 C   0  0  0  0  0  0  0  0  0  0  0  0
    0.7039   -0.0037   -3.4443 N   0  0  0  0  0  0  0  0  0  0  0  0
    1.5794   -0.5231   -2.3576 C   0  0  0  0  0  0  0  0  0  0  0  0
    0.7757   -0.3649   -1.0518 C   0  0  0  0  0  0  0  0  0  0  0  0
    1.1051    0.9619   -0.3376 C   0  0  0  0  0  0  0  0  0  0  0  0
    2.4168    0.9163    0.4129 C   0  0  0  0  0  0  0  0  0  0  0  0
    2.5280    0.1956    1.6113 C   0  0  0  0  0  0  0  0  0  0  0  0
    3.7473    0.1300    2.2920 C   0  0  0  0  0  0  0  0  0  0  0  0
    4.8557    0.7895    1.7732 C   0  0  0  0  0  0  0  0  0  0  0  0
    6.0674    0.7454    2.3986 O   0  0  0  0  0  0  0  0  0  0  0  0
    4.7616    1.5166    0.5926 C   0  0  0  0  0  0  0  0  0  0  0  0
    3.5440    1.5824   -0.0862 C   0  0  0  0  0  0  0  0  0  0  0  0
   -0.6040   -0.3122   -1.5724 N   0  0  0  0  0  0  0  0  0  0  0  0
   -1.4912   -1.4271   -1.2071 C   0  0  0  0  0  0  0  0  0  0  0  0
   -2.3475   -1.1452    0.0407 C   0  0  0  0  0  0  0  0  0  0  0  0
   -3.1168    0.1813   -0.0528 C   0  0  0  0  0  0  0  0  0  0  0  0
   -4.0162    0.3921    1.1643 C   0  0  0  0  0  0  0  0  0  0  0  0
   -3.2275    0.3014    2.4667 C   0  0  0  0  0  0  0  0  0  0  0  0
   -2.4493   -1.0092    2.5677 C   0  0  0  0  0  0  0  0  0  0  0  0
   -1.5515   -1.2282    1.3512 C   0  0  0  0  0  0  0  0  0  0  0  0
   -2.1941    0.9515   -2.9562 H   0  0  0  0  0  0  0  0  0  0  0  0
   -1.3746    0.8320   -4.4189 H   0  0  0  0  0  0  0  0  0  0  0  0
    2.5342    0.0089   -2.3502 H   0  0  0  0  0  0  0  0  0  0  0  0
    1.7808   -1.5825   -2.5588 H   0  0  0  0  0  0  0  0  0  0  0  0
    0.9454   -1.2191   -0.3897 H   0  0  0  0  0  0  0  0  0  0  0  0
    1.1135    1.7932   -1.0559 H   0  0  0  0  0  0  0  0  0  0  0  0
    0.3125    1.2181    0.3776 H   0  0  0  0  0  0  0  0  0  0  0  0
    1.6645   -0.3202    2.0247 H   0  0  0  0  0  0  0  0  0  0  0  0
    3.8106   -0.4339    3.2192 H   0  0  0  0  0  0  0  0  0  0  0  0
    5.9858    0.1951    3.1959 H   0  0  0  0  0  0  0  0  0  0  0  0
    5.6348    2.0295    0.2007 H   0  0  0  0  0  0  0  0  0  0  0  0
    3.4847    2.1537   -1.0101 H   0  0  0  0  0  0  0  0  0  0  0  0
   -0.9116   -2.3498   -1.0678 H   0  0  0  0  0  0  0  0  0  0  0  0
   -2.1806   -1.6415   -2.0348 H   0  0  0  0  0  0  0  0  0  0  0  0
   -3.0937   -1.9523    0.0799 H   0  0  0  0  0  0  0  0  0  0  0  0
   -2.4173    1.0228   -0.1239 H   0  0  0  0  0  0  0  0  0  0  0  0
   -3.7316    0.1974   -0.9611 H   0  0  0  0  0  0  0  0  0  0  0  0
   -4.8132   -0.3626    1.1645 H   0  0  0  0  0  0  0  0  0  0  0  0
   -4.5048    1.3702    1.0964 H   0  0  0  0  0  0  0  0  0  0  0  0
   -2.5284    1.1455    2.5287 H   0  0  0  0  0  0  0  0  0  0  0  0
   -3.9125    0.3916    3.3175 H   0  0  0  0  0  0  0  0  0  0  0  0
   -3.1529   -1.8466    2.6571 H   0  0  0  0  0  0  0  0  0  0  0  0
   -1.8397   -1.0030    3.4796 H   0  0  0  0  0  0  0  0  0  0  0  0
   -1.0636   -2.2069    1.4311 H   0  0  0  0  0  0  0  0  0  0  0  0
   -0.7598   -0.4750    1.3684 H   0  0  0  0  0  0  0  0  0  0  0  0
  1  2  1  0
  2  3  2  0
  3  4  1  0
  4  5  1  0
  5  6  1  0
  6  7  1  0
  7  8  2  0
  8  9  1  0
  9 10  2  0
 10 11  1  0
 10 12  1  0
 12 13  2  0
  5 14  1  0
 14 15  1  0
 15 16  1  0
 16 17  1  0
 17 18  1  0
 18 19  1  0
 19 20  1  0
 20 21  1  0
 14  2  1  0
 21 16  1  0
 13  7  1  0
  1 22  1  0
  1 23  1  0
  4 24  1  0
  4 25  1  0
  5 26  1  0
  6 27  1  0
  6 28  1  0
  8 29  1  0
  9 30  1  0
 11 31  1  0
 12 32  1  0
 13 33  1  0
 15 34  1  0
 15 35  1  0
 16 36  1  0
 17 37  1  0
 17 38  1  0
 18 39  1  0
 18 40  1  0
 19 41  1  0
 19 42  1  0
 20 43  1  0
 20 44  1  0
 21 45  1  0
 21 46  1  0
M  END
$$$$
