
     RDKit          3D

 43 45  0  0  0  0  0  0  0  0999 V2000
    0.0163   -2.7605   -3.2618 C   0  0  0  0  0  0  0  0  0  0  0  0
    0.2589   -2.7964   -1.7741 C   0  0  0  0  0  0  0  0  0  0  0  0
   -0.1189   -3.7458   -1.0884 O   0  0  0  0  0  0  0  0  0  0  0  0
    0.9596   -1.6348   -1.1678 C   0  0  0  0  0  0  0  0  0  0  0  0
    0.3046   -0.8028   -0.3205 C   0  0  0  0  0  0  0  0  0  0  0  0
   -1.0498   -0.8530    0.0258 N   0  0  0  0  0  0  0  0  0  0  0  0
   -2.1458   -1.1664   -0.9172 C   0  0  0  0  0  0  0  0  0  0  0  0
   -3.4555   -0.4772   -0.4714 C   0  0  0  0  0  0  0  0  0  0  0  0
   -3.9493   -0.9380    0.8438 N   0  0  0  0  0  0  0  0  0  0  0  0
   -4.7390    0.1010    1.4968 C   0  0  0  0  0  0  0  0  0  0  0  0
   -2.8430   -1.4177    1.6974 C   0  0  0  0  0  0  0  0  0  0  0  0
   -1.4789   -0.7397    1.4420 C   0  0  0  0  0  0  0  0  0  0  0  0
    1.0412    0.2165    0.2455 N   0  0  0  0  0  0  0  0  0  0  0  0
    2.3133    0.5296   -0.1499 C   0  0  0  0  0  0  0  0  0  0  0  0
    2.9567    1.7841    0.3532 C   0  0  0  0  0  0  0  0  0  0  0  0
    2.5414    2.3771    1.5526 C   0  0  0  0  0  0  0  0  0  0  0  0
    3.1509    3.5525    1.9994 C   0  0  0  0  0  0  0  0  0  0  0  0
    4.1766    4.1355    1.2559 C   0  0  0  0  0  0  0  0  0  0  0  0
    4.6020    3.5425    0.0682 C   0  0  0  0  0  0  0  0  0  0  0  0
    3.9967    2.3676   -0.3816 C   0  0  0  0  0  0  0  0  0  0  0  0
    2.9841   -0.2209   -0.9688 N   0  0  0  0  0  0  0  0  0  0  0  0
    2.4305   -1.4043   -1.4212 C   0  0  0  0  0  0  0  0  0  0  0  0
    3.4219   -2.5033   -2.2508 S   0  0  0  0  0  0  0  0  0  0  0  0
    0.5714   -3.5698   -3.7426 H   0  0  0  0  0  0  0  0  0  0  0  0
   -1.0538   -2.8818   -3.4515 H   0  0  0  0  0  0  0  0  0  0  0  0
    0.3313   -1.8054   -3.6915 H   0  0  0  0  0  0  0  0  0  0  0  0
   -2.3025   -2.2491   -0.9758 H   0  0  0  0  0  0  0  0  0  0  0  0
   -1.8905   -0.8012   -1.9187 H   0  0  0  0  0  0  0  0  0  0  0  0
   -4.2340   -0.6617   -1.2204 H   0  0  0  0  0  0  0  0  0  0  0  0
   -3.2709    0.6059   -0.4549 H   0  0  0  0  0  0  0  0  0  0  0  0
   -5.1896   -0.2818    2.4191 H   0  0  0  0  0  0  0  0  0  0  0  0
   -5.5662    0.4180    0.8519 H   0  0  0  0  0  0  0  0  0  0  0  0
   -4.1379    0.9823    1.7475 H   0  0  0  0  0  0  0  0  0  0  0  0
   -3.1018   -1.3387    2.7606 H   0  0  0  0  0  0  0  0  0  0  0  0
   -2.7299   -2.4928    1.5040 H   0  0  0  0  0  0  0  0  0  0  0  0
   -0.7311   -1.2080    2.0935 H   0  0  0  0  0  0  0  0  0  0  0  0
   -1.5391    0.3214    1.7123 H   0  0  0  0  0  0  0  0  0  0  0  0
    0.4645    0.9325    0.6646 H   0  0  0  0  0  0  0  0  0  0  0  0
    1.7693    1.9259    2.1678 H   0  0  0  0  0  0  0  0  0  0  0  0
    2.8342    4.0090    2.9341 H   0  0  0  0  0  0  0  0  0  0  0  0
    4.6530    5.0477    1.6073 H   0  0  0  0  0  0  0  0  0  0  0  0
    5.4086    3.9905   -0.5070 H   0  0  0  0  0  0  0  0  0  0  0  0
    4.3406    1.9112   -1.3076 H   0  0  0  0  0  0  0  0  0  0  0  0
  1  2  1  0
  2  3  2  0
  2  4  1  0
  4  5  2  0
  5  6  1  0
  6  7  1  0
  7  8  1  0
  8  9  1  0
  9 10  1  0
  9 11  1  0
 11 12  1  0
  5 13  1  0
 13 14  1  0
 14 15  1  0
 15 16  2  0
 16 17  1  0
 17 18  2  0
 18 19  1  0
 19 20  2  0
 14 21  2  0
 21 22  1  0
 22 23  2  0
 22  4  1  0
 12  6  1  0
 20 15  1  0
  1 24  1  0
  1 25  1  0
  1 26  1  0
  7 27  1  0
  7 28  1  0
  8 29  1  0
  8 30  1  0
 10 31  1  0
 10 32  1  0
 10 33  1  0
 11 34  1  0
 11 35  1  0
 12 36  1  0
 12 37  1  0
 13 38  1  0
 16 39  1  0
 17 40  1  0
 18 41  1  0
 19 42  1  0
 20 43  1  0
M  END
$$$$
