
     RDKit          3D

 34 35  0  0  0  0  0  0  0  0999 V2000
   -1.9610    0.7638    0.8279 C   0  0  0  0  0  0  0  0  0  0  0  0
   -0.8027   -0.0372    0.4395 N   0  0  0  0  0  0  0  0  0  0  0  0
    0.3289   -0.1923    1.2533 C   0  0  0  0  0  0  0  0  0  0  0  0
    1.1589   -1.0777    1.0187 O   0  0  0  0  0  0  0  0  0  0  0  0
    0.5385    0.7372    2.4421 C   0  0  0  0  0  0  0  0  0  0  0  0
    0.9551    2.4209    1.9016 S   0  0  0  0  0  0  0  0  0  0  0  0
    2.4198    2.0261    0.9885 C   0  0  0  0  0  0  0  0  0  0  0  0
    3.4715    1.5544    1.6775 N   0  0  0  0  0  0  0  0  0  0  0  0
    4.5573    1.2336    0.9509 C   0  0  0  0  0  0  0  0  0  0  0  0
    4.6262    1.3763   -0.4143 C   0  0  0  0  0  0  0  0  0  0  0  0
    3.4962    1.8778   -1.0154 C   0  0  0  0  0  0  0  0  0  0  0  0
    2.3806    2.2120   -0.3415 N   0  0  0  0  0  0  0  0  0  0  0  0
   -0.8848   -0.9281   -0.7392 C   0  0  0  0  0  0  0  0  0  0  0  0
   -1.7211   -0.4303   -1.9283 C   0  0  0  0  0  0  0  0  0  0  0  0
   -3.1641   -0.8571   -1.7170 C   0  0  0  0  0  0  0  0  0  0  0  0
   -3.0834   -2.4093   -0.8490 S   0  0  0  0  0  6  0  0  0  0  0  0
   -3.2655   -3.4788   -1.8088 O   0  0  0  0  0  0  0  0  0  0  0  0
   -3.8942   -2.3034    0.3469 O   0  0  0  0  0  0  0  0  0  0  0  0
   -1.3644   -2.3407   -0.3932 C   0  0  0  0  0  0  0  0  0  0  0  0
   -1.7844    1.3810    1.7069 H   0  0  0  0  0  0  0  0  0  0  0  0
   -2.7884    0.0913    1.0641 H   0  0  0  0  0  0  0  0  0  0  0  0
   -2.2349    1.4285    0.0055 H   0  0  0  0  0  0  0  0  0  0  0  0
   -0.3466    0.7424    3.0837 H   0  0  0  0  0  0  0  0  0  0  0  0
    1.3543    0.3398    3.0565 H   0  0  0  0  0  0  0  0  0  0  0  0
    5.3971    0.8440    1.5189 H   0  0  0  0  0  0  0  0  0  0  0  0
    5.5098    1.1108   -0.9773 H   0  0  0  0  0  0  0  0  0  0  0  0
    3.4522    2.0292   -2.0899 H   0  0  0  0  0  0  0  0  0  0  0  0
    0.1475   -1.0143   -1.1049 H   0  0  0  0  0  0  0  0  0  0  0  0
   -1.3508   -0.9221   -2.8378 H   0  0  0  0  0  0  0  0  0  0  0  0
   -1.6329    0.6477   -2.0939 H   0  0  0  0  0  0  0  0  0  0  0  0
   -3.6933   -0.9965   -2.6627 H   0  0  0  0  0  0  0  0  0  0  0  0
   -3.7179   -0.1465   -1.1001 H   0  0  0  0  0  0  0  0  0  0  0  0
   -1.2600   -2.6006    0.6628 H   0  0  0  0  0  0  0  0  0  0  0  0
   -0.8435   -3.0820   -1.0077 H   0  0  0  0  0  0  0  0  0  0  0  0
  1  2  1  0
  2  3  1  0
  3  4  2  0
  3  5  1  0
  5  6  1  0
  6  7  1  0
  7  8  2  0
  8  9  1  0
  9 10  2  0
 10 11  1  0
 11 12  2  0
  2 13  1  0
 13 14  1  0
 14 15  1  0
 15 16  1  0
 16 17  2  0
 16 18  2  0
 16 19  1  0
 12  7  1  0
 19 13  1  0
  1 20  1  0
  1 21  1  0
  1 22  1  0
  5 23  1  0
  5 24  1  0
  9 25  1  0
 10 26  1  0
 11 27  1  0
 13 28  1  0
 14 29  1  0
 14 30  1  0
 15 31  1  0
 15 32  1  0
 19 33  1  0
 19 34  1  0
M  END
$$$$
