
     RDKit          3D

 90 95  0  0  0  0  0  0  0  0999 V2000
    2.8084    3.4676    3.1085 C   0  0  0  0  0  0  0  0  0  0  0  0
    1.6071    3.5162    2.1568 C   0  0  0  0  0  0  0  0  0  0  0  0
    0.3303    3.2234    2.9862 C   0  0  0  0  0  0  0  0  0  0  0  0
   -0.8805    3.8561    2.4487 N   0  0  0  0  0  0  0  0  0  0  0  0
   -1.1589    5.2447    2.8903 C   0  0  0  0  0  0  0  0  0  0  0  0
   -2.0110    5.2824    4.1672 C   0  0  0  0  0  0  0  0  0  0  0  0
   -1.7823    6.1209    1.7778 C   0  0  0  0  0  0  0  0  0  0  0  0
   -1.5281    7.5010    2.0424 O   0  0  0  0  0  0  0  0  0  0  0  0
   -1.8762    3.1318    1.7929 C   0  0  0  0  0  0  0  0  0  0  0  0
   -3.0507    3.5024    1.7593 O   0  0  0  0  0  0  0  0  0  0  0  0
   -1.5386    1.8910    1.0422 C   0  0  0  0  0  0  0  0  0  0  0  0
   -2.5034    0.8729    1.0135 C   0  0  0  0  0  0  0  0  0  0  0  0
   -2.3915   -0.1783    0.1006 C   0  0  0  0  0  0  0  0  0  0  0  0
   -3.4268   -1.1362    0.0440 N   0  0  0  0  0  0  0  0  0  0  0  0
   -4.0184   -1.5017   -1.1665 C   0  0  0  0  0  0  0  0  0  0  0  0
   -3.7516   -0.9898   -2.2531 O   0  0  0  0  0  0  0  0  0  0  0  0
   -4.9671   -2.4767   -0.9537 N   0  0  0  0  0  0  0  0  0  0  0  0
   -6.0680   -2.7802   -1.7998 C   0  0  0  0  0  0  0  0  0  0  0  0
   -6.5668   -1.8012   -2.6860 C   0  0  0  0  0  0  0  0  0  0  0  0
   -7.7282   -2.0354   -3.4203 C   0  0  0  0  0  0  0  0  0  0  0  0
   -8.4053   -3.2464   -3.2786 C   0  0  0  0  0  0  0  0  0  0  0  0
   -7.9192   -4.2533   -2.4284 C   0  0  0  0  0  0  0  0  0  0  0  0
   -8.6143   -5.4696   -2.3232 C   0  0  0  0  0  0  0  0  0  0  0  0
   -8.1563   -6.4974   -1.5006 C   0  0  0  0  0  0  0  0  0  0  0  0
   -6.9928   -6.3190   -0.7680 C   0  0  0  0  0  0  0  0  0  0  0  0
   -6.2908   -5.1132   -0.8557 C   0  0  0  0  0  0  0  0  0  0  0  0
   -6.7351   -4.0386   -1.6719 C   0  0  0  0  0  0  0  0  0  0  0  0
   -1.2789   -0.2559   -0.7428 C   0  0  0  0  0  0  0  0  0  0  0  0
   -0.2848    0.7176   -0.6736 C   0  0  0  0  0  0  0  0  0  0  0  0
   -0.4143    1.7871    0.2169 C   0  0  0  0  0  0  0  0  0  0  0  0
    0.5120    2.7883    0.1414 O   0  0  0  0  0  0  0  0  0  0  0  0
    1.6802    2.5266    0.9606 C   0  0  0  0  0  0  0  0  0  0  0  0
    2.8905    2.6901   -0.0044 C   0  0  0  0  0  0  0  0  0  0  0  0
    4.2489    2.5741    0.5429 N   0  0  0  0  0  0  0  0  0  0  0  0
    5.2482    3.0242   -0.4270 C   0  0  0  0  0  0  0  0  0  0  0  0
    4.5913    1.2976    1.1802 C   0  0  0  0  0  0  0  0  0  0  0  0
    4.8945    0.1136    0.2881 C   0  0  0  0  0  0  0  0  0  0  0  0
    6.2174   -0.1442   -0.1010 C   0  0  0  0  0  0  0  0  0  0  0  0
    6.5396   -1.2869   -0.8397 C   0  0  0  0  0  0  0  0  0  0  0  0
    5.5504   -2.2142   -1.2046 C   0  0  0  0  0  0  0  0  0  0  0  0
    5.9043   -3.4576   -1.9201 C   0  0  0  0  0  0  0  0  0  0  0  0
    5.2184   -3.8675   -3.0783 C   0  0  0  0  0  0  0  0  0  0  0  0
    5.5704   -5.0500   -3.7425 C   0  0  0  0  0  0  0  0  0  0  0  0
    6.6056   -5.8459   -3.2530 C   0  0  0  0  0  0  0  0  0  0  0  0
    7.2966   -5.4586   -2.1080 C   0  0  0  0  0  0  0  0  0  0  0  0
    6.9483   -4.2769   -1.4536 C   0  0  0  0  0  0  0  0  0  0  0  0
    4.2159   -1.9284   -0.8522 C   0  0  0  0  0  0  0  0  0  0  0  0
    3.8910   -0.7815   -0.1122 C   0  0  0  0  0  0  0  0  0  0  0  0
    2.9769    2.4488    3.4651 H   0  0  0  0  0  0  0  0  0  0  0  0
    2.6383    4.1117    3.9876 H   0  0  0  0  0  0  0  0  0  0  0  0
    3.7235    3.8479    2.6511 H   0  0  0  0  0  0  0  0  0  0  0  0
    1.5334    4.5399    1.7686 H   0  0  0  0  0  0  0  0  0  0  0  0
    0.4461    3.5963    4.0115 H   0  0  0  0  0  0  0  0  0  0  0  0
    0.1753    2.1438    3.0952 H   0  0  0  0  0  0  0  0  0  0  0  0
   -0.1861    5.6948    3.1404 H   0  0  0  0  0  0  0  0  0  0  0  0
   -3.0048    4.8615    4.0016 H   0  0  0  0  0  0  0  0  0  0  0  0
   -1.5397    4.7062    4.9664 H   0  0  0  0  0  0  0  0  0  0  0  0
   -2.1389    6.3070    4.5159 H   0  0  0  0  0  0  0  0  0  0  0  0
   -2.8697    5.9846    1.7022 H   0  0  0  0  0  0  0  0  0  0  0  0
   -1.3280    5.8832    0.8103 H   0  0  0  0  0  0  0  0  0  0  0  0
   -2.1307    8.0037    1.4648 H   0  0  0  0  0  0  0  0  0  0  0  0
   -3.3939    0.9713    1.6307 H   0  0  0  0  0  0  0  0  0  0  0  0
   -4.1109   -1.0900    0.7870 H   0  0  0  0  0  0  0  0  0  0  0  0
   -4.7385   -3.1332   -0.2187 H   0  0  0  0  0  0  0  0  0  0  0  0
   -6.0804   -0.8367   -2.7952 H   0  0  0  0  0  0  0  0  0  0  0  0
   -8.1227   -1.2661   -4.0794 H   0  0  0  0  0  0  0  0  0  0  0  0
   -9.3165   -3.3985   -3.8481 H   0  0  0  0  0  0  0  0  0  0  0  0
   -9.5238   -5.6362   -2.8958 H   0  0  0  0  0  0  0  0  0  0  0  0
   -8.7029   -7.4365   -1.4367 H   0  0  0  0  0  0  0  0  0  0  0  0
   -6.6124   -7.1221   -0.1417 H   0  0  0  0  0  0  0  0  0  0  0  0
   -5.3686   -5.0369   -0.2864 H   0  0  0  0  0  0  0  0  0  0  0  0
   -1.1790   -1.0644   -1.4654 H   0  0  0  0  0  0  0  0  0  0  0  0
    0.5561    0.6717   -1.3575 H   0  0  0  0  0  0  0  0  0  0  0  0
    1.6697    1.4980    1.3452 H   0  0  0  0  0  0  0  0  0  0  0  0
    2.7690    1.9838   -0.8415 H   0  0  0  0  0  0  0  0  0  0  0  0
    2.7761    3.6824   -0.4744 H   0  0  0  0  0  0  0  0  0  0  0  0
    6.2470    3.0732    0.0294 H   0  0  0  0  0  0  0  0  0  0  0  0
    5.0178    4.0407   -0.7768 H   0  0  0  0  0  0  0  0  0  0  0  0
    5.3069    2.3801   -1.3134 H   0  0  0  0  0  0  0  0  0  0  0  0
    3.8157    0.9993    1.8950 H   0  0  0  0  0  0  0  0  0  0  0  0
    5.4715    1.4703    1.8201 H   0  0  0  0  0  0  0  0  0  0  0  0
    7.0171    0.5353    0.1907 H   0  0  0  0  0  0  0  0  0  0  0  0
    7.5790   -1.4418   -1.1203 H   0  0  0  0  0  0  0  0  0  0  0  0
    4.4013   -3.2686   -3.4730 H   0  0  0  0  0  0  0  0  0  0  0  0
    5.0340   -5.3510   -4.6367 H   0  0  0  0  0  0  0  0  0  0  0  0
    6.8866   -6.7594   -3.7748 H   0  0  0  0  0  0  0  0  0  0  0  0
    8.1070   -6.0747   -1.7249 H   0  0  0  0  0  0  0  0  0  0  0  0
    7.4972   -4.0023   -0.5501 H   0  0  0  0  0  0  0  0  0  0  0  0
    3.4182   -2.6221   -1.1199 H   0  0  0  0  0  0  0  0  0  0  0  0
    2.8546   -0.6206    0.1742 H   0  0  0  0  0  0  0  0  0  0  0  0
  1  2  1  0
  2  3  1  0
  3  4  1  0
  4  5  1  0
  5  6  1  0
  5  7  1  0
  7  8  1  0
  4  9  1  0
  9 10  2  0
  9 11  1  0
 11 12  2  0
 12 13  1  0
 13 14  1  0
 14 15  1  0
 15 16  2  0
 15 17  1  0
 17 18  1  0
 18 19  2  0
 19 20  1  0
 20 21  2  0
 21 22  1  0
 22 23  2  0
 23 24  1  0
 24 25  2  0
 25 26  1  0
 26 27  2  0
 13 28  2  0
 28 29  1  0
 29 30  2  0
 30 31  1  0
 31 32  1  0
 32 33  1  0
 33 34  1  0
 34 35  1  0
 34 36  1  0
 36 37  1  0
 37 38  2  0
 38 39  1  0
 39 40  2  0
 40 41  1  0
 41 42  2  0
 42 43  1  0
 43 44  2  0
 44 45  1  0
 45 46  2  0
 40 47  1  0
 47 48  2  0
 32  2  1  0
 48 37  1  0
 30 11  1  0
 46 41  1  0
 27 18  1  0
 27 22  1  0
  1 49  1  0
  1 50  1  0
  1 51  1  0
  2 52  1  0
  3 53  1  0
  3 54  1  0
  5 55  1  0
  6 56  1  0
  6 57  1  0
  6 58  1  0
  7 59  1  0
  7 60  1  0
  8 61  1  0
 12 62  1  0
 14 63  1  0
 17 64  1  0
 19 65  1  0
 20 66  1  0
 21 67  1  0
 23 68  1  0
 24 69  1  0
 25 70  1  0
 26 71  1  0
 28 72  1  0
 29 73  1  0
 32 74  1  0
 33 75  1  0
 33 76  1  0
 35 77  1  0
 35 78  1  0
 35 79  1  0
 36 80  1  0
 36 81  1  0
 38 82  1  0
 39 83  1  0
 42 84  1  0
 43 85  1  0
 44 86  1  0
 45 87  1  0
 46 88  1  0
 47 89  1  0
 48 90  1  0
M  END
$$$$
