
     RDKit          3D

 60 63  0  0  0  0  0  0  0  0999 V2000
   -5.7852    3.0076   -1.3386 C   0  0  0  0  0  0  0  0  0  0  0  0
   -4.7483    2.5000   -2.1827 O   0  0  0  0  0  0  0  0  0  0  0  0
   -3.9266    1.6704   -1.4612 C   0  0  0  0  0  0  0  0  0  0  0  0
   -2.7363    2.2093   -0.9619 C   0  0  0  0  0  0  0  0  0  0  0  0
   -1.8559    1.3966   -0.2470 C   0  0  0  0  0  0  0  0  0  0  0  0
   -0.6451    1.8254    0.2458 O   0  0  0  0  0  0  0  0  0  0  0  0
   -0.5201    3.2276    0.4853 C   0  0  0  0  0  0  0  0  0  0  0  0
   -2.1582    0.0295   -0.0398 C   0  0  0  0  0  0  0  0  0  0  0  0
   -1.1630   -0.8344    0.7474 C   0  0  0  0  0  0  0  0  0  0  0  0
    0.0505   -1.1945   -0.1249 C   0  0  0  0  0  0  0  0  0  0  0  0
    1.2908   -1.1685    0.7508 C   0  0  0  0  0  0  0  0  0  0  0  0
    1.3583   -1.8798    1.7476 O   0  0  0  0  0  0  0  0  0  0  0  0
    2.2673   -0.2990    0.2903 N   0  0  0  0  0  0  0  0  0  0  0  0
    3.5358   -0.0357    0.8662 C   0  0  0  0  0  0  0  0  0  0  0  0
    3.9782   -0.6661    2.0336 C   0  0  0  0  0  0  0  0  0  0  0  0
    5.2381   -0.3875    2.5718 C   0  0  0  0  0  0  0  0  0  0  0  0
    6.0831    0.5382    1.9620 C   0  0  0  0  0  0  0  0  0  0  0  0
    7.4463    0.8238    2.5189 C   0  0  0  0  0  0  0  0  0  0  0  0
    5.6551    1.1681    0.7911 C   0  0  0  0  0  0  0  0  0  0  0  0
    4.3878    0.8988    0.2369 C   0  0  0  0  0  0  0  0  0  0  0  0
    4.0045    1.6187   -1.0281 C   0  0  0  0  0  0  0  0  0  0  0  0
   -0.1144   -2.5496   -0.8030 C   0  0  0  0  0  0  0  0  0  0  0  0
    0.7483   -2.8245   -2.0169 C   0  0  0  0  0  0  0  0  0  0  0  0
   -0.9018   -3.5001   -0.3981 N   0  0  0  0  0  0  0  0  0  0  0  0
   -1.6310   -3.2834    0.7240 C   0  0  0  0  0  0  0  0  0  0  0  0
   -2.3578   -4.1249    1.4295 N   0  0  0  0  0  0  0  0  0  0  0  0
   -2.8815   -3.3499    2.4279 C   0  0  0  0  0  0  0  0  0  0  0  0
   -2.5653   -2.0520    2.3752 N   0  0  0  0  0  0  0  0  0  0  0  0
   -1.7620   -2.0419    1.2937 N   0  0  0  0  0  0  0  0  0  0  0  0
   -3.3515   -0.4961   -0.5864 C   0  0  0  0  0  0  0  0  0  0  0  0
   -4.2332    0.3127   -1.3075 C   0  0  0  0  0  0  0  0  0  0  0  0
   -5.4009   -0.1177   -1.8790 O   0  0  0  0  0  0  0  0  0  0  0  0
   -5.6105   -1.5226   -1.9530 C   0  0  0  0  0  0  0  0  0  0  0  0
   -6.5453    3.4627   -1.9858 H   0  0  0  0  0  0  0  0  0  0  0  0
   -5.3817    3.7905   -0.6745 H   0  0  0  0  0  0  0  0  0  0  0  0
   -6.2779    2.2206   -0.7402 H   0  0  0  0  0  0  0  0  0  0  0  0
   -2.5245    3.2559   -1.1621 H   0  0  0  0  0  0  0  0  0  0  0  0
   -1.3668    3.6137    1.0655 H   0  0  0  0  0  0  0  0  0  0  0  0
   -0.4041    3.7748   -0.4586 H   0  0  0  0  0  0  0  0  0  0  0  0
    0.3896    3.3865    1.0714 H   0  0  0  0  0  0  0  0  0  0  0  0
   -0.8587   -0.2558    1.6323 H   0  0  0  0  0  0  0  0  0  0  0  0
    0.1737   -0.4581   -0.9315 H   0  0  0  0  0  0  0  0  0  0  0  0
    2.0496    0.2418   -0.5353 H   0  0  0  0  0  0  0  0  0  0  0  0
    3.3694   -1.3948    2.5597 H   0  0  0  0  0  0  0  0  0  0  0  0
    5.5473   -0.9063    3.4764 H   0  0  0  0  0  0  0  0  0  0  0  0
    7.6292    1.9022    2.5506 H   0  0  0  0  0  0  0  0  0  0  0  0
    7.5475    0.4448    3.5425 H   0  0  0  0  0  0  0  0  0  0  0  0
    8.2113    0.3460    1.8985 H   0  0  0  0  0  0  0  0  0  0  0  0
    6.3205    1.8789    0.3008 H   0  0  0  0  0  0  0  0  0  0  0  0
    3.8707    0.9005   -1.8464 H   0  0  0  0  0  0  0  0  0  0  0  0
    4.7773    2.3331   -1.3395 H   0  0  0  0  0  0  0  0  0  0  0  0
    3.0782    2.1838   -0.8795 H   0  0  0  0  0  0  0  0  0  0  0  0
    0.6861   -1.9816   -2.7151 H   0  0  0  0  0  0  0  0  0  0  0  0
    0.4152   -3.7365   -2.5253 H   0  0  0  0  0  0  0  0  0  0  0  0
    1.7880   -2.9528   -1.7026 H   0  0  0  0  0  0  0  0  0  0  0  0
   -3.5217   -3.7422    3.2077 H   0  0  0  0  0  0  0  0  0  0  0  0
   -3.5979   -1.5430   -0.4310 H   0  0  0  0  0  0  0  0  0  0  0  0
   -5.7877   -1.9461   -0.9579 H   0  0  0  0  0  0  0  0  0  0  0  0
   -4.7745   -2.0241   -2.4542 H   0  0  0  0  0  0  0  0  0  0  0  0
   -6.5081   -1.6932   -2.5548 H   0  0  0  0  0  0  0  0  0  0  0  0
  1  2  1  0
  2  3  1  0
  3  4  2  0
  4  5  1  0
  5  6  1  0
  6  7  1  0
  5  8  2  0
  8  9  1  0
  9 10  1  0
 10 11  1  0
 11 12  2  0
 11 13  1  0
 13 14  1  0
 14 15  2  0
 15 16  1  0
 16 17  2  0
 17 18  1  0
 17 19  1  0
 19 20  2  0
 20 21  1  0
 10 22  1  0
 22 23  1  0
 22 24  2  0
 24 25  1  0
 25 26  2  0
 26 27  1  0
 27 28  2  0
 28 29  1  0
  8 30  1  0
 30 31  2  0
 31 32  1  0
 32 33  1  0
 31  3  1  0
 29  9  1  0
 20 14  1  0
 29 25  1  0
  1 34  1  0
  1 35  1  0
  1 36  1  0
  4 37  1  0
  7 38  1  0
  7 39  1  0
  7 40  1  0
  9 41  1  0
 10 42  1  0
 13 43  1  0
 15 44  1  0
 16 45  1  0
 18 46  1  0
 18 47  1  0
 18 48  1  0
 19 49  1  0
 21 50  1  0
 21 51  1  0
 21 52  1  0
 23 53  1  0
 23 54  1  0
 23 55  1  0
 27 56  1  0
 30 57  1  0
 33 58  1  0
 33 59  1  0
 33 60  1  0
M  END
$$$$
