
     RDKit          3D

 38 39  0  0  0  0  0  0  0  0999 V2000
    7.1329    0.5032   -0.0826 C   0  0  0  0  0  0  0  0  0  0  0  0
    5.6643    0.2208    0.0210 C   0  0  0  0  0  0  0  0  0  0  0  0
    4.7619    0.8149   -0.8638 C   0  0  0  0  0  0  0  0  0  0  0  0
    3.3858    0.5772   -0.7492 C   0  0  0  0  0  0  0  0  0  0  0  0
    2.8735   -0.2515    0.2524 C   0  0  0  0  0  0  0  0  0  0  0  0
    1.5114   -0.5227    0.4269 N   0  0  0  0  0  0  0  0  0  0  0  0
    0.3523   -0.1418   -0.2461 C   0  0  0  0  0  0  0  0  0  0  0  0
    0.3841    0.6771   -1.2807 N   0  0  0  0  0  0  0  0  0  0  0  0
   -0.8058    0.9277   -1.7979 C   0  0  0  0  0  0  0  0  0  0  0  0
   -0.8304    1.9889   -3.1379 Cl  0  0  0  0  0  0  0  0  0  0  0  0
   -1.9807    0.4705   -1.4010 N   0  0  0  0  0  0  0  0  0  0  0  0
   -1.9107   -0.3364   -0.3639 C   0  0  0  0  0  0  0  0  0  0  0  0
   -3.0416   -0.9179    0.1715 N   0  0  0  0  0  0  0  0  0  0  0  0
   -4.3671   -0.2938    0.1061 C   0  0  0  0  0  0  0  0  0  0  0  0
   -5.3031   -1.1638    0.9722 C   0  0  0  0  0  0  0  0  0  0  0  0
   -4.3513    1.1250    0.6927 C   0  0  0  0  0  0  0  0  0  0  0  0
   -4.9215   -0.2952   -1.3260 C   0  0  0  0  0  0  0  0  0  0  0  0
   -0.7738   -0.6635    0.2419 N   0  0  0  0  0  0  0  0  0  0  0  0
    3.7899   -0.8272    1.1474 C   0  0  0  0  0  0  0  0  0  0  0  0
    5.1655   -0.5937    1.0387 C   0  0  0  0  0  0  0  0  0  0  0  0
    7.7208   -0.3474    0.2781 H   0  0  0  0  0  0  0  0  0  0  0  0
    7.3872    1.3863    0.5116 H   0  0  0  0  0  0  0  0  0  0  0  0
    7.4240    0.6807   -1.1233 H   0  0  0  0  0  0  0  0  0  0  0  0
    5.1182    1.4710   -1.6551 H   0  0  0  0  0  0  0  0  0  0  0  0
    2.7316    1.0620   -1.4668 H   0  0  0  0  0  0  0  0  0  0  0  0
    1.2730   -1.1699    1.1644 H   0  0  0  0  0  0  0  0  0  0  0  0
   -2.7807   -1.2836    1.0815 H   0  0  0  0  0  0  0  0  0  0  0  0
   -6.3265   -0.7719    0.9734 H   0  0  0  0  0  0  0  0  0  0  0  0
   -5.3379   -2.1956    0.6028 H   0  0  0  0  0  0  0  0  0  0  0  0
   -4.9593   -1.2024    2.0127 H   0  0  0  0  0  0  0  0  0  0  0  0
   -3.9279    1.1306    1.7038 H   0  0  0  0  0  0  0  0  0  0  0  0
   -5.3649    1.5379    0.7508 H   0  0  0  0  0  0  0  0  0  0  0  0
   -3.7566    1.8150    0.0852 H   0  0  0  0  0  0  0  0  0  0  0  0
   -4.8469   -1.2908   -1.7784 H   0  0  0  0  0  0  0  0  0  0  0  0
   -4.3934    0.4046   -1.9801 H   0  0  0  0  0  0  0  0  0  0  0  0
   -5.9772    0.0001   -1.3383 H   0  0  0  0  0  0  0  0  0  0  0  0
    3.4396   -1.4702    1.9513 H   0  0  0  0  0  0  0  0  0  0  0  0
    5.8412   -1.0542    1.7557 H   0  0  0  0  0  0  0  0  0  0  0  0
  1  2  1  0
  2  3  2  0
  3  4  1  0
  4  5  2  0
  5  6  1  0
  6  7  1  0
  7  8  2  0
  8  9  1  0
  9 10  1  0
  9 11  2  0
 11 12  1  0
 12 13  1  0
 13 14  1  0
 14 15  1  0
 14 16  1  0
 14 17  1  0
 12 18  2  0
  5 19  1  0
 19 20  2  0
 20  2  1  0
 18  7  1  0
  1 21  1  0
  1 22  1  0
  1 23  1  0
  3 24  1  0
  4 25  1  0
  6 26  1  0
 13 27  1  0
 15 28  1  0
 15 29  1  0
 15 30  1  0
 16 31  1  0
 16 32  1  0
 16 33  1  0
 17 34  1  0
 17 35  1  0
 17 36  1  0
 19 37  1  0
 20 38  1  0
M  END
$$$$
