
     RDKit          3D

 44 45  0  0  0  0  0  0  0  0999 V2000
    6.0070   -1.3398   -2.3890 C   0  0  0  0  0  0  0  0  0  0  0  0
    4.8672   -0.3607   -2.3061 C   0  0  0  0  0  0  0  0  0  0  0  0
    4.0451   -0.2397   -3.2078 O   0  0  0  0  0  0  0  0  0  0  0  0
    4.8201    0.3576   -1.1351 N   0  0  0  0  0  0  0  0  0  0  0  0
    3.7953    1.3559   -0.8923 C   0  0  0  0  0  0  0  0  0  0  0  0
    2.4135    0.7581   -0.6215 C   0  0  0  0  0  0  0  0  0  0  0  0
    1.5594    1.8096   -0.1688 O   0  0  0  0  0  0  0  0  0  0  0  0
    0.2754    1.3889    0.1116 C   0  0  0  0  0  0  0  0  0  0  0  0
   -0.5153    2.3387    0.5818 N   0  0  0  0  0  0  0  0  0  0  0  0
   -1.7510    1.9568    0.8688 C   0  0  0  0  0  0  0  0  0  0  0  0
   -2.6571    2.9072    1.3523 N   0  0  0  0  0  0  0  0  0  0  0  0
   -3.7813    2.3509    2.0883 C   0  0  0  0  0  0  0  0  0  0  0  0
   -2.0427    4.1062    1.9018 C   0  0  0  0  0  0  0  0  0  0  0  0
   -2.1733    0.7060    0.6889 N   0  0  0  0  0  0  0  0  0  0  0  0
   -1.3145   -0.1835    0.1973 C   0  0  0  0  0  0  0  0  0  0  0  0
   -1.7394   -1.5063    0.0189 N   0  0  0  0  0  0  0  0  0  0  0  0
   -3.1992   -1.6469   -0.1200 C   0  0  0  0  0  0  0  0  0  0  0  0
   -3.5768   -3.1321   -0.2285 C   0  0  0  0  0  0  0  0  0  0  0  0
   -2.8737   -3.7795   -1.3001 O   0  0  0  0  0  0  0  0  0  0  0  0
   -1.4575   -3.6989   -1.0761 C   0  0  0  0  0  0  0  0  0  0  0  0
   -0.9768   -2.2413   -1.0059 C   0  0  0  0  0  0  0  0  0  0  0  0
   -0.0587    0.1231   -0.0912 N   0  0  0  0  0  0  0  0  0  0  0  0
    6.5178   -1.2128   -3.3475 H   0  0  0  0  0  0  0  0  0  0  0  0
    5.6111   -2.3559   -2.3128 H   0  0  0  0  0  0  0  0  0  0  0  0
    6.7358   -1.1828   -1.5891 H   0  0  0  0  0  0  0  0  0  0  0  0
    5.5136    0.1940   -0.4169 H   0  0  0  0  0  0  0  0  0  0  0  0
    4.1228    1.9568   -0.0366 H   0  0  0  0  0  0  0  0  0  0  0  0
    3.7457    2.0305   -1.7552 H   0  0  0  0  0  0  0  0  0  0  0  0
    2.0186    0.3084   -1.5408 H   0  0  0  0  0  0  0  0  0  0  0  0
    2.5010   -0.0149    0.1532 H   0  0  0  0  0  0  0  0  0  0  0  0
   -4.4588    3.1502    2.4096 H   0  0  0  0  0  0  0  0  0  0  0  0
   -3.4473    1.8164    2.9853 H   0  0  0  0  0  0  0  0  0  0  0  0
   -4.3777    1.6739    1.4658 H   0  0  0  0  0  0  0  0  0  0  0  0
   -1.4199    3.8736    2.7734 H   0  0  0  0  0  0  0  0  0  0  0  0
   -2.8143    4.8151    2.2234 H   0  0  0  0  0  0  0  0  0  0  0  0
   -1.4368    4.6298    1.1534 H   0  0  0  0  0  0  0  0  0  0  0  0
   -3.7274   -1.2274    0.7445 H   0  0  0  0  0  0  0  0  0  0  0  0
   -3.5336   -1.1253   -1.0264 H   0  0  0  0  0  0  0  0  0  0  0  0
   -3.3637   -3.6614    0.7081 H   0  0  0  0  0  0  0  0  0  0  0  0
   -4.6486   -3.2287   -0.4286 H   0  0  0  0  0  0  0  0  0  0  0  0
   -0.9605   -4.2140   -1.9042 H   0  0  0  0  0  0  0  0  0  0  0  0
   -1.2122   -4.2383   -0.1532 H   0  0  0  0  0  0  0  0  0  0  0  0
    0.0961   -2.2509   -0.7797 H   0  0  0  0  0  0  0  0  0  0  0  0
   -1.1272   -1.7670   -1.9846 H   0  0  0  0  0  0  0  0  0  0  0  0
  1  2  1  0
  2  3  2  0
  2  4  1  0
  4  5  1  0
  5  6  1  0
  6  7  1  0
  7  8  1  0
  8  9  2  0
  9 10  1  0
 10 11  1  0
 11 12  1  0
 11 13  1  0
 10 14  2  0
 14 15  1  0
 15 16  1  0
 16 17  1  0
 17 18  1  0
 18 19  1  0
 19 20  1  0
 20 21  1  0
 15 22  2  0
 22  8  1  0
 21 16  1  0
  1 23  1  0
  1 24  1  0
  1 25  1  0
  4 26  1  0
  5 27  1  0
  5 28  1  0
  6 29  1  0
  6 30  1  0
 12 31  1  0
 12 32  1  0
 12 33  1  0
 13 34  1  0
 13 35  1  0
 13 36  1  0
 17 37  1  0
 17 38  1  0
 18 39  1  0
 18 40  1  0
 20 41  1  0
 20 42  1  0
 21 43  1  0
 21 44  1  0
M  END
$$$$
