
     RDKit          3D

 63 67  0  0  0  0  0  0  0  0999 V2000
   -3.2896    6.1035    2.1342 C   0  0  0  0  0  0  0  0  0  0  0  0
   -3.1400    5.5543    0.8303 O   0  0  0  0  0  0  0  0  0  0  0  0
   -3.3084    4.2030    0.7055 C   0  0  0  0  0  0  0  0  0  0  0  0
   -3.0974    3.7060   -0.5824 C   0  0  0  0  0  0  0  0  0  0  0  0
   -3.2305    2.3408   -0.8509 C   0  0  0  0  0  0  0  0  0  0  0  0
   -3.5851    1.4505    0.1694 C   0  0  0  0  0  0  0  0  0  0  0  0
   -3.7067    0.0148   -0.1091 C   0  0  0  0  0  0  0  0  0  0  0  0
   -5.2511   -0.7114    0.0103 S   0  0  0  0  0  0  0  0  0  0  0  0
   -4.6615   -2.2598   -0.4487 C   0  0  0  0  0  0  0  0  0  0  0  0
   -5.4191   -3.4463   -0.5761 C   0  0  0  0  0  0  0  0  0  0  0  0
   -4.7755   -4.6260   -0.9562 C   0  0  0  0  0  0  0  0  0  0  0  0
   -5.3741   -5.8464   -1.1216 O   0  0  0  0  0  0  0  0  0  0  0  0
   -6.7711   -5.9199   -0.8628 C   0  0  0  0  0  0  0  0  0  0  0  0
   -3.4077   -4.6180   -1.2008 C   0  0  0  0  0  0  0  0  0  0  0  0
   -2.6615   -3.4421   -1.0734 C   0  0  0  0  0  0  0  0  0  0  0  0
   -3.2888   -2.2292   -0.6945 C   0  0  0  0  0  0  0  0  0  0  0  0
   -2.7439   -0.9041   -0.4961 C   0  0  0  0  0  0  0  0  0  0  0  0
   -1.3429   -0.5306   -0.6570 C   0  0  0  0  0  0  0  0  0  0  0  0
   -0.7736   -0.4764   -1.9321 C   0  0  0  0  0  0  0  0  0  0  0  0
    0.5723   -0.1331   -2.0793 C   0  0  0  0  0  0  0  0  0  0  0  0
    1.3640    0.1463   -0.9612 C   0  0  0  0  0  0  0  0  0  0  0  0
    2.6645    0.4603   -1.2449 O   0  0  0  0  0  0  0  0  0  0  0  0
    3.5652    0.5464   -0.1367 C   0  0  0  0  0  0  0  0  0  0  0  0
    4.9775    0.8025   -0.6888 C   0  0  0  0  0  0  0  0  0  0  0  0
    6.0151    0.9296    0.3497 N   0  0  0  0  0  0  0  0  0  0  0  0
    6.1959   -0.3337    1.1040 C   0  0  0  0  0  0  0  0  0  0  0  0
    7.5983   -0.4439    1.7219 C   0  0  0  0  0  0  0  0  0  0  0  0
    8.6367   -0.4839    0.7339 O   0  0  0  0  0  0  0  0  0  0  0  0
    8.2995    0.2310   -0.4640 C   0  0  0  0  0  0  0  0  0  0  0  0
    7.3052    1.3775   -0.2230 C   0  0  0  0  0  0  0  0  0  0  0  0
    0.7941    0.0955    0.3113 C   0  0  0  0  0  0  0  0  0  0  0  0
   -0.5548   -0.2437    0.4633 C   0  0  0  0  0  0  0  0  0  0  0  0
   -3.8017    1.9527    1.4596 C   0  0  0  0  0  0  0  0  0  0  0  0
   -3.6629    3.3208    1.7268 C   0  0  0  0  0  0  0  0  0  0  0  0
   -4.3111    5.9665    2.5056 H   0  0  0  0  0  0  0  0  0  0  0  0
   -3.1015    7.1792    2.0667 H   0  0  0  0  0  0  0  0  0  0  0  0
   -2.5555    5.6803    2.8285 H   0  0  0  0  0  0  0  0  0  0  0  0
   -2.8222    4.3867   -1.3848 H   0  0  0  0  0  0  0  0  0  0  0  0
   -3.0565    1.9807   -1.8622 H   0  0  0  0  0  0  0  0  0  0  0  0
   -6.4832   -3.4116   -0.3750 H   0  0  0  0  0  0  0  0  0  0  0  0
   -6.9916   -5.6775    0.1823 H   0  0  0  0  0  0  0  0  0  0  0  0
   -7.0896   -6.9517   -1.0394 H   0  0  0  0  0  0  0  0  0  0  0  0
   -7.3349   -5.2767   -1.5466 H   0  0  0  0  0  0  0  0  0  0  0  0
   -2.9068   -5.5379   -1.4937 H   0  0  0  0  0  0  0  0  0  0  0  0
   -1.5917   -3.4659   -1.2670 H   0  0  0  0  0  0  0  0  0  0  0  0
   -1.3704   -0.6964   -2.8150 H   0  0  0  0  0  0  0  0  0  0  0  0
    1.0091   -0.0879   -3.0736 H   0  0  0  0  0  0  0  0  0  0  0  0
    3.5451   -0.3949    0.4219 H   0  0  0  0  0  0  0  0  0  0  0  0
    3.2779    1.3786    0.5154 H   0  0  0  0  0  0  0  0  0  0  0  0
    4.9262    1.7347   -1.2665 H   0  0  0  0  0  0  0  0  0  0  0  0
    5.2372    0.0202   -1.4141 H   0  0  0  0  0  0  0  0  0  0  0  0
    5.4454   -0.3866    1.9005 H   0  0  0  0  0  0  0  0  0  0  0  0
    6.0531   -1.1982    0.4418 H   0  0  0  0  0  0  0  0  0  0  0  0
    7.7972    0.3950    2.3971 H   0  0  0  0  0  0  0  0  0  0  0  0
    7.6762   -1.3606    2.3133 H   0  0  0  0  0  0  0  0  0  0  0  0
    9.2311    0.6234   -0.8835 H   0  0  0  0  0  0  0  0  0  0  0  0
    7.8950   -0.4888   -1.1867 H   0  0  0  0  0  0  0  0  0  0  0  0
    7.7494    2.0715    0.5020 H   0  0  0  0  0  0  0  0  0  0  0  0
    7.1625    1.9519   -1.1458 H   0  0  0  0  0  0  0  0  0  0  0  0
    1.3665    0.3203    1.2060 H   0  0  0  0  0  0  0  0  0  0  0  0
   -0.9851   -0.2822    1.4615 H   0  0  0  0  0  0  0  0  0  0  0  0
   -4.0745    1.2800    2.2705 H   0  0  0  0  0  0  0  0  0  0  0  0
   -3.8378    3.6613    2.7415 H   0  0  0  0  0  0  0  0  0  0  0  0
  1  2  1  0
  2  3  1  0
  3  4  2  0
  4  5  1  0
  5  6  2  0
  6  7  1  0
  7  8  1  0
  8  9  1  0
  9 10  2  0
 10 11  1  0
 11 12  1  0
 12 13  1  0
 11 14  2  0
 14 15  1  0
 15 16  2  0
 16 17  1  0
 17 18  1  0
 18 19  2  0
 19 20  1  0
 20 21  2  0
 21 22  1  0
 22 23  1  0
 23 24  1  0
 24 25  1  0
 25 26  1  0
 26 27  1  0
 27 28  1  0
 28 29  1  0
 29 30  1  0
 21 31  1  0
 31 32  2  0
  6 33  1  0
 33 34  2  0
 34  3  1  0
 17  7  2  0
 32 18  1  0
 16  9  1  0
 30 25  1  0
  1 35  1  0
  1 36  1  0
  1 37  1  0
  4 38  1  0
  5 39  1  0
 10 40  1  0
 13 41  1  0
 13 42  1  0
 13 43  1  0
 14 44  1  0
 15 45  1  0
 19 46  1  0
 20 47  1  0
 23 48  1  0
 23 49  1  0
 24 50  1  0
 24 51  1  0
 26 52  1  0
 26 53  1  0
 27 54  1  0
 27 55  1  0
 29 56  1  0
 29 57  1  0
 30 58  1  0
 30 59  1  0
 31 60  1  0
 32 61  1  0
 33 62  1  0
 34 63  1  0
M  END
$$$$
