
     RDKit          3D

 47 48  0  0  0  0  0  0  0  0999 V2000
   -6.1692   -0.4493   -2.8189 C   0  0  0  0  0  0  0  0  0  0  0  0
   -5.4122    0.2657   -1.3389 S   0  0  0  0  0  0  0  0  0  0  0  0
   -3.6665   -0.0551   -1.7478 C   0  0  0  0  0  0  0  0  0  0  0  0
   -2.7671    0.4897   -0.6370 C   0  0  0  0  0  0  0  0  0  0  0  0
   -1.2889    0.2058   -0.9344 C   0  0  0  0  0  0  0  0  0  0  0  0
   -0.9958   -1.2127   -0.7063 N   0  0  0  0  0  0  0  0  0  0  0  0
    0.1999   -2.0002   -1.5616 S   0  0  0  0  0  6  0  0  0  0  0  0
    0.0365   -1.6704   -2.9593 O   0  0  0  0  0  0  0  0  0  0  0  0
    0.1642   -3.3709   -1.0994 O   0  0  0  0  0  0  0  0  0  0  0  0
    1.7006   -1.2685   -0.9698 C   0  0  0  0  0  0  0  0  0  0  0  0
    2.2850   -0.2129   -1.6715 C   0  0  0  0  0  0  0  0  0  0  0  0
    3.4703    0.3537   -1.1997 C   0  0  0  0  0  0  0  0  0  0  0  0
    4.0801   -0.1359   -0.0367 C   0  0  0  0  0  0  0  0  0  0  0  0
    5.3707    0.4575    0.4471 C   0  0  0  0  0  0  0  0  0  0  0  0
    3.5060   -1.2244    0.6330 C   0  0  0  0  0  0  0  0  0  0  0  0
    2.3184   -1.7925    0.1693 C   0  0  0  0  0  0  0  0  0  0  0  0
   -0.3827    1.1810   -0.1758 C   0  0  0  0  0  0  0  0  0  0  0  0
    0.0865    2.1529   -0.7794 O   0  0  0  0  0  0  0  0  0  0  0  0
   -0.1239    0.9975    1.1646 N   0  0  0  0  0  0  0  0  0  0  0  0
   -0.6134   -0.0323    2.0673 C   0  0  0  0  0  0  0  0  0  0  0  0
   -0.2156    0.4549    3.4541 C   0  0  0  0  0  0  0  0  0  0  0  0
    1.0732    1.2174    3.1843 C   0  0  0  0  0  0  0  0  0  0  0  0
    0.7859    1.8993    1.8555 C   0  0  0  0  0  0  0  0  0  0  0  0
   -7.2556   -0.3481   -2.7522 H   0  0  0  0  0  0  0  0  0  0  0  0
   -5.9229   -1.5114   -2.8968 H   0  0  0  0  0  0  0  0  0  0  0  0
   -5.8253    0.0759   -3.7137 H   0  0  0  0  0  0  0  0  0  0  0  0
   -3.4298    0.4317   -2.6995 H   0  0  0  0  0  0  0  0  0  0  0  0
   -3.5277   -1.1349   -1.8615 H   0  0  0  0  0  0  0  0  0  0  0  0
   -3.0589    0.0458    0.3214 H   0  0  0  0  0  0  0  0  0  0  0  0
   -2.9186    1.5734   -0.5453 H   0  0  0  0  0  0  0  0  0  0  0  0
   -1.1164    0.4226   -1.9973 H   0  0  0  0  0  0  0  0  0  0  0  0
   -1.4260   -1.7334    0.0521 H   0  0  0  0  0  0  0  0  0  0  0  0
    1.8224    0.1852   -2.5722 H   0  0  0  0  0  0  0  0  0  0  0  0
    3.9133    1.1847   -1.7454 H   0  0  0  0  0  0  0  0  0  0  0  0
    5.4556    0.3716    1.5355 H   0  0  0  0  0  0  0  0  0  0  0  0
    6.2169   -0.0587   -0.0164 H   0  0  0  0  0  0  0  0  0  0  0  0
    5.4269    1.5231    0.2007 H   0  0  0  0  0  0  0  0  0  0  0  0
    3.9848   -1.6379    1.5182 H   0  0  0  0  0  0  0  0  0  0  0  0
    1.8872   -2.6406    0.6959 H   0  0  0  0  0  0  0  0  0  0  0  0
   -1.6906   -0.1726    1.9750 H   0  0  0  0  0  0  0  0  0  0  0  0
   -0.1019   -0.9697    1.8305 H   0  0  0  0  0  0  0  0  0  0  0  0
   -0.0887   -0.3632    4.1681 H   0  0  0  0  0  0  0  0  0  0  0  0
   -0.9774    1.1400    3.8454 H   0  0  0  0  0  0  0  0  0  0  0  0
    1.9055    0.5121    3.0736 H   0  0  0  0  0  0  0  0  0  0  0  0
    1.3267    1.9267    3.9767 H   0  0  0  0  0  0  0  0  0  0  0  0
    1.6924    2.0742    1.2680 H   0  0  0  0  0  0  0  0  0  0  0  0
    0.2662    2.8531    2.0005 H   0  0  0  0  0  0  0  0  0  0  0  0
  1  2  1  0
  2  3  1  0
  3  4  1  0
  4  5  1  0
  5  6  1  0
  6  7  1  0
  7  8  2  0
  7  9  2  0
  7 10  1  0
 10 11  2  0
 11 12  1  0
 12 13  2  0
 13 14  1  0
 13 15  1  0
 15 16  2  0
  5 17  1  0
 17 18  2  0
 17 19  1  0
 19 20  1  0
 20 21  1  0
 21 22  1  0
 22 23  1  0
 16 10  1  0
 23 19  1  0
  1 24  1  0
  1 25  1  0
  1 26  1  0
  3 27  1  0
  3 28  1  0
  4 29  1  0
  4 30  1  0
  5 31  1  0
  6 32  1  0
 11 33  1  0
 12 34  1  0
 14 35  1  0
 14 36  1  0
 14 37  1  0
 15 38  1  0
 16 39  1  0
 20 40  1  0
 20 41  1  0
 21 42  1  0
 21 43  1  0
 22 44  1  0
 22 45  1  0
 23 46  1  0
 23 47  1  0
M  END
$$$$
