
     RDKit          3D

 55 57  0  0  0  0  0  0  0  0999 V2000
    6.5571   -2.9333    0.3471 C   0  0  0  0  0  0  0  0  0  0  0  0
    6.7370   -1.7262    1.2515 C   0  0  0  0  0  0  0  0  0  0  0  0
    5.5368   -1.4441    1.9680 O   0  0  0  0  0  0  0  0  0  0  0  0
    4.5672   -0.6656    1.3987 C   0  0  0  0  0  0  0  0  0  0  0  0
    4.6356   -0.1011    0.1247 C   0  0  0  0  0  0  0  0  0  0  0  0
    3.5769    0.6745   -0.3658 C   0  0  0  0  0  0  0  0  0  0  0  0
    2.4291    0.9034    0.4055 C   0  0  0  0  0  0  0  0  0  0  0  0
    1.3232    1.7113   -0.2021 C   0  0  0  0  0  0  0  0  0  0  0  0
    1.4664    2.1378   -1.3479 O   0  0  0  0  0  0  0  0  0  0  0  0
    0.0439    1.9621    0.5669 C   0  0  0  0  0  0  0  0  0  0  0  0
   -0.5801    3.2555    0.1396 C   0  0  0  0  0  0  0  0  0  0  0  0
   -0.2691    4.3655    0.5289 O   0  0  0  0  0  0  0  0  0  0  0  0
   -1.7074    2.9674   -0.8467 C   0  0  0  0  0  0  0  0  0  0  0  0
   -2.3599    3.8118   -1.4214 O   0  0  0  0  0  0  0  0  0  0  0  0
   -1.8613    1.5909   -0.8650 N   0  0  0  0  0  0  0  0  0  0  0  0
   -3.0812    0.9984   -1.4150 C   0  0  0  0  0  0  0  0  0  0  0  0
   -4.3177    1.1936   -0.5099 C   0  0  0  0  0  0  0  0  0  0  0  0
   -5.5204    0.4763   -0.9753 N   0  0  0  0  0  0  0  0  0  0  0  0
   -6.5705    0.5459    0.0456 C   0  0  0  0  0  0  0  0  0  0  0  0
   -6.0276    1.0290   -2.2352 C   0  0  0  0  0  0  0  0  0  0  0  0
   -1.1056    0.9879    0.2261 C   0  0  0  0  0  0  0  0  0  0  0  0
   -0.6837   -0.4478    0.0038 C   0  0  0  0  0  0  0  0  0  0  0  0
   -0.1790   -0.8858   -1.2320 C   0  0  0  0  0  0  0  0  0  0  0  0
    0.2577   -2.2004   -1.3981 C   0  0  0  0  0  0  0  0  0  0  0  0
    0.1971   -3.0951   -0.3331 C   0  0  0  0  0  0  0  0  0  0  0  0
   -0.3056   -2.6788    0.8974 C   0  0  0  0  0  0  0  0  0  0  0  0
   -0.7451   -1.3646    1.0658 C   0  0  0  0  0  0  0  0  0  0  0  0
    2.3586    0.3475    1.6835 C   0  0  0  0  0  0  0  0  0  0  0  0
    3.4166   -0.4321    2.1694 C   0  0  0  0  0  0  0  0  0  0  0  0
    3.2440   -1.1062    3.7562 Cl  0  0  0  0  0  0  0  0  0  0  0  0
    5.8124   -2.7435   -0.4318 H   0  0  0  0  0  0  0  0  0  0  0  0
    7.5020   -3.2007   -0.1342 H   0  0  0  0  0  0  0  0  0  0  0  0
    6.2001   -3.7932    0.9236 H   0  0  0  0  0  0  0  0  0  0  0  0
    7.1216   -0.8521    0.7156 H   0  0  0  0  0  0  0  0  0  0  0  0
    7.4940   -1.9714    2.0051 H   0  0  0  0  0  0  0  0  0  0  0  0
    5.4908   -0.2478   -0.5267 H   0  0  0  0  0  0  0  0  0  0  0  0
    3.6561    1.0939   -1.3689 H   0  0  0  0  0  0  0  0  0  0  0  0
    0.2170    2.0133    1.6444 H   0  0  0  0  0  0  0  0  0  0  0  0
   -2.9052   -0.0648   -1.6038 H   0  0  0  0  0  0  0  0  0  0  0  0
   -3.2536    1.4808   -2.3836 H   0  0  0  0  0  0  0  0  0  0  0  0
   -4.5265    2.2648   -0.3879 H   0  0  0  0  0  0  0  0  0  0  0  0
   -4.0557    0.8156    0.4871 H   0  0  0  0  0  0  0  0  0  0  0  0
   -6.2321    0.0829    0.9790 H   0  0  0  0  0  0  0  0  0  0  0  0
   -7.4570   -0.0133   -0.2750 H   0  0  0  0  0  0  0  0  0  0  0  0
   -6.8712    1.5778    0.2606 H   0  0  0  0  0  0  0  0  0  0  0  0
   -6.9358    0.5013   -2.5484 H   0  0  0  0  0  0  0  0  0  0  0  0
   -6.2622    2.0964   -2.1538 H   0  0  0  0  0  0  0  0  0  0  0  0
   -5.3065    0.8911   -3.0465 H   0  0  0  0  0  0  0  0  0  0  0  0
   -1.7991    1.0028    1.0806 H   0  0  0  0  0  0  0  0  0  0  0  0
   -0.1153   -0.2017   -2.0784 H   0  0  0  0  0  0  0  0  0  0  0  0
    0.6469   -2.5251   -2.3602 H   0  0  0  0  0  0  0  0  0  0  0  0
    0.5386   -4.1190   -0.4627 H   0  0  0  0  0  0  0  0  0  0  0  0
   -0.3546   -3.3807    1.7266 H   0  0  0  0  0  0  0  0  0  0  0  0
   -1.1322   -1.0675    2.0386 H   0  0  0  0  0  0  0  0  0  0  0  0
    1.4943    0.4825    2.3232 H   0  0  0  0  0  0  0  0  0  0  0  0
  1  2  1  0
  2  3  1  0
  3  4  1  0
  4  5  2  0
  5  6  1  0
  6  7  2  0
  7  8  1  0
  8  9  2  0
  8 10  1  0
 10 11  1  0
 11 12  2  0
 11 13  1  0
 13 14  2  0
 13 15  1  0
 15 16  1  0
 16 17  1  0
 17 18  1  0
 18 19  1  0
 18 20  1  0
 15 21  1  0
 21 22  1  0
 22 23  2  0
 23 24  1  0
 24 25  2  0
 25 26  1  0
 26 27  2  0
  7 28  1  0
 28 29  2  0
 29 30  1  0
 29  4  1  0
 21 10  1  0
 27 22  1  0
  1 31  1  0
  1 32  1  0
  1 33  1  0
  2 34  1  0
  2 35  1  0
  5 36  1  0
  6 37  1  0
 10 38  1  0
 16 39  1  0
 16 40  1  0
 17 41  1  0
 17 42  1  0
 19 43  1  0
 19 44  1  0
 19 45  1  0
 20 46  1  0
 20 47  1  0
 20 48  1  0
 21 49  1  0
 23 50  1  0
 24 51  1  0
 25 52  1  0
 26 53  1  0
 27 54  1  0
 28 55  1  0
M  END
$$$$
