
     RDKit          3D

 43 45  0  0  0  0  0  0  0  0999 V2000
    3.8687    0.1243    1.3679 O   0  0  0  0  0  0  0  0  0  0  0  0
    3.0339   -0.1593    0.5041 C   0  0  0  0  0  0  0  0  0  0  0  0
    3.4695   -0.8036   -0.8363 C   0  0  0  0  0  0  0  0  0  0  0  0
    3.5569    0.2369   -1.9422 C   0  0  0  0  0  0  0  0  0  0  0  0
    4.9840    0.7136   -1.8196 C   0  0  0  0  0  0  0  0  0  0  0  0
    5.7166   -0.5488   -1.4240 C   0  0  0  0  0  0  0  0  0  0  0  0
    4.7731   -1.4002   -0.7626 O   0  0  0  0  0  0  0  0  0  0  0  0
    1.6752    0.0898    0.7044 N   0  0  0  0  0  0  0  0  0  0  0  0
    0.6471    0.0417   -0.3471 C   0  0  0  0  0  0  0  0  0  0  0  0
   -0.7374   -0.3502    0.2023 C   0  0  0  0  0  0  0  0  0  0  0  0
   -1.1114    0.4989    1.3462 N   0  0  0  0  0  0  0  0  0  0  0  0
   -1.9558    1.5793    1.1565 C   0  0  0  0  0  0  0  0  0  0  0  0
   -1.6859    3.1323    1.7348 S   0  0  0  0  0  0  0  0  0  0  0  0
   -3.0744    1.4122    0.3862 N   0  0  0  0  0  0  0  0  0  0  0  0
   -3.9333    0.2985    0.2562 C   0  0  0  0  0  0  0  0  0  0  0  0
   -3.8408   -0.8519    1.0469 C   0  0  0  0  0  0  0  0  0  0  0  0
   -4.7438   -1.9044    0.8716 C   0  0  0  0  0  0  0  0  0  0  0  0
   -5.7455   -1.7986   -0.0843 C   0  0  0  0  0  0  0  0  0  0  0  0
   -6.6100   -2.8075   -0.2508 F   0  0  0  0  0  0  0  0  0  0  0  0
   -5.8679   -0.6557   -0.8630 C   0  0  0  0  0  0  0  0  0  0  0  0
   -4.9660    0.3964   -0.6869 C   0  0  0  0  0  0  0  0  0  0  0  0
   -0.1015    0.4559    2.4191 C   0  0  0  0  0  0  0  0  0  0  0  0
    1.2949    0.8425    1.9110 C   0  0  0  0  0  0  0  0  0  0  0  0
    2.7722   -1.6103   -1.0782 H   0  0  0  0  0  0  0  0  0  0  0  0
    2.8383    1.0560   -1.8605 H   0  0  0  0  0  0  0  0  0  0  0  0
    3.4179   -0.2471   -2.9164 H   0  0  0  0  0  0  0  0  0  0  0  0
    5.3762    1.1637   -2.7355 H   0  0  0  0  0  0  0  0  0  0  0  0
    5.0624    1.4581   -1.0185 H   0  0  0  0  0  0  0  0  0  0  0  0
    6.5631   -0.3505   -0.7604 H   0  0  0  0  0  0  0  0  0  0  0  0
    6.0850   -1.0839   -2.3054 H   0  0  0  0  0  0  0  0  0  0  0  0
    0.9230   -0.6533   -1.1417 H   0  0  0  0  0  0  0  0  0  0  0  0
    0.6023    1.0454   -0.7868 H   0  0  0  0  0  0  0  0  0  0  0  0
   -1.4604   -0.2766   -0.6135 H   0  0  0  0  0  0  0  0  0  0  0  0
   -0.7202   -1.3873    0.5570 H   0  0  0  0  0  0  0  0  0  0  0  0
   -3.4723    2.2932    0.0758 H   0  0  0  0  0  0  0  0  0  0  0  0
   -3.0946   -0.9421    1.8300 H   0  0  0  0  0  0  0  0  0  0  0  0
   -4.6775   -2.7981    1.4841 H   0  0  0  0  0  0  0  0  0  0  0  0
   -6.6634   -0.5888   -1.5983 H   0  0  0  0  0  0  0  0  0  0  0  0
   -5.0727    1.2854   -1.3036 H   0  0  0  0  0  0  0  0  0  0  0  0
   -0.3979    1.0858    3.2631 H   0  0  0  0  0  0  0  0  0  0  0  0
   -0.0822   -0.5786    2.7842 H   0  0  0  0  0  0  0  0  0  0  0  0
    1.3307    1.9041    1.6413 H   0  0  0  0  0  0  0  0  0  0  0  0
    2.0238    0.6828    2.7124 H   0  0  0  0  0  0  0  0  0  0  0  0
  1  2  2  0
  2  3  1  0
  3  4  1  0
  4  5  1  0
  5  6  1  0
  6  7  1  0
  2  8  1  0
  8  9  1  0
  9 10  1  0
 10 11  1  0
 11 12  1  0
 12 13  2  0
 12 14  1  0
 14 15  1  0
 15 16  2  0
 16 17  1  0
 17 18  2  0
 18 19  1  0
 18 20  1  0
 20 21  2  0
 11 22  1  0
 22 23  1  0
  7  3  1  0
 23  8  1  0
 21 15  1  0
  3 24  1  0
  4 25  1  0
  4 26  1  0
  5 27  1  0
  5 28  1  0
  6 29  1  0
  6 30  1  0
  9 31  1  0
  9 32  1  0
 10 33  1  0
 10 34  1  0
 14 35  1  0
 16 36  1  0
 17 37  1  0
 20 38  1  0
 21 39  1  0
 22 40  1  0
 22 41  1  0
 23 42  1  0
 23 43  1  0
M  END
$$$$
