
     RDKit          3D

 38 39  0  0  0  0  0  0  0  0999 V2000
   -6.1308   -0.7010    1.0309 C   0  0  0  0  0  0  0  0  0  0  0  0
   -5.0573    0.0915    1.5181 O   0  0  0  0  0  0  0  0  0  0  0  0
   -3.9318    0.1933    0.7385 C   0  0  0  0  0  0  0  0  0  0  0  0
   -3.7494   -0.4795   -0.4765 C   0  0  0  0  0  0  0  0  0  0  0  0
   -2.5657   -0.3203   -1.2004 C   0  0  0  0  0  0  0  0  0  0  0  0
   -1.5647    0.5216   -0.7138 C   0  0  0  0  0  0  0  0  0  0  0  0
   -0.2997    0.6875   -1.4863 C   0  0  0  0  0  0  0  0  0  0  0  0
    0.2076    1.8712   -1.6564 N   0  0  0  0  0  0  0  0  0  0  0  0
    0.2910   -0.4542   -1.9963 N   0  0  0  0  0  0  0  0  0  0  0  0
    1.6483   -0.2449   -2.3145 O   0  0  0  0  0  0  0  0  0  0  0  0
    2.4841   -0.7325   -1.3371 C   0  0  0  0  0  0  0  0  0  0  0  0
    2.0960   -1.4337   -0.4088 O   0  0  0  0  0  0  0  0  0  0  0  0
    3.8985   -0.2943   -1.6399 C   0  0  0  0  0  0  0  0  0  0  0  0
    4.8534   -0.7409   -0.5733 C   0  0  0  0  0  0  0  0  0  0  0  0
    5.5357   -1.9381   -0.4784 C   0  0  0  0  0  0  0  0  0  0  0  0
    6.3638   -1.9984    0.6797 C   0  0  0  0  0  0  0  0  0  0  0  0
    6.2908   -0.8449    1.4266 C   0  0  0  0  0  0  0  0  0  0  0  0
    5.2297    0.3022    0.7349 S   0  0  0  0  0  0  0  0  0  0  0  0
   -1.7301    1.1952    0.5013 C   0  0  0  0  0  0  0  0  0  0  0  0
   -2.9104    1.0325    1.2339 C   0  0  0  0  0  0  0  0  0  0  0  0
   -3.1649    1.6439    2.4368 O   0  0  0  0  0  0  0  0  0  0  0  0
   -2.1284    2.4262    3.0138 C   0  0  0  0  0  0  0  0  0  0  0  0
   -6.5160   -0.3067    0.0854 H   0  0  0  0  0  0  0  0  0  0  0  0
   -5.8336   -1.7498    0.9321 H   0  0  0  0  0  0  0  0  0  0  0  0
   -6.9404   -0.6541    1.7656 H   0  0  0  0  0  0  0  0  0  0  0  0
   -4.5104   -1.1360   -0.8864 H   0  0  0  0  0  0  0  0  0  0  0  0
   -2.4410   -0.8412   -2.1476 H   0  0  0  0  0  0  0  0  0  0  0  0
   -0.3915    2.5954   -1.2491 H   0  0  0  0  0  0  0  0  0  0  0  0
    0.1657   -1.2862   -1.4145 H   0  0  0  0  0  0  0  0  0  0  0  0
    3.9134    0.7977   -1.7385 H   0  0  0  0  0  0  0  0  0  0  0  0
    4.1948   -0.7317   -2.6001 H   0  0  0  0  0  0  0  0  0  0  0  0
    5.4424   -2.7392   -1.2021 H   0  0  0  0  0  0  0  0  0  0  0  0
    6.9809   -2.8462    0.9513 H   0  0  0  0  0  0  0  0  0  0  0  0
    6.8089   -0.6193    2.3481 H   0  0  0  0  0  0  0  0  0  0  0  0
   -0.9209    1.8206    0.8631 H   0  0  0  0  0  0  0  0  0  0  0  0
   -1.2375    1.8202    3.2084 H   0  0  0  0  0  0  0  0  0  0  0  0
   -2.4896    2.8044    3.9749 H   0  0  0  0  0  0  0  0  0  0  0  0
   -1.8908    3.2899    2.3846 H   0  0  0  0  0  0  0  0  0  0  0  0
  1  2  1  0
  2  3  1  0
  3  4  2  0
  4  5  1  0
  5  6  2  0
  6  7  1  0
  7  8  2  3
  7  9  1  0
  9 10  1  0
 10 11  1  0
 11 12  2  0
 11 13  1  0
 13 14  1  0
 14 15  2  0
 15 16  1  0
 16 17  2  0
 17 18  1  0
  6 19  1  0
 19 20  2  0
 20 21  1  0
 21 22  1  0
 20  3  1  0
 18 14  1  0
  1 23  1  0
  1 24  1  0
  1 25  1  0
  4 26  1  0
  5 27  1  0
  8 28  1  0
  9 29  1  0
 13 30  1  0
 13 31  1  0
 15 32  1  0
 16 33  1  0
 17 34  1  0
 19 35  1  0
 22 36  1  0
 22 37  1  0
 22 38  1  0
M  END
$$$$
