
     RDKit          3D

 46 48  0  0  0  0  0  0  0  0999 V2000
   -3.7311    1.9086    0.0359 C   0  0  0  0  0  0  0  0  0  0  0  0
   -3.1244    0.5337   -0.0893 C   0  0  0  0  0  0  0  0  0  0  0  0
   -3.8507   -0.5940    0.0745 C   0  0  0  0  0  0  0  0  0  0  0  0
   -5.2916   -0.6567    0.3388 C   0  0  0  0  0  0  0  0  0  0  0  0
   -5.7503   -0.9616    1.6243 C   0  0  0  0  0  0  0  0  0  0  0  0
   -7.1208   -1.0304    1.8823 C   0  0  0  0  0  0  0  0  0  0  0  0
   -8.0368   -0.7974    0.8571 C   0  0  0  0  0  0  0  0  0  0  0  0
   -7.5848   -0.4953   -0.4270 C   0  0  0  0  0  0  0  0  0  0  0  0
   -6.2149   -0.4259   -0.6872 C   0  0  0  0  0  0  0  0  0  0  0  0
   -1.6884    0.3865   -0.3540 C   0  0  0  0  0  0  0  0  0  0  0  0
   -0.7397    1.2673   -0.7094 C   0  0  0  0  0  0  0  0  0  0  0  0
   -0.8520    2.9559   -1.0337 S   0  0  0  0  0  0  0  0  0  0  0  0
    0.8606    3.1221   -1.4062 C   0  0  0  0  0  0  0  0  0  0  0  0
    1.5692    4.5605   -1.8506 S   0  0  0  0  0  0  0  0  0  0  0  0
    1.4487    1.8832   -1.2924 N   0  0  0  0  0  0  0  0  0  0  0  0
    2.9423    1.6616   -1.4286 N   0  0  0  0  0  0  0  0  0  0  0  0
    3.7846    1.8773    0.0494 S   0  0  0  0  0  6  0  0  0  0  0  0
    4.7098    2.9747   -0.1221 O   0  0  0  0  0  0  0  0  0  0  0  0
    2.8159    1.8639    1.1263 O   0  0  0  0  0  0  0  0  0  0  0  0
    4.7236    0.3732    0.1287 C   0  0  0  0  0  0  0  0  0  0  0  0
    4.1479   -0.7702    0.6865 C   0  0  0  0  0  0  0  0  0  0  0  0
    4.8894   -1.9505    0.7482 C   0  0  0  0  0  0  0  0  0  0  0  0
    6.2066   -1.9893    0.2692 C   0  0  0  0  0  0  0  0  0  0  0  0
    6.9868   -3.2702    0.3323 C   0  0  0  0  0  0  0  0  0  0  0  0
    6.7723   -0.8317   -0.2818 C   0  0  0  0  0  0  0  0  0  0  0  0
    6.0361    0.3523   -0.3483 C   0  0  0  0  0  0  0  0  0  0  0  0
    0.6670    0.8093   -0.9100 C   0  0  0  0  0  0  0  0  0  0  0  0
    1.0664   -0.3412   -0.7782 O   0  0  0  0  0  0  0  0  0  0  0  0
   -3.7546    2.4111   -0.9362 H   0  0  0  0  0  0  0  0  0  0  0  0
   -3.1693    2.5159    0.7531 H   0  0  0  0  0  0  0  0  0  0  0  0
   -4.7602    1.8937    0.4068 H   0  0  0  0  0  0  0  0  0  0  0  0
   -3.3886   -1.5779    0.0096 H   0  0  0  0  0  0  0  0  0  0  0  0
   -5.0452   -1.1426    2.4320 H   0  0  0  0  0  0  0  0  0  0  0  0
   -7.4734   -1.2655    2.8833 H   0  0  0  0  0  0  0  0  0  0  0  0
   -9.1036   -0.8512    1.0590 H   0  0  0  0  0  0  0  0  0  0  0  0
   -8.2985   -0.3149   -1.2263 H   0  0  0  0  0  0  0  0  0  0  0  0
   -5.8726   -0.1911   -1.6921 H   0  0  0  0  0  0  0  0  0  0  0  0
   -1.3437   -0.6461   -0.2402 H   0  0  0  0  0  0  0  0  0  0  0  0
    3.1522    0.7436   -1.8345 H   0  0  0  0  0  0  0  0  0  0  0  0
    3.1291   -0.7558    1.0698 H   0  0  0  0  0  0  0  0  0  0  0  0
    4.4365   -2.8427    1.1768 H   0  0  0  0  0  0  0  0  0  0  0  0
    6.5690   -3.9987   -0.3694 H   0  0  0  0  0  0  0  0  0  0  0  0
    6.9545   -3.6856    1.3445 H   0  0  0  0  0  0  0  0  0  0  0  0
    8.0388   -3.1113    0.0742 H   0  0  0  0  0  0  0  0  0  0  0  0
    7.7941   -0.8431   -0.6564 H   0  0  0  0  0  0  0  0  0  0  0  0
    6.4938    1.2465   -0.7672 H   0  0  0  0  0  0  0  0  0  0  0  0
  1  2  1  0
  2  3  2  3
  3  4  1  0
  4  5  2  0
  5  6  1  0
  6  7  2  0
  7  8  1  0
  8  9  2  0
  2 10  1  0
 10 11  2  3
 11 12  1  0
 12 13  1  0
 13 14  2  0
 13 15  1  0
 15 16  1  0
 16 17  1  0
 17 18  2  0
 17 19  2  0
 17 20  1  0
 20 21  2  0
 21 22  1  0
 22 23  2  0
 23 24  1  0
 23 25  1  0
 25 26  2  0
 15 27  1  0
 27 28  2  0
  9  4  1  0
 27 11  1  0
 26 20  1  0
  1 29  1  0
  1 30  1  0
  1 31  1  0
  3 32  1  0
  5 33  1  0
  6 34  1  0
  7 35  1  0
  8 36  1  0
  9 37  1  0
 10 38  1  0
 16 39  1  0
 21 40  1  0
 22 41  1  0
 24 42  1  0
 24 43  1  0
 24 44  1  0
 25 45  1  0
 26 46  1  0
M  END
$$$$
