
     RDKit          3D

 43 45  0  0  0  0  0  0  0  0999 V2000
   -3.1567   -3.3656    0.9984 C   0  0  0  0  0  0  0  0  0  0  0  0
   -3.1207   -2.2061    0.1057 N   0  0  0  0  0  0  0  0  0  0  0  0
   -4.0328   -2.4203   -1.0207 C   0  0  0  0  0  0  0  0  0  0  0  0
   -3.4745   -0.9846    0.8556 C   0  0  0  0  0  0  0  0  0  0  0  0
   -3.1744    0.2869    0.1026 C   0  0  0  0  0  0  0  0  0  0  0  0
   -4.1802    1.1209   -0.4164 C   0  0  0  0  0  0  0  0  0  0  0  0
   -5.4889    0.7687   -0.2243 O   0  0  0  0  0  0  0  0  0  0  0  0
   -3.8828    2.3027   -1.1274 C   0  0  0  0  0  0  0  0  0  0  0  0
   -2.5574    2.6854   -1.3403 C   0  0  0  0  0  0  0  0  0  0  0  0
   -1.5775    1.8615   -0.8259 C   0  0  0  0  0  0  0  0  0  0  0  0
   -1.8672    0.6940   -0.1213 C   0  0  0  0  0  0  0  0  0  0  0  0
   -0.7328    0.0360    0.3053 O   0  0  0  0  0  0  0  0  0  0  0  0
    0.3437    0.7932   -0.1434 C   0  0  0  0  0  0  0  0  0  0  0  0
    1.6369    0.5034    0.0499 C   0  0  0  0  0  0  0  0  0  0  0  0
    2.1037   -0.6698    0.7598 C   0  0  0  0  0  0  0  0  0  0  0  0
    3.3828   -0.9935    1.0094 C   0  0  0  0  0  0  0  0  0  0  0  0
    4.5637   -0.2101    0.6369 C   0  0  0  0  0  0  0  0  0  0  0  0
    4.8491    1.0051    1.2699 C   0  0  0  0  0  0  0  0  0  0  0  0
    5.9825    1.7366    0.9101 C   0  0  0  0  0  0  0  0  0  0  0  0
    6.8382    1.2553   -0.0798 C   0  0  0  0  0  0  0  0  0  0  0  0
    6.5626    0.0424   -0.7099 C   0  0  0  0  0  0  0  0  0  0  0  0
    5.4291   -0.6902   -0.3514 C   0  0  0  0  0  0  0  0  0  0  0  0
   -0.1274    1.9941   -0.8799 C   0  0  0  0  0  0  0  0  0  0  0  0
    0.5133    2.8813   -1.3995 O   0  0  0  0  0  0  0  0  0  0  0  0
   -4.1511   -3.5257    1.4307 H   0  0  0  0  0  0  0  0  0  0  0  0
   -2.8631   -4.2747    0.4615 H   0  0  0  0  0  0  0  0  0  0  0  0
   -2.4390   -3.2439    1.8175 H   0  0  0  0  0  0  0  0  0  0  0  0
   -3.7683   -3.3390   -1.5571 H   0  0  0  0  0  0  0  0  0  0  0  0
   -3.9568   -1.6105   -1.7536 H   0  0  0  0  0  0  0  0  0  0  0  0
   -5.0775   -2.5018   -0.6989 H   0  0  0  0  0  0  0  0  0  0  0  0
   -4.5223   -1.0169    1.1809 H   0  0  0  0  0  0  0  0  0  0  0  0
   -2.8873   -0.9407    1.7837 H   0  0  0  0  0  0  0  0  0  0  0  0
   -6.0624    1.4284   -0.6489 H   0  0  0  0  0  0  0  0  0  0  0  0
   -4.6781    2.9308   -1.5201 H   0  0  0  0  0  0  0  0  0  0  0  0
   -2.3017    3.5884   -1.8842 H   0  0  0  0  0  0  0  0  0  0  0  0
    2.3837    1.1817   -0.3588 H   0  0  0  0  0  0  0  0  0  0  0  0
    1.3353   -1.3609    1.1065 H   0  0  0  0  0  0  0  0  0  0  0  0
    3.6017   -1.9240    1.5291 H   0  0  0  0  0  0  0  0  0  0  0  0
    4.1891    1.3892    2.0441 H   0  0  0  0  0  0  0  0  0  0  0  0
    6.1959    2.6823    1.4013 H   0  0  0  0  0  0  0  0  0  0  0  0
    7.7192    1.8263   -0.3612 H   0  0  0  0  0  0  0  0  0  0  0  0
    7.2284   -0.3324   -1.4828 H   0  0  0  0  0  0  0  0  0  0  0  0
    5.2220   -1.6322   -0.8533 H   0  0  0  0  0  0  0  0  0  0  0  0
  1  2  1  0
  2  3  1  0
  2  4  1  0
  4  5  1  0
  5  6  2  0
  6  7  1  0
  6  8  1  0
  8  9  2  0
  9 10  1  0
 10 11  2  0
 11 12  1  0
 12 13  1  0
 13 14  2  3
 14 15  1  0
 15 16  2  3
 16 17  1  0
 17 18  2  0
 18 19  1  0
 19 20  2  0
 20 21  1  0
 21 22  2  0
 13 23  1  0
 23 24  2  0
 11  5  1  0
 22 17  1  0
 23 10  1  0
  1 25  1  0
  1 26  1  0
  1 27  1  0
  3 28  1  0
  3 29  1  0
  3 30  1  0
  4 31  1  0
  4 32  1  0
  7 33  1  0
  8 34  1  0
  9 35  1  0
 14 36  1  0
 15 37  1  0
 16 38  1  0
 18 39  1  0
 19 40  1  0
 20 41  1  0
 21 42  1  0
 22 43  1  0
M  END
$$$$
