
     RDKit          3D

 47 49  0  0  0  0  0  0  0  0999 V2000
   -7.0345   -1.0573   -0.0367 C   0  0  0  0  0  0  0  0  0  0  0  0
   -5.8613   -0.4477   -0.6571 N   0  0  0  0  0  0  0  0  0  0  0  0
   -4.6224   -1.0975   -0.1852 C   0  0  0  0  0  0  0  0  0  0  0  0
   -3.3752   -0.2161   -0.3775 C   0  0  0  0  0  0  0  0  0  0  0  0
   -3.4629    1.0356    0.4461 N   0  0  0  0  0  0  0  0  0  0  0  0
   -2.4317    2.3024   -0.0467 S   0  0  0  0  0  6  0  0  0  0  0  0
   -2.6982    2.5688   -1.4442 O   0  0  0  0  0  0  0  0  0  0  0  0
   -2.5165    3.3582    0.9401 O   0  0  0  0  0  0  0  0  0  0  0  0
   -0.8196    1.5727    0.0915 C   0  0  0  0  0  0  0  0  0  0  0  0
   -0.1318    1.1684   -1.0498 C   0  0  0  0  0  0  0  0  0  0  0  0
    1.1413    0.6072   -0.9168 C   0  0  0  0  0  0  0  0  0  0  0  0
    1.7491    0.4595    0.3428 C   0  0  0  0  0  0  0  0  0  0  0  0
    3.0380   -0.1173    0.3366 N   0  0  0  0  0  0  0  0  0  0  0  0
    3.9850   -0.3529    1.3055 C   0  0  0  0  0  0  0  0  0  0  0  0
    3.9666   -0.0102    2.9384 S   0  0  0  0  0  0  0  0  0  0  0  0
    5.1424   -0.9632    0.8413 N   0  0  0  0  0  0  0  0  0  0  0  0
    5.4671   -1.3562   -0.4425 C   0  0  0  0  0  0  0  0  0  0  0  0
    4.7314   -1.2518   -1.4166 O   0  0  0  0  0  0  0  0  0  0  0  0
    6.8170   -1.9603   -0.5677 C   0  0  0  0  0  0  0  0  0  0  0  0
    7.7719   -1.4474   -1.6201 C   0  0  0  0  0  0  0  0  0  0  0  0
    8.0512   -1.1825   -0.1704 C   0  0  0  0  0  0  0  0  0  0  0  0
    1.0451    0.8810    1.4714 C   0  0  0  0  0  0  0  0  0  0  0  0
   -0.2343    1.4396    1.3507 C   0  0  0  0  0  0  0  0  0  0  0  0
   -4.8801    1.4732    0.6809 C   0  0  0  0  0  0  0  0  0  0  0  0
   -5.8202    1.0147   -0.4487 C   0  0  0  0  0  0  0  0  0  0  0  0
   -7.9531   -0.6440   -0.4675 H   0  0  0  0  0  0  0  0  0  0  0  0
   -7.0595   -0.8995    1.0475 H   0  0  0  0  0  0  0  0  0  0  0  0
   -7.0540   -2.1356   -0.2295 H   0  0  0  0  0  0  0  0  0  0  0  0
   -4.4875   -2.0354   -0.7368 H   0  0  0  0  0  0  0  0  0  0  0  0
   -4.6979   -1.3557    0.8803 H   0  0  0  0  0  0  0  0  0  0  0  0
   -2.4938   -0.7814   -0.0549 H   0  0  0  0  0  0  0  0  0  0  0  0
   -3.2598    0.0227   -1.4410 H   0  0  0  0  0  0  0  0  0  0  0  0
   -0.5696    1.2852   -2.0384 H   0  0  0  0  0  0  0  0  0  0  0  0
    1.6629    0.2956   -1.8205 H   0  0  0  0  0  0  0  0  0  0  0  0
    3.3505   -0.4051   -0.5937 H   0  0  0  0  0  0  0  0  0  0  0  0
    5.8371   -1.1166    1.5603 H   0  0  0  0  0  0  0  0  0  0  0  0
    6.8275   -3.0341   -0.4080 H   0  0  0  0  0  0  0  0  0  0  0  0
    7.4488   -0.6211   -2.2450 H   0  0  0  0  0  0  0  0  0  0  0  0
    8.3918   -2.1719   -2.1375 H   0  0  0  0  0  0  0  0  0  0  0  0
    8.8689   -1.7234    0.2935 H   0  0  0  0  0  0  0  0  0  0  0  0
    7.9472   -0.1586    0.1726 H   0  0  0  0  0  0  0  0  0  0  0  0
    1.4426    0.7916    2.4732 H   0  0  0  0  0  0  0  0  0  0  0  0
   -0.7649    1.7667    2.2423 H   0  0  0  0  0  0  0  0  0  0  0  0
   -4.9478    2.5613    0.7848 H   0  0  0  0  0  0  0  0  0  0  0  0
   -5.2040    1.0542    1.6413 H   0  0  0  0  0  0  0  0  0  0  0  0
   -6.8263    1.4183   -0.2782 H   0  0  0  0  0  0  0  0  0  0  0  0
   -5.4770    1.4657   -1.3893 H   0  0  0  0  0  0  0  0  0  0  0  0
  1  2  1  0
  2  3  1  0
  3  4  1  0
  4  5  1  0
  5  6  1  0
  6  7  2  0
  6  8  2  0
  6  9  1  0
  9 10  2  0
 10 11  1  0
 11 12  2  0
 12 13  1  0
 13 14  1  0
 14 15  2  0
 14 16  1  0
 16 17  1  0
 17 18  2  0
 17 19  1  0
 19 20  1  0
 20 21  1  0
 12 22  1  0
 22 23  2  0
  5 24  1  0
 24 25  1  0
 25  2  1  0
 23  9  1  0
 21 19  1  0
  1 26  1  0
  1 27  1  0
  1 28  1  0
  3 29  1  0
  3 30  1  0
  4 31  1  0
  4 32  1  0
 10 33  1  0
 11 34  1  0
 13 35  1  0
 16 36  1  0
 19 37  1  0
 20 38  1  0
 20 39  1  0
 21 40  1  0
 21 41  1  0
 22 42  1  0
 23 43  1  0
 24 44  1  0
 24 45  1  0
 25 46  1  0
 25 47  1  0
M  END
$$$$
