
     RDKit          3D

 48 51  0  0  0  0  0  0  0  0999 V2000
    4.6164    1.6495    2.8829 C   0  0  0  0  0  0  0  0  0  0  0  0
    3.6827    1.0402    1.8789 C   0  0  0  0  0  0  0  0  0  0  0  0
    2.3345    0.8507    2.1956 C   0  0  0  0  0  0  0  0  0  0  0  0
    1.4694    0.2539    1.2716 C   0  0  0  0  0  0  0  0  0  0  0  0
    1.9117   -0.1595    0.0229 C   0  0  0  0  0  0  0  0  0  0  0  0
    1.0442   -0.7389   -0.8195 N   0  0  0  0  0  0  0  0  0  0  0  0
    1.4676   -1.1215   -2.0482 C   0  0  0  0  0  0  0  0  0  0  0  0
    0.2500   -1.9212   -3.0927 S   0  0  0  0  0  0  0  0  0  0  0  0
   -1.2351   -1.8009   -2.0292 C   0  0  0  0  0  0  0  0  0  0  0  0
   -1.7472   -0.3707   -1.9241 C   0  0  0  0  0  0  0  0  0  0  0  0
   -1.6623    0.4100   -2.8832 O   0  0  0  0  0  0  0  0  0  0  0  0
   -2.3042    0.0539   -0.7301 N   0  0  0  0  0  0  0  0  0  0  0  0
   -2.7019   -0.6495    0.4222 C   0  0  0  0  0  0  0  0  0  0  0  0
   -2.9102   -1.9998    0.6266 C   0  0  0  0  0  0  0  0  0  0  0  0
   -3.3273   -2.4341    1.8919 C   0  0  0  0  0  0  0  0  0  0  0  0
   -3.5423   -1.5221    2.9322 C   0  0  0  0  0  0  0  0  0  0  0  0
   -3.3553   -0.1610    2.7181 C   0  0  0  0  0  0  0  0  0  0  0  0
   -2.9503    0.2557    1.4578 C   0  0  0  0  0  0  0  0  0  0  0  0
   -2.6704    1.6576    1.0277 C   0  0  0  0  0  0  0  0  0  0  0  0
   -2.5630    1.4912   -0.4998 C   0  0  0  0  0  0  0  0  0  0  0  0
   -3.8470    1.9445   -1.2032 C   0  0  0  0  0  0  0  0  0  0  0  0
    2.7828   -0.9339   -2.4845 C   0  0  0  0  0  0  0  0  0  0  0  0
    3.2565   -1.3215   -3.8576 C   0  0  0  0  0  0  0  0  0  0  0  0
    3.6838   -0.3499   -1.5833 C   0  0  0  0  0  0  0  0  0  0  0  0
    3.2615    0.0444   -0.3075 C   0  0  0  0  0  0  0  0  0  0  0  0
    4.1414    0.6315    0.6224 C   0  0  0  0  0  0  0  0  0  0  0  0
    4.2120    2.6012    3.2466 H   0  0  0  0  0  0  0  0  0  0  0  0
    4.7524    0.9684    3.7319 H   0  0  0  0  0  0  0  0  0  0  0  0
    5.6022    1.8522    2.4454 H   0  0  0  0  0  0  0  0  0  0  0  0
    1.9449    1.1567    3.1656 H   0  0  0  0  0  0  0  0  0  0  0  0
    0.4195    0.1082    1.5357 H   0  0  0  0  0  0  0  0  0  0  0  0
   -2.0271   -2.4119   -2.4714 H   0  0  0  0  0  0  0  0  0  0  0  0
   -0.9605   -2.2247   -1.0638 H   0  0  0  0  0  0  0  0  0  0  0  0
   -2.8018   -2.7393   -0.1544 H   0  0  0  0  0  0  0  0  0  0  0  0
   -3.4926   -3.4942    2.0630 H   0  0  0  0  0  0  0  0  0  0  0  0
   -3.8688   -1.8774    3.9102 H   0  0  0  0  0  0  0  0  0  0  0  0
   -3.5254    0.5539    3.5173 H   0  0  0  0  0  0  0  0  0  0  0  0
   -1.7103    1.9780    1.4522 H   0  0  0  0  0  0  0  0  0  0  0  0
   -3.4558    2.3482    1.3386 H   0  0  0  0  0  0  0  0  0  0  0  0
   -1.7245    2.0791   -0.8887 H   0  0  0  0  0  0  0  0  0  0  0  0
   -4.0955    2.9721   -0.9309 H   0  0  0  0  0  0  0  0  0  0  0  0
   -3.7387    1.9033   -2.2941 H   0  0  0  0  0  0  0  0  0  0  0  0
   -4.6916    1.2996   -0.9414 H   0  0  0  0  0  0  0  0  0  0  0  0
    4.3203   -1.0902   -3.9949 H   0  0  0  0  0  0  0  0  0  0  0  0
    3.1418   -2.4042   -4.0162 H   0  0  0  0  0  0  0  0  0  0  0  0
    2.6999   -0.7671   -4.6231 H   0  0  0  0  0  0  0  0  0  0  0  0
    4.7214   -0.1985   -1.8786 H   0  0  0  0  0  0  0  0  0  0  0  0
    5.1918    0.7654    0.3629 H   0  0  0  0  0  0  0  0  0  0  0  0
  1  2  1  0
  2  3  2  0
  3  4  1  0
  4  5  2  0
  5  6  1  0
  6  7  2  0
  7  8  1  0
  8  9  1  0
  9 10  1  0
 10 11  2  0
 10 12  1  0
 12 13  1  0
 13 14  2  0
 14 15  1  0
 15 16  2  0
 16 17  1  0
 17 18  2  0
 18 19  1  0
 19 20  1  0
 20 21  1  0
  7 22  1  0
 22 23  1  0
 22 24  2  0
 24 25  1  0
 25 26  2  0
 26  2  1  0
 25  5  1  0
 20 12  1  0
 18 13  1  0
  1 27  1  0
  1 28  1  0
  1 29  1  0
  3 30  1  0
  4 31  1  0
  9 32  1  0
  9 33  1  0
 14 34  1  0
 15 35  1  0
 16 36  1  0
 17 37  1  0
 19 38  1  0
 19 39  1  0
 20 40  1  0
 21 41  1  0
 21 42  1  0
 21 43  1  0
 23 44  1  0
 23 45  1  0
 23 46  1  0
 24 47  1  0
 26 48  1  0
M  END
$$$$
