
     RDKit          3D

 50 53  0  0  0  0  0  0  0  0999 V2000
   -6.2329   -0.4632    0.9080 C   0  0  0  0  0  0  0  0  0  0  0  0
   -5.0396    0.1510    0.1764 C   0  0  0  0  0  0  0  0  0  0  0  0
   -5.0109   -0.3072   -1.2866 C   0  0  0  0  0  0  0  0  0  0  0  0
   -3.7802    0.2253   -2.0308 C   0  0  0  0  0  0  0  0  0  0  0  0
   -3.8776    1.7311   -2.2976 C   0  0  0  0  0  0  0  0  0  0  0  0
   -2.4907   -0.1253   -1.2716 C   0  0  0  0  0  0  0  0  0  0  0  0
   -2.5749    0.2936    0.1305 N   0  0  0  0  0  0  0  0  0  0  0  0
   -1.3611    0.1900    0.8209 C   0  0  0  0  0  0  0  0  0  0  0  0
   -1.3742    0.0874    2.1625 N   0  0  0  0  0  0  0  0  0  0  0  0
   -0.1913    0.0300    2.8115 C   0  0  0  0  0  0  0  0  0  0  0  0
    1.0188    0.0672    2.1682 C   0  0  0  0  0  0  0  0  0  0  0  0
    0.9650    0.1622    0.7970 C   0  0  0  0  0  0  0  0  0  0  0  0
   -0.2070    0.2288    0.1249 N   0  0  0  0  0  0  0  0  0  0  0  0
    2.2227    0.2410   -0.0248 C   0  0  0  0  0  0  0  0  0  0  0  0
    3.3822   -0.4782    0.6808 C   0  0  0  0  0  0  0  0  0  0  0  0
    4.6647   -0.4168   -0.1307 C   0  0  0  0  0  0  0  0  0  0  0  0
    5.2916    0.8034   -0.4311 C   0  0  0  0  0  0  0  0  0  0  0  0
    6.4706    0.8332   -1.1808 C   0  0  0  0  0  0  0  0  0  0  0  0
    7.0331   -0.3558   -1.6364 C   0  0  0  0  0  0  0  0  0  0  0  0
    8.4842   -0.3181   -2.5593 Cl  0  0  0  0  0  0  0  0  0  0  0  0
    6.4265   -1.5750   -1.3486 C   0  0  0  0  0  0  0  0  0  0  0  0
    5.2475   -1.6053   -0.5991 C   0  0  0  0  0  0  0  0  0  0  0  0
    3.5738    0.0838    2.0950 C   0  0  0  0  0  0  0  0  0  0  0  0
    2.2940    0.0064    2.8980 C   0  0  0  0  0  0  0  0  0  0  0  0
    2.2951   -0.0565    4.1233 O   0  0  0  0  0  0  0  0  0  0  0  0
   -3.7257   -0.2074    0.8882 C   0  0  0  0  0  0  0  0  0  0  0  0
   -6.2748   -0.1129    1.9447 H   0  0  0  0  0  0  0  0  0  0  0  0
   -7.1728   -0.1822    0.4213 H   0  0  0  0  0  0  0  0  0  0  0  0
   -6.1725   -1.5567    0.9223 H   0  0  0  0  0  0  0  0  0  0  0  0
   -5.1622    1.2413    0.2012 H   0  0  0  0  0  0  0  0  0  0  0  0
   -5.9271    0.0108   -1.7992 H   0  0  0  0  0  0  0  0  0  0  0  0
   -4.9973   -1.4046   -1.3244 H   0  0  0  0  0  0  0  0  0  0  0  0
   -3.7400   -0.2684   -3.0107 H   0  0  0  0  0  0  0  0  0  0  0  0
   -3.0382    2.0645   -2.9174 H   0  0  0  0  0  0  0  0  0  0  0  0
   -3.8604    2.3192   -1.3750 H   0  0  0  0  0  0  0  0  0  0  0  0
   -4.8013    1.9698   -2.8350 H   0  0  0  0  0  0  0  0  0  0  0  0
   -1.6549    0.3587   -1.7928 H   0  0  0  0  0  0  0  0  0  0  0  0
   -2.3261   -1.2103   -1.3220 H   0  0  0  0  0  0  0  0  0  0  0  0
   -0.2612   -0.0450    3.8933 H   0  0  0  0  0  0  0  0  0  0  0  0
    2.0465   -0.2117   -1.0087 H   0  0  0  0  0  0  0  0  0  0  0  0
    2.4523    1.3006   -0.1915 H   0  0  0  0  0  0  0  0  0  0  0  0
    3.0950   -1.5354    0.7877 H   0  0  0  0  0  0  0  0  0  0  0  0
    4.8727    1.7467   -0.0869 H   0  0  0  0  0  0  0  0  0  0  0  0
    6.9436    1.7859   -1.4046 H   0  0  0  0  0  0  0  0  0  0  0  0
    6.8643   -2.5044   -1.7031 H   0  0  0  0  0  0  0  0  0  0  0  0
    4.7900   -2.5696   -0.3855 H   0  0  0  0  0  0  0  0  0  0  0  0
    4.3407   -0.4988    2.6199 H   0  0  0  0  0  0  0  0  0  0  0  0
    3.8948    1.1318    2.0823 H   0  0  0  0  0  0  0  0  0  0  0  0
   -3.7681    0.2413    1.8892 H   0  0  0  0  0  0  0  0  0  0  0  0
   -3.6468   -1.2962    1.0115 H   0  0  0  0  0  0  0  0  0  0  0  0
  1  2  1  0
  2  3  1  0
  3  4  1  0
  4  5  1  0
  4  6  1  0
  6  7  1  0
  7  8  1  0
  8  9  2  0
  9 10  1  0
 10 11  2  0
 11 12  1  0
 12 13  2  0
 12 14  1  0
 14 15  1  0
 15 16  1  0
 16 17  2  0
 17 18  1  0
 18 19  2  0
 19 20  1  0
 19 21  1  0
 21 22  2  0
 15 23  1  0
 23 24  1  0
 24 25  2  0
  7 26  1  0
 26  2  1  0
 13  8  1  0
 22 16  1  0
 24 11  1  0
  1 27  1  0
  1 28  1  0
  1 29  1  0
  2 30  1  0
  3 31  1  0
  3 32  1  0
  4 33  1  0
  5 34  1  0
  5 35  1  0
  5 36  1  0
  6 37  1  0
  6 38  1  0
 10 39  1  0
 14 40  1  0
 14 41  1  0
 15 42  1  0
 17 43  1  0
 18 44  1  0
 21 45  1  0
 22 46  1  0
 23 47  1  0
 23 48  1  0
 26 49  1  0
 26 50  1  0
M  END
$$$$
