
     RDKit          3D

 38 39  0  0  0  0  0  0  0  0999 V2000
    6.7104    0.9751    0.0919 C   0  0  0  0  0  0  0  0  0  0  0  0
    5.2272    0.7578    0.1001 C   0  0  0  0  0  0  0  0  0  0  0  0
    4.3922    1.5715    0.8673 C   0  0  0  0  0  0  0  0  0  0  0  0
    3.0119    1.3421    0.8947 C   0  0  0  0  0  0  0  0  0  0  0  0
    2.4267    0.2914    0.1696 C   0  0  0  0  0  0  0  0  0  0  0  0
    1.0394    0.1233    0.2418 N   0  0  0  0  0  0  0  0  0  0  0  0
    0.1416   -0.7867   -0.3115 C   0  0  0  0  0  0  0  0  0  0  0  0
    0.5372   -1.7660   -1.1030 N   0  0  0  0  0  0  0  0  0  0  0  0
   -0.4486   -2.5344   -1.5319 C   0  0  0  0  0  0  0  0  0  0  0  0
    0.0016   -3.8189   -2.5665 Cl  0  0  0  0  0  0  0  0  0  0  0  0
   -1.7415   -2.4279   -1.2710 N   0  0  0  0  0  0  0  0  0  0  0  0
   -2.0353   -1.4202   -0.4738 C   0  0  0  0  0  0  0  0  0  0  0  0
   -3.3748   -1.2916   -0.1669 N   0  0  0  0  0  0  0  0  0  0  0  0
   -4.0069    0.0039    0.1016 C   0  0  0  0  0  0  0  0  0  0  0  0
   -3.7612    0.9989   -1.0418 C   0  0  0  0  0  0  0  0  0  0  0  0
   -5.5248   -0.2605    0.1942 C   0  0  0  0  0  0  0  0  0  0  0  0
   -3.5511    0.5850    1.4480 C   0  0  0  0  0  0  0  0  0  0  0  0
   -1.1325   -0.5832    0.0201 N   0  0  0  0  0  0  0  0  0  0  0  0
    3.2768   -0.5234   -0.5827 C   0  0  0  0  0  0  0  0  0  0  0  0
    4.6595   -0.2992   -0.6147 C   0  0  0  0  0  0  0  0  0  0  0  0
    7.1776    0.3988    0.8963 H   0  0  0  0  0  0  0  0  0  0  0  0
    7.1453    0.6655   -0.8643 H   0  0  0  0  0  0  0  0  0  0  0  0
    6.9509    2.0345    0.2297 H   0  0  0  0  0  0  0  0  0  0  0  0
    4.8065    2.3911    1.4498 H   0  0  0  0  0  0  0  0  0  0  0  0
    2.3930    2.0005    1.4997 H   0  0  0  0  0  0  0  0  0  0  0  0
    0.5353    0.7748    0.8260 H   0  0  0  0  0  0  0  0  0  0  0  0
   -3.8767   -1.8867   -0.8194 H   0  0  0  0  0  0  0  0  0  0  0  0
   -2.7065    1.2826   -1.1205 H   0  0  0  0  0  0  0  0  0  0  0  0
   -4.3332    1.9214   -0.8901 H   0  0  0  0  0  0  0  0  0  0  0  0
   -4.0592    0.5739   -2.0073 H   0  0  0  0  0  0  0  0  0  0  0  0
   -5.7531   -0.9796    0.9899 H   0  0  0  0  0  0  0  0  0  0  0  0
   -6.0797    0.6609    0.4038 H   0  0  0  0  0  0  0  0  0  0  0  0
   -5.9131   -0.6781   -0.7425 H   0  0  0  0  0  0  0  0  0  0  0  0
   -4.1605    1.4525    1.7273 H   0  0  0  0  0  0  0  0  0  0  0  0
   -2.5123    0.9267    1.4262 H   0  0  0  0  0  0  0  0  0  0  0  0
   -3.6381   -0.1576    2.2495 H   0  0  0  0  0  0  0  0  0  0  0  0
    2.8898   -1.3556   -1.1620 H   0  0  0  0  0  0  0  0  0  0  0  0
    5.2864   -0.9623   -1.2070 H   0  0  0  0  0  0  0  0  0  0  0  0
  1  2  1  0
  2  3  2  0
  3  4  1  0
  4  5  2  0
  5  6  1  0
  6  7  1  0
  7  8  2  0
  8  9  1  0
  9 10  1  0
  9 11  2  0
 11 12  1  0
 12 13  1  0
 13 14  1  0
 14 15  1  0
 14 16  1  0
 14 17  1  0
 12 18  2  0
  5 19  1  0
 19 20  2  0
 20  2  1  0
 18  7  1  0
  1 21  1  0
  1 22  1  0
  1 23  1  0
  3 24  1  0
  4 25  1  0
  6 26  1  0
 13 27  1  0
 15 28  1  0
 15 29  1  0
 15 30  1  0
 16 31  1  0
 16 32  1  0
 16 33  1  0
 17 34  1  0
 17 35  1  0
 17 36  1  0
 19 37  1  0
 20 38  1  0
M  END
$$$$
