
     RDKit          3D

 50 53  0  0  0  0  0  0  0  0999 V2000
   -9.6327    1.3320   -0.9644 C   0  0  0  0  0  0  0  0  0  0  0  0
   -8.2204    0.8235   -1.0227 C   0  0  0  0  0  0  0  0  0  0  0  0
   -7.8526   -0.1308   -1.9749 C   0  0  0  0  0  0  0  0  0  0  0  0
   -6.5470   -0.6355   -2.0194 C   0  0  0  0  0  0  0  0  0  0  0  0
   -5.5910   -0.1914   -1.0864 C   0  0  0  0  0  0  0  0  0  0  0  0
   -4.2733   -0.6096   -1.0113 N   0  0  0  0  0  0  0  0  0  0  0  0
   -3.6658   -0.0346    0.0075 C   0  0  0  0  0  0  0  0  0  0  0  0
   -2.2664   -0.3030    0.3840 C   0  0  0  0  0  0  0  0  0  0  0  0
   -1.8033   -0.2091    1.7035 C   0  0  0  0  0  0  0  0  0  0  0  0
   -0.4753   -0.5205    2.0300 C   0  0  0  0  0  0  0  0  0  0  0  0
    0.4210   -0.9335    1.0443 C   0  0  0  0  0  0  0  0  0  0  0  0
    1.7604   -1.2966    1.2963 N   0  0  0  0  0  0  0  0  0  0  0  0
    2.4427   -1.1992    2.4905 C   0  0  0  0  0  0  0  0  0  0  0  0
    2.0339   -0.6772    3.5242 O   0  0  0  0  0  0  0  0  0  0  0  0
    3.8421   -1.7836    2.4519 C   0  0  0  0  0  0  0  0  0  0  0  0
    4.8242   -0.8168    1.8071 C   0  0  0  0  0  0  0  0  0  0  0  0
    5.0683   -1.2121    0.0875 S   0  0  0  0  0  6  0  0  0  0  0  0
    3.7723   -1.2097   -0.5670 O   0  0  0  0  0  0  0  0  0  0  0  0
    5.9148   -2.3886    0.0238 O   0  0  0  0  0  0  0  0  0  0  0  0
    5.9936    0.1676   -0.5316 C   0  0  0  0  0  0  0  0  0  0  0  0
    5.3217    1.3541   -0.8509 C   0  0  0  0  0  0  0  0  0  0  0  0
    6.0448    2.4376   -1.3510 C   0  0  0  0  0  0  0  0  0  0  0  0
    7.4253    2.3293   -1.5372 C   0  0  0  0  0  0  0  0  0  0  0  0
    8.0886    1.1368   -1.2259 C   0  0  0  0  0  0  0  0  0  0  0  0
    7.3734    0.0481   -0.7242 C   0  0  0  0  0  0  0  0  0  0  0  0
   -0.0299   -1.0258   -0.2766 C   0  0  0  0  0  0  0  0  0  0  0  0
   -1.3571   -0.7170   -0.6013 C   0  0  0  0  0  0  0  0  0  0  0  0
   -4.6290    1.0972    0.8768 S   0  0  0  0  0  0  0  0  0  0  0  0
   -5.9753    0.7485   -0.1319 C   0  0  0  0  0  0  0  0  0  0  0  0
   -7.2809    1.2677   -0.0800 C   0  0  0  0  0  0  0  0  0  0  0  0
  -10.2114    0.7455   -0.2449 H   0  0  0  0  0  0  0  0  0  0  0  0
  -10.1168    1.2666   -1.9454 H   0  0  0  0  0  0  0  0  0  0  0  0
   -9.6531    2.3846   -0.6629 H   0  0  0  0  0  0  0  0  0  0  0  0
   -8.5795   -0.4934   -2.6985 H   0  0  0  0  0  0  0  0  0  0  0  0
   -6.2638   -1.3740   -2.7635 H   0  0  0  0  0  0  0  0  0  0  0  0
   -2.4694    0.0824    2.5132 H   0  0  0  0  0  0  0  0  0  0  0  0
   -0.1845   -0.4508    3.0738 H   0  0  0  0  0  0  0  0  0  0  0  0
    2.2873   -1.6031    0.4746 H   0  0  0  0  0  0  0  0  0  0  0  0
    3.8175   -2.7650    1.9606 H   0  0  0  0  0  0  0  0  0  0  0  0
    4.1367   -1.9630    3.4955 H   0  0  0  0  0  0  0  0  0  0  0  0
    4.4779    0.2199    1.8736 H   0  0  0  0  0  0  0  0  0  0  0  0
    5.8065   -0.8969    2.2848 H   0  0  0  0  0  0  0  0  0  0  0  0
    4.2437    1.4421   -0.7261 H   0  0  0  0  0  0  0  0  0  0  0  0
    5.5332    3.3654   -1.6070 H   0  0  0  0  0  0  0  0  0  0  0  0
    7.9846    3.1748   -1.9371 H   0  0  0  0  0  0  0  0  0  0  0  0
    9.1624    1.0547   -1.3850 H   0  0  0  0  0  0  0  0  0  0  0  0
    7.8958   -0.8822   -0.5007 H   0  0  0  0  0  0  0  0  0  0  0  0
    0.6395   -1.3468   -1.0726 H   0  0  0  0  0  0  0  0  0  0  0  0
   -1.6817   -0.8070   -1.6368 H   0  0  0  0  0  0  0  0  0  0  0  0
   -7.5518    1.9978    0.6771 H   0  0  0  0  0  0  0  0  0  0  0  0
  1  2  1  0
  2  3  2  0
  3  4  1  0
  4  5  2  0
  5  6  1  0
  6  7  2  0
  7  8  1  0
  8  9  2  0
  9 10  1  0
 10 11  2  0
 11 12  1  0
 12 13  1  0
 13 14  2  0
 13 15  1  0
 15 16  1  0
 16 17  1  0
 17 18  2  0
 17 19  2  0
 17 20  1  0
 20 21  2  0
 21 22  1  0
 22 23  2  0
 23 24  1  0
 24 25  2  0
 11 26  1  0
 26 27  2  0
  7 28  1  0
 28 29  1  0
 29 30  2  0
 30  2  1  0
 29  5  1  0
 27  8  1  0
 25 20  1  0
  1 31  1  0
  1 32  1  0
  1 33  1  0
  3 34  1  0
  4 35  1  0
  9 36  1  0
 10 37  1  0
 12 38  1  0
 15 39  1  0
 15 40  1  0
 16 41  1  0
 16 42  1  0
 21 43  1  0
 22 44  1  0
 23 45  1  0
 24 46  1  0
 25 47  1  0
 26 48  1  0
 27 49  1  0
 30 50  1  0
M  END
$$$$
