
     RDKit          3D

 50 53  0  0  0  0  0  0  0  0999 V2000
    0.1651   -1.9225   -3.9938 C   0  0  0  0  0  0  0  0  0  0  0  0
    0.1726   -0.8503   -3.0497 O   0  0  0  0  0  0  0  0  0  0  0  0
   -0.4015   -1.1651   -1.8612 C   0  0  0  0  0  0  0  0  0  0  0  0
   -0.8742   -2.2456   -1.5518 O   0  0  0  0  0  0  0  0  0  0  0  0
   -0.3602    0.0253   -0.9829 C   0  0  0  0  0  0  0  0  0  0  0  0
   -1.4434    0.4789   -0.3063 C   0  0  0  0  0  0  0  0  0  0  0  0
   -2.7908   -0.1054   -0.4110 C   0  0  0  0  0  0  0  0  0  0  0  0
   -3.3990   -0.6889    0.7072 C   0  0  0  0  0  0  0  0  0  0  0  0
   -4.6781   -1.2410    0.6121 C   0  0  0  0  0  0  0  0  0  0  0  0
   -5.3615   -1.2139   -0.6035 C   0  0  0  0  0  0  0  0  0  0  0  0
   -4.7660   -0.6323   -1.7267 C   0  0  0  0  0  0  0  0  0  0  0  0
   -5.4641   -0.6040   -2.9782 C   0  0  0  0  0  0  0  0  0  0  0  0
   -6.0264   -0.5745   -3.9932 N   0  0  0  0  0  0  0  0  0  0  0  0
   -3.4853   -0.0753   -1.6284 C   0  0  0  0  0  0  0  0  0  0  0  0
   -1.2978    1.6662    0.6424 C   0  0  0  0  0  0  0  0  0  0  0  0
    0.1094    2.3074    0.5753 C   0  0  0  0  0  0  0  0  0  0  0  0
    0.3414    3.0403   -0.7600 C   0  0  0  0  0  0  0  0  0  0  0  0
    1.0118    1.9957   -1.6748 C   0  0  0  0  0  0  0  0  0  0  0  0
    0.9913    0.6990   -0.8517 C   0  0  0  0  0  0  0  0  0  0  0  0
    1.0793    1.2215    0.5102 N   0  0  0  0  0  0  0  0  0  0  0  0
    2.2369    1.2738    1.2567 C   0  0  0  0  0  0  0  0  0  0  0  0
    2.4797    2.1776    2.0488 O   0  0  0  0  0  0  0  0  0  0  0  0
    3.0768    0.2118    1.0459 N   0  0  0  0  0  0  0  0  0  0  0  0
    4.3025    0.0626    1.7967 C   0  0  0  0  0  0  0  0  0  0  0  0
    4.1705   -0.8194    3.0036 C   0  0  0  0  0  0  0  0  0  0  0  0
    2.8764   -1.0305    3.7538 C   0  0  0  0  0  0  0  0  0  0  0  0
    3.4719   -2.1583    2.9539 C   0  0  0  0  0  0  0  0  0  0  0  0
    0.7556   -2.7647   -3.6199 H   0  0  0  0  0  0  0  0  0  0  0  0
    0.6231   -1.5618   -4.9189 H   0  0  0  0  0  0  0  0  0  0  0  0
   -0.8610   -2.2338   -4.2140 H   0  0  0  0  0  0  0  0  0  0  0  0
   -2.8738   -0.7358    1.6592 H   0  0  0  0  0  0  0  0  0  0  0  0
   -5.1365   -1.7000    1.4850 H   0  0  0  0  0  0  0  0  0  0  0  0
   -6.3558   -1.6521   -0.6685 H   0  0  0  0  0  0  0  0  0  0  0  0
   -3.0295    0.3824   -2.5048 H   0  0  0  0  0  0  0  0  0  0  0  0
   -1.4617    1.3117    1.6684 H   0  0  0  0  0  0  0  0  0  0  0  0
   -2.0609    2.4244    0.4295 H   0  0  0  0  0  0  0  0  0  0  0  0
    0.2625    2.9736    1.4302 H   0  0  0  0  0  0  0  0  0  0  0  0
   -0.5828    3.4377   -1.1918 H   0  0  0  0  0  0  0  0  0  0  0  0
    1.0276    3.8834   -0.6165 H   0  0  0  0  0  0  0  0  0  0  0  0
    2.0480    2.3014   -1.8655 H   0  0  0  0  0  0  0  0  0  0  0  0
    0.5080    1.9124   -2.6433 H   0  0  0  0  0  0  0  0  0  0  0  0
    1.8209    0.0352   -1.1085 H   0  0  0  0  0  0  0  0  0  0  0  0
    2.6170   -0.6426    0.7762 H   0  0  0  0  0  0  0  0  0  0  0  0
    5.0371   -0.3783    1.1148 H   0  0  0  0  0  0  0  0  0  0  0  0
    4.6758    1.0469    2.0988 H   0  0  0  0  0  0  0  0  0  0  0  0
    5.0777   -0.7674    3.5994 H   0  0  0  0  0  0  0  0  0  0  0  0
    1.9653   -0.5699    3.3920 H   0  0  0  0  0  0  0  0  0  0  0  0
    2.9274   -1.0890    4.8357 H   0  0  0  0  0  0  0  0  0  0  0  0
    2.9585   -2.4648    2.0510 H   0  0  0  0  0  0  0  0  0  0  0  0
    3.9199   -2.9820    3.4996 H   0  0  0  0  0  0  0  0  0  0  0  0
  1  2  1  0
  2  3  1  0
  3  4  2  0
  3  5  1  0
  5  6  2  0
  6  7  1  0
  7  8  2  0
  8  9  1  0
  9 10  2  0
 10 11  1  0
 11 12  1  0
 12 13  3  0
 11 14  2  0
  6 15  1  0
 15 16  1  0
 16 17  1  0
 17 18  1  0
 18 19  1  0
 19 20  1  0
 20 21  1  0
 21 22  2  0
 21 23  1  0
 23 24  1  0
 24 25  1  0
 25 26  1  0
 26 27  1  0
 19  5  1  0
 27 25  1  0
 14  7  1  0
 20 16  1  0
  1 28  1  0
  1 29  1  0
  1 30  1  0
  8 31  1  0
  9 32  1  0
 10 33  1  0
 14 34  1  0
 15 35  1  0
 15 36  1  0
 16 37  1  0
 17 38  1  0
 17 39  1  0
 18 40  1  0
 18 41  1  0
 19 42  1  0
 23 43  1  0
 24 44  1  0
 24 45  1  0
 25 46  1  0
 26 47  1  0
 26 48  1  0
 27 49  1  0
 27 50  1  0
M  END
$$$$
