
     RDKit          3D

 39 41  0  0  0  0  0  0  0  0999 V2000
    1.0906    3.2878    0.8017 S   0  0  0  0  0  0  0  0  0  0  0  0
    0.5066    1.7252    0.9469 C   0  0  0  0  0  0  0  0  0  0  0  0
    1.1597    0.8893    1.8084 N   0  0  0  0  0  0  0  0  0  0  0  0
    1.3199   -0.5579    1.6511 C   0  0  0  0  0  0  0  0  0  0  0  0
    2.6609   -0.9303    1.0076 C   0  0  0  0  0  0  0  0  0  0  0  0
    2.8123   -0.5459   -0.4564 C   0  0  0  0  0  0  0  0  0  0  0  0
    4.3102   -0.4197   -0.5824 C   0  0  0  0  0  0  0  0  0  0  0  0
    4.6833    0.2018    0.7461 C   0  0  0  0  0  0  0  0  0  0  0  0
    3.7507   -0.3002    1.7155 O   0  0  0  0  0  0  0  0  0  0  0  0
   -0.5756    1.1909    0.2662 N   0  0  0  0  0  0  0  0  0  0  0  0
   -1.0273    1.7622   -1.0060 C   0  0  0  0  0  0  0  0  0  0  0  0
   -1.7021    0.6963   -1.8692 C   0  0  0  0  0  0  0  0  0  0  0  0
   -2.7185   -0.1102   -1.1012 C   0  0  0  0  0  0  0  0  0  0  0  0
   -3.6726   -0.8702   -1.7916 C   0  0  0  0  0  0  0  0  0  0  0  0
   -4.5948   -1.6481   -1.0927 C   0  0  0  0  0  0  0  0  0  0  0  0
   -4.5675   -1.6787    0.2991 C   0  0  0  0  0  0  0  0  0  0  0  0
   -3.6144   -0.9346    0.9947 C   0  0  0  0  0  0  0  0  0  0  0  0
   -2.6744   -0.1546    0.3041 C   0  0  0  0  0  0  0  0  0  0  0  0
   -1.6758    0.6680    1.0848 C   0  0  0  0  0  0  0  0  0  0  0  0
    1.9550    1.3294    2.2626 H   0  0  0  0  0  0  0  0  0  0  0  0
    1.2843   -0.9630    2.6679 H   0  0  0  0  0  0  0  0  0  0  0  0
    0.5032   -0.9913    1.0690 H   0  0  0  0  0  0  0  0  0  0  0  0
    2.8067   -2.0133    1.1091 H   0  0  0  0  0  0  0  0  0  0  0  0
    2.3819   -1.2891   -1.1336 H   0  0  0  0  0  0  0  0  0  0  0  0
    2.3494    0.4200   -0.6782 H   0  0  0  0  0  0  0  0  0  0  0  0
    4.7604   -1.4156   -0.6703 H   0  0  0  0  0  0  0  0  0  0  0  0
    4.6305    0.1790   -1.4389 H   0  0  0  0  0  0  0  0  0  0  0  0
    4.5794    1.2917    0.7172 H   0  0  0  0  0  0  0  0  0  0  0  0
    5.7032   -0.0443    1.0544 H   0  0  0  0  0  0  0  0  0  0  0  0
   -0.1768    2.1744   -1.5598 H   0  0  0  0  0  0  0  0  0  0  0  0
   -1.7174    2.5868   -0.7854 H   0  0  0  0  0  0  0  0  0  0  0  0
   -0.9411    0.0015   -2.2467 H   0  0  0  0  0  0  0  0  0  0  0  0
   -2.1738    1.1808   -2.7318 H   0  0  0  0  0  0  0  0  0  0  0  0
   -3.7010   -0.8595   -2.8788 H   0  0  0  0  0  0  0  0  0  0  0  0
   -5.3348   -2.2312   -1.6348 H   0  0  0  0  0  0  0  0  0  0  0  0
   -5.2892   -2.2822    0.8435 H   0  0  0  0  0  0  0  0  0  0  0  0
   -3.6085   -0.9655    2.0822 H   0  0  0  0  0  0  0  0  0  0  0  0
   -2.1965    1.5347    1.5135 H   0  0  0  0  0  0  0  0  0  0  0  0
   -1.2860    0.0857    1.9254 H   0  0  0  0  0  0  0  0  0  0  0  0
  1  2  2  0
  2  3  1  0
  3  4  1  0
  4  5  1  0
  5  6  1  0
  6  7  1  0
  7  8  1  0
  8  9  1  0
  2 10  1  0
 10 11  1  0
 11 12  1  0
 12 13  1  0
 13 14  2  0
 14 15  1  0
 15 16  2  0
 16 17  1  0
 17 18  2  0
 18 19  1  0
  9  5  1  0
 19 10  1  0
 18 13  1  0
  3 20  1  0
  4 21  1  0
  4 22  1  0
  5 23  1  0
  6 24  1  0
  6 25  1  0
  7 26  1  0
  7 27  1  0
  8 28  1  0
  8 29  1  0
 11 30  1  0
 11 31  1  0
 12 32  1  0
 12 33  1  0
 14 34  1  0
 15 35  1  0
 16 36  1  0
 17 37  1  0
 19 38  1  0
 19 39  1  0
M  END
$$$$
