
     RDKit          3D

 42 42  0  0  0  0  0  0  0  0999 V2000
   -0.8183   -4.4739    2.0533 C   0  0  0  0  0  0  0  0  0  0  0  0
   -0.6599   -2.9688    1.8918 C   0  0  0  0  0  0  0  0  0  0  0  0
   -1.9969   -2.2983    1.5893 C   0  0  0  0  0  0  0  0  0  0  0  0
   -1.9824   -0.7598    1.5664 C   0  0  0  0  0  0  0  0  0  0  0  0
   -1.1049   -0.0202    0.5259 C   0  0  0  0  0  0  0  0  0  0  0  0
   -1.6656    1.3799    0.3285 C   0  0  0  0  0  0  0  0  0  0  0  0
   -2.1213    2.0618    1.2403 O   0  0  0  0  0  0  0  0  0  0  0  0
   -1.5295    1.8167   -0.9515 O   0  0  0  0  0  0  0  0  0  0  0  0
   -2.0230    3.1407   -1.1914 C   0  0  0  0  0  0  0  0  0  0  0  0
   -1.8150    3.4618   -2.6585 C   0  0  0  0  0  0  0  0  0  0  0  0
    0.3540    0.1127    0.9551 C   0  0  0  0  0  0  0  0  0  0  0  0
    1.1114    0.0125   -0.3568 C   0  0  0  0  0  0  0  0  0  0  0  0
    2.5172   -0.5613   -0.1642 C   0  0  0  0  0  0  0  0  0  0  0  0
    3.5202   -0.4717   -1.6823 S   0  0  0  0  0  0  0  0  0  0  0  0
    3.9360    1.2152   -1.7184 C   0  0  0  0  0  0  0  0  0  0  0  0
    3.5035    2.0321   -0.8285 N   0  0  0  0  0  0  0  0  0  0  0  0
    4.7211    1.5770   -2.7554 N   0  0  0  0  0  0  0  0  0  0  0  0
    0.3116   -0.8634   -1.1621 O   0  0  0  0  0  0  0  0  0  0  0  0
   -0.9944   -0.7715   -0.7744 C   0  0  0  0  0  0  0  0  0  0  0  0
   -1.9209   -1.2491   -1.4106 O   0  0  0  0  0  0  0  0  0  0  0  0
   -1.2225   -4.9256    1.1417 H   0  0  0  0  0  0  0  0  0  0  0  0
    0.1518   -4.9364    2.2604 H   0  0  0  0  0  0  0  0  0  0  0  0
   -1.4915   -4.7115    2.8831 H   0  0  0  0  0  0  0  0  0  0  0  0
   -0.2337   -2.5558    2.8129 H   0  0  0  0  0  0  0  0  0  0  0  0
    0.0509   -2.7864    1.0800 H   0  0  0  0  0  0  0  0  0  0  0  0
   -2.7181   -2.6020    2.3600 H   0  0  0  0  0  0  0  0  0  0  0  0
   -2.3975   -2.6855    0.6459 H   0  0  0  0  0  0  0  0  0  0  0  0
   -3.0282   -0.4552    1.4151 H   0  0  0  0  0  0  0  0  0  0  0  0
   -1.7218   -0.3996    2.5713 H   0  0  0  0  0  0  0  0  0  0  0  0
   -3.0907    3.1870   -0.9488 H   0  0  0  0  0  0  0  0  0  0  0  0
   -1.4711    3.8573   -0.5730 H   0  0  0  0  0  0  0  0  0  0  0  0
   -2.3440    2.7402   -3.2901 H   0  0  0  0  0  0  0  0  0  0  0  0
   -0.7537    3.3957   -2.9206 H   0  0  0  0  0  0  0  0  0  0  0  0
   -2.1752    4.4673   -2.8928 H   0  0  0  0  0  0  0  0  0  0  0  0
    0.5817    1.0540    1.4687 H   0  0  0  0  0  0  0  0  0  0  0  0
    0.6520   -0.6900    1.6346 H   0  0  0  0  0  0  0  0  0  0  0  0
    1.1357    0.9896   -0.8520 H   0  0  0  0  0  0  0  0  0  0  0  0
    3.0462   -0.0596    0.6527 H   0  0  0  0  0  0  0  0  0  0  0  0
    2.4477   -1.6239    0.0944 H   0  0  0  0  0  0  0  0  0  0  0  0
    3.8958    2.9569   -1.0217 H   0  0  0  0  0  0  0  0  0  0  0  0
    4.7381    0.8891   -3.5017 H   0  0  0  0  0  0  0  0  0  0  0  0
    4.6052    2.5224   -3.0937 H   0  0  0  0  0  0  0  0  0  0  0  0
  1  2  1  0
  2  3  1  0
  3  4  1  0
  4  5  1  0
  5  6  1  0
  6  7  2  0
  6  8  1  0
  8  9  1  0
  9 10  1  0
  5 11  1  0
 11 12  1  0
 12 13  1  0
 13 14  1  0
 14 15  1  0
 15 16  2  3
 15 17  1  0
 12 18  1  0
 18 19  1  0
 19 20  2  0
 19  5  1  0
  1 21  1  0
  1 22  1  0
  1 23  1  0
  2 24  1  0
  2 25  1  0
  3 26  1  0
  3 27  1  0
  4 28  1  0
  4 29  1  0
  9 30  1  0
  9 31  1  0
 10 32  1  0
 10 33  1  0
 10 34  1  0
 11 35  1  0
 11 36  1  0
 12 37  1  0
 13 38  1  0
 13 39  1  0
 16 40  1  0
 17 41  1  0
 17 42  1  0
M  END
$$$$
