
     RDKit          3D

 32 35  0  0  0  0  0  0  0  0999 V2000
   -5.1304    3.3068   -0.2184 C   0  0  0  0  0  0  0  0  0  0  0  0
   -3.9372    2.5391   -0.1571 O   0  0  0  0  0  0  0  0  0  0  0  0
   -4.0614    1.1789   -0.0283 C   0  0  0  0  0  0  0  0  0  0  0  0
   -5.2851    0.4935    0.0472 C   0  0  0  0  0  0  0  0  0  0  0  0
   -5.3275   -0.8939    0.1778 C   0  0  0  0  0  0  0  0  0  0  0  0
   -4.1536   -1.6443    0.2376 C   0  0  0  0  0  0  0  0  0  0  0  0
   -2.9303   -0.9619    0.1625 C   0  0  0  0  0  0  0  0  0  0  0  0
   -1.3384   -1.6061    0.2085 S   0  0  0  0  0  0  0  0  0  0  0  0
   -0.6690   -0.0279    0.0543 C   0  0  0  0  0  0  0  0  0  0  0  0
    0.6493    0.2655    0.0148 N   0  0  0  0  0  0  0  0  0  0  0  0
    1.7159   -0.5436    0.0811 C   0  0  0  0  0  0  0  0  0  0  0  0
    1.8417   -1.8467    0.2023 N   0  0  0  0  0  0  0  0  0  0  0  0
    3.1937   -2.1169    0.2154 N   0  0  0  0  0  0  0  0  0  0  0  0
    3.8164   -0.9581    0.1010 C   0  0  0  0  0  0  0  0  0  0  0  0
    5.2435   -0.8152    0.0746 C   0  0  0  0  0  0  0  0  0  0  0  0
    6.1833   -1.8256    0.1609 C   0  0  0  0  0  0  0  0  0  0  0  0
    7.5210   -1.3350    0.1028 C   0  0  0  0  0  0  0  0  0  0  0  0
    7.5599    0.0350   -0.0262 C   0  0  0  0  0  0  0  0  0  0  0  0
    5.9928    0.7185   -0.0762 S   0  0  0  0  0  0  0  0  0  0  0  0
    2.9267    0.0869    0.0109 O   0  0  0  0  0  0  0  0  0  0  0  0
   -1.5628    0.9303   -0.0276 N   0  0  0  0  0  0  0  0  0  0  0  0
   -2.8586    0.4241    0.0317 C   0  0  0  0  0  0  0  0  0  0  0  0
   -4.8466    4.3588   -0.3198 H   0  0  0  0  0  0  0  0  0  0  0  0
   -5.7121    3.2073    0.7039 H   0  0  0  0  0  0  0  0  0  0  0  0
   -5.7284    3.0384   -1.0955 H   0  0  0  0  0  0  0  0  0  0  0  0
   -6.2322    1.0226    0.0061 H   0  0  0  0  0  0  0  0  0  0  0  0
   -6.2892   -1.4002    0.2341 H   0  0  0  0  0  0  0  0  0  0  0  0
   -4.1865   -2.7250    0.3394 H   0  0  0  0  0  0  0  0  0  0  0  0
    0.8437    1.2541   -0.0798 H   0  0  0  0  0  0  0  0  0  0  0  0
    5.9213   -2.8733    0.2617 H   0  0  0  0  0  0  0  0  0  0  0  0
    8.4073   -1.9562    0.1530 H   0  0  0  0  0  0  0  0  0  0  0  0
    8.4329    0.6700   -0.0938 H   0  0  0  0  0  0  0  0  0  0  0  0
  1  2  1  0
  2  3  1  0
  3  4  2  0
  4  5  1  0
  5  6  2  0
  6  7  1  0
  7  8  1  0
  8  9  1  0
  9 10  1  0
 10 11  1  0
 11 12  2  0
 12 13  1  0
 13 14  2  0
 14 15  1  0
 15 16  2  0
 16 17  1  0
 17 18  2  0
 18 19  1  0
 14 20  1  0
  9 21  2  0
 21 22  1  0
 22  3  1  0
 22  7  2  0
 20 11  1  0
 19 15  1  0
  1 23  1  0
  1 24  1  0
  1 25  1  0
  4 26  1  0
  5 27  1  0
  6 28  1  0
 10 29  1  0
 16 30  1  0
 17 31  1  0
 18 32  1  0
M  END
$$$$
