
     RDKit          3D

 54 55  0  0  0  0  0  0  0  0999 V2000
   -0.5258    3.2680   -0.3054 C   0  0  0  0  0  0  0  0  0  0  0  0
   -1.1567    1.9944   -0.3797 O   0  0  0  0  0  0  0  0  0  0  0  0
   -0.3374    0.8963   -0.3263 C   0  0  0  0  0  0  0  0  0  0  0  0
    0.9602    0.9143    0.1977 C   0  0  0  0  0  0  0  0  0  0  0  0
    1.7570   -0.2450    0.2036 C   0  0  0  0  0  0  0  0  0  0  0  0
    3.1635   -0.1957    0.7572 C   0  0  0  0  0  0  0  0  0  0  0  0
    3.9718    0.6840   -0.0758 N   0  0  0  0  0  0  0  0  0  0  0  0
    5.3393    0.8194    0.1773 C   0  0  0  0  0  0  0  0  0  0  0  0
    5.9305    0.5517    1.4181 C   0  0  0  0  0  0  0  0  0  0  0  0
    7.2969    0.7760    1.6361 C   0  0  0  0  0  0  0  0  0  0  0  0
    8.0941    1.3042    0.6176 C   0  0  0  0  0  0  0  0  0  0  0  0
    9.5423    1.5633    0.8002 C   0  0  0  0  0  0  0  0  0  0  0  0
   10.2958    2.0254   -0.0367 O   0  0  0  0  0  0  0  0  0  0  0  0
    9.9823    1.2293    2.0269 O   0  0  0  0  0  0  0  0  0  0  0  0
    7.5118    1.6161   -0.6125 C   0  0  0  0  0  0  0  0  0  0  0  0
    6.1471    1.3872   -0.8199 C   0  0  0  0  0  0  0  0  0  0  0  0
    1.2355   -1.4333   -0.3226 C   0  0  0  0  0  0  0  0  0  0  0  0
   -0.0642   -1.4647   -0.8331 C   0  0  0  0  0  0  0  0  0  0  0  0
   -0.7125   -3.1112   -1.5212 Br  0  0  0  0  0  0  0  0  0  0  0  0
   -0.8596   -0.3121   -0.8182 C   0  0  0  0  0  0  0  0  0  0  0  0
   -2.1166   -0.3711   -1.3709 O   0  0  0  0  0  0  0  0  0  0  0  0
   -3.1317   -0.2628   -0.3776 C   0  0  0  0  0  0  0  0  0  0  0  0
   -4.4522   -0.8808   -0.8543 C   0  0  0  0  0  0  0  0  0  0  0  0
   -4.5759   -1.4965   -1.9081 O   0  0  0  0  0  0  0  0  0  0  0  0
   -5.4929   -0.6766    0.0411 N   0  0  0  0  0  0  0  0  0  0  0  0
   -6.8824   -1.1085   -0.1807 C   0  0  0  0  0  0  0  0  0  0  0  0
   -7.4837   -0.4073   -1.4092 C   0  0  0  0  0  0  0  0  0  0  0  0
   -6.9718   -2.6351   -0.3442 C   0  0  0  0  0  0  0  0  0  0  0  0
   -7.7053   -0.7109    1.0592 C   0  0  0  0  0  0  0  0  0  0  0  0
    0.2988    3.3515   -1.0216 H   0  0  0  0  0  0  0  0  0  0  0  0
   -1.2720    4.0251   -0.5667 H   0  0  0  0  0  0  0  0  0  0  0  0
   -0.1869    3.4740    0.7150 H   0  0  0  0  0  0  0  0  0  0  0  0
    1.3893    1.8265    0.6056 H   0  0  0  0  0  0  0  0  0  0  0  0
    3.1102    0.1735    1.7888 H   0  0  0  0  0  0  0  0  0  0  0  0
    3.5949   -1.2043    0.7804 H   0  0  0  0  0  0  0  0  0  0  0  0
    3.7825    0.5567   -1.0681 H   0  0  0  0  0  0  0  0  0  0  0  0
    5.3451    0.1655    2.2474 H   0  0  0  0  0  0  0  0  0  0  0  0
    7.7219    0.5438    2.6099 H   0  0  0  0  0  0  0  0  0  0  0  0
   10.9366    1.4519    2.0003 H   0  0  0  0  0  0  0  0  0  0  0  0
    8.1104    2.0480   -1.4117 H   0  0  0  0  0  0  0  0  0  0  0  0
    5.7147    1.6618   -1.7798 H   0  0  0  0  0  0  0  0  0  0  0  0
    1.8435   -2.3356   -0.3378 H   0  0  0  0  0  0  0  0  0  0  0  0
   -3.3255    0.7946   -0.1641 H   0  0  0  0  0  0  0  0  0  0  0  0
   -2.8459   -0.7819    0.5476 H   0  0  0  0  0  0  0  0  0  0  0  0
   -5.3243   -0.0379    0.8079 H   0  0  0  0  0  0  0  0  0  0  0  0
   -6.9735   -0.6942   -2.3345 H   0  0  0  0  0  0  0  0  0  0  0  0
   -7.4046    0.6826   -1.3174 H   0  0  0  0  0  0  0  0  0  0  0  0
   -8.5435   -0.6593   -1.5294 H   0  0  0  0  0  0  0  0  0  0  0  0
   -8.0152   -2.9656   -0.4053 H   0  0  0  0  0  0  0  0  0  0  0  0
   -6.5051   -3.1486    0.5045 H   0  0  0  0  0  0  0  0  0  0  0  0
   -6.4704   -2.9832   -1.2522 H   0  0  0  0  0  0  0  0  0  0  0  0
   -8.7557   -1.0053    0.9544 H   0  0  0  0  0  0  0  0  0  0  0  0
   -7.6750    0.3732    1.2238 H   0  0  0  0  0  0  0  0  0  0  0  0
   -7.3100   -1.1876    1.9645 H   0  0  0  0  0  0  0  0  0  0  0  0
  1  2  1  0
  2  3  1  0
  3  4  2  0
  4  5  1  0
  5  6  1  0
  6  7  1  0
  7  8  1  0
  8  9  2  0
  9 10  1  0
 10 11  2  0
 11 12  1  0
 12 13  2  0
 12 14  1  0
 11 15  1  0
 15 16  2  0
  5 17  2  0
 17 18  1  0
 18 19  1  0
 18 20  2  0
 20 21  1  0
 21 22  1  0
 22 23  1  0
 23 24  2  0
 23 25  1  0
 25 26  1  0
 26 27  1  0
 26 28  1  0
 26 29  1  0
 20  3  1  0
 16  8  1  0
  1 30  1  0
  1 31  1  0
  1 32  1  0
  4 33  1  0
  6 34  1  0
  6 35  1  0
  7 36  1  0
  9 37  1  0
 10 38  1  0
 14 39  1  0
 15 40  1  0
 16 41  1  0
 17 42  1  0
 22 43  1  0
 22 44  1  0
 25 45  1  0
 27 46  1  0
 27 47  1  0
 27 48  1  0
 28 49  1  0
 28 50  1  0
 28 51  1  0
 29 52  1  0
 29 53  1  0
 29 54  1  0
M  END
$$$$
