
     RDKit          3D

 47 49  0  0  0  0  0  0  0  0999 V2000
   -4.7452    1.4745   -1.9605 C   0  0  0  0  0  0  0  0  0  0  0  0
   -5.5327    0.6797   -0.9249 C   0  0  0  0  0  0  0  0  0  0  0  0
   -4.8498    0.6569    0.3311 O   0  0  0  0  0  0  0  0  0  0  0  0
   -3.8598   -0.2608    0.5337 C   0  0  0  0  0  0  0  0  0  0  0  0
   -3.2274   -0.1554    1.7777 C   0  0  0  0  0  0  0  0  0  0  0  0
   -2.1851   -1.0123    2.1262 C   0  0  0  0  0  0  0  0  0  0  0  0
   -1.7636   -1.9828    1.2156 C   0  0  0  0  0  0  0  0  0  0  0  0
   -0.4333   -3.0868    1.6496 S   0  0  0  0  0  6  0  0  0  0  0  0
   -0.2882   -3.0510    3.0900 O   0  0  0  0  0  0  0  0  0  0  0  0
   -0.6562   -4.3356    0.9506 O   0  0  0  0  0  0  0  0  0  0  0  0
    0.9324   -2.3358    0.9768 N   0  0  0  0  0  0  0  0  0  0  0  0
    1.4032   -1.0870    1.6368 C   0  0  0  0  0  0  0  0  0  0  0  0
    2.5066   -0.3913    0.8250 C   0  0  0  0  0  0  0  0  0  0  0  0
    2.0722   -0.0842   -0.5483 N   0  0  0  0  0  0  0  0  0  0  0  0
    2.4087    1.0620   -1.2570 C   0  0  0  0  0  0  0  0  0  0  0  0
    1.8816    1.3862   -2.3170 O   0  0  0  0  0  0  0  0  0  0  0  0
    3.4762    1.9277   -0.7221 C   0  0  0  0  0  0  0  0  0  0  0  0
    3.1796    3.2498   -0.3832 C   0  0  0  0  0  0  0  0  0  0  0  0
    4.2120    4.0330    0.1097 C   0  0  0  0  0  0  0  0  0  0  0  0
    5.4787    3.5788    0.2685 N   0  0  0  0  0  0  0  0  0  0  0  0
    5.7365    2.2993   -0.1039 C   0  0  0  0  0  0  0  0  0  0  0  0
    4.7758    1.4321   -0.6001 C   0  0  0  0  0  0  0  0  0  0  0  0
    1.0782   -0.9887   -1.1311 C   0  0  0  0  0  0  0  0  0  0  0  0
    1.1059   -2.3841   -0.5008 C   0  0  0  0  0  0  0  0  0  0  0  0
   -2.4129   -2.1260   -0.0133 C   0  0  0  0  0  0  0  0  0  0  0  0
   -3.4524   -1.2546   -0.3571 C   0  0  0  0  0  0  0  0  0  0  0  0
   -3.8062    0.9720   -2.2195 H   0  0  0  0  0  0  0  0  0  0  0  0
   -5.3345    1.6081   -2.8764 H   0  0  0  0  0  0  0  0  0  0  0  0
   -4.4759    2.4625   -1.5656 H   0  0  0  0  0  0  0  0  0  0  0  0
   -6.4866    1.1957   -0.7460 H   0  0  0  0  0  0  0  0  0  0  0  0
   -5.7969   -0.3238   -1.2744 H   0  0  0  0  0  0  0  0  0  0  0  0
   -3.5536    0.6094    2.4801 H   0  0  0  0  0  0  0  0  0  0  0  0
   -1.7143   -0.9161    3.1025 H   0  0  0  0  0  0  0  0  0  0  0  0
    0.5647   -0.3888    1.7559 H   0  0  0  0  0  0  0  0  0  0  0  0
    1.7974   -1.3344    2.6313 H   0  0  0  0  0  0  0  0  0  0  0  0
    3.3871   -1.0418    0.7473 H   0  0  0  0  0  0  0  0  0  0  0  0
    2.8028    0.5238    1.3428 H   0  0  0  0  0  0  0  0  0  0  0  0
    2.1799    3.6593   -0.5044 H   0  0  0  0  0  0  0  0  0  0  0  0
    4.0480    5.0735    0.3984 H   0  0  0  0  0  0  0  0  0  0  0  0
    6.7728    1.9890    0.0054 H   0  0  0  0  0  0  0  0  0  0  0  0
    5.0359    0.4174   -0.8980 H   0  0  0  0  0  0  0  0  0  0  0  0
    0.0942   -0.5251   -0.9832 H   0  0  0  0  0  0  0  0  0  0  0  0
    1.2508   -1.0588   -2.2102 H   0  0  0  0  0  0  0  0  0  0  0  0
    2.0779   -2.8550   -0.6909 H   0  0  0  0  0  0  0  0  0  0  0  0
    0.3559   -3.0193   -0.9786 H   0  0  0  0  0  0  0  0  0  0  0  0
   -2.1186   -2.9069   -0.7111 H   0  0  0  0  0  0  0  0  0  0  0  0
   -3.9219   -1.3843   -1.3269 H   0  0  0  0  0  0  0  0  0  0  0  0
  1  2  1  0
  2  3  1  0
  3  4  1  0
  4  5  2  0
  5  6  1  0
  6  7  2  0
  7  8  1  0
  8  9  2  0
  8 10  2  0
  8 11  1  0
 11 12  1  0
 12 13  1  0
 13 14  1  0
 14 15  1  0
 15 16  2  0
 15 17  1  0
 17 18  2  0
 18 19  1  0
 19 20  2  0
 20 21  1  0
 21 22  2  0
 14 23  1  0
 23 24  1  0
  7 25  1  0
 25 26  2  0
 26  4  1  0
 24 11  1  0
 22 17  1  0
  1 27  1  0
  1 28  1  0
  1 29  1  0
  2 30  1  0
  2 31  1  0
  5 32  1  0
  6 33  1  0
 12 34  1  0
 12 35  1  0
 13 36  1  0
 13 37  1  0
 18 38  1  0
 19 39  1  0
 21 40  1  0
 22 41  1  0
 23 42  1  0
 23 43  1  0
 24 44  1  0
 24 45  1  0
 25 46  1  0
 26 47  1  0
M  END
$$$$
