
     RDKit          3D

 46 47  0  0  0  0  0  0  0  0999 V2000
    0.7738   -1.0992    1.2054 O   0  0  0  0  0  0  0  0  0  0  0  0
    0.7990    0.0087    0.6873 C   0  0  0  0  0  0  0  0  0  0  0  0
   -0.3196    0.7406    0.3804 N   0  0  0  0  0  0  0  0  0  0  0  0
   -1.6685    0.1913    0.5395 C   0  0  0  0  0  0  0  0  0  0  0  0
   -2.6439    1.3510    0.7851 C   0  0  0  0  0  0  0  0  0  0  0  0
   -3.9041    0.9601    1.5656 C   0  0  0  0  0  0  0  0  0  0  0  0
   -5.1917    1.0433    0.7504 C   0  0  0  0  0  0  0  0  0  0  0  0
   -5.5325   -0.2095   -0.0510 C   0  0  0  0  0  0  0  0  0  0  0  0
   -4.5300   -0.5736   -1.1424 C   0  0  0  0  0  0  0  0  0  0  0  0
   -3.3394   -1.3982   -0.6448 C   0  0  0  0  0  0  0  0  0  0  0  0
   -2.0031   -0.6605   -0.6954 C   0  0  0  0  0  0  0  0  0  0  0  0
    1.9504    0.6889    0.3787 N   0  0  0  0  0  0  0  0  0  0  0  0
    3.2576    0.0688    0.5430 C   0  0  0  0  0  0  0  0  0  0  0  0
    4.3432    1.1463    0.6987 C   0  0  0  0  0  0  0  0  0  0  0  0
    5.7381    0.6787    0.2753 C   0  0  0  0  0  0  0  0  0  0  0  0
    5.9099   -0.8250    0.4355 C   0  0  0  0  0  0  0  0  0  0  0  0
    4.9058   -1.6047   -0.4147 C   0  0  0  0  0  0  0  0  0  0  0  0
    3.5780   -0.8720   -0.6222 C   0  0  0  0  0  0  0  0  0  0  0  0
   -0.2061    1.5288   -0.2361 H   0  0  0  0  0  0  0  0  0  0  0  0
   -1.6456   -0.4588    1.4230 H   0  0  0  0  0  0  0  0  0  0  0  0
   -2.1238    2.1052    1.3933 H   0  0  0  0  0  0  0  0  0  0  0  0
   -2.8844    1.8589   -0.1566 H   0  0  0  0  0  0  0  0  0  0  0  0
   -4.0066    1.6810    2.3882 H   0  0  0  0  0  0  0  0  0  0  0  0
   -3.8076   -0.0206    2.0442 H   0  0  0  0  0  0  0  0  0  0  0  0
   -6.0209    1.2117    1.4502 H   0  0  0  0  0  0  0  0  0  0  0  0
   -5.1739    1.9192    0.0908 H   0  0  0  0  0  0  0  0  0  0  0  0
   -6.5023   -0.0293   -0.5331 H   0  0  0  0  0  0  0  0  0  0  0  0
   -5.6871   -1.0584    0.6259 H   0  0  0  0  0  0  0  0  0  0  0  0
   -4.2128    0.3196   -1.6920 H   0  0  0  0  0  0  0  0  0  0  0  0
   -5.0695   -1.1952   -1.8700 H   0  0  0  0  0  0  0  0  0  0  0  0
   -3.2463   -2.2606   -1.3191 H   0  0  0  0  0  0  0  0  0  0  0  0
   -3.5139   -1.8206    0.3509 H   0  0  0  0  0  0  0  0  0  0  0  0
   -1.9373   -0.0514   -1.6064 H   0  0  0  0  0  0  0  0  0  0  0  0
   -1.2181   -1.4220   -0.8015 H   0  0  0  0  0  0  0  0  0  0  0  0
    1.8715    1.4258   -0.3031 H   0  0  0  0  0  0  0  0  0  0  0  0
    3.2246   -0.5274    1.4648 H   0  0  0  0  0  0  0  0  0  0  0  0
    4.3660    1.4661    1.7486 H   0  0  0  0  0  0  0  0  0  0  0  0
    4.0918    2.0459    0.1222 H   0  0  0  0  0  0  0  0  0  0  0  0
    6.4971    1.2124    0.8584 H   0  0  0  0  0  0  0  0  0  0  0  0
    5.9061    0.9480   -0.7752 H   0  0  0  0  0  0  0  0  0  0  0  0
    6.9294   -1.1225    0.1653 H   0  0  0  0  0  0  0  0  0  0  0  0
    5.7772   -1.0915    1.4917 H   0  0  0  0  0  0  0  0  0  0  0  0
    5.3421   -1.8243   -1.3967 H   0  0  0  0  0  0  0  0  0  0  0  0
    4.7229   -2.5756    0.0615 H   0  0  0  0  0  0  0  0  0  0  0  0
    2.7785   -1.6080   -0.7695 H   0  0  0  0  0  0  0  0  0  0  0  0
    3.6257   -0.2914   -1.5534 H   0  0  0  0  0  0  0  0  0  0  0  0
  1  2  2  0
  2  3  1  0
  3  4  1  0
  4  5  1  0
  5  6  1  0
  6  7  1  0
  7  8  1  0
  8  9  1  0
  9 10  1  0
 10 11  1  0
  2 12  1  0
 12 13  1  0
 13 14  1  0
 14 15  1  0
 15 16  1  0
 16 17  1  0
 17 18  1  0
 11  4  1  0
 18 13  1  0
  3 19  1  0
  4 20  1  0
  5 21  1  0
  5 22  1  0
  6 23  1  0
  6 24  1  0
  7 25  1  0
  7 26  1  0
  8 27  1  0
  8 28  1  0
  9 29  1  0
  9 30  1  0
 10 31  1  0
 10 32  1  0
 11 33  1  0
 11 34  1  0
 12 35  1  0
 13 36  1  0
 14 37  1  0
 14 38  1  0
 15 39  1  0
 15 40  1  0
 16 41  1  0
 16 42  1  0
 17 43  1  0
 17 44  1  0
 18 45  1  0
 18 46  1  0
M  END
$$$$
