
     RDKit          3D

 50 53  0  0  0  0  0  0  0  0999 V2000
   -7.5400    1.8698    1.8228 C   0  0  0  0  0  0  0  0  0  0  0  0
   -6.2120    1.4147    1.2891 C   0  0  0  0  0  0  0  0  0  0  0  0
   -5.2014    2.3483    1.0398 C   0  0  0  0  0  0  0  0  0  0  0  0
   -3.9628    1.9382    0.5373 C   0  0  0  0  0  0  0  0  0  0  0  0
   -3.7243    0.5855    0.2681 C   0  0  0  0  0  0  0  0  0  0  0  0
   -2.3259    0.1310   -0.2852 C   0  0  0  0  0  0  0  0  0  0  0  0
   -1.2128    0.9413   -0.4814 C   0  0  0  0  0  0  0  0  0  0  0  0
   -0.1572    0.1595   -0.9482 N   0  0  0  0  0  4  0  0  0  0  0  0
    1.2208    0.5972   -1.2164 C   0  0  0  0  0  0  0  0  0  0  0  0
    2.2239   -0.0230   -0.2311 C   0  0  0  0  0  0  0  0  0  0  0  0
    1.8695   -0.9085    0.5435 O   0  0  0  0  0  0  0  0  0  0  0  0
    3.5031    0.4994   -0.3623 N   0  0  0  0  0  0  0  0  0  0  0  0
    4.6596    0.1507    0.3825 C   0  0  0  0  0  0  0  0  0  0  0  0
    4.6234   -0.7632    1.4442 C   0  0  0  0  0  0  0  0  0  0  0  0
    5.7795   -1.0801    2.1630 C   0  0  0  0  0  0  0  0  0  0  0  0
    6.9906   -0.4870    1.8328 C   0  0  0  0  0  0  0  0  0  0  0  0
    7.0470    0.4248    0.7814 C   0  0  0  0  0  0  0  0  0  0  0  0
    5.8933    0.7532    0.0447 C   0  0  0  0  0  0  0  0  0  0  0  0
    6.0381    1.7498   -1.0762 C   0  0  0  0  0  0  0  0  0  0  0  0
   -0.5946   -1.0960   -1.0162 C   0  0  0  0  0  0  0  0  0  0  0  0
   -1.8815   -1.1180   -0.6784 N   0  0  0  0  0  0  0  0  0  0  0  0
   -2.4419   -2.4588   -0.7744 C   0  0  0  0  0  0  0  0  0  0  0  0
   -1.3672   -3.2433   -1.5756 C   0  0  0  0  0  0  0  0  0  0  0  0
   -0.0704   -2.4289   -1.4004 C   0  0  0  0  0  0  0  0  0  0  0  0
   -4.7330   -0.3484    0.5086 C   0  0  0  0  0  0  0  0  0  0  0  0
   -5.9702    0.0657    1.0142 C   0  0  0  0  0  0  0  0  0  0  0  0
   -7.3974    2.4958    2.7091 H   0  0  0  0  0  0  0  0  0  0  0  0
   -8.1666    1.0206    2.1166 H   0  0  0  0  0  0  0  0  0  0  0  0
   -8.0758    2.4416    1.0587 H   0  0  0  0  0  0  0  0  0  0  0  0
   -5.3771    3.4043    1.2399 H   0  0  0  0  0  0  0  0  0  0  0  0
   -3.2121    2.7034    0.3640 H   0  0  0  0  0  0  0  0  0  0  0  0
   -1.0318    1.9908   -0.3232 H   0  0  0  0  0  0  0  0  0  0  0  0
    1.4826    0.2905   -2.2343 H   0  0  0  0  0  0  0  0  0  0  0  0
    1.2688    1.6889   -1.1438 H   0  0  0  0  0  0  0  0  0  0  0  0
    3.6516    1.2075   -1.0697 H   0  0  0  0  0  0  0  0  0  0  0  0
    3.7053   -1.2459    1.7621 H   0  0  0  0  0  0  0  0  0  0  0  0
    5.7281   -1.7880    2.9867 H   0  0  0  0  0  0  0  0  0  0  0  0
    7.8896   -0.7302    2.3943 H   0  0  0  0  0  0  0  0  0  0  0  0
    8.0046    0.8838    0.5429 H   0  0  0  0  0  0  0  0  0  0  0  0
    7.0851    2.0326   -1.2331 H   0  0  0  0  0  0  0  0  0  0  0  0
    5.6797    1.3197   -2.0176 H   0  0  0  0  0  0  0  0  0  0  0  0
    5.4762    2.6625   -0.8495 H   0  0  0  0  0  0  0  0  0  0  0  0
   -3.3963   -2.4485   -1.3057 H   0  0  0  0  0  0  0  0  0  0  0  0
   -2.5589   -2.8645    0.2352 H   0  0  0  0  0  0  0  0  0  0  0  0
   -1.2675   -4.2819   -1.2493 H   0  0  0  0  0  0  0  0  0  0  0  0
   -1.6465   -3.2485   -2.6354 H   0  0  0  0  0  0  0  0  0  0  0  0
    0.5298   -2.7939   -0.5659 H   0  0  0  0  0  0  0  0  0  0  0  0
    0.5128   -2.3311   -2.3171 H   0  0  0  0  0  0  0  0  0  0  0  0
   -4.5924   -1.4070    0.3332 H   0  0  0  0  0  0  0  0  0  0  0  0
   -6.7453   -0.6762    1.2006 H   0  0  0  0  0  0  0  0  0  0  0  0
  1  2  1  0
  2  3  2  0
  3  4  1  0
  4  5  2  0
  5  6  1  0
  6  7  2  0
  7  8  1  0
  8  9  1  0
  9 10  1  0
 10 11  2  0
 10 12  1  0
 12 13  1  0
 13 14  2  0
 14 15  1  0
 15 16  2  0
 16 17  1  0
 17 18  2  0
 18 19  1  0
  8 20  2  0
 20 21  1  0
 21 22  1  0
 22 23  1  0
 23 24  1  0
  5 25  1  0
 25 26  2  0
 26  2  1  0
 21  6  1  0
 18 13  1  0
 24 20  1  0
  1 27  1  0
  1 28  1  0
  1 29  1  0
  3 30  1  0
  4 31  1  0
  7 32  1  0
  9 33  1  0
  9 34  1  0
 12 35  1  0
 14 36  1  0
 15 37  1  0
 16 38  1  0
 17 39  1  0
 19 40  1  0
 19 41  1  0
 19 42  1  0
 22 43  1  0
 22 44  1  0
 23 45  1  0
 23 46  1  0
 24 47  1  0
 24 48  1  0
 25 49  1  0
 26 50  1  0
M  CHG  1   8   1
M  END
$$$$
