
     RDKit          3D

 45 47  0  0  0  0  0  0  0  0999 V2000
    6.8089    2.7181    1.0830 C   0  0  0  0  0  0  0  0  0  0  0  0
    5.5340    1.9350    1.1925 C   0  0  0  0  0  0  0  0  0  0  0  0
    5.4646    0.8027    2.0057 C   0  0  0  0  0  0  0  0  0  0  0  0
    4.2869    0.0554    2.0737 C   0  0  0  0  0  0  0  0  0  0  0  0
    3.1544    0.4210    1.3263 C   0  0  0  0  0  0  0  0  0  0  0  0
    1.9498   -0.3959    1.4214 C   0  0  0  0  0  0  0  0  0  0  0  0
    1.3895   -0.7858    2.6212 C   0  0  0  0  0  0  0  0  0  0  0  0
   -0.0120   -1.7262    2.3356 S   0  0  0  0  0  0  0  0  0  0  0  0
    0.2230   -1.5545    0.6312 C   0  0  0  0  0  0  0  0  0  0  0  0
   -0.7099   -2.1699   -0.3735 C   0  0  0  0  0  0  0  0  0  0  0  0
   -0.8469   -3.6155   -0.1743 C   0  0  0  0  0  0  0  0  0  0  0  0
   -0.9771   -4.7567   -0.0010 N   0  0  0  0  0  0  0  0  0  0  0  0
   -2.0592   -1.5117   -0.2544 C   0  0  0  0  0  0  0  0  0  0  0  0
   -2.5511   -0.8090   -1.2283 N   0  0  0  0  0  0  0  0  0  0  0  0
   -3.8241   -0.2562   -1.0112 C   0  0  0  0  0  0  0  0  0  0  0  0
   -3.9008    1.0563   -0.5274 C   0  0  0  0  0  0  0  0  0  0  0  0
   -5.1355    1.6545   -0.2772 C   0  0  0  0  0  0  0  0  0  0  0  0
   -6.3087    0.9446   -0.5131 C   0  0  0  0  0  0  0  0  0  0  0  0
   -6.2476   -0.3579   -1.0123 C   0  0  0  0  0  0  0  0  0  0  0  0
   -5.0115   -0.9637   -1.2857 C   0  0  0  0  0  0  0  0  0  0  0  0
   -5.0511   -2.6382   -1.9204 S   0  0  0  0  0  0  0  0  0  0  0  0
   -3.9794   -2.4890   -3.3591 C   0  0  0  0  0  0  0  0  0  0  0  0
   -2.6885   -2.7793   -3.0653 F   0  0  0  0  0  0  0  0  0  0  0  0
   -4.3633   -3.3794   -4.3108 F   0  0  0  0  0  0  0  0  0  0  0  0
   -4.0246   -1.2660   -3.9360 F   0  0  0  0  0  0  0  0  0  0  0  0
    1.2748   -0.8339    0.2947 N   0  0  0  0  0  0  0  0  0  0  0  0
    3.2170    1.5577    0.4949 C   0  0  0  0  0  0  0  0  0  0  0  0
    2.0545    1.9997   -0.3539 C   0  0  0  0  0  0  0  0  0  0  0  0
    4.4152    2.2936    0.4300 C   0  0  0  0  0  0  0  0  0  0  0  0
    7.3918    2.6487    2.0073 H   0  0  0  0  0  0  0  0  0  0  0  0
    7.4136    2.3353    0.2549 H   0  0  0  0  0  0  0  0  0  0  0  0
    6.6006    3.7792    0.9100 H   0  0  0  0  0  0  0  0  0  0  0  0
    6.3291    0.4878    2.5858 H   0  0  0  0  0  0  0  0  0  0  0  0
    4.2711   -0.8322    2.7026 H   0  0  0  0  0  0  0  0  0  0  0  0
    1.7199   -0.5639    3.6261 H   0  0  0  0  0  0  0  0  0  0  0  0
   -0.3197   -1.9797   -1.3810 H   0  0  0  0  0  0  0  0  0  0  0  0
   -2.6171   -1.6563    0.6913 H   0  0  0  0  0  0  0  0  0  0  0  0
   -2.9863    1.6160   -0.3462 H   0  0  0  0  0  0  0  0  0  0  0  0
   -5.1799    2.6735    0.0995 H   0  0  0  0  0  0  0  0  0  0  0  0
   -7.2736    1.4057   -0.3156 H   0  0  0  0  0  0  0  0  0  0  0  0
   -7.1781   -0.8924   -1.1949 H   0  0  0  0  0  0  0  0  0  0  0  0
    1.1260    2.0077    0.2263 H   0  0  0  0  0  0  0  0  0  0  0  0
    1.9444    1.3392   -1.2196 H   0  0  0  0  0  0  0  0  0  0  0  0
    2.2002    3.0198   -0.7264 H   0  0  0  0  0  0  0  0  0  0  0  0
    4.4764    3.1607   -0.2261 H   0  0  0  0  0  0  0  0  0  0  0  0
  1  2  1  0
  2  3  2  0
  3  4  1  0
  4  5  2  0
  5  6  1  0
  6  7  2  0
  7  8  1  0
  8  9  1  0
  9 10  1  0
 10 11  1  0
 11 12  3  0
 10 13  1  0
 13 14  2  3
 14 15  1  0
 15 16  2  0
 16 17  1  0
 17 18  2  0
 18 19  1  0
 19 20  2  0
 20 21  1  0
 21 22  1  0
 22 23  1  0
 22 24  1  0
 22 25  1  0
  9 26  2  0
  5 27  1  0
 27 28  1  0
 27 29  2  0
 29  2  1  0
 26  6  1  0
 20 15  1  0
  1 30  1  0
  1 31  1  0
  1 32  1  0
  3 33  1  0
  4 34  1  0
  7 35  1  0
 10 36  1  0
 13 37  1  0
 16 38  1  0
 17 39  1  0
 18 40  1  0
 19 41  1  0
 28 42  1  0
 28 43  1  0
 28 44  1  0
 29 45  1  0
M  END
$$$$
