
     RDKit          3D

 35 37  0  0  0  0  0  0  0  0999 V2000
   -1.1210   -0.5936    2.3182 C   0  0  0  0  0  0  0  0  0  0  0  0
   -1.6530   -1.1792    1.0376 C   0  0  0  0  0  0  0  0  0  0  0  0
   -1.3171   -2.5057    0.7168 C   0  0  0  0  0  0  0  0  0  0  0  0
   -1.8010   -3.1099   -0.4429 C   0  0  0  0  0  0  0  0  0  0  0  0
   -2.6349   -2.4001   -1.2978 C   0  0  0  0  0  0  0  0  0  0  0  0
   -2.9775   -1.0831   -0.9960 C   0  0  0  0  0  0  0  0  0  0  0  0
   -2.4868   -0.4486    0.1631 C   0  0  0  0  0  0  0  0  0  0  0  0
   -2.8695    0.9969    0.4130 C   0  0  0  0  0  0  0  0  0  0  0  0
   -2.1591    2.1319   -0.8194 S   0  0  0  0  0  0  0  0  0  0  0  0
   -0.4827    1.9877   -0.3590 C   0  0  0  0  0  0  0  0  0  0  0  0
   -0.0366    2.7168    0.6133 N   0  0  0  0  0  0  0  0  0  0  0  0
    1.2927    2.5828    0.9808 C   0  0  0  0  0  0  0  0  0  0  0  0
    1.8139    3.2385    1.8761 O   0  0  0  0  0  0  0  0  0  0  0  0
    2.0990    1.5690    0.2662 C   0  0  0  0  0  0  0  0  0  0  0  0
    1.5417    0.8706   -0.7210 C   0  0  0  0  0  0  0  0  0  0  0  0
    0.2515    1.0870   -1.0777 N   0  0  0  0  0  0  0  0  0  0  0  0
    2.4775   -0.1215   -1.3072 C   0  0  0  0  0  0  0  0  0  0  0  0
    3.8229    0.3243   -0.7093 C   0  0  0  0  0  0  0  0  0  0  0  0
    3.5066    1.1926    0.5203 C   0  0  0  0  0  0  0  0  0  0  0  0
   -0.4951   -1.3112    2.8596 H   0  0  0  0  0  0  0  0  0  0  0  0
   -0.5037    0.2845    2.1145 H   0  0  0  0  0  0  0  0  0  0  0  0
   -1.9478   -0.3176    2.9803 H   0  0  0  0  0  0  0  0  0  0  0  0
   -0.6772   -3.0854    1.3798 H   0  0  0  0  0  0  0  0  0  0  0  0
   -1.5356   -4.1391   -0.6705 H   0  0  0  0  0  0  0  0  0  0  0  0
   -3.0243   -2.8720   -2.1962 H   0  0  0  0  0  0  0  0  0  0  0  0
   -3.6360   -0.5446   -1.6764 H   0  0  0  0  0  0  0  0  0  0  0  0
   -3.9614    1.0802    0.3619 H   0  0  0  0  0  0  0  0  0  0  0  0
   -2.5894    1.3369    1.4137 H   0  0  0  0  0  0  0  0  0  0  0  0
   -0.2112    0.4670   -1.7304 H   0  0  0  0  0  0  0  0  0  0  0  0
    2.5014   -0.0841   -2.4002 H   0  0  0  0  0  0  0  0  0  0  0  0
    2.2170   -1.1357   -0.9869 H   0  0  0  0  0  0  0  0  0  0  0  0
    4.4587   -0.5298   -0.4534 H   0  0  0  0  0  0  0  0  0  0  0  0
    4.3715    0.9230   -1.4486 H   0  0  0  0  0  0  0  0  0  0  0  0
    3.5929    0.6138    1.4455 H   0  0  0  0  0  0  0  0  0  0  0  0
    4.1738    2.0578    0.5728 H   0  0  0  0  0  0  0  0  0  0  0  0
  1  2  1  0
  2  3  2  0
  3  4  1  0
  4  5  2  0
  5  6  1  0
  6  7  2  0
  7  8  1  0
  8  9  1  0
  9 10  1  0
 10 11  2  0
 11 12  1  0
 12 13  2  0
 12 14  1  0
 14 15  2  0
 15 16  1  0
 15 17  1  0
 17 18  1  0
 18 19  1  0
  7  2  1  0
 16 10  1  0
 19 14  1  0
  1 20  1  0
  1 21  1  0
  1 22  1  0
  3 23  1  0
  4 24  1  0
  5 25  1  0
  6 26  1  0
  8 27  1  0
  8 28  1  0
 16 29  1  0
 17 30  1  0
 17 31  1  0
 18 32  1  0
 18 33  1  0
 19 34  1  0
 19 35  1  0
M  END
$$$$
