
     RDKit          3D

 60 64  0  0  0  0  0  0  0  0999 V2000
    3.2440    1.4977    2.0706 O   0  0  0  0  0  0  0  0  0  0  0  0
    2.8891    1.0523    0.9872 C   0  0  0  0  0  0  0  0  0  0  0  0
    3.6963    0.5751   -0.0290 N   0  0  0  0  0  0  0  0  0  0  0  0
    5.1006    0.4293   -0.0038 C   0  0  0  0  0  0  0  0  0  0  0  0
    5.8952    0.7031    1.1107 C   0  0  0  0  0  0  0  0  0  0  0  0
    7.2835    0.5246    1.0552 C   0  0  0  0  0  0  0  0  0  0  0  0
    7.8911    0.0596   -0.1138 C   0  0  0  0  0  0  0  0  0  0  0  0
    9.3627   -0.1332   -0.1540 C   0  0  0  0  0  0  0  0  0  0  0  0
   10.1442    0.3711    0.7690 N   0  0  0  0  0  0  0  0  0  0  0  0
   11.5173   -0.0314    0.3621 C   0  0  0  0  0  0  0  0  0  0  0  0
   11.3473   -1.1055   -0.7117 C   0  0  0  0  0  0  0  0  0  0  0  0
    9.9845   -0.8711   -1.1382 N   0  0  0  0  0  0  0  0  0  0  0  0
    7.1037   -0.2124   -1.2347 C   0  0  0  0  0  0  0  0  0  0  0  0
    5.7169   -0.0282   -1.1772 C   0  0  0  0  0  0  0  0  0  0  0  0
    1.4284    1.0319    0.6960 C   0  0  0  0  0  0  0  0  0  0  0  0
    0.6322    2.0730    1.1930 C   0  0  0  0  0  0  0  0  0  0  0  0
   -0.7472    2.0892    0.9539 C   0  0  0  0  0  0  0  0  0  0  0  0
   -1.3615    1.0500    0.2387 C   0  0  0  0  0  0  0  0  0  0  0  0
   -2.8174    1.1892   -0.0208 C   0  0  0  0  0  0  0  0  0  0  0  0
   -3.1954    2.2791   -0.4319 O   0  0  0  0  0  0  0  0  0  0  0  0
   -3.5987    0.0903    0.2670 N   0  0  0  0  0  0  0  0  0  0  0  0
   -5.0002   -0.0193    0.1334 C   0  0  0  0  0  0  0  0  0  0  0  0
   -5.5713   -1.2633    0.4322 C   0  0  0  0  0  0  0  0  0  0  0  0
   -6.9520   -1.4590    0.3282 C   0  0  0  0  0  0  0  0  0  0  0  0
   -7.7804   -0.4116   -0.0807 C   0  0  0  0  0  0  0  0  0  0  0  0
   -9.2442   -0.6331   -0.1929 C   0  0  0  0  0  0  0  0  0  0  0  0
   -9.8133   -1.7049    0.3034 N   0  0  0  0  0  0  0  0  0  0  0  0
  -11.2599   -1.5383   -0.0042 C   0  0  0  0  0  0  0  0  0  0  0  0
  -11.3515   -0.4112   -1.0325 C   0  0  0  0  0  0  0  0  0  0  0  0
  -10.0794    0.2492   -0.8423 N   0  0  0  0  0  0  0  0  0  0  0  0
   -7.2185    0.8341   -0.3717 C   0  0  0  0  0  0  0  0  0  0  0  0
   -5.8344    1.0265   -0.2666 C   0  0  0  0  0  0  0  0  0  0  0  0
   -0.5527    0.0160   -0.2394 C   0  0  0  0  0  0  0  0  0  0  0  0
   -1.1132   -1.0740   -0.9994 N   0  0  0  0  0  4  0  0  0  0  0  0
   -0.8037   -1.1438   -2.1930 O   0  0  0  0  0  0  0  0  0  0  0  0
   -1.8140   -1.8801   -0.3730 O   0  0  0  0  0  1  0  0  0  0  0  0
    0.8345   -0.0122   -0.0190 C   0  0  0  0  0  0  0  0  0  0  0  0
    3.2585    0.3672   -0.9165 H   0  0  0  0  0  0  0  0  0  0  0  0
    5.4721    1.0603    2.0443 H   0  0  0  0  0  0  0  0  0  0  0  0
    7.8856    0.7496    1.9335 H   0  0  0  0  0  0  0  0  0  0  0  0
   12.0419    0.8453   -0.0338 H   0  0  0  0  0  0  0  0  0  0  0  0
   12.0772   -0.4136    1.2213 H   0  0  0  0  0  0  0  0  0  0  0  0
   11.4400   -2.1074   -0.2793 H   0  0  0  0  0  0  0  0  0  0  0  0
   12.0627   -0.9956   -1.5306 H   0  0  0  0  0  0  0  0  0  0  0  0
    9.4810   -1.6859   -1.4706 H   0  0  0  0  0  0  0  0  0  0  0  0
    7.5561   -0.5457   -2.1644 H   0  0  0  0  0  0  0  0  0  0  0  0
    5.1314   -0.2434   -2.0675 H   0  0  0  0  0  0  0  0  0  0  0  0
    1.0876    2.8836    1.7626 H   0  0  0  0  0  0  0  0  0  0  0  0
   -1.3426    2.9236    1.3260 H   0  0  0  0  0  0  0  0  0  0  0  0
   -3.1401   -0.7591    0.5883 H   0  0  0  0  0  0  0  0  0  0  0  0
   -4.9538   -2.1016    0.7460 H   0  0  0  0  0  0  0  0  0  0  0  0
   -7.3770   -2.4322    0.5647 H   0  0  0  0  0  0  0  0  0  0  0  0
  -11.6799   -2.4697   -0.3953 H   0  0  0  0  0  0  0  0  0  0  0  0
  -11.7904   -1.2773    0.9180 H   0  0  0  0  0  0  0  0  0  0  0  0
  -12.1982    0.2555   -0.8485 H   0  0  0  0  0  0  0  0  0  0  0  0
  -11.4189   -0.8145   -2.0485 H   0  0  0  0  0  0  0  0  0  0  0  0
   -9.6955    0.7154   -1.6559 H   0  0  0  0  0  0  0  0  0  0  0  0
   -7.8423    1.6745   -0.6609 H   0  0  0  0  0  0  0  0  0  0  0  0
   -5.4439    2.0131   -0.4954 H   0  0  0  0  0  0  0  0  0  0  0  0
    1.4266   -0.8506   -0.3795 H   0  0  0  0  0  0  0  0  0  0  0  0
  1  2  2  0
  2  3  1  0
  3  4  1  0
  4  5  2  0
  5  6  1  0
  6  7  2  0
  7  8  1  0
  8  9  2  0
  9 10  1  0
 10 11  1  0
 11 12  1  0
  7 13  1  0
 13 14  2  0
  2 15  1  0
 15 16  2  0
 16 17  1  0
 17 18  2  0
 18 19  1  0
 19 20  2  0
 19 21  1  0
 21 22  1  0
 22 23  2  0
 23 24  1  0
 24 25  2  0
 25 26  1  0
 26 27  2  0
 27 28  1  0
 28 29  1  0
 29 30  1  0
 25 31  1  0
 31 32  2  0
 18 33  1  0
 33 34  1  0
 34 35  2  0
 34 36  1  0
 33 37  2  0
 14  4  1  0
 37 15  1  0
 12  8  1  0
 32 22  1  0
 30 26  1  0
  3 38  1  0
  5 39  1  0
  6 40  1  0
 10 41  1  0
 10 42  1  0
 11 43  1  0
 11 44  1  0
 12 45  1  0
 13 46  1  0
 14 47  1  0
 16 48  1  0
 17 49  1  0
 21 50  1  0
 23 51  1  0
 24 52  1  0
 28 53  1  0
 28 54  1  0
 29 55  1  0
 29 56  1  0
 30 57  1  0
 31 58  1  0
 32 59  1  0
 37 60  1  0
M  CHG  2  34   1  36  -1
M  END
$$$$
