
     RDKit          3D

 39 41  0  0  0  0  0  0  0  0999 V2000
    2.1327    3.3628    0.0311 O   0  0  0  0  0  0  0  0  0  0  0  0
    2.9695    2.4920   -0.1651 C   0  0  0  0  0  0  0  0  0  0  0  0
    4.2468    2.8536   -0.4126 O   0  0  0  0  0  0  0  0  0  0  0  0
    2.7057    0.9871   -0.2658 C   0  0  0  0  0  0  0  0  0  0  0  0
    3.6767    0.0186    0.4002 C   0  0  0  0  0  0  0  0  0  0  0  0
    4.5911    0.3972    1.3946 C   0  0  0  0  0  0  0  0  0  0  0  0
    5.4481   -0.5427    1.9736 C   0  0  0  0  0  0  0  0  0  0  0  0
    5.4072   -1.8739    1.5678 C   0  0  0  0  0  0  0  0  0  0  0  0
    4.5093   -2.2698    0.5814 C   0  0  0  0  0  0  0  0  0  0  0  0
    3.6515   -1.3329    0.0027 C   0  0  0  0  0  0  0  0  0  0  0  0
    1.2916    0.7066    0.0584 N   0  0  0  0  0  0  0  0  0  0  0  0
    0.4341    0.4349   -0.9924 C   0  0  0  0  0  0  0  0  0  0  0  0
    0.7435    0.3683   -2.1748 O   0  0  0  0  0  0  0  0  0  0  0  0
   -0.9498    0.2147   -0.5001 C   0  0  0  0  0  0  0  0  0  0  0  0
   -1.9593   -0.0586   -1.3380 C   0  0  0  0  0  0  0  0  0  0  0  0
   -3.3621   -0.2774   -0.9677 C   0  0  0  0  0  0  0  0  0  0  0  0
   -3.7446   -1.3539   -0.1504 C   0  0  0  0  0  0  0  0  0  0  0  0
   -5.0891   -1.5585    0.1786 C   0  0  0  0  0  0  0  0  0  0  0  0
   -6.0477   -0.6876   -0.3226 C   0  0  0  0  0  0  0  0  0  0  0  0
   -7.3771   -0.8331   -0.0382 O   0  0  0  0  0  0  0  0  0  0  0  0
   -5.6735    0.3720   -1.1447 C   0  0  0  0  0  0  0  0  0  0  0  0
   -6.6244    1.2194   -1.6382 O   0  0  0  0  0  0  0  0  0  0  0  0
   -4.3417    0.5838   -1.4750 C   0  0  0  0  0  0  0  0  0  0  0  0
   -1.0018    0.3940    1.2024 S   0  0  0  0  0  0  0  0  0  0  0  0
    0.7146    0.7840    1.3110 C   0  0  0  0  0  0  0  0  0  0  0  0
    1.4039    1.1792    2.7780 S   0  0  0  0  0  0  0  0  0  0  0  0
    4.2366    3.8335   -0.3634 H   0  0  0  0  0  0  0  0  0  0  0  0
    2.8447    0.8088   -1.3424 H   0  0  0  0  0  0  0  0  0  0  0  0
    4.6502    1.4248    1.7468 H   0  0  0  0  0  0  0  0  0  0  0  0
    6.1472   -0.2330    2.7468 H   0  0  0  0  0  0  0  0  0  0  0  0
    6.0751   -2.6016    2.0212 H   0  0  0  0  0  0  0  0  0  0  0  0
    4.4773   -3.3081    0.2612 H   0  0  0  0  0  0  0  0  0  0  0  0
    2.9616   -1.6663   -0.7716 H   0  0  0  0  0  0  0  0  0  0  0  0
   -1.7680   -0.1047   -2.4098 H   0  0  0  0  0  0  0  0  0  0  0  0
   -2.9971   -2.0436    0.2360 H   0  0  0  0  0  0  0  0  0  0  0  0
   -5.3595   -2.3936    0.8165 H   0  0  0  0  0  0  0  0  0  0  0  0
   -7.4776   -1.5973    0.5552 H   0  0  0  0  0  0  0  0  0  0  0  0
   -7.4666    0.8816   -1.2733 H   0  0  0  0  0  0  0  0  0  0  0  0
   -4.0789    1.4195   -2.1175 H   0  0  0  0  0  0  0  0  0  0  0  0
  1  2  2  0
  2  3  1  0
  2  4  1  0
  4  5  1  0
  5  6  2  0
  6  7  1  0
  7  8  2  0
  8  9  1  0
  9 10  2  0
  4 11  1  0
 11 12  1  0
 12 13  2  0
 12 14  1  0
 14 15  2  3
 15 16  1  0
 16 17  2  0
 17 18  1  0
 18 19  2  0
 19 20  1  0
 19 21  1  0
 21 22  1  0
 21 23  2  0
 14 24  1  0
 24 25  1  0
 25 26  2  0
 10  5  1  0
 25 11  1  0
 23 16  1  0
  3 27  1  0
  4 28  1  0
  6 29  1  0
  7 30  1  0
  8 31  1  0
  9 32  1  0
 10 33  1  0
 15 34  1  0
 17 35  1  0
 18 36  1  0
 20 37  1  0
 22 38  1  0
 23 39  1  0
M  END
$$$$
