
     RDKit          3D

 72 75  0  0  0  0  0  0  0  0999 V2000
   -3.1775    3.0161   -1.9227 C   0  0  0  0  0  0  0  0  0  0  0  0
   -4.1683    1.9888   -1.4586 C   0  0  0  0  0  0  0  0  0  0  0  0
   -5.4131    2.4323   -0.9900 C   0  0  0  0  0  0  0  0  0  0  0  0
   -6.3893    1.5318   -0.5475 C   0  0  0  0  0  0  0  0  0  0  0  0
   -6.1711    0.1449   -0.5562 C   0  0  0  0  0  0  0  0  0  0  0  0
   -7.2673   -0.8172   -0.0680 C   0  0  0  0  0  0  0  0  0  0  0  0
   -8.5528   -0.6115   -0.8976 C   0  0  0  0  0  0  0  0  0  0  0  0
   -7.5720   -0.5366    1.4186 C   0  0  0  0  0  0  0  0  0  0  0  0
   -6.8862   -2.3101   -0.1844 C   0  0  0  0  0  0  0  0  0  0  0  0
   -4.9230   -0.2965   -1.0201 C   0  0  0  0  0  0  0  0  0  0  0  0
   -3.9295    0.6069   -1.4574 C   0  0  0  0  0  0  0  0  0  0  0  0
   -2.3954   -0.1387   -1.9953 S   0  0  0  0  0  6  0  0  0  0  0  0
   -2.7437   -1.2148   -2.9005 O   0  0  0  0  0  0  0  0  0  0  0  0
   -1.4394    0.8717   -2.3915 O   0  0  0  0  0  0  0  0  0  0  0  0
   -1.8001   -0.8425   -0.5486 N   0  0  0  0  0  0  0  0  0  0  0  0
   -0.6981   -1.8194   -0.7546 C   0  0  0  0  0  0  0  0  0  0  0  0
    0.6550   -1.2368   -0.3698 C   0  0  0  0  0  0  0  0  0  0  0  0
    0.7086   -0.8007    1.1034 C   0  0  0  0  0  0  0  0  0  0  0  0
    1.6011    0.4385    1.2578 C   0  0  0  0  0  0  0  0  0  0  0  0
    1.1107    1.5301    1.5583 O   0  0  0  0  0  0  0  0  0  0  0  0
    2.9606    0.3041    1.0275 N   0  0  0  0  0  0  0  0  0  0  0  0
    3.7945    1.5110    1.0689 C   0  0  0  0  0  0  0  0  0  0  0  0
    5.0831    1.3915    0.2346 C   0  0  0  0  0  0  0  0  0  0  0  0
    5.8730    0.2057    0.6143 N   0  0  0  0  0  0  0  0  0  0  0  0
    7.2462    0.1725    0.4297 C   0  0  0  0  0  0  0  0  0  0  0  0
    8.0742   -0.6967    1.1621 C   0  0  0  0  0  0  0  0  0  0  0  0
    9.4629   -0.7375    0.9769 C   0  0  0  0  0  0  0  0  0  0  0  0
   10.0509    0.1005    0.0424 C   0  0  0  0  0  0  0  0  0  0  0  0
   11.3953    0.0950   -0.1777 O   0  0  0  0  0  0  0  0  0  0  0  0
    9.2728    0.9724   -0.6999 C   0  0  0  0  0  0  0  0  0  0  0  0
    7.8869    1.0041   -0.5050 C   0  0  0  0  0  0  0  0  0  0  0  0
    5.1538   -0.9031    1.2579 C   0  0  0  0  0  0  0  0  0  0  0  0
    3.6792   -0.9568    0.8100 C   0  0  0  0  0  0  0  0  0  0  0  0
   -0.7048   -0.5255    1.6496 C   0  0  0  0  0  0  0  0  0  0  0  0
   -1.5856    0.1091    0.5793 C   0  0  0  0  0  0  0  0  0  0  0  0
   -2.8990    2.8397   -2.9656 H   0  0  0  0  0  0  0  0  0  0  0  0
   -3.5996    4.0260   -1.8815 H   0  0  0  0  0  0  0  0  0  0  0  0
   -2.2925    3.0149   -1.2803 H   0  0  0  0  0  0  0  0  0  0  0  0
   -5.6427    3.4965   -0.9656 H   0  0  0  0  0  0  0  0  0  0  0  0
   -7.3345    1.9403   -0.1948 H   0  0  0  0  0  0  0  0  0  0  0  0
   -8.9638    0.3976   -0.7839 H   0  0  0  0  0  0  0  0  0  0  0  0
   -8.3624   -0.7709   -1.9654 H   0  0  0  0  0  0  0  0  0  0  0  0
   -9.3379   -1.3120   -0.5906 H   0  0  0  0  0  0  0  0  0  0  0  0
   -8.3297   -1.2286    1.8045 H   0  0  0  0  0  0  0  0  0  0  0  0
   -7.9521    0.4783    1.5789 H   0  0  0  0  0  0  0  0  0  0  0  0
   -6.6718   -0.6513    2.0335 H   0  0  0  0  0  0  0  0  0  0  0  0
   -6.0043   -2.5510    0.4205 H   0  0  0  0  0  0  0  0  0  0  0  0
   -7.7014   -2.9545    0.1662 H   0  0  0  0  0  0  0  0  0  0  0  0
   -6.6760   -2.5921   -1.2226 H   0  0  0  0  0  0  0  0  0  0  0  0
   -4.6872   -1.3586   -1.0507 H   0  0  0  0  0  0  0  0  0  0  0  0
   -0.6609   -2.1650   -1.7930 H   0  0  0  0  0  0  0  0  0  0  0  0
   -0.9174   -2.7091   -0.1518 H   0  0  0  0  0  0  0  0  0  0  0  0
    0.8852   -0.3913   -1.0308 H   0  0  0  0  0  0  0  0  0  0  0  0
    1.4264   -1.9922   -0.5569 H   0  0  0  0  0  0  0  0  0  0  0  0
    1.1268   -1.5995    1.7253 H   0  0  0  0  0  0  0  0  0  0  0  0
    4.0478    1.6804    2.1230 H   0  0  0  0  0  0  0  0  0  0  0  0
    3.2168    2.3768    0.7263 H   0  0  0  0  0  0  0  0  0  0  0  0
    5.6582    2.3128    0.3860 H   0  0  0  0  0  0  0  0  0  0  0  0
    4.8247    1.3180   -0.8289 H   0  0  0  0  0  0  0  0  0  0  0  0
    7.6536   -1.3523    1.9189 H   0  0  0  0  0  0  0  0  0  0  0  0
   10.0563   -1.4227    1.5728 H   0  0  0  0  0  0  0  0  0  0  0  0
   11.8006   -0.5701    0.4017 H   0  0  0  0  0  0  0  0  0  0  0  0
    9.7350    1.6242   -1.4351 H   0  0  0  0  0  0  0  0  0  0  0  0
    7.3127    1.6851   -1.1269 H   0  0  0  0  0  0  0  0  0  0  0  0
    5.6072   -1.8674    1.0003 H   0  0  0  0  0  0  0  0  0  0  0  0
    5.2037   -0.7796    2.3466 H   0  0  0  0  0  0  0  0  0  0  0  0
    3.1770   -1.7761    1.3294 H   0  0  0  0  0  0  0  0  0  0  0  0
    3.6349   -1.1595   -0.2665 H   0  0  0  0  0  0  0  0  0  0  0  0
   -1.1561   -1.4724    1.9745 H   0  0  0  0  0  0  0  0  0  0  0  0
   -0.6717    0.1160    2.5380 H   0  0  0  0  0  0  0  0  0  0  0  0
   -2.5582    0.3438    1.0246 H   0  0  0  0  0  0  0  0  0  0  0  0
   -1.1397    1.0428    0.2220 H   0  0  0  0  0  0  0  0  0  0  0  0
  1  2  1  0
  2  3  2  0
  3  4  1  0
  4  5  2  0
  5  6  1  0
  6  7  1  0
  6  8  1  0
  6  9  1  0
  5 10  1  0
 10 11  2  0
 11 12  1  0
 12 13  2  0
 12 14  2  0
 12 15  1  0
 15 16  1  0
 16 17  1  0
 17 18  1  0
 18 19  1  0
 19 20  2  0
 19 21  1  0
 21 22  1  0
 22 23  1  0
 23 24  1  0
 24 25  1  0
 25 26  2  0
 26 27  1  0
 27 28  2  0
 28 29  1  0
 28 30  1  0
 30 31  2  0
 24 32  1  0
 32 33  1  0
 18 34  1  0
 34 35  1  0
 11  2  1  0
 35 15  1  0
 33 21  1  0
 31 25  1  0
  1 36  1  0
  1 37  1  0
  1 38  1  0
  3 39  1  0
  4 40  1  0
  7 41  1  0
  7 42  1  0
  7 43  1  0
  8 44  1  0
  8 45  1  0
  8 46  1  0
  9 47  1  0
  9 48  1  0
  9 49  1  0
 10 50  1  0
 16 51  1  0
 16 52  1  0
 17 53  1  0
 17 54  1  0
 18 55  1  0
 22 56  1  0
 22 57  1  0
 23 58  1  0
 23 59  1  0
 26 60  1  0
 27 61  1  0
 29 62  1  0
 30 63  1  0
 31 64  1  0
 32 65  1  0
 32 66  1  0
 33 67  1  0
 33 68  1  0
 34 69  1  0
 34 70  1  0
 35 71  1  0
 35 72  1  0
M  END
$$$$
