
     RDKit          3D

 56 60  0  0  0  0  0  0  0  0999 V2000
    4.3246    2.8969   -0.8841 C   0  0  0  0  0  0  0  0  0  0  0  0
    4.4500    1.4190   -0.8943 C   0  0  0  0  0  0  0  0  0  0  0  0
    3.7347    0.6880   -1.7596 N   0  0  0  0  0  0  0  0  0  0  0  0
    4.0844   -0.5906   -1.4861 N   0  0  0  0  0  0  0  0  0  0  0  0
    3.4778   -1.6660   -2.2669 C   0  0  0  0  0  0  0  0  0  0  0  0
    2.3816   -2.3818   -1.5113 C   0  0  0  0  0  0  0  0  0  0  0  0
    2.3938   -3.7809   -1.4090 C   0  0  0  0  0  0  0  0  0  0  0  0
    1.3831   -4.4512   -0.7186 C   0  0  0  0  0  0  0  0  0  0  0  0
    0.3394   -3.7328   -0.1356 C   0  0  0  0  0  0  0  0  0  0  0  0
    0.2920   -2.3387   -0.2494 C   0  0  0  0  0  0  0  0  0  0  0  0
   -0.8437   -1.6143    0.3916 C   0  0  0  0  0  0  0  0  0  0  0  0
   -1.4280   -2.1284    1.3379 O   0  0  0  0  0  0  0  0  0  0  0  0
   -1.1828   -0.3980   -0.1659 N   0  0  0  0  0  0  0  0  0  0  0  0
   -2.3005    0.4406    0.2815 C   0  0  0  0  0  0  0  0  0  0  0  0
   -2.3132    1.7349   -0.5774 C   0  0  0  0  0  0  0  0  0  0  0  0
   -3.4680    2.6610   -0.1644 C   0  0  0  0  0  0  0  0  0  0  0  0
   -4.8007    1.9186   -0.3506 C   0  0  0  0  0  0  0  0  0  0  0  0
   -4.8193    0.6481    0.5141 C   0  0  0  0  0  0  0  0  0  0  0  0
   -4.6423    1.0376    1.9917 C   0  0  0  0  0  0  0  0  0  0  0  0
   -3.3100    1.7814    2.1878 C   0  0  0  0  0  0  0  0  0  0  0  0
   -3.3013    3.0452    1.3138 C   0  0  0  0  0  0  0  0  0  0  0  0
   -2.1502    0.8619    1.7655 C   0  0  0  0  0  0  0  0  0  0  0  0
   -3.6614   -0.2729    0.0902 C   0  0  0  0  0  0  0  0  0  0  0  0
    1.3167   -1.6680   -0.9313 C   0  0  0  0  0  0  0  0  0  0  0  0
    5.0146   -0.7005   -0.4780 C   0  0  0  0  0  0  0  0  0  0  0  0
    5.5496   -1.9964    0.0065 C   0  0  0  0  0  0  0  0  0  0  0  0
    5.2555    0.5950   -0.0837 C   0  0  0  0  0  0  0  0  0  0  0  0
    6.4112    1.1968    1.2623 Br  0  0  0  0  0  0  0  0  0  0  0  0
    5.2942    3.3656   -1.0798 H   0  0  0  0  0  0  0  0  0  0  0  0
    3.6224    3.2467   -1.6485 H   0  0  0  0  0  0  0  0  0  0  0  0
    3.9607    3.2435    0.0886 H   0  0  0  0  0  0  0  0  0  0  0  0
    3.0713   -1.2330   -3.1885 H   0  0  0  0  0  0  0  0  0  0  0  0
    4.2868   -2.3471   -2.5527 H   0  0  0  0  0  0  0  0  0  0  0  0
    3.1965   -4.3630   -1.8580 H   0  0  0  0  0  0  0  0  0  0  0  0
    1.4072   -5.5350   -0.6312 H   0  0  0  0  0  0  0  0  0  0  0  0
   -0.4421   -4.2621    0.4068 H   0  0  0  0  0  0  0  0  0  0  0  0
   -0.7755   -0.1653   -1.0614 H   0  0  0  0  0  0  0  0  0  0  0  0
   -1.3571    2.2655   -0.4740 H   0  0  0  0  0  0  0  0  0  0  0  0
   -2.4081    1.4807   -1.6418 H   0  0  0  0  0  0  0  0  0  0  0  0
   -3.4582    3.5642   -0.7847 H   0  0  0  0  0  0  0  0  0  0  0  0
   -5.6363    2.5729   -0.0733 H   0  0  0  0  0  0  0  0  0  0  0  0
   -4.9393    1.6556   -1.4066 H   0  0  0  0  0  0  0  0  0  0  0  0
   -5.7732    0.1255    0.3813 H   0  0  0  0  0  0  0  0  0  0  0  0
   -4.6664    0.1397    2.6216 H   0  0  0  0  0  0  0  0  0  0  0  0
   -5.4762    1.6738    2.3128 H   0  0  0  0  0  0  0  0  0  0  0  0
   -3.1943    2.0606    3.2411 H   0  0  0  0  0  0  0  0  0  0  0  0
   -2.3614    3.5928    1.4556 H   0  0  0  0  0  0  0  0  0  0  0  0
   -4.1115    3.7185    1.6198 H   0  0  0  0  0  0  0  0  0  0  0  0
   -2.1356   -0.0135    2.4247 H   0  0  0  0  0  0  0  0  0  0  0  0
   -1.1916    1.3756    1.9165 H   0  0  0  0  0  0  0  0  0  0  0  0
   -3.7049   -1.1967    0.6791 H   0  0  0  0  0  0  0  0  0  0  0  0
   -3.7866   -0.5716   -0.9589 H   0  0  0  0  0  0  0  0  0  0  0  0
    1.3158   -0.5810   -0.9899 H   0  0  0  0  0  0  0  0  0  0  0  0
    5.9314   -2.5988   -0.8237 H   0  0  0  0  0  0  0  0  0  0  0  0
    6.3750   -1.8531    0.7101 H   0  0  0  0  0  0  0  0  0  0  0  0
    4.7696   -2.5656    0.5219 H   0  0  0  0  0  0  0  0  0  0  0  0
  1  2  1  0
  2  3  2  0
  3  4  1  0
  4  5  1  0
  5  6  1  0
  6  7  2  0
  7  8  1  0
  8  9  2  0
  9 10  1  0
 10 11  1  0
 11 12  2  0
 11 13  1  0
 13 14  1  0
 14 15  1  0
 15 16  1  0
 16 17  1  0
 17 18  1  0
 18 19  1  0
 19 20  1  0
 20 21  1  0
 20 22  1  0
 18 23  1  0
 10 24  2  0
  4 25  1  0
 25 26  1  0
 25 27  2  0
 27 28  1  0
 27  2  1  0
 24  6  1  0
 22 14  1  0
 23 14  1  0
 21 16  1  0
  1 29  1  0
  1 30  1  0
  1 31  1  0
  5 32  1  0
  5 33  1  0
  7 34  1  0
  8 35  1  0
  9 36  1  0
 13 37  1  0
 15 38  1  0
 15 39  1  0
 16 40  1  0
 17 41  1  0
 17 42  1  0
 18 43  1  0
 19 44  1  0
 19 45  1  0
 20 46  1  0
 21 47  1  0
 21 48  1  0
 22 49  1  0
 22 50  1  0
 23 51  1  0
 23 52  1  0
 24 53  1  0
 26 54  1  0
 26 55  1  0
 26 56  1  0
M  END
$$$$
