
     RDKit          3D

 54 58  0  0  0  0  0  0  0  0999 V2000
   -7.3149   -1.2542    3.5445 O   0  0  0  0  0  0  0  0  0  0  0  0
   -6.3897   -0.4667    3.6181 C   0  0  0  0  0  0  0  0  0  0  0  0
   -6.3025    0.4161    4.6285 O   0  0  0  0  0  0  0  0  0  0  0  0
   -5.2674   -0.3537    2.6564 C   0  0  0  0  0  0  0  0  0  0  0  0
   -4.2350    0.5708    2.8193 C   0  0  0  0  0  0  0  0  0  0  0  0
   -3.1944    0.6375    1.8820 C   0  0  0  0  0  0  0  0  0  0  0  0
   -3.1598   -0.2065    0.7600 C   0  0  0  0  0  0  0  0  0  0  0  0
   -2.0936   -0.1223   -0.1920 N   0  0  0  0  0  0  0  0  0  0  0  0
   -0.7880    0.3008    0.1818 C   0  0  0  0  0  0  0  0  0  0  0  0
   -0.3626    0.6463    1.2691 O   0  0  0  0  0  0  0  0  0  0  0  0
    0.0207    0.1761   -1.0835 C   0  0  0  0  0  0  0  0  0  0  0  0
    1.3133    0.4282   -1.3309 C   0  0  0  0  0  0  0  0  0  0  0  0
    2.2774    0.9372   -0.4209 C   0  0  0  0  0  0  0  0  0  0  0  0
    2.1962    1.8746    0.5996 C   0  0  0  0  0  0  0  0  0  0  0  0
    3.4860    2.0272    1.1641 C   0  0  0  0  0  0  0  0  0  0  0  0
    4.3223    1.1965    0.4541 C   0  0  0  0  0  0  0  0  0  0  0  0
    5.7485    0.8823    0.5119 C   0  0  0  0  0  0  0  0  0  0  0  0
    6.3220   -0.0600   -0.3592 C   0  0  0  0  0  0  0  0  0  0  0  0
    7.6876   -0.3618   -0.3042 C   0  0  0  0  0  0  0  0  0  0  0  0
    8.4978    0.2854    0.6342 C   0  0  0  0  0  0  0  0  0  0  0  0
    9.9312   -0.0243    0.6978 N   0  0  0  0  0  4  0  0  0  0  0  0
   10.6134    0.5749    1.5414 O   0  0  0  0  0  0  0  0  0  0  0  0
   10.3756   -0.8656   -0.0964 O   0  0  0  0  0  1  0  0  0  0  0  0
    7.9498    1.2267    1.5125 C   0  0  0  0  0  0  0  0  0  0  0  0
    6.5820    1.5187    1.4467 C   0  0  0  0  0  0  0  0  0  0  0  0
    3.6002    0.5565   -0.5094 O   0  0  0  0  0  0  0  0  0  0  0  0
   -0.8839   -0.3245   -2.0920 C   0  0  0  0  0  0  0  0  0  0  0  0
   -2.0963   -0.4796   -1.5409 C   0  0  0  0  0  0  0  0  0  0  0  0
   -3.2613   -0.8408   -2.3505 C   0  0  0  0  0  0  0  0  0  0  0  0
   -3.3235   -2.0843   -2.9960 C   0  0  0  0  0  0  0  0  0  0  0  0
   -4.4294   -2.4192   -3.7801 C   0  0  0  0  0  0  0  0  0  0  0  0
   -5.4774   -1.5128   -3.9320 C   0  0  0  0  0  0  0  0  0  0  0  0
   -5.4215   -0.2703   -3.3032 C   0  0  0  0  0  0  0  0  0  0  0  0
   -4.3165    0.0671   -2.5193 C   0  0  0  0  0  0  0  0  0  0  0  0
   -4.2012   -1.1362    0.6214 C   0  0  0  0  0  0  0  0  0  0  0  0
   -5.2449   -1.2100    1.5543 C   0  0  0  0  0  0  0  0  0  0  0  0
   -7.0929    0.2258    5.1759 H   0  0  0  0  0  0  0  0  0  0  0  0
   -4.2227    1.2486    3.6695 H   0  0  0  0  0  0  0  0  0  0  0  0
   -2.4265    1.3901    2.0443 H   0  0  0  0  0  0  0  0  0  0  0  0
    1.7070    0.2009   -2.3188 H   0  0  0  0  0  0  0  0  0  0  0  0
    1.3017    2.3976    0.9091 H   0  0  0  0  0  0  0  0  0  0  0  0
    3.7588    2.6725    1.9863 H   0  0  0  0  0  0  0  0  0  0  0  0
    5.7037   -0.5738   -1.0941 H   0  0  0  0  0  0  0  0  0  0  0  0
    8.0945   -1.0976   -0.9948 H   0  0  0  0  0  0  0  0  0  0  0  0
    8.5652    1.7391    2.2494 H   0  0  0  0  0  0  0  0  0  0  0  0
    6.1763    2.2531    2.1396 H   0  0  0  0  0  0  0  0  0  0  0  0
   -0.6259   -0.4885   -3.1275 H   0  0  0  0  0  0  0  0  0  0  0  0
   -2.5169   -2.8058   -2.8836 H   0  0  0  0  0  0  0  0  0  0  0  0
   -4.4741   -3.3880   -4.2717 H   0  0  0  0  0  0  0  0  0  0  0  0
   -6.3389   -1.7747   -4.5415 H   0  0  0  0  0  0  0  0  0  0  0  0
   -6.2387    0.4370   -3.4223 H   0  0  0  0  0  0  0  0  0  0  0  0
   -4.2864    1.0417   -2.0362 H   0  0  0  0  0  0  0  0  0  0  0  0
   -4.2112   -1.8595   -0.1873 H   0  0  0  0  0  0  0  0  0  0  0  0
   -6.0327   -1.9484    1.4164 H   0  0  0  0  0  0  0  0  0  0  0  0
  1  2  2  0
  2  3  1  0
  2  4  1  0
  4  5  2  0
  5  6  1  0
  6  7  2  0
  7  8  1  0
  8  9  1  0
  9 10  2  0
  9 11  1  0
 11 12  2  3
 12 13  1  0
 13 14  2  0
 14 15  1  0
 15 16  2  0
 16 17  1  0
 17 18  2  0
 18 19  1  0
 19 20  2  0
 20 21  1  0
 21 22  2  0
 21 23  1  0
 20 24  1  0
 24 25  2  0
 16 26  1  0
 11 27  1  0
 27 28  2  0
 28 29  1  0
 29 30  2  0
 30 31  1  0
 31 32  2  0
 32 33  1  0
 33 34  2  0
  7 35  1  0
 35 36  2  0
 36  4  1  0
 28  8  1  0
 34 29  1  0
 26 13  1  0
 25 17  1  0
  3 37  1  0
  5 38  1  0
  6 39  1  0
 12 40  1  0
 14 41  1  0
 15 42  1  0
 18 43  1  0
 19 44  1  0
 24 45  1  0
 25 46  1  0
 27 47  1  0
 30 48  1  0
 31 49  1  0
 32 50  1  0
 33 51  1  0
 34 52  1  0
 35 53  1  0
 36 54  1  0
M  CHG  2  21   1  23  -1
M  END
$$$$
