
     RDKit          3D

 52 54  0  0  0  0  0  0  0  0999 V2000
   -5.9555   -2.4726   -2.6358 C   0  0  0  0  0  0  0  0  0  0  0  0
   -4.5901   -2.3527   -1.9740 C   0  0  0  0  0  0  0  0  0  0  0  0
   -4.3852   -0.9673   -1.3692 C   0  0  0  0  0  0  0  0  0  0  0  0
   -2.9770   -0.6782   -0.8208 C   0  0  0  0  0  0  0  0  0  0  0  0
   -2.5471   -1.5387    0.3893 C   0  0  0  0  0  0  0  0  0  0  0  0
   -1.8844   -2.8605   -0.0551 C   0  0  0  0  0  0  0  0  0  0  0  0
   -2.0826   -3.9774    0.9618 C   0  0  0  0  0  0  0  0  0  0  0  0
   -1.6610   -0.7390    1.3972 C   0  0  0  0  0  0  0  0  0  0  0  0
   -0.3141   -0.3724    0.9273 N   0  0  0  0  0  0  0  0  0  0  0  0
   -0.1487    0.7837    0.1807 C   0  0  0  0  0  0  0  0  0  0  0  0
   -1.0165    1.5967   -0.1077 O   0  0  0  0  0  0  0  0  0  0  0  0
    1.2754    0.9695   -0.1972 C   0  0  0  0  0  0  0  0  0  0  0  0
    1.6656    1.9853   -0.9809 C   0  0  0  0  0  0  0  0  0  0  0  0
    2.9933    2.2898   -1.4000 C   0  0  0  0  0  0  0  0  0  0  0  0
    3.3684    2.4032   -2.7176 C   0  0  0  0  0  0  0  0  0  0  0  0
    4.7029    2.6717   -2.6986 N   0  0  0  0  0  0  0  0  0  0  0  0
    5.2182    2.7642   -1.4653 N   0  0  0  0  0  0  0  0  0  0  0  0
    4.1737    2.5621   -0.6419 C   0  0  0  0  0  0  0  0  0  0  0  0
    4.3431    2.6462    0.8093 C   0  0  0  0  0  0  0  0  0  0  0  0
    3.4102    3.3235    1.6071 C   0  0  0  0  0  0  0  0  0  0  0  0
    3.5730    3.3799    2.9936 C   0  0  0  0  0  0  0  0  0  0  0  0
    4.6718    2.7663    3.5930 C   0  0  0  0  0  0  0  0  0  0  0  0
    5.6131    2.1026    2.8081 C   0  0  0  0  0  0  0  0  0  0  0  0
    5.4518    2.0465    1.4220 C   0  0  0  0  0  0  0  0  0  0  0  0
    2.2314   -0.2736    0.4893 S   0  0  0  0  0  0  0  0  0  0  0  0
    0.8562   -1.0066    1.3062 C   0  0  0  0  0  0  0  0  0  0  0  0
    1.0680   -2.2710    2.3748 S   0  0  0  0  0  0  0  0  0  0  0  0
   -6.0867   -3.4756   -3.0539 H   0  0  0  0  0  0  0  0  0  0  0  0
   -6.7585   -2.2979   -1.9126 H   0  0  0  0  0  0  0  0  0  0  0  0
   -6.0623   -1.7490   -3.4502 H   0  0  0  0  0  0  0  0  0  0  0  0
   -3.8139   -2.5554   -2.7202 H   0  0  0  0  0  0  0  0  0  0  0  0
   -4.5197   -3.1183   -1.1946 H   0  0  0  0  0  0  0  0  0  0  0  0
   -5.1202   -0.8090   -0.5698 H   0  0  0  0  0  0  0  0  0  0  0  0
   -4.6008   -0.2126   -2.1368 H   0  0  0  0  0  0  0  0  0  0  0  0
   -2.2367   -0.7488   -1.6266 H   0  0  0  0  0  0  0  0  0  0  0  0
   -3.0151    0.3719   -0.5141 H   0  0  0  0  0  0  0  0  0  0  0  0
   -3.4667   -1.7846    0.9388 H   0  0  0  0  0  0  0  0  0  0  0  0
   -0.8169   -2.7182   -0.2479 H   0  0  0  0  0  0  0  0  0  0  0  0
   -2.2962   -3.2088   -1.0056 H   0  0  0  0  0  0  0  0  0  0  0  0
   -3.1434   -4.2350    1.0483 H   0  0  0  0  0  0  0  0  0  0  0  0
   -1.7235   -3.6984    1.9549 H   0  0  0  0  0  0  0  0  0  0  0  0
   -1.5449   -4.8764    0.6443 H   0  0  0  0  0  0  0  0  0  0  0  0
   -1.5814   -1.3122    2.3256 H   0  0  0  0  0  0  0  0  0  0  0  0
   -2.1858    0.1870    1.6654 H   0  0  0  0  0  0  0  0  0  0  0  0
    0.8945    2.6519   -1.3671 H   0  0  0  0  0  0  0  0  0  0  0  0
    2.8268    2.2992   -3.6469 H   0  0  0  0  0  0  0  0  0  0  0  0
    5.3267    2.8054   -3.4876 H   0  0  0  0  0  0  0  0  0  0  0  0
    2.5580    3.8259    1.1571 H   0  0  0  0  0  0  0  0  0  0  0  0
    2.8464    3.9089    3.6047 H   0  0  0  0  0  0  0  0  0  0  0  0
    4.7996    2.8115    4.6714 H   0  0  0  0  0  0  0  0  0  0  0  0
    6.4746    1.6295    3.2718 H   0  0  0  0  0  0  0  0  0  0  0  0
    6.1923    1.5277    0.8167 H   0  0  0  0  0  0  0  0  0  0  0  0
  1  2  1  0
  2  3  1  0
  3  4  1  0
  4  5  1  0
  5  6  1  0
  6  7  1  0
  5  8  1  0
  8  9  1  0
  9 10  1  0
 10 11  2  0
 10 12  1  0
 12 13  2  3
 13 14  1  0
 14 15  2  0
 15 16  1  0
 16 17  1  0
 17 18  2  0
 18 19  1  0
 19 20  2  0
 20 21  1  0
 21 22  2  0
 22 23  1  0
 23 24  2  0
 12 25  1  0
 25 26  1  0
 26 27  2  0
 26  9  1  0
 18 14  1  0
 24 19  1  0
  1 28  1  0
  1 29  1  0
  1 30  1  0
  2 31  1  0
  2 32  1  0
  3 33  1  0
  3 34  1  0
  4 35  1  0
  4 36  1  0
  5 37  1  0
  6 38  1  0
  6 39  1  0
  7 40  1  0
  7 41  1  0
  7 42  1  0
  8 43  1  0
  8 44  1  0
 13 45  1  0
 15 46  1  0
 16 47  1  0
 20 48  1  0
 21 49  1  0
 22 50  1  0
 23 51  1  0
 24 52  1  0
M  END
$$$$
