
     RDKit          3D

 39 41  0  0  0  0  0  0  0  0999 V2000
   -4.0456   -0.1785   -2.5809 O   0  0  0  0  0  0  0  0  0  0  0  0
   -4.7297   -0.3398   -1.5862 C   0  0  0  0  0  0  0  0  0  0  0  0
   -6.0580   -0.1127   -1.5918 O   0  0  0  0  0  0  0  0  0  0  0  0
   -4.2526   -0.8385   -0.2785 C   0  0  0  0  0  0  0  0  0  0  0  0
   -5.0086   -1.8081    0.3268 N   0  0  0  0  0  0  0  0  0  0  0  0
   -4.4880   -2.3302    1.4600 C   0  0  0  0  0  0  0  0  0  0  0  0
   -3.2603   -1.9338    1.9657 C   0  0  0  0  0  0  0  0  0  0  0  0
   -2.5004   -0.9851    1.3714 N   0  0  0  0  0  0  0  0  0  0  0  0
   -3.0302   -0.4327    0.2345 C   0  0  0  0  0  0  0  0  0  0  0  0
   -2.3011    0.7226   -0.3483 C   0  0  0  0  0  0  0  0  0  0  0  0
   -2.9464    1.7422   -0.5899 O   0  0  0  0  0  0  0  0  0  0  0  0
   -0.9285    0.6265   -0.5616 N   0  0  0  0  0  0  0  0  0  0  0  0
   -0.1435   -0.6086   -0.4113 C   0  0  0  0  0  0  0  0  0  0  0  0
    1.1605   -0.5753   -1.2264 C   0  0  0  0  0  0  0  0  0  0  0  0
    1.9957    0.5873   -0.8694 N   0  0  0  0  0  0  0  0  0  0  0  0
    3.1391    0.4236   -0.0781 C   0  0  0  0  0  0  0  0  0  0  0  0
    4.1343    1.4171   -0.0820 C   0  0  0  0  0  0  0  0  0  0  0  0
    5.2957    1.3034    0.6894 C   0  0  0  0  0  0  0  0  0  0  0  0
    5.4904    0.1840    1.4892 C   0  0  0  0  0  0  0  0  0  0  0  0
    4.5248   -0.8163    1.5122 C   0  0  0  0  0  0  0  0  0  0  0  0
    3.3653   -0.6960    0.7353 C   0  0  0  0  0  0  0  0  0  0  0  0
    1.2540    1.8478   -0.5999 C   0  0  0  0  0  0  0  0  0  0  0  0
   -0.2067    1.7909   -1.0845 C   0  0  0  0  0  0  0  0  0  0  0  0
   -6.2500    0.2050   -2.4977 H   0  0  0  0  0  0  0  0  0  0  0  0
   -5.0870   -3.0885    1.9533 H   0  0  0  0  0  0  0  0  0  0  0  0
   -2.8562   -2.3679    2.8744 H   0  0  0  0  0  0  0  0  0  0  0  0
    0.0852   -0.7161    0.6550 H   0  0  0  0  0  0  0  0  0  0  0  0
   -0.7501   -1.4646   -0.7238 H   0  0  0  0  0  0  0  0  0  0  0  0
    0.9075   -0.4810   -2.2907 H   0  0  0  0  0  0  0  0  0  0  0  0
    1.6967   -1.5267   -1.1438 H   0  0  0  0  0  0  0  0  0  0  0  0
    4.0233    2.2914   -0.7184 H   0  0  0  0  0  0  0  0  0  0  0  0
    6.0464    2.0880    0.6555 H   0  0  0  0  0  0  0  0  0  0  0  0
    6.3906    0.0904    2.0899 H   0  0  0  0  0  0  0  0  0  0  0  0
    4.6670   -1.6934    2.1377 H   0  0  0  0  0  0  0  0  0  0  0  0
    2.6327   -1.4927    0.8094 H   0  0  0  0  0  0  0  0  0  0  0  0
    1.2429    2.0465    0.4805 H   0  0  0  0  0  0  0  0  0  0  0  0
    1.7549    2.6870   -1.0958 H   0  0  0  0  0  0  0  0  0  0  0  0
   -0.7247    2.7140   -0.8030 H   0  0  0  0  0  0  0  0  0  0  0  0
   -0.2391    1.7191   -2.1786 H   0  0  0  0  0  0  0  0  0  0  0  0
  1  2  2  0
  2  3  1  0
  2  4  1  0
  4  5  2  0
  5  6  1  0
  6  7  2  0
  7  8  1  0
  8  9  2  0
  9 10  1  0
 10 11  2  0
 10 12  1  0
 12 13  1  0
 13 14  1  0
 14 15  1  0
 15 16  1  0
 16 17  2  0
 17 18  1  0
 18 19  2  0
 19 20  1  0
 20 21  2  0
 15 22  1  0
 22 23  1  0
  9  4  1  0
 23 12  1  0
 21 16  1  0
  3 24  1  0
  6 25  1  0
  7 26  1  0
 13 27  1  0
 13 28  1  0
 14 29  1  0
 14 30  1  0
 17 31  1  0
 18 32  1  0
 19 33  1  0
 20 34  1  0
 21 35  1  0
 22 36  1  0
 22 37  1  0
 23 38  1  0
 23 39  1  0
M  END
$$$$
