
     RDKit          3D

 37 40  0  0  0  0  0  0  0  0999 V2000
    6.1780   -1.5791   -0.9141 C   0  0  0  0  0  0  0  0  0  0  0  0
    4.8064   -0.9931   -0.7359 C   0  0  0  0  0  0  0  0  0  0  0  0
    3.9547   -0.8530   -1.8348 C   0  0  0  0  0  0  0  0  0  0  0  0
    2.6622   -0.3372   -1.6814 C   0  0  0  0  0  0  0  0  0  0  0  0
    2.2040    0.0367   -0.4032 C   0  0  0  0  0  0  0  0  0  0  0  0
    0.9562    0.5593   -0.1055 N   0  0  0  0  0  0  0  0  0  0  0  0
    0.8664    0.7758    1.1849 C   0  0  0  0  0  0  0  0  0  0  0  0
   -0.2761    1.3013    1.7285 N   0  0  0  0  0  0  0  0  0  0  0  0
   -0.5750    1.4675    3.0620 C   0  0  0  0  0  0  0  0  0  0  0  0
    0.1305    1.1569    4.0180 O   0  0  0  0  0  0  0  0  0  0  0  0
   -1.9306    2.1224    3.2871 C   0  0  0  0  0  0  0  0  0  0  0  0
   -3.2445    0.8811    3.4128 S   0  0  0  0  0  0  0  0  0  0  0  0
   -3.4952    0.4792    1.7392 C   0  0  0  0  0  0  0  0  0  0  0  0
   -2.8120    1.0256    0.7476 N   0  0  0  0  0  0  0  0  0  0  0  0
   -3.3078    0.4029   -0.3717 C   0  0  0  0  0  0  0  0  0  0  0  0
   -2.9736    0.5371   -1.7247 C   0  0  0  0  0  0  0  0  0  0  0  0
   -3.6692   -0.2496   -2.6558 C   0  0  0  0  0  0  0  0  0  0  0  0
   -4.6678   -1.1442   -2.2476 C   0  0  0  0  0  0  0  0  0  0  0  0
   -5.0089   -1.2907   -0.8973 C   0  0  0  0  0  0  0  0  0  0  0  0
   -4.2964   -0.4954   -0.0090 C   0  0  0  0  0  0  0  0  0  0  0  0
   -4.4232   -0.4492    1.3469 O   0  0  0  0  0  0  0  0  0  0  0  0
    2.2446    0.4053    2.1078 S   0  0  0  0  0  0  0  0  0  0  0  0
    3.0593   -0.1219    0.6875 C   0  0  0  0  0  0  0  0  0  0  0  0
    4.3588   -0.6383    0.5466 C   0  0  0  0  0  0  0  0  0  0  0  0
    6.1351   -2.6678   -0.8127 H   0  0  0  0  0  0  0  0  0  0  0  0
    6.5838   -1.3302   -1.9003 H   0  0  0  0  0  0  0  0  0  0  0  0
    6.8729   -1.1805   -0.1675 H   0  0  0  0  0  0  0  0  0  0  0  0
    4.2893   -1.1443   -2.8286 H   0  0  0  0  0  0  0  0  0  0  0  0
    2.0066   -0.2259   -2.5390 H   0  0  0  0  0  0  0  0  0  0  0  0
   -1.0186    1.4329    1.0446 H   0  0  0  0  0  0  0  0  0  0  0  0
   -2.1445    2.8612    2.5075 H   0  0  0  0  0  0  0  0  0  0  0  0
   -1.8820    2.6734    4.2326 H   0  0  0  0  0  0  0  0  0  0  0  0
   -2.1955    1.2240   -2.0397 H   0  0  0  0  0  0  0  0  0  0  0  0
   -3.4252   -0.1644   -3.7132 H   0  0  0  0  0  0  0  0  0  0  0  0
   -5.1875   -1.7413   -2.9953 H   0  0  0  0  0  0  0  0  0  0  0  0
   -5.7738   -1.9799   -0.5622 H   0  0  0  0  0  0  0  0  0  0  0  0
    4.9986   -0.7567    1.4168 H   0  0  0  0  0  0  0  0  0  0  0  0
  1  2  1  0
  2  3  2  0
  3  4  1  0
  4  5  2  0
  5  6  1  0
  6  7  2  0
  7  8  1  0
  8  9  1  0
  9 10  2  0
  9 11  1  0
 11 12  1  0
 12 13  1  0
 13 14  2  0
 14 15  1  0
 15 16  2  0
 16 17  1  0
 17 18  2  0
 18 19  1  0
 19 20  2  0
 20 21  1  0
  7 22  1  0
 22 23  1  0
 23 24  2  0
 24  2  1  0
 23  5  1  0
 21 13  1  0
 20 15  1  0
  1 25  1  0
  1 26  1  0
  1 27  1  0
  3 28  1  0
  4 29  1  0
  8 30  1  0
 11 31  1  0
 11 32  1  0
 16 33  1  0
 17 34  1  0
 18 35  1  0
 19 36  1  0
 24 37  1  0
M  END
$$$$
