
     RDKit          3D

 40 41  0  0  0  0  0  0  0  0999 V2000
   -0.2301   -2.3697    1.6762 C   0  0  0  0  0  0  0  0  0  0  0  0
    0.5865   -1.8618    0.4951 C   0  0  0  0  0  0  0  0  0  0  0  0
    0.5582   -0.3305    0.3665 C   0  0  0  0  0  0  0  0  0  0  0  0
    1.5576    0.1763   -0.6906 C   0  0  0  0  0  0  0  0  0  0  0  0
    3.0073    0.0352   -0.2976 C   0  0  0  0  0  0  0  0  0  0  0  0
    3.8386   -0.8775   -0.9608 C   0  0  0  0  0  0  0  0  0  0  0  0
    5.1787   -1.0106   -0.5935 C   0  0  0  0  0  0  0  0  0  0  0  0
    5.7011   -0.2321    0.4373 C   0  0  0  0  0  0  0  0  0  0  0  0
    4.8849    0.6818    1.1004 C   0  0  0  0  0  0  0  0  0  0  0  0
    3.5448    0.8167    0.7345 C   0  0  0  0  0  0  0  0  0  0  0  0
   -0.7498    0.0805   -0.1008 O   0  0  0  0  0  0  0  0  0  0  0  0
   -1.5924    0.6233    0.8085 C   0  0  0  0  0  0  0  0  0  0  0  0
   -1.3831    0.7727    2.0007 O   0  0  0  0  0  0  0  0  0  0  0  0
   -2.7800    1.1727    0.1176 C   0  0  0  0  0  0  0  0  0  0  0  0
   -3.2377    2.4275    0.5520 C   0  0  0  0  0  0  0  0  0  0  0  0
   -4.3010    3.0571   -0.0988 C   0  0  0  0  0  0  0  0  0  0  0  0
   -4.9142    2.4420   -1.1888 C   0  0  0  0  0  0  0  0  0  0  0  0
   -4.4791    1.1870   -1.6167 C   0  0  0  0  0  0  0  0  0  0  0  0
   -3.4249    0.5412   -0.9527 C   0  0  0  0  0  0  0  0  0  0  0  0
   -3.0796   -0.8109   -1.4184 C   0  0  0  0  0  0  0  0  0  0  0  0
   -2.9569   -1.1605   -2.5759 O   0  0  0  0  0  0  0  0  0  0  0  0
   -3.0308   -1.6769   -0.3938 O   0  0  0  0  0  0  0  0  0  0  0  0
   -0.1462   -3.4588    1.7494 H   0  0  0  0  0  0  0  0  0  0  0  0
    0.1329   -1.9396    2.6151 H   0  0  0  0  0  0  0  0  0  0  0  0
   -1.2897   -2.1249    1.5732 H   0  0  0  0  0  0  0  0  0  0  0  0
    1.6150   -2.2144    0.6265 H   0  0  0  0  0  0  0  0  0  0  0  0
    0.1931   -2.3196   -0.4205 H   0  0  0  0  0  0  0  0  0  0  0  0
    0.7913    0.1313    1.3336 H   0  0  0  0  0  0  0  0  0  0  0  0
    1.3614    1.2377   -0.8969 H   0  0  0  0  0  0  0  0  0  0  0  0
    1.3680   -0.3283   -1.6476 H   0  0  0  0  0  0  0  0  0  0  0  0
    3.4480   -1.4935   -1.7677 H   0  0  0  0  0  0  0  0  0  0  0  0
    5.8154   -1.7222   -1.1126 H   0  0  0  0  0  0  0  0  0  0  0  0
    6.7446   -0.3362    0.7225 H   0  0  0  0  0  0  0  0  0  0  0  0
    5.2921    1.2914    1.9029 H   0  0  0  0  0  0  0  0  0  0  0  0
    2.9230    1.5383    1.2604 H   0  0  0  0  0  0  0  0  0  0  0  0
   -2.7548    2.9248    1.3921 H   0  0  0  0  0  0  0  0  0  0  0  0
   -4.6444    4.0320    0.2406 H   0  0  0  0  0  0  0  0  0  0  0  0
   -5.7373    2.9359   -1.7006 H   0  0  0  0  0  0  0  0  0  0  0  0
   -4.9723    0.7049   -2.4591 H   0  0  0  0  0  0  0  0  0  0  0  0
   -2.8384   -2.5424   -0.8117 H   0  0  0  0  0  0  0  0  0  0  0  0
  1  2  1  0
  2  3  1  0
  3  4  1  0
  4  5  1  0
  5  6  2  0
  6  7  1  0
  7  8  2  0
  8  9  1  0
  9 10  2  0
  3 11  1  0
 11 12  1  0
 12 13  2  0
 12 14  1  0
 14 15  2  0
 15 16  1  0
 16 17  2  0
 17 18  1  0
 18 19  2  0
 19 20  1  0
 20 21  2  0
 20 22  1  0
 10  5  1  0
 19 14  1  0
  1 23  1  0
  1 24  1  0
  1 25  1  0
  2 26  1  0
  2 27  1  0
  3 28  1  0
  4 29  1  0
  4 30  1  0
  6 31  1  0
  7 32  1  0
  8 33  1  0
  9 34  1  0
 10 35  1  0
 15 36  1  0
 16 37  1  0
 17 38  1  0
 18 39  1  0
 22 40  1  0
M  END
$$$$
