
     RDKit          3D

 68 73  0  0  0  0  0  0  0  0999 V2000
   -2.4788    3.8015   -2.5591 C   0  0  0  0  0  0  0  0  0  0  0  0
   -3.0691    4.3363   -1.3805 O   0  0  0  0  0  0  0  0  0  0  0  0
   -2.9030    3.6185   -0.2234 C   0  0  0  0  0  0  0  0  0  0  0  0
   -3.5550    4.1727    0.8969 C   0  0  0  0  0  0  0  0  0  0  0  0
   -3.4869    3.5631    2.1519 C   0  0  0  0  0  0  0  0  0  0  0  0
   -2.7473    2.4041    2.2523 C   0  0  0  0  0  0  0  0  0  0  0  0
   -2.0764    1.8387    1.1608 C   0  0  0  0  0  0  0  0  0  0  0  0
   -2.1605    2.4379   -0.0933 C   0  0  0  0  0  0  0  0  0  0  0  0
   -1.3775    0.5842    1.6214 C   0  0  1  0  0  0  0  0  0  0  0  0
   -1.8098    0.4953    3.1236 C   0  0  0  0  0  0  0  0  0  0  0  0
   -1.5536   -0.3738    3.9452 O   0  0  0  0  0  0  0  0  0  0  0  0
   -2.5762    1.6317    3.3918 N   0  0  0  0  0  0  0  0  0  0  0  0
   -1.8619   -0.5656    0.8313 C   0  0  0  0  0  0  0  0  0  0  0  0
   -0.8030   -1.3594    0.3936 C   0  0  0  0  0  0  0  0  0  0  0  0
   -1.3061   -2.4202   -0.3129 C   0  0  0  0  0  0  0  0  0  0  0  0
   -0.6817   -3.4582   -0.8634 O   0  0  0  0  0  0  0  0  0  0  0  0
   -2.7095   -2.3002   -0.2970 N   0  0  0  0  0  0  0  0  0  0  0  0
   -3.6453   -3.2452   -0.8269 C   0  0  0  0  0  0  0  0  0  0  0  0
   -3.3359   -3.9916   -1.9715 C   0  0  0  0  0  0  0  0  0  0  0  0
   -4.2636   -4.9002   -2.4911 C   0  0  0  0  0  0  0  0  0  0  0  0
   -5.4981   -5.0776   -1.8677 C   0  0  0  0  0  0  0  0  0  0  0  0
   -5.8048   -4.3547   -0.7163 C   0  0  0  0  0  0  0  0  0  0  0  0
   -4.8819   -3.4444   -0.1930 C   0  0  0  0  0  0  0  0  0  0  0  0
   -3.0337   -1.0994    0.3666 C   0  0  0  0  0  0  0  0  0  0  0  0
   -4.2595   -0.5854    0.4582 O   0  0  0  0  0  0  0  0  0  0  0  0
    0.4986   -0.8247    0.8517 C   0  0  1  0  0  0  0  0  0  0  0  0
    1.5363   -0.6688   -0.2790 C   0  0  0  0  0  0  0  0  0  0  0  0
    2.6687    0.1556    0.1318 N   0  0  0  0  0  0  0  0  0  0  0  0
    3.9551   -0.2160   -0.1949 C   0  0  0  0  0  0  0  0  0  0  0  0
    4.2240   -1.2092   -0.8590 O   0  0  0  0  0  0  0  0  0  0  0  0
    4.8704    0.6509    0.3088 O   0  0  0  0  0  0  0  0  0  0  0  0
    6.2913    0.4469    0.0974 C   0  0  0  0  0  0  0  0  0  0  0  0
    6.9624    1.6281    0.8209 C   0  0  0  0  0  0  0  0  0  0  0  0
    6.6500    0.5235   -1.3917 C   0  0  0  0  0  0  0  0  0  0  0  0
    6.7691   -0.8601    0.7439 C   0  0  0  0  0  0  0  0  0  0  0  0
    2.3643    1.3421    0.9371 C   0  0  0  0  0  0  0  0  0  0  0  0
    0.8523    1.6280    1.0201 C   0  0  0  0  0  0  0  0  0  0  0  0
    0.1168    0.4711    1.5300 N   0  0  0  0  0  0  0  0  0  0  0  0
   -1.3853    3.8085   -2.4884 H   0  0  0  0  0  0  0  0  0  0  0  0
   -2.8502    2.7925   -2.7762 H   0  0  0  0  0  0  0  0  0  0  0  0
   -2.7639    4.4408   -3.3979 H   0  0  0  0  0  0  0  0  0  0  0  0
   -4.1305    5.0896    0.7784 H   0  0  0  0  0  0  0  0  0  0  0  0
   -4.0033    3.9868    3.0050 H   0  0  0  0  0  0  0  0  0  0  0  0
   -1.6574    1.9801   -0.9389 H   0  0  0  0  0  0  0  0  0  0  0  0
   -2.9919    1.8020    4.2950 H   0  0  0  0  0  0  0  0  0  0  0  0
    0.2466   -3.4495   -0.5696 H   0  0  0  0  0  0  0  0  0  0  0  0
   -2.3924   -3.8625   -2.4954 H   0  0  0  0  0  0  0  0  0  0  0  0
   -4.0200   -5.4666   -3.3872 H   0  0  0  0  0  0  0  0  0  0  0  0
   -6.2181   -5.7858   -2.2724 H   0  0  0  0  0  0  0  0  0  0  0  0
   -6.7566   -4.5141   -0.2150 H   0  0  0  0  0  0  0  0  0  0  0  0
   -5.1293   -2.9435    0.7413 H   0  0  0  0  0  0  0  0  0  0  0  0
   -4.8132   -0.9691   -0.2449 H   0  0  0  0  0  0  0  0  0  0  0  0
    0.9127   -1.4787    1.6292 H   0  0  0  0  0  0  0  0  0  0  0  0
    1.8758   -1.6536   -0.6171 H   0  0  0  0  0  0  0  0  0  0  0  0
    1.0883   -0.1790   -1.1541 H   0  0  0  0  0  0  0  0  0  0  0  0
    6.6918    1.6393    1.8837 H   0  0  0  0  0  0  0  0  0  0  0  0
    6.6194    2.5832    0.4026 H   0  0  0  0  0  0  0  0  0  0  0  0
    8.0542    1.5890    0.7409 H   0  0  0  0  0  0  0  0  0  0  0  0
    7.7355    0.5035   -1.5385 H   0  0  0  0  0  0  0  0  0  0  0  0
    6.2246   -0.3049   -1.9648 H   0  0  0  0  0  0  0  0  0  0  0  0
    6.2572    1.4462   -1.8337 H   0  0  0  0  0  0  0  0  0  0  0  0
    6.4307   -0.9263    1.7843 H   0  0  0  0  0  0  0  0  0  0  0  0
    7.8620   -0.9370    0.7258 H   0  0  0  0  0  0  0  0  0  0  0  0
    6.3715   -1.7390    0.2282 H   0  0  0  0  0  0  0  0  0  0  0  0
    2.7759    1.1760    1.9395 H   0  0  0  0  0  0  0  0  0  0  0  0
    2.8821    2.2027    0.4987 H   0  0  0  0  0  0  0  0  0  0  0  0
    0.6903    2.4981    1.6699 H   0  0  0  0  0  0  0  0  0  0  0  0
    0.5137    1.8959    0.0114 H   0  0  0  0  0  0  0  0  0  0  0  0
  1  2  1  0
  2  3  1  0
  3  4  2  0
  4  5  1  0
  5  6  2  0
  6  7  1  0
  7  8  2  0
  7  9  1  0
  9 10  1  0
 10 11  2  0
 10 12  1  0
  9 13  1  0
 13 14  1  0
 14 15  2  0
 15 16  1  0
 15 17  1  0
 17 18  1  0
 18 19  2  0
 19 20  1  0
 20 21  2  0
 21 22  1  0
 22 23  2  0
 17 24  1  0
 24 25  1  0
 14 26  1  0
 26 27  1  0
 27 28  1  0
 28 29  1  0
 29 30  2  0
 29 31  1  0
 31 32  1  0
 32 33  1  0
 32 34  1  0
 32 35  1  0
 28 36  1  0
 36 37  1  0
 37 38  1  0
  8  3  1  0
  9 38  1  1
 12  6  1  0
 24 13  2  0
 38 26  1  0
 23 18  1  0
  1 39  1  0
  1 40  1  0
  1 41  1  0
  4 42  1  0
  5 43  1  0
  8 44  1  0
 12 45  1  0
 16 46  1  0
 19 47  1  0
 20 48  1  0
 21 49  1  0
 22 50  1  0
 23 51  1  0
 25 52  1  0
 26 53  1  1
 27 54  1  0
 27 55  1  0
 33 56  1  0
 33 57  1  0
 33 58  1  0
 34 59  1  0
 34 60  1  0
 34 61  1  0
 35 62  1  0
 35 63  1  0
 35 64  1  0
 36 65  1  0
 36 66  1  0
 37 67  1  0
 37 68  1  0
M  END
$$$$
