
     RDKit          3D

 49 52  0  0  0  0  0  0  0  0999 V2000
    5.9432   -3.5657   -3.2568 C   0  0  0  0  0  0  0  0  0  0  0  0
    5.0727   -2.8096   -2.2972 C   0  0  0  0  0  0  0  0  0  0  0  0
    4.0900   -3.4757   -1.5555 C   0  0  0  0  0  0  0  0  0  0  0  0
    3.2582   -2.7675   -0.6840 C   0  0  0  0  0  0  0  0  0  0  0  0
    3.3906   -1.3826   -0.5537 C   0  0  0  0  0  0  0  0  0  0  0  0
    2.5122   -0.6522    0.3610 C   0  0  0  0  0  0  0  0  0  0  0  0
    1.4929    0.1160   -0.0500 C   0  0  0  0  0  0  0  0  0  0  0  0
    1.0434    0.3752   -1.4741 C   0  0  0  0  0  0  0  0  0  0  0  0
   -0.2122    1.2627   -1.3633 C   0  0  0  0  0  0  0  0  0  0  0  0
   -0.3573    1.4773    0.1050 C   0  0  0  0  0  0  0  0  0  0  0  0
    0.5873    0.8430    0.7955 C   0  0  0  0  0  0  0  0  0  0  0  0
    0.6741    0.7809    2.1794 O   0  0  0  0  0  0  0  0  0  0  0  0
   -0.1959    1.5545    2.8827 C   0  0  0  0  0  0  0  0  0  0  0  0
   -0.2898    1.3308    4.1510 N   0  0  0  0  0  0  0  0  0  0  0  0
   -0.9085    2.6835    2.1700 C   0  0  0  0  0  0  0  0  0  0  0  0
   -1.9532    3.3217    2.9838 C   0  0  0  0  0  0  0  0  0  0  0  0
   -2.7743    3.8947    3.5729 N   0  0  0  0  0  0  0  0  0  0  0  0
   -1.4248    2.2775    0.7719 C   0  0  0  0  0  0  0  0  0  0  0  0
   -2.7643    1.5523    0.7454 C   0  0  0  0  0  0  0  0  0  0  0  0
   -2.9462    0.2910    1.3332 C   0  0  0  0  0  0  0  0  0  0  0  0
   -4.1911   -0.3435    1.2937 C   0  0  0  0  0  0  0  0  0  0  0  0
   -5.2840    0.2707    0.6761 C   0  0  0  0  0  0  0  0  0  0  0  0
   -6.6118   -0.4235    0.6126 C   0  0  0  0  0  0  0  0  0  0  0  0
   -5.1064    1.5191    0.0739 C   0  0  0  0  0  0  0  0  0  0  0  0
   -3.8626    2.1548    0.1119 C   0  0  0  0  0  0  0  0  0  0  0  0
    4.3631   -0.7121   -1.3013 C   0  0  0  0  0  0  0  0  0  0  0  0
    5.1949   -1.4207   -2.1723 C   0  0  0  0  0  0  0  0  0  0  0  0
    5.4673   -3.6060   -4.2414 H   0  0  0  0  0  0  0  0  0  0  0  0
    6.1161   -4.5882   -2.9048 H   0  0  0  0  0  0  0  0  0  0  0  0
    6.9229   -3.0868   -3.3561 H   0  0  0  0  0  0  0  0  0  0  0  0
    3.9656   -4.5521   -1.6503 H   0  0  0  0  0  0  0  0  0  0  0  0
    2.5031   -3.3042   -0.1147 H   0  0  0  0  0  0  0  0  0  0  0  0
    2.7276   -0.7857    1.4180 H   0  0  0  0  0  0  0  0  0  0  0  0
    0.8024   -0.5601   -1.9919 H   0  0  0  0  0  0  0  0  0  0  0  0
    1.8206    0.8989   -2.0423 H   0  0  0  0  0  0  0  0  0  0  0  0
   -0.0696    2.2102   -1.8931 H   0  0  0  0  0  0  0  0  0  0  0  0
   -1.0866    0.7539   -1.7821 H   0  0  0  0  0  0  0  0  0  0  0  0
    0.3234    0.5370    4.3740 H   0  0  0  0  0  0  0  0  0  0  0  0
   -0.1229    3.4422    2.0238 H   0  0  0  0  0  0  0  0  0  0  0  0
   -1.5357    3.2104    0.1995 H   0  0  0  0  0  0  0  0  0  0  0  0
   -2.1268   -0.2260    1.8265 H   0  0  0  0  0  0  0  0  0  0  0  0
   -4.3020   -1.3224    1.7554 H   0  0  0  0  0  0  0  0  0  0  0  0
   -7.4318    0.3021    0.5952 H   0  0  0  0  0  0  0  0  0  0  0  0
   -6.6677   -1.0424   -0.2882 H   0  0  0  0  0  0  0  0  0  0  0  0
   -6.7618   -1.0610    1.4903 H   0  0  0  0  0  0  0  0  0  0  0  0
   -5.9394    2.0111   -0.4236 H   0  0  0  0  0  0  0  0  0  0  0  0
   -3.7667    3.1324   -0.3563 H   0  0  0  0  0  0  0  0  0  0  0  0
    4.4804    0.3650   -1.2111 H   0  0  0  0  0  0  0  0  0  0  0  0
    5.9412   -0.8808   -2.7507 H   0  0  0  0  0  0  0  0  0  0  0  0
  1  2  1  0
  2  3  2  0
  3  4  1  0
  4  5  2  0
  5  6  1  0
  6  7  2  3
  7  8  1  0
  8  9  1  0
  9 10  1  0
 10 11  2  0
 11 12  1  0
 12 13  1  0
 13 14  2  3
 13 15  1  0
 15 16  1  0
 16 17  3  0
 15 18  1  0
 18 19  1  0
 19 20  2  0
 20 21  1  0
 21 22  2  0
 22 23  1  0
 22 24  1  0
 24 25  2  0
  5 26  1  0
 26 27  2  0
 27  2  1  0
 11  7  1  0
 25 19  1  0
 18 10  1  0
  1 28  1  0
  1 29  1  0
  1 30  1  0
  3 31  1  0
  4 32  1  0
  6 33  1  0
  8 34  1  0
  8 35  1  0
  9 36  1  0
  9 37  1  0
 14 38  1  0
 15 39  1  0
 18 40  1  0
 20 41  1  0
 21 42  1  0
 23 43  1  0
 23 44  1  0
 23 45  1  0
 24 46  1  0
 25 47  1  0
 26 48  1  0
 27 49  1  0
M  END
$$$$
