
     RDKit          3D

 42 45  0  0  0  0  0  0  0  0999 V2000
    6.9814   -2.4189    0.1032 O   0  0  0  0  0  0  0  0  0  0  0  0
    6.8599   -2.3858    1.3152 C   0  0  0  0  0  0  0  0  0  0  0  0
    7.5724   -3.2151    2.1020 O   0  0  0  0  0  0  0  0  0  0  0  0
    5.9598   -1.4883    2.1196 C   0  0  0  0  0  0  0  0  0  0  0  0
    5.1681   -0.5417    1.2217 C   0  0  0  0  0  0  0  0  0  0  0  0
    4.2532    0.3669    2.0438 C   0  0  0  0  0  0  0  0  0  0  0  0
    3.4864    1.2728    1.1865 N   0  0  0  0  0  0  0  0  0  0  0  0
    2.2894    0.8190    0.6500 C   0  0  0  0  0  0  0  0  0  0  0  0
    1.8107   -0.2843    0.8682 O   0  0  0  0  0  0  0  0  0  0  0  0
    1.6742    1.8622   -0.2218 C   0  0  0  0  0  0  0  0  0  0  0  0
    0.5263    1.8457   -0.9134 C   0  0  0  0  0  0  0  0  0  0  0  0
   -0.3929    0.7684   -1.0150 C   0  0  0  0  0  0  0  0  0  0  0  0
   -0.2114   -0.5965   -1.1763 C   0  0  0  0  0  0  0  0  0  0  0  0
   -1.4893   -1.2008   -1.2562 C   0  0  0  0  0  0  0  0  0  0  0  0
   -2.4265   -0.1875   -1.1690 C   0  0  0  0  0  0  0  0  0  0  0  0
   -3.8658   -0.2484   -1.2018 C   0  0  0  0  0  0  0  0  0  0  0  0
   -4.6105    0.8346   -1.1278 N   0  0  0  0  0  0  0  0  0  0  0  0
   -5.9511    0.4964   -1.1810 C   0  0  0  0  0  0  0  0  0  0  0  0
   -7.0338    1.3976   -1.1281 C   0  0  0  0  0  0  0  0  0  0  0  0
   -8.3450    0.9151   -1.1930 C   0  0  0  0  0  0  0  0  0  0  0  0
   -8.5883   -0.4498   -1.3092 C   0  0  0  0  0  0  0  0  0  0  0  0
   -7.5318   -1.3645   -1.3635 C   0  0  0  0  0  0  0  0  0  0  0  0
   -6.2192   -0.8682   -1.2979 C   0  0  0  0  0  0  0  0  0  0  0  0
   -4.7290   -1.7269   -1.3402 S   0  0  0  0  0  0  0  0  0  0  0  0
   -1.7486    0.9985   -1.0431 O   0  0  0  0  0  0  0  0  0  0  0  0
    2.6883    3.2689   -0.2213 S   0  0  0  0  0  0  0  0  0  0  0  0
    3.8917    2.5390    0.8265 C   0  0  0  0  0  0  0  0  0  0  0  0
    5.2871    3.3409    1.2658 S   0  0  0  0  0  0  0  0  0  0  0  0
    8.1081   -3.7425    1.4724 H   0  0  0  0  0  0  0  0  0  0  0  0
    5.2728   -2.1182    2.6950 H   0  0  0  0  0  0  0  0  0  0  0  0
    6.5816   -0.9103    2.8119 H   0  0  0  0  0  0  0  0  0  0  0  0
    5.8577    0.0638    0.6206 H   0  0  0  0  0  0  0  0  0  0  0  0
    4.5719   -1.1220    0.5058 H   0  0  0  0  0  0  0  0  0  0  0  0
    3.5524   -0.2457    2.6239 H   0  0  0  0  0  0  0  0  0  0  0  0
    4.8404    0.9438    2.7654 H   0  0  0  0  0  0  0  0  0  0  0  0
    0.2143    2.7480   -1.4356 H   0  0  0  0  0  0  0  0  0  0  0  0
    0.7401   -1.1083   -1.2296 H   0  0  0  0  0  0  0  0  0  0  0  0
   -1.6931   -2.2563   -1.3711 H   0  0  0  0  0  0  0  0  0  0  0  0
   -6.8383    2.4617   -1.0375 H   0  0  0  0  0  0  0  0  0  0  0  0
   -9.1770    1.6144   -1.1522 H   0  0  0  0  0  0  0  0  0  0  0  0
   -9.6132   -0.8119   -1.3585 H   0  0  0  0  0  0  0  0  0  0  0  0
   -7.7233   -2.4294   -1.4543 H   0  0  0  0  0  0  0  0  0  0  0  0
  1  2  2  0
  2  3  1  0
  2  4  1  0
  4  5  1  0
  5  6  1  0
  6  7  1  0
  7  8  1  0
  8  9  2  0
  8 10  1  0
 10 11  2  3
 11 12  1  0
 12 13  2  0
 13 14  1  0
 14 15  2  0
 15 16  1  0
 16 17  2  0
 17 18  1  0
 18 19  2  0
 19 20  1  0
 20 21  2  0
 21 22  1  0
 22 23  2  0
 23 24  1  0
 15 25  1  0
 10 26  1  0
 26 27  1  0
 27 28  2  0
 27  7  1  0
 25 12  1  0
 24 16  1  0
 23 18  1  0
  3 29  1  0
  4 30  1  0
  4 31  1  0
  5 32  1  0
  5 33  1  0
  6 34  1  0
  6 35  1  0
 11 36  1  0
 13 37  1  0
 14 38  1  0
 19 39  1  0
 20 40  1  0
 21 41  1  0
 22 42  1  0
M  END
$$$$
