
     RDKit          3D

 35 36  0  0  0  0  0  0  0  0999 V2000
    1.2606    0.9167    0.9315 O   0  0  0  0  0  0  0  0  0  0  0  0
    1.8769    0.1793    0.1697 C   0  0  0  0  0  0  0  0  0  0  0  0
    1.2657   -0.6279   -0.7693 N   0  0  0  0  0  0  0  0  0  0  0  0
   -0.1794   -0.6539   -0.9125 C   0  0  0  0  0  0  0  0  0  0  0  0
   -0.8377   -1.5106    0.1675 C   0  0  0  0  0  0  0  0  0  0  0  0
   -2.3517   -1.5986   -0.0065 C   0  0  0  0  0  0  0  0  0  0  0  0
   -3.0081   -0.3082    0.0883 N   0  0  0  0  0  0  0  0  0  0  0  0
   -3.2040    0.3809    1.3392 C   0  0  0  0  0  0  0  0  0  0  0  0
   -3.5914    1.7816    0.9067 C   0  0  0  0  0  0  0  0  0  0  0  0
   -4.2971    1.5730   -0.4282 C   0  0  0  0  0  0  0  0  0  0  0  0
   -3.6387    0.3283   -0.9695 C   0  0  0  0  0  0  0  0  0  0  0  0
   -3.6900   -0.0571   -2.1256 O   0  0  0  0  0  0  0  0  0  0  0  0
    3.3523    0.0948    0.2641 C   0  0  0  0  0  0  0  0  0  0  0  0
    3.9854    0.3850    1.4747 C   0  0  0  0  0  0  0  0  0  0  0  0
    5.3738    0.3076    1.5597 C   0  0  0  0  0  0  0  0  0  0  0  0
    6.0827   -0.0525    0.4243 C   0  0  0  0  0  0  0  0  0  0  0  0
    5.5045   -0.3257   -0.7665 N   0  0  0  0  0  0  0  0  0  0  0  0
    4.1522   -0.2336   -0.8220 C   0  0  0  0  0  0  0  0  0  0  0  0
    1.7907   -1.3571   -1.2327 H   0  0  0  0  0  0  0  0  0  0  0  0
   -0.5449    0.3778   -0.8705 H   0  0  0  0  0  0  0  0  0  0  0  0
   -0.3956   -1.0545   -1.9084 H   0  0  0  0  0  0  0  0  0  0  0  0
   -0.5973   -1.1124    1.1602 H   0  0  0  0  0  0  0  0  0  0  0  0
   -0.4179   -2.5237    0.1330 H   0  0  0  0  0  0  0  0  0  0  0  0
   -2.7826   -2.2475    0.7641 H   0  0  0  0  0  0  0  0  0  0  0  0
   -2.5832   -2.0482   -0.9787 H   0  0  0  0  0  0  0  0  0  0  0  0
   -4.0128   -0.1163    1.8845 H   0  0  0  0  0  0  0  0  0  0  0  0
   -2.2912    0.3762    1.9405 H   0  0  0  0  0  0  0  0  0  0  0  0
   -2.6873    2.3833    0.7494 H   0  0  0  0  0  0  0  0  0  0  0  0
   -4.2137    2.2978    1.6430 H   0  0  0  0  0  0  0  0  0  0  0  0
   -5.3653    1.3786   -0.2928 H   0  0  0  0  0  0  0  0  0  0  0  0
   -4.1469    2.4209   -1.1006 H   0  0  0  0  0  0  0  0  0  0  0  0
    3.4003    0.6693    2.3462 H   0  0  0  0  0  0  0  0  0  0  0  0
    5.8892    0.5254    2.4887 H   0  0  0  0  0  0  0  0  0  0  0  0
    7.1666   -0.1275    0.4415 H   0  0  0  0  0  0  0  0  0  0  0  0
    3.7360   -0.4211   -1.8070 H   0  0  0  0  0  0  0  0  0  0  0  0
  1  2  2  0
  2  3  1  0
  3  4  1  0
  4  5  1  0
  5  6  1  0
  6  7  1  0
  7  8  1  0
  8  9  1  0
  9 10  1  0
 10 11  1  0
 11 12  2  0
  2 13  1  0
 13 14  2  0
 14 15  1  0
 15 16  2  0
 16 17  1  0
 17 18  2  0
 11  7  1  0
 18 13  1  0
  3 19  1  0
  4 20  1  0
  4 21  1  0
  5 22  1  0
  5 23  1  0
  6 24  1  0
  6 25  1  0
  8 26  1  0
  8 27  1  0
  9 28  1  0
  9 29  1  0
 10 30  1  0
 10 31  1  0
 14 32  1  0
 15 33  1  0
 16 34  1  0
 18 35  1  0
M  END
$$$$
