
     RDKit          3D

 50 53  0  0  0  0  0  0  0  0999 V2000
   -7.6616    2.3409    0.2046 C   0  0  0  0  0  0  0  0  0  0  0  0
   -6.3020    1.7140    0.3066 C   0  0  0  0  0  0  0  0  0  0  0  0
   -5.2543    2.3794    0.9490 C   0  0  0  0  0  0  0  0  0  0  0  0
   -3.9813    1.8030    1.0162 C   0  0  0  0  0  0  0  0  0  0  0  0
   -3.7414    0.5517    0.4345 C   0  0  0  0  0  0  0  0  0  0  0  0
   -2.3116   -0.0937    0.5227 C   0  0  0  0  0  0  0  0  0  0  0  0
   -1.1781    0.4801    1.0869 C   0  0  0  0  0  0  0  0  0  0  0  0
   -0.1041   -0.3997    0.9482 N   0  0  0  0  0  4  0  0  0  0  0  0
    1.2901   -0.1686    1.3570 C   0  0  0  0  0  0  0  0  0  0  0  0
    2.2482   -0.1199    0.1562 C   0  0  0  0  0  0  0  0  0  0  0  0
    1.8529   -0.4099   -0.9703 O   0  0  0  0  0  0  0  0  0  0  0  0
    3.5399    0.2379    0.5130 N   0  0  0  0  0  0  0  0  0  0  0  0
    4.6698    0.3610   -0.3361 C   0  0  0  0  0  0  0  0  0  0  0  0
    4.5958    0.1703   -1.7216 C   0  0  0  0  0  0  0  0  0  0  0  0
    5.7324    0.2897   -2.5266 C   0  0  0  0  0  0  0  0  0  0  0  0
    6.9606    0.6009   -1.9589 C   0  0  0  0  0  0  0  0  0  0  0  0
    7.0542    0.7990   -0.5846 C   0  0  0  0  0  0  0  0  0  0  0  0
    5.9207    0.6816    0.2410 C   0  0  0  0  0  0  0  0  0  0  0  0
    6.1093    0.8914    1.7197 C   0  0  0  0  0  0  0  0  0  0  0  0
   -0.5517   -1.4701    0.2970 C   0  0  0  0  0  0  0  0  0  0  0  0
   -1.8577   -1.3253    0.0855 N   0  0  0  0  0  0  0  0  0  0  0  0
   -2.4297   -2.4908   -0.5729 C   0  0  0  0  0  0  0  0  0  0  0  0
   -1.3202   -3.5686   -0.4265 C   0  0  0  0  0  0  0  0  0  0  0  0
   -0.0244   -2.7709   -0.1863 C   0  0  0  0  0  0  0  0  0  0  0  0
   -4.7792   -0.1043   -0.2275 C   0  0  0  0  0  0  0  0  0  0  0  0
   -6.0507    0.4757   -0.2940 C   0  0  0  0  0  0  0  0  0  0  0  0
   -7.8253    3.0598    1.0154 H   0  0  0  0  0  0  0  0  0  0  0  0
   -7.7622    2.8608   -0.7536 H   0  0  0  0  0  0  0  0  0  0  0  0
   -8.4451    1.5781    0.2801 H   0  0  0  0  0  0  0  0  0  0  0  0
   -5.4251    3.3542    1.4036 H   0  0  0  0  0  0  0  0  0  0  0  0
   -3.2045    2.3603    1.5322 H   0  0  0  0  0  0  0  0  0  0  0  0
   -0.9965    1.4256    1.5646 H   0  0  0  0  0  0  0  0  0  0  0  0
    1.5887   -0.9880    2.0209 H   0  0  0  0  0  0  0  0  0  0  0  0
    1.3491    0.7794    1.9030 H   0  0  0  0  0  0  0  0  0  0  0  0
    3.7222    0.4188    1.4913 H   0  0  0  0  0  0  0  0  0  0  0  0
    3.6664   -0.0641   -2.2241 H   0  0  0  0  0  0  0  0  0  0  0  0
    5.6537    0.1411   -3.5994 H   0  0  0  0  0  0  0  0  0  0  0  0
    7.8461    0.6938   -2.5832 H   0  0  0  0  0  0  0  0  0  0  0  0
    8.0281    1.0473   -0.1569 H   0  0  0  0  0  0  0  0  0  0  0  0
    7.1404    1.1788    1.9600 H   0  0  0  0  0  0  0  0  0  0  0  0
    5.8891   -0.0367    2.2648 H   0  0  0  0  0  0  0  0  0  0  0  0
    5.4588    1.6980    2.0828 H   0  0  0  0  0  0  0  0  0  0  0  0
   -3.3500   -2.8097   -0.0792 H   0  0  0  0  0  0  0  0  0  0  0  0
   -2.6098   -2.2507   -1.6246 H   0  0  0  0  0  0  0  0  0  0  0  0
   -1.2582   -4.2373   -1.2888 H   0  0  0  0  0  0  0  0  0  0  0  0
   -1.5348   -4.1757    0.4617 H   0  0  0  0  0  0  0  0  0  0  0  0
    0.6198   -3.2062    0.5791 H   0  0  0  0  0  0  0  0  0  0  0  0
    0.5106   -2.5795   -1.1163 H   0  0  0  0  0  0  0  0  0  0  0  0
   -4.6386   -1.0569   -0.7201 H   0  0  0  0  0  0  0  0  0  0  0  0
   -6.8489   -0.0460   -0.8211 H   0  0  0  0  0  0  0  0  0  0  0  0
  1  2  1  0
  2  3  2  0
  3  4  1  0
  4  5  2  0
  5  6  1  0
  6  7  2  0
  7  8  1  0
  8  9  1  0
  9 10  1  0
 10 11  2  0
 10 12  1  0
 12 13  1  0
 13 14  2  0
 14 15  1  0
 15 16  2  0
 16 17  1  0
 17 18  2  0
 18 19  1  0
  8 20  2  0
 20 21  1  0
 21 22  1  0
 22 23  1  0
 23 24  1  0
  5 25  1  0
 25 26  2  0
 26  2  1  0
 21  6  1  0
 18 13  1  0
 24 20  1  0
  1 27  1  0
  1 28  1  0
  1 29  1  0
  3 30  1  0
  4 31  1  0
  7 32  1  0
  9 33  1  0
  9 34  1  0
 12 35  1  0
 14 36  1  0
 15 37  1  0
 16 38  1  0
 17 39  1  0
 19 40  1  0
 19 41  1  0
 19 42  1  0
 22 43  1  0
 22 44  1  0
 23 45  1  0
 23 46  1  0
 24 47  1  0
 24 48  1  0
 25 49  1  0
 26 50  1  0
M  CHG  1   8   1
M  END
$$$$
