
     RDKit          3D

 46 47  0  0  0  0  0  0  0  0999 V2000
    0.8988   -1.0277    1.4306 O   0  0  0  0  0  0  0  0  0  0  0  0
    0.7575   -0.3642    0.4142 C   0  0  0  0  0  0  0  0  0  0  0  0
   -0.4412   -0.1537   -0.2224 N   0  0  0  0  0  0  0  0  0  0  0  0
   -1.6964   -0.6536    0.3415 C   0  0  0  0  0  0  0  0  0  0  0  0
   -2.7151   -0.8562   -0.7896 C   0  0  0  0  0  0  0  0  0  0  0  0
   -3.3665    0.4348   -1.2882 C   0  0  0  0  0  0  0  0  0  0  0  0
   -4.8749    0.5000   -1.0578 C   0  0  0  0  0  0  0  0  0  0  0  0
   -5.3904    0.0965    0.3247 C   0  0  0  0  0  0  0  0  0  0  0  0
   -4.6884    0.7469    1.5153 C   0  0  0  0  0  0  0  0  0  0  0  0
   -3.5205   -0.0601    2.0991 C   0  0  0  0  0  0  0  0  0  0  0  0
   -2.1507    0.2570    1.4983 C   0  0  0  0  0  0  0  0  0  0  0  0
    1.7770    0.2735   -0.2504 N   0  0  0  0  0  0  0  0  0  0  0  0
    3.1589    0.1203    0.1841 C   0  0  0  0  0  0  0  0  0  0  0  0
    3.7441   -1.2227   -0.2638 C   0  0  0  0  0  0  0  0  0  0  0  0
    5.1632   -1.4323    0.2702 C   0  0  0  0  0  0  0  0  0  0  0  0
    5.9316   -0.1296    0.4970 C   0  0  0  0  0  0  0  0  0  0  0  0
    5.4961    0.9590   -0.4733 C   0  0  0  0  0  0  0  0  0  0  0  0
    4.0087    1.2927   -0.3325 C   0  0  0  0  0  0  0  0  0  0  0  0
   -0.4900    0.7209   -0.7237 H   0  0  0  0  0  0  0  0  0  0  0  0
   -1.4799   -1.6455    0.7604 H   0  0  0  0  0  0  0  0  0  0  0  0
   -3.4689   -1.5831   -0.4703 H   0  0  0  0  0  0  0  0  0  0  0  0
   -2.2047   -1.3345   -1.6371 H   0  0  0  0  0  0  0  0  0  0  0  0
   -2.8938    1.3239   -0.8589 H   0  0  0  0  0  0  0  0  0  0  0  0
   -3.1943    0.5174   -2.3694 H   0  0  0  0  0  0  0  0  0  0  0  0
   -5.2073    1.5232   -1.2752 H   0  0  0  0  0  0  0  0  0  0  0  0
   -5.3715   -0.1384   -1.8000 H   0  0  0  0  0  0  0  0  0  0  0  0
   -6.4496    0.3857    0.3595 H   0  0  0  0  0  0  0  0  0  0  0  0
   -5.3904   -0.9943    0.4316 H   0  0  0  0  0  0  0  0  0  0  0  0
   -4.3901    1.7762    1.2858 H   0  0  0  0  0  0  0  0  0  0  0  0
   -5.4390    0.8245    2.3139 H   0  0  0  0  0  0  0  0  0  0  0  0
   -3.7244   -1.1366    2.0768 H   0  0  0  0  0  0  0  0  0  0  0  0
   -3.4626    0.2095    3.1628 H   0  0  0  0  0  0  0  0  0  0  0  0
   -2.0971    1.3144    1.2114 H   0  0  0  0  0  0  0  0  0  0  0  0
   -1.4099    0.1528    2.3033 H   0  0  0  0  0  0  0  0  0  0  0  0
    1.6248    0.3563   -1.2448 H   0  0  0  0  0  0  0  0  0  0  0  0
    3.1605    0.1458    1.2822 H   0  0  0  0  0  0  0  0  0  0  0  0
    3.1114   -2.0592    0.0557 H   0  0  0  0  0  0  0  0  0  0  0  0
    3.7601   -1.2621   -1.3614 H   0  0  0  0  0  0  0  0  0  0  0  0
    5.7121   -2.0694   -0.4339 H   0  0  0  0  0  0  0  0  0  0  0  0
    5.1253   -1.9859    1.2162 H   0  0  0  0  0  0  0  0  0  0  0  0
    7.0073   -0.3161    0.4021 H   0  0  0  0  0  0  0  0  0  0  0  0
    5.7650    0.2172    1.5248 H   0  0  0  0  0  0  0  0  0  0  0  0
    6.0921    1.8657   -0.3199 H   0  0  0  0  0  0  0  0  0  0  0  0
    5.6960    0.6247   -1.4993 H   0  0  0  0  0  0  0  0  0  0  0  0
    3.6414    1.6471   -1.3043 H   0  0  0  0  0  0  0  0  0  0  0  0
    3.8858    2.1393    0.3553 H   0  0  0  0  0  0  0  0  0  0  0  0
  1  2  2  0
  2  3  1  0
  3  4  1  0
  4  5  1  0
  5  6  1  0
  6  7  1  0
  7  8  1  0
  8  9  1  0
  9 10  1  0
 10 11  1  0
  2 12  1  0
 12 13  1  0
 13 14  1  0
 14 15  1  0
 15 16  1  0
 16 17  1  0
 17 18  1  0
 11  4  1  0
 18 13  1  0
  3 19  1  0
  4 20  1  0
  5 21  1  0
  5 22  1  0
  6 23  1  0
  6 24  1  0
  7 25  1  0
  7 26  1  0
  8 27  1  0
  8 28  1  0
  9 29  1  0
  9 30  1  0
 10 31  1  0
 10 32  1  0
 11 33  1  0
 11 34  1  0
 12 35  1  0
 13 36  1  0
 14 37  1  0
 14 38  1  0
 15 39  1  0
 15 40  1  0
 16 41  1  0
 16 42  1  0
 17 43  1  0
 17 44  1  0
 18 45  1  0
 18 46  1  0
M  END
$$$$
