
     RDKit          3D

 43 45  0  0  0  0  0  0  0  0999 V2000
    7.6139    0.9636   -0.3762 C   0  0  0  0  0  0  0  0  0  0  0  0
    6.1104    0.9202   -0.2588 C   0  0  0  0  0  0  0  0  0  0  0  0
    5.4651   -0.4271   -0.2322 C   0  0  0  0  0  0  0  0  0  0  0  0
    4.1224   -0.4624   -0.1282 C   0  0  0  0  0  0  0  0  0  0  0  0
    3.4070   -1.7783   -0.0904 C   0  0  0  0  0  0  0  0  0  0  0  0
    3.4313    0.7635   -0.0520 N   0  0  0  0  0  0  0  0  0  0  0  0
    2.1037    1.1343    0.0594 C   0  0  0  0  0  0  0  0  0  0  0  0
    0.7497    0.0564    0.1143 S   0  0  0  0  0  0  0  0  0  0  0  0
   -0.5147    1.1629    0.8114 C   0  0  0  0  0  0  0  0  0  0  0  0
   -1.8396    0.4214    0.8903 C   0  0  0  0  0  0  0  0  0  0  0  0
   -2.1390   -0.1711    1.9312 O   0  0  0  0  0  0  0  0  0  0  0  0
   -2.6929    0.4240   -0.2137 N   0  0  0  0  0  0  0  0  0  0  0  0
   -2.3661    1.0220   -1.5060 C   0  0  0  0  0  0  0  0  0  0  0  0
   -3.9885   -0.2721   -0.1475 C   0  0  0  0  0  0  0  0  0  0  0  0
   -3.8769   -1.7935    0.0416 C   0  0  0  0  0  0  0  0  0  0  0  0
   -5.3075   -2.3062    0.1541 C   0  0  0  0  0  0  0  0  0  0  0  0
   -6.2262   -1.0078    0.9706 S   0  0  0  0  0  6  0  0  0  0  0  0
   -6.4842   -1.3976    2.3402 O   0  0  0  0  0  0  0  0  0  0  0  0
   -7.2866   -0.5802    0.0796 O   0  0  0  0  0  0  0  0  0  0  0  0
   -4.9411    0.2288    0.9398 C   0  0  0  0  0  0  0  0  0  0  0  0
    1.9915    2.4413    0.0978 N   0  0  0  0  0  0  0  0  0  0  0  0
    3.2489    2.9724    0.0110 N   0  0  0  0  0  0  0  0  0  0  0  0
    4.1166    1.9849   -0.0801 C   0  0  0  0  0  0  0  0  0  0  0  0
    5.4745    2.0492   -0.1875 N   0  0  0  0  0  0  0  0  0  0  0  0
    8.0291    1.4690    0.5008 H   0  0  0  0  0  0  0  0  0  0  0  0
    8.0424   -0.0396   -0.4404 H   0  0  0  0  0  0  0  0  0  0  0  0
    7.8893    1.5238   -1.2746 H   0  0  0  0  0  0  0  0  0  0  0  0
    6.0892   -1.3095   -0.2944 H   0  0  0  0  0  0  0  0  0  0  0  0
    2.8553   -1.8979    0.8470 H   0  0  0  0  0  0  0  0  0  0  0  0
    2.7243   -1.8779   -0.9398 H   0  0  0  0  0  0  0  0  0  0  0  0
    4.1065   -2.6204   -0.1512 H   0  0  0  0  0  0  0  0  0  0  0  0
   -0.2244    1.4409    1.8313 H   0  0  0  0  0  0  0  0  0  0  0  0
   -0.6211    2.0953    0.2518 H   0  0  0  0  0  0  0  0  0  0  0  0
   -3.1080    1.7957   -1.7251 H   0  0  0  0  0  0  0  0  0  0  0  0
   -1.3745    1.4682   -1.5470 H   0  0  0  0  0  0  0  0  0  0  0  0
   -2.4186    0.2416   -2.2718 H   0  0  0  0  0  0  0  0  0  0  0  0
   -4.4870   -0.1048   -1.1139 H   0  0  0  0  0  0  0  0  0  0  0  0
   -3.3477   -2.2704   -0.7899 H   0  0  0  0  0  0  0  0  0  0  0  0
   -3.3326   -2.0467    0.9572 H   0  0  0  0  0  0  0  0  0  0  0  0
   -5.7490   -2.4555   -0.8356 H   0  0  0  0  0  0  0  0  0  0  0  0
   -5.3747   -3.2287    0.7344 H   0  0  0  0  0  0  0  0  0  0  0  0
   -4.4967    0.2654    1.9361 H   0  0  0  0  0  0  0  0  0  0  0  0
   -5.3731    1.2028    0.6982 H   0  0  0  0  0  0  0  0  0  0  0  0
  1  2  1  0
  2  3  1  0
  3  4  2  0
  4  5  1  0
  4  6  1  0
  6  7  1  0
  7  8  1  0
  8  9  1  0
  9 10  1  0
 10 11  2  0
 10 12  1  0
 12 13  1  0
 12 14  1  0
 14 15  1  0
 15 16  1  0
 16 17  1  0
 17 18  2  0
 17 19  2  0
 17 20  1  0
  7 21  2  0
 21 22  1  0
 22 23  2  0
 23 24  1  0
 24  2  2  0
 23  6  1  0
 20 14  1  0
  1 25  1  0
  1 26  1  0
  1 27  1  0
  3 28  1  0
  5 29  1  0
  5 30  1  0
  5 31  1  0
  9 32  1  0
  9 33  1  0
 13 34  1  0
 13 35  1  0
 13 36  1  0
 14 37  1  0
 15 38  1  0
 15 39  1  0
 16 40  1  0
 16 41  1  0
 20 42  1  0
 20 43  1  0
M  END
$$$$
