
     RDKit          3D

 41 42  0  0  0  0  0  0  0  0999 V2000
   -6.0807   -2.0350   -0.6086 C   0  0  0  0  0  0  0  0  0  0  0  0
   -5.3644   -1.9823    0.6187 O   0  0  0  0  0  0  0  0  0  0  0  0
   -4.6442   -0.8466    0.8669 C   0  0  0  0  0  0  0  0  0  0  0  0
   -4.4786    0.2278   -0.0065 C   0  0  0  0  0  0  0  0  0  0  0  0
   -3.7032    1.3297    0.3716 C   0  0  0  0  0  0  0  0  0  0  0  0
   -3.0859    1.3706    1.6288 C   0  0  0  0  0  0  0  0  0  0  0  0
   -2.2154    2.5421    2.0239 C   0  0  0  0  0  0  0  0  0  0  0  0
   -0.7287    2.2759    1.9335 C   0  0  0  0  0  0  0  0  0  0  0  0
    0.0814    2.7628    2.7167 O   0  0  0  0  0  0  0  0  0  0  0  0
   -0.4550    1.4831    0.8480 O   0  0  0  0  0  0  0  0  0  0  0  0
    0.9307    1.2928    0.7056 N   0  0  0  0  0  0  0  0  0  0  0  0
    1.1838    0.3898   -0.1957 C   0  0  0  0  0  0  0  0  0  0  0  0
    0.1977   -0.2966   -0.8721 N   0  0  0  0  0  0  0  0  0  0  0  0
    2.6181    0.0746   -0.4925 C   0  0  0  0  0  0  0  0  0  0  0  0
    2.9797   -0.5293   -1.7031 C   0  0  0  0  0  0  0  0  0  0  0  0
    4.3225   -0.8197   -1.9758 C   0  0  0  0  0  0  0  0  0  0  0  0
    5.3127   -0.5042   -1.0440 C   0  0  0  0  0  0  0  0  0  0  0  0
    6.6530   -0.7343   -1.1891 O   0  0  0  0  0  0  0  0  0  0  0  0
    7.0978   -1.1135   -2.4853 C   0  0  0  0  0  0  0  0  0  0  0  0
    4.9491    0.0972    0.1637 C   0  0  0  0  0  0  0  0  0  0  0  0
    3.6109    0.3923    0.4397 C   0  0  0  0  0  0  0  0  0  0  0  0
   -3.2534    0.2888    2.5018 C   0  0  0  0  0  0  0  0  0  0  0  0
   -4.0266   -0.8092    2.1189 C   0  0  0  0  0  0  0  0  0  0  0  0
   -6.8167   -1.2273   -0.6705 H   0  0  0  0  0  0  0  0  0  0  0  0
   -5.3980   -2.0152   -1.4644 H   0  0  0  0  0  0  0  0  0  0  0  0
   -6.6246   -2.9844   -0.6381 H   0  0  0  0  0  0  0  0  0  0  0  0
   -4.9359    0.2393   -0.9903 H   0  0  0  0  0  0  0  0  0  0  0  0
   -3.5827    2.1536   -0.3300 H   0  0  0  0  0  0  0  0  0  0  0  0
   -2.4397    3.4155    1.4013 H   0  0  0  0  0  0  0  0  0  0  0  0
   -2.4535    2.8176    3.0583 H   0  0  0  0  0  0  0  0  0  0  0  0
    0.4014   -1.2749   -1.0438 H   0  0  0  0  0  0  0  0  0  0  0  0
   -0.7084   -0.1843   -0.4252 H   0  0  0  0  0  0  0  0  0  0  0  0
    2.2301   -0.7584   -2.4555 H   0  0  0  0  0  0  0  0  0  0  0  0
    4.5619   -1.2912   -2.9234 H   0  0  0  0  0  0  0  0  0  0  0  0
    6.7246   -2.1069   -2.7543 H   0  0  0  0  0  0  0  0  0  0  0  0
    8.1906   -1.1647   -2.4618 H   0  0  0  0  0  0  0  0  0  0  0  0
    6.8147   -0.3679   -3.2348 H   0  0  0  0  0  0  0  0  0  0  0  0
    5.7149    0.3468    0.8947 H   0  0  0  0  0  0  0  0  0  0  0  0
    3.3529    0.8655    1.3849 H   0  0  0  0  0  0  0  0  0  0  0  0
   -2.7827    0.2889    3.4831 H   0  0  0  0  0  0  0  0  0  0  0  0
   -4.1504   -1.6446    2.8046 H   0  0  0  0  0  0  0  0  0  0  0  0
  1  2  1  0
  2  3  1  0
  3  4  2  0
  4  5  1  0
  5  6  2  0
  6  7  1  0
  7  8  1  0
  8  9  2  0
  8 10  1  0
 10 11  1  0
 11 12  2  3
 12 13  1  0
 12 14  1  0
 14 15  2  0
 15 16  1  0
 16 17  2  0
 17 18  1  0
 18 19  1  0
 17 20  1  0
 20 21  2  0
  6 22  1  0
 22 23  2  0
 23  3  1  0
 21 14  1  0
  1 24  1  0
  1 25  1  0
  1 26  1  0
  4 27  1  0
  5 28  1  0
  7 29  1  0
  7 30  1  0
 13 31  1  0
 13 32  1  0
 15 33  1  0
 16 34  1  0
 19 35  1  0
 19 36  1  0
 19 37  1  0
 20 38  1  0
 21 39  1  0
 22 40  1  0
 23 41  1  0
M  END
$$$$
