
     RDKit          3D

 51 53  0  0  0  0  0  0  0  0999 V2000
   -5.3546   -1.9993   -2.2178 C   0  0  0  0  0  0  0  0  0  0  0  0
   -4.2219   -1.2150   -2.5608 O   0  0  0  0  0  0  0  0  0  0  0  0
   -3.4095   -0.7844   -1.5410 C   0  0  0  0  0  0  0  0  0  0  0  0
   -3.6288   -1.0552   -0.1868 C   0  0  0  0  0  0  0  0  0  0  0  0
   -2.7477   -0.5742    0.7950 C   0  0  0  0  0  0  0  0  0  0  0  0
   -1.6067    0.1582    0.4222 C   0  0  0  0  0  0  0  0  0  0  0  0
   -1.4136    0.4567   -0.9408 C   0  0  0  0  0  0  0  0  0  0  0  0
   -2.2929   -0.0175   -1.9215 C   0  0  0  0  0  0  0  0  0  0  0  0
   -2.1521    0.2177   -3.2672 O   0  0  0  0  0  0  0  0  0  0  0  0
   -0.9858    0.9031   -3.6996 C   0  0  0  0  0  0  0  0  0  0  0  0
   -0.6360    0.6961    1.4797 C   0  0  0  0  0  0  0  0  0  0  0  0
    0.8414    0.5466    1.1104 C   0  0  0  0  0  0  0  0  0  0  0  0
    1.7214    1.6248    1.3164 C   0  0  0  0  0  0  0  0  0  0  0  0
    3.0786    1.5106    1.0069 C   0  0  0  0  0  0  0  0  0  0  0  0
    4.0001    2.5135    1.1662 O   0  0  0  0  0  0  0  0  0  0  0  0
    3.6339    3.5962    2.0109 C   0  0  0  0  0  0  0  0  0  0  0  0
    3.5533    0.3046    0.4651 C   0  0  0  0  0  0  0  0  0  0  0  0
    4.8973    0.1771    0.1862 O   0  0  0  0  0  0  0  0  0  0  0  0
    5.1438    0.5391   -1.1710 C   0  0  0  0  0  0  0  0  0  0  0  0
    2.7031   -0.7983    0.2806 C   0  0  0  0  0  0  0  0  0  0  0  0
    3.2808   -1.9340   -0.2256 O   0  0  0  0  0  0  0  0  0  0  0  0
    2.4460   -3.0682   -0.4125 C   0  0  0  0  0  0  0  0  0  0  0  0
    1.3525   -0.6687    0.6116 C   0  0  0  0  0  0  0  0  0  0  0  0
   -0.8287    0.1132    2.8213 N   0  0  0  0  0  0  0  0  0  0  0  0
   -2.2477    0.0703    3.1722 C   0  0  0  0  0  0  0  0  0  0  0  0
   -3.0162   -0.8759    2.2482 C   0  0  0  0  0  0  0  0  0  0  0  0
   -6.0517   -1.4339   -1.5908 H   0  0  0  0  0  0  0  0  0  0  0  0
   -5.8764   -2.2566   -3.1446 H   0  0  0  0  0  0  0  0  0  0  0  0
   -5.0558   -2.9352   -1.7344 H   0  0  0  0  0  0  0  0  0  0  0  0
   -4.4876   -1.6354    0.1359 H   0  0  0  0  0  0  0  0  0  0  0  0
   -0.5578    1.0652   -1.2175 H   0  0  0  0  0  0  0  0  0  0  0  0
   -0.9692    1.9298   -3.3198 H   0  0  0  0  0  0  0  0  0  0  0  0
   -1.0142    0.9545   -4.7923 H   0  0  0  0  0  0  0  0  0  0  0  0
   -0.0780    0.3603   -3.4162 H   0  0  0  0  0  0  0  0  0  0  0  0
   -0.8595    1.7700    1.5553 H   0  0  0  0  0  0  0  0  0  0  0  0
    1.3191    2.5468    1.7248 H   0  0  0  0  0  0  0  0  0  0  0  0
    4.5232    4.2149    2.1656 H   0  0  0  0  0  0  0  0  0  0  0  0
    3.2982    3.2443    2.9924 H   0  0  0  0  0  0  0  0  0  0  0  0
    2.8732    4.2223    1.5339 H   0  0  0  0  0  0  0  0  0  0  0  0
    6.2212    0.4643   -1.3469 H   0  0  0  0  0  0  0  0  0  0  0  0
    4.8404    1.5724   -1.3732 H   0  0  0  0  0  0  0  0  0  0  0  0
    4.6408   -0.1446   -1.8635 H   0  0  0  0  0  0  0  0  0  0  0  0
    3.0656   -3.8771   -0.8115 H   0  0  0  0  0  0  0  0  0  0  0  0
    1.6580   -2.8618   -1.1442 H   0  0  0  0  0  0  0  0  0  0  0  0
    2.0250   -3.4105    0.5385 H   0  0  0  0  0  0  0  0  0  0  0  0
    0.6668   -1.5008    0.4842 H   0  0  0  0  0  0  0  0  0  0  0  0
   -0.4592   -0.8364    2.8088 H   0  0  0  0  0  0  0  0  0  0  0  0
   -2.6736    1.0812    3.1365 H   0  0  0  0  0  0  0  0  0  0  0  0
   -2.3496   -0.2738    4.2074 H   0  0  0  0  0  0  0  0  0  0  0  0
   -2.7209   -1.9137    2.4466 H   0  0  0  0  0  0  0  0  0  0  0  0
   -4.0880   -0.7830    2.4592 H   0  0  0  0  0  0  0  0  0  0  0  0
  1  2  1  0
  2  3  1  0
  3  4  2  0
  4  5  1  0
  5  6  2  0
  6  7  1  0
  7  8  2  0
  8  9  1  0
  9 10  1  0
  6 11  1  0
 11 12  1  0
 12 13  2  0
 13 14  1  0
 14 15  1  0
 15 16  1  0
 14 17  2  0
 17 18  1  0
 18 19  1  0
 17 20  1  0
 20 21  1  0
 21 22  1  0
 20 23  2  0
 11 24  1  0
 24 25  1  0
 25 26  1  0
  8  3  1  0
 23 12  1  0
 26  5  1  0
  1 27  1  0
  1 28  1  0
  1 29  1  0
  4 30  1  0
  7 31  1  0
 10 32  1  0
 10 33  1  0
 10 34  1  0
 11 35  1  0
 13 36  1  0
 16 37  1  0
 16 38  1  0
 16 39  1  0
 19 40  1  0
 19 41  1  0
 19 42  1  0
 22 43  1  0
 22 44  1  0
 22 45  1  0
 23 46  1  0
 24 47  1  0
 25 48  1  0
 25 49  1  0
 26 50  1  0
 26 51  1  0
M  END
$$$$
