
     RDKit          3D

 33 35  0  0  0  0  0  0  0  0999 V2000
    4.2336    0.5762    2.3063 C   0  0  0  0  0  0  0  0  0  0  0  0
    4.6034    0.3620    0.8740 C   0  0  0  0  0  0  0  0  0  0  0  0
    5.9246    0.5883    0.3588 C   0  0  0  0  0  0  0  0  0  0  0  0
    6.0240    0.3295   -0.9882 C   0  0  0  0  0  0  0  0  0  0  0  0
    4.5392   -0.1860   -1.6463 S   0  0  0  0  0  0  0  0  0  0  0  0
    3.7457   -0.0696   -0.1302 C   0  0  0  0  0  0  0  0  0  0  0  0
    2.3403   -0.4194   -0.0832 C   0  0  0  0  0  0  0  0  0  0  0  0
    1.6833   -0.4151    1.0375 N   0  0  0  0  0  0  0  0  0  0  0  0
    0.3416   -0.7235    1.0061 N   0  0  0  0  0  0  0  0  0  0  0  0
   -0.5454   -0.3021    0.0140 C   0  0  0  0  0  0  0  0  0  0  0  0
   -0.2093    0.3365   -0.9792 O   0  0  0  0  0  0  0  0  0  0  0  0
   -1.9200   -0.6594    0.2685 C   0  0  0  0  0  0  0  0  0  0  0  0
   -2.3705   -1.6983    1.0633 N   0  0  0  0  0  0  0  0  0  0  0  0
   -3.7211   -1.8083    1.1380 N   0  0  0  0  0  0  0  0  0  0  0  0
   -4.1208   -0.8441    0.3238 C   0  0  0  0  0  0  0  0  0  0  0  0
   -3.0748   -0.1213   -0.2394 C   0  0  0  0  0  0  0  0  0  0  0  0
   -3.5538    0.9367   -1.1452 C   0  0  0  0  0  0  0  0  0  0  0  0
   -5.0850    0.9784   -0.8073 C   0  0  0  0  0  0  0  0  0  0  0  0
   -5.4488   -0.3797   -0.1140 C   0  0  0  0  0  0  0  0  0  0  0  0
    3.9007   -0.3615    2.7625 H   0  0  0  0  0  0  0  0  0  0  0  0
    5.0889    0.9417    2.8843 H   0  0  0  0  0  0  0  0  0  0  0  0
    3.4341    1.3190    2.3916 H   0  0  0  0  0  0  0  0  0  0  0  0
    6.7633    0.9292    0.9547 H   0  0  0  0  0  0  0  0  0  0  0  0
    6.8990    0.4207   -1.6170 H   0  0  0  0  0  0  0  0  0  0  0  0
    1.8696   -0.7251   -1.0344 H   0  0  0  0  0  0  0  0  0  0  0  0
   -0.0436   -0.8436    1.9370 H   0  0  0  0  0  0  0  0  0  0  0  0
   -1.8151   -2.3819    1.5659 H   0  0  0  0  0  0  0  0  0  0  0  0
   -3.0827    1.9057   -0.9600 H   0  0  0  0  0  0  0  0  0  0  0  0
   -3.4024    0.6505   -2.1909 H   0  0  0  0  0  0  0  0  0  0  0  0
   -5.2687    1.7976   -0.0994 H   0  0  0  0  0  0  0  0  0  0  0  0
   -5.6986    1.1676   -1.6936 H   0  0  0  0  0  0  0  0  0  0  0  0
   -6.1461   -0.2268    0.7138 H   0  0  0  0  0  0  0  0  0  0  0  0
   -5.8845   -1.0740   -0.8393 H   0  0  0  0  0  0  0  0  0  0  0  0
  1  2  1  0
  2  3  1  0
  3  4  2  0
  4  5  1  0
  5  6  1  0
  6  7  1  0
  7  8  2  3
  8  9  1  0
  9 10  1  0
 10 11  2  0
 10 12  1  0
 12 13  1  0
 13 14  1  0
 14 15  2  0
 15 16  1  0
 16 17  1  0
 17 18  1  0
 18 19  1  0
  6  2  2  0
 16 12  2  0
 19 15  1  0
  1 20  1  0
  1 21  1  0
  1 22  1  0
  3 23  1  0
  4 24  1  0
  7 25  1  0
  9 26  1  0
 13 27  1  0
 17 28  1  0
 17 29  1  0
 18 30  1  0
 18 31  1  0
 19 32  1  0
 19 33  1  0
M  END
$$$$
