
     RDKit          3D

 57 60  0  0  0  0  0  0  0  0999 V2000
   -1.9649    6.3450   -0.6727 C   0  0  0  0  0  0  0  0  0  0  0  0
   -1.6895    4.8457   -0.7642 C   0  0  0  0  0  0  0  0  0  0  0  0
   -0.4067    4.4753    0.0094 C   0  0  0  0  0  0  0  0  0  0  0  0
   -0.0468    2.9891   -0.1548 C   0  0  0  0  0  0  0  0  0  0  0  0
   -1.2455    2.0975   -0.0107 C   0  0  0  0  0  0  0  0  0  0  0  0
   -2.5334    2.5990   -0.0652 C   0  0  0  0  0  0  0  0  0  0  0  0
   -3.7138    1.3938    0.1389 S   0  0  0  0  0  0  0  0  0  0  0  0
   -2.5285    0.1782    0.2914 C   0  0  0  0  0  0  0  0  0  0  0  0
   -2.8922   -1.0965    0.4933 N   0  0  0  0  0  0  0  0  0  0  0  0
   -1.8576   -1.9379    0.6045 C   0  0  0  0  0  0  0  0  0  0  0  0
   -2.1763   -3.4208    0.8013 C   0  0  0  0  0  0  0  0  0  0  0  0
   -2.4902   -4.0366   -0.5718 C   0  0  0  0  0  0  0  0  0  0  0  0
   -0.9857   -4.1734    1.4298 C   0  0  0  0  0  0  0  0  0  0  0  0
   -3.3919   -3.5962    1.7323 C   0  0  0  0  0  0  0  0  0  0  0  0
   -0.5606   -1.5916    0.4792 N   0  0  0  0  0  0  0  0  0  0  0  0
   -0.2152   -0.2998    0.2665 C   0  0  0  0  0  0  0  0  0  0  0  0
    1.1475    0.0325    0.1096 N   0  0  0  0  0  0  0  0  0  0  0  0
    1.9870   -0.6294    1.1418 C   0  0  0  0  0  0  0  0  0  0  0  0
    2.8022   -1.8118    0.5931 C   0  0  0  0  0  0  0  0  0  0  0  0
    3.6358   -1.4154   -0.5517 N   0  0  0  0  0  0  0  0  0  0  0  0
    4.8778   -2.0188   -0.7284 C   0  0  0  0  0  0  0  0  0  0  0  0
    5.2497   -2.9342    0.0070 O   0  0  0  0  0  0  0  0  0  0  0  0
    5.7217   -1.5046   -1.8878 C   0  0  0  0  0  0  0  0  0  0  0  0
    7.4421   -1.8783   -1.6575 Cl  0  0  0  0  0  0  0  0  0  0  0  0
    3.0671   -0.3841   -1.4303 C   0  0  0  0  0  0  0  0  0  0  0  0
    1.5394   -0.2636   -1.2886 C   0  0  0  0  0  0  0  0  0  0  0  0
   -1.2370    0.6651    0.1758 C   0  0  0  0  0  0  0  0  0  0  0  0
   -2.8991    4.0409   -0.2403 C   0  0  0  0  0  0  0  0  0  0  0  0
   -2.1020    6.6630    0.3664 H   0  0  0  0  0  0  0  0  0  0  0  0
   -2.8700    6.6077   -1.2303 H   0  0  0  0  0  0  0  0  0  0  0  0
   -1.1327    6.9178   -1.0945 H   0  0  0  0  0  0  0  0  0  0  0  0
   -1.5339    4.5927   -1.8219 H   0  0  0  0  0  0  0  0  0  0  0  0
   -0.5484    4.6984    1.0754 H   0  0  0  0  0  0  0  0  0  0  0  0
    0.4370    5.0862   -0.3326 H   0  0  0  0  0  0  0  0  0  0  0  0
    0.7154    2.7289    0.5878 H   0  0  0  0  0  0  0  0  0  0  0  0
    0.3893    2.8315   -1.1486 H   0  0  0  0  0  0  0  0  0  0  0  0
   -1.6407   -3.9353   -1.2578 H   0  0  0  0  0  0  0  0  0  0  0  0
   -3.3508   -3.5472   -1.0435 H   0  0  0  0  0  0  0  0  0  0  0  0
   -2.7223   -5.1043   -0.4833 H   0  0  0  0  0  0  0  0  0  0  0  0
   -0.7011   -3.7333    2.3928 H   0  0  0  0  0  0  0  0  0  0  0  0
   -0.1021   -4.1511    0.7812 H   0  0  0  0  0  0  0  0  0  0  0  0
   -1.2319   -5.2274    1.6044 H   0  0  0  0  0  0  0  0  0  0  0  0
   -3.2167   -3.1241    2.7061 H   0  0  0  0  0  0  0  0  0  0  0  0
   -3.6053   -4.6571    1.9084 H   0  0  0  0  0  0  0  0  0  0  0  0
   -4.2990   -3.1501    1.3078 H   0  0  0  0  0  0  0  0  0  0  0  0
    1.4071   -0.9418    2.0200 H   0  0  0  0  0  0  0  0  0  0  0  0
    2.6891    0.1315    1.5065 H   0  0  0  0  0  0  0  0  0  0  0  0
    3.4284   -2.2255    1.3912 H   0  0  0  0  0  0  0  0  0  0  0  0
    2.1391   -2.6115    0.2433 H   0  0  0  0  0  0  0  0  0  0  0  0
    5.6489   -0.4184   -1.9714 H   0  0  0  0  0  0  0  0  0  0  0  0
    5.3879   -1.9765   -2.8152 H   0  0  0  0  0  0  0  0  0  0  0  0
    3.3249   -0.6099   -2.4699 H   0  0  0  0  0  0  0  0  0  0  0  0
    3.5463    0.5641   -1.1595 H   0  0  0  0  0  0  0  0  0  0  0  0
    1.0899   -1.2033   -1.6412 H   0  0  0  0  0  0  0  0  0  0  0  0
    1.1816    0.5393   -1.9438 H   0  0  0  0  0  0  0  0  0  0  0  0
   -3.7376    4.1462   -0.9392 H   0  0  0  0  0  0  0  0  0  0  0  0
   -3.2256    4.4400    0.7287 H   0  0  0  0  0  0  0  0  0  0  0  0
  1  2  1  0
  2  3  1  0
  3  4  1  0
  4  5  1  0
  5  6  2  0
  6  7  1  0
  7  8  1  0
  8  9  2  0
  9 10  1  0
 10 11  1  0
 11 12  1  0
 11 13  1  0
 11 14  1  0
 10 15  2  0
 15 16  1  0
 16 17  1  0
 17 18  1  0
 18 19  1  0
 19 20  1  0
 20 21  1  0
 21 22  2  0
 21 23  1  0
 23 24  1  0
 20 25  1  0
 25 26  1  0
 16 27  2  0
  6 28  1  0
 28  2  1  0
 27  5  1  0
 27  8  1  0
 26 17  1  0
  1 29  1  0
  1 30  1  0
  1 31  1  0
  2 32  1  0
  3 33  1  0
  3 34  1  0
  4 35  1  0
  4 36  1  0
 12 37  1  0
 12 38  1  0
 12 39  1  0
 13 40  1  0
 13 41  1  0
 13 42  1  0
 14 43  1  0
 14 44  1  0
 14 45  1  0
 18 46  1  0
 18 47  1  0
 19 48  1  0
 19 49  1  0
 23 50  1  0
 23 51  1  0
 25 52  1  0
 25 53  1  0
 26 54  1  0
 26 55  1  0
 28 56  1  0
 28 57  1  0
M  END
$$$$
