
     RDKit          3D

 40 41  0  0  0  0  0  0  0  0999 V2000
    1.4987   -1.9749   -3.6286 C   0  0  0  0  0  0  0  0  0  0  0  0
    0.6581   -0.8747   -3.0005 C   0  0  0  0  0  0  0  0  0  0  0  0
    0.8456   -0.7453   -1.4794 C   0  0  0  0  0  0  0  0  0  0  0  0
    2.2463   -0.2189   -1.1161 C   0  0  0  0  0  0  0  0  0  0  0  0
    2.5009   -0.2290    0.3751 C   0  0  0  0  0  0  0  0  0  0  0  0
    2.9485   -1.3949    1.0107 C   0  0  0  0  0  0  0  0  0  0  0  0
    3.1663   -1.4089    2.3892 C   0  0  0  0  0  0  0  0  0  0  0  0
    2.9360   -0.2608    3.1447 C   0  0  0  0  0  0  0  0  0  0  0  0
    2.4856    0.9023    2.5233 C   0  0  0  0  0  0  0  0  0  0  0  0
    2.2673    0.9185    1.1451 C   0  0  0  0  0  0  0  0  0  0  0  0
   -0.1161    0.2208   -0.9932 O   0  0  0  0  0  0  0  0  0  0  0  0
   -1.3427   -0.2680   -0.6901 C   0  0  0  0  0  0  0  0  0  0  0  0
   -1.7557   -1.3993   -0.8753 O   0  0  0  0  0  0  0  0  0  0  0  0
   -2.1548    0.8193   -0.1122 C   0  0  0  0  0  0  0  0  0  0  0  0
   -2.2202    2.0532   -0.7795 C   0  0  0  0  0  0  0  0  0  0  0  0
   -3.0531    3.0660   -0.3004 C   0  0  0  0  0  0  0  0  0  0  0  0
   -3.8291    2.8516    0.8382 C   0  0  0  0  0  0  0  0  0  0  0  0
   -3.7669    1.6272    1.5067 C   0  0  0  0  0  0  0  0  0  0  0  0
   -2.9267    0.6071    1.0343 C   0  0  0  0  0  0  0  0  0  0  0  0
   -2.8113   -0.6434    1.8065 C   0  0  0  0  0  0  0  0  0  0  0  0
   -1.7844   -1.2285    2.0855 O   0  0  0  0  0  0  0  0  0  0  0  0
   -4.0169   -1.0826    2.2095 O   0  0  0  0  0  0  0  0  0  0  0  0
    1.2422   -2.0835   -4.6874 H   0  0  0  0  0  0  0  0  0  0  0  0
    2.5674   -1.7514   -3.5713 H   0  0  0  0  0  0  0  0  0  0  0  0
    1.3176   -2.9359   -3.1370 H   0  0  0  0  0  0  0  0  0  0  0  0
    0.8794    0.0843   -3.4856 H   0  0  0  0  0  0  0  0  0  0  0  0
   -0.3971   -1.0753   -3.2225 H   0  0  0  0  0  0  0  0  0  0  0  0
    0.6805   -1.7160   -0.9933 H   0  0  0  0  0  0  0  0  0  0  0  0
    2.3710    0.8061   -1.4892 H   0  0  0  0  0  0  0  0  0  0  0  0
    3.0290   -0.8186   -1.5939 H   0  0  0  0  0  0  0  0  0  0  0  0
    3.1240   -2.3022    0.4375 H   0  0  0  0  0  0  0  0  0  0  0  0
    3.5083   -2.3188    2.8750 H   0  0  0  0  0  0  0  0  0  0  0  0
    3.0996   -0.2752    4.2187 H   0  0  0  0  0  0  0  0  0  0  0  0
    2.2971    1.7949    3.1132 H   0  0  0  0  0  0  0  0  0  0  0  0
    1.9040    1.8295    0.6755 H   0  0  0  0  0  0  0  0  0  0  0  0
   -1.6359    2.2224   -1.6815 H   0  0  0  0  0  0  0  0  0  0  0  0
   -3.1038    4.0199   -0.8209 H   0  0  0  0  0  0  0  0  0  0  0  0
   -4.4805    3.6399    1.2091 H   0  0  0  0  0  0  0  0  0  0  0  0
   -4.3650    1.4743    2.4027 H   0  0  0  0  0  0  0  0  0  0  0  0
   -3.8133   -1.9311    2.6570 H   0  0  0  0  0  0  0  0  0  0  0  0
  1  2  1  0
  2  3  1  0
  3  4  1  0
  4  5  1  0
  5  6  2  0
  6  7  1  0
  7  8  2  0
  8  9  1  0
  9 10  2  0
  3 11  1  0
 11 12  1  0
 12 13  2  0
 12 14  1  0
 14 15  2  0
 15 16  1  0
 16 17  2  0
 17 18  1  0
 18 19  2  0
 19 20  1  0
 20 21  2  0
 20 22  1  0
 10  5  1  0
 19 14  1  0
  1 23  1  0
  1 24  1  0
  1 25  1  0
  2 26  1  0
  2 27  1  0
  3 28  1  0
  4 29  1  0
  4 30  1  0
  6 31  1  0
  7 32  1  0
  8 33  1  0
  9 34  1  0
 10 35  1  0
 15 36  1  0
 16 37  1  0
 17 38  1  0
 18 39  1  0
 22 40  1  0
M  END
$$$$
