
     RDKit          3D

 53 56  0  0  0  0  0  0  0  0999 V2000
    4.4907    2.1653    1.4642 C   0  0  0  0  0  0  0  0  0  0  0  0
    3.6083    1.0044    1.2932 N   0  0  0  0  0  0  0  0  0  0  0  0
    4.0766   -0.2683    1.6976 C   0  0  0  0  0  0  0  0  0  0  0  0
    3.2173   -1.3834    1.6366 C   0  0  0  0  0  0  0  0  0  0  0  0
    3.6354   -2.6588    2.0288 C   0  0  0  0  0  0  0  0  0  0  0  0
    4.9268   -2.8510    2.5034 C   0  0  0  0  0  0  0  0  0  0  0  0
    5.7950   -1.7684    2.5857 C   0  0  0  0  0  0  0  0  0  0  0  0
    5.3722   -0.4928    2.1900 C   0  0  0  0  0  0  0  0  0  0  0  0
    2.6205    1.2213    0.3001 C   0  0  0  0  0  0  0  0  0  0  0  0
    1.4754    1.9544    0.6578 C   0  0  0  0  0  0  0  0  0  0  0  0
    0.4239    2.1509   -0.2453 C   0  0  0  0  0  0  0  0  0  0  0  0
    0.4904    1.6143   -1.5352 C   0  0  0  0  0  0  0  0  0  0  0  0
   -0.6278    1.7796   -2.4707 C   0  0  0  0  0  0  0  0  0  0  0  0
   -1.7715    1.0635   -2.4638 C   0  0  0  0  0  0  0  0  0  0  0  0
   -2.7626    1.3327   -3.4568 C   0  0  0  0  0  0  0  0  0  0  0  0
   -3.5950    1.5823   -4.2260 N   0  0  0  0  0  0  0  0  0  0  0  0
   -1.9709    0.0073   -1.5310 C   0  0  0  0  0  0  0  0  0  0  0  0
   -1.2085   -1.0437   -1.2882 N   0  0  0  0  0  0  0  0  0  0  0  0
   -1.8194   -1.8223   -0.3415 N   0  0  0  0  0  0  0  0  0  0  0  0
   -2.9430   -1.2361    0.0032 C   0  0  0  0  0  0  0  0  0  0  0  0
   -3.0630   -0.0572   -0.6921 N   0  0  0  0  0  0  0  0  0  0  0  0
   -4.1366    0.8938   -0.4925 C   0  0  0  0  0  0  0  0  0  0  0  0
   -5.4990    0.3378   -0.8976 C   0  0  0  0  0  0  0  0  0  0  0  0
   -6.1007   -0.6233    0.1314 C   0  0  0  0  0  0  0  0  0  0  0  0
   -5.3271   -1.9290    0.3364 C   0  0  0  0  0  0  0  0  0  0  0  0
   -3.9486   -1.7447    0.9716 C   0  0  0  0  0  0  0  0  0  0  0  0
    1.6247    0.9004   -1.9267 C   0  0  0  0  0  0  0  0  0  0  0  0
    2.6736    0.7175   -1.0115 C   0  0  0  0  0  0  0  0  0  0  0  0
    3.8604    0.0407   -1.5010 N   0  0  0  0  0  4  0  0  0  0  0  0
    4.9199    0.6859   -1.5084 O   0  0  0  0  0  0  0  0  0  0  0  0
    3.7131   -1.1013   -1.9587 O   0  0  0  0  0  1  0  0  0  0  0  0
    4.8367    2.2402    2.5019 H   0  0  0  0  0  0  0  0  0  0  0  0
    5.3610    2.1056    0.8007 H   0  0  0  0  0  0  0  0  0  0  0  0
    3.9770    3.1113    1.2504 H   0  0  0  0  0  0  0  0  0  0  0  0
    2.1927   -1.2724    1.2869 H   0  0  0  0  0  0  0  0  0  0  0  0
    2.9472   -3.4972    1.9584 H   0  0  0  0  0  0  0  0  0  0  0  0
    5.2552   -3.8412    2.8056 H   0  0  0  0  0  0  0  0  0  0  0  0
    6.8082   -1.9125    2.9517 H   0  0  0  0  0  0  0  0  0  0  0  0
    6.0964    0.3123    2.2609 H   0  0  0  0  0  0  0  0  0  0  0  0
    1.3864    2.3470    1.6691 H   0  0  0  0  0  0  0  0  0  0  0  0
   -0.4522    2.7068    0.0808 H   0  0  0  0  0  0  0  0  0  0  0  0
   -0.4692    2.5553   -3.2196 H   0  0  0  0  0  0  0  0  0  0  0  0
   -3.9199    1.7997   -1.0644 H   0  0  0  0  0  0  0  0  0  0  0  0
   -4.1229    1.1853    0.5645 H   0  0  0  0  0  0  0  0  0  0  0  0
   -6.1925    1.1807   -1.0076 H   0  0  0  0  0  0  0  0  0  0  0  0
   -5.4405   -0.1539   -1.8761 H   0  0  0  0  0  0  0  0  0  0  0  0
   -6.2111   -0.1084    1.0936 H   0  0  0  0  0  0  0  0  0  0  0  0
   -7.1156   -0.8789   -0.1983 H   0  0  0  0  0  0  0  0  0  0  0  0
   -5.2451   -2.4660   -0.6167 H   0  0  0  0  0  0  0  0  0  0  0  0
   -5.9239   -2.5640    1.0033 H   0  0  0  0  0  0  0  0  0  0  0  0
   -4.0061   -1.0807    1.8412 H   0  0  0  0  0  0  0  0  0  0  0  0
   -3.6048   -2.7177    1.3436 H   0  0  0  0  0  0  0  0  0  0  0  0
    1.6922    0.4769   -2.9272 H   0  0  0  0  0  0  0  0  0  0  0  0
  1  2  1  0
  2  3  1  0
  3  4  2  0
  4  5  1  0
  5  6  2  0
  6  7  1  0
  7  8  2  0
  2  9  1  0
  9 10  2  0
 10 11  1  0
 11 12  2  0
 12 13  1  0
 13 14  2  3
 14 15  1  0
 15 16  3  0
 14 17  1  0
 17 18  2  0
 18 19  1  0
 19 20  2  0
 20 21  1  0
 21 22  1  0
 22 23  1  0
 23 24  1  0
 24 25  1  0
 25 26  1  0
 12 27  1  0
 27 28  2  0
 28 29  1  0
 29 30  2  0
 29 31  1  0
  8  3  1  0
 28  9  1  0
 21 17  1  0
 26 20  1  0
  1 32  1  0
  1 33  1  0
  1 34  1  0
  4 35  1  0
  5 36  1  0
  6 37  1  0
  7 38  1  0
  8 39  1  0
 10 40  1  0
 11 41  1  0
 13 42  1  0
 22 43  1  0
 22 44  1  0
 23 45  1  0
 23 46  1  0
 24 47  1  0
 24 48  1  0
 25 49  1  0
 25 50  1  0
 26 51  1  0
 26 52  1  0
 27 53  1  0
M  CHG  2  29   1  31  -1
M  END
$$$$
