
     RDKit          3D

 44 46  0  0  0  0  0  0  0  0999 V2000
   -6.9062    0.0802    1.5861 C   0  0  0  0  0  0  0  0  0  0  0  0
   -5.8615   -0.7080    0.8511 C   0  0  0  0  0  0  0  0  0  0  0  0
   -6.1609   -1.9703    0.3331 C   0  0  0  0  0  0  0  0  0  0  0  0
   -5.2004   -2.6813   -0.3862 C   0  0  0  0  0  0  0  0  0  0  0  0
   -3.9237   -2.1428   -0.5988 C   0  0  0  0  0  0  0  0  0  0  0  0
   -2.9036   -2.9269   -1.3767 C   0  0  0  0  0  0  0  0  0  0  0  0
   -3.6189   -0.8686   -0.0896 C   0  0  0  0  0  0  0  0  0  0  0  0
   -2.3569   -0.4109   -0.3602 O   0  0  0  0  0  0  0  0  0  0  0  0
   -1.9277    0.7718    0.3081 C   0  0  0  0  0  0  0  0  0  0  0  0
   -0.4926    0.9591   -0.0088 C   0  0  0  0  0  0  0  0  0  0  0  0
    0.4605    0.2326   -0.6772 C   0  0  0  0  0  0  0  0  0  0  0  0
    1.6511    1.0125   -0.5989 C   0  0  0  0  0  0  0  0  0  0  0  0
    2.9505    0.6248   -1.1840 C   0  0  0  0  0  0  0  0  0  0  0  0
    3.0492   -0.4830   -1.7200 O   0  0  0  0  0  0  0  0  0  0  0  0
    4.0507    1.4996   -1.1695 N   0  0  0  0  0  0  0  0  0  0  0  0
    4.0550    2.8174   -0.5517 C   0  0  0  0  0  0  0  0  0  0  0  0
    5.3601    0.9110   -1.4553 C   0  0  0  0  0  0  0  0  0  0  0  0
    6.0578    0.4952   -0.1838 C   0  0  0  0  0  0  0  0  0  0  0  0
    5.4624    0.1353    0.9382 N   0  0  0  0  0  0  0  0  0  0  0  0
    6.4079   -0.1595    1.8998 C   0  0  0  0  0  0  0  0  0  0  0  0
    7.7210   -0.0345    1.5027 C   0  0  0  0  0  0  0  0  0  0  0  0
    7.7823    0.4740   -0.1322 S   0  0  0  0  0  0  0  0  0  0  0  0
    1.4052    2.1411    0.0860 N   0  0  0  0  0  0  0  0  0  0  0  0
    0.0770    2.1017    0.4550 O   0  0  0  0  0  0  0  0  0  0  0  0
   -4.5919   -0.1564    0.6225 C   0  0  0  0  0  0  0  0  0  0  0  0
   -6.4570    0.6432    2.4097 H   0  0  0  0  0  0  0  0  0  0  0  0
   -7.3988    0.7793    0.9027 H   0  0  0  0  0  0  0  0  0  0  0  0
   -7.6643   -0.5788    2.0196 H   0  0  0  0  0  0  0  0  0  0  0  0
   -7.1459   -2.4079    0.4809 H   0  0  0  0  0  0  0  0  0  0  0  0
   -5.4561   -3.6631   -0.7803 H   0  0  0  0  0  0  0  0  0  0  0  0
   -2.6695   -2.4186   -2.3180 H   0  0  0  0  0  0  0  0  0  0  0  0
   -1.9867   -3.0474   -0.7892 H   0  0  0  0  0  0  0  0  0  0  0  0
   -3.2709   -3.9305   -1.6180 H   0  0  0  0  0  0  0  0  0  0  0  0
   -2.4935    1.6352   -0.0595 H   0  0  0  0  0  0  0  0  0  0  0  0
   -2.0439    0.6684    1.3929 H   0  0  0  0  0  0  0  0  0  0  0  0
    0.3335   -0.7255   -1.1612 H   0  0  0  0  0  0  0  0  0  0  0  0
    4.9681    3.3567   -0.8280 H   0  0  0  0  0  0  0  0  0  0  0  0
    3.2119    3.4062   -0.9197 H   0  0  0  0  0  0  0  0  0  0  0  0
    4.0090    2.7142    0.5363 H   0  0  0  0  0  0  0  0  0  0  0  0
    5.2639    0.0365   -2.1078 H   0  0  0  0  0  0  0  0  0  0  0  0
    5.9466    1.6569   -2.0043 H   0  0  0  0  0  0  0  0  0  0  0  0
    6.0810   -0.4680    2.8834 H   0  0  0  0  0  0  0  0  0  0  0  0
    8.6199   -0.2104    2.0776 H   0  0  0  0  0  0  0  0  0  0  0  0
   -4.3940    0.8395    1.0051 H   0  0  0  0  0  0  0  0  0  0  0  0
  1  2  1  0
  2  3  2  0
  3  4  1  0
  4  5  2  0
  5  6  1  0
  5  7  1  0
  7  8  1  0
  8  9  1  0
  9 10  1  0
 10 11  2  0
 11 12  1  0
 12 13  1  0
 13 14  2  0
 13 15  1  0
 15 16  1  0
 15 17  1  0
 17 18  1  0
 18 19  2  0
 19 20  1  0
 20 21  2  0
 21 22  1  0
 12 23  2  0
 23 24  1  0
  7 25  2  0
 25  2  1  0
 24 10  1  0
 22 18  1  0
  1 26  1  0
  1 27  1  0
  1 28  1  0
  3 29  1  0
  4 30  1  0
  6 31  1  0
  6 32  1  0
  6 33  1  0
  9 34  1  0
  9 35  1  0
 11 36  1  0
 16 37  1  0
 16 38  1  0
 16 39  1  0
 17 40  1  0
 17 41  1  0
 20 42  1  0
 21 43  1  0
 25 44  1  0
M  END
$$$$
