
     RDKit          3D

 41 42  0  0  0  0  0  0  0  0999 V2000
   -5.2467   -0.1673   -0.1776 C   0  0  0  0  0  0  0  0  0  0  0  0
   -3.7519   -0.3643   -0.1628 C   0  0  0  0  0  0  0  0  0  0  0  0
   -3.1129   -1.4593   -0.6278 C   0  0  0  0  0  0  0  0  0  0  0  0
   -3.7904   -2.6979   -1.1569 C   0  0  0  0  0  0  0  0  0  0  0  0
   -1.6023   -1.5590   -0.6295 C   0  0  0  0  0  0  0  0  0  0  0  0
   -0.8687   -0.2167   -0.4682 C   0  0  0  0  0  0  0  0  0  0  0  0
    0.6232   -0.4854   -0.2241 C   0  0  0  0  0  0  0  0  0  0  0  0
    1.0143   -1.5352    0.2752 O   0  0  0  0  0  0  0  0  0  0  0  0
    1.4350    0.5726   -0.5919 N   0  0  0  0  0  0  0  0  0  0  0  0
    2.8422    0.6431   -0.5380 C   0  0  0  0  0  0  0  0  0  0  0  0
    3.4227    1.8832   -0.8453 C   0  0  0  0  0  0  0  0  0  0  0  0
    4.8089    2.0565   -0.8210 C   0  0  0  0  0  0  0  0  0  0  0  0
    5.6361    0.9861   -0.4921 C   0  0  0  0  0  0  0  0  0  0  0  0
    5.0624   -0.2562   -0.1920 C   0  0  0  0  0  0  0  0  0  0  0  0
    5.9354   -1.3870    0.1461 N   0  0  0  0  0  4  0  0  0  0  0  0
    5.4285   -2.5152    0.2085 O   0  0  0  0  0  0  0  0  0  0  0  0
    7.1355   -1.1453    0.3444 O   0  0  0  0  0  1  0  0  0  0  0  0
    3.6702   -0.4337   -0.2140 C   0  0  0  0  0  0  0  0  0  0  0  0
   -1.5036    0.5834    0.6787 C   0  0  0  0  0  0  0  0  0  0  0  0
   -0.8762    1.9462    0.8400 C   0  0  0  0  0  0  0  0  0  0  0  0
   -0.2781    2.5727   -0.0221 O   0  0  0  0  0  0  0  0  0  0  0  0
   -1.0500    2.4570    2.0717 O   0  0  0  0  0  0  0  0  0  0  0  0
   -3.0008    0.8093    0.4274 C   0  0  0  0  0  0  0  0  0  0  0  0
   -5.6467   -0.2486    0.8381 H   0  0  0  0  0  0  0  0  0  0  0  0
   -5.7757   -0.8796   -0.8141 H   0  0  0  0  0  0  0  0  0  0  0  0
   -5.4904    0.8288   -0.5636 H   0  0  0  0  0  0  0  0  0  0  0  0
   -3.6688   -2.7578   -2.2431 H   0  0  0  0  0  0  0  0  0  0  0  0
   -3.3397   -3.5917   -0.7110 H   0  0  0  0  0  0  0  0  0  0  0  0
   -4.8568   -2.7456   -0.9270 H   0  0  0  0  0  0  0  0  0  0  0  0
   -1.2693   -2.0151   -1.5715 H   0  0  0  0  0  0  0  0  0  0  0  0
   -1.3209   -2.2572    0.1699 H   0  0  0  0  0  0  0  0  0  0  0  0
   -0.9613    0.3410   -1.4113 H   0  0  0  0  0  0  0  0  0  0  0  0
    0.9599    1.4366   -0.8554 H   0  0  0  0  0  0  0  0  0  0  0  0
    2.7979    2.7366   -1.1037 H   0  0  0  0  0  0  0  0  0  0  0  0
    5.2401    3.0262   -1.0591 H   0  0  0  0  0  0  0  0  0  0  0  0
    6.7144    1.1309   -0.4777 H   0  0  0  0  0  0  0  0  0  0  0  0
    3.2544   -1.4101    0.0163 H   0  0  0  0  0  0  0  0  0  0  0  0
   -1.3517    0.0305    1.6160 H   0  0  0  0  0  0  0  0  0  0  0  0
   -0.6071    3.3313    2.0616 H   0  0  0  0  0  0  0  0  0  0  0  0
   -3.4694    1.0886    1.3808 H   0  0  0  0  0  0  0  0  0  0  0  0
   -3.1414    1.6673   -0.2450 H   0  0  0  0  0  0  0  0  0  0  0  0
  1  2  1  0
  2  3  2  0
  3  4  1  0
  3  5  1  0
  5  6  1  0
  6  7  1  0
  7  8  2  0
  7  9  1  0
  9 10  1  0
 10 11  2  0
 11 12  1  0
 12 13  2  0
 13 14  1  0
 14 15  1  0
 15 16  2  0
 15 17  1  0
 14 18  2  0
  6 19  1  0
 19 20  1  0
 20 21  2  0
 20 22  1  0
 19 23  1  0
 23  2  1  0
 18 10  1  0
  1 24  1  0
  1 25  1  0
  1 26  1  0
  4 27  1  0
  4 28  1  0
  4 29  1  0
  5 30  1  0
  5 31  1  0
  6 32  1  0
  9 33  1  0
 11 34  1  0
 12 35  1  0
 13 36  1  0
 18 37  1  0
 19 38  1  0
 22 39  1  0
 23 40  1  0
 23 41  1  0
M  CHG  2  15   1  17  -1
M  END
$$$$
