
     RDKit          3D

 46 50  0  0  0  0  0  0  0  0999 V2000
    5.0528   -0.5033    1.3825 O   0  0  0  0  0  0  0  0  0  0  0  0
    5.1685    0.0254    0.2880 C   0  0  0  0  0  0  0  0  0  0  0  0
    4.1551    0.4736   -0.5374 O   0  0  0  0  0  0  0  0  0  0  0  0
    2.8774    0.2755   -0.0078 C   0  0  0  0  0  0  0  0  0  0  0  0
    2.1873    1.3833    0.4839 C   0  0  0  0  0  0  0  0  0  0  0  0
    0.8936    1.2154    0.9782 C   0  0  0  0  0  0  0  0  0  0  0  0
    0.3026   -0.0547    0.9597 C   0  0  0  0  0  0  0  0  0  0  0  0
   -1.0632   -0.2515    1.4821 C   0  0  0  0  0  0  0  0  0  0  0  0
   -1.6717    0.6719    2.0081 O   0  0  0  0  0  0  0  0  0  0  0  0
   -1.6214   -1.6256    1.3433 C   0  0  0  0  0  0  0  0  0  0  0  0
   -2.9022   -1.9319    1.7783 O   0  0  0  0  0  0  0  0  0  0  0  0
   -3.9399   -1.1825    1.2744 C   0  0  0  0  0  0  0  0  0  0  0  0
   -4.8943   -0.7300    2.1807 C   0  0  0  0  0  0  0  0  0  0  0  0
   -5.9926    0.0016    1.7261 C   0  0  0  0  0  0  0  0  0  0  0  0
   -6.1555    0.2738    0.3582 C   0  0  0  0  0  0  0  0  0  0  0  0
   -7.2550    1.0078   -0.1146 C   0  0  0  0  0  0  0  0  0  0  0  0
   -7.4079    1.2657   -1.4779 C   0  0  0  0  0  0  0  0  0  0  0  0
   -6.4647    0.7930   -2.3855 C   0  0  0  0  0  0  0  0  0  0  0  0
   -5.3651    0.0623   -1.9323 C   0  0  0  0  0  0  0  0  0  0  0  0
   -5.1946   -0.2045   -0.5639 C   0  0  0  0  0  0  0  0  0  0  0  0
   -4.0931   -0.9380   -0.0931 C   0  0  0  0  0  0  0  0  0  0  0  0
   -0.8185   -2.5796    0.8573 C   0  0  0  0  0  0  0  0  0  0  0  0
    0.4680   -2.4166    0.4072 O   0  0  0  0  0  0  0  0  0  0  0  0
    0.9991   -1.1515    0.4483 C   0  0  0  0  0  0  0  0  0  0  0  0
    2.2920   -0.9903   -0.0472 C   0  0  0  0  0  0  0  0  0  0  0  0
    6.4795    0.2779   -0.3506 C   0  0  0  0  0  0  0  0  0  0  0  0
    7.6273   -0.1008    0.3381 C   0  0  0  0  0  0  0  0  0  0  0  0
    8.8864    0.0737   -0.1366 N   0  0  0  0  0  0  0  0  0  0  0  0
    9.0027    0.6536   -1.3542 C   0  0  0  0  0  0  0  0  0  0  0  0
    7.9166    1.0635   -2.1128 C   0  0  0  0  0  0  0  0  0  0  0  0
    8.1696    1.8633   -3.8014 Br  0  0  0  0  0  0  0  0  0  0  0  0
    6.6330    0.8743   -1.6066 C   0  0  0  0  0  0  0  0  0  0  0  0
    2.6499    2.3661    0.4906 H   0  0  0  0  0  0  0  0  0  0  0  0
    0.3477    2.0689    1.3757 H   0  0  0  0  0  0  0  0  0  0  0  0
   -4.7767   -0.9314    3.2416 H   0  0  0  0  0  0  0  0  0  0  0  0
   -6.7204    0.3603    2.4501 H   0  0  0  0  0  0  0  0  0  0  0  0
   -8.0027    1.3855    0.5792 H   0  0  0  0  0  0  0  0  0  0  0  0
   -8.2638    1.8359   -1.8293 H   0  0  0  0  0  0  0  0  0  0  0  0
   -6.5831    0.9938   -3.4470 H   0  0  0  0  0  0  0  0  0  0  0  0
   -4.6385   -0.2965   -2.6576 H   0  0  0  0  0  0  0  0  0  0  0  0
   -3.3632   -1.3248   -0.7980 H   0  0  0  0  0  0  0  0  0  0  0  0
   -1.1260   -3.6125    0.7576 H   0  0  0  0  0  0  0  0  0  0  0  0
    2.8361   -1.8404   -0.4465 H   0  0  0  0  0  0  0  0  0  0  0  0
    7.5737   -0.5690    1.3194 H   0  0  0  0  0  0  0  0  0  0  0  0
   10.0235    0.7793   -1.7051 H   0  0  0  0  0  0  0  0  0  0  0  0
    5.7719    1.1897   -2.1888 H   0  0  0  0  0  0  0  0  0  0  0  0
  1  2  2  0
  2  3  1  0
  3  4  1  0
  4  5  2  0
  5  6  1  0
  6  7  2  0
  7  8  1  0
  8  9  2  0
  8 10  1  0
 10 11  1  0
 11 12  1  0
 12 13  2  0
 13 14  1  0
 14 15  2  0
 15 16  1  0
 16 17  2  0
 17 18  1  0
 18 19  2  0
 19 20  1  0
 20 21  2  0
 10 22  2  0
 22 23  1  0
 23 24  1  0
 24 25  2  0
  2 26  1  0
 26 27  2  0
 27 28  1  0
 28 29  2  0
 29 30  1  0
 30 31  1  0
 30 32  2  0
 25  4  1  0
 32 26  1  0
 24  7  1  0
 21 12  1  0
 20 15  1  0
  5 33  1  0
  6 34  1  0
 13 35  1  0
 14 36  1  0
 16 37  1  0
 17 38  1  0
 18 39  1  0
 19 40  1  0
 21 41  1  0
 22 42  1  0
 25 43  1  0
 27 44  1  0
 29 45  1  0
 32 46  1  0
M  END
$$$$
