
     RDKit          3D

 38 40  0  0  0  0  0  0  0  0999 V2000
   -3.6558    1.8784   -1.9712 C   0  0  0  0  0  0  0  0  0  0  0  0
   -4.5995    0.9431   -1.4633 O   0  0  0  0  0  0  0  0  0  0  0  0
   -4.1134   -0.1128   -0.7435 C   0  0  0  0  0  0  0  0  0  0  0  0
   -5.0943   -0.9708   -0.2380 C   0  0  0  0  0  0  0  0  0  0  0  0
   -4.7415   -2.1001    0.5008 C   0  0  0  0  0  0  0  0  0  0  0  0
   -3.4002   -2.3701    0.7447 C   0  0  0  0  0  0  0  0  0  0  0  0
   -3.1245   -3.5090    1.4519 O   0  0  0  0  0  0  0  0  0  0  0  0
   -2.4041   -1.5021    0.2767 C   0  0  0  0  0  0  0  0  0  0  0  0
   -0.9812   -1.8036    0.5771 C   0  0  0  0  0  0  0  0  0  0  0  0
   -0.6497   -2.9751    0.7568 O   0  0  0  0  0  0  0  0  0  0  0  0
    0.0480   -0.7519    0.6888 C   0  0  0  0  0  0  0  0  0  0  0  0
   -0.2097    0.4750    1.2856 C   0  0  0  0  0  0  0  0  0  0  0  0
    0.7129    1.4594    1.4072 N   0  0  0  0  0  0  0  0  0  0  0  0
    1.9490    1.1964    0.9360 C   0  0  0  0  0  0  0  0  0  0  0  0
    2.3156   -0.0078    0.3605 C   0  0  0  0  0  0  0  0  0  0  0  0
    1.3459   -1.0067    0.2437 C   0  0  0  0  0  0  0  0  0  0  0  0
    3.7429   -0.2191   -0.0149 C   0  0  0  0  0  0  0  0  0  0  0  0
    4.4725    1.0215   -0.2070 N   0  0  0  0  0  0  0  0  0  0  0  0
    5.8116    0.9157   -0.7556 C   0  0  0  0  0  0  0  0  0  0  0  0
    4.1359    2.1653    0.4914 C   0  0  0  0  0  0  0  0  0  0  0  0
    4.8780    3.1391    0.5999 O   0  0  0  0  0  0  0  0  0  0  0  0
    2.8940    2.1969    1.0455 N   0  0  0  0  0  0  0  0  0  0  0  0
   -2.7659   -0.3844   -0.4938 C   0  0  0  0  0  0  0  0  0  0  0  0
   -3.0907    2.3495   -1.1600 H   0  0  0  0  0  0  0  0  0  0  0  0
   -2.9862    1.4058   -2.6973 H   0  0  0  0  0  0  0  0  0  0  0  0
   -4.2108    2.6647   -2.4917 H   0  0  0  0  0  0  0  0  0  0  0  0
   -6.1447   -0.7635   -0.4316 H   0  0  0  0  0  0  0  0  0  0  0  0
   -5.5100   -2.7707    0.8759 H   0  0  0  0  0  0  0  0  0  0  0  0
   -2.1616   -3.6911    1.3679 H   0  0  0  0  0  0  0  0  0  0  0  0
   -1.1803    0.7183    1.7098 H   0  0  0  0  0  0  0  0  0  0  0  0
    1.5974   -1.9765   -0.1807 H   0  0  0  0  0  0  0  0  0  0  0  0
    4.2475   -0.7875    0.7752 H   0  0  0  0  0  0  0  0  0  0  0  0
    3.7965   -0.7863   -0.9513 H   0  0  0  0  0  0  0  0  0  0  0  0
    5.7836    0.3071   -1.6639 H   0  0  0  0  0  0  0  0  0  0  0  0
    6.4602    0.4424   -0.0125 H   0  0  0  0  0  0  0  0  0  0  0  0
    6.2167    1.9006   -1.0048 H   0  0  0  0  0  0  0  0  0  0  0  0
    2.6104    3.0553    1.4930 H   0  0  0  0  0  0  0  0  0  0  0  0
   -1.9947    0.2547   -0.9087 H   0  0  0  0  0  0  0  0  0  0  0  0
  1  2  1  0
  2  3  1  0
  3  4  2  0
  4  5  1  0
  5  6  2  0
  6  7  1  0
  6  8  1  0
  8  9  1  0
  9 10  2  0
  9 11  1  0
 11 12  2  0
 12 13  1  0
 13 14  2  0
 14 15  1  0
 15 16  2  0
 15 17  1  0
 17 18  1  0
 18 19  1  0
 18 20  1  0
 20 21  2  0
 20 22  1  0
  8 23  2  0
 23  3  1  0
 16 11  1  0
 22 14  1  0
  1 24  1  0
  1 25  1  0
  1 26  1  0
  4 27  1  0
  5 28  1  0
  7 29  1  0
 12 30  1  0
 16 31  1  0
 17 32  1  0
 17 33  1  0
 19 34  1  0
 19 35  1  0
 19 36  1  0
 22 37  1  0
 23 38  1  0
M  END
$$$$
