
     RDKit          3D

 53 54  0  0  0  0  0  0  0  0999 V2000
    0.8534    3.1564    4.4313 C   0  0  0  0  0  0  0  0  0  0  0  0
   -0.1454    4.2473    3.3882 S   0  0  0  0  0  0  0  0  0  0  0  0
   -0.9585    2.9967    2.3353 C   0  0  0  0  0  0  0  0  0  0  0  0
   -0.0119    2.4927    1.2478 C   0  0  0  0  0  0  0  0  0  0  0  0
   -0.7099    1.5453    0.2660 C   0  0  0  0  0  0  0  0  0  0  0  0
   -0.9684    0.2335    0.8676 N   0  0  0  0  0  0  0  0  0  0  0  0
   -2.2039   -0.1064    1.3823 C   0  0  0  0  0  0  0  0  0  0  0  0
   -3.1203    0.7054    1.4602 O   0  0  0  0  0  0  0  0  0  0  0  0
   -2.2927   -1.5641    1.8439 C   0  0  0  0  0  0  0  0  0  0  0  0
   -3.5514   -1.8359    2.4383 O   0  0  0  0  0  0  0  0  0  0  0  0
   -3.7639   -3.1052    2.8989 C   0  0  0  0  0  0  0  0  0  0  0  0
   -2.8615   -4.1681    2.8322 C   0  0  0  0  0  0  0  0  0  0  0  0
   -3.2137   -5.4205    3.3463 C   0  0  0  0  0  0  0  0  0  0  0  0
   -4.4656   -5.6153    3.9274 C   0  0  0  0  0  0  0  0  0  0  0  0
   -5.3693   -4.5581    3.9958 C   0  0  0  0  0  0  0  0  0  0  0  0
   -5.0171   -3.3089    3.4825 C   0  0  0  0  0  0  0  0  0  0  0  0
    0.1900    1.3168   -0.9515 C   0  0  0  0  0  0  0  0  0  0  0  0
    0.8679    0.3080   -1.1216 O   0  0  0  0  0  0  0  0  0  0  0  0
    0.1526    2.3865   -1.7917 O   0  0  0  0  0  0  0  0  0  0  0  0
    0.9455    2.2664   -2.9839 C   0  0  0  0  0  0  0  0  0  0  0  0
    2.4133    2.5897   -2.7102 C   0  0  0  0  0  0  0  0  0  0  0  0
    3.1828    2.5613   -3.9106 O   0  0  0  0  0  0  0  0  0  0  0  0
    3.7110    1.3706   -4.3232 C   0  0  0  0  0  0  0  0  0  0  0  0
    4.5003    1.4588   -5.4747 C   0  0  0  0  0  0  0  0  0  0  0  0
    5.1035    0.3221   -6.0179 C   0  0  0  0  0  0  0  0  0  0  0  0
    4.9140   -0.9127   -5.4054 C   0  0  0  0  0  0  0  0  0  0  0  0
    5.7242   -2.4578   -6.1315 Br  0  0  0  0  0  0  0  0  0  0  0  0
    4.1284   -1.0156   -4.2596 C   0  0  0  0  0  0  0  0  0  0  0  0
    3.5264    0.1266   -3.7185 C   0  0  0  0  0  0  0  0  0  0  0  0
    0.2181    2.4285    4.9424 H   0  0  0  0  0  0  0  0  0  0  0  0
    1.3663    3.7575    5.1870 H   0  0  0  0  0  0  0  0  0  0  0  0
    1.6085    2.6361    3.8374 H   0  0  0  0  0  0  0  0  0  0  0  0
   -1.8299    3.4762    1.8772 H   0  0  0  0  0  0  0  0  0  0  0  0
   -1.3227    2.1829    2.9689 H   0  0  0  0  0  0  0  0  0  0  0  0
    0.8498    1.9816    1.6955 H   0  0  0  0  0  0  0  0  0  0  0  0
    0.3876    3.3523    0.6935 H   0  0  0  0  0  0  0  0  0  0  0  0
   -1.6578    1.9641   -0.0918 H   0  0  0  0  0  0  0  0  0  0  0  0
   -0.2848   -0.4954    0.6812 H   0  0  0  0  0  0  0  0  0  0  0  0
   -1.4881   -1.7270    2.5712 H   0  0  0  0  0  0  0  0  0  0  0  0
   -2.1477   -2.1938    0.9577 H   0  0  0  0  0  0  0  0  0  0  0  0
   -1.8783   -4.0616    2.3880 H   0  0  0  0  0  0  0  0  0  0  0  0
   -2.5089   -6.2465    3.2925 H   0  0  0  0  0  0  0  0  0  0  0  0
   -4.7367   -6.5895    4.3258 H   0  0  0  0  0  0  0  0  0  0  0  0
   -6.3473   -4.7028    4.4468 H   0  0  0  0  0  0  0  0  0  0  0  0
   -5.7252   -2.4850    3.5368 H   0  0  0  0  0  0  0  0  0  0  0  0
    0.8145    1.2770   -3.4378 H   0  0  0  0  0  0  0  0  0  0  0  0
    0.5451    2.9794   -3.7137 H   0  0  0  0  0  0  0  0  0  0  0  0
    2.8518    1.9757   -1.9153 H   0  0  0  0  0  0  0  0  0  0  0  0
    2.4699    3.6150   -2.3238 H   0  0  0  0  0  0  0  0  0  0  0  0
    4.6482    2.4244   -5.9532 H   0  0  0  0  0  0  0  0  0  0  0  0
    5.7137    0.4138   -6.9121 H   0  0  0  0  0  0  0  0  0  0  0  0
    3.9751   -1.9780   -3.7781 H   0  0  0  0  0  0  0  0  0  0  0  0
    2.9188   -0.0004   -2.8285 H   0  0  0  0  0  0  0  0  0  0  0  0
  1  2  1  0
  2  3  1  0
  3  4  1  0
  4  5  1  0
  5  6  1  0
  6  7  1  0
  7  8  2  0
  7  9  1  0
  9 10  1  0
 10 11  1  0
 11 12  2  0
 12 13  1  0
 13 14  2  0
 14 15  1  0
 15 16  2  0
  5 17  1  0
 17 18  2  0
 17 19  1  0
 19 20  1  0
 20 21  1  0
 21 22  1  0
 22 23  1  0
 23 24  2  0
 24 25  1  0
 25 26  2  0
 26 27  1  0
 26 28  1  0
 28 29  2  0
 16 11  1  0
 29 23  1  0
  1 30  1  0
  1 31  1  0
  1 32  1  0
  3 33  1  0
  3 34  1  0
  4 35  1  0
  4 36  1  0
  5 37  1  0
  6 38  1  0
  9 39  1  0
  9 40  1  0
 12 41  1  0
 13 42  1  0
 14 43  1  0
 15 44  1  0
 16 45  1  0
 20 46  1  0
 20 47  1  0
 21 48  1  0
 21 49  1  0
 24 50  1  0
 25 51  1  0
 28 52  1  0
 29 53  1  0
M  END
$$$$
