
     RDKit          3D

 50 53  0  0  0  0  0  0  0  0999 V2000
   -8.1374   -0.7862    1.6961 C   0  0  0  0  0  0  0  0  0  0  0  0
   -6.7995   -0.2113    1.3349 C   0  0  0  0  0  0  0  0  0  0  0  0
   -5.8116   -1.0162    0.7607 C   0  0  0  0  0  0  0  0  0  0  0  0
   -4.5725   -0.4773    0.3937 C   0  0  0  0  0  0  0  0  0  0  0  0
   -4.3057    0.8784    0.5848 C   0  0  0  0  0  0  0  0  0  0  0  0
   -3.0844    1.5047    0.2468 N   0  0  0  0  0  0  0  0  0  0  0  0
   -1.9717    0.9129   -0.3306 C   0  0  0  0  0  0  0  0  0  0  0  0
   -1.8639   -0.2626   -0.6736 O   0  0  0  0  0  0  0  0  0  0  0  0
   -0.8119    1.8958   -0.5545 C   0  0  0  0  0  0  0  0  0  0  0  0
    0.4702    1.1914   -0.6895 N   0  0  0  0  0  4  0  0  0  0  0  0
    1.4741    1.0808    0.2716 C   0  0  0  0  0  0  0  0  0  0  0  0
    2.4874    0.2674   -0.2229 C   0  0  0  0  0  0  0  0  0  0  0  0
    3.8279   -0.1008    0.5089 C   0  0  0  0  0  0  0  0  0  0  0  0
    4.0535    0.3437    1.8168 C   0  0  0  0  0  0  0  0  0  0  0  0
    5.2450    0.0229    2.4743 C   0  0  0  0  0  0  0  0  0  0  0  0
    6.2301   -0.7318    1.8312 C   0  0  0  0  0  0  0  0  0  0  0  0
    7.4943   -1.1045    2.5499 C   0  0  0  0  0  0  0  0  0  0  0  0
    5.9957   -1.1814    0.5284 C   0  0  0  0  0  0  0  0  0  0  0  0
    4.8046   -0.8631   -0.1323 C   0  0  0  0  0  0  0  0  0  0  0  0
    2.0146   -0.1063   -1.4677 N   0  0  0  0  0  0  0  0  0  0  0  0
    0.8298    0.4404   -1.7270 C   0  0  0  0  0  0  0  0  0  0  0  0
    0.2960    0.0680   -3.0583 C   0  0  0  0  0  0  0  0  0  0  0  0
    1.1993   -1.1190   -3.4445 C   0  0  0  0  0  0  0  0  0  0  0  0
    2.4597   -0.9741   -2.5488 C   0  0  0  0  0  0  0  0  0  0  0  0
   -5.3014    1.6873    1.1473 C   0  0  0  0  0  0  0  0  0  0  0  0
   -6.5390    1.1492    1.5139 C   0  0  0  0  0  0  0  0  0  0  0  0
   -8.0469   -1.8409    1.9767 H   0  0  0  0  0  0  0  0  0  0  0  0
   -8.5701   -0.2586    2.5527 H   0  0  0  0  0  0  0  0  0  0  0  0
   -8.8218   -0.7037    0.8463 H   0  0  0  0  0  0  0  0  0  0  0  0
   -5.9976   -2.0759    0.5949 H   0  0  0  0  0  0  0  0  0  0  0  0
   -3.8450   -1.1557   -0.0388 H   0  0  0  0  0  0  0  0  0  0  0  0
   -3.0496    2.4957    0.4570 H   0  0  0  0  0  0  0  0  0  0  0  0
   -0.9971    2.4590   -1.4747 H   0  0  0  0  0  0  0  0  0  0  0  0
   -0.7429    2.5946    0.2855 H   0  0  0  0  0  0  0  0  0  0  0  0
    1.3436    1.6094    1.2003 H   0  0  0  0  0  0  0  0  0  0  0  0
    3.3221    0.9330    2.3614 H   0  0  0  0  0  0  0  0  0  0  0  0
    5.4020    0.3656    3.4961 H   0  0  0  0  0  0  0  0  0  0  0  0
    8.3253   -1.2173    1.8456 H   0  0  0  0  0  0  0  0  0  0  0  0
    7.7795   -0.3269    3.2664 H   0  0  0  0  0  0  0  0  0  0  0  0
    7.3547   -2.0475    3.0871 H   0  0  0  0  0  0  0  0  0  0  0  0
    6.7461   -1.7828    0.0172 H   0  0  0  0  0  0  0  0  0  0  0  0
    4.6839   -1.2199   -1.1467 H   0  0  0  0  0  0  0  0  0  0  0  0
   -0.7570   -0.1980   -2.9801 H   0  0  0  0  0  0  0  0  0  0  0  0
    0.4479    0.9352   -3.7047 H   0  0  0  0  0  0  0  0  0  0  0  0
    1.4373   -1.1455   -4.5113 H   0  0  0  0  0  0  0  0  0  0  0  0
    0.6889   -2.0554   -3.1895 H   0  0  0  0  0  0  0  0  0  0  0  0
    2.7815   -1.9452   -2.1658 H   0  0  0  0  0  0  0  0  0  0  0  0
    3.2717   -0.4769   -3.0874 H   0  0  0  0  0  0  0  0  0  0  0  0
   -5.1406    2.7499    1.3099 H   0  0  0  0  0  0  0  0  0  0  0  0
   -7.2993    1.7996    1.9426 H   0  0  0  0  0  0  0  0  0  0  0  0
  1  2  1  0
  2  3  2  0
  3  4  1  0
  4  5  2  0
  5  6  1  0
  6  7  1  0
  7  8  2  0
  7  9  1  0
  9 10  1  0
 10 11  1  0
 11 12  2  0
 12 13  1  0
 13 14  2  0
 14 15  1  0
 15 16  2  0
 16 17  1  0
 16 18  1  0
 18 19  2  0
 12 20  1  0
 20 21  1  0
 21 22  1  0
 22 23  1  0
 23 24  1  0
  5 25  1  0
 25 26  2  0
 26  2  1  0
 21 10  2  0
 19 13  1  0
 24 20  1  0
  1 27  1  0
  1 28  1  0
  1 29  1  0
  3 30  1  0
  4 31  1  0
  6 32  1  0
  9 33  1  0
  9 34  1  0
 11 35  1  0
 14 36  1  0
 15 37  1  0
 17 38  1  0
 17 39  1  0
 17 40  1  0
 18 41  1  0
 19 42  1  0
 22 43  1  0
 22 44  1  0
 23 45  1  0
 23 46  1  0
 24 47  1  0
 24 48  1  0
 25 49  1  0
 26 50  1  0
M  CHG  1  10   1
M  END
$$$$
