
     RDKit          3D

 35 36  0  0  0  0  0  0  0  0999 V2000
    3.9547    0.9055   -2.5528 C   0  0  0  0  0  0  0  0  0  0  0  0
    3.9641   -0.2593   -1.5786 C   0  0  0  0  0  0  0  0  0  0  0  0
    3.7454    0.1671   -0.2050 N   0  0  0  0  0  0  0  0  0  0  0  0
    4.8387    0.4313    0.5480 N   0  0  0  0  0  0  0  0  0  0  0  0
    4.3386    0.7693    1.7335 C   0  0  0  0  0  0  0  0  0  0  0  0
    2.9410    0.7134    1.7394 C   0  0  0  0  0  0  0  0  0  0  0  0
    1.9281    1.1526    3.2551 Br  0  0  0  0  0  0  0  0  0  0  0  0
    2.5469    0.3163    0.4734 C   0  0  0  0  0  0  0  0  0  0  0  0
    1.2385    0.0968   -0.1240 C   0  0  0  0  0  0  0  0  0  0  0  0
    1.1014   -0.0280   -1.3360 O   0  0  0  0  0  0  0  0  0  0  0  0
    0.1973    0.0302    0.7820 N   0  0  0  0  0  0  0  0  0  0  0  0
   -1.1770   -0.1666    0.5292 C   0  0  0  0  0  0  0  0  0  0  0  0
   -1.7296   -0.3207   -0.7432 C   0  0  0  0  0  0  0  0  0  0  0  0
   -3.1104   -0.5127   -0.9099 C   0  0  0  0  0  0  0  0  0  0  0  0
   -3.6924   -0.6352   -2.2880 C   0  0  0  0  0  0  0  0  0  0  0  0
   -3.9435   -0.5283    0.2143 C   0  0  0  0  0  0  0  0  0  0  0  0
   -3.4080   -0.3901    1.4984 C   0  0  0  0  0  0  0  0  0  0  0  0
   -4.3074   -0.3810    2.6991 C   0  0  0  0  0  0  0  0  0  0  0  0
   -2.0269   -0.1996    1.6440 C   0  0  0  0  0  0  0  0  0  0  0  0
    4.1240    0.5477   -3.5731 H   0  0  0  0  0  0  0  0  0  0  0  0
    4.7430    1.6261   -2.3097 H   0  0  0  0  0  0  0  0  0  0  0  0
    3.0005    1.4410   -2.5324 H   0  0  0  0  0  0  0  0  0  0  0  0
    4.9375   -0.7636   -1.6123 H   0  0  0  0  0  0  0  0  0  0  0  0
    3.2165   -1.0140   -1.8362 H   0  0  0  0  0  0  0  0  0  0  0  0
    5.0174    1.0410    2.5317 H   0  0  0  0  0  0  0  0  0  0  0  0
    0.4472    0.1316    1.7564 H   0  0  0  0  0  0  0  0  0  0  0  0
   -1.1094   -0.2913   -1.6335 H   0  0  0  0  0  0  0  0  0  0  0  0
   -4.6145   -1.2257   -2.2728 H   0  0  0  0  0  0  0  0  0  0  0  0
   -3.9157    0.3581   -2.6891 H   0  0  0  0  0  0  0  0  0  0  0  0
   -2.9944   -1.1423   -2.9625 H   0  0  0  0  0  0  0  0  0  0  0  0
   -5.0176   -0.6505    0.0870 H   0  0  0  0  0  0  0  0  0  0  0  0
   -3.7911   -0.7843    3.5766 H   0  0  0  0  0  0  0  0  0  0  0  0
   -5.1924   -1.0033    2.5296 H   0  0  0  0  0  0  0  0  0  0  0  0
   -4.6303    0.6417    2.9168 H   0  0  0  0  0  0  0  0  0  0  0  0
   -1.6200   -0.0729    2.6447 H   0  0  0  0  0  0  0  0  0  0  0  0
  1  2  1  0
  2  3  1  0
  3  4  1  0
  4  5  2  0
  5  6  1  0
  6  7  1  0
  6  8  2  0
  8  9  1  0
  9 10  2  0
  9 11  1  0
 11 12  1  0
 12 13  2  0
 13 14  1  0
 14 15  1  0
 14 16  2  0
 16 17  1  0
 17 18  1  0
 17 19  2  0
  8  3  1  0
 19 12  1  0
  1 20  1  0
  1 21  1  0
  1 22  1  0
  2 23  1  0
  2 24  1  0
  5 25  1  0
 11 26  1  0
 13 27  1  0
 15 28  1  0
 15 29  1  0
 15 30  1  0
 16 31  1  0
 18 32  1  0
 18 33  1  0
 18 34  1  0
 19 35  1  0
M  END
$$$$
