
     RDKit          3D

 31 31  0  0  0  0  0  0  0  0999 V2000
    4.1877    0.2918   -0.1692 N   0  0  0  0  0  0  0  0  0  0  0  0
    4.0916   -0.9700   -0.6661 C   0  0  0  0  0  0  0  0  0  0  0  0
    5.4326   -1.9188   -0.8763 S   0  0  0  0  0  0  0  0  0  0  0  0
    2.8329   -1.4019   -0.9534 N   0  0  0  0  0  0  0  0  0  0  0  0
    1.7051   -0.7096   -0.4879 N   0  0  0  0  0  0  0  0  0  0  0  0
    0.4713   -1.2467   -0.8020 C   0  0  0  0  0  0  0  0  0  0  0  0
    0.3352   -2.1851   -1.5861 O   0  0  0  0  0  0  0  0  0  0  0  0
   -0.7267   -0.6064   -0.1105 C   0  0  0  0  0  0  0  0  0  0  0  0
   -0.6593   -0.8021    1.4070 C   0  0  0  0  0  0  0  0  0  0  0  0
   -1.9359   -0.3185    2.0960 C   0  0  0  0  0  0  0  0  0  0  0  0
   -2.6234    0.8389    1.3704 C   0  0  0  0  0  0  0  0  0  0  0  0
   -1.6399    1.6972    0.5795 C   0  0  0  0  0  0  0  0  0  0  0  0
   -0.8527    0.8866   -0.4669 C   0  0  0  0  0  0  0  0  0  0  0  0
   -1.4643    1.0407   -1.8416 C   0  0  0  0  0  0  0  0  0  0  0  0
   -0.8956    1.5028   -2.8169 O   0  0  0  0  0  0  0  0  0  0  0  0
   -2.7356    0.6148   -1.9257 O   0  0  0  0  0  0  0  0  0  0  0  0
    3.5357    0.9568   -0.5669 H   0  0  0  0  0  0  0  0  0  0  0  0
    5.1367    0.6421   -0.0884 H   0  0  0  0  0  0  0  0  0  0  0  0
    2.6779   -2.3444   -1.3157 H   0  0  0  0  0  0  0  0  0  0  0  0
    1.8413   -0.2122    0.3877 H   0  0  0  0  0  0  0  0  0  0  0  0
   -1.6066   -1.1555   -0.4748 H   0  0  0  0  0  0  0  0  0  0  0  0
    0.1926   -0.2474    1.8207 H   0  0  0  0  0  0  0  0  0  0  0  0
   -0.4817   -1.8552    1.6567 H   0  0  0  0  0  0  0  0  0  0  0  0
   -1.6892   -0.0188    3.1219 H   0  0  0  0  0  0  0  0  0  0  0  0
   -2.6468   -1.1490    2.1847 H   0  0  0  0  0  0  0  0  0  0  0  0
   -3.1620    1.4574    2.0976 H   0  0  0  0  0  0  0  0  0  0  0  0
   -3.3831    0.4360    0.6898 H   0  0  0  0  0  0  0  0  0  0  0  0
   -2.1742    2.5317    0.1097 H   0  0  0  0  0  0  0  0  0  0  0  0
   -0.9289    2.1445    1.2866 H   0  0  0  0  0  0  0  0  0  0  0  0
    0.1389    1.3526   -0.5415 H   0  0  0  0  0  0  0  0  0  0  0  0
   -2.9737    0.7477   -2.8682 H   0  0  0  0  0  0  0  0  0  0  0  0
  1  2  1  0
  2  3  2  0
  2  4  1  0
  4  5  1  0
  5  6  1  0
  6  7  2  0
  6  8  1  0
  8  9  1  0
  9 10  1  0
 10 11  1  0
 11 12  1  0
 12 13  1  0
 13 14  1  0
 14 15  2  0
 14 16  1  0
 13  8  1  0
  1 17  1  0
  1 18  1  0
  4 19  1  0
  5 20  1  0
  8 21  1  0
  9 22  1  0
  9 23  1  0
 10 24  1  0
 10 25  1  0
 11 26  1  0
 11 27  1  0
 12 28  1  0
 12 29  1  0
 13 30  1  0
 16 31  1  0
M  END
$$$$
