
     RDKit          3D

 67 71  0  0  0  0  0  0  0  0999 V2000
    7.4852    1.3227    2.7398 O   0  0  0  0  0  0  0  0  0  0  0  0
    7.5687    0.1092    2.8282 C   0  0  0  0  0  0  0  0  0  0  0  0
    7.8055   -0.6637    4.1031 C   0  0  0  0  0  0  0  0  0  0  0  0
    8.0713   -2.0815    3.6091 C   0  0  0  0  0  0  0  0  0  0  0  0
    7.3087   -2.1563    2.3016 C   0  0  0  0  0  0  0  0  0  0  0  0
    7.3970   -0.8087    1.7974 N   0  0  0  0  0  0  0  0  0  0  0  0
    6.8959   -0.4266    0.4897 C   0  0  0  0  0  0  0  0  0  0  0  0
    5.3730   -0.3201    0.4561 C   0  0  0  0  0  0  0  0  0  0  0  0
    4.9028    0.2839   -0.8642 C   0  0  0  0  0  0  0  0  0  0  0  0
    3.4492    0.3258   -0.8949 N   0  0  0  0  0  0  0  0  0  0  0  0
    2.7303    1.0187   -1.8388 C   0  0  0  0  0  0  0  0  0  0  0  0
    3.1471    2.3847   -2.2958 C   0  0  0  0  0  0  0  0  0  0  0  0
    2.4070    3.0116   -3.2172 C   0  0  0  0  0  0  0  0  0  0  0  0
    1.2666    2.3657   -3.7253 C   0  0  0  0  0  0  0  0  0  0  0  0
    0.3697    2.7110   -4.6216 N   0  0  0  0  0  0  0  0  0  0  0  0
   -0.5366    1.6772   -4.7259 N   0  0  0  0  0  0  0  0  0  0  0  0
   -0.1701    0.7237   -3.8906 C   0  0  0  0  0  0  0  0  0  0  0  0
   -0.8289   -0.5954   -3.6741 C   0  0  0  0  0  0  0  0  0  0  0  0
   -1.7076   -0.6002   -2.4232 C   0  0  0  0  0  0  0  0  0  0  0  0
   -3.1123   -0.0697   -2.6766 C   0  0  0  0  0  0  0  0  0  0  0  0
   -3.5640    0.0364   -3.8153 O   0  0  0  0  0  0  0  0  0  0  0  0
   -3.8806    0.2151   -1.5561 N   0  0  0  0  0  0  0  0  0  0  0  0
   -3.4530   -0.0117   -0.1716 C   0  0  0  0  0  0  0  0  0  0  0  0
   -4.4846    0.4301    0.8868 C   0  0  0  0  0  0  0  0  0  0  0  0
   -5.8177   -0.1188    0.5942 N   0  0  0  0  0  0  0  0  0  0  0  0
   -6.7973   -0.2060    1.5786 C   0  0  0  0  0  0  0  0  0  0  0  0
   -7.9710   -0.9540    1.3705 C   0  0  0  0  0  0  0  0  0  0  0  0
   -8.9637   -1.0706    2.3510 C   0  0  0  0  0  0  0  0  0  0  0  0
   -8.8090   -0.4347    3.5759 C   0  0  0  0  0  0  0  0  0  0  0  0
   -7.6600    0.3083    3.8168 C   0  0  0  0  0  0  0  0  0  0  0  0
   -6.6686    0.4139    2.8317 C   0  0  0  0  0  0  0  0  0  0  0  0
   -6.2374   -0.1279   -0.8259 C   0  0  0  0  0  0  0  0  0  0  0  0
   -5.2667    0.6560   -1.7287 C   0  0  0  0  0  0  0  0  0  0  0  0
    0.9706    1.1163   -3.2269 N   0  0  0  0  0  0  0  0  0  0  0  0
    1.6606    0.4088   -2.2809 N   0  0  0  0  0  0  0  0  0  0  0  0
    8.6582   -0.2585    4.6527 H   0  0  0  0  0  0  0  0  0  0  0  0
    6.9000   -0.6179    4.7158 H   0  0  0  0  0  0  0  0  0  0  0  0
    7.7626   -2.8485    4.3262 H   0  0  0  0  0  0  0  0  0  0  0  0
    9.1445   -2.2083    3.4217 H   0  0  0  0  0  0  0  0  0  0  0  0
    7.7576   -2.8616    1.5974 H   0  0  0  0  0  0  0  0  0  0  0  0
    6.2552   -2.4056    2.4672 H   0  0  0  0  0  0  0  0  0  0  0  0
    7.3365    0.5447    0.2371 H   0  0  0  0  0  0  0  0  0  0  0  0
    7.2556   -1.1575   -0.2421 H   0  0  0  0  0  0  0  0  0  0  0  0
    4.9264   -1.3118    0.6043 H   0  0  0  0  0  0  0  0  0  0  0  0
    5.0204    0.3032    1.2889 H   0  0  0  0  0  0  0  0  0  0  0  0
    5.2627   -0.3169   -1.7073 H   0  0  0  0  0  0  0  0  0  0  0  0
    5.3246    1.2893   -0.9647 H   0  0  0  0  0  0  0  0  0  0  0  0
    3.0247   -0.5861   -0.7373 H   0  0  0  0  0  0  0  0  0  0  0  0
    4.0177    2.8482   -1.8541 H   0  0  0  0  0  0  0  0  0  0  0  0
    2.6557    4.0039   -3.5751 H   0  0  0  0  0  0  0  0  0  0  0  0
   -1.3990   -0.8696   -4.5689 H   0  0  0  0  0  0  0  0  0  0  0  0
   -0.0518   -1.3630   -3.5646 H   0  0  0  0  0  0  0  0  0  0  0  0
   -1.2244   -0.0320   -1.6229 H   0  0  0  0  0  0  0  0  0  0  0  0
   -1.8261   -1.6373   -2.0839 H   0  0  0  0  0  0  0  0  0  0  0  0
   -2.5132    0.5217    0.0010 H   0  0  0  0  0  0  0  0  0  0  0  0
   -3.2549   -1.0845   -0.0689 H   0  0  0  0  0  0  0  0  0  0  0  0
   -4.5392    1.5259    0.9144 H   0  0  0  0  0  0  0  0  0  0  0  0
   -4.1195    0.0808    1.8602 H   0  0  0  0  0  0  0  0  0  0  0  0
   -8.1186   -1.4933    0.4388 H   0  0  0  0  0  0  0  0  0  0  0  0
   -9.8454   -1.6734    2.1576 H   0  0  0  0  0  0  0  0  0  0  0  0
   -9.5756   -0.5232    4.3400 H   0  0  0  0  0  0  0  0  0  0  0  0
   -7.5245    0.8060    4.7730 H   0  0  0  0  0  0  0  0  0  0  0  0
   -5.7940    1.0135    3.0695 H   0  0  0  0  0  0  0  0  0  0  0  0
   -6.2842   -1.1692   -1.1676 H   0  0  0  0  0  0  0  0  0  0  0  0
   -7.2327    0.3185   -0.9454 H   0  0  0  0  0  0  0  0  0  0  0  0
   -5.5874    0.5677   -2.7712 H   0  0  0  0  0  0  0  0  0  0  0  0
   -5.2919    1.7216   -1.4697 H   0  0  0  0  0  0  0  0  0  0  0  0
  1  2  2  0
  2  3  1  0
  3  4  1  0
  4  5  1  0
  5  6  1  0
  6  7  1  0
  7  8  1  0
  8  9  1  0
  9 10  1  0
 10 11  1  0
 11 12  1  0
 12 13  2  0
 13 14  1  0
 14 15  2  0
 15 16  1  0
 16 17  2  0
 17 18  1  0
 18 19  1  0
 19 20  1  0
 20 21  2  0
 20 22  1  0
 22 23  1  0
 23 24  1  0
 24 25  1  0
 25 26  1  0
 26 27  2  0
 27 28  1  0
 28 29  2  0
 29 30  1  0
 30 31  2  0
 25 32  1  0
 32 33  1  0
 17 34  1  0
 34 35  1  0
  6  2  1  0
 35 11  2  0
 34 14  1  0
 33 22  1  0
 31 26  1  0
  3 36  1  0
  3 37  1  0
  4 38  1  0
  4 39  1  0
  5 40  1  0
  5 41  1  0
  7 42  1  0
  7 43  1  0
  8 44  1  0
  8 45  1  0
  9 46  1  0
  9 47  1  0
 10 48  1  0
 12 49  1  0
 13 50  1  0
 18 51  1  0
 18 52  1  0
 19 53  1  0
 19 54  1  0
 23 55  1  0
 23 56  1  0
 24 57  1  0
 24 58  1  0
 27 59  1  0
 28 60  1  0
 29 61  1  0
 30 62  1  0
 31 63  1  0
 32 64  1  0
 32 65  1  0
 33 66  1  0
 33 67  1  0
M  END
$$$$
