
     RDKit          3D

 54 57  0  0  0  0  0  0  0  0999 V2000
   -3.4694    6.0455   -0.2880 C   0  0  0  0  0  0  0  0  0  0  0  0
   -2.8667    5.1042    0.5904 O   0  0  0  0  0  0  0  0  0  0  0  0
   -2.1955    4.0614    0.0145 C   0  0  0  0  0  0  0  0  0  0  0  0
   -1.9895    3.8711   -1.3510 C   0  0  0  0  0  0  0  0  0  0  0  0
   -1.2786    2.7546   -1.8082 C   0  0  0  0  0  0  0  0  0  0  0  0
   -0.7666    1.8059   -0.9084 C   0  0  0  0  0  0  0  0  0  0  0  0
    0.0251    0.6190   -1.4374 C   0  0  0  0  0  0  0  0  0  0  0  0
    1.5299    0.8772   -1.3370 C   0  0  0  0  0  0  0  0  0  0  0  0
    1.9042   -0.1095   -0.2654 C   0  0  0  0  0  0  0  0  0  0  0  0
    3.2627   -0.1435    0.3250 C   0  0  0  0  0  0  0  0  0  0  0  0
    4.2779    0.7033   -0.1287 C   0  0  0  0  0  0  0  0  0  0  0  0
    5.5455    0.6425    0.4532 C   0  0  0  0  0  0  0  0  0  0  0  0
    5.8059   -0.2612    1.4870 C   0  0  0  0  0  0  0  0  0  0  0  0
    4.7990   -1.1110    1.9450 C   0  0  0  0  0  0  0  0  0  0  0  0
    4.9221   -2.0371    2.9437 O   0  0  0  0  0  0  0  0  0  0  0  0
    6.1873   -2.1314    3.5855 C   0  0  0  0  0  0  0  0  0  0  0  0
    3.5309   -1.0481    1.3601 C   0  0  0  0  0  0  0  0  0  0  0  0
    0.9619   -0.9366    0.0723 N   0  0  0  0  0  0  0  0  0  0  0  0
   -0.1501   -0.6009   -0.6461 N   0  0  0  0  0  0  0  0  0  0  0  0
   -1.2908   -1.4003   -0.6078 C   0  0  0  0  0  0  0  0  0  0  0  0
   -2.4333   -1.1232   -1.3776 C   0  0  0  0  0  0  0  0  0  0  0  0
   -3.5694   -1.9409   -1.3310 C   0  0  0  0  0  0  0  0  0  0  0  0
   -3.5753   -3.0641   -0.5062 C   0  0  0  0  0  0  0  0  0  0  0  0
   -5.0065   -4.1052   -0.4500 S   0  0  0  0  0  6  0  0  0  0  0  0
   -4.6285   -5.2512   -1.6275 N   0  0  0  0  0  0  0  0  0  0  0  0
   -6.1464   -3.3534   -0.9185 O   0  0  0  0  0  0  0  0  0  0  0  0
   -5.0089   -4.8224    0.8042 O   0  0  0  0  0  0  0  0  0  0  0  0
   -2.4697   -3.3624    0.2850 C   0  0  0  0  0  0  0  0  0  0  0  0
   -1.3426   -2.5363    0.2232 C   0  0  0  0  0  0  0  0  0  0  0  0
   -0.9726    2.0128    0.4631 C   0  0  0  0  0  0  0  0  0  0  0  0
   -1.6816    3.1282    0.9158 C   0  0  0  0  0  0  0  0  0  0  0  0
   -3.9887    6.7892    0.3240 H   0  0  0  0  0  0  0  0  0  0  0  0
   -2.7134    6.5712   -0.8804 H   0  0  0  0  0  0  0  0  0  0  0  0
   -4.2139    5.5659   -0.9322 H   0  0  0  0  0  0  0  0  0  0  0  0
   -2.3667    4.5727   -2.0875 H   0  0  0  0  0  0  0  0  0  0  0  0
   -1.1306    2.6331   -2.8794 H   0  0  0  0  0  0  0  0  0  0  0  0
   -0.2398    0.4320   -2.4860 H   0  0  0  0  0  0  0  0  0  0  0  0
    2.0387    0.5968   -2.2655 H   0  0  0  0  0  0  0  0  0  0  0  0
    1.7916    1.9028   -1.0626 H   0  0  0  0  0  0  0  0  0  0  0  0
    4.1107    1.4146   -0.9315 H   0  0  0  0  0  0  0  0  0  0  0  0
    6.3360    1.3015    0.1012 H   0  0  0  0  0  0  0  0  0  0  0  0
    6.8042   -0.2768    1.9121 H   0  0  0  0  0  0  0  0  0  0  0  0
    6.4498   -1.1910    4.0813 H   0  0  0  0  0  0  0  0  0  0  0  0
    6.1146   -2.9050    4.3560 H   0  0  0  0  0  0  0  0  0  0  0  0
    6.9661   -2.4372    2.8790 H   0  0  0  0  0  0  0  0  0  0  0  0
    2.7491   -1.7131    1.7223 H   0  0  0  0  0  0  0  0  0  0  0  0
   -2.4681   -0.2537   -2.0273 H   0  0  0  0  0  0  0  0  0  0  0  0
   -4.4386   -1.6879   -1.9347 H   0  0  0  0  0  0  0  0  0  0  0  0
   -3.8006   -5.0049   -2.1691 H   0  0  0  0  0  0  0  0  0  0  0  0
   -4.5287   -6.1614   -1.1747 H   0  0  0  0  0  0  0  0  0  0  0  0
   -2.4683   -4.2209    0.9522 H   0  0  0  0  0  0  0  0  0  0  0  0
   -0.4847   -2.7807    0.8479 H   0  0  0  0  0  0  0  0  0  0  0  0
   -0.5910    1.2996    1.1925 H   0  0  0  0  0  0  0  0  0  0  0  0
   -1.8380    3.2661    1.9831 H   0  0  0  0  0  0  0  0  0  0  0  0
  1  2  1  0
  2  3  1  0
  3  4  2  0
  4  5  1  0
  5  6  2  0
  6  7  1  0
  7  8  1  0
  8  9  1  0
  9 10  1  0
 10 11  2  0
 11 12  1  0
 12 13  2  0
 13 14  1  0
 14 15  1  0
 15 16  1  0
 14 17  2  0
  9 18  2  0
 18 19  1  0
 19 20  1  0
 20 21  2  0
 21 22  1  0
 22 23  2  0
 23 24  1  0
 24 25  1  0
 24 26  2  0
 24 27  2  0
 23 28  1  0
 28 29  2  0
  6 30  1  0
 30 31  2  0
 31  3  1  0
 19  7  1  0
 29 20  1  0
 17 10  1  0
  1 32  1  0
  1 33  1  0
  1 34  1  0
  4 35  1  0
  5 36  1  0
  7 37  1  0
  8 38  1  0
  8 39  1  0
 11 40  1  0
 12 41  1  0
 13 42  1  0
 16 43  1  0
 16 44  1  0
 16 45  1  0
 17 46  1  0
 21 47  1  0
 22 48  1  0
 25 49  1  0
 25 50  1  0
 28 51  1  0
 29 52  1  0
 30 53  1  0
 31 54  1  0
M  END
$$$$
