
     RDKit          3D

 33 34  0  0  0  0  0  0  0  0999 V2000
    7.4343    0.1566   -0.1908 C   0  0  0  0  0  0  0  0  0  0  0  0
    6.6262    0.5255    1.0462 C   0  0  0  0  0  0  0  0  0  0  0  0
    5.1162    0.5677    0.8082 C   0  0  0  0  0  0  0  0  0  0  0  0
    4.4253   -1.0866    0.4897 S   0  0  0  0  0  0  0  0  0  0  0  0
    2.7350   -0.6944    0.2737 C   0  0  0  0  0  0  0  0  0  0  0  0
    2.2659    0.5317    0.3500 N   0  0  0  0  0  0  0  0  0  0  0  0
    0.8982    0.5772    0.1419 N   0  0  0  0  0  0  0  0  0  0  0  0
    0.4028   -0.6153   -0.0787 C   0  0  0  0  0  0  0  0  0  0  0  0
   -0.8798   -1.0187   -0.3346 N   0  0  0  0  0  0  0  0  0  0  0  0
   -1.9449   -0.1404   -0.2992 C   0  0  0  0  0  0  0  0  0  0  0  0
   -1.8602    1.0440   -0.0066 O   0  0  0  0  0  0  0  0  0  0  0  0
   -3.1221   -0.7951   -0.6415 N   0  0  0  0  0  0  0  0  0  0  0  0
   -4.4309   -0.2659   -0.6499 C   0  0  0  0  0  0  0  0  0  0  0  0
   -5.4512   -1.0935   -1.1398 C   0  0  0  0  0  0  0  0  0  0  0  0
   -6.7760   -0.6498   -1.1766 C   0  0  0  0  0  0  0  0  0  0  0  0
   -7.0951    0.6258   -0.7207 C   0  0  0  0  0  0  0  0  0  0  0  0
   -6.0898    1.4537   -0.2278 C   0  0  0  0  0  0  0  0  0  0  0  0
   -4.7637    1.0096   -0.1909 C   0  0  0  0  0  0  0  0  0  0  0  0
    1.5452   -1.8854   -0.0599 S   0  0  0  0  0  0  0  0  0  0  0  0
    7.2385   -0.8701   -0.5132 H   0  0  0  0  0  0  0  0  0  0  0  0
    7.2060    0.8300   -1.0232 H   0  0  0  0  0  0  0  0  0  0  0  0
    8.5048    0.2373    0.0241 H   0  0  0  0  0  0  0  0  0  0  0  0
    6.8678   -0.1630    1.8649 H   0  0  0  0  0  0  0  0  0  0  0  0
    6.9467    1.5219    1.3749 H   0  0  0  0  0  0  0  0  0  0  0  0
    4.6309    0.9806    1.6993 H   0  0  0  0  0  0  0  0  0  0  0  0
    4.8915    1.2272   -0.0372 H   0  0  0  0  0  0  0  0  0  0  0  0
   -1.0315   -2.0060   -0.4406 H   0  0  0  0  0  0  0  0  0  0  0  0
   -3.0286   -1.7257   -1.0159 H   0  0  0  0  0  0  0  0  0  0  0  0
   -5.2326   -2.0940   -1.5025 H   0  0  0  0  0  0  0  0  0  0  0  0
   -7.5576   -1.2997   -1.5612 H   0  0  0  0  0  0  0  0  0  0  0  0
   -8.1236    0.9756   -0.7478 H   0  0  0  0  0  0  0  0  0  0  0  0
   -6.3320    2.4509    0.1316 H   0  0  0  0  0  0  0  0  0  0  0  0
   -4.0157    1.6882    0.2077 H   0  0  0  0  0  0  0  0  0  0  0  0
  1  2  1  0
  2  3  1  0
  3  4  1  0
  4  5  1  0
  5  6  2  0
  6  7  1  0
  7  8  2  0
  8  9  1  0
  9 10  1  0
 10 11  2  0
 10 12  1  0
 12 13  1  0
 13 14  2  0
 14 15  1  0
 15 16  2  0
 16 17  1  0
 17 18  2  0
  8 19  1  0
 19  5  1  0
 18 13  1  0
  1 20  1  0
  1 21  1  0
  1 22  1  0
  2 23  1  0
  2 24  1  0
  3 25  1  0
  3 26  1  0
  9 27  1  0
 12 28  1  0
 14 29  1  0
 15 30  1  0
 16 31  1  0
 17 32  1  0
 18 33  1  0
M  END
$$$$
