
     RDKit          3D

 46 46  0  0  0  0  0  0  0  0999 V2000
   -1.8658   -1.4088   -0.5971 O   0  0  0  0  0  0  0  0  0  0  0  0
   -1.6028   -0.4088    0.0604 C   0  0  0  0  0  0  0  0  0  0  0  0
   -0.2381   -0.1366    0.6518 C   0  0  0  0  0  0  0  0  0  0  0  0
    0.7571   -1.2326    0.2926 C   0  0  0  0  0  0  0  0  0  0  0  0
    2.1086   -0.9543    0.8946 C   0  0  0  0  0  0  0  0  0  0  0  0
    2.3796    0.0037    1.6047 O   0  0  0  0  0  0  0  0  0  0  0  0
    2.9859   -1.9258    0.5179 O   0  0  0  0  0  0  0  0  0  0  0  0
    4.3155   -1.8381    1.0513 C   0  0  0  0  0  0  0  0  0  0  0  0
    5.2963   -1.3753   -0.0256 C   0  0  0  0  0  0  0  0  0  0  0  0
    5.0460    0.0660   -0.4751 C   0  0  0  0  0  0  0  0  0  0  0  0
    5.9604    0.5457   -1.6009 C   0  0  0  0  0  0  0  0  0  0  0  0
    5.7662   -0.2551   -2.6880 F   0  0  0  0  0  0  0  0  0  0  0  0
    5.5196    1.7856   -1.9761 F   0  0  0  0  0  0  0  0  0  0  0  0
    7.4468    0.6163   -1.2409 C   0  0  0  0  0  0  0  0  0  0  0  0
    8.1894    1.1266   -2.2525 F   0  0  0  0  0  0  0  0  0  0  0  0
    7.9636   -0.6026   -0.9516 F   0  0  0  0  0  0  0  0  0  0  0  0
    7.6582    1.3996   -0.1541 F   0  0  0  0  0  0  0  0  0  0  0  0
   -2.5139    0.5889    0.3378 N   0  0  0  0  0  0  0  0  0  0  0  0
   -3.9145    0.4747   -0.0453 C   0  0  0  0  0  0  0  0  0  0  0  0
   -4.5414    1.8670   -0.1781 C   0  0  0  0  0  0  0  0  0  0  0  0
   -6.0266    1.7868   -0.5206 C   0  0  0  0  0  0  0  0  0  0  0  0
   -6.7897    0.9316    0.4863 C   0  0  0  0  0  0  0  0  0  0  0  0
   -6.1724   -0.4566    0.6264 C   0  0  0  0  0  0  0  0  0  0  0  0
   -4.6864   -0.3816    0.9678 C   0  0  0  0  0  0  0  0  0  0  0  0
    0.1158    0.8325    0.2798 H   0  0  0  0  0  0  0  0  0  0  0  0
   -0.3427   -0.0626    1.7410 H   0  0  0  0  0  0  0  0  0  0  0  0
    0.8681   -1.2949   -0.7961 H   0  0  0  0  0  0  0  0  0  0  0  0
    0.4049   -2.2003    0.6674 H   0  0  0  0  0  0  0  0  0  0  0  0
    4.3718   -1.1983    1.9394 H   0  0  0  0  0  0  0  0  0  0  0  0
    4.5892   -2.8488    1.3731 H   0  0  0  0  0  0  0  0  0  0  0  0
    6.3085   -1.4721    0.3787 H   0  0  0  0  0  0  0  0  0  0  0  0
    5.2162   -2.0387   -0.8949 H   0  0  0  0  0  0  0  0  0  0  0  0
    5.1313    0.7468    0.3804 H   0  0  0  0  0  0  0  0  0  0  0  0
    4.0151    0.1566   -0.8369 H   0  0  0  0  0  0  0  0  0  0  0  0
   -2.2673    1.2784    1.0370 H   0  0  0  0  0  0  0  0  0  0  0  0
   -3.9538   -0.0230   -1.0231 H   0  0  0  0  0  0  0  0  0  0  0  0
   -4.4150    2.4253    0.7589 H   0  0  0  0  0  0  0  0  0  0  0  0
   -4.0171    2.4402   -0.9525 H   0  0  0  0  0  0  0  0  0  0  0  0
   -6.1469    1.3631   -1.5253 H   0  0  0  0  0  0  0  0  0  0  0  0
   -6.4539    2.7955   -0.5461 H   0  0  0  0  0  0  0  0  0  0  0  0
   -7.8362    0.8402    0.1745 H   0  0  0  0  0  0  0  0  0  0  0  0
   -6.7894    1.4309    1.4631 H   0  0  0  0  0  0  0  0  0  0  0  0
   -6.3029   -1.0103   -0.3116 H   0  0  0  0  0  0  0  0  0  0  0  0
   -6.7013   -1.0180    1.4047 H   0  0  0  0  0  0  0  0  0  0  0  0
   -4.5653    0.0366    1.9758 H   0  0  0  0  0  0  0  0  0  0  0  0
   -4.2706   -1.3957    1.0028 H   0  0  0  0  0  0  0  0  0  0  0  0
  1  2  2  0
  2  3  1  0
  3  4  1  0
  4  5  1  0
  5  6  2  0
  5  7  1  0
  7  8  1  0
  8  9  1  0
  9 10  1  0
 10 11  1  0
 11 12  1  0
 11 13  1  0
 11 14  1  0
 14 15  1  0
 14 16  1  0
 14 17  1  0
  2 18  1  0
 18 19  1  0
 19 20  1  0
 20 21  1  0
 21 22  1  0
 22 23  1  0
 23 24  1  0
 24 19  1  0
  3 25  1  0
  3 26  1  0
  4 27  1  0
  4 28  1  0
  8 29  1  0
  8 30  1  0
  9 31  1  0
  9 32  1  0
 10 33  1  0
 10 34  1  0
 18 35  1  0
 19 36  1  0
 20 37  1  0
 20 38  1  0
 21 39  1  0
 21 40  1  0
 22 41  1  0
 22 42  1  0
 23 43  1  0
 23 44  1  0
 24 45  1  0
 24 46  1  0
M  END
$$$$
