
     RDKit          3D

 53 56  0  0  0  0  0  0  0  0999 V2000
   -2.8740    5.3867    2.2924 C   0  0  0  0  0  0  0  0  0  0  0  0
   -2.3202    4.1172    2.6121 O   0  0  0  0  0  0  0  0  0  0  0  0
   -1.9244    3.3328    1.5640 C   0  0  0  0  0  0  0  0  0  0  0  0
   -2.0068    3.6646    0.2122 C   0  0  0  0  0  0  0  0  0  0  0  0
   -1.5636    2.7639   -0.7636 C   0  0  0  0  0  0  0  0  0  0  0  0
   -1.0257    1.5167   -0.4055 C   0  0  0  0  0  0  0  0  0  0  0  0
   -0.5832    0.5542   -1.4986 C   0  0  0  0  0  0  0  0  0  0  0  0
   -1.7061   -0.4214   -1.8575 C   0  0  0  0  0  0  0  0  0  0  0  0
   -1.1933   -1.6652   -1.1828 C   0  0  0  0  0  0  0  0  0  0  0  0
   -2.0447   -2.8619   -0.9990 C   0  0  0  0  0  0  0  0  0  0  0  0
   -3.0604   -3.1021   -1.9401 C   0  0  0  0  0  0  0  0  0  0  0  0
   -3.8710   -4.2331   -1.8390 C   0  0  0  0  0  0  0  0  0  0  0  0
   -3.6748   -5.1352   -0.8013 C   0  0  0  0  0  0  0  0  0  0  0  0
   -2.6736   -4.9019    0.1417 C   0  0  0  0  0  0  0  0  0  0  0  0
   -1.8477   -3.7600    0.0674 C   0  0  0  0  0  0  0  0  0  0  0  0
   -0.8106   -3.5443    1.1473 C   0  0  0  0  0  0  0  0  0  0  0  0
   -1.0056   -4.3775    2.2196 F   0  0  0  0  0  0  0  0  0  0  0  0
    0.4643   -3.7977    0.7449 F   0  0  0  0  0  0  0  0  0  0  0  0
   -0.8356   -2.2933    1.6853 F   0  0  0  0  0  0  0  0  0  0  0  0
    0.0497   -1.6143   -0.8217 N   0  0  0  0  0  0  0  0  0  0  0  0
    0.4945   -0.3524   -1.0956 N   0  0  0  0  0  0  0  0  0  0  0  0
    1.8308   -0.0099   -0.9052 C   0  0  0  0  0  0  0  0  0  0  0  0
    2.7689   -0.9816   -0.5071 C   0  0  0  0  0  0  0  0  0  0  0  0
    4.1190   -0.6742   -0.3125 C   0  0  0  0  0  0  0  0  0  0  0  0
    4.5534    0.6349   -0.5035 C   0  0  0  0  0  0  0  0  0  0  0  0
    6.2597    1.0320   -0.2478 S   0  0  0  0  0  6  0  0  0  0  0  0
    6.3772    0.9756    1.4335 N   0  0  0  0  0  0  0  0  0  0  0  0
    6.4864    2.4000   -0.6524 O   0  0  0  0  0  0  0  0  0  0  0  0
    7.0593   -0.0667   -0.7401 O   0  0  0  0  0  0  0  0  0  0  0  0
    3.6573    1.6235   -0.9037 C   0  0  0  0  0  0  0  0  0  0  0  0
    2.3108    1.2954   -1.1038 C   0  0  0  0  0  0  0  0  0  0  0  0
   -0.9521    1.1937    0.9565 C   0  0  0  0  0  0  0  0  0  0  0  0
   -1.3942    2.0955    1.9274 C   0  0  0  0  0  0  0  0  0  0  0  0
   -2.1417    6.0172    1.7782 H   0  0  0  0  0  0  0  0  0  0  0  0
   -3.7893    5.2814    1.7009 H   0  0  0  0  0  0  0  0  0  0  0  0
   -3.1397    5.8833    3.2311 H   0  0  0  0  0  0  0  0  0  0  0  0
   -2.4085    4.6169   -0.1185 H   0  0  0  0  0  0  0  0  0  0  0  0
   -1.6411    3.0493   -1.8109 H   0  0  0  0  0  0  0  0  0  0  0  0
   -0.2923    1.1193   -2.3936 H   0  0  0  0  0  0  0  0  0  0  0  0
   -2.6992   -0.1330   -1.5070 H   0  0  0  0  0  0  0  0  0  0  0  0
   -1.7264   -0.5969   -2.9381 H   0  0  0  0  0  0  0  0  0  0  0  0
   -3.2232   -2.4302   -2.7788 H   0  0  0  0  0  0  0  0  0  0  0  0
   -4.6491   -4.4142   -2.5772 H   0  0  0  0  0  0  0  0  0  0  0  0
   -4.3000   -6.0223   -0.7241 H   0  0  0  0  0  0  0  0  0  0  0  0
   -2.5428   -5.6205    0.9516 H   0  0  0  0  0  0  0  0  0  0  0  0
    2.4414   -2.0082   -0.3486 H   0  0  0  0  0  0  0  0  0  0  0  0
    4.8116   -1.4600   -0.0219 H   0  0  0  0  0  0  0  0  0  0  0  0
    6.9977    0.2048    1.6904 H   0  0  0  0  0  0  0  0  0  0  0  0
    5.4702    0.9115    1.8955 H   0  0  0  0  0  0  0  0  0  0  0  0
    3.9890    2.6477   -1.0650 H   0  0  0  0  0  0  0  0  0  0  0  0
    1.6413    2.0932   -1.4121 H   0  0  0  0  0  0  0  0  0  0  0  0
   -0.5383    0.2390    1.2769 H   0  0  0  0  0  0  0  0  0  0  0  0
   -1.3230    1.8277    2.9788 H   0  0  0  0  0  0  0  0  0  0  0  0
  1  2  1  0
  2  3  1  0
  3  4  2  0
  4  5  1  0
  5  6  2  0
  6  7  1  0
  7  8  1  0
  8  9  1  0
  9 10  1  0
 10 11  2  0
 11 12  1  0
 12 13  2  0
 13 14  1  0
 14 15  2  0
 15 16  1  0
 16 17  1  0
 16 18  1  0
 16 19  1  0
  9 20  2  0
 20 21  1  0
 21 22  1  0
 22 23  2  0
 23 24  1  0
 24 25  2  0
 25 26  1  0
 26 27  1  0
 26 28  2  0
 26 29  2  0
 25 30  1  0
 30 31  2  0
  6 32  1  0
 32 33  2  0
 33  3  1  0
 21  7  1  0
 31 22  1  0
 15 10  1  0
  1 34  1  0
  1 35  1  0
  1 36  1  0
  4 37  1  0
  5 38  1  0
  7 39  1  0
  8 40  1  0
  8 41  1  0
 11 42  1  0
 12 43  1  0
 13 44  1  0
 14 45  1  0
 23 46  1  0
 24 47  1  0
 27 48  1  0
 27 49  1  0
 30 50  1  0
 31 51  1  0
 32 52  1  0
 33 53  1  0
M  END
$$$$
