
     RDKit          3D

 45 47  0  0  0  0  0  0  0  0999 V2000
    2.4328    2.5749    0.2571 O   0  0  0  0  0  0  0  0  0  0  0  0
    1.9717    1.5934    0.8359 C   0  0  0  0  0  0  0  0  0  0  0  0
    2.7815    0.5940    1.3424 N   0  0  0  0  0  0  0  0  0  0  0  0
    4.1444    0.6449    0.9790 N   0  0  0  0  0  0  0  0  0  0  0  0
    4.7632   -0.5560    0.6565 C   0  0  0  0  0  0  0  0  0  0  0  0
    4.1848   -1.6216    0.8873 O   0  0  0  0  0  0  0  0  0  0  0  0
    6.0770   -0.4341    0.0377 C   0  0  0  0  0  0  0  0  0  0  0  0
    6.8683    0.6818   -0.1797 C   0  0  0  0  0  0  0  0  0  0  0  0
    8.0984    0.3659   -0.8312 C   0  0  0  0  0  0  0  0  0  0  0  0
    8.2152   -0.9807   -1.0861 C   0  0  0  0  0  0  0  0  0  0  0  0
    6.8541   -1.8545   -0.5401 S   0  0  0  0  0  0  0  0  0  0  0  0
    0.4993    1.4131    0.9849 C   0  0  0  0  0  0  0  0  0  0  0  0
   -0.3449    2.1969    0.1830 C   0  0  0  0  0  0  0  0  0  0  0  0
   -1.7328    2.0717    0.2799 C   0  0  0  0  0  0  0  0  0  0  0  0
   -2.2806    1.1471    1.1730 C   0  0  0  0  0  0  0  0  0  0  0  0
   -4.0541    1.0100    1.3239 S   0  0  0  0  0  6  0  0  0  0  0  0
   -4.3326    0.4551    2.6318 O   0  0  0  0  0  0  0  0  0  0  0  0
   -4.6174    2.2781    0.9119 O   0  0  0  0  0  0  0  0  0  0  0  0
   -4.4471   -0.1553    0.1566 N   0  0  0  0  0  0  0  0  0  0  0  0
   -4.0911   -1.5682    0.4261 C   0  0  0  0  0  0  0  0  0  0  0  0
   -3.2137   -2.1360   -0.6817 C   0  0  0  0  0  0  0  0  0  0  0  0
   -3.9071   -2.0734   -2.0420 C   0  0  0  0  0  0  0  0  0  0  0  0
   -4.8629   -0.8871   -2.1591 C   0  0  0  0  0  0  0  0  0  0  0  0
   -4.4364    0.2686   -1.2618 C   0  0  0  0  0  0  0  0  0  0  0  0
   -1.4513    0.3868    2.0040 C   0  0  0  0  0  0  0  0  0  0  0  0
   -0.0619    0.5182    1.9082 C   0  0  0  0  0  0  0  0  0  0  0  0
    2.4273   -0.3462    1.5166 H   0  0  0  0  0  0  0  0  0  0  0  0
    4.4358    1.5185    0.5455 H   0  0  0  0  0  0  0  0  0  0  0  0
    6.5977    1.6898    0.1113 H   0  0  0  0  0  0  0  0  0  0  0  0
    8.8590    1.0898   -1.0973 H   0  0  0  0  0  0  0  0  0  0  0  0
    9.0372   -1.4974   -1.5641 H   0  0  0  0  0  0  0  0  0  0  0  0
    0.0779    2.9168   -0.5169 H   0  0  0  0  0  0  0  0  0  0  0  0
   -2.3741    2.7001   -0.3351 H   0  0  0  0  0  0  0  0  0  0  0  0
   -3.5730   -1.6769    1.3820 H   0  0  0  0  0  0  0  0  0  0  0  0
   -5.0207   -2.1432    0.5071 H   0  0  0  0  0  0  0  0  0  0  0  0
   -2.9387   -3.1728   -0.4564 H   0  0  0  0  0  0  0  0  0  0  0  0
   -2.2762   -1.5664   -0.7289 H   0  0  0  0  0  0  0  0  0  0  0  0
   -4.4697   -2.9989   -2.2192 H   0  0  0  0  0  0  0  0  0  0  0  0
   -3.1449   -2.0222   -2.8281 H   0  0  0  0  0  0  0  0  0  0  0  0
   -5.8725   -1.2120   -1.8757 H   0  0  0  0  0  0  0  0  0  0  0  0
   -4.9197   -0.5594   -3.2034 H   0  0  0  0  0  0  0  0  0  0  0  0
   -5.1421    1.0941   -1.3974 H   0  0  0  0  0  0  0  0  0  0  0  0
   -3.4400    0.6135   -1.5527 H   0  0  0  0  0  0  0  0  0  0  0  0
   -1.8774   -0.2961    2.7371 H   0  0  0  0  0  0  0  0  0  0  0  0
    0.5576   -0.0648    2.5846 H   0  0  0  0  0  0  0  0  0  0  0  0
  1  2  2  0
  2  3  1  0
  3  4  1  0
  4  5  1  0
  5  6  2  0
  5  7  1  0
  7  8  2  0
  8  9  1  0
  9 10  2  0
 10 11  1  0
  2 12  1  0
 12 13  2  0
 13 14  1  0
 14 15  2  0
 15 16  1  0
 16 17  2  0
 16 18  2  0
 16 19  1  0
 19 20  1  0
 20 21  1  0
 21 22  1  0
 22 23  1  0
 23 24  1  0
 15 25  1  0
 25 26  2  0
 11  7  1  0
 26 12  1  0
 24 19  1  0
  3 27  1  0
  4 28  1  0
  8 29  1  0
  9 30  1  0
 10 31  1  0
 13 32  1  0
 14 33  1  0
 20 34  1  0
 20 35  1  0
 21 36  1  0
 21 37  1  0
 22 38  1  0
 22 39  1  0
 23 40  1  0
 23 41  1  0
 24 42  1  0
 24 43  1  0
 25 44  1  0
 26 45  1  0
M  END
$$$$
