
     RDKit          3D

 46 49  0  0  0  0  0  0  0  0999 V2000
    6.0047    1.4157   -0.4519 C   0  0  0  0  0  0  0  0  0  0  0  0
    5.2911    0.1443   -0.1075 C   0  0  0  0  0  0  0  0  0  0  0  0
    3.8239    0.2598    0.1593 C   0  0  0  0  0  0  0  0  0  0  0  0
    3.2136    1.4020    0.1819 N   0  0  0  0  0  0  0  0  0  0  0  0
    1.8591    1.4208    0.3973 N   0  0  0  0  0  0  0  0  0  0  0  0
    0.9309    0.4570    0.0192 C   0  0  0  0  0  0  0  0  0  0  0  0
    1.1826   -0.6532   -0.4405 O   0  0  0  0  0  0  0  0  0  0  0  0
   -0.4536    0.9207    0.2164 C   0  0  0  0  0  0  0  0  0  0  0  0
   -1.6429    0.1943   -0.0472 C   0  0  0  0  0  0  0  0  0  0  0  0
   -2.6893    1.0352    0.2764 C   0  0  0  0  0  0  0  0  0  0  0  0
   -4.1375    0.8445    0.2284 C   0  0  0  0  0  0  0  0  0  0  0  0
   -5.0015    1.9126   -0.0383 C   0  0  0  0  0  0  0  0  0  0  0  0
   -6.3858    1.7171   -0.0791 C   0  0  0  0  0  0  0  0  0  0  0  0
   -6.9387    0.4481    0.1443 C   0  0  0  0  0  0  0  0  0  0  0  0
   -8.3265    0.2361    0.1075 C   0  0  0  0  0  0  0  0  0  0  0  0
   -8.8596   -1.0343    0.3307 C   0  0  0  0  0  0  0  0  0  0  0  0
   -8.0130   -2.1072    0.5926 C   0  0  0  0  0  0  0  0  0  0  0  0
   -6.6314   -1.9121    0.6316 C   0  0  0  0  0  0  0  0  0  0  0  0
   -6.0786   -0.6401    0.4091 C   0  0  0  0  0  0  0  0  0  0  0  0
   -4.6887   -0.4269    0.4449 C   0  0  0  0  0  0  0  0  0  0  0  0
   -2.0830    2.1815    0.7216 N   0  0  0  0  0  0  0  0  0  0  0  0
   -0.7386    2.1520    0.6867 N   0  0  0  0  0  0  0  0  0  0  0  0
    5.7844   -1.1055   -0.0456 C   0  0  0  0  0  0  0  0  0  0  0  0
    7.1507   -1.4603   -0.2221 C   0  0  0  0  0  0  0  0  0  0  0  0
    8.3296   -0.8088    0.1282 C   0  0  0  0  0  0  0  0  0  0  0  0
    9.4180   -1.6285   -0.2548 C   0  0  0  0  0  0  0  0  0  0  0  0
    8.8608   -2.7537   -0.8026 C   0  0  0  0  0  0  0  0  0  0  0  0
    7.5097   -2.6719   -0.7752 O   0  0  0  0  0  0  0  0  0  0  0  0
    5.4014    2.0338   -1.1260 H   0  0  0  0  0  0  0  0  0  0  0  0
    6.9475    1.2428   -0.9769 H   0  0  0  0  0  0  0  0  0  0  0  0
    6.2106    1.9940    0.4543 H   0  0  0  0  0  0  0  0  0  0  0  0
    3.3089   -0.6907    0.3772 H   0  0  0  0  0  0  0  0  0  0  0  0
    1.4602    2.3389    0.5944 H   0  0  0  0  0  0  0  0  0  0  0  0
   -1.7084   -0.8127   -0.4372 H   0  0  0  0  0  0  0  0  0  0  0  0
   -4.6173    2.9088   -0.2417 H   0  0  0  0  0  0  0  0  0  0  0  0
   -7.0312    2.5660   -0.2947 H   0  0  0  0  0  0  0  0  0  0  0  0
   -9.0045    1.0617   -0.0966 H   0  0  0  0  0  0  0  0  0  0  0  0
   -9.9355   -1.1851    0.2992 H   0  0  0  0  0  0  0  0  0  0  0  0
   -8.4264   -3.0973    0.7660 H   0  0  0  0  0  0  0  0  0  0  0  0
   -5.9866   -2.7639    0.8370 H   0  0  0  0  0  0  0  0  0  0  0  0
   -4.0308   -1.2678    0.6564 H   0  0  0  0  0  0  0  0  0  0  0  0
   -2.5344    3.0181    1.0754 H   0  0  0  0  0  0  0  0  0  0  0  0
    5.1224   -1.9492    0.1373 H   0  0  0  0  0  0  0  0  0  0  0  0
    8.3953    0.1517    0.6202 H   0  0  0  0  0  0  0  0  0  0  0  0
   10.4729   -1.4276   -0.1350 H   0  0  0  0  0  0  0  0  0  0  0  0
    9.2655   -3.6609   -1.2288 H   0  0  0  0  0  0  0  0  0  0  0  0
  1  2  1  0
  2  3  1  0
  3  4  2  3
  4  5  1  0
  5  6  1  0
  6  7  2  0
  6  8  1  0
  8  9  1  0
  9 10  2  0
 10 11  1  0
 11 12  2  0
 12 13  1  0
 13 14  2  0
 14 15  1  0
 15 16  2  0
 16 17  1  0
 17 18  2  0
 18 19  1  0
 19 20  2  0
 10 21  1  0
 21 22  1  0
  2 23  2  3
 23 24  1  0
 24 25  2  0
 25 26  1  0
 26 27  2  0
 27 28  1  0
 22  8  2  0
 28 24  1  0
 20 11  1  0
 19 14  1  0
  1 29  1  0
  1 30  1  0
  1 31  1  0
  3 32  1  0
  5 33  1  0
  9 34  1  0
 12 35  1  0
 13 36  1  0
 15 37  1  0
 16 38  1  0
 17 39  1  0
 18 40  1  0
 20 41  1  0
 21 42  1  0
 23 43  1  0
 25 44  1  0
 26 45  1  0
 27 46  1  0
M  END
$$$$
