
     RDKit          3D

 67 69  0  0  0  0  0  0  0  0999 V2000
   -1.1756    1.9598   -3.1295 C   0  0  0  0  0  0  0  0  0  0  0  0
   -2.5640    1.3228   -2.9532 C   0  0  0  0  0  0  0  0  0  0  0  0
   -3.5936    2.4398   -2.6904 C   0  0  0  0  0  0  0  0  0  0  0  0
   -2.9777    0.5895   -4.2450 C   0  0  0  0  0  0  0  0  0  0  0  0
   -2.5774    0.4282   -1.7884 N   0  0  0  0  0  0  0  0  0  0  0  0
   -1.8731   -0.7642   -1.7050 C   0  0  0  0  0  0  0  0  0  0  0  0
   -1.2065   -1.2214   -2.6360 O   0  0  0  0  0  0  0  0  0  0  0  0
   -1.9046   -1.4717   -0.3120 C   0  0  0  0  0  0  0  0  0  0  0  0
   -3.1367   -1.1817    0.5545 C   0  0  0  0  0  0  0  0  0  0  0  0
   -3.0584   -0.6551    1.8560 C   0  0  0  0  0  0  0  0  0  0  0  0
   -4.2166   -0.4227    2.6055 C   0  0  0  0  0  0  0  0  0  0  0  0
   -5.4618   -0.7232    2.0674 C   0  0  0  0  0  0  0  0  0  0  0  0
   -6.5681   -0.5034    2.7920 F   0  0  0  0  0  0  0  0  0  0  0  0
   -5.5713   -1.2570    0.7907 C   0  0  0  0  0  0  0  0  0  0  0  0
   -4.4156   -1.4918    0.0402 C   0  0  0  0  0  0  0  0  0  0  0  0
   -0.5898   -1.3531    0.3639 N   0  0  0  0  0  0  0  0  0  0  0  0
   -0.0717   -0.0653    0.5421 C   0  0  0  0  0  0  0  0  0  0  0  0
   -0.7436    0.9475    0.3362 O   0  0  0  0  0  0  0  0  0  0  0  0
    1.3614    0.0410    1.0255 C   0  0  0  0  0  0  0  0  0  0  0  0
    1.8970    1.4689    0.9896 C   0  0  0  0  0  0  0  0  0  0  0  0
    3.3520    1.4989    1.4222 C   0  0  0  0  0  0  0  0  0  0  0  0
    3.9348    0.4807    1.7829 O   0  0  0  0  0  0  0  0  0  0  0  0
    3.8940    2.7630    1.3577 N   0  0  0  0  0  0  0  0  0  0  0  0
    5.2031    3.1551    1.6469 C   0  0  0  0  0  0  0  0  0  0  0  0
    6.1988    2.2915    2.0894 C   0  0  0  0  0  0  0  0  0  0  0  0
    7.4740    2.8025    2.3332 C   0  0  0  0  0  0  0  0  0  0  0  0
    7.7207    4.1516    2.1250 C   0  0  0  0  0  0  0  0  0  0  0  0
    6.6698    4.9415    1.6857 C   0  0  0  0  0  0  0  0  0  0  0  0
    5.4218    4.4734    1.4468 N   0  0  0  0  0  0  0  0  0  0  0  0
    0.1892   -2.5804    0.6173 C   0  0  0  0  0  0  0  0  0  0  0  0
   -0.5862   -3.7774    1.2095 C   0  0  0  0  0  0  0  0  0  0  0  0
   -0.3078   -4.9500    0.2751 C   0  0  0  0  0  0  0  0  0  0  0  0
    1.0229   -4.6042   -0.3783 C   0  0  0  0  0  0  0  0  0  0  0  0
    0.8856   -3.1165   -0.6415 C   0  0  0  0  0  0  0  0  0  0  0  0
   -1.1695    2.6916   -3.9476 H   0  0  0  0  0  0  0  0  0  0  0  0
   -0.4079    1.2071   -3.3532 H   0  0  0  0  0  0  0  0  0  0  0  0
   -0.8610    2.4808   -2.2181 H   0  0  0  0  0  0  0  0  0  0  0  0
   -4.5973    2.0215   -2.5469 H   0  0  0  0  0  0  0  0  0  0  0  0
   -3.3460    3.0087   -1.7855 H   0  0  0  0  0  0  0  0  0  0  0  0
   -3.6392    3.1487   -3.5266 H   0  0  0  0  0  0  0  0  0  0  0  0
   -3.9183    0.0443   -4.1058 H   0  0  0  0  0  0  0  0  0  0  0  0
   -3.1174    1.2961   -5.0712 H   0  0  0  0  0  0  0  0  0  0  0  0
   -2.2224   -0.1332   -4.5709 H   0  0  0  0  0  0  0  0  0  0  0  0
   -2.6335    0.9017   -0.8859 H   0  0  0  0  0  0  0  0  0  0  0  0
   -2.0204   -2.5303   -0.5830 H   0  0  0  0  0  0  0  0  0  0  0  0
   -2.0986   -0.4164    2.3121 H   0  0  0  0  0  0  0  0  0  0  0  0
   -4.1496   -0.0207    3.6095 H   0  0  0  0  0  0  0  0  0  0  0  0
   -6.5523   -1.4907    0.3869 H   0  0  0  0  0  0  0  0  0  0  0  0
   -4.5209   -1.9207   -0.9574 H   0  0  0  0  0  0  0  0  0  0  0  0
    1.9940   -0.5813    0.3822 H   0  0  0  0  0  0  0  0  0  0  0  0
    1.4098   -0.3377    2.0538 H   0  0  0  0  0  0  0  0  0  0  0  0
    1.8266    1.8701   -0.0283 H   0  0  0  0  0  0  0  0  0  0  0  0
    1.3142    2.1129    1.6563 H   0  0  0  0  0  0  0  0  0  0  0  0
    3.3231    3.5368    1.0422 H   0  0  0  0  0  0  0  0  0  0  0  0
    6.0201    1.2362    2.2595 H   0  0  0  0  0  0  0  0  0  0  0  0
    8.2642    2.1418    2.6854 H   0  0  0  0  0  0  0  0  0  0  0  0
    8.7019    4.5761    2.3065 H   0  0  0  0  0  0  0  0  0  0  0  0
    6.8064    6.0032    1.5032 H   0  0  0  0  0  0  0  0  0  0  0  0
    0.9629   -2.3471    1.3575 H   0  0  0  0  0  0  0  0  0  0  0  0
   -0.1686   -4.0070    2.2006 H   0  0  0  0  0  0  0  0  0  0  0  0
   -1.6571   -3.6108    1.3555 H   0  0  0  0  0  0  0  0  0  0  0  0
   -0.2717   -5.9040    0.8107 H   0  0  0  0  0  0  0  0  0  0  0  0
   -1.0889   -5.0209   -0.4914 H   0  0  0  0  0  0  0  0  0  0  0  0
    1.8508   -4.7949    0.3166 H   0  0  0  0  0  0  0  0  0  0  0  0
    1.2072   -5.1787   -1.2907 H   0  0  0  0  0  0  0  0  0  0  0  0
    0.2786   -2.9594   -1.5377 H   0  0  0  0  0  0  0  0  0  0  0  0
    1.8556   -2.6401   -0.8139 H   0  0  0  0  0  0  0  0  0  0  0  0
  1  2  1  0
  2  3  1  0
  2  4  1  0
  2  5  1  0
  5  6  1  0
  6  7  2  0
  6  8  1  0
  8  9  1  0
  9 10  2  0
 10 11  1  0
 11 12  2  0
 12 13  1  0
 12 14  1  0
 14 15  2  0
  8 16  1  0
 16 17  1  0
 17 18  2  0
 17 19  1  0
 19 20  1  0
 20 21  1  0
 21 22  2  0
 21 23  1  0
 23 24  1  0
 24 25  2  0
 25 26  1  0
 26 27  2  0
 27 28  1  0
 28 29  2  0
 16 30  1  0
 30 31  1  0
 31 32  1  0
 32 33  1  0
 33 34  1  0
 15  9  1  0
 29 24  1  0
 34 30  1  0
  1 35  1  0
  1 36  1  0
  1 37  1  0
  3 38  1  0
  3 39  1  0
  3 40  1  0
  4 41  1  0
  4 42  1  0
  4 43  1  0
  5 44  1  0
  8 45  1  0
 10 46  1  0
 11 47  1  0
 14 48  1  0
 15 49  1  0
 19 50  1  0
 19 51  1  0
 20 52  1  0
 20 53  1  0
 23 54  1  0
 25 55  1  0
 26 56  1  0
 27 57  1  0
 28 58  1  0
 30 59  1  0
 31 60  1  0
 31 61  1  0
 32 62  1  0
 32 63  1  0
 33 64  1  0
 33 65  1  0
 34 66  1  0
 34 67  1  0
M  END
$$$$
