
     RDKit          3D

 45 47  0  0  0  0  0  0  0  0999 V2000
    4.2617    2.6800    4.0841 C   0  0  0  0  0  0  0  0  0  0  0  0
    3.7405    2.0147    2.8443 C   0  0  0  0  0  0  0  0  0  0  0  0
    3.6597    2.7234    1.6398 C   0  0  0  0  0  0  0  0  0  0  0  0
    3.1440    2.1165    0.4902 C   0  0  0  0  0  0  0  0  0  0  0  0
    2.6983    0.7917    0.5356 C   0  0  0  0  0  0  0  0  0  0  0  0
    2.1416    0.1129   -0.6714 C   0  0  0  0  0  0  0  0  0  0  0  0
    1.2949   -0.8622   -0.5199 N   0  0  0  0  0  0  0  0  0  0  0  0
    0.7832   -1.4675   -1.6464 N   0  0  0  0  0  0  0  0  0  0  0  0
   -0.4308   -2.2481   -1.4718 C   0  0  0  0  0  0  0  0  0  0  0  0
   -1.6747   -1.4056   -1.7685 C   0  0  0  0  0  0  0  0  0  0  0  0
   -1.6530   -0.2329   -2.1364 O   0  0  0  0  0  0  0  0  0  0  0  0
   -2.8566   -2.1025   -1.5873 N   0  0  0  0  0  0  0  0  0  0  0  0
   -4.1367   -1.4279   -1.6612 C   0  0  0  0  0  0  0  0  0  0  0  0
   -4.5618   -0.9181   -0.3038 C   0  0  0  0  0  0  0  0  0  0  0  0
   -4.2357    0.3765    0.0954 C   0  0  0  0  0  0  0  0  0  0  0  0
   -4.6070    0.8013    1.3675 C   0  0  0  0  0  0  0  0  0  0  0  0
   -5.2832   -0.0748    2.2073 C   0  0  0  0  0  0  0  0  0  0  0  0
   -5.5555   -1.3495    1.7405 C   0  0  0  0  0  0  0  0  0  0  0  0
   -5.2053   -1.7936    0.5130 N   0  0  0  0  0  0  0  0  0  0  0  0
    1.3422   -1.3640   -2.9146 C   0  0  0  0  0  0  0  0  0  0  0  0
    0.8961   -1.9311   -3.9117 O   0  0  0  0  0  0  0  0  0  0  0  0
    2.6190   -0.5724   -2.9766 C   0  0  0  0  0  0  0  0  0  0  0  0
    2.5429    0.6095   -2.0395 C   0  0  0  0  0  0  0  0  0  0  0  0
    2.7528    0.0895    1.7452 C   0  0  0  0  0  0  0  0  0  0  0  0
    3.2692    0.6981    2.8920 C   0  0  0  0  0  0  0  0  0  0  0  0
    3.4418    3.1687    4.6192 H   0  0  0  0  0  0  0  0  0  0  0  0
    4.7341    1.9499    4.7497 H   0  0  0  0  0  0  0  0  0  0  0  0
    5.0196    3.4302    3.8353 H   0  0  0  0  0  0  0  0  0  0  0  0
    3.9931    3.7582    1.5902 H   0  0  0  0  0  0  0  0  0  0  0  0
    3.0792    2.7047   -0.4206 H   0  0  0  0  0  0  0  0  0  0  0  0
   -0.4204   -3.1084   -2.1497 H   0  0  0  0  0  0  0  0  0  0  0  0
   -0.4780   -2.6102   -0.4389 H   0  0  0  0  0  0  0  0  0  0  0  0
   -2.8409   -2.9556   -1.0436 H   0  0  0  0  0  0  0  0  0  0  0  0
   -4.1031   -0.6127   -2.3923 H   0  0  0  0  0  0  0  0  0  0  0  0
   -4.8670   -2.1628   -2.0170 H   0  0  0  0  0  0  0  0  0  0  0  0
   -3.6885    1.0396   -0.5694 H   0  0  0  0  0  0  0  0  0  0  0  0
   -4.3631    1.8060    1.7004 H   0  0  0  0  0  0  0  0  0  0  0  0
   -5.5854    0.2265    3.2037 H   0  0  0  0  0  0  0  0  0  0  0  0
   -6.0775   -2.0715    2.3620 H   0  0  0  0  0  0  0  0  0  0  0  0
    3.4447   -1.2406   -2.7065 H   0  0  0  0  0  0  0  0  0  0  0  0
    2.7757   -0.2240   -4.0027 H   0  0  0  0  0  0  0  0  0  0  0  0
    3.5138    1.1123   -2.0154 H   0  0  0  0  0  0  0  0  0  0  0  0
    1.7835    1.3254   -2.3750 H   0  0  0  0  0  0  0  0  0  0  0  0
    2.3942   -0.9360    1.8038 H   0  0  0  0  0  0  0  0  0  0  0  0
    3.2986    0.1362    3.8232 H   0  0  0  0  0  0  0  0  0  0  0  0
  1  2  1  0
  2  3  2  0
  3  4  1  0
  4  5  2  0
  5  6  1  0
  6  7  2  0
  7  8  1  0
  8  9  1  0
  9 10  1  0
 10 11  2  0
 10 12  1  0
 12 13  1  0
 13 14  1  0
 14 15  2  0
 15 16  1  0
 16 17  2  0
 17 18  1  0
 18 19  2  0
  8 20  1  0
 20 21  2  0
 20 22  1  0
 22 23  1  0
  5 24  1  0
 24 25  2  0
 25  2  1  0
 23  6  1  0
 19 14  1  0
  1 26  1  0
  1 27  1  0
  1 28  1  0
  3 29  1  0
  4 30  1  0
  9 31  1  0
  9 32  1  0
 12 33  1  0
 13 34  1  0
 13 35  1  0
 15 36  1  0
 16 37  1  0
 17 38  1  0
 18 39  1  0
 22 40  1  0
 22 41  1  0
 23 42  1  0
 23 43  1  0
 24 44  1  0
 25 45  1  0
M  END
$$$$
