
     RDKit          3D

 48 51  0  0  0  0  0  0  0  0999 V2000
    5.8493    1.3312    0.1818 O   0  0  0  0  0  0  0  0  0  0  0  0
    5.8754    0.0911    0.9247 S   0  0  0  0  0  6  0  0  0  0  0  0
    7.0967   -0.3998    1.5278 O   0  0  0  0  0  0  0  0  0  0  0  0
    4.7302    0.1389    2.1617 N   0  0  0  0  0  0  0  0  0  0  0  0
    3.3542    0.3013    1.8481 C   0  0  0  0  0  0  0  0  0  0  0  0
    2.4655   -0.7253    2.1584 C   0  0  0  0  0  0  0  0  0  0  0  0
    1.1112   -0.6076    1.8211 C   0  0  0  0  0  0  0  0  0  0  0  0
    0.6134    0.5385    1.1732 C   0  0  0  0  0  0  0  0  0  0  0  0
   -0.8088    0.6796    0.8064 C   0  0  0  0  0  0  0  0  0  0  0  0
   -1.8559    0.0983    1.5042 C   0  0  0  0  0  0  0  0  0  0  0  0
   -3.1693    0.2972    1.0677 C   0  0  0  0  0  0  0  0  0  0  0  0
   -3.4310    1.0658   -0.0597 C   0  0  0  0  0  0  0  0  0  0  0  0
   -4.7350    1.2926   -0.4941 N   0  0  0  0  0  0  0  0  0  0  0  0
   -5.6816    0.1625   -0.5157 C   0  0  0  0  0  0  0  0  0  0  0  0
   -6.3258    0.0107   -1.9048 C   0  0  0  0  0  0  0  0  0  0  0  0
   -7.0111    1.1882   -2.3505 O   0  0  0  0  0  0  0  0  0  0  0  0
   -6.3630    2.4086   -1.9548 C   0  0  0  0  0  0  0  0  0  0  0  0
   -4.8739    2.2434   -1.6119 C   0  0  0  0  0  0  0  0  0  0  0  0
   -2.3873    1.6364   -0.6938 N   0  0  0  0  0  0  0  0  0  0  0  0
   -1.0795    1.4405   -0.2723 N   0  0  0  0  0  0  0  0  0  0  0  0
    1.5365    1.5589    0.8746 C   0  0  0  0  0  0  0  0  0  0  0  0
    2.8902    1.4460    1.2101 C   0  0  0  0  0  0  0  0  0  0  0  0
    5.2588   -1.1976   -0.1385 C   0  0  0  0  0  0  0  0  0  0  0  0
    5.6107   -2.5265    0.1151 C   0  0  0  0  0  0  0  0  0  0  0  0
    5.1311   -3.5344   -0.7231 C   0  0  0  0  0  0  0  0  0  0  0  0
    4.3119   -3.2152   -1.8128 C   0  0  0  0  0  0  0  0  0  0  0  0
    3.7479   -4.5175   -2.7978 Cl  0  0  0  0  0  0  0  0  0  0  0  0
    3.9792   -1.8784   -2.0709 C   0  0  0  0  0  0  0  0  0  0  0  0
    2.9758   -1.4162   -3.3986 Cl  0  0  0  0  0  0  0  0  0  0  0  0
    4.4606   -0.8655   -1.2380 C   0  0  0  0  0  0  0  0  0  0  0  0
    4.9818   -0.4542    2.9501 H   0  0  0  0  0  0  0  0  0  0  0  0
    2.8105   -1.6317    2.6485 H   0  0  0  0  0  0  0  0  0  0  0  0
    0.4519   -1.4410    2.0554 H   0  0  0  0  0  0  0  0  0  0  0  0
   -1.6814   -0.4871    2.4000 H   0  0  0  0  0  0  0  0  0  0  0  0
   -3.9838   -0.1319    1.6417 H   0  0  0  0  0  0  0  0  0  0  0  0
   -6.4619    0.3680    0.2264 H   0  0  0  0  0  0  0  0  0  0  0  0
   -5.2082   -0.7908   -0.2542 H   0  0  0  0  0  0  0  0  0  0  0  0
   -5.5665   -0.2429   -2.6540 H   0  0  0  0  0  0  0  0  0  0  0  0
   -7.0533   -0.8070   -1.8922 H   0  0  0  0  0  0  0  0  0  0  0  0
   -6.9094    2.8005   -1.0890 H   0  0  0  0  0  0  0  0  0  0  0  0
   -6.4860    3.1258   -2.7725 H   0  0  0  0  0  0  0  0  0  0  0  0
   -4.4640    3.2214   -1.3339 H   0  0  0  0  0  0  0  0  0  0  0  0
   -4.3380    1.8727   -2.4952 H   0  0  0  0  0  0  0  0  0  0  0  0
    1.2012    2.4674    0.3731 H   0  0  0  0  0  0  0  0  0  0  0  0
    3.5648    2.2650    0.9704 H   0  0  0  0  0  0  0  0  0  0  0  0
    6.2563   -2.7839    0.9530 H   0  0  0  0  0  0  0  0  0  0  0  0
    5.4029   -4.5697   -0.5263 H   0  0  0  0  0  0  0  0  0  0  0  0
    4.2067    0.1736   -1.4410 H   0  0  0  0  0  0  0  0  0  0  0  0
  1  2  2  0
  2  3  2  0
  2  4  1  0
  4  5  1  0
  5  6  2  0
  6  7  1  0
  7  8  2  0
  8  9  1  0
  9 10  2  0
 10 11  1  0
 11 12  2  0
 12 13  1  0
 13 14  1  0
 14 15  1  0
 15 16  1  0
 16 17  1  0
 17 18  1  0
 12 19  1  0
 19 20  2  0
  8 21  1  0
 21 22  2  0
  2 23  1  0
 23 24  2  0
 24 25  1  0
 25 26  2  0
 26 27  1  0
 26 28  1  0
 28 29  1  0
 28 30  2  0
 22  5  1  0
 30 23  1  0
 20  9  1  0
 18 13  1  0
  4 31  1  0
  6 32  1  0
  7 33  1  0
 10 34  1  0
 11 35  1  0
 14 36  1  0
 14 37  1  0
 15 38  1  0
 15 39  1  0
 17 40  1  0
 17 41  1  0
 18 42  1  0
 18 43  1  0
 21 44  1  0
 22 45  1  0
 24 46  1  0
 25 47  1  0
 30 48  1  0
M  END
$$$$
