
     RDKit          3D

 32 34  0  0  0  0  0  0  0  0999 V2000
    6.6404   -0.6913   -0.7856 C   0  0  0  0  0  0  0  0  0  0  0  0
    5.6491   -0.4176    0.1969 O   0  0  0  0  0  0  0  0  0  0  0  0
    4.3427   -0.4378   -0.2125 C   0  0  0  0  0  0  0  0  0  0  0  0
    3.8996   -0.6976   -1.5072 C   0  0  0  0  0  0  0  0  0  0  0  0
    2.5298   -0.6899   -1.8078 C   0  0  0  0  0  0  0  0  0  0  0  0
    1.5885   -0.4184   -0.7960 C   0  0  0  0  0  0  0  0  0  0  0  0
    0.2127   -0.3772   -0.9508 N   0  0  0  0  0  0  0  0  0  0  0  0
   -0.3514   -0.1047    0.2013 C   0  0  0  0  0  0  0  0  0  0  0  0
   -1.7142    0.0016    0.2964 N   0  0  0  0  0  0  0  0  0  0  0  0
   -2.4581    0.1961    1.4339 C   0  0  0  0  0  0  0  0  0  0  0  0
   -2.0330    0.2279    2.5819 O   0  0  0  0  0  0  0  0  0  0  0  0
   -3.8954    0.3125    1.1897 C   0  0  0  0  0  0  0  0  0  0  0  0
   -4.9286   -0.0187    2.1205 C   0  0  0  0  0  0  0  0  0  0  0  0
   -6.1242    0.2385    1.4988 C   0  0  0  0  0  0  0  0  0  0  0  0
   -5.9090    0.7303    0.2554 O   0  0  0  0  0  0  0  0  0  0  0  0
   -4.5590    0.7995    0.0711 C   0  0  0  0  0  0  0  0  0  0  0  0
   -4.1383    1.3886   -1.2203 C   0  0  0  0  0  0  0  0  0  0  0  0
    0.6990    0.1374    1.5149 S   0  0  0  0  0  0  0  0  0  0  0  0
    2.0510   -0.1605    0.4943 C   0  0  0  0  0  0  0  0  0  0  0  0
    3.4200   -0.1654    0.8053 C   0  0  0  0  0  0  0  0  0  0  0  0
    6.6245    0.0601   -1.5819 H   0  0  0  0  0  0  0  0  0  0  0  0
    7.6184   -0.6383   -0.2975 H   0  0  0  0  0  0  0  0  0  0  0  0
    6.5252   -1.7016   -1.1918 H   0  0  0  0  0  0  0  0  0  0  0  0
    4.5908   -0.9114   -2.3163 H   0  0  0  0  0  0  0  0  0  0  0  0
    2.1863   -0.8926   -2.8176 H   0  0  0  0  0  0  0  0  0  0  0  0
   -2.1800   -0.1729   -0.5798 H   0  0  0  0  0  0  0  0  0  0  0  0
   -4.7972   -0.4064    3.1221 H   0  0  0  0  0  0  0  0  0  0  0  0
   -7.1600    0.1396    1.7926 H   0  0  0  0  0  0  0  0  0  0  0  0
   -3.9029    0.5994   -1.9405 H   0  0  0  0  0  0  0  0  0  0  0  0
   -4.9321    2.0105   -1.6464 H   0  0  0  0  0  0  0  0  0  0  0  0
   -3.2552    2.0219   -1.0920 H   0  0  0  0  0  0  0  0  0  0  0  0
    3.7603    0.0383    1.8166 H   0  0  0  0  0  0  0  0  0  0  0  0
  1  2  1  0
  2  3  1  0
  3  4  2  0
  4  5  1  0
  5  6  2  0
  6  7  1  0
  7  8  2  0
  8  9  1  0
  9 10  1  0
 10 11  2  0
 10 12  1  0
 12 13  1  0
 13 14  2  0
 14 15  1  0
 15 16  1  0
 16 17  1  0
  8 18  1  0
 18 19  1  0
 19 20  2  0
 20  3  1  0
 19  6  1  0
 16 12  2  0
  1 21  1  0
  1 22  1  0
  1 23  1  0
  4 24  1  0
  5 25  1  0
  9 26  1  0
 13 27  1  0
 14 28  1  0
 17 29  1  0
 17 30  1  0
 17 31  1  0
 20 32  1  0
M  END
$$$$
