
     RDKit          3D

 45 46  0  0  0  0  0  0  0  0999 V2000
    6.6948    1.3085   -2.5101 C   0  0  0  0  0  0  0  0  0  0  0  0
    5.7296    1.2000   -1.4732 O   0  0  0  0  0  0  0  0  0  0  0  0
    4.4755    0.7689   -1.8217 C   0  0  0  0  0  0  0  0  0  0  0  0
    4.0311    0.5950   -3.1341 C   0  0  0  0  0  0  0  0  0  0  0  0
    2.7383    0.1297   -3.3842 C   0  0  0  0  0  0  0  0  0  0  0  0
    1.8756   -0.1639   -2.3264 C   0  0  0  0  0  0  0  0  0  0  0  0
    2.2837    0.0223   -0.9987 C   0  0  0  0  0  0  0  0  0  0  0  0
    1.3933   -0.3223    0.1244 C   0  0  0  0  0  0  0  0  0  0  0  0
    0.0704   -0.0951    0.1354 C   0  0  0  0  0  0  0  0  0  0  0  0
   -0.7276   -0.4356    1.3435 C   0  0  0  0  0  0  0  0  0  0  0  0
   -0.1842   -0.5646    2.4377 O   0  0  0  0  0  0  0  0  0  0  0  0
   -2.0916   -0.5738    1.1649 N   0  0  0  0  0  0  0  0  0  0  0  0
   -2.9369   -0.7814    2.3428 C   0  0  0  0  0  0  0  0  0  0  0  0
   -4.3509   -0.2260    2.1033 C   0  0  0  0  0  0  0  0  0  0  0  0
   -5.2451   -0.4482    3.3146 C   0  0  0  0  0  0  0  0  0  0  0  0
   -5.0116   -0.8049    0.9631 O   0  0  0  0  0  0  0  0  0  0  0  0
   -4.1250   -1.3830   -0.0073 C   0  0  0  0  0  0  0  0  0  0  0  0
   -4.8593   -1.4134   -1.3403 C   0  0  0  0  0  0  0  0  0  0  0  0
   -2.7917   -0.6230   -0.1237 C   0  0  0  0  0  0  0  0  0  0  0  0
    3.5893    0.4967   -0.7613 C   0  0  0  0  0  0  0  0  0  0  0  0
    4.0259    0.6281    0.5401 O   0  0  0  0  0  0  0  0  0  0  0  0
    3.8959    1.9839    0.9679 C   0  0  0  0  0  0  0  0  0  0  0  0
    6.8317    0.3536   -3.0286 H   0  0  0  0  0  0  0  0  0  0  0  0
    7.6508    1.5769   -2.0501 H   0  0  0  0  0  0  0  0  0  0  0  0
    6.4287    2.1058   -3.2115 H   0  0  0  0  0  0  0  0  0  0  0  0
    4.6686    0.8049   -3.9864 H   0  0  0  0  0  0  0  0  0  0  0  0
    2.4063   -0.0180   -4.4092 H   0  0  0  0  0  0  0  0  0  0  0  0
    0.8883   -0.5570   -2.5550 H   0  0  0  0  0  0  0  0  0  0  0  0
    1.8831   -0.7575    0.9952 H   0  0  0  0  0  0  0  0  0  0  0  0
   -0.4318    0.3841   -0.6924 H   0  0  0  0  0  0  0  0  0  0  0  0
   -2.4817   -0.3102    3.2209 H   0  0  0  0  0  0  0  0  0  0  0  0
   -2.9695   -1.8636    2.5186 H   0  0  0  0  0  0  0  0  0  0  0  0
   -4.2842    0.8521    1.9103 H   0  0  0  0  0  0  0  0  0  0  0  0
   -6.2425   -0.0318    3.1362 H   0  0  0  0  0  0  0  0  0  0  0  0
   -5.3807   -1.5181    3.5075 H   0  0  0  0  0  0  0  0  0  0  0  0
   -4.8267    0.0199    4.2107 H   0  0  0  0  0  0  0  0  0  0  0  0
   -3.9313   -2.4163    0.3071 H   0  0  0  0  0  0  0  0  0  0  0  0
   -4.2533   -1.8868   -2.1187 H   0  0  0  0  0  0  0  0  0  0  0  0
   -5.8007   -1.9655   -1.2463 H   0  0  0  0  0  0  0  0  0  0  0  0
   -5.1200   -0.4002   -1.6654 H   0  0  0  0  0  0  0  0  0  0  0  0
   -2.9693    0.4180   -0.4191 H   0  0  0  0  0  0  0  0  0  0  0  0
   -2.1522   -1.0969   -0.8752 H   0  0  0  0  0  0  0  0  0  0  0  0
    2.8664    2.3428    0.8587 H   0  0  0  0  0  0  0  0  0  0  0  0
    4.1555    2.0244    2.0301 H   0  0  0  0  0  0  0  0  0  0  0  0
    4.5847    2.6417    0.4280 H   0  0  0  0  0  0  0  0  0  0  0  0
  1  2  1  0
  2  3  1  0
  3  4  2  0
  4  5  1  0
  5  6  2  0
  6  7  1  0
  7  8  1  0
  8  9  2  3
  9 10  1  0
 10 11  2  0
 10 12  1  0
 12 13  1  0
 13 14  1  0
 14 15  1  0
 14 16  1  0
 16 17  1  0
 17 18  1  0
 17 19  1  0
  7 20  2  0
 20 21  1  0
 21 22  1  0
 20  3  1  0
 19 12  1  0
  1 23  1  0
  1 24  1  0
  1 25  1  0
  4 26  1  0
  5 27  1  0
  6 28  1  0
  8 29  1  0
  9 30  1  0
 13 31  1  0
 13 32  1  0
 14 33  1  0
 15 34  1  0
 15 35  1  0
 15 36  1  0
 17 37  1  0
 18 38  1  0
 18 39  1  0
 18 40  1  0
 19 41  1  0
 19 42  1  0
 22 43  1  0
 22 44  1  0
 22 45  1  0
M  END
$$$$
