
     RDKit          3D

 50 51  0  0  0  0  0  0  0  0999 V2000
    6.5742    0.1547   -1.2228 C   0  0  0  0  0  0  0  0  0  0  0  0
    5.5026    0.3692   -0.1945 C   0  0  0  0  0  0  0  0  0  0  0  0
    5.5607    1.4692    0.6693 C   0  0  0  0  0  0  0  0  0  0  0  0
    4.5802    1.6544    1.6468 C   0  0  0  0  0  0  0  0  0  0  0  0
    3.5305    0.7383    1.7753 C   0  0  0  0  0  0  0  0  0  0  0  0
    2.5047    0.9298    2.7998 C   0  0  0  0  0  0  0  0  0  0  0  0
    2.5915    0.3568    4.0068 C   0  0  0  0  0  0  0  0  0  0  0  0
    1.2307    0.7447    5.0023 S   0  0  0  0  0  0  0  0  0  0  0  0
    0.5010    1.7257    3.7117 C   0  0  0  0  0  0  0  0  0  0  0  0
   -0.9587    2.5053    3.8863 S   0  0  0  0  0  0  0  0  0  0  0  0
    1.3645    1.7064    2.6122 N   0  0  0  0  0  0  0  0  0  0  0  0
    1.0689    2.3608    1.3279 C   0  0  0  0  0  0  0  0  0  0  0  0
    0.4121    1.4717    0.2764 C   0  0  0  0  0  0  0  0  0  0  0  0
    0.2216    1.8342   -0.8805 O   0  0  0  0  0  0  0  0  0  0  0  0
    0.0571    0.2502    0.7633 O   0  0  0  0  0  0  0  0  0  0  0  0
   -0.6753   -0.5523   -0.1587 C   0  0  0  0  0  0  0  0  0  0  0  0
   -2.1120   -0.0698   -0.3843 C   0  0  0  0  0  0  0  0  0  0  0  0
   -2.6667    0.7356    0.3574 O   0  0  0  0  0  0  0  0  0  0  0  0
   -2.7229   -0.6421   -1.4835 N   0  0  0  0  0  0  0  0  0  0  0  0
   -4.1038   -0.3517   -1.8545 C   0  0  0  0  0  0  0  0  0  0  0  0
   -4.1745   -0.0697   -3.3559 C   0  0  0  0  0  0  0  0  0  0  0  0
   -5.0773   -1.4785   -1.4203 C   0  0  0  0  0  0  0  0  0  0  0  0
   -4.7510   -2.8436   -2.0337 C   0  0  0  0  0  0  0  0  0  0  0  0
   -5.1517   -1.6041    0.1053 C   0  0  0  0  0  0  0  0  0  0  0  0
    3.4843   -0.3753    0.9295 C   0  0  0  0  0  0  0  0  0  0  0  0
    4.4653   -0.5592   -0.0477 C   0  0  0  0  0  0  0  0  0  0  0  0
    6.1781   -0.3763   -2.0948 H   0  0  0  0  0  0  0  0  0  0  0  0
    7.3927   -0.4311   -0.7933 H   0  0  0  0  0  0  0  0  0  0  0  0
    6.9711    1.1114   -1.5782 H   0  0  0  0  0  0  0  0  0  0  0  0
    6.3712    2.1903    0.5859 H   0  0  0  0  0  0  0  0  0  0  0  0
    4.6415    2.5183    2.3054 H   0  0  0  0  0  0  0  0  0  0  0  0
    3.3965   -0.2810    4.3468 H   0  0  0  0  0  0  0  0  0  0  0  0
    0.3972    3.2075    1.4959 H   0  0  0  0  0  0  0  0  0  0  0  0
    1.9971    2.7622    0.9093 H   0  0  0  0  0  0  0  0  0  0  0  0
   -0.1387   -0.6286   -1.1120 H   0  0  0  0  0  0  0  0  0  0  0  0
   -0.7334   -1.5603    0.2661 H   0  0  0  0  0  0  0  0  0  0  0  0
   -2.2165   -1.3257   -2.0305 H   0  0  0  0  0  0  0  0  0  0  0  0
   -4.4108    0.5692   -1.3426 H   0  0  0  0  0  0  0  0  0  0  0  0
   -3.7904   -0.9063   -3.9485 H   0  0  0  0  0  0  0  0  0  0  0  0
   -3.5657    0.8062   -3.6075 H   0  0  0  0  0  0  0  0  0  0  0  0
   -5.2032    0.1346   -3.6695 H   0  0  0  0  0  0  0  0  0  0  0  0
   -6.0816   -1.1967   -1.7650 H   0  0  0  0  0  0  0  0  0  0  0  0
   -5.4823   -3.5933   -1.7116 H   0  0  0  0  0  0  0  0  0  0  0  0
   -3.7599   -3.1968   -1.7312 H   0  0  0  0  0  0  0  0  0  0  0  0
   -4.7842   -2.8096   -3.1266 H   0  0  0  0  0  0  0  0  0  0  0  0
   -5.3937   -0.6404    0.5652 H   0  0  0  0  0  0  0  0  0  0  0  0
   -5.9339   -2.3144    0.3947 H   0  0  0  0  0  0  0  0  0  0  0  0
   -4.2075   -1.9604    0.5297 H   0  0  0  0  0  0  0  0  0  0  0  0
    2.6850   -1.1068    1.0262 H   0  0  0  0  0  0  0  0  0  0  0  0
    4.4155   -1.4326   -0.6944 H   0  0  0  0  0  0  0  0  0  0  0  0
  1  2  1  0
  2  3  2  0
  3  4  1  0
  4  5  2  0
  5  6  1  0
  6  7  2  0
  7  8  1  0
  8  9  1  0
  9 10  2  0
  9 11  1  0
 11 12  1  0
 12 13  1  0
 13 14  2  0
 13 15  1  0
 15 16  1  0
 16 17  1  0
 17 18  2  0
 17 19  1  0
 19 20  1  0
 20 21  1  0
 20 22  1  0
 22 23  1  0
 22 24  1  0
  5 25  1  0
 25 26  2  0
 26  2  1  0
 11  6  1  0
  1 27  1  0
  1 28  1  0
  1 29  1  0
  3 30  1  0
  4 31  1  0
  7 32  1  0
 12 33  1  0
 12 34  1  0
 16 35  1  0
 16 36  1  0
 19 37  1  0
 20 38  1  0
 21 39  1  0
 21 40  1  0
 21 41  1  0
 22 42  1  0
 23 43  1  0
 23 44  1  0
 23 45  1  0
 24 46  1  0
 24 47  1  0
 24 48  1  0
 25 49  1  0
 26 50  1  0
M  END
$$$$
