
     RDKit          3D

 56 61  0  0  0  0  0  0  0  0999 V2000
    5.7280   -2.9774   -1.4358 C   0  0  0  0  0  0  0  0  0  0  0  0
    4.8026   -2.5112   -0.4609 O   0  0  0  0  0  0  0  0  0  0  0  0
    3.8026   -1.6900   -0.9037 C   0  0  0  0  0  0  0  0  0  0  0  0
    3.6188   -1.2505   -2.2128 C   0  0  0  0  0  0  0  0  0  0  0  0
    2.5473   -0.4113   -2.5249 C   0  0  0  0  0  0  0  0  0  0  0  0
    1.6557   -0.0061   -1.5313 C   0  0  0  0  0  0  0  0  0  0  0  0
    1.8211   -0.4338   -0.2032 C   0  0  0  0  0  0  0  0  0  0  0  0
    0.8636   -0.0151    0.9112 C   0  0  0  0  0  0  0  0  0  0  0  0
   -0.3723   -0.8046    0.6564 C   0  0  0  0  0  0  0  0  0  0  0  0
   -0.7036   -2.1685    0.7217 C   0  0  0  0  0  0  0  0  0  0  0  0
    0.1628   -3.3208    1.0703 C   0  0  0  0  0  0  0  0  0  0  0  0
   -1.9870   -2.3727    0.4096 N   0  0  0  0  0  0  0  0  0  0  0  0
   -2.5044   -1.1335    0.1376 N   0  0  0  0  0  0  0  0  0  0  0  0
   -3.8763   -1.0123   -0.2498 C   0  0  0  0  0  0  0  0  0  0  0  0
   -4.6657   -2.1753   -0.3350 C   0  0  0  0  0  0  0  0  0  0  0  0
   -6.0112   -2.1026   -0.7108 C   0  0  0  0  0  0  0  0  0  0  0  0
   -6.5772   -0.8582   -1.0059 C   0  0  0  0  0  0  0  0  0  0  0  0
   -7.9884   -0.7746   -1.4010 N   0  0  0  0  0  4  0  0  0  0  0  0
   -8.6359   -1.8303   -1.4561 O   0  0  0  0  0  0  0  0  0  0  0  0
   -8.4520    0.3461   -1.6568 O   0  0  0  0  0  1  0  0  0  0  0  0
   -5.8061    0.3070   -0.9273 C   0  0  0  0  0  0  0  0  0  0  0  0
   -4.4591    0.2272   -0.5504 C   0  0  0  0  0  0  0  0  0  0  0  0
   -1.5322   -0.1521    0.3083 C   0  0  0  0  0  0  0  0  0  0  0  0
   -1.6828    1.1889    0.1706 N   0  0  0  0  0  0  0  0  0  0  0  0
   -0.6336    1.9115    0.4772 C   0  0  0  0  0  0  0  0  0  0  0  0
   -0.8510    3.4372    0.3330 C   0  0  0  0  0  0  0  0  0  0  0  0
   -1.8830    3.9065   -0.1265 O   0  0  0  0  0  0  0  0  0  0  0  0
    0.1824    4.2304    0.7539 N   0  0  0  0  0  0  0  0  0  0  0  0
    1.3858    3.7368    1.2648 C   0  0  0  0  0  0  0  0  0  0  0  0
    2.3430    4.6707    1.6799 C   0  0  0  0  0  0  0  0  0  0  0  0
    3.5577    4.2372    2.1983 C   0  0  0  0  0  0  0  0  0  0  0  0
    3.8103    2.8753    2.3012 C   0  0  0  0  0  0  0  0  0  0  0  0
    2.8505    1.9445    1.8833 C   0  0  0  0  0  0  0  0  0  0  0  0
    1.6148    2.3461    1.3478 C   0  0  0  0  0  0  0  0  0  0  0  0
    0.6225    1.4451    0.9101 N   0  0  0  0  0  0  0  0  0  0  0  0
    2.9068   -1.2808    0.0892 C   0  0  0  0  0  0  0  0  0  0  0  0
    6.4503   -3.6240   -0.9282 H   0  0  0  0  0  0  0  0  0  0  0  0
    5.2257   -3.5765   -2.2025 H   0  0  0  0  0  0  0  0  0  0  0  0
    6.2823   -2.1455   -1.8827 H   0  0  0  0  0  0  0  0  0  0  0  0
    4.2877   -1.5421   -3.0156 H   0  0  0  0  0  0  0  0  0  0  0  0
    2.4040   -0.0734   -3.5487 H   0  0  0  0  0  0  0  0  0  0  0  0
    0.8249    0.6420   -1.8053 H   0  0  0  0  0  0  0  0  0  0  0  0
    1.2468   -0.3200    1.8937 H   0  0  0  0  0  0  0  0  0  0  0  0
   -0.4294   -4.1715    1.4236 H   0  0  0  0  0  0  0  0  0  0  0  0
    0.7349   -3.6441    0.1950 H   0  0  0  0  0  0  0  0  0  0  0  0
    0.8651   -3.0532    1.8660 H   0  0  0  0  0  0  0  0  0  0  0  0
   -4.2433   -3.1542   -0.1097 H   0  0  0  0  0  0  0  0  0  0  0  0
   -6.5940   -3.0196   -0.7667 H   0  0  0  0  0  0  0  0  0  0  0  0
   -6.2299    1.2837   -1.1543 H   0  0  0  0  0  0  0  0  0  0  0  0
   -3.8998    1.1577   -0.5058 H   0  0  0  0  0  0  0  0  0  0  0  0
    0.0254    5.2256    0.6745 H   0  0  0  0  0  0  0  0  0  0  0  0
    2.1511    5.7378    1.6045 H   0  0  0  0  0  0  0  0  0  0  0  0
    4.3041    4.9584    2.5217 H   0  0  0  0  0  0  0  0  0  0  0  0
    4.7585    2.5288    2.7066 H   0  0  0  0  0  0  0  0  0  0  0  0
    3.1141    0.8984    1.9964 H   0  0  0  0  0  0  0  0  0  0  0  0
    3.0667   -1.6370    1.1052 H   0  0  0  0  0  0  0  0  0  0  0  0
  1  2  1  0
  2  3  1  0
  3  4  2  0
  4  5  1  0
  5  6  2  0
  6  7  1  0
  7  8  1  0
  8  9  1  0
  9 10  1  0
 10 11  1  0
 10 12  2  0
 12 13  1  0
 13 14  1  0
 14 15  2  0
 15 16  1  0
 16 17  2  0
 17 18  1  0
 18 19  2  0
 18 20  1  0
 17 21  1  0
 21 22  2  0
 13 23  1  0
 23 24  1  0
 24 25  2  0
 25 26  1  0
 26 27  2  0
 26 28  1  0
 28 29  1  0
 29 30  2  0
 30 31  1  0
 31 32  2  0
 32 33  1  0
 33 34  2  0
 34 35  1  0
  7 36  2  0
 36  3  1  0
 35  8  1  0
 23  9  2  0
 35 25  1  0
 22 14  1  0
 34 29  1  0
  1 37  1  0
  1 38  1  0
  1 39  1  0
  4 40  1  0
  5 41  1  0
  6 42  1  0
  8 43  1  0
 11 44  1  0
 11 45  1  0
 11 46  1  0
 15 47  1  0
 16 48  1  0
 21 49  1  0
 22 50  1  0
 28 51  1  0
 30 52  1  0
 31 53  1  0
 32 54  1  0
 33 55  1  0
 36 56  1  0
M  CHG  2  18   1  20  -1
M  END
$$$$
