
     RDKit          3D

 29 31  0  0  0  0  0  0  0  0999 V2000
   -0.5927   -0.2692   -0.6005 O   0  0  0  0  0  0  0  0  0  0  0  0
   -0.4751    0.7365    0.0884 C   0  0  0  0  0  0  0  0  0  0  0  0
   -1.6082    1.6716    0.3579 C   0  0  0  0  0  0  0  0  0  0  0  0
   -2.9253    1.4727    0.2106 C   0  0  0  0  0  0  0  0  0  0  0  0
   -3.5149    0.2263   -0.1235 C   0  0  0  0  0  0  0  0  0  0  0  0
   -4.6333   -0.0198   -0.9119 C   0  0  0  0  0  0  0  0  0  0  0  0
   -4.8594   -1.4166   -0.9231 C   0  0  0  0  0  0  0  0  0  0  0  0
   -3.8853   -1.9581   -0.1252 C   0  0  0  0  0  0  0  0  0  0  0  0
   -3.0885   -0.9836    0.3743 O   0  0  0  0  0  0  0  0  0  0  0  0
   -0.9830    3.1772    0.9174 S   0  0  0  0  0  0  0  0  0  0  0  0
    0.6323    2.5165    1.1751 C   0  0  0  0  0  0  0  0  0  0  0  0
    1.7408    3.3903    2.0764 S   0  0  0  0  0  0  0  0  0  0  0  0
    0.7151    1.2453    0.6203 N   0  0  0  0  0  0  0  0  0  0  0  0
    1.9189    0.4676    0.5186 C   0  0  0  0  0  0  0  0  0  0  0  0
    1.8770   -0.9288    0.6860 C   0  0  0  0  0  0  0  0  0  0  0  0
    3.0336   -1.7104    0.5860 C   0  0  0  0  0  0  0  0  0  0  0  0
    4.2474   -1.0995    0.3065 C   0  0  0  0  0  0  0  0  0  0  0  0
    5.3991   -1.8180    0.1965 O   0  0  0  0  0  0  0  0  0  0  0  0
    4.3181    0.2730    0.1206 C   0  0  0  0  0  0  0  0  0  0  0  0
    3.1595    1.0514    0.2204 C   0  0  0  0  0  0  0  0  0  0  0  0
   -3.6162    2.2924    0.3900 H   0  0  0  0  0  0  0  0  0  0  0  0
   -5.2118    0.7321   -1.4313 H   0  0  0  0  0  0  0  0  0  0  0  0
   -5.6342   -1.9588   -1.4461 H   0  0  0  0  0  0  0  0  0  0  0  0
   -3.6354   -2.9655    0.1764 H   0  0  0  0  0  0  0  0  0  0  0  0
    0.9414   -1.4358    0.9160 H   0  0  0  0  0  0  0  0  0  0  0  0
    2.9600   -2.7841    0.7273 H   0  0  0  0  0  0  0  0  0  0  0  0
    5.1939   -2.7577    0.3323 H   0  0  0  0  0  0  0  0  0  0  0  0
    5.2706    0.7403   -0.1146 H   0  0  0  0  0  0  0  0  0  0  0  0
    3.2556    2.1129    0.0111 H   0  0  0  0  0  0  0  0  0  0  0  0
  1  2  2  0
  2  3  1  0
  3  4  2  3
  4  5  1  0
  5  6  2  0
  6  7  1  0
  7  8  2  0
  8  9  1  0
  3 10  1  0
 10 11  1  0
 11 12  2  0
 11 13  1  0
 13 14  1  0
 14 15  2  0
 15 16  1  0
 16 17  2  0
 17 18  1  0
 17 19  1  0
 19 20  2  0
 13  2  1  0
 20 14  1  0
  9  5  1  0
  4 21  1  0
  6 22  1  0
  7 23  1  0
  8 24  1  0
 15 25  1  0
 16 26  1  0
 18 27  1  0
 19 28  1  0
 20 29  1  0
M  END
$$$$
