
     RDKit          3D

 59 63  0  0  0  0  0  0  0  0999 V2000
    5.9994   -3.4458    3.8850 C   0  0  0  0  0  0  0  0  0  0  0  0
    5.0557   -2.3847    3.9514 O   0  0  0  0  0  0  0  0  0  0  0  0
    4.8370   -1.6790    2.8007 C   0  0  0  0  0  0  0  0  0  0  0  0
    5.4512   -1.9045    1.5697 C   0  0  0  0  0  0  0  0  0  0  0  0
    5.1315   -1.1035    0.4660 C   0  0  0  0  0  0  0  0  0  0  0  0
    4.1960   -0.0664    0.5782 C   0  0  0  0  0  0  0  0  0  0  0  0
    3.8476    0.7630   -0.5833 C   0  0  0  0  0  0  0  0  0  0  0  0
    5.0786    1.7101   -1.3040 S   0  0  0  0  0  0  0  0  0  0  0  0
    4.0142    2.3718   -2.4769 C   0  0  0  0  0  0  0  0  0  0  0  0
    4.3432    3.2974   -3.4879 C   0  0  0  0  0  0  0  0  0  0  0  0
    3.3468    3.7277   -4.3656 C   0  0  0  0  0  0  0  0  0  0  0  0
    2.0512    3.2484   -4.2468 C   0  0  0  0  0  0  0  0  0  0  0  0
    1.7300    2.3310   -3.2421 C   0  0  0  0  0  0  0  0  0  0  0  0
    2.7175    1.8776   -2.3274 C   0  0  0  0  0  0  0  0  0  0  0  0
    2.6290    0.9491   -1.2194 C   0  0  0  0  0  0  0  0  0  0  0  0
    1.4165    0.2615   -0.7847 C   0  0  0  0  0  0  0  0  0  0  0  0
    1.2938   -1.1234   -0.9192 C   0  0  0  0  0  0  0  0  0  0  0  0
    0.1233   -1.7636   -0.5044 C   0  0  0  0  0  0  0  0  0  0  0  0
   -0.9358   -1.0351    0.0443 C   0  0  0  0  0  0  0  0  0  0  0  0
   -2.0199   -1.7907    0.3941 O   0  0  0  0  0  0  0  0  0  0  0  0
   -3.1306   -1.1477    1.0271 C   0  0  0  0  0  0  0  0  0  0  0  0
   -4.1130   -0.5974   -0.0222 C   0  0  0  0  0  0  0  0  0  0  0  0
   -5.2270    0.1645    0.5649 N   0  0  0  0  0  0  0  0  0  0  0  0
   -5.8732    1.0094   -0.4647 C   0  0  0  0  0  0  0  0  0  0  0  0
   -7.2946    1.4202   -0.0543 C   0  0  0  0  0  0  0  0  0  0  0  0
   -8.1815    0.2991    0.0614 O   0  0  0  0  0  0  0  0  0  0  0  0
   -7.5062   -0.9172    0.4078 C   0  0  0  0  0  0  0  0  0  0  0  0
   -6.2314   -0.6890    1.2377 C   0  0  0  0  0  0  0  0  0  0  0  0
   -0.8140    0.3485    0.1738 C   0  0  0  0  0  0  0  0  0  0  0  0
    0.3568    0.9943   -0.2395 C   0  0  0  0  0  0  0  0  0  0  0  0
    3.5841    0.1538    1.8168 C   0  0  0  0  0  0  0  0  0  0  0  0
    3.9036   -0.6475    2.9167 C   0  0  0  0  0  0  0  0  0  0  0  0
    6.0601   -3.9022    4.8776 H   0  0  0  0  0  0  0  0  0  0  0  0
    6.9962   -3.0719    3.6295 H   0  0  0  0  0  0  0  0  0  0  0  0
    5.6743   -4.2201    3.1827 H   0  0  0  0  0  0  0  0  0  0  0  0
    6.1810   -2.6941    1.4302 H   0  0  0  0  0  0  0  0  0  0  0  0
    5.6165   -1.3021   -0.4872 H   0  0  0  0  0  0  0  0  0  0  0  0
    5.3586    3.6717   -3.5847 H   0  0  0  0  0  0  0  0  0  0  0  0
    3.5915    4.4415   -5.1485 H   0  0  0  0  0  0  0  0  0  0  0  0
    1.2811    3.5841   -4.9367 H   0  0  0  0  0  0  0  0  0  0  0  0
    0.7104    1.9597   -3.1663 H   0  0  0  0  0  0  0  0  0  0  0  0
    2.1023   -1.7132   -1.3439 H   0  0  0  0  0  0  0  0  0  0  0  0
    0.0379   -2.8425   -0.6093 H   0  0  0  0  0  0  0  0  0  0  0  0
   -3.6240   -1.9248    1.6209 H   0  0  0  0  0  0  0  0  0  0  0  0
   -2.8096   -0.3860    1.7471 H   0  0  0  0  0  0  0  0  0  0  0  0
   -4.4810   -1.4180   -0.6521 H   0  0  0  0  0  0  0  0  0  0  0  0
   -3.5486    0.0561   -0.6993 H   0  0  0  0  0  0  0  0  0  0  0  0
   -5.9348    0.4688   -1.4185 H   0  0  0  0  0  0  0  0  0  0  0  0
   -5.2635    1.9053   -0.6229 H   0  0  0  0  0  0  0  0  0  0  0  0
   -7.2882    1.9532    0.9039 H   0  0  0  0  0  0  0  0  0  0  0  0
   -7.7213    2.0987   -0.7997 H   0  0  0  0  0  0  0  0  0  0  0  0
   -8.2137   -1.5343    0.9714 H   0  0  0  0  0  0  0  0  0  0  0  0
   -7.2735   -1.4551   -0.5185 H   0  0  0  0  0  0  0  0  0  0  0  0
   -5.8176   -1.6554    1.5433 H   0  0  0  0  0  0  0  0  0  0  0  0
   -6.5139   -0.1709    2.1625 H   0  0  0  0  0  0  0  0  0  0  0  0
   -1.6084    0.9618    0.5852 H   0  0  0  0  0  0  0  0  0  0  0  0
    0.4361    2.0738   -0.1292 H   0  0  0  0  0  0  0  0  0  0  0  0
    2.8540    0.9500    1.9372 H   0  0  0  0  0  0  0  0  0  0  0  0
    3.4182   -0.4660    3.8721 H   0  0  0  0  0  0  0  0  0  0  0  0
  1  2  1  0
  2  3  1  0
  3  4  2  0
  4  5  1  0
  5  6  2  0
  6  7  1  0
  7  8  1  0
  8  9  1  0
  9 10  2  0
 10 11  1  0
 11 12  2  0
 12 13  1  0
 13 14  2  0
 14 15  1  0
 15 16  1  0
 16 17  2  0
 17 18  1  0
 18 19  2  0
 19 20  1  0
 20 21  1  0
 21 22  1  0
 22 23  1  0
 23 24  1  0
 24 25  1  0
 25 26  1  0
 26 27  1  0
 27 28  1  0
 19 29  1  0
 29 30  2  0
  6 31  1  0
 31 32  2  0
 32  3  1  0
 15  7  2  0
 30 16  1  0
 14  9  1  0
 28 23  1  0
  1 33  1  0
  1 34  1  0
  1 35  1  0
  4 36  1  0
  5 37  1  0
 10 38  1  0
 11 39  1  0
 12 40  1  0
 13 41  1  0
 17 42  1  0
 18 43  1  0
 21 44  1  0
 21 45  1  0
 22 46  1  0
 22 47  1  0
 24 48  1  0
 24 49  1  0
 25 50  1  0
 25 51  1  0
 27 52  1  0
 27 53  1  0
 28 54  1  0
 28 55  1  0
 29 56  1  0
 30 57  1  0
 31 58  1  0
 32 59  1  0
M  END
$$$$
