
     RDKit          3D

 45 46  0  0  0  0  0  0  0  0999 V2000
    5.4545   -1.1986   -2.9515 C   0  0  0  0  0  0  0  0  0  0  0  0
    4.1179   -0.9711   -2.5243 O   0  0  0  0  0  0  0  0  0  0  0  0
    3.9266   -0.5649   -1.2291 C   0  0  0  0  0  0  0  0  0  0  0  0
    4.9597   -0.1760   -0.3696 C   0  0  0  0  0  0  0  0  0  0  0  0
    4.6861    0.1858    0.9511 C   0  0  0  0  0  0  0  0  0  0  0  0
    3.3775    0.1604    1.4300 C   0  0  0  0  0  0  0  0  0  0  0  0
    2.3214   -0.2059    0.5866 C   0  0  0  0  0  0  0  0  0  0  0  0
    0.9472   -0.2663    1.1053 C   0  0  0  0  0  0  0  0  0  0  0  0
    0.3739    0.7327    1.7921 C   0  0  0  0  0  0  0  0  0  0  0  0
   -1.0080    0.5716    2.2880 C   0  0  0  0  0  0  0  0  0  0  0  0
   -1.1845    0.4143    3.4935 O   0  0  0  0  0  0  0  0  0  0  0  0
   -2.0323    0.6380    1.3657 N   0  0  0  0  0  0  0  0  0  0  0  0
   -3.4012    0.4374    1.8417 C   0  0  0  0  0  0  0  0  0  0  0  0
   -4.4424    0.9300    0.8249 C   0  0  0  0  0  0  0  0  0  0  0  0
   -5.8575    0.6487    1.3103 C   0  0  0  0  0  0  0  0  0  0  0  0
   -4.2874    0.2913   -0.4517 O   0  0  0  0  0  0  0  0  0  0  0  0
   -2.9297    0.2046   -0.9187 C   0  0  0  0  0  0  0  0  0  0  0  0
   -2.5735   -1.2745   -1.0441 C   0  0  0  0  0  0  0  0  0  0  0  0
   -1.9038    0.9675   -0.0577 C   0  0  0  0  0  0  0  0  0  0  0  0
    2.6002   -0.5522   -0.7515 C   0  0  0  0  0  0  0  0  0  0  0  0
    1.5278   -0.9296   -1.5325 O   0  0  0  0  0  0  0  0  0  0  0  0
    1.4031   -0.1464   -2.7183 C   0  0  0  0  0  0  0  0  0  0  0  0
    5.4152   -1.6110   -3.9644 H   0  0  0  0  0  0  0  0  0  0  0  0
    6.0158   -0.2598   -2.9974 H   0  0  0  0  0  0  0  0  0  0  0  0
    5.9582   -1.9321   -2.3132 H   0  0  0  0  0  0  0  0  0  0  0  0
    5.9948   -0.1509   -0.6940 H   0  0  0  0  0  0  0  0  0  0  0  0
    5.4987    0.4734    1.6143 H   0  0  0  0  0  0  0  0  0  0  0  0
    3.1918    0.4144    2.4717 H   0  0  0  0  0  0  0  0  0  0  0  0
    0.3920   -1.1715    0.8668 H   0  0  0  0  0  0  0  0  0  0  0  0
    0.8813    1.6455    2.0734 H   0  0  0  0  0  0  0  0  0  0  0  0
   -3.5315    0.9449    2.8044 H   0  0  0  0  0  0  0  0  0  0  0  0
   -3.5126   -0.6405    2.0116 H   0  0  0  0  0  0  0  0  0  0  0  0
   -4.3361    2.0112    0.6715 H   0  0  0  0  0  0  0  0  0  0  0  0
   -6.0255   -0.4281    1.4237 H   0  0  0  0  0  0  0  0  0  0  0  0
   -6.0545    1.1380    2.2689 H   0  0  0  0  0  0  0  0  0  0  0  0
   -6.5906    1.0055    0.5787 H   0  0  0  0  0  0  0  0  0  0  0  0
   -2.9197    0.6360   -1.9264 H   0  0  0  0  0  0  0  0  0  0  0  0
   -1.5680   -1.4081   -1.4542 H   0  0  0  0  0  0  0  0  0  0  0  0
   -3.2874   -1.7821   -1.7020 H   0  0  0  0  0  0  0  0  0  0  0  0
   -2.6267   -1.7830   -0.0760 H   0  0  0  0  0  0  0  0  0  0  0  0
   -2.0957    2.0452   -0.1319 H   0  0  0  0  0  0  0  0  0  0  0  0
   -0.8926    0.8031   -0.4333 H   0  0  0  0  0  0  0  0  0  0  0  0
    0.3354   -0.0454   -2.9372 H   0  0  0  0  0  0  0  0  0  0  0  0
    1.8168    0.8630   -2.6102 H   0  0  0  0  0  0  0  0  0  0  0  0
    1.8652   -0.6648   -3.5634 H   0  0  0  0  0  0  0  0  0  0  0  0
  1  2  1  0
  2  3  1  0
  3  4  2  0
  4  5  1  0
  5  6  2  0
  6  7  1  0
  7  8  1  0
  8  9  2  3
  9 10  1  0
 10 11  2  0
 10 12  1  0
 12 13  1  0
 13 14  1  0
 14 15  1  0
 14 16  1  0
 16 17  1  0
 17 18  1  0
 17 19  1  0
  7 20  2  0
 20 21  1  0
 21 22  1  0
 20  3  1  0
 19 12  1  0
  1 23  1  0
  1 24  1  0
  1 25  1  0
  4 26  1  0
  5 27  1  0
  6 28  1  0
  8 29  1  0
  9 30  1  0
 13 31  1  0
 13 32  1  0
 14 33  1  0
 15 34  1  0
 15 35  1  0
 15 36  1  0
 17 37  1  0
 18 38  1  0
 18 39  1  0
 18 40  1  0
 19 41  1  0
 19 42  1  0
 22 43  1  0
 22 44  1  0
 22 45  1  0
M  END
$$$$
