
     RDKit          3D

 40 42  0  0  0  0  0  0  0  0999 V2000
   -6.4015    0.0783    1.3616 C   0  0  0  0  0  0  0  0  0  0  0  0
   -4.9448   -0.1739    0.9787 C   0  0  0  0  0  0  0  0  0  0  0  0
   -4.0449    0.9860    1.4500 C   0  0  0  0  0  0  0  0  0  0  0  0
   -2.5578    0.7115    1.1710 C   0  0  0  0  0  0  0  0  0  0  0  0
   -2.3290    0.1388   -0.2017 C   0  0  0  0  0  0  0  0  0  0  0  0
   -1.0543   -0.0160   -0.8699 C   0  0  0  0  0  0  0  0  0  0  0  0
    0.2564    0.3842   -0.3240 C   0  0  0  0  0  0  0  0  0  0  0  0
    0.3454    1.2896    0.4966 O   0  0  0  0  0  0  0  0  0  0  0  0
    1.3136   -0.3779   -0.7937 N   0  0  0  0  0  0  0  0  0  0  0  0
    2.6837   -0.2252   -0.4991 C   0  0  0  0  0  0  0  0  0  0  0  0
    3.2113    0.8147    0.2633 C   0  0  0  0  0  0  0  0  0  0  0  0
    4.5892    0.8895    0.5005 C   0  0  0  0  0  0  0  0  0  0  0  0
    5.4631   -0.0680   -0.0191 C   0  0  0  0  0  0  0  0  0  0  0  0
    6.7757    0.1333    0.2945 O   0  0  0  0  0  0  0  0  0  0  0  0
    7.7225   -0.8013   -0.1923 C   0  0  0  0  0  0  0  0  0  0  0  0
    7.7300   -0.8296   -1.5425 F   0  0  0  0  0  0  0  0  0  0  0  0
    7.4732   -2.0409    0.2819 F   0  0  0  0  0  0  0  0  0  0  0  0
    8.9532   -0.4316    0.2262 F   0  0  0  0  0  0  0  0  0  0  0  0
    4.9403   -1.1069   -0.7858 C   0  0  0  0  0  0  0  0  0  0  0  0
    3.5610   -1.1820   -1.0238 C   0  0  0  0  0  0  0  0  0  0  0  0
   -1.2418   -0.5674   -2.1293 C   0  0  0  0  0  0  0  0  0  0  0  0
   -2.8719   -0.9541   -2.4657 S   0  0  0  0  0  0  0  0  0  0  0  0
   -3.3733   -0.3646   -0.9559 C   0  0  0  0  0  0  0  0  0  0  0  0
   -4.8148   -0.3787   -0.5456 C   0  0  0  0  0  0  0  0  0  0  0  0
   -6.7829    0.9942    0.8976 H   0  0  0  0  0  0  0  0  0  0  0  0
   -7.0363   -0.7545    1.0415 H   0  0  0  0  0  0  0  0  0  0  0  0
   -6.5049    0.1810    2.4469 H   0  0  0  0  0  0  0  0  0  0  0  0
   -4.6142   -1.0910    1.4859 H   0  0  0  0  0  0  0  0  0  0  0  0
   -4.1799    1.1647    2.5235 H   0  0  0  0  0  0  0  0  0  0  0  0
   -4.3445    1.9092    0.9357 H   0  0  0  0  0  0  0  0  0  0  0  0
   -2.0056    1.6486    1.2955 H   0  0  0  0  0  0  0  0  0  0  0  0
   -2.1752   -0.0009    1.9122 H   0  0  0  0  0  0  0  0  0  0  0  0
    1.0726   -1.1807   -1.3572 H   0  0  0  0  0  0  0  0  0  0  0  0
    2.5841    1.5921    0.6885 H   0  0  0  0  0  0  0  0  0  0  0  0
    4.9773    1.7107    1.0999 H   0  0  0  0  0  0  0  0  0  0  0  0
    5.5674   -1.8813   -1.2183 H   0  0  0  0  0  0  0  0  0  0  0  0
    3.1875   -2.0069   -1.6263 H   0  0  0  0  0  0  0  0  0  0  0  0
   -0.5016   -0.7594   -2.8936 H   0  0  0  0  0  0  0  0  0  0  0  0
   -5.3388    0.4244   -1.0798 H   0  0  0  0  0  0  0  0  0  0  0  0
   -5.2894   -1.3263   -0.8278 H   0  0  0  0  0  0  0  0  0  0  0  0
  1  2  1  0
  2  3  1  0
  3  4  1  0
  4  5  1  0
  5  6  1  0
  6  7  1  0
  7  8  2  0
  7  9  1  0
  9 10  1  0
 10 11  2  0
 11 12  1  0
 12 13  2  0
 13 14  1  0
 14 15  1  0
 15 16  1  0
 15 17  1  0
 15 18  1  0
 13 19  1  0
 19 20  2  0
  6 21  2  0
 21 22  1  0
 22 23  1  0
 23 24  1  0
 24  2  1  0
 23  5  2  0
 20 10  1  0
  1 25  1  0
  1 26  1  0
  1 27  1  0
  2 28  1  0
  3 29  1  0
  3 30  1  0
  4 31  1  0
  4 32  1  0
  9 33  1  0
 11 34  1  0
 12 35  1  0
 19 36  1  0
 20 37  1  0
 21 38  1  0
 24 39  1  0
 24 40  1  0
M  END
$$$$
