
     RDKit          3D

 45 47  0  0  0  0  0  0  0  0999 V2000
   -5.7837    1.1743    0.6761 C   0  0  0  0  0  0  0  0  0  0  0  0
   -4.3729    0.7975    0.6187 N   0  0  0  0  0  0  0  0  0  0  0  0
   -3.8774    0.6478   -0.7618 C   0  0  0  0  0  0  0  0  0  0  0  0
   -4.3669   -0.7386   -1.1952 C   0  0  0  0  0  0  0  0  0  0  0  0
   -4.5229   -1.5195    0.1125 C   0  0  0  0  0  0  0  0  0  0  0  0
   -4.1104   -0.5283    1.2064 C   0  0  0  0  0  0  0  0  0  0  0  0
   -2.5990   -0.5768    1.4928 C   0  0  0  0  0  0  0  0  0  0  0  0
   -1.7578   -0.3841    0.2213 C   0  0  0  0  0  0  0  0  0  0  0  0
   -0.4119   -0.0565    0.6187 O   0  0  0  0  0  0  0  0  0  0  0  0
    0.5629   -0.2911   -0.3051 C   0  0  0  0  0  0  0  0  0  0  0  0
    0.3803   -0.7749   -1.4133 O   0  0  0  0  0  0  0  0  0  0  0  0
    1.8987    0.1159    0.2630 C   0  0  0  0  0  0  0  0  0  0  0  0
    2.9894    0.0296   -0.8042 C   0  0  0  0  0  0  0  0  0  0  0  0
    4.2878    0.5061   -0.3101 N   0  0  0  0  0  0  0  0  0  0  0  0
    5.2830    0.5758   -1.3840 C   0  0  0  0  0  0  0  0  0  0  0  0
    6.5896    0.7384   -0.6252 C   0  0  0  0  0  0  0  0  0  0  0  0
    6.3493    0.0659    0.7212 C   0  0  0  0  0  0  0  0  0  0  0  0
    4.8903   -0.3696    0.6981 C   0  0  0  0  0  0  0  0  0  0  0  0
   -2.3422    0.7183   -0.6773 C   0  0  0  0  0  0  0  0  0  0  0  0
   -6.1059    1.2622    1.7195 H   0  0  0  0  0  0  0  0  0  0  0  0
   -6.4527    0.4680    0.1738 H   0  0  0  0  0  0  0  0  0  0  0  0
   -5.9272    2.1597    0.2194 H   0  0  0  0  0  0  0  0  0  0  0  0
   -4.2346    1.4390   -1.4305 H   0  0  0  0  0  0  0  0  0  0  0  0
   -3.6781   -1.2341   -1.8871 H   0  0  0  0  0  0  0  0  0  0  0  0
   -5.3402   -0.6662   -1.6950 H   0  0  0  0  0  0  0  0  0  0  0  0
   -5.5708   -1.8177    0.2363 H   0  0  0  0  0  0  0  0  0  0  0  0
   -3.9188   -2.4326    0.1178 H   0  0  0  0  0  0  0  0  0  0  0  0
   -4.6564   -0.6956    2.1416 H   0  0  0  0  0  0  0  0  0  0  0  0
   -2.3360    0.1926    2.2318 H   0  0  0  0  0  0  0  0  0  0  0  0
   -2.3318   -1.5340    1.9581 H   0  0  0  0  0  0  0  0  0  0  0  0
   -1.7450   -1.3387   -0.3210 H   0  0  0  0  0  0  0  0  0  0  0  0
    1.8189    1.1461    0.6289 H   0  0  0  0  0  0  0  0  0  0  0  0
    2.1210   -0.5497    1.1038 H   0  0  0  0  0  0  0  0  0  0  0  0
    3.0671   -0.9975   -1.1852 H   0  0  0  0  0  0  0  0  0  0  0  0
    2.6866    0.6553   -1.6545 H   0  0  0  0  0  0  0  0  0  0  0  0
    5.3072   -0.3491   -1.9745 H   0  0  0  0  0  0  0  0  0  0  0  0
    5.1033    1.4181   -2.0595 H   0  0  0  0  0  0  0  0  0  0  0  0
    7.4297    0.2874   -1.1627 H   0  0  0  0  0  0  0  0  0  0  0  0
    6.8188    1.7998   -0.4728 H   0  0  0  0  0  0  0  0  0  0  0  0
    7.0164   -0.7895    0.8692 H   0  0  0  0  0  0  0  0  0  0  0  0
    6.5332    0.7800    1.5322 H   0  0  0  0  0  0  0  0  0  0  0  0
    4.8255   -1.4259    0.4074 H   0  0  0  0  0  0  0  0  0  0  0  0
    4.4290   -0.2503    1.6832 H   0  0  0  0  0  0  0  0  0  0  0  0
   -1.9112    0.6394   -1.6827 H   0  0  0  0  0  0  0  0  0  0  0  0
   -2.0340    1.7032   -0.3006 H   0  0  0  0  0  0  0  0  0  0  0  0
  1  2  1  0
  2  3  1  0
  3  4  1  0
  4  5  1  0
  5  6  1  0
  6  7  1  0
  7  8  1  0
  8  9  1  0
  9 10  1  0
 10 11  2  0
 10 12  1  0
 12 13  1  0
 13 14  1  0
 14 15  1  0
 15 16  1  0
 16 17  1  0
 17 18  1  0
  8 19  1  0
  6  2  1  0
 18 14  1  0
 19  3  1  0
  1 20  1  0
  1 21  1  0
  1 22  1  0
  3 23  1  0
  4 24  1  0
  4 25  1  0
  5 26  1  0
  5 27  1  0
  6 28  1  0
  7 29  1  0
  7 30  1  0
  8 31  1  0
 12 32  1  0
 12 33  1  0
 13 34  1  0
 13 35  1  0
 15 36  1  0
 15 37  1  0
 16 38  1  0
 16 39  1  0
 17 40  1  0
 17 41  1  0
 18 42  1  0
 18 43  1  0
 19 44  1  0
 19 45  1  0
M  END
$$$$
