
     RDKit          3D

 58 62  0  0  0  0  0  0  0  0999 V2000
   -2.9214    2.3019   -2.1469 C   0  0  0  0  0  0  0  0  0  0  0  0
   -3.9085    1.9172   -1.1912 O   0  0  0  0  0  0  0  0  0  0  0  0
   -4.6807    0.8589   -1.5968 C   0  0  0  0  0  0  0  0  0  0  0  0
   -5.2716    0.8223   -2.8652 C   0  0  0  0  0  0  0  0  0  0  0  0
   -6.0909   -0.2469   -3.2313 C   0  0  0  0  0  0  0  0  0  0  0  0
   -6.3348   -1.2752   -2.3264 C   0  0  0  0  0  0  0  0  0  0  0  0
   -5.7616   -1.2337   -1.0537 C   0  0  0  0  0  0  0  0  0  0  0  0
   -4.9292   -0.1656   -0.6691 C   0  0  0  0  0  0  0  0  0  0  0  0
   -4.3068   -0.1610    0.7129 C   0  0  0  0  0  0  0  0  0  0  0  0
   -3.1912   -1.1024    0.8291 N   0  0  0  0  0  0  0  0  0  0  0  0
   -3.4275   -2.3929    1.2818 C   0  0  0  0  0  0  0  0  0  0  0  0
   -4.5306   -2.7876    1.6525 O   0  0  0  0  0  0  0  0  0  0  0  0
   -2.2819   -3.3475    1.3126 C   0  0  0  0  0  0  0  0  0  0  0  0
   -2.5273   -4.6690    1.7189 C   0  0  0  0  0  0  0  0  0  0  0  0
   -1.4909   -5.5974    1.7494 C   0  0  0  0  0  0  0  0  0  0  0  0
   -0.2090   -5.2108    1.3693 C   0  0  0  0  0  0  0  0  0  0  0  0
    0.0475   -3.8955    0.9655 C   0  0  0  0  0  0  0  0  0  0  0  0
   -0.9856   -2.9534    0.9431 C   0  0  0  0  0  0  0  0  0  0  0  0
   -0.8201   -1.6033    0.5627 N   0  0  0  0  0  0  0  0  0  0  0  0
    0.2615   -0.8138    0.2144 C   0  0  0  0  0  0  0  0  0  0  0  0
    1.9332   -1.2634    0.2081 S   0  0  0  0  0  0  0  0  0  0  0  0
    2.7088    0.3833    0.2334 C   0  0  0  0  0  0  0  0  0  0  0  0
    4.2273    0.3116    0.3610 C   0  0  0  0  0  0  0  0  0  0  0  0
    4.8242   -0.7341    0.6240 O   0  0  0  0  0  0  0  0  0  0  0  0
    4.9224    1.5108    0.1750 N   0  0  0  0  0  0  0  0  0  0  0  0
    6.3827    1.4710    0.2452 C   0  0  0  0  0  0  0  0  0  0  0  0
    7.0295    2.6823   -0.4164 C   0  0  0  0  0  0  0  0  0  0  0  0
    6.5423    3.9913    0.2015 C   0  0  0  0  0  0  0  0  0  0  0  0
    5.0837    3.9322    0.6613 C   0  0  0  0  0  0  0  0  0  0  0  0
    4.2950    2.8201   -0.0241 C   0  0  0  0  0  0  0  0  0  0  0  0
   -0.1444    0.4010   -0.0818 N   0  0  0  0  0  0  0  0  0  0  0  0
   -1.4954    0.4501    0.0996 N   0  0  0  0  0  0  0  0  0  0  0  0
   -1.8980   -0.7348    0.4969 C   0  0  0  0  0  0  0  0  0  0  0  0
   -2.1389    2.8549   -1.6165 H   0  0  0  0  0  0  0  0  0  0  0  0
   -3.3539    2.9752   -2.8959 H   0  0  0  0  0  0  0  0  0  0  0  0
   -2.4553    1.4351   -2.6297 H   0  0  0  0  0  0  0  0  0  0  0  0
   -5.1198    1.6309   -3.5741 H   0  0  0  0  0  0  0  0  0  0  0  0
   -6.5461   -0.2689   -4.2196 H   0  0  0  0  0  0  0  0  0  0  0  0
   -6.9774   -2.1072   -2.6054 H   0  0  0  0  0  0  0  0  0  0  0  0
   -5.9742   -2.0433   -0.3551 H   0  0  0  0  0  0  0  0  0  0  0  0
   -5.0835   -0.4215    1.4441 H   0  0  0  0  0  0  0  0  0  0  0  0
   -3.9621    0.8391    1.0063 H   0  0  0  0  0  0  0  0  0  0  0  0
   -3.5298   -4.9808    2.0105 H   0  0  0  0  0  0  0  0  0  0  0  0
   -1.6846   -6.6207    2.0640 H   0  0  0  0  0  0  0  0  0  0  0  0
    0.6007   -5.9383    1.3844 H   0  0  0  0  0  0  0  0  0  0  0  0
    1.0660   -3.6742    0.6699 H   0  0  0  0  0  0  0  0  0  0  0  0
    2.3239    0.9405    1.0949 H   0  0  0  0  0  0  0  0  0  0  0  0
    2.4540    0.8984   -0.6975 H   0  0  0  0  0  0  0  0  0  0  0  0
    6.7450    0.5521   -0.2286 H   0  0  0  0  0  0  0  0  0  0  0  0
    6.6552    1.4247    1.3078 H   0  0  0  0  0  0  0  0  0  0  0  0
    6.7857    2.6810   -1.4870 H   0  0  0  0  0  0  0  0  0  0  0  0
    8.1210    2.6212   -0.3425 H   0  0  0  0  0  0  0  0  0  0  0  0
    6.6723    4.8005   -0.5290 H   0  0  0  0  0  0  0  0  0  0  0  0
    7.1726    4.2534    1.0618 H   0  0  0  0  0  0  0  0  0  0  0  0
    5.0612    3.7672    1.7468 H   0  0  0  0  0  0  0  0  0  0  0  0
    4.6039    4.8992    0.4826 H   0  0  0  0  0  0  0  0  0  0  0  0
    3.2706    2.8197    0.3570 H   0  0  0  0  0  0  0  0  0  0  0  0
    4.2433    2.9962   -1.1069 H   0  0  0  0  0  0  0  0  0  0  0  0
  1  2  1  0
  2  3  1  0
  3  4  2  0
  4  5  1  0
  5  6  2  0
  6  7  1  0
  7  8  2  0
  8  9  1  0
  9 10  1  0
 10 11  1  0
 11 12  2  0
 11 13  1  0
 13 14  2  0
 14 15  1  0
 15 16  2  0
 16 17  1  0
 17 18  2  0
 18 19  1  0
 19 20  1  0
 20 21  1  0
 21 22  1  0
 22 23  1  0
 23 24  2  0
 23 25  1  0
 25 26  1  0
 26 27  1  0
 27 28  1  0
 28 29  1  0
 29 30  1  0
 20 31  2  0
 31 32  1  0
 32 33  2  0
  8  3  1  0
 33 10  1  0
 18 13  1  0
 33 19  1  0
 30 25  1  0
  1 34  1  0
  1 35  1  0
  1 36  1  0
  4 37  1  0
  5 38  1  0
  6 39  1  0
  7 40  1  0
  9 41  1  0
  9 42  1  0
 14 43  1  0
 15 44  1  0
 16 45  1  0
 17 46  1  0
 22 47  1  0
 22 48  1  0
 26 49  1  0
 26 50  1  0
 27 51  1  0
 27 52  1  0
 28 53  1  0
 28 54  1  0
 29 55  1  0
 29 56  1  0
 30 57  1  0
 30 58  1  0
M  END
$$$$
