
     RDKit          3D

 45 47  0  0  0  0  0  0  0  0999 V2000
   -3.6680    0.1769    3.3609 C   0  0  0  0  0  0  0  0  0  0  0  0
   -3.9015    1.4884    2.1314 S   0  0  0  0  0  0  0  0  0  0  0  0
   -4.2866    0.4913    0.6957 C   0  0  0  0  0  0  0  0  0  0  0  0
   -5.5277    0.7017    0.0789 C   0  0  0  0  0  0  0  0  0  0  0  0
   -5.9050   -0.0447   -1.0407 C   0  0  0  0  0  0  0  0  0  0  0  0
   -5.0451   -1.0112   -1.5572 C   0  0  0  0  0  0  0  0  0  0  0  0
   -3.8016   -1.2216   -0.9638 C   0  0  0  0  0  0  0  0  0  0  0  0
   -3.4128   -0.4559    0.1412 C   0  0  0  0  0  0  0  0  0  0  0  0
   -2.1863   -0.6924    0.7083 O   0  0  0  0  0  0  0  0  0  0  0  0
   -1.1080   -0.1868   -0.1001 C   0  0  0  0  0  0  0  0  0  0  0  0
   -0.4221    0.9625    0.6514 C   0  0  0  0  0  0  0  0  0  0  0  0
    1.0792    1.0565    0.3613 C   0  0  0  0  0  0  0  0  0  0  0  0
    1.3640    0.5927   -0.9911 N   0  0  0  0  0  0  0  0  0  0  0  0
    2.6621    1.0193   -1.5276 C   0  0  0  0  0  0  0  0  0  0  0  0
    3.8991    0.5060   -0.8197 C   0  0  0  0  0  0  0  0  0  0  0  0
    4.5603   -0.6436   -1.2785 C   0  0  0  0  0  0  0  0  0  0  0  0
    5.7027   -1.1158   -0.6293 C   0  0  0  0  0  0  0  0  0  0  0  0
    6.2012   -0.4423    0.4835 C   0  0  0  0  0  0  0  0  0  0  0  0
    5.5602    0.7048    0.9462 C   0  0  0  0  0  0  0  0  0  0  0  0
    4.4178    1.1776    0.2976 C   0  0  0  0  0  0  0  0  0  0  0  0
    1.0806   -0.8337   -1.1728 C   0  0  0  0  0  0  0  0  0  0  0  0
   -0.1145   -1.3180   -0.3452 C   0  0  0  0  0  0  0  0  0  0  0  0
   -2.7427   -0.3753    3.1824 H   0  0  0  0  0  0  0  0  0  0  0  0
   -4.5147   -0.5151    3.3540 H   0  0  0  0  0  0  0  0  0  0  0  0
   -3.6037    0.6323    4.3528 H   0  0  0  0  0  0  0  0  0  0  0  0
   -6.2159    1.4472    0.4712 H   0  0  0  0  0  0  0  0  0  0  0  0
   -6.8735    0.1264   -1.5040 H   0  0  0  0  0  0  0  0  0  0  0  0
   -5.3423   -1.5997   -2.4214 H   0  0  0  0  0  0  0  0  0  0  0  0
   -3.1354   -1.9806   -1.3635 H   0  0  0  0  0  0  0  0  0  0  0  0
   -1.4628    0.1886   -1.0717 H   0  0  0  0  0  0  0  0  0  0  0  0
   -0.5713    0.8670    1.7340 H   0  0  0  0  0  0  0  0  0  0  0  0
   -0.9140    1.9003    0.3630 H   0  0  0  0  0  0  0  0  0  0  0  0
    1.3795    2.1032    0.4932 H   0  0  0  0  0  0  0  0  0  0  0  0
    1.6352    0.4679    1.1021 H   0  0  0  0  0  0  0  0  0  0  0  0
    2.6991    2.1171   -1.5401 H   0  0  0  0  0  0  0  0  0  0  0  0
    2.7173    0.7412   -2.5889 H   0  0  0  0  0  0  0  0  0  0  0  0
    4.1858   -1.1795   -2.1477 H   0  0  0  0  0  0  0  0  0  0  0  0
    6.2040   -2.0088   -0.9932 H   0  0  0  0  0  0  0  0  0  0  0  0
    7.0906   -0.8097    0.9886 H   0  0  0  0  0  0  0  0  0  0  0  0
    5.9505    1.2334    1.8118 H   0  0  0  0  0  0  0  0  0  0  0  0
    3.9333    2.0777    0.6687 H   0  0  0  0  0  0  0  0  0  0  0  0
    1.9344   -1.4656   -0.9070 H   0  0  0  0  0  0  0  0  0  0  0  0
    0.8709   -1.0093   -2.2349 H   0  0  0  0  0  0  0  0  0  0  0  0
    0.2326   -1.7094    0.6208 H   0  0  0  0  0  0  0  0  0  0  0  0
   -0.6047   -2.1609   -0.8463 H   0  0  0  0  0  0  0  0  0  0  0  0
  1  2  1  0
  2  3  1  0
  3  4  2  0
  4  5  1  0
  5  6  2  0
  6  7  1  0
  7  8  2  0
  8  9  1  0
  9 10  1  0
 10 11  1  0
 11 12  1  0
 12 13  1  0
 13 14  1  0
 14 15  1  0
 15 16  2  0
 16 17  1  0
 17 18  2  0
 18 19  1  0
 19 20  2  0
 13 21  1  0
 21 22  1  0
  8  3  1  0
 22 10  1  0
 20 15  1  0
  1 23  1  0
  1 24  1  0
  1 25  1  0
  4 26  1  0
  5 27  1  0
  6 28  1  0
  7 29  1  0
 10 30  1  0
 11 31  1  0
 11 32  1  0
 12 33  1  0
 12 34  1  0
 14 35  1  0
 14 36  1  0
 16 37  1  0
 17 38  1  0
 18 39  1  0
 19 40  1  0
 20 41  1  0
 21 42  1  0
 21 43  1  0
 22 44  1  0
 22 45  1  0
M  END
$$$$
