
     RDKit          3D

 36 37  0  0  0  0  0  0  0  0999 V2000
   -0.4082   -0.6826   -1.8506 C   0  0  0  0  0  0  0  0  0  0  0  0
   -0.6425    0.1816   -0.6630 C   0  0  0  0  0  0  0  0  0  0  0  0
    0.3998    0.3742    0.2355 N   0  0  0  0  0  0  0  0  0  0  0  0
    0.0082    1.2001    1.1720 C   0  0  0  0  0  0  0  0  0  0  0  0
    0.7349    1.6534    2.2347 N   0  0  0  0  0  0  0  0  0  0  0  0
    2.0322    1.3172    2.5243 C   0  0  0  0  0  0  0  0  0  0  0  0
    2.6798    2.0090    3.9036 S   0  0  0  0  0  0  0  0  0  0  0  0
    2.6637    0.4491    1.6546 N   0  0  0  0  0  0  0  0  0  0  0  0
    3.9523   -0.0841    1.6615 C   0  0  0  0  0  0  0  0  0  0  0  0
    4.7847    0.0949    2.5438 O   0  0  0  0  0  0  0  0  0  0  0  0
    4.2303   -0.9115    0.5018 C   0  0  0  0  0  0  0  0  0  0  0  0
    5.3640   -1.6151    0.1400 C   0  0  0  0  0  0  0  0  0  0  0  0
    5.0788   -2.2432   -1.0955 C   0  0  0  0  0  0  0  0  0  0  0  0
    3.7905   -1.8875   -1.4158 C   0  0  0  0  0  0  0  0  0  0  0  0
    3.2647   -1.0829   -0.4566 O   0  0  0  0  0  0  0  0  0  0  0  0
   -1.5801    1.7914    1.0729 S   0  0  0  0  0  0  0  0  0  0  0  0
   -1.8216    0.8352   -0.3353 C   0  0  0  0  0  0  0  0  0  0  0  0
   -3.0597    0.8803   -1.0871 C   0  0  0  0  0  0  0  0  0  0  0  0
   -3.0492    1.1093   -2.2969 O   0  0  0  0  0  0  0  0  0  0  0  0
   -4.2649    0.6485   -0.4139 N   0  0  0  0  0  0  0  0  0  0  0  0
   -4.3798   -0.0703    0.8474 C   0  0  0  0  0  0  0  0  0  0  0  0
   -5.5090    0.8872   -1.1252 C   0  0  0  0  0  0  0  0  0  0  0  0
   -0.3076   -0.0700   -2.7517 H   0  0  0  0  0  0  0  0  0  0  0  0
   -1.2372   -1.3830   -1.9927 H   0  0  0  0  0  0  0  0  0  0  0  0
    0.5085   -1.2680   -1.7309 H   0  0  0  0  0  0  0  0  0  0  0  0
    0.2777    2.2952    2.8690 H   0  0  0  0  0  0  0  0  0  0  0  0
    2.1084    0.1647    0.8478 H   0  0  0  0  0  0  0  0  0  0  0  0
    6.2821   -1.6583    0.7112 H   0  0  0  0  0  0  0  0  0  0  0  0
    5.7319   -2.8754   -1.6808 H   0  0  0  0  0  0  0  0  0  0  0  0
    3.1376   -2.1117   -2.2480 H   0  0  0  0  0  0  0  0  0  0  0  0
   -3.4291   -0.4910    1.1790 H   0  0  0  0  0  0  0  0  0  0  0  0
   -4.7706    0.6149    1.6048 H   0  0  0  0  0  0  0  0  0  0  0  0
   -5.0814   -0.9008    0.7177 H   0  0  0  0  0  0  0  0  0  0  0  0
   -5.8673   -0.0621   -1.5342 H   0  0  0  0  0  0  0  0  0  0  0  0
   -6.2487    1.2910   -0.4276 H   0  0  0  0  0  0  0  0  0  0  0  0
   -5.3734    1.6004   -1.9430 H   0  0  0  0  0  0  0  0  0  0  0  0
  1  2  1  0
  2  3  1  0
  3  4  2  0
  4  5  1  0
  5  6  1  0
  6  7  2  0
  6  8  1  0
  8  9  1  0
  9 10  2  0
  9 11  1  0
 11 12  2  0
 12 13  1  0
 13 14  2  0
 14 15  1  0
  4 16  1  0
 16 17  1  0
 17 18  1  0
 18 19  2  0
 18 20  1  0
 20 21  1  0
 20 22  1  0
 17  2  2  0
 15 11  1  0
  1 23  1  0
  1 24  1  0
  1 25  1  0
  5 26  1  0
  8 27  1  0
 12 28  1  0
 13 29  1  0
 14 30  1  0
 21 31  1  0
 21 32  1  0
 21 33  1  0
 22 34  1  0
 22 35  1  0
 22 36  1  0
M  END
$$$$
