
     RDKit          3D

 60 65  0  0  0  0  0  0  0  0999 V2000
    1.8824    2.3819   -0.1993 O   0  0  0  0  0  0  0  0  0  0  0  0
    2.0441    1.6144   -1.1483 C   0  0  0  0  0  0  0  0  0  0  0  0
    1.0813    1.6370   -2.3268 C   0  0  0  0  0  0  0  0  0  0  0  0
    0.3920   -0.0220   -2.6279 S   0  0  0  0  0  0  0  0  0  0  0  0
   -0.9598    0.0716   -1.5048 C   0  0  0  0  0  0  0  0  0  0  0  0
   -2.0001    0.6783   -1.9761 N   0  0  0  0  0  0  0  0  0  0  0  0
   -3.0937    0.8521   -1.1371 C   0  0  0  0  0  0  0  0  0  0  0  0
   -4.1658    1.4307   -1.7220 N   0  0  0  0  0  0  0  0  0  0  0  0
   -5.2788    1.6204   -0.9660 C   0  0  0  0  0  0  0  0  0  0  0  0
   -5.3425    1.2728    0.3893 C   0  0  0  0  0  0  0  0  0  0  0  0
   -4.2178    0.6770    0.9675 C   0  0  0  0  0  0  0  0  0  0  0  0
   -3.0812    0.4685    0.1873 C   0  0  0  0  0  0  0  0  0  0  0  0
   -1.8780   -0.1901    0.7077 C   0  0  0  0  0  0  0  0  0  0  0  0
   -1.8924   -0.5254    1.8893 O   0  0  0  0  0  0  0  0  0  0  0  0
   -0.8435   -0.4237   -0.2060 N   0  0  0  0  0  0  0  0  0  0  0  0
    0.2706   -1.2029    0.2500 C   0  0  0  0  0  0  0  0  0  0  0  0
    0.6975   -2.3391   -0.4525 C   0  0  0  0  0  0  0  0  0  0  0  0
    1.7618   -3.1085    0.0228 C   0  0  0  0  0  0  0  0  0  0  0  0
    2.4047   -2.7579    1.2068 C   0  0  0  0  0  0  0  0  0  0  0  0
    1.9844   -1.6399    1.9200 C   0  0  0  0  0  0  0  0  0  0  0  0
    0.9208   -0.8710    1.4468 C   0  0  0  0  0  0  0  0  0  0  0  0
   -6.5976    1.4462    1.2020 C   0  0  0  0  0  0  0  0  0  0  0  0
   -7.5863    2.4276    0.5750 C   0  0  0  0  0  0  0  0  0  0  0  0
   -7.7627    2.1390   -0.9124 C   0  0  0  0  0  0  0  0  0  0  0  0
   -6.4399    2.2869   -1.6609 C   0  0  0  0  0  0  0  0  0  0  0  0
    3.0619    0.6825   -1.3066 N   0  0  0  0  0  0  0  0  0  0  0  0
    4.1033    0.3455   -0.4028 C   0  0  0  0  0  0  0  0  0  0  0  0
    4.3727    1.1365    0.7262 C   0  0  0  0  0  0  0  0  0  0  0  0
    5.3690    0.7720    1.6286 C   0  0  0  0  0  0  0  0  0  0  0  0
    6.1084   -0.3861    1.4212 C   0  0  0  0  0  0  0  0  0  0  0  0
    5.8815   -1.1932    0.2957 C   0  0  0  0  0  0  0  0  0  0  0  0
    6.6443   -2.3649    0.1184 C   0  0  0  0  0  0  0  0  0  0  0  0
    6.4490   -3.1938   -0.9869 C   0  0  0  0  0  0  0  0  0  0  0  0
    5.4847   -2.8615   -1.9282 C   0  0  0  0  0  0  0  0  0  0  0  0
    4.7154   -1.7057   -1.7622 C   0  0  0  0  0  0  0  0  0  0  0  0
    4.8808   -0.8349   -0.6469 C   0  0  0  0  0  0  0  0  0  0  0  0
    1.6222    1.9678   -3.2120 H   0  0  0  0  0  0  0  0  0  0  0  0
    0.2874    2.3574   -2.1296 H   0  0  0  0  0  0  0  0  0  0  0  0
   -4.2315    0.3639    2.0111 H   0  0  0  0  0  0  0  0  0  0  0  0
    0.1870   -2.6648   -1.3546 H   0  0  0  0  0  0  0  0  0  0  0  0
    2.0902   -3.9875   -0.5253 H   0  0  0  0  0  0  0  0  0  0  0  0
    3.2407   -3.3540    1.5682 H   0  0  0  0  0  0  0  0  0  0  0  0
    2.4876   -1.3544    2.8382 H   0  0  0  0  0  0  0  0  0  0  0  0
    0.6210    0.0059    2.0155 H   0  0  0  0  0  0  0  0  0  0  0  0
   -7.0757    0.4632    1.2955 H   0  0  0  0  0  0  0  0  0  0  0  0
   -6.3482    1.7854    2.2148 H   0  0  0  0  0  0  0  0  0  0  0  0
   -7.2364    3.4620    0.7099 H   0  0  0  0  0  0  0  0  0  0  0  0
   -8.5526    2.3520    1.0901 H   0  0  0  0  0  0  0  0  0  0  0  0
   -8.1599    1.1282   -1.0411 H   0  0  0  0  0  0  0  0  0  0  0  0
   -8.5004    2.8285   -1.3379 H   0  0  0  0  0  0  0  0  0  0  0  0
   -6.1996    3.3526   -1.7647 H   0  0  0  0  0  0  0  0  0  0  0  0
   -6.5460    1.8776   -2.6731 H   0  0  0  0  0  0  0  0  0  0  0  0
    2.9385    0.0593   -2.0955 H   0  0  0  0  0  0  0  0  0  0  0  0
    3.8270    2.0565    0.9212 H   0  0  0  0  0  0  0  0  0  0  0  0
    5.5633    1.3913    2.5012 H   0  0  0  0  0  0  0  0  0  0  0  0
    6.8719   -0.6517    2.1494 H   0  0  0  0  0  0  0  0  0  0  0  0
    7.4052   -2.6441    0.8473 H   0  0  0  0  0  0  0  0  0  0  0  0
    7.0463   -4.1030   -1.1017 H   0  0  0  0  0  0  0  0  0  0  0  0
    5.3227   -3.5008   -2.7927 H   0  0  0  0  0  0  0  0  0  0  0  0
    3.9686   -1.5117   -2.5249 H   0  0  0  0  0  0  0  0  0  0  0  0
  1  2  2  0
  2  3  1  0
  3  4  1  0
  4  5  1  0
  5  6  2  0
  6  7  1  0
  7  8  2  0
  8  9  1  0
  9 10  2  0
 10 11  1  0
 11 12  2  0
 12 13  1  0
 13 14  2  0
 13 15  1  0
 15 16  1  0
 16 17  2  0
 17 18  1  0
 18 19  2  0
 19 20  1  0
 20 21  2  0
 10 22  1  0
 22 23  1  0
 23 24  1  0
 24 25  1  0
  2 26  1  0
 26 27  1  0
 27 28  2  0
 28 29  1  0
 29 30  2  0
 30 31  1  0
 31 32  2  0
 32 33  1  0
 33 34  2  0
 34 35  1  0
 35 36  2  0
 15  5  1  0
 21 16  1  0
 36 27  1  0
 12  7  1  0
 36 31  1  0
 25  9  1  0
  3 37  1  0
  3 38  1  0
 11 39  1  0
 17 40  1  0
 18 41  1  0
 19 42  1  0
 20 43  1  0
 21 44  1  0
 22 45  1  0
 22 46  1  0
 23 47  1  0
 23 48  1  0
 24 49  1  0
 24 50  1  0
 25 51  1  0
 25 52  1  0
 26 53  1  0
 28 54  1  0
 29 55  1  0
 30 56  1  0
 32 57  1  0
 33 58  1  0
 34 59  1  0
 35 60  1  0
M  END
$$$$
