
     RDKit          3D

 62 65  0  0  0  0  0  0  0  0999 V2000
   -8.6037    0.8860   -1.2011 C   0  0  0  0  0  0  0  0  0  0  0  0
   -7.2707    0.5795   -0.8224 O   0  0  0  0  0  0  0  0  0  0  0  0
   -6.3440    0.8864   -1.8601 C   0  0  0  0  0  0  0  0  0  0  0  0
   -5.0196    0.3358   -1.4441 C   0  0  0  0  0  0  0  0  0  0  0  0
   -3.9519    1.0860   -1.1279 C   0  0  0  0  0  0  0  0  0  0  0  0
   -2.6775    0.5379   -0.6940 C   0  0  0  0  0  0  0  0  0  0  0  0
   -1.9422   -0.1646   -1.5885 C   0  0  0  0  0  0  0  0  0  0  0  0
   -0.6353   -0.6973   -1.1961 C   0  0  0  0  0  0  0  0  0  0  0  0
    0.0954   -1.3890   -2.0807 C   0  0  0  0  0  0  0  0  0  0  0  0
    1.4243   -1.9435   -1.7376 C   0  0  0  0  0  0  0  0  0  0  0  0
    2.0855   -2.4691   -2.6381 O   0  0  0  0  0  0  0  0  0  0  0  0
    1.9029   -1.9132   -0.2832 C   0  0  0  0  0  0  0  0  0  0  0  0
    1.6362   -3.3148    0.2922 C   0  0  0  0  0  0  0  0  0  0  0  0
    3.3297   -1.7369   -0.2105 O   0  0  0  0  0  0  0  0  0  0  0  0
    3.7813   -0.5339   -0.6617 C   0  0  0  0  0  0  0  0  0  0  0  0
    3.0647    0.3431   -1.1201 O   0  0  0  0  0  0  0  0  0  0  0  0
    5.2587   -0.4363   -0.4953 C   0  0  0  0  0  0  0  0  0  0  0  0
    6.0343   -1.5355   -0.1687 C   0  0  0  0  0  0  0  0  0  0  0  0
    7.3801   -1.4594   -0.0092 N   0  0  0  0  0  0  0  0  0  0  0  0
    7.9361   -0.2443   -0.1852 C   0  0  0  0  0  0  0  0  0  0  0  0
    9.3081   -0.0873   -0.0321 C   0  0  0  0  0  0  0  0  0  0  0  0
    9.9191    1.1558   -0.2010 C   0  0  0  0  0  0  0  0  0  0  0  0
    9.1461    2.2613   -0.5327 C   0  0  0  0  0  0  0  0  0  0  0  0
    7.7675    2.1154   -0.6927 C   0  0  0  0  0  0  0  0  0  0  0  0
    7.1464    0.8843   -0.5243 C   0  0  0  0  0  0  0  0  0  0  0  0
    5.8124    0.7902   -0.6835 N   0  0  0  0  0  0  0  0  0  0  0  0
    1.1690   -0.9236    0.6207 C   0  0  0  0  0  0  0  0  0  0  0  0
    1.6207   -0.5932    1.7189 O   0  0  0  0  0  0  0  0  0  0  0  0
   -0.1486   -0.4260    0.1482 C   0  0  0  0  0  0  0  0  0  0  0  0
   -0.9394    0.2804    0.9746 C   0  0  0  0  0  0  0  0  0  0  0  0
   -2.2109    0.7674    0.6242 N   0  0  0  0  0  0  0  0  0  0  0  0
   -3.0225    1.4465    1.6602 C   0  0  0  0  0  0  0  0  0  0  0  0
   -3.5817    0.4549    2.7022 C   0  0  0  0  0  0  0  0  0  0  0  0
   -4.2115    1.2271    3.8657 C   0  0  0  0  0  0  0  0  0  0  0  0
   -4.6105   -0.5056    2.1041 C   0  0  0  0  0  0  0  0  0  0  0  0
   -9.2551    0.7169   -0.3367 H   0  0  0  0  0  0  0  0  0  0  0  0
   -8.9266    0.2330   -2.0176 H   0  0  0  0  0  0  0  0  0  0  0  0
   -8.6894    1.9360   -1.4992 H   0  0  0  0  0  0  0  0  0  0  0  0
   -6.3062    1.9720   -2.0052 H   0  0  0  0  0  0  0  0  0  0  0  0
   -6.6532    0.4111   -2.7975 H   0  0  0  0  0  0  0  0  0  0  0  0
   -4.9599   -0.7485   -1.3752 H   0  0  0  0  0  0  0  0  0  0  0  0
   -4.0126    2.1717   -1.1477 H   0  0  0  0  0  0  0  0  0  0  0  0
   -2.2944   -0.3224   -2.6036 H   0  0  0  0  0  0  0  0  0  0  0  0
   -0.2316   -1.5731   -3.0983 H   0  0  0  0  0  0  0  0  0  0  0  0
    2.1774   -4.0803   -0.2782 H   0  0  0  0  0  0  0  0  0  0  0  0
    0.5705   -3.5702    0.2761 H   0  0  0  0  0  0  0  0  0  0  0  0
    1.9889   -3.3871    1.3286 H   0  0  0  0  0  0  0  0  0  0  0  0
    5.6141   -2.5252   -0.0256 H   0  0  0  0  0  0  0  0  0  0  0  0
    9.9124   -0.9532    0.2276 H   0  0  0  0  0  0  0  0  0  0  0  0
   10.9936    1.2567   -0.0722 H   0  0  0  0  0  0  0  0  0  0  0  0
    9.6087    3.2359   -0.6666 H   0  0  0  0  0  0  0  0  0  0  0  0
    7.1615    2.9801   -0.9532 H   0  0  0  0  0  0  0  0  0  0  0  0
   -0.6354    0.5171    1.9898 H   0  0  0  0  0  0  0  0  0  0  0  0
   -3.8389    2.0372    1.2275 H   0  0  0  0  0  0  0  0  0  0  0  0
   -2.3799    2.1797    2.1694 H   0  0  0  0  0  0  0  0  0  0  0  0
   -2.7603   -0.1468    3.1110 H   0  0  0  0  0  0  0  0  0  0  0  0
   -5.0419    1.8546    3.5247 H   0  0  0  0  0  0  0  0  0  0  0  0
   -4.5953    0.5378    4.6264 H   0  0  0  0  0  0  0  0  0  0  0  0
   -3.4709    1.8744    4.3473 H   0  0  0  0  0  0  0  0  0  0  0  0
   -5.4513    0.0383    1.6629 H   0  0  0  0  0  0  0  0  0  0  0  0
   -5.0109   -1.1719    2.8751 H   0  0  0  0  0  0  0  0  0  0  0  0
   -4.1621   -1.1380    1.3330 H   0  0  0  0  0  0  0  0  0  0  0  0
  1  2  1  0
  2  3  1  0
  3  4  1  0
  4  5  2  3
  5  6  1  0
  6  7  2  0
  7  8  1  0
  8  9  2  0
  9 10  1  0
 10 11  2  0
 10 12  1  0
 12 13  1  0
 12 14  1  0
 14 15  1  0
 15 16  2  0
 15 17  1  0
 17 18  2  0
 18 19  1  0
 19 20  2  0
 20 21  1  0
 21 22  2  0
 22 23  1  0
 23 24  2  0
 24 25  1  0
 25 26  2  0
 12 27  1  0
 27 28  2  0
 27 29  1  0
 29 30  2  0
 30 31  1  0
 31 32  1  0
 32 33  1  0
 33 34  1  0
 33 35  1  0
 31  6  1  0
 29  8  1  0
 26 17  1  0
 25 20  1  0
  1 36  1  0
  1 37  1  0
  1 38  1  0
  3 39  1  0
  3 40  1  0
  4 41  1  0
  5 42  1  0
  7 43  1  0
  9 44  1  0
 13 45  1  0
 13 46  1  0
 13 47  1  0
 18 48  1  0
 21 49  1  0
 22 50  1  0
 23 51  1  0
 24 52  1  0
 30 53  1  0
 32 54  1  0
 32 55  1  0
 33 56  1  0
 34 57  1  0
 34 58  1  0
 34 59  1  0
 35 60  1  0
 35 61  1  0
 35 62  1  0
M  END
$$$$
