
     RDKit          3D

 38 40  0  0  0  0  0  0  0  0999 V2000
    3.0468    1.3350    2.7135 N   0  0  0  0  0  0  0  0  0  0  0  0
    2.2895    0.6787    2.1272 C   0  0  0  0  0  0  0  0  0  0  0  0
    1.3716   -0.0644    1.3349 C   0  0  0  0  0  0  0  0  0  0  0  0
    1.6480   -0.5571    0.1105 C   0  0  0  0  0  0  0  0  0  0  0  0
    2.8943   -0.3895   -0.6569 C   0  0  0  0  0  0  0  0  0  0  0  0
    3.4297   -1.5154   -1.3068 C   0  0  0  0  0  0  0  0  0  0  0  0
    4.5865   -1.4102   -2.0834 C   0  0  0  0  0  0  0  0  0  0  0  0
    5.2040   -0.1771   -2.2121 C   0  0  0  0  0  0  0  0  0  0  0  0
    6.3352   -0.0741   -2.9682 O   0  0  0  0  0  0  0  0  0  0  0  0
    4.6831    0.9475   -1.5802 C   0  0  0  0  0  0  0  0  0  0  0  0
    5.3480    2.1316   -1.7437 O   0  0  0  0  0  0  0  0  0  0  0  0
    3.5237    0.8554   -0.8147 C   0  0  0  0  0  0  0  0  0  0  0  0
    0.0507   -0.3897    1.9528 C   0  0  0  0  0  0  0  0  0  0  0  0
    0.0148   -0.8361    3.0917 O   0  0  0  0  0  0  0  0  0  0  0  0
   -1.0261   -0.0990    1.1308 N   0  0  0  0  0  0  0  0  0  0  0  0
   -2.4086   -0.3098    1.3929 C   0  0  0  0  0  0  0  0  0  0  0  0
   -2.8402   -0.9301    2.5702 C   0  0  0  0  0  0  0  0  0  0  0  0
   -4.1947   -1.1359    2.8077 C   0  0  0  0  0  0  0  0  0  0  0  0
   -5.1326   -0.7249    1.8671 C   0  0  0  0  0  0  0  0  0  0  0  0
   -4.7567   -0.1095    0.6867 C   0  0  0  0  0  0  0  0  0  0  0  0
   -5.7403    0.2476   -0.1570 N   0  0  0  0  0  0  0  0  0  0  0  0
   -5.4087    0.8500   -1.3146 C   0  0  0  0  0  0  0  0  0  0  0  0
   -4.1107    1.1210   -1.6831 C   0  0  0  0  0  0  0  0  0  0  0  0
   -3.0937    0.7494   -0.8080 C   0  0  0  0  0  0  0  0  0  0  0  0
   -3.3814    0.1112    0.4256 C   0  0  0  0  0  0  0  0  0  0  0  0
    0.9180   -1.1974   -0.3857 H   0  0  0  0  0  0  0  0  0  0  0  0
    2.9571   -2.4913   -1.2103 H   0  0  0  0  0  0  0  0  0  0  0  0
    5.0023   -2.2821   -2.5796 H   0  0  0  0  0  0  0  0  0  0  0  0
    6.5901    0.8681   -2.9046 H   0  0  0  0  0  0  0  0  0  0  0  0
    4.9708    2.7835   -1.1271 H   0  0  0  0  0  0  0  0  0  0  0  0
    3.1141    1.7487   -0.3537 H   0  0  0  0  0  0  0  0  0  0  0  0
   -0.8093    0.3483    0.2532 H   0  0  0  0  0  0  0  0  0  0  0  0
   -2.1490   -1.2737    3.3330 H   0  0  0  0  0  0  0  0  0  0  0  0
   -4.5198   -1.6177    3.7266 H   0  0  0  0  0  0  0  0  0  0  0  0
   -6.1903   -0.8903    2.0614 H   0  0  0  0  0  0  0  0  0  0  0  0
   -6.2446    1.1162   -1.9551 H   0  0  0  0  0  0  0  0  0  0  0  0
   -3.8928    1.6095   -2.6261 H   0  0  0  0  0  0  0  0  0  0  0  0
   -2.0787    0.9736   -1.1151 H   0  0  0  0  0  0  0  0  0  0  0  0
  1  2  3  0
  2  3  1  0
  3  4  2  3
  4  5  1  0
  5  6  2  0
  6  7  1  0
  7  8  2  0
  8  9  1  0
  8 10  1  0
 10 11  1  0
 10 12  2  0
  3 13  1  0
 13 14  2  0
 13 15  1  0
 15 16  1  0
 16 17  2  0
 17 18  1  0
 18 19  2  0
 19 20  1  0
 20 21  2  0
 21 22  1  0
 22 23  2  0
 23 24  1  0
 24 25  2  0
 12  5  1  0
 25 16  1  0
 25 20  1  0
  4 26  1  0
  6 27  1  0
  7 28  1  0
  9 29  1  0
 11 30  1  0
 12 31  1  0
 15 32  1  0
 17 33  1  0
 18 34  1  0
 19 35  1  0
 22 36  1  0
 23 37  1  0
 24 38  1  0
M  END
$$$$
