
     RDKit          3D

 46 48  0  0  0  0  0  0  0  0999 V2000
    6.6394    2.3855    2.1211 C   0  0  0  0  0  0  0  0  0  0  0  0
    5.5828    1.5210    2.7371 C   0  0  0  0  0  0  0  0  0  0  0  0
    5.8069    0.5346    3.4234 O   0  0  0  0  0  0  0  0  0  0  0  0
    4.3476    1.9895    2.4053 O   0  0  0  0  0  0  0  0  0  0  0  0
    3.2376    1.2572    2.9461 C   0  0  0  0  0  0  0  0  0  0  0  0
    2.8665    0.0734    2.0572 C   0  0  0  0  0  0  0  0  0  0  0  0
    2.5131    0.5202    0.6387 C   0  0  0  0  0  0  0  0  0  0  0  0
    2.1326   -0.6183   -0.1977 N   0  0  0  0  0  0  0  0  0  0  0  0
    0.9036   -1.2874   -0.0989 C   0  0  0  0  0  0  0  0  0  0  0  0
   -0.2129   -0.6875    0.5557 C   0  0  0  0  0  0  0  0  0  0  0  0
   -1.5057   -1.2631    0.6446 C   0  0  0  0  0  0  0  0  0  0  0  0
   -2.8426   -0.4827    1.4917 S   0  0  0  0  0  0  0  0  0  0  0  0
   -3.7260    0.2133    0.1080 C   0  0  0  0  0  0  0  0  0  0  0  0
   -3.3335    1.4379   -0.4392 C   0  0  0  0  0  0  0  0  0  0  0  0
   -4.0248    1.9780   -1.5272 C   0  0  0  0  0  0  0  0  0  0  0  0
   -5.1262    1.3073   -2.0711 C   0  0  0  0  0  0  0  0  0  0  0  0
   -5.8514    1.8671   -3.2590 C   0  0  0  0  0  0  0  0  0  0  0  0
   -5.5124    0.0781   -1.5238 C   0  0  0  0  0  0  0  0  0  0  0  0
   -4.8213   -0.4617   -0.4361 C   0  0  0  0  0  0  0  0  0  0  0  0
   -1.6614   -2.5200    0.0176 C   0  0  0  0  0  0  0  0  0  0  0  0
   -2.7254   -3.3324   -0.0606 N   0  0  0  0  0  0  0  0  0  0  0  0
   -2.3210   -4.4288   -0.7944 O   0  0  0  0  0  0  0  0  0  0  0  0
   -0.9974   -4.3269   -1.1732 N   0  0  0  0  0  0  0  0  0  0  0  0
   -0.5597   -3.1524   -0.6975 C   0  0  0  0  0  0  0  0  0  0  0  0
    0.6965   -2.5210   -0.7730 C   0  0  0  0  0  0  0  0  0  0  0  0
    1.7315   -3.1767   -1.5227 N   0  0  0  0  0  4  0  0  0  0  0  0
    1.4806   -3.5073   -2.6887 O   0  0  0  0  0  0  0  0  0  0  0  0
    2.8242   -3.3272   -0.9544 O   0  0  0  0  0  1  0  0  0  0  0  0
    7.6261    2.0168    2.4163 H   0  0  0  0  0  0  0  0  0  0  0  0
    6.5310    3.4135    2.4767 H   0  0  0  0  0  0  0  0  0  0  0  0
    6.5611    2.3446    1.0321 H   0  0  0  0  0  0  0  0  0  0  0  0
    3.4488    0.9273    3.9706 H   0  0  0  0  0  0  0  0  0  0  0  0
    2.3953    1.9551    3.0096 H   0  0  0  0  0  0  0  0  0  0  0  0
    2.0275   -0.4622    2.5144 H   0  0  0  0  0  0  0  0  0  0  0  0
    3.7049   -0.6323    2.0067 H   0  0  0  0  0  0  0  0  0  0  0  0
    3.3945    0.9777    0.1742 H   0  0  0  0  0  0  0  0  0  0  0  0
    1.7406    1.2966    0.6362 H   0  0  0  0  0  0  0  0  0  0  0  0
    2.9252   -1.2532   -0.3497 H   0  0  0  0  0  0  0  0  0  0  0  0
   -0.0901    0.2844    1.0319 H   0  0  0  0  0  0  0  0  0  0  0  0
   -2.4897    1.9833   -0.0254 H   0  0  0  0  0  0  0  0  0  0  0  0
   -3.6997    2.9284   -1.9446 H   0  0  0  0  0  0  0  0  0  0  0  0
   -6.9241    1.6543   -3.1924 H   0  0  0  0  0  0  0  0  0  0  0  0
   -5.7384    2.9553   -3.3126 H   0  0  0  0  0  0  0  0  0  0  0  0
   -5.4569    1.4265   -4.1804 H   0  0  0  0  0  0  0  0  0  0  0  0
   -6.3557   -0.4688   -1.9405 H   0  0  0  0  0  0  0  0  0  0  0  0
   -5.1413   -1.4170   -0.0256 H   0  0  0  0  0  0  0  0  0  0  0  0
  1  2  1  0
  2  3  2  0
  2  4  1  0
  4  5  1  0
  5  6  1  0
  6  7  1  0
  7  8  1  0
  8  9  1  0
  9 10  1  0
 10 11  2  0
 11 12  1  0
 12 13  1  0
 13 14  2  0
 14 15  1  0
 15 16  2  0
 16 17  1  0
 16 18  1  0
 18 19  2  0
 11 20  1  0
 20 21  2  0
 21 22  1  0
 22 23  1  0
 23 24  2  0
 24 25  1  0
 25 26  1  0
 26 27  2  0
 26 28  1  0
 25  9  2  0
 19 13  1  0
 24 20  1  0
  1 29  1  0
  1 30  1  0
  1 31  1  0
  5 32  1  0
  5 33  1  0
  6 34  1  0
  6 35  1  0
  7 36  1  0
  7 37  1  0
  8 38  1  0
 10 39  1  0
 14 40  1  0
 15 41  1  0
 17 42  1  0
 17 43  1  0
 17 44  1  0
 18 45  1  0
 19 46  1  0
M  CHG  2  26   1  28  -1
M  END
$$$$
