
     RDKit          3D

 55 57  0  0  0  0  0  0  0  0999 V2000
   -0.1506    2.7772   -0.3248 O   0  0  0  0  0  0  0  0  0  0  0  0
    0.1440    1.7120    0.2109 C   0  0  0  0  0  0  0  0  0  0  0  0
   -0.5863    0.5538    0.0323 N   0  0  0  0  0  0  0  0  0  0  0  0
   -1.7964    0.5445   -0.7697 C   0  0  0  0  0  0  0  0  0  0  0  0
   -3.0057    1.0416    0.0212 C   0  0  0  0  0  0  0  0  0  0  0  0
   -4.2563    1.2312   -0.8431 C   0  0  0  0  0  0  0  0  0  0  0  0
   -4.7826   -0.0481   -1.4961 C   0  0  0  0  0  0  0  0  0  0  0  0
   -5.2485   -1.1143   -0.5034 C   0  0  0  0  0  0  0  0  0  0  0  0
   -6.2054   -2.0009   -1.3027 C   0  0  0  0  0  0  0  0  0  0  0  0
   -6.5925   -1.2053   -2.5482 C   0  0  0  0  0  0  0  0  0  0  0  0
   -6.0432    0.1955   -2.3266 C   0  0  0  0  0  0  0  0  0  0  0  0
    1.3557    1.5488    1.1203 C   0  0  0  0  0  0  0  0  0  0  0  0
    1.9437    2.8991    1.5140 C   0  0  0  0  0  0  0  0  0  0  0  0
    3.1905    2.6704    2.3439 C   0  0  0  0  0  0  0  0  0  0  0  0
    4.2521    1.9719    1.5324 C   0  0  0  0  0  0  0  0  0  0  0  0
    5.4440    2.1934    1.7462 O   0  0  0  0  0  0  0  0  0  0  0  0
    3.8033    1.0685    0.5822 N   0  0  0  0  0  0  0  0  0  0  0  0
    4.7961    0.3451   -0.2111 C   0  0  0  0  0  0  0  0  0  0  0  0
    5.0257   -1.0660    0.2832 C   0  0  0  0  0  0  0  0  0  0  0  0
    4.5159   -2.1649   -0.4252 C   0  0  0  0  0  0  0  0  0  0  0  0
    4.7272   -3.4674    0.0382 C   0  0  0  0  0  0  0  0  0  0  0  0
    5.4487   -3.6772    1.2138 C   0  0  0  0  0  0  0  0  0  0  0  0
    5.7110   -5.2786    1.7860 Cl  0  0  0  0  0  0  0  0  0  0  0  0
    5.9595   -2.5975    1.9287 C   0  0  0  0  0  0  0  0  0  0  0  0
    5.7476   -1.2953    1.4658 C   0  0  0  0  0  0  0  0  0  0  0  0
    2.4011    0.6467    0.4543 C   0  0  0  0  0  0  0  0  0  0  0  0
   -0.4177   -0.2354    0.6408 H   0  0  0  0  0  0  0  0  0  0  0  0
   -1.6352    1.1690   -1.6560 H   0  0  0  0  0  0  0  0  0  0  0  0
   -1.9432   -0.4893   -1.0997 H   0  0  0  0  0  0  0  0  0  0  0  0
   -2.7683    2.0087    0.4833 H   0  0  0  0  0  0  0  0  0  0  0  0
   -3.2135    0.3537    0.8500 H   0  0  0  0  0  0  0  0  0  0  0  0
   -5.0423    1.6729   -0.2164 H   0  0  0  0  0  0  0  0  0  0  0  0
   -4.0378    1.9703   -1.6254 H   0  0  0  0  0  0  0  0  0  0  0  0
   -4.0123   -0.4751   -2.1526 H   0  0  0  0  0  0  0  0  0  0  0  0
   -4.4103   -1.6935   -0.0920 H   0  0  0  0  0  0  0  0  0  0  0  0
   -5.7903   -0.6583    0.3406 H   0  0  0  0  0  0  0  0  0  0  0  0
   -7.0858   -2.2626   -0.7026 H   0  0  0  0  0  0  0  0  0  0  0  0
   -5.7149   -2.9404   -1.5887 H   0  0  0  0  0  0  0  0  0  0  0  0
   -6.1227   -1.6565   -3.4275 H   0  0  0  0  0  0  0  0  0  0  0  0
   -7.6706   -1.2001   -2.7164 H   0  0  0  0  0  0  0  0  0  0  0  0
   -6.7663    0.7997   -1.7685 H   0  0  0  0  0  0  0  0  0  0  0  0
   -5.8311    0.7064   -3.2709 H   0  0  0  0  0  0  0  0  0  0  0  0
    1.0017    1.0577    2.0389 H   0  0  0  0  0  0  0  0  0  0  0  0
    1.2117    3.4758    2.0910 H   0  0  0  0  0  0  0  0  0  0  0  0
    2.1876    3.4945    0.6251 H   0  0  0  0  0  0  0  0  0  0  0  0
    2.9838    2.0672    3.2345 H   0  0  0  0  0  0  0  0  0  0  0  0
    3.5858    3.6397    2.6702 H   0  0  0  0  0  0  0  0  0  0  0  0
    5.7547    0.8798   -0.2131 H   0  0  0  0  0  0  0  0  0  0  0  0
    4.4536    0.3394   -1.2543 H   0  0  0  0  0  0  0  0  0  0  0  0
    3.9532   -2.0136   -1.3458 H   0  0  0  0  0  0  0  0  0  0  0  0
    4.3293   -4.3104   -0.5206 H   0  0  0  0  0  0  0  0  0  0  0  0
    6.5274   -2.7583    2.8435 H   0  0  0  0  0  0  0  0  0  0  0  0
    6.1555   -0.4555    2.0278 H   0  0  0  0  0  0  0  0  0  0  0  0
    2.3272   -0.3590    0.9056 H   0  0  0  0  0  0  0  0  0  0  0  0
    2.1920    0.5281   -0.6236 H   0  0  0  0  0  0  0  0  0  0  0  0
  1  2  2  0
  2  3  1  0
  3  4  1  0
  4  5  1  0
  5  6  1  0
  6  7  1  0
  7  8  1  0
  8  9  1  0
  9 10  1  0
 10 11  1  0
  2 12  1  0
 12 13  1  0
 13 14  1  0
 14 15  1  0
 15 16  2  0
 15 17  1  0
 17 18  1  0
 18 19  1  0
 19 20  2  0
 20 21  1  0
 21 22  2  0
 22 23  1  0
 22 24  1  0
 24 25  2  0
 17 26  1  0
 11  7  1  0
 26 12  1  0
 25 19  1  0
  3 27  1  0
  4 28  1  0
  4 29  1  0
  5 30  1  0
  5 31  1  0
  6 32  1  0
  6 33  1  0
  7 34  1  0
  8 35  1  0
  8 36  1  0
  9 37  1  0
  9 38  1  0
 10 39  1  0
 10 40  1  0
 11 41  1  0
 11 42  1  0
 12 43  1  0
 13 44  1  0
 13 45  1  0
 14 46  1  0
 14 47  1  0
 18 48  1  0
 18 49  1  0
 20 50  1  0
 21 51  1  0
 24 52  1  0
 25 53  1  0
 26 54  1  0
 26 55  1  0
M  END
$$$$
