
     RDKit          3D

 41 43  0  0  0  0  0  0  0  0999 V2000
   -3.9007   -1.2088    0.7229 C   0  0  0  0  0  0  0  0  0  0  0  0
   -2.4535   -1.1055    1.1809 C   0  0  0  0  0  0  0  0  0  0  0  0
   -2.3571   -1.0092    2.7046 C   0  0  0  0  0  0  0  0  0  0  0  0
   -0.9305   -1.0738    3.2563 C   0  0  0  0  0  0  0  0  0  0  0  0
    0.0649    0.4007    2.8820 S   0  0  0  0  0  0  0  0  0  0  0  0
    0.7280   -0.0136    1.3311 C   0  0  0  0  0  0  0  0  0  0  0  0
    1.1149   -1.2289    1.0930 N   0  0  0  0  0  0  0  0  0  0  0  0
    1.4688   -1.2292   -0.2369 C   0  0  0  0  0  0  0  0  0  0  0  0
    1.9348   -2.3296   -0.8455 C   0  0  0  0  0  0  0  0  0  0  0  0
    2.3307   -2.5324   -2.2040 C   0  0  0  0  0  0  0  0  0  0  0  0
    1.6640   -2.0661   -3.3758 C   0  0  0  0  0  0  0  0  0  0  0  0
    2.2968   -2.4646   -4.5339 C   0  0  0  0  0  0  0  0  0  0  0  0
    3.6746   -3.4241   -4.2155 S   0  0  0  0  0  0  0  0  0  0  0  0
    3.4279   -3.3067   -2.5252 C   0  0  0  0  0  0  0  0  0  0  0  0
    1.2619    0.1438   -0.7970 C   0  0  0  0  0  0  0  0  0  0  0  0
    1.4942    0.5047   -1.9363 O   0  0  0  0  0  0  0  0  0  0  0  0
    0.8081    0.8666    0.2866 N   0  0  0  0  0  0  0  0  0  0  0  0
    0.5265    2.2601    0.2302 C   0  0  0  0  0  0  0  0  0  0  0  0
    0.0388    2.8370   -0.9547 C   0  0  0  0  0  0  0  0  0  0  0  0
   -0.2447    4.2046   -1.0374 C   0  0  0  0  0  0  0  0  0  0  0  0
   -0.0333    5.0279    0.0621 C   0  0  0  0  0  0  0  0  0  0  0  0
    0.4709    4.4843    1.2381 C   0  0  0  0  0  0  0  0  0  0  0  0
    0.7530    3.1152    1.3180 C   0  0  0  0  0  0  0  0  0  0  0  0
   -3.9487   -1.2695   -0.3689 H   0  0  0  0  0  0  0  0  0  0  0  0
   -4.3801   -2.1030    1.1337 H   0  0  0  0  0  0  0  0  0  0  0  0
   -4.4757   -0.3330    1.0404 H   0  0  0  0  0  0  0  0  0  0  0  0
   -2.0083   -0.2227    0.7120 H   0  0  0  0  0  0  0  0  0  0  0  0
   -1.9024   -1.9835    0.8254 H   0  0  0  0  0  0  0  0  0  0  0  0
   -2.9174   -1.8459    3.1419 H   0  0  0  0  0  0  0  0  0  0  0  0
   -2.8543   -0.0947    3.0520 H   0  0  0  0  0  0  0  0  0  0  0  0
   -0.9940   -1.1269    4.3491 H   0  0  0  0  0  0  0  0  0  0  0  0
   -0.4284   -1.9919    2.9363 H   0  0  0  0  0  0  0  0  0  0  0  0
    2.0471   -3.2028   -0.2024 H   0  0  0  0  0  0  0  0  0  0  0  0
    0.7656   -1.4609   -3.3864 H   0  0  0  0  0  0  0  0  0  0  0  0
    2.0124   -2.2399   -5.5526 H   0  0  0  0  0  0  0  0  0  0  0  0
    4.1133   -3.8072   -1.8546 H   0  0  0  0  0  0  0  0  0  0  0  0
   -0.1560    2.2311   -1.8371 H   0  0  0  0  0  0  0  0  0  0  0  0
   -0.6293    4.6217   -1.9649 H   0  0  0  0  0  0  0  0  0  0  0  0
   -0.2491    6.0912   -0.0012 H   0  0  0  0  0  0  0  0  0  0  0  0
    0.6611    5.1263    2.0950 H   0  0  0  0  0  0  0  0  0  0  0  0
    1.2053    2.7593    2.2386 H   0  0  0  0  0  0  0  0  0  0  0  0
  1  2  1  0
  2  3  1  0
  3  4  1  0
  4  5  1  0
  5  6  1  0
  6  7  2  0
  7  8  1  0
  8  9  2  3
  9 10  1  0
 10 11  1  0
 11 12  2  0
 12 13  1  0
 13 14  1  0
  8 15  1  0
 15 16  2  0
 15 17  1  0
 17 18  1  0
 18 19  2  0
 19 20  1  0
 20 21  2  0
 21 22  1  0
 22 23  2  0
 17  6  1  0
 23 18  1  0
 14 10  2  0
  1 24  1  0
  1 25  1  0
  1 26  1  0
  2 27  1  0
  2 28  1  0
  3 29  1  0
  3 30  1  0
  4 31  1  0
  4 32  1  0
  9 33  1  0
 11 34  1  0
 12 35  1  0
 14 36  1  0
 19 37  1  0
 20 38  1  0
 21 39  1  0
 22 40  1  0
 23 41  1  0
M  END
$$$$
