
     RDKit          3D

 48 50  0  0  0  0  0  0  0  0999 V2000
    4.2215    2.9287    0.1091 C   0  0  0  0  0  0  0  0  0  0  0  0
    3.1951    1.8510    0.2061 C   0  0  0  0  0  0  0  0  0  0  0  0
    1.9460    1.9509    0.7848 C   0  0  0  0  0  0  0  0  0  0  0  0
    1.2474    0.7396    0.5675 C   0  0  0  0  0  0  0  0  0  0  0  0
   -0.1050    0.4128    0.9900 C   0  0  0  0  0  0  0  0  0  0  0  0
   -0.7744    1.2977    1.6582 N   0  0  0  0  0  0  0  0  0  0  0  0
   -2.0652    1.0016    2.0232 N   0  0  0  0  0  0  0  0  0  0  0  0
   -2.9722    0.2651    1.2508 C   0  0  0  0  0  0  0  0  0  0  0  0
   -2.6905   -0.3142    0.2080 O   0  0  0  0  0  0  0  0  0  0  0  0
   -4.3471    0.2648    1.8973 C   0  0  0  0  0  0  0  0  0  0  0  0
   -5.4401   -0.4550    1.1086 C   0  0  0  0  0  0  0  0  0  0  0  0
   -6.7380   -0.4354    1.9268 C   0  0  0  0  0  0  0  0  0  0  0  0
   -5.0999   -1.8259    0.8740 O   0  0  0  0  0  0  0  0  0  0  0  0
   -5.5442   -2.0812   -0.4584 C   0  0  0  0  0  0  0  0  0  0  0  0
   -5.4474   -0.7450   -1.1485 C   0  0  0  0  0  0  0  0  0  0  0  0
   -5.7267    0.2146   -0.1269 O   0  0  0  0  0  0  0  0  0  0  0  0
    2.1128   -0.1037   -0.1220 C   0  0  0  0  0  0  0  0  0  0  0  0
    1.8964   -1.5380   -0.4887 C   0  0  0  0  0  0  0  0  0  0  0  0
    3.2991    0.5899   -0.3725 N   0  0  0  0  0  0  0  0  0  0  0  0
    4.4180    0.0992   -1.1082 C   0  0  0  0  0  0  0  0  0  0  0  0
    4.2204   -0.5597   -2.3275 C   0  0  0  0  0  0  0  0  0  0  0  0
    5.3177   -1.0332   -3.0518 C   0  0  0  0  0  0  0  0  0  0  0  0
    6.6151   -0.8543   -2.5636 C   0  0  0  0  0  0  0  0  0  0  0  0
    7.9224   -1.4655   -3.5129 Cl  0  0  0  0  0  0  0  0  0  0  0  0
    6.8142   -0.1974   -1.3442 C   0  0  0  0  0  0  0  0  0  0  0  0
    8.3880    0.0508   -0.6739 Cl  0  0  0  0  0  0  0  0  0  0  0  0
    5.7172    0.2800   -0.6180 C   0  0  0  0  0  0  0  0  0  0  0  0
    3.7618    3.9093    0.2757 H   0  0  0  0  0  0  0  0  0  0  0  0
    4.6872    2.9591   -0.8805 H   0  0  0  0  0  0  0  0  0  0  0  0
    4.9949    2.7978    0.8715 H   0  0  0  0  0  0  0  0  0  0  0  0
    1.5577    2.8253    1.2940 H   0  0  0  0  0  0  0  0  0  0  0  0
   -0.4848   -0.5909    0.7451 H   0  0  0  0  0  0  0  0  0  0  0  0
   -2.4466    1.6663    2.6900 H   0  0  0  0  0  0  0  0  0  0  0  0
   -4.6366    1.3127    2.0474 H   0  0  0  0  0  0  0  0  0  0  0  0
   -4.2278   -0.2130    2.8783 H   0  0  0  0  0  0  0  0  0  0  0  0
   -7.5515   -0.9252    1.3791 H   0  0  0  0  0  0  0  0  0  0  0  0
   -6.6192   -0.9719    2.8742 H   0  0  0  0  0  0  0  0  0  0  0  0
   -7.0635    0.5902    2.1318 H   0  0  0  0  0  0  0  0  0  0  0  0
   -4.9324   -2.8549   -0.9292 H   0  0  0  0  0  0  0  0  0  0  0  0
   -6.5814   -2.4304   -0.4109 H   0  0  0  0  0  0  0  0  0  0  0  0
   -4.4417   -0.5587   -1.5349 H   0  0  0  0  0  0  0  0  0  0  0  0
   -6.1572   -0.6409   -1.9736 H   0  0  0  0  0  0  0  0  0  0  0  0
    1.4497   -1.6153   -1.4844 H   0  0  0  0  0  0  0  0  0  0  0  0
    2.8262   -2.1140   -0.4643 H   0  0  0  0  0  0  0  0  0  0  0  0
    1.2190   -2.0246    0.2204 H   0  0  0  0  0  0  0  0  0  0  0  0
    3.2254   -0.6766   -2.7509 H   0  0  0  0  0  0  0  0  0  0  0  0
    5.1535   -1.5340   -4.0035 H   0  0  0  0  0  0  0  0  0  0  0  0
    5.8868    0.7514    0.3465 H   0  0  0  0  0  0  0  0  0  0  0  0
  1  2  1  0
  2  3  2  0
  3  4  1  0
  4  5  1  0
  5  6  2  3
  6  7  1  0
  7  8  1  0
  8  9  2  0
  8 10  1  0
 10 11  1  0
 11 12  1  0
 11 13  1  0
 13 14  1  0
 14 15  1  0
 15 16  1  0
  4 17  2  0
 17 18  1  0
 17 19  1  0
 19 20  1  0
 20 21  2  0
 21 22  1  0
 22 23  2  0
 23 24  1  0
 23 25  1  0
 25 26  1  0
 25 27  2  0
 19  2  1  0
 27 20  1  0
 16 11  1  0
  1 28  1  0
  1 29  1  0
  1 30  1  0
  3 31  1  0
  5 32  1  0
  7 33  1  0
 10 34  1  0
 10 35  1  0
 12 36  1  0
 12 37  1  0
 12 38  1  0
 14 39  1  0
 14 40  1  0
 15 41  1  0
 15 42  1  0
 18 43  1  0
 18 44  1  0
 18 45  1  0
 21 46  1  0
 22 47  1  0
 27 48  1  0
M  END
$$$$
