
     RDKit          3D

 53 55  0  0  0  0  0  0  0  0999 V2000
   -2.1691    0.1859   -3.8957 C   0  0  0  0  0  0  0  0  0  0  0  0
   -3.2208    0.0985   -2.9374 O   0  0  0  0  0  0  0  0  0  0  0  0
   -3.0750    0.8657   -1.8083 C   0  0  0  0  0  0  0  0  0  0  0  0
   -2.3463    2.0589   -1.7727 C   0  0  0  0  0  0  0  0  0  0  0  0
   -2.2454    2.7875   -0.5852 C   0  0  0  0  0  0  0  0  0  0  0  0
   -2.8618    2.3249    0.5807 C   0  0  0  0  0  0  0  0  0  0  0  0
   -2.7286    3.0382    1.8538 C   0  0  0  0  0  0  0  0  0  0  0  0
   -1.5960    3.3980    2.4812 C   0  0  0  0  0  0  0  0  0  0  0  0
   -0.1718    3.1877    2.0865 C   0  0  0  0  0  0  0  0  0  0  0  0
    0.6407    4.0486    2.4038 O   0  0  0  0  0  0  0  0  0  0  0  0
    0.0801    2.0057    1.4340 N   0  0  0  0  0  0  0  0  0  0  0  0
    1.2996    1.5785    0.8711 C   0  0  0  0  0  0  0  0  0  0  0  0
    2.5065    2.2688    1.0044 C   0  0  0  0  0  0  0  0  0  0  0  0
    3.6707    1.7959    0.3884 C   0  0  0  0  0  0  0  0  0  0  0  0
    3.6414    0.6265   -0.3625 C   0  0  0  0  0  0  0  0  0  0  0  0
    2.4430   -0.0802   -0.4802 C   0  0  0  0  0  0  0  0  0  0  0  0
    2.3700   -1.5387   -1.5029 S   0  0  0  0  0  6  0  0  0  0  0  0
    3.4780   -1.4658   -2.4347 O   0  0  0  0  0  0  0  0  0  0  0  0
    1.0036   -1.6666   -1.9739 O   0  0  0  0  0  0  0  0  0  0  0  0
    2.6736   -2.7981   -0.4275 N   0  0  0  0  0  0  0  0  0  0  0  0
    4.0253   -2.9640    0.1456 C   0  0  0  0  0  0  0  0  0  0  0  0
    3.7843   -3.2879    1.6163 C   0  0  0  0  0  0  0  0  0  0  0  0
    2.4333   -3.9825    1.6013 C   0  0  0  0  0  0  0  0  0  0  0  0
    1.6555   -3.1679    0.5768 C   0  0  0  0  0  0  0  0  0  0  0  0
    1.2719    0.3991    0.1198 C   0  0  0  0  0  0  0  0  0  0  0  0
   -3.6272    1.1495    0.5363 C   0  0  0  0  0  0  0  0  0  0  0  0
   -3.7399    0.4148   -0.6517 C   0  0  0  0  0  0  0  0  0  0  0  0
   -4.4442   -0.7554   -0.7779 O   0  0  0  0  0  0  0  0  0  0  0  0
   -5.2026   -1.2003    0.3391 C   0  0  0  0  0  0  0  0  0  0  0  0
   -2.2732   -0.6629   -4.5843 H   0  0  0  0  0  0  0  0  0  0  0  0
   -2.2584    1.1055   -4.4820 H   0  0  0  0  0  0  0  0  0  0  0  0
   -1.1814    0.1085   -3.4256 H   0  0  0  0  0  0  0  0  0  0  0  0
   -1.8554    2.4507   -2.6590 H   0  0  0  0  0  0  0  0  0  0  0  0
   -1.6708    3.7115   -0.5808 H   0  0  0  0  0  0  0  0  0  0  0  0
   -3.6774    3.3045    2.3189 H   0  0  0  0  0  0  0  0  0  0  0  0
   -1.6773    3.9892    3.3937 H   0  0  0  0  0  0  0  0  0  0  0  0
   -0.7109    1.3943    1.2787 H   0  0  0  0  0  0  0  0  0  0  0  0
    2.5760    3.1894    1.5767 H   0  0  0  0  0  0  0  0  0  0  0  0
    4.5967    2.3577    0.4878 H   0  0  0  0  0  0  0  0  0  0  0  0
    4.5448    0.2829   -0.8619 H   0  0  0  0  0  0  0  0  0  0  0  0
    4.6605   -2.0807    0.0412 H   0  0  0  0  0  0  0  0  0  0  0  0
    4.5136   -3.8032   -0.3612 H   0  0  0  0  0  0  0  0  0  0  0  0
    4.5777   -3.9101    2.0443 H   0  0  0  0  0  0  0  0  0  0  0  0
    3.7241   -2.3598    2.1994 H   0  0  0  0  0  0  0  0  0  0  0  0
    2.5453   -5.0185    1.2596 H   0  0  0  0  0  0  0  0  0  0  0  0
    1.9492   -3.9933    2.5831 H   0  0  0  0  0  0  0  0  0  0  0  0
    0.8517   -3.7583    0.1255 H   0  0  0  0  0  0  0  0  0  0  0  0
    1.2305   -2.2817    1.0565 H   0  0  0  0  0  0  0  0  0  0  0  0
    0.3368   -0.1401   -0.0243 H   0  0  0  0  0  0  0  0  0  0  0  0
   -4.1141    0.8134    1.4470 H   0  0  0  0  0  0  0  0  0  0  0  0
   -4.5535   -1.4337    1.1882 H   0  0  0  0  0  0  0  0  0  0  0  0
   -5.9687   -0.4656    0.6137 H   0  0  0  0  0  0  0  0  0  0  0  0
   -5.7144   -2.1251    0.0517 H   0  0  0  0  0  0  0  0  0  0  0  0
  1  2  1  0
  2  3  1  0
  3  4  2  0
  4  5  1  0
  5  6  2  0
  6  7  1  0
  7  8  2  3
  8  9  1  0
  9 10  2  0
  9 11  1  0
 11 12  1  0
 12 13  2  0
 13 14  1  0
 14 15  2  0
 15 16  1  0
 16 17  1  0
 17 18  2  0
 17 19  2  0
 17 20  1  0
 20 21  1  0
 21 22  1  0
 22 23  1  0
 23 24  1  0
 16 25  2  0
  6 26  1  0
 26 27  2  0
 27 28  1  0
 28 29  1  0
 27  3  1  0
 25 12  1  0
 24 20  1  0
  1 30  1  0
  1 31  1  0
  1 32  1  0
  4 33  1  0
  5 34  1  0
  7 35  1  0
  8 36  1  0
 11 37  1  0
 13 38  1  0
 14 39  1  0
 15 40  1  0
 21 41  1  0
 21 42  1  0
 22 43  1  0
 22 44  1  0
 23 45  1  0
 23 46  1  0
 24 47  1  0
 24 48  1  0
 25 49  1  0
 26 50  1  0
 29 51  1  0
 29 52  1  0
 29 53  1  0
M  END
$$$$
