
     RDKit          3D

 33 35  0  0  0  0  0  0  0  0999 V2000
   -5.0235   -2.2701    0.6821 C   0  0  0  0  0  0  0  0  0  0  0  0
   -4.7191   -0.8843    0.1989 C   0  0  0  0  0  0  0  0  0  0  0  0
   -5.7430    0.0037   -0.0579 C   0  0  0  0  0  0  0  0  0  0  0  0
   -5.3638    1.2499   -0.4965 C   0  0  0  0  0  0  0  0  0  0  0  0
   -4.0832    1.6166   -0.6732 N   0  0  0  0  0  0  0  0  0  0  0  0
   -3.1522    0.6906   -0.3924 C   0  0  0  0  0  0  0  0  0  0  0  0
   -1.4644    1.1712   -0.6397 S   0  0  0  0  0  0  0  0  0  0  0  0
   -0.6397   -0.1455    0.3042 C   0  0  0  0  0  0  0  0  0  0  0  0
    0.8373    0.0674    0.3403 C   0  0  0  0  0  0  0  0  0  0  0  0
    1.7531   -0.0111   -0.6915 C   0  0  0  0  0  0  0  0  0  0  0  0
    2.9804    0.2687   -0.1394 N   0  0  0  0  0  0  0  0  0  0  0  0
    4.2521    0.3374   -0.7373 C   0  0  0  0  0  0  0  0  0  0  0  0
    4.3932    0.0868   -2.2073 C   0  0  0  0  0  0  0  0  0  0  0  0
    5.3065    0.6321    0.0524 C   0  0  0  0  0  0  0  0  0  0  0  0
    5.1024    0.8665    1.4727 C   0  0  0  0  0  0  0  0  0  0  0  0
    3.8790    0.7968    2.0287 C   0  0  0  0  0  0  0  0  0  0  0  0
    2.7525    0.4877    1.2179 C   0  0  0  0  0  0  0  0  0  0  0  0
    1.4784    0.3634    1.5241 N   0  0  0  0  0  0  0  0  0  0  0  0
   -3.4208   -0.5568    0.0328 N   0  0  0  0  0  0  0  0  0  0  0  0
   -4.1024   -2.8442    0.8255 H   0  0  0  0  0  0  0  0  0  0  0  0
   -5.6439   -2.7982   -0.0486 H   0  0  0  0  0  0  0  0  0  0  0  0
   -5.5521   -2.2283    1.6396 H   0  0  0  0  0  0  0  0  0  0  0  0
   -6.7845   -0.2570    0.0743 H   0  0  0  0  0  0  0  0  0  0  0  0
   -6.1004    2.0143   -0.7259 H   0  0  0  0  0  0  0  0  0  0  0  0
   -0.8453   -1.1179   -0.1566 H   0  0  0  0  0  0  0  0  0  0  0  0
   -1.0295   -0.1599    1.3279 H   0  0  0  0  0  0  0  0  0  0  0  0
    1.6280   -0.2235   -1.7429 H   0  0  0  0  0  0  0  0  0  0  0  0
    4.0534   -0.9227   -2.4612 H   0  0  0  0  0  0  0  0  0  0  0  0
    5.4345    0.1756   -2.5362 H   0  0  0  0  0  0  0  0  0  0  0  0
    3.8054    0.8108   -2.7812 H   0  0  0  0  0  0  0  0  0  0  0  0
    6.3179    0.7040   -0.3350 H   0  0  0  0  0  0  0  0  0  0  0  0
    5.9718    1.1036    2.0785 H   0  0  0  0  0  0  0  0  0  0  0  0
    3.7215    0.9724    3.0863 H   0  0  0  0  0  0  0  0  0  0  0  0
  1  2  1  0
  2  3  2  0
  3  4  1  0
  4  5  2  0
  5  6  1  0
  6  7  1  0
  7  8  1  0
  8  9  1  0
  9 10  2  0
 10 11  1  0
 11 12  1  0
 12 13  1  0
 12 14  2  0
 14 15  1  0
 15 16  2  0
 16 17  1  0
 17 18  2  0
  6 19  2  0
 19  2  1  0
 18  9  1  0
 17 11  1  0
  1 20  1  0
  1 21  1  0
  1 22  1  0
  3 23  1  0
  4 24  1  0
  8 25  1  0
  8 26  1  0
 10 27  1  0
 13 28  1  0
 13 29  1  0
 13 30  1  0
 14 31  1  0
 15 32  1  0
 16 33  1  0
M  END
$$$$
