
     RDKit          3D

 49 52  0  0  0  0  0  0  0  0999 V2000
    1.0074    1.0631    4.3183 N   0  0  0  0  0  0  0  0  0  0  0  0
   -0.1000    0.8262    3.5905 C   0  0  0  0  0  0  0  0  0  0  0  0
   -1.2555    1.3179    3.9229 N   0  0  0  0  0  0  0  0  0  0  0  0
   -2.1841    0.7836    2.8912 C   0  0  0  0  0  0  0  0  0  0  0  0
   -1.3101    0.1574    1.7823 C   0  0  0  0  0  0  0  0  0  0  0  0
   -1.2366    1.0552    0.5319 C   0  0  0  0  0  0  0  0  0  0  0  0
   -2.5044    1.0337   -0.2920 C   0  0  0  0  0  0  0  0  0  0  0  0
   -2.8478   -0.0998   -1.0447 C   0  0  0  0  0  0  0  0  0  0  0  0
   -4.0247   -0.1219   -1.7983 C   0  0  0  0  0  0  0  0  0  0  0  0
   -4.8539    0.9954   -1.8062 C   0  0  0  0  0  0  0  0  0  0  0  0
   -6.0090    1.0198   -2.5305 O   0  0  0  0  0  0  0  0  0  0  0  0
   -4.5229    2.1317   -1.0787 C   0  0  0  0  0  0  0  0  0  0  0  0
   -3.3510    2.1510   -0.3210 C   0  0  0  0  0  0  0  0  0  0  0  0
    0.0037    0.1003    2.4404 N   0  0  0  0  0  0  0  0  0  0  0  0
    0.7895   -1.1299    2.3361 C   0  0  0  0  0  0  0  0  0  0  0  0
    1.1476   -1.5328    0.8948 C   0  0  0  0  0  0  0  0  0  0  0  0
    2.1690   -0.7089    0.1215 C   0  0  0  0  0  0  0  0  0  0  0  0
    2.6606    0.5042    0.6327 C   0  0  0  0  0  0  0  0  0  0  0  0
    3.5920    1.2589   -0.0747 C   0  0  0  0  0  0  0  0  0  0  0  0
    4.0505    0.8198   -1.3103 C   0  0  0  0  0  0  0  0  0  0  0  0
    3.5824   -0.3785   -1.8614 C   0  0  0  0  0  0  0  0  0  0  0  0
    4.0555   -0.8003   -3.1153 C   0  0  0  0  0  0  0  0  0  0  0  0
    3.6044   -1.9854   -3.6921 C   0  0  0  0  0  0  0  0  0  0  0  0
    2.6719   -2.7630   -3.0225 C   0  0  0  0  0  0  0  0  0  0  0  0
    2.1922   -2.3554   -1.7740 C   0  0  0  0  0  0  0  0  0  0  0  0
    2.6307   -1.1597   -1.1551 C   0  0  0  0  0  0  0  0  0  0  0  0
    1.5732    0.2496    4.5102 H   0  0  0  0  0  0  0  0  0  0  0  0
    0.7567    1.5372    5.1807 H   0  0  0  0  0  0  0  0  0  0  0  0
   -2.8353    1.5842    2.5297 H   0  0  0  0  0  0  0  0  0  0  0  0
   -2.8156    0.0180    3.3587 H   0  0  0  0  0  0  0  0  0  0  0  0
   -1.6859   -0.8419    1.5327 H   0  0  0  0  0  0  0  0  0  0  0  0
   -0.9931    2.0868    0.8212 H   0  0  0  0  0  0  0  0  0  0  0  0
   -0.4141    0.7424   -0.1196 H   0  0  0  0  0  0  0  0  0  0  0  0
   -2.1934   -0.9688   -1.0586 H   0  0  0  0  0  0  0  0  0  0  0  0
   -4.2695   -1.0079   -2.3749 H   0  0  0  0  0  0  0  0  0  0  0  0
   -6.1108    0.1629   -2.9770 H   0  0  0  0  0  0  0  0  0  0  0  0
   -5.1704    3.0056   -1.1069 H   0  0  0  0  0  0  0  0  0  0  0  0
   -3.1071    3.0451    0.2495 H   0  0  0  0  0  0  0  0  0  0  0  0
    0.2127   -1.9440    2.7941 H   0  0  0  0  0  0  0  0  0  0  0  0
    1.7202   -1.0511    2.9086 H   0  0  0  0  0  0  0  0  0  0  0  0
    1.5527   -2.5510    0.9684 H   0  0  0  0  0  0  0  0  0  0  0  0
    0.2322   -1.5931    0.2950 H   0  0  0  0  0  0  0  0  0  0  0  0
    2.3204    0.8985    1.5879 H   0  0  0  0  0  0  0  0  0  0  0  0
    3.9541    2.1968    0.3372 H   0  0  0  0  0  0  0  0  0  0  0  0
    4.7762    1.4292   -1.8443 H   0  0  0  0  0  0  0  0  0  0  0  0
    4.7853   -0.2018   -3.6575 H   0  0  0  0  0  0  0  0  0  0  0  0
    3.9797   -2.2939   -4.6646 H   0  0  0  0  0  0  0  0  0  0  0  0
    2.3143   -3.6893   -3.4643 H   0  0  0  0  0  0  0  0  0  0  0  0
    1.4601   -2.9963   -1.2892 H   0  0  0  0  0  0  0  0  0  0  0  0
  1  2  1  0
  2  3  2  0
  3  4  1  0
  4  5  1  0
  5  6  1  0
  6  7  1  0
  7  8  2  0
  8  9  1  0
  9 10  2  0
 10 11  1  0
 10 12  1  0
 12 13  2  0
  5 14  1  0
 14 15  1  0
 15 16  1  0
 16 17  1  0
 17 18  2  0
 18 19  1  0
 19 20  2  0
 20 21  1  0
 21 22  2  0
 22 23  1  0
 23 24  2  0
 24 25  1  0
 25 26  2  0
 14  2  1  0
 26 17  1  0
 13  7  1  0
 26 21  1  0
  1 27  1  0
  1 28  1  0
  4 29  1  0
  4 30  1  0
  5 31  1  0
  6 32  1  0
  6 33  1  0
  8 34  1  0
  9 35  1  0
 11 36  1  0
 12 37  1  0
 13 38  1  0
 15 39  1  0
 15 40  1  0
 16 41  1  0
 16 42  1  0
 18 43  1  0
 19 44  1  0
 20 45  1  0
 22 46  1  0
 23 47  1  0
 24 48  1  0
 25 49  1  0
M  END
$$$$
