
     RDKit          3D

 41 44  0  0  0  0  0  0  0  0999 V2000
    2.8669   -3.8603    3.1060 C   0  0  0  0  0  0  0  0  0  0  0  0
    3.3683   -4.0038    1.7840 O   0  0  0  0  0  0  0  0  0  0  0  0
    2.8704   -3.1602    0.8279 C   0  0  0  0  0  0  0  0  0  0  0  0
    3.4274   -3.3341   -0.4365 C   0  0  0  0  0  0  0  0  0  0  0  0
    3.0180   -2.5614   -1.5241 C   0  0  0  0  0  0  0  0  0  0  0  0
    2.0304   -1.5984   -1.2960 C   0  0  0  0  0  0  0  0  0  0  0  0
    1.4415   -0.7314   -2.1759 N   0  0  0  0  0  0  0  0  0  0  0  0
    0.4821    0.0453   -1.5604 C   0  0  0  0  0  0  0  0  0  0  0  0
   -0.3691    1.0151   -2.1248 C   0  0  0  0  0  0  0  0  0  0  0  0
   -0.3198    1.3457   -3.5974 C   0  0  0  0  0  0  0  0  0  0  0  0
   -1.2967    1.6454   -1.2520 C   0  0  0  0  0  0  0  0  0  0  0  0
   -2.2255    2.5856   -1.7338 C   0  0  0  0  0  0  0  0  0  0  0  0
   -3.1391    3.1903   -0.8847 C   0  0  0  0  0  0  0  0  0  0  0  0
   -3.1504    2.8826    0.4222 N   0  0  0  0  0  4  0  0  0  0  0  0
   -4.1319    3.5116    1.3226 C   0  0  0  0  0  0  0  0  0  0  0  0
   -2.2756    1.9857    0.9256 C   0  0  0  0  0  0  0  0  0  0  0  0
   -1.3105    1.3404    0.1304 C   0  0  0  0  0  0  0  0  0  0  0  0
   -0.3736    0.4042    0.6795 C   0  0  0  0  0  0  0  0  0  0  0  0
   -0.3270    0.1474    2.1689 C   0  0  0  0  0  0  0  0  0  0  0  0
    0.4921   -0.2970   -0.2086 C   0  0  0  0  0  0  0  0  0  0  0  0
    1.4534   -1.3702   -0.0506 C   0  0  0  0  0  0  0  0  0  0  0  0
    1.8819   -2.1869    1.0273 C   0  0  0  0  0  0  0  0  0  0  0  0
    3.0809   -2.8628    3.5039 H   0  0  0  0  0  0  0  0  0  0  0  0
    3.3808   -4.5892    3.7401 H   0  0  0  0  0  0  0  0  0  0  0  0
    1.7951   -4.0806    3.1465 H   0  0  0  0  0  0  0  0  0  0  0  0
    4.1937   -4.0933   -0.5822 H   0  0  0  0  0  0  0  0  0  0  0  0
    3.4541   -2.7152   -2.5062 H   0  0  0  0  0  0  0  0  0  0  0  0
    1.6716   -0.6958   -3.1580 H   0  0  0  0  0  0  0  0  0  0  0  0
   -1.2653    1.0734   -4.0777 H   0  0  0  0  0  0  0  0  0  0  0  0
   -0.1295    2.4145   -3.7403 H   0  0  0  0  0  0  0  0  0  0  0  0
    0.4768    0.8085   -4.1190 H   0  0  0  0  0  0  0  0  0  0  0  0
   -2.2585    2.8601   -2.7863 H   0  0  0  0  0  0  0  0  0  0  0  0
   -3.8638    3.9132   -1.2480 H   0  0  0  0  0  0  0  0  0  0  0  0
   -4.6362    4.3340    0.8098 H   0  0  0  0  0  0  0  0  0  0  0  0
   -4.8542    2.7438    1.6117 H   0  0  0  0  0  0  0  0  0  0  0  0
   -3.5971    3.8968    2.1950 H   0  0  0  0  0  0  0  0  0  0  0  0
   -2.3822    1.7899    1.9871 H   0  0  0  0  0  0  0  0  0  0  0  0
   -0.5415    1.0513    2.7463 H   0  0  0  0  0  0  0  0  0  0  0  0
    0.6750   -0.1451    2.4886 H   0  0  0  0  0  0  0  0  0  0  0  0
   -1.0404   -0.6364    2.4393 H   0  0  0  0  0  0  0  0  0  0  0  0
    1.4275   -2.0629    1.9997 H   0  0  0  0  0  0  0  0  0  0  0  0
  1  2  1  0
  2  3  1  0
  3  4  2  0
  4  5  1  0
  5  6  2  0
  6  7  1  0
  7  8  1  0
  8  9  2  0
  9 10  1  0
  9 11  1  0
 11 12  2  0
 12 13  1  0
 13 14  2  0
 14 15  1  0
 14 16  1  0
 16 17  2  0
 17 18  1  0
 18 19  1  0
 18 20  2  0
 20 21  1  0
 21 22  2  0
 22  3  1  0
 21  6  1  0
 20  8  1  0
 17 11  1  0
  1 23  1  0
  1 24  1  0
  1 25  1  0
  4 26  1  0
  5 27  1  0
  7 28  1  0
 10 29  1  0
 10 30  1  0
 10 31  1  0
 12 32  1  0
 13 33  1  0
 15 34  1  0
 15 35  1  0
 15 36  1  0
 16 37  1  0
 19 38  1  0
 19 39  1  0
 19 40  1  0
 22 41  1  0
M  CHG  1  14   1
M  END
$$$$
