
     RDKit          3D

 50 52  0  0  0  0  0  0  0  0999 V2000
   10.3943   -0.2438    1.4509 C   0  0  0  0  0  0  0  0  0  0  0  0
    9.8751   -0.3775    0.0277 C   0  0  0  0  0  0  0  0  0  0  0  0
    8.6141    0.3970   -0.1682 C   0  0  0  0  0  0  0  0  0  0  0  0
    8.5601    1.6853   -0.4419 N   0  0  0  0  0  0  0  0  0  0  0  0
    7.2602    2.1357   -0.5644 N   0  0  0  0  0  0  0  0  0  0  0  0
    6.3951    1.1612   -0.4216 C   0  0  0  0  0  0  0  0  0  0  0  0
    4.9699    1.4478   -0.4504 N   0  0  0  0  0  0  0  0  0  0  0  0
    4.2987    1.0229   -1.9434 S   0  0  0  0  0  6  0  0  0  0  0  0
    4.9444   -0.1482   -2.4932 O   0  0  0  0  0  0  0  0  0  0  0  0
    4.1649    2.2497   -2.6988 O   0  0  0  0  0  0  0  0  0  0  0  0
    2.6720    0.5268   -1.4255 C   0  0  0  0  0  0  0  0  0  0  0  0
    2.4795   -0.7534   -0.9056 C   0  0  0  0  0  0  0  0  0  0  0  0
    1.1993   -1.1605   -0.5063 C   0  0  0  0  0  0  0  0  0  0  0  0
    0.1067   -0.3012   -0.6270 C   0  0  0  0  0  0  0  0  0  0  0  0
   -1.2248   -0.5954   -0.2607 N   0  0  0  0  0  0  0  0  0  0  0  0
   -1.8477   -1.6926    0.2864 C   0  0  0  0  0  0  0  0  0  0  0  0
   -1.2208   -3.1656    0.7603 S   0  0  0  0  0  0  0  0  0  0  0  0
   -3.2173   -1.5464    0.4723 N   0  0  0  0  0  0  0  0  0  0  0  0
   -4.0222   -0.4565    0.1916 C   0  0  0  0  0  0  0  0  0  0  0  0
   -3.6097    0.6001   -0.2760 O   0  0  0  0  0  0  0  0  0  0  0  0
   -5.4519   -0.6890    0.5194 C   0  0  0  0  0  0  0  0  0  0  0  0
   -6.3441    0.2952    0.3302 C   0  0  0  0  0  0  0  0  0  0  0  0
   -7.7734    0.1662    0.6404 C   0  0  0  0  0  0  0  0  0  0  0  0
   -8.5034   -0.9901    0.3346 C   0  0  0  0  0  0  0  0  0  0  0  0
   -9.8686   -1.0640    0.6233 C   0  0  0  0  0  0  0  0  0  0  0  0
  -10.5183    0.0197    1.2103 C   0  0  0  0  0  0  0  0  0  0  0  0
   -9.8060    1.1804    1.5034 C   0  0  0  0  0  0  0  0  0  0  0  0
   -8.4413    1.2553    1.2143 C   0  0  0  0  0  0  0  0  0  0  0  0
    0.3221    0.9800   -1.1657 C   0  0  0  0  0  0  0  0  0  0  0  0
    1.5943    1.3970   -1.5686 C   0  0  0  0  0  0  0  0  0  0  0  0
    7.0723   -0.3545   -0.0269 S   0  0  0  0  0  0  0  0  0  0  0  0
   11.3268   -0.8050    1.5694 H   0  0  0  0  0  0  0  0  0  0  0  0
   10.5936    0.8032    1.7032 H   0  0  0  0  0  0  0  0  0  0  0  0
    9.6698   -0.6316    2.1757 H   0  0  0  0  0  0  0  0  0  0  0  0
   10.6337   -0.0042   -0.6704 H   0  0  0  0  0  0  0  0  0  0  0  0
    9.7241   -1.4367   -0.2105 H   0  0  0  0  0  0  0  0  0  0  0  0
    4.8785    2.4627   -0.3706 H   0  0  0  0  0  0  0  0  0  0  0  0
    3.3140   -1.4452   -0.8097 H   0  0  0  0  0  0  0  0  0  0  0  0
    1.1102   -2.1638   -0.1121 H   0  0  0  0  0  0  0  0  0  0  0  0
   -1.8759    0.1724   -0.4394 H   0  0  0  0  0  0  0  0  0  0  0  0
   -3.6461   -2.3709    0.8701 H   0  0  0  0  0  0  0  0  0  0  0  0
   -5.7428   -1.6512    0.9213 H   0  0  0  0  0  0  0  0  0  0  0  0
   -6.0273    1.2659   -0.0486 H   0  0  0  0  0  0  0  0  0  0  0  0
   -8.0256   -1.8405   -0.1448 H   0  0  0  0  0  0  0  0  0  0  0  0
  -10.4266   -1.9657    0.3830 H   0  0  0  0  0  0  0  0  0  0  0  0
  -11.5808   -0.0376    1.4328 H   0  0  0  0  0  0  0  0  0  0  0  0
  -10.3123    2.0297    1.9549 H   0  0  0  0  0  0  0  0  0  0  0  0
   -7.9033    2.1713    1.4491 H   0  0  0  0  0  0  0  0  0  0  0  0
   -0.5082    1.6749   -1.2834 H   0  0  0  0  0  0  0  0  0  0  0  0
    1.7245    2.3907   -1.9908 H   0  0  0  0  0  0  0  0  0  0  0  0
  1  2  1  0
  2  3  1  0
  3  4  2  0
  4  5  1  0
  5  6  2  0
  6  7  1  0
  7  8  1  0
  8  9  2  0
  8 10  2  0
  8 11  1  0
 11 12  2  0
 12 13  1  0
 13 14  2  0
 14 15  1  0
 15 16  1  0
 16 17  2  0
 16 18  1  0
 18 19  1  0
 19 20  2  0
 19 21  1  0
 21 22  2  3
 22 23  1  0
 23 24  2  0
 24 25  1  0
 25 26  2  0
 26 27  1  0
 27 28  2  0
 14 29  1  0
 29 30  2  0
  6 31  1  0
 31  3  1  0
 30 11  1  0
 28 23  1  0
  1 32  1  0
  1 33  1  0
  1 34  1  0
  2 35  1  0
  2 36  1  0
  7 37  1  0
 12 38  1  0
 13 39  1  0
 15 40  1  0
 18 41  1  0
 21 42  1  0
 22 43  1  0
 24 44  1  0
 25 45  1  0
 26 46  1  0
 27 47  1  0
 28 48  1  0
 29 49  1  0
 30 50  1  0
M  END
$$$$
