
     RDKit          3D

 36 38  0  0  0  0  0  0  0  0999 V2000
   -1.7459    2.5598    1.8460 C   0  0  0  0  0  0  0  0  0  0  0  0
   -1.8343    1.2277    1.1596 C   0  0  0  0  0  0  0  0  0  0  0  0
   -2.6593    1.0666    0.0380 C   0  0  0  0  0  0  0  0  0  0  0  0
   -2.7634   -0.1745   -0.5908 C   0  0  0  0  0  0  0  0  0  0  0  0
   -2.0335   -1.2591   -0.0962 C   0  0  0  0  0  0  0  0  0  0  0  0
   -2.1065   -2.8243   -0.9359 S   0  0  0  0  0  6  0  0  0  0  0  0
   -1.8624   -3.8620    0.0427 O   0  0  0  0  0  0  0  0  0  0  0  0
   -3.2949   -2.8269   -1.7590 O   0  0  0  0  0  0  0  0  0  0  0  0
   -0.7417   -2.8171   -1.9671 N   0  0  0  0  0  0  0  0  0  0  0  0
   -0.1538   -1.4699   -2.3206 N   0  0  0  0  0  0  0  0  0  0  0  0
    0.8806   -0.9906   -1.5319 C   0  0  0  0  0  0  0  0  0  0  0  0
    1.4107   -1.6350   -0.6382 O   0  0  0  0  0  0  0  0  0  0  0  0
    1.2371    0.3880   -1.9747 C   0  0  0  0  0  0  0  0  0  0  0  0
    2.0242    1.2958   -1.3801 C   0  0  0  0  0  0  0  0  0  0  0  0
    2.7082    1.1041   -0.1490 C   0  0  0  0  0  0  0  0  0  0  0  0
    3.5889    0.1173    0.2568 C   0  0  0  0  0  0  0  0  0  0  0  0
    4.0674    0.3080    1.5861 C   0  0  0  0  0  0  0  0  0  0  0  0
    3.5567    1.4498    2.1568 C   0  0  0  0  0  0  0  0  0  0  0  0
    2.5153    2.2853    1.0930 S   0  0  0  0  0  0  0  0  0  0  0  0
    0.3679    0.7650   -3.4352 S   0  0  0  0  0  0  0  0  0  0  0  0
   -0.5434   -0.7411   -3.4213 C   0  0  0  0  0  0  0  0  0  0  0  0
   -1.6613   -1.1403   -4.5857 S   0  0  0  0  0  0  0  0  0  0  0  0
   -1.2472   -1.1254    1.0504 C   0  0  0  0  0  0  0  0  0  0  0  0
   -1.1449    0.1201    1.6709 C   0  0  0  0  0  0  0  0  0  0  0  0
   -0.8108    2.6523    2.4079 H   0  0  0  0  0  0  0  0  0  0  0  0
   -1.7671    3.3739    1.1139 H   0  0  0  0  0  0  0  0  0  0  0  0
   -2.5849    2.6801    2.5382 H   0  0  0  0  0  0  0  0  0  0  0  0
   -3.2297    1.9097   -0.3482 H   0  0  0  0  0  0  0  0  0  0  0  0
   -3.4098   -0.2839   -1.4599 H   0  0  0  0  0  0  0  0  0  0  0  0
   -0.0442   -3.4490   -1.5543 H   0  0  0  0  0  0  0  0  0  0  0  0
    2.1130    2.2868   -1.8237 H   0  0  0  0  0  0  0  0  0  0  0  0
    3.8769   -0.7206   -0.3674 H   0  0  0  0  0  0  0  0  0  0  0  0
    4.7529   -0.3596    2.0937 H   0  0  0  0  0  0  0  0  0  0  0  0
    3.7505    1.8384    3.1472 H   0  0  0  0  0  0  0  0  0  0  0  0
   -0.6931   -1.9718    1.4520 H   0  0  0  0  0  0  0  0  0  0  0  0
   -0.5183    0.2225    2.5554 H   0  0  0  0  0  0  0  0  0  0  0  0
  1  2  1  0
  2  3  2  0
  3  4  1  0
  4  5  2  0
  5  6  1  0
  6  7  2  0
  6  8  2  0
  6  9  1  0
  9 10  1  0
 10 11  1  0
 11 12  2  0
 11 13  1  0
 13 14  2  3
 14 15  1  0
 15 16  2  0
 16 17  1  0
 17 18  2  0
 18 19  1  0
 13 20  1  0
 20 21  1  0
 21 22  2  0
  5 23  1  0
 23 24  2  0
 24  2  1  0
 21 10  1  0
 19 15  1  0
  1 25  1  0
  1 26  1  0
  1 27  1  0
  3 28  1  0
  4 29  1  0
  9 30  1  0
 14 31  1  0
 16 32  1  0
 17 33  1  0
 18 34  1  0
 23 35  1  0
 24 36  1  0
M  END
$$$$
