
     RDKit          3D

 44 47  0  0  0  0  0  0  0  0999 V2000
    7.6227   -1.5536   -0.2923 C   0  0  0  0  0  0  0  0  0  0  0  0
    7.2465   -0.4520   -1.1112 O   0  0  0  0  0  0  0  0  0  0  0  0
    5.9449   -0.1801   -1.1601 C   0  0  0  0  0  0  0  0  0  0  0  0
    5.2314    0.7783   -1.8382 C   0  0  0  0  0  0  0  0  0  0  0  0
    3.8704    0.5753   -1.4991 C   0  0  0  0  0  0  0  0  0  0  0  0
    3.8295   -0.4996   -0.6255 C   0  0  0  0  0  0  0  0  0  0  0  0
    2.7526   -1.1843    0.0652 C   0  0  0  0  0  0  0  0  0  0  0  0
    2.9114   -2.1947    0.7464 O   0  0  0  0  0  0  0  0  0  0  0  0
    1.5047   -0.6102   -0.0841 N   0  0  0  0  0  0  0  0  0  0  0  0
    0.3588   -1.1090    0.6463 C   0  0  0  0  0  0  0  0  0  0  0  0
    0.3750   -0.6059    2.1092 C   0  0  0  0  0  0  0  0  0  0  0  0
   -1.0182   -0.6571    2.7580 C   0  0  0  0  0  0  0  0  0  0  0  0
   -2.0233    0.2414    2.0100 C   0  0  0  0  0  0  0  0  0  0  0  0
   -1.9447   -0.0224    0.5442 C   0  0  0  0  0  0  0  0  0  0  0  0
   -0.8732   -0.6547   -0.0632 C   0  0  0  0  0  0  0  0  0  0  0  0
   -1.2802   -0.8464   -1.3867 C   0  0  0  0  0  0  0  0  0  0  0  0
   -2.4944   -0.3556   -1.6188 N   0  0  0  0  0  0  0  0  0  0  0  0
   -2.8992    0.2077   -0.4382 N   0  0  0  0  0  0  0  0  0  0  0  0
   -4.1626    0.8646   -0.4028 C   0  0  0  0  0  0  0  0  0  0  0  0
   -5.0869    0.5980   -1.4330 C   0  0  0  0  0  0  0  0  0  0  0  0
   -6.3487    1.2009   -1.4420 C   0  0  0  0  0  0  0  0  0  0  0  0
   -6.7024    2.0899   -0.4323 C   0  0  0  0  0  0  0  0  0  0  0  0
   -5.7870    2.3833    0.5752 C   0  0  0  0  0  0  0  0  0  0  0  0
   -4.5265    1.7799    0.5834 C   0  0  0  0  0  0  0  0  0  0  0  0
   -3.6767    2.1886    1.5311 F   0  0  0  0  0  0  0  0  0  0  0  0
    5.1064   -0.9575   -0.4254 O   0  0  0  0  0  0  0  0  0  0  0  0
    8.7099   -1.6614   -0.3502 H   0  0  0  0  0  0  0  0  0  0  0  0
    7.1704   -2.4837   -0.6533 H   0  0  0  0  0  0  0  0  0  0  0  0
    7.3556   -1.3736    0.7547 H   0  0  0  0  0  0  0  0  0  0  0  0
    5.6494    1.5250   -2.4976 H   0  0  0  0  0  0  0  0  0  0  0  0
    3.0275    1.1460   -1.8613 H   0  0  0  0  0  0  0  0  0  0  0  0
    1.4317    0.3071   -0.4984 H   0  0  0  0  0  0  0  0  0  0  0  0
    0.3817   -2.2062    0.6460 H   0  0  0  0  0  0  0  0  0  0  0  0
    0.7405    0.4297    2.1483 H   0  0  0  0  0  0  0  0  0  0  0  0
    1.0824   -1.2029    2.6970 H   0  0  0  0  0  0  0  0  0  0  0  0
   -0.9530   -0.3361    3.8039 H   0  0  0  0  0  0  0  0  0  0  0  0
   -1.3770   -1.6945    2.7612 H   0  0  0  0  0  0  0  0  0  0  0  0
   -1.7571    1.2854    2.2076 H   0  0  0  0  0  0  0  0  0  0  0  0
   -3.0271    0.0460    2.4002 H   0  0  0  0  0  0  0  0  0  0  0  0
   -0.7517   -1.3422   -2.1916 H   0  0  0  0  0  0  0  0  0  0  0  0
   -4.8432   -0.0980   -2.2352 H   0  0  0  0  0  0  0  0  0  0  0  0
   -7.0511    0.9730   -2.2405 H   0  0  0  0  0  0  0  0  0  0  0  0
   -7.6807    2.5634   -0.4381 H   0  0  0  0  0  0  0  0  0  0  0  0
   -6.0387    3.0983    1.3533 H   0  0  0  0  0  0  0  0  0  0  0  0
  1  2  1  0
  2  3  1  0
  3  4  2  0
  4  5  1  0
  5  6  2  0
  6  7  1  0
  7  8  2  0
  7  9  1  0
  9 10  1  0
 10 11  1  0
 11 12  1  0
 12 13  1  0
 13 14  1  0
 14 15  2  0
 15 16  1  0
 16 17  2  0
 17 18  1  0
 18 19  1  0
 19 20  2  0
 20 21  1  0
 21 22  2  0
 22 23  1  0
 23 24  2  0
 24 25  1  0
  6 26  1  0
 26  3  1  0
 15 10  1  0
 24 19  1  0
 18 14  1  0
  1 27  1  0
  1 28  1  0
  1 29  1  0
  4 30  1  0
  5 31  1  0
  9 32  1  0
 10 33  1  0
 11 34  1  0
 11 35  1  0
 12 36  1  0
 12 37  1  0
 13 38  1  0
 13 39  1  0
 16 40  1  0
 20 41  1  0
 21 42  1  0
 22 43  1  0
 23 44  1  0
M  END
$$$$
