
     RDKit          3D

 60 61  0  0  0  0  0  0  0  0999 V2000
   -6.7602   -0.1265    0.4846 C   0  0  0  0  0  0  0  0  0  0  0  0
   -5.7321   -1.1045    0.5843 O   0  0  0  0  0  0  0  0  0  0  0  0
   -4.4490   -0.6512    0.7365 C   0  0  0  0  0  0  0  0  0  0  0  0
   -4.0482    0.6853    0.7400 C   0  0  0  0  0  0  0  0  0  0  0  0
   -2.6983    1.0194    0.9089 C   0  0  0  0  0  0  0  0  0  0  0  0
   -2.2208    2.3073    0.8780 O   0  0  0  0  0  0  0  0  0  0  0  0
   -3.1621    3.3641    1.0259 C   0  0  0  0  0  0  0  0  0  0  0  0
   -1.7416   -0.0044    1.0694 C   0  0  0  0  0  0  0  0  0  0  0  0
   -0.3296    0.3333    1.2447 C   0  0  0  0  0  0  0  0  0  0  0  0
    0.1097    0.8908    2.3843 N   0  0  0  0  0  0  0  0  0  0  0  0
    1.4720    1.0423    2.2346 O   0  0  0  0  0  0  0  0  0  0  0  0
    1.8586    0.5903    1.0087 C   0  0  0  0  0  0  0  0  0  0  0  0
    3.2341    0.7452    0.6187 C   0  0  0  0  0  0  0  0  0  0  0  0
    3.6498    0.7357   -0.5317 O   0  0  0  0  0  0  0  0  0  0  0  0
    4.0067    0.9375    1.7245 O   0  0  0  0  0  0  0  0  0  0  0  0
    5.4382    1.1385    1.6090 C   0  0  0  0  0  0  0  0  0  0  0  0
    5.9255    1.3087    3.0557 C   0  0  0  0  0  0  0  0  0  0  0  0
    5.7604    2.4206    0.8332 C   0  0  0  0  0  0  0  0  0  0  0  0
    6.1270   -0.0886    1.0023 C   0  0  0  0  0  0  0  0  0  0  0  0
    0.7504    0.1027    0.3459 C   0  0  0  0  0  0  0  0  0  0  0  0
    0.7433   -0.5214   -0.9527 C   0  0  0  0  0  0  0  0  0  0  0  0
    1.6748   -1.1899   -1.3769 O   0  0  0  0  0  0  0  0  0  0  0  0
   -0.4173   -0.2856   -1.6228 O   0  0  0  0  0  0  0  0  0  0  0  0
   -0.6659   -0.8674   -2.9265 C   0  0  0  0  0  0  0  0  0  0  0  0
    0.3680   -0.4056   -3.9596 C   0  0  0  0  0  0  0  0  0  0  0  0
   -0.7479   -2.3949   -2.8356 C   0  0  0  0  0  0  0  0  0  0  0  0
   -2.0431   -0.3254   -3.3365 C   0  0  0  0  0  0  0  0  0  0  0  0
   -2.1427   -1.3558    1.0456 C   0  0  0  0  0  0  0  0  0  0  0  0
   -1.1490   -2.2937    1.1756 O   0  0  0  0  0  0  0  0  0  0  0  0
   -1.5266   -3.6645    1.1621 C   0  0  0  0  0  0  0  0  0  0  0  0
   -3.4964   -1.6624    0.8847 C   0  0  0  0  0  0  0  0  0  0  0  0
   -6.6432    0.4741   -0.4238 H   0  0  0  0  0  0  0  0  0  0  0  0
   -6.7939    0.5070    1.3777 H   0  0  0  0  0  0  0  0  0  0  0  0
   -7.7167   -0.6535    0.4147 H   0  0  0  0  0  0  0  0  0  0  0  0
   -4.7818    1.4662    0.5944 H   0  0  0  0  0  0  0  0  0  0  0  0
   -3.7793    3.2308    1.9221 H   0  0  0  0  0  0  0  0  0  0  0  0
   -2.6018    4.2968    1.1440 H   0  0  0  0  0  0  0  0  0  0  0  0
   -3.7821    3.4613    0.1274 H   0  0  0  0  0  0  0  0  0  0  0  0
    5.6839    0.4242    3.6557 H   0  0  0  0  0  0  0  0  0  0  0  0
    7.0068    1.4752    3.1035 H   0  0  0  0  0  0  0  0  0  0  0  0
    5.4231    2.1546    3.5390 H   0  0  0  0  0  0  0  0  0  0  0  0
    6.8290    2.6580    0.8835 H   0  0  0  0  0  0  0  0  0  0  0  0
    5.4931    2.3383   -0.2243 H   0  0  0  0  0  0  0  0  0  0  0  0
    5.1960    3.2704    1.2339 H   0  0  0  0  0  0  0  0  0  0  0  0
    7.2179   -0.0020    1.0601 H   0  0  0  0  0  0  0  0  0  0  0  0
    5.8650   -0.2267   -0.0513 H   0  0  0  0  0  0  0  0  0  0  0  0
    5.8216   -1.0035    1.5238 H   0  0  0  0  0  0  0  0  0  0  0  0
    0.0674   -0.6826   -4.9759 H   0  0  0  0  0  0  0  0  0  0  0  0
    1.3532   -0.8498   -3.7812 H   0  0  0  0  0  0  0  0  0  0  0  0
    0.5011    0.6811   -3.9194 H   0  0  0  0  0  0  0  0  0  0  0  0
   -1.4642   -2.7014   -2.0641 H   0  0  0  0  0  0  0  0  0  0  0  0
    0.2129   -2.8414   -2.5610 H   0  0  0  0  0  0  0  0  0  0  0  0
   -1.0583   -2.8335   -3.7907 H   0  0  0  0  0  0  0  0  0  0  0  0
   -2.3625   -0.7245   -4.3029 H   0  0  0  0  0  0  0  0  0  0  0  0
   -2.0309    0.7692   -3.3981 H   0  0  0  0  0  0  0  0  0  0  0  0
   -2.8037   -0.5804   -2.5887 H   0  0  0  0  0  0  0  0  0  0  0  0
   -1.9913   -3.9367    0.2096 H   0  0  0  0  0  0  0  0  0  0  0  0
   -2.1823   -3.9017    2.0060 H   0  0  0  0  0  0  0  0  0  0  0  0
   -0.6168   -4.2617    1.2689 H   0  0  0  0  0  0  0  0  0  0  0  0
   -3.8500   -2.6880    0.8682 H   0  0  0  0  0  0  0  0  0  0  0  0
  1  2  1  0
  2  3  1  0
  3  4  2  0
  4  5  1  0
  5  6  1  0
  6  7  1  0
  5  8  2  0
  8  9  1  0
  9 10  2  0
 10 11  1  0
 11 12  1  0
 12 13  1  0
 13 14  2  0
 13 15  1  0
 15 16  1  0
 16 17  1  0
 16 18  1  0
 16 19  1  0
 12 20  2  0
 20 21  1  0
 21 22  2  0
 21 23  1  0
 23 24  1  0
 24 25  1  0
 24 26  1  0
 24 27  1  0
  8 28  1  0
 28 29  1  0
 29 30  1  0
 28 31  2  0
 31  3  1  0
 20  9  1  0
  1 32  1  0
  1 33  1  0
  1 34  1  0
  4 35  1  0
  7 36  1  0
  7 37  1  0
  7 38  1  0
 17 39  1  0
 17 40  1  0
 17 41  1  0
 18 42  1  0
 18 43  1  0
 18 44  1  0
 19 45  1  0
 19 46  1  0
 19 47  1  0
 25 48  1  0
 25 49  1  0
 25 50  1  0
 26 51  1  0
 26 52  1  0
 26 53  1  0
 27 54  1  0
 27 55  1  0
 27 56  1  0
 30 57  1  0
 30 58  1  0
 30 59  1  0
 31 60  1  0
M  END
$$$$
