
     RDKit          3D

 53 56  0  0  0  0  0  0  0  0999 V2000
    5.0231   -1.1917   -3.9291 C   0  0  0  0  0  0  0  0  0  0  0  0
    4.5707   -1.3365   -2.5891 O   0  0  0  0  0  0  0  0  0  0  0  0
    3.2185   -1.3189   -2.3884 C   0  0  0  0  0  0  0  0  0  0  0  0
    2.2421   -1.2639   -3.3791 C   0  0  0  0  0  0  0  0  0  0  0  0
    0.8849   -1.2544   -3.0337 C   0  0  0  0  0  0  0  0  0  0  0  0
    0.4885   -1.2977   -1.6940 C   0  0  0  0  0  0  0  0  0  0  0  0
   -0.8155   -1.2951   -1.2753 O   0  0  0  0  0  0  0  0  0  0  0  0
   -1.7982   -0.8817   -2.2169 C   0  0  0  0  0  0  0  0  0  0  0  0
    1.4661   -1.3677   -0.6862 C   0  0  0  0  0  0  0  0  0  0  0  0
    1.0991   -1.3981    0.7817 C   0  0  0  0  0  0  0  0  0  0  0  0
    1.1574   -0.0853    1.4554 N   0  0  0  0  0  0  0  0  0  0  0  0
    0.1851    0.8342    0.9280 N   0  0  0  0  0  0  0  0  0  0  0  0
   -1.1651    0.7788    1.2926 C   0  0  0  0  0  0  0  0  0  0  0  0
   -1.6043   -0.1629    2.3572 C   0  0  0  0  0  0  0  0  0  0  0  0
   -2.7023   -0.9924    2.1065 C   0  0  0  0  0  0  0  0  0  0  0  0
   -3.1465   -1.8731    3.0916 C   0  0  0  0  0  0  0  0  0  0  0  0
   -2.5078   -1.9131    4.3328 C   0  0  0  0  0  0  0  0  0  0  0  0
   -1.4308   -1.0603    4.6081 C   0  0  0  0  0  0  0  0  0  0  0  0
   -0.7325   -1.1198    5.9343 C   0  0  0  0  0  0  0  0  0  0  0  0
   -0.9790   -0.1870    3.6096 C   0  0  0  0  0  0  0  0  0  0  0  0
   -2.0714    1.5248    0.7322 N   0  0  0  0  0  0  0  0  0  0  0  0
   -1.6772    2.4354   -0.2565 C   0  0  0  0  0  0  0  0  0  0  0  0
   -2.6596    3.2001   -0.8903 C   0  0  0  0  0  0  0  0  0  0  0  0
   -2.3158    4.1291   -1.8769 C   0  0  0  0  0  0  0  0  0  0  0  0
   -0.9801    4.3033   -2.2383 C   0  0  0  0  0  0  0  0  0  0  0  0
    0.0109    3.5481   -1.6133 C   0  0  0  0  0  0  0  0  0  0  0  0
   -0.3462    2.6203   -0.6274 C   0  0  0  0  0  0  0  0  0  0  0  0
    0.6736    1.7962    0.0387 C   0  0  0  0  0  0  0  0  0  0  0  0
    1.8703    1.9785   -0.1870 O   0  0  0  0  0  0  0  0  0  0  0  0
    2.8253   -1.3713   -1.0503 C   0  0  0  0  0  0  0  0  0  0  0  0
    6.1172   -1.1810   -3.9133 H   0  0  0  0  0  0  0  0  0  0  0  0
    4.7076   -2.0405   -4.5447 H   0  0  0  0  0  0  0  0  0  0  0  0
    4.6871   -0.2430   -4.3608 H   0  0  0  0  0  0  0  0  0  0  0  0
    2.4990   -1.2307   -4.4324 H   0  0  0  0  0  0  0  0  0  0  0  0
    0.1594   -1.2211   -3.8399 H   0  0  0  0  0  0  0  0  0  0  0  0
   -1.5475    0.0877   -2.6606 H   0  0  0  0  0  0  0  0  0  0  0  0
   -2.7459   -0.7677   -1.6818 H   0  0  0  0  0  0  0  0  0  0  0  0
   -1.9413   -1.6443   -2.9888 H   0  0  0  0  0  0  0  0  0  0  0  0
    1.8054   -2.0620    1.2969 H   0  0  0  0  0  0  0  0  0  0  0  0
    0.1247   -1.8760    0.9303 H   0  0  0  0  0  0  0  0  0  0  0  0
    2.0715    0.3298    1.2366 H   0  0  0  0  0  0  0  0  0  0  0  0
   -3.2034   -0.9584    1.1425 H   0  0  0  0  0  0  0  0  0  0  0  0
   -3.9908   -2.5281    2.8932 H   0  0  0  0  0  0  0  0  0  0  0  0
   -2.8620   -2.6102    5.0893 H   0  0  0  0  0  0  0  0  0  0  0  0
   -1.4244   -1.4219    6.7275 H   0  0  0  0  0  0  0  0  0  0  0  0
   -0.3326   -0.1381    6.2092 H   0  0  0  0  0  0  0  0  0  0  0  0
    0.0914   -1.8387    5.8909 H   0  0  0  0  0  0  0  0  0  0  0  0
   -0.1422    0.4783    3.8091 H   0  0  0  0  0  0  0  0  0  0  0  0
   -3.7010    3.0714   -0.6058 H   0  0  0  0  0  0  0  0  0  0  0  0
   -3.0921    4.7188   -2.3583 H   0  0  0  0  0  0  0  0  0  0  0  0
   -0.7115    5.0275   -3.0035 H   0  0  0  0  0  0  0  0  0  0  0  0
    1.0541    3.6784   -1.8920 H   0  0  0  0  0  0  0  0  0  0  0  0
    3.5937   -1.4080   -0.2805 H   0  0  0  0  0  0  0  0  0  0  0  0
  1  2  1  0
  2  3  1  0
  3  4  2  0
  4  5  1  0
  5  6  2  0
  6  7  1  0
  7  8  1  0
  6  9  1  0
  9 10  1  0
 10 11  1  0
 11 12  1  0
 12 13  1  0
 13 14  1  0
 14 15  2  0
 15 16  1  0
 16 17  2  0
 17 18  1  0
 18 19  1  0
 18 20  2  0
 13 21  2  0
 21 22  1  0
 22 23  2  0
 23 24  1  0
 24 25  2  0
 25 26  1  0
 26 27  2  0
 27 28  1  0
 28 29  2  0
  9 30  2  0
 30  3  1  0
 28 12  1  0
 20 14  1  0
 27 22  1  0
  1 31  1  0
  1 32  1  0
  1 33  1  0
  4 34  1  0
  5 35  1  0
  8 36  1  0
  8 37  1  0
  8 38  1  0
 10 39  1  0
 10 40  1  0
 11 41  1  0
 15 42  1  0
 16 43  1  0
 17 44  1  0
 19 45  1  0
 19 46  1  0
 19 47  1  0
 20 48  1  0
 23 49  1  0
 24 50  1  0
 25 51  1  0
 26 52  1  0
 30 53  1  0
M  END
$$$$
