
     RDKit          3D

 61 64  0  0  0  0  0  0  0  0999 V2000
    5.9163    2.8569    1.5235 C   0  0  0  0  0  0  0  0  0  0  0  0
    5.3911    1.8123    0.5743 C   0  0  0  0  0  0  0  0  0  0  0  0
    5.8115    1.8514   -0.7609 C   0  0  0  0  0  0  0  0  0  0  0  0
    5.3721    0.8935   -1.6624 C   0  0  0  0  0  0  0  0  0  0  0  0
    4.4931   -0.1066   -1.2459 C   0  0  0  0  0  0  0  0  0  0  0  0
    4.0285   -0.1794    0.0773 C   0  0  0  0  0  0  0  0  0  0  0  0
    3.1074   -1.1515    0.4827 N   0  0  0  0  0  0  0  0  0  0  0  0
    3.1364   -2.5059   -0.1048 C   0  0  0  0  0  0  0  0  0  0  0  0
    2.1567   -2.6929   -1.2787 C   0  0  0  0  0  0  0  0  0  0  0  0
    0.8233   -2.1366   -1.0299 N   0  0  0  0  0  0  0  0  0  0  0  0
   -0.2018   -2.5967   -1.8585 C   0  0  0  0  0  0  0  0  0  0  0  0
   -0.0431   -3.4442   -2.7337 O   0  0  0  0  0  0  0  0  0  0  0  0
   -1.5679   -2.0633   -1.6648 C   0  0  0  0  0  0  0  0  0  0  0  0
   -2.1848   -2.1312   -0.4103 C   0  0  0  0  0  0  0  0  0  0  0  0
   -3.4815   -1.6399   -0.2519 C   0  0  0  0  0  0  0  0  0  0  0  0
   -4.1627   -1.1059   -1.3485 C   0  0  0  0  0  0  0  0  0  0  0  0
   -5.4574   -0.5312   -1.1488 N   0  0  0  0  0  0  0  0  0  0  0  0
   -5.4655    1.1369   -0.8131 S   0  0  0  0  0  6  0  0  0  0  0  0
   -4.6573    1.8124   -1.8040 O   0  0  0  0  0  0  0  0  0  0  0  0
   -6.8411    1.5158   -0.5856 O   0  0  0  0  0  0  0  0  0  0  0  0
   -4.6910    1.4008    0.6824 C   0  0  0  0  0  0  0  0  0  0  0  0
   -5.1927    1.0664    1.9593 C   0  0  0  0  0  0  0  0  0  0  0  0
   -6.4930    0.4540    2.3229 C   0  0  0  0  0  0  0  0  0  0  0  0
   -4.3001    1.3658    2.9131 N   0  0  0  0  0  0  0  0  0  0  0  0
   -3.2102    1.9085    2.2560 O   0  0  0  0  0  0  0  0  0  0  0  0
   -3.4446    1.9269    0.9140 C   0  0  0  0  0  0  0  0  0  0  0  0
   -2.3620    2.4649    0.0678 C   0  0  0  0  0  0  0  0  0  0  0  0
   -3.5531   -1.0531   -2.6042 C   0  0  0  0  0  0  0  0  0  0  0  0
   -2.2567   -1.5453   -2.7668 C   0  0  0  0  0  0  0  0  0  0  0  0
    0.8355   -0.7711   -0.4784 C   0  0  0  0  0  0  0  0  0  0  0  0
    1.7434   -0.6503    0.7565 C   0  0  0  0  0  0  0  0  0  0  0  0
    4.5239    0.7749    1.0066 C   0  0  0  0  0  0  0  0  0  0  0  0
    4.1451    0.6968    2.4697 C   0  0  0  0  0  0  0  0  0  0  0  0
    5.1018    3.2924    2.1107 H   0  0  0  0  0  0  0  0  0  0  0  0
    6.3950    3.6820    0.9828 H   0  0  0  0  0  0  0  0  0  0  0  0
    6.6595    2.4154    2.1947 H   0  0  0  0  0  0  0  0  0  0  0  0
    6.4926    2.6275   -1.1039 H   0  0  0  0  0  0  0  0  0  0  0  0
    5.7107    0.9225   -2.6960 H   0  0  0  0  0  0  0  0  0  0  0  0
    4.1682   -0.8193   -1.9941 H   0  0  0  0  0  0  0  0  0  0  0  0
    2.8445   -3.2025    0.6922 H   0  0  0  0  0  0  0  0  0  0  0  0
    4.1520   -2.7958   -0.4002 H   0  0  0  0  0  0  0  0  0  0  0  0
    2.5336   -2.2128   -2.1869 H   0  0  0  0  0  0  0  0  0  0  0  0
    2.0692   -3.7626   -1.5019 H   0  0  0  0  0  0  0  0  0  0  0  0
   -1.6620   -2.5692    0.4370 H   0  0  0  0  0  0  0  0  0  0  0  0
   -3.9562   -1.6891    0.7258 H   0  0  0  0  0  0  0  0  0  0  0  0
   -6.0878   -0.6854   -1.9389 H   0  0  0  0  0  0  0  0  0  0  0  0
   -6.6469   -0.4793    1.7672 H   0  0  0  0  0  0  0  0  0  0  0  0
   -7.3174    1.1382    2.0942 H   0  0  0  0  0  0  0  0  0  0  0  0
   -6.5409    0.2174    3.3921 H   0  0  0  0  0  0  0  0  0  0  0  0
   -2.7243    3.2982   -0.5427 H   0  0  0  0  0  0  0  0  0  0  0  0
   -1.5312    2.8346    0.6765 H   0  0  0  0  0  0  0  0  0  0  0  0
   -1.9700    1.6868   -0.5961 H   0  0  0  0  0  0  0  0  0  0  0  0
   -4.0691   -0.6194   -3.4579 H   0  0  0  0  0  0  0  0  0  0  0  0
   -1.7816   -1.5193   -3.7459 H   0  0  0  0  0  0  0  0  0  0  0  0
    1.1876   -0.1090   -1.2793 H   0  0  0  0  0  0  0  0  0  0  0  0
   -0.1714   -0.4393   -0.2164 H   0  0  0  0  0  0  0  0  0  0  0  0
    1.3208   -1.2556    1.5686 H   0  0  0  0  0  0  0  0  0  0  0  0
    1.7404    0.3887    1.1052 H   0  0  0  0  0  0  0  0  0  0  0  0
    3.7887   -0.2979    2.7554 H   0  0  0  0  0  0  0  0  0  0  0  0
    5.0133    0.8918    3.1098 H   0  0  0  0  0  0  0  0  0  0  0  0
    3.3631    1.4281    2.6950 H   0  0  0  0  0  0  0  0  0  0  0  0
  1  2  1  0
  2  3  2  0
  3  4  1  0
  4  5  2  0
  5  6  1  0
  6  7  1  0
  7  8  1  0
  8  9  1  0
  9 10  1  0
 10 11  1  0
 11 12  2  0
 11 13  1  0
 13 14  2  0
 14 15  1  0
 15 16  2  0
 16 17  1  0
 17 18  1  0
 18 19  2  0
 18 20  2  0
 18 21  1  0
 21 22  1  0
 22 23  1  0
 22 24  2  0
 24 25  1  0
 25 26  1  0
 26 27  1  0
 16 28  1  0
 28 29  2  0
 10 30  1  0
 30 31  1  0
  6 32  2  0
 32 33  1  0
 32  2  1  0
 31  7  1  0
 29 13  1  0
 26 21  2  0
  1 34  1  0
  1 35  1  0
  1 36  1  0
  3 37  1  0
  4 38  1  0
  5 39  1  0
  8 40  1  0
  8 41  1  0
  9 42  1  0
  9 43  1  0
 14 44  1  0
 15 45  1  0
 17 46  1  0
 23 47  1  0
 23 48  1  0
 23 49  1  0
 27 50  1  0
 27 51  1  0
 27 52  1  0
 28 53  1  0
 29 54  1  0
 30 55  1  0
 30 56  1  0
 31 57  1  0
 31 58  1  0
 33 59  1  0
 33 60  1  0
 33 61  1  0
M  END
$$$$
