
     RDKit          3D

 45 47  0  0  0  0  0  0  0  0999 V2000
    3.1837   -1.9350   -1.7345 C   0  0  0  0  0  0  0  0  0  0  0  0
    3.5867   -0.9175   -0.7091 C   0  0  0  0  0  0  0  0  0  0  0  0
    4.1051   -1.3275    0.5174 C   0  0  0  0  0  0  0  0  0  0  0  0
    4.4814   -0.3597    1.4449 C   0  0  0  0  0  0  0  0  0  0  0  0
    4.3246    0.9835    1.1266 C   0  0  0  0  0  0  0  0  0  0  0  0
    3.7946    1.2917   -0.1124 C   0  0  0  0  0  0  0  0  0  0  0  0
    3.5467    2.6086   -0.5401 N   0  0  0  0  0  0  0  0  0  0  0  0
    2.3204    3.4354    0.2654 S   0  0  0  0  0  6  0  0  0  0  0  0
    2.0467    4.6287   -0.5088 O   0  0  0  0  0  0  0  0  0  0  0  0
    2.6536    3.5261    1.6725 O   0  0  0  0  0  0  0  0  0  0  0  0
    0.9097    2.3640    0.0981 C   0  0  0  0  0  0  0  0  0  0  0  0
    0.5134    1.5603    1.1687 C   0  0  0  0  0  0  0  0  0  0  0  0
   -0.5973    0.7262    1.0279 C   0  0  0  0  0  0  0  0  0  0  0  0
   -1.3248    0.6948   -0.1735 C   0  0  0  0  0  0  0  0  0  0  0  0
   -2.5322   -0.2109   -0.3501 C   0  0  0  0  0  0  0  0  0  0  0  0
   -3.6677    0.1524    0.6222 C   0  0  0  0  0  0  0  0  0  0  0  0
   -4.8800   -0.7574    0.4291 C   0  0  0  0  0  0  0  0  0  0  0  0
   -4.5021   -2.2317    0.5424 C   0  0  0  0  0  0  0  0  0  0  0  0
   -3.3732   -2.5998   -0.4161 C   0  0  0  0  0  0  0  0  0  0  0  0
   -2.1551   -1.6977   -0.2254 C   0  0  0  0  0  0  0  0  0  0  0  0
   -0.9212    1.5271   -1.2305 C   0  0  0  0  0  0  0  0  0  0  0  0
    0.1884    2.3641   -1.0973 C   0  0  0  0  0  0  0  0  0  0  0  0
    3.4296    0.3872   -1.0362 N   0  0  0  0  0  0  0  0  0  0  0  0
    2.4086   -2.5948   -1.3327 H   0  0  0  0  0  0  0  0  0  0  0  0
    2.7864   -1.4472   -2.6306 H   0  0  0  0  0  0  0  0  0  0  0  0
    4.0506   -2.5345   -2.0291 H   0  0  0  0  0  0  0  0  0  0  0  0
    4.2197   -2.3820    0.7483 H   0  0  0  0  0  0  0  0  0  0  0  0
    4.8947   -0.6490    2.4073 H   0  0  0  0  0  0  0  0  0  0  0  0
    4.6134    1.7609    1.8247 H   0  0  0  0  0  0  0  0  0  0  0  0
    3.3986    2.6312   -1.5463 H   0  0  0  0  0  0  0  0  0  0  0  0
    1.0608    1.5718    2.1082 H   0  0  0  0  0  0  0  0  0  0  0  0
   -0.8913    0.1005    1.8679 H   0  0  0  0  0  0  0  0  0  0  0  0
   -2.9206   -0.0630   -1.3681 H   0  0  0  0  0  0  0  0  0  0  0  0
   -3.3270    0.0710    1.6622 H   0  0  0  0  0  0  0  0  0  0  0  0
   -3.9706    1.1964    0.4743 H   0  0  0  0  0  0  0  0  0  0  0  0
   -5.3243   -0.5692   -0.5561 H   0  0  0  0  0  0  0  0  0  0  0  0
   -5.6448   -0.5144    1.1754 H   0  0  0  0  0  0  0  0  0  0  0  0
   -5.3790   -2.8540    0.3331 H   0  0  0  0  0  0  0  0  0  0  0  0
   -4.1924   -2.4514    1.5716 H   0  0  0  0  0  0  0  0  0  0  0  0
   -3.7309   -2.5168   -1.4499 H   0  0  0  0  0  0  0  0  0  0  0  0
   -3.0848   -3.6458   -0.2617 H   0  0  0  0  0  0  0  0  0  0  0  0
   -1.7144   -1.9037    0.7582 H   0  0  0  0  0  0  0  0  0  0  0  0
   -1.3918   -1.9565   -0.9699 H   0  0  0  0  0  0  0  0  0  0  0  0
   -1.4718    1.5309   -2.1693 H   0  0  0  0  0  0  0  0  0  0  0  0
    0.4800    3.0064   -1.9246 H   0  0  0  0  0  0  0  0  0  0  0  0
  1  2  1  0
  2  3  2  0
  3  4  1  0
  4  5  2  0
  5  6  1  0
  6  7  1  0
  7  8  1  0
  8  9  2  0
  8 10  2  0
  8 11  1  0
 11 12  2  0
 12 13  1  0
 13 14  2  0
 14 15  1  0
 15 16  1  0
 16 17  1  0
 17 18  1  0
 18 19  1  0
 19 20  1  0
 14 21  1  0
 21 22  2  0
  6 23  2  0
 23  2  1  0
 22 11  1  0
 20 15  1  0
  1 24  1  0
  1 25  1  0
  1 26  1  0
  3 27  1  0
  4 28  1  0
  5 29  1  0
  7 30  1  0
 12 31  1  0
 13 32  1  0
 15 33  1  0
 16 34  1  0
 16 35  1  0
 17 36  1  0
 17 37  1  0
 18 38  1  0
 18 39  1  0
 19 40  1  0
 19 41  1  0
 20 42  1  0
 20 43  1  0
 21 44  1  0
 22 45  1  0
M  END
$$$$
