
     RDKit          3D

 61 64  0  0  0  0  0  0  0  0999 V2000
   -5.7857   -1.1504   -3.0663 C   0  0  0  0  0  0  0  0  0  0  0  0
   -4.7162   -1.9669   -2.5882 O   0  0  0  0  0  0  0  0  0  0  0  0
   -4.6995   -2.1189   -1.2340 C   0  0  0  0  0  0  0  0  0  0  0  0
   -5.5294   -1.6570   -0.4616 O   0  0  0  0  0  0  0  0  0  0  0  0
   -3.5207   -2.9738   -0.8300 C   0  0  0  0  0  0  0  0  0  0  0  0
   -3.0815   -2.7218    0.6133 C   0  0  0  0  0  0  0  0  0  0  0  0
   -2.4530   -1.3615    0.7894 C   0  0  0  0  0  0  0  0  0  0  0  0
   -1.1625   -1.0077    0.9919 C   0  0  0  0  0  0  0  0  0  0  0  0
   -0.1097   -2.0411    1.0177 C   0  0  0  0  0  0  0  0  0  0  0  0
    1.2027   -1.7466    1.1370 C   0  0  0  0  0  0  0  0  0  0  0  0
    2.2513   -2.8144    1.1830 C   0  0  0  0  0  0  0  0  0  0  0  0
    3.5302   -2.3528    0.5168 C   0  0  0  0  0  0  0  0  0  0  0  0
    4.1222   -3.0837   -0.2815 O   0  0  0  0  0  0  0  0  0  0  0  0
    4.1080   -1.0115    0.9839 C   0  0  0  0  0  0  0  0  0  0  0  0
    4.8390   -1.2705    2.3101 C   0  0  0  0  0  0  0  0  0  0  0  0
    5.1169   -0.5282    0.0834 O   0  0  0  0  0  0  0  0  0  0  0  0
    4.6744   -0.1815   -1.1614 C   0  0  0  0  0  0  0  0  0  0  0  0
    3.4973   -0.2556   -1.5004 O   0  0  0  0  0  0  0  0  0  0  0  0
    5.7540    0.2847   -2.0124 C   0  0  0  0  0  0  0  0  0  0  0  0
    5.6403    0.6970   -3.3298 C   0  0  0  0  0  0  0  0  0  0  0  0
    6.8844    1.1030   -3.8911 C   0  0  0  0  0  0  0  0  0  0  0  0
    7.9147    0.9899   -2.9853 C   0  0  0  0  0  0  0  0  0  0  0  0
    7.3788    0.3942   -1.4753 S   0  0  0  0  0  0  0  0  0  0  0  0
    3.0455    0.0586    1.2590 C   0  0  0  0  0  0  0  0  0  0  0  0
    3.3596    1.2262    1.5016 O   0  0  0  0  0  0  0  0  0  0  0  0
    1.6126   -0.3562    1.2234 C   0  0  0  0  0  0  0  0  0  0  0  0
    0.6646    0.5951    1.2234 C   0  0  0  0  0  0  0  0  0  0  0  0
   -0.7075    0.3336    1.1409 N   0  0  0  0  0  0  0  0  0  0  0  0
   -1.6002    1.4506    1.1862 C   0  0  0  0  0  0  0  0  0  0  0  0
   -1.5156    2.4719    0.2269 C   0  0  0  0  0  0  0  0  0  0  0  0
   -2.3800    3.5684    0.2777 C   0  0  0  0  0  0  0  0  0  0  0  0
   -3.3411    3.6717    1.2883 C   0  0  0  0  0  0  0  0  0  0  0  0
   -4.1221    4.7916    1.2209 O   0  0  0  0  0  0  0  0  0  0  0  0
   -5.1655    4.9077    2.1784 C   0  0  0  0  0  0  0  0  0  0  0  0
   -3.4237    2.6711    2.2558 C   0  0  0  0  0  0  0  0  0  0  0  0
   -2.5576    1.5716    2.2057 C   0  0  0  0  0  0  0  0  0  0  0  0
   -5.6678   -1.0407   -4.1485 H   0  0  0  0  0  0  0  0  0  0  0  0
   -6.7490   -1.6291   -2.8674 H   0  0  0  0  0  0  0  0  0  0  0  0
   -5.7456   -0.1547   -2.6116 H   0  0  0  0  0  0  0  0  0  0  0  0
   -2.6811   -2.7846   -1.5109 H   0  0  0  0  0  0  0  0  0  0  0  0
   -3.8258   -4.0201   -0.9446 H   0  0  0  0  0  0  0  0  0  0  0  0
   -3.9428   -2.7877    1.2918 H   0  0  0  0  0  0  0  0  0  0  0  0
   -2.4082   -3.5275    0.9223 H   0  0  0  0  0  0  0  0  0  0  0  0
   -3.1965   -0.5671    0.7335 H   0  0  0  0  0  0  0  0  0  0  0  0
   -0.4020   -3.0814    0.9378 H   0  0  0  0  0  0  0  0  0  0  0  0
    2.4804   -3.0854    2.2196 H   0  0  0  0  0  0  0  0  0  0  0  0
    1.9090   -3.7208    0.6686 H   0  0  0  0  0  0  0  0  0  0  0  0
    4.1529   -1.5843    3.1053 H   0  0  0  0  0  0  0  0  0  0  0  0
    5.3612   -0.3689    2.6549 H   0  0  0  0  0  0  0  0  0  0  0  0
    5.6022   -2.0484    2.1907 H   0  0  0  0  0  0  0  0  0  0  0  0
    4.6968    0.7046   -3.8646 H   0  0  0  0  0  0  0  0  0  0  0  0
    7.0169    1.4605   -4.9050 H   0  0  0  0  0  0  0  0  0  0  0  0
    8.9575    1.2276   -3.1379 H   0  0  0  0  0  0  0  0  0  0  0  0
    0.9200    1.6507    1.2941 H   0  0  0  0  0  0  0  0  0  0  0  0
   -0.7838    2.4085   -0.5772 H   0  0  0  0  0  0  0  0  0  0  0  0
   -2.3029    4.3482   -0.4782 H   0  0  0  0  0  0  0  0  0  0  0  0
   -5.7168    5.8286    1.9621 H   0  0  0  0  0  0  0  0  0  0  0  0
   -4.7612    4.9910    3.1941 H   0  0  0  0  0  0  0  0  0  0  0  0
   -5.8685    4.0717    2.1012 H   0  0  0  0  0  0  0  0  0  0  0  0
   -4.1435    2.7158    3.0668 H   0  0  0  0  0  0  0  0  0  0  0  0
   -2.6267    0.8069    2.9749 H   0  0  0  0  0  0  0  0  0  0  0  0
  1  2  1  0
  2  3  1  0
  3  4  2  0
  3  5  1  0
  5  6  1  0
  6  7  1  0
  7  8  2  3
  8  9  1  0
  9 10  2  0
 10 11  1  0
 11 12  1  0
 12 13  2  0
 12 14  1  0
 14 15  1  0
 14 16  1  0
 16 17  1  0
 17 18  2  0
 17 19  1  0
 19 20  2  0
 20 21  1  0
 21 22  2  0
 22 23  1  0
 14 24  1  0
 24 25  2  0
 24 26  1  0
 26 27  2  0
 27 28  1  0
 28 29  1  0
 29 30  2  0
 30 31  1  0
 31 32  2  0
 32 33  1  0
 33 34  1  0
 32 35  1  0
 35 36  2  0
 28  8  1  0
 36 29  1  0
 26 10  1  0
 23 19  1  0
  1 37  1  0
  1 38  1  0
  1 39  1  0
  5 40  1  0
  5 41  1  0
  6 42  1  0
  6 43  1  0
  7 44  1  0
  9 45  1  0
 11 46  1  0
 11 47  1  0
 15 48  1  0
 15 49  1  0
 15 50  1  0
 20 51  1  0
 21 52  1  0
 22 53  1  0
 27 54  1  0
 30 55  1  0
 31 56  1  0
 34 57  1  0
 34 58  1  0
 34 59  1  0
 35 60  1  0
 36 61  1  0
M  END
$$$$
