
     RDKit          3D

 45 46  0  0  0  0  0  0  0  0999 V2000
    4.6422   -1.6603   -2.6376 C   0  0  0  0  0  0  0  0  0  0  0  0
    3.4382   -0.9110   -2.5229 O   0  0  0  0  0  0  0  0  0  0  0  0
    3.1726   -0.3278   -1.3105 C   0  0  0  0  0  0  0  0  0  0  0  0
    3.8283   -0.6768   -0.1243 C   0  0  0  0  0  0  0  0  0  0  0  0
    3.5414   -0.0105    1.0674 C   0  0  0  0  0  0  0  0  0  0  0  0
    2.5978    1.0137    1.0878 C   0  0  0  0  0  0  0  0  0  0  0  0
    1.9053    1.3653   -0.0774 C   0  0  0  0  0  0  0  0  0  0  0  0
    0.9351    2.4738   -0.0492 C   0  0  0  0  0  0  0  0  0  0  0  0
   -0.1406    2.5755    0.7475 C   0  0  0  0  0  0  0  0  0  0  0  0
   -0.5228    1.5516    1.7458 C   0  0  0  0  0  0  0  0  0  0  0  0
   -0.1359    1.6712    2.9049 O   0  0  0  0  0  0  0  0  0  0  0  0
   -1.3461    0.5368    1.3014 N   0  0  0  0  0  0  0  0  0  0  0  0
   -1.7885   -0.4905    2.2406 C   0  0  0  0  0  0  0  0  0  0  0  0
   -3.2461   -0.9223    1.9832 C   0  0  0  0  0  0  0  0  0  0  0  0
   -4.2385    0.1408    2.4482 C   0  0  0  0  0  0  0  0  0  0  0  0
   -3.5519   -1.2299    0.6097 O   0  0  0  0  0  0  0  0  0  0  0  0
   -2.4782   -0.9795   -0.3076 C   0  0  0  0  0  0  0  0  0  0  0  0
   -3.0412   -1.0868   -1.7173 C   0  0  0  0  0  0  0  0  0  0  0  0
   -1.8475    0.4016   -0.0695 C   0  0  0  0  0  0  0  0  0  0  0  0
    2.1827    0.6776   -1.2774 C   0  0  0  0  0  0  0  0  0  0  0  0
    1.4905    1.0953   -2.3945 O   0  0  0  0  0  0  0  0  0  0  0  0
    0.8917    0.0347   -3.1367 C   0  0  0  0  0  0  0  0  0  0  0  0
    4.7764   -1.9143   -3.6932 H   0  0  0  0  0  0  0  0  0  0  0  0
    4.5732   -2.5982   -2.0772 H   0  0  0  0  0  0  0  0  0  0  0  0
    5.5124   -1.0732   -2.3229 H   0  0  0  0  0  0  0  0  0  0  0  0
    4.5750   -1.4630   -0.0937 H   0  0  0  0  0  0  0  0  0  0  0  0
    4.0629   -0.2804    1.9826 H   0  0  0  0  0  0  0  0  0  0  0  0
    2.4100    1.5376    2.0237 H   0  0  0  0  0  0  0  0  0  0  0  0
    1.1278    3.2588   -0.7776 H   0  0  0  0  0  0  0  0  0  0  0  0
   -0.7957    3.4363    0.6997 H   0  0  0  0  0  0  0  0  0  0  0  0
   -1.6571   -0.1626    3.2777 H   0  0  0  0  0  0  0  0  0  0  0  0
   -1.1208   -1.3478    2.0871 H   0  0  0  0  0  0  0  0  0  0  0  0
   -3.4413   -1.8352    2.5578 H   0  0  0  0  0  0  0  0  0  0  0  0
   -5.2666   -0.2097    2.3031 H   0  0  0  0  0  0  0  0  0  0  0  0
   -4.0991    0.3779    3.5074 H   0  0  0  0  0  0  0  0  0  0  0  0
   -4.1383    1.0634    1.8662 H   0  0  0  0  0  0  0  0  0  0  0  0
   -1.7272   -1.7674   -0.1720 H   0  0  0  0  0  0  0  0  0  0  0  0
   -3.4860   -2.0750   -1.8766 H   0  0  0  0  0  0  0  0  0  0  0  0
   -3.8397   -0.3533   -1.8770 H   0  0  0  0  0  0  0  0  0  0  0  0
   -2.2635   -0.9285   -2.4706 H   0  0  0  0  0  0  0  0  0  0  0  0
   -1.0336    0.5717   -0.7781 H   0  0  0  0  0  0  0  0  0  0  0  0
   -2.5940    1.1933   -0.2064 H   0  0  0  0  0  0  0  0  0  0  0  0
    1.5386   -0.2564   -3.9692 H   0  0  0  0  0  0  0  0  0  0  0  0
   -0.0412    0.4161   -3.5642 H   0  0  0  0  0  0  0  0  0  0  0  0
    0.6395   -0.8324   -2.5161 H   0  0  0  0  0  0  0  0  0  0  0  0
  1  2  1  0
  2  3  1  0
  3  4  2  0
  4  5  1  0
  5  6  2  0
  6  7  1  0
  7  8  1  0
  8  9  2  3
  9 10  1  0
 10 11  2  0
 10 12  1  0
 12 13  1  0
 13 14  1  0
 14 15  1  0
 14 16  1  0
 16 17  1  0
 17 18  1  0
 17 19  1  0
  7 20  2  0
 20 21  1  0
 21 22  1  0
 20  3  1  0
 19 12  1  0
  1 23  1  0
  1 24  1  0
  1 25  1  0
  4 26  1  0
  5 27  1  0
  6 28  1  0
  8 29  1  0
  9 30  1  0
 13 31  1  0
 13 32  1  0
 14 33  1  0
 15 34  1  0
 15 35  1  0
 15 36  1  0
 17 37  1  0
 18 38  1  0
 18 39  1  0
 18 40  1  0
 19 41  1  0
 19 42  1  0
 22 43  1  0
 22 44  1  0
 22 45  1  0
M  END
$$$$
