
     RDKit          3D

 43 45  0  0  0  0  0  0  0  0999 V2000
   -7.7879    2.2171    0.8360 C   0  0  0  0  0  0  0  0  0  0  0  0
   -6.3970    1.6470    1.0596 C   0  0  0  0  0  0  0  0  0  0  0  0
   -6.0234    0.6421   -0.0266 C   0  0  0  0  0  0  0  0  0  0  0  0
   -4.6605    0.0759    0.2332 C   0  0  0  0  0  0  0  0  0  0  0  0
   -4.4424   -0.9369    1.0110 N   0  0  0  0  0  0  0  0  0  0  0  0
   -3.0885   -1.1853    1.0426 N   0  0  0  0  0  0  0  0  0  0  0  0
   -2.5495   -2.2046    1.7951 C   0  0  0  0  0  0  0  0  0  0  0  0
   -3.1565   -2.9974    2.5080 O   0  0  0  0  0  0  0  0  0  0  0  0
   -1.0752   -2.2970    1.6940 C   0  0  0  0  0  0  0  0  0  0  0  0
   -0.4016   -1.4328    0.9146 C   0  0  0  0  0  0  0  0  0  0  0  0
    1.1065   -1.5025    0.8135 C   0  0  0  0  0  0  0  0  0  0  0  0
    1.6113   -2.3720   -0.7118 S   0  0  0  0  0  0  0  0  0  0  0  0
    1.5763   -0.9711   -1.8869 C   0  0  0  0  0  0  0  0  0  0  0  0
    2.6845    0.0379   -1.6083 C   0  0  0  0  0  0  0  0  0  0  0  0
    2.4497    1.2425   -1.5994 O   0  0  0  0  0  0  0  0  0  0  0  0
    3.9254   -0.5546   -1.4342 N   0  0  0  0  0  0  0  0  0  0  0  0
    5.1622    0.0743   -1.1989 C   0  0  0  0  0  0  0  0  0  0  0  0
    6.2718   -0.7593   -0.9929 C   0  0  0  0  0  0  0  0  0  0  0  0
    7.5358   -0.2144   -0.7532 C   0  0  0  0  0  0  0  0  0  0  0  0
    7.6904    1.1646   -0.7206 C   0  0  0  0  0  0  0  0  0  0  0  0
    8.9011    1.6886   -0.4909 F   0  0  0  0  0  0  0  0  0  0  0  0
    6.6051    2.0058   -0.9241 C   0  0  0  0  0  0  0  0  0  0  0  0
    5.3396    1.4605   -1.1642 C   0  0  0  0  0  0  0  0  0  0  0  0
   -1.0096   -0.4200    0.2001 N   0  0  0  0  0  0  0  0  0  0  0  0
   -2.2944   -0.3556    0.2978 C   0  0  0  0  0  0  0  0  0  0  0  0
   -3.2700    0.8231   -0.5162 S   0  0  0  0  0  0  0  0  0  0  0  0
   -7.8490    2.7360   -0.1259 H   0  0  0  0  0  0  0  0  0  0  0  0
   -8.0352    2.9341    1.6251 H   0  0  0  0  0  0  0  0  0  0  0  0
   -8.5432    1.4248    0.8482 H   0  0  0  0  0  0  0  0  0  0  0  0
   -6.3561    1.1668    2.0448 H   0  0  0  0  0  0  0  0  0  0  0  0
   -5.6692    2.4668    1.0804 H   0  0  0  0  0  0  0  0  0  0  0  0
   -6.0515    1.1147   -1.0147 H   0  0  0  0  0  0  0  0  0  0  0  0
   -6.7425   -0.1854   -0.0368 H   0  0  0  0  0  0  0  0  0  0  0  0
   -0.6008   -3.0866    2.2628 H   0  0  0  0  0  0  0  0  0  0  0  0
    1.5194   -2.0692    1.6560 H   0  0  0  0  0  0  0  0  0  0  0  0
    1.5517   -0.5038    0.8674 H   0  0  0  0  0  0  0  0  0  0  0  0
    0.6046   -0.4730   -1.8640 H   0  0  0  0  0  0  0  0  0  0  0  0
    1.7246   -1.3638   -2.8981 H   0  0  0  0  0  0  0  0  0  0  0  0
    3.9205   -1.5700   -1.4169 H   0  0  0  0  0  0  0  0  0  0  0  0
    6.1686   -1.8413   -1.0156 H   0  0  0  0  0  0  0  0  0  0  0  0
    8.3966   -0.8554   -0.5928 H   0  0  0  0  0  0  0  0  0  0  0  0
    6.7444    3.0819   -0.8968 H   0  0  0  0  0  0  0  0  0  0  0  0
    4.5141    2.1476   -1.3224 H   0  0  0  0  0  0  0  0  0  0  0  0
  1  2  1  0
  2  3  1  0
  3  4  1  0
  4  5  2  0
  5  6  1  0
  6  7  1  0
  7  8  2  0
  7  9  1  0
  9 10  2  0
 10 11  1  0
 11 12  1  0
 12 13  1  0
 13 14  1  0
 14 15  2  0
 14 16  1  0
 16 17  1  0
 17 18  2  0
 18 19  1  0
 19 20  2  0
 20 21  1  0
 20 22  1  0
 22 23  2  0
 10 24  1  0
 24 25  2  0
 25 26  1  0
 26  4  1  0
 25  6  1  0
 23 17  1  0
  1 27  1  0
  1 28  1  0
  1 29  1  0
  2 30  1  0
  2 31  1  0
  3 32  1  0
  3 33  1  0
  9 34  1  0
 11 35  1  0
 11 36  1  0
 13 37  1  0
 13 38  1  0
 16 39  1  0
 18 40  1  0
 19 41  1  0
 22 42  1  0
 23 43  1  0
M  END
$$$$
