
     RDKit          3D

 30 30  0  0  0  0  0  0  0  0999 V2000
    4.0227   -0.2003    1.0611 C   0  0  0  0  0  0  0  0  0  0  0  0
    3.3705    0.4716    2.1883 N   0  0  0  0  0  0  0  0  0  0  0  0
    4.3070    0.9323    3.2157 C   0  0  0  0  0  0  0  0  0  0  0  0
    1.9954    0.3598    2.4559 C   0  0  0  0  0  0  0  0  0  0  0  0
    1.2139    0.8791    3.8539 S   0  0  0  0  0  0  0  0  0  0  0  0
    1.0078   -0.4088    1.2085 S   0  0  0  0  0  0  0  0  0  0  0  0
    0.5754    1.0901    0.2719 C   0  0  0  0  0  0  0  0  0  0  0  0
   -0.2584    0.7333   -0.9484 C   0  0  0  0  0  0  0  0  0  0  0  0
    0.1025    1.0674   -2.0737 O   0  0  0  0  0  0  0  0  0  0  0  0
   -1.4326    0.0730   -0.6306 N   0  0  0  0  0  0  0  0  0  0  0  0
   -2.4603   -0.3596   -1.4994 C   0  0  0  0  0  0  0  0  0  0  0  0
   -2.4741   -0.0810   -2.8687 C   0  0  0  0  0  0  0  0  0  0  0  0
   -3.5231   -0.5379   -3.6754 C   0  0  0  0  0  0  0  0  0  0  0  0
   -4.5632   -1.2779   -3.1183 C   0  0  0  0  0  0  0  0  0  0  0  0
   -5.8475   -1.8345   -4.1183 Cl  0  0  0  0  0  0  0  0  0  0  0  0
   -4.5736   -1.5634   -1.7574 C   0  0  0  0  0  0  0  0  0  0  0  0
   -3.5269   -1.1041   -0.9551 C   0  0  0  0  0  0  0  0  0  0  0  0
   -3.5778   -1.4764    0.7363 Cl  0  0  0  0  0  0  0  0  0  0  0  0
    4.9770    0.2902    0.8417 H   0  0  0  0  0  0  0  0  0  0  0  0
    3.4207   -0.1588    0.1512 H   0  0  0  0  0  0  0  0  0  0  0  0
    4.2039   -1.2441    1.3343 H   0  0  0  0  0  0  0  0  0  0  0  0
    4.7118    0.0573    3.7324 H   0  0  0  0  0  0  0  0  0  0  0  0
    5.1220    1.4864    2.7392 H   0  0  0  0  0  0  0  0  0  0  0  0
    3.8432    1.5954    3.9475 H   0  0  0  0  0  0  0  0  0  0  0  0
    0.0027    1.7865    0.8926 H   0  0  0  0  0  0  0  0  0  0  0  0
    1.4891    1.5933   -0.0607 H   0  0  0  0  0  0  0  0  0  0  0  0
   -1.5409   -0.2119    0.3410 H   0  0  0  0  0  0  0  0  0  0  0  0
   -1.6837    0.4920   -3.3449 H   0  0  0  0  0  0  0  0  0  0  0  0
   -3.5169   -0.3098   -4.7391 H   0  0  0  0  0  0  0  0  0  0  0  0
   -5.3867   -2.1391   -1.3246 H   0  0  0  0  0  0  0  0  0  0  0  0
  1  2  1  0
  2  3  1  0
  2  4  1  0
  4  5  2  0
  4  6  1  0
  6  7  1  0
  7  8  1  0
  8  9  2  0
  8 10  1  0
 10 11  1  0
 11 12  2  0
 12 13  1  0
 13 14  2  0
 14 15  1  0
 14 16  1  0
 16 17  2  0
 17 18  1  0
 17 11  1  0
  1 19  1  0
  1 20  1  0
  1 21  1  0
  3 22  1  0
  3 23  1  0
  3 24  1  0
  7 25  1  0
  7 26  1  0
 10 27  1  0
 12 28  1  0
 13 29  1  0
 16 30  1  0
M  END
$$$$
