
     RDKit          3D

 50 52  0  0  0  0  0  0  0  0999 V2000
   -4.5835   -2.1323   -2.9083 C   0  0  0  0  0  0  0  0  0  0  0  0
   -4.8652   -1.0477   -2.0340 O   0  0  0  0  0  0  0  0  0  0  0  0
   -3.9386   -0.7582   -1.0664 C   0  0  0  0  0  0  0  0  0  0  0  0
   -2.7363   -1.4388   -0.8852 C   0  0  0  0  0  0  0  0  0  0  0  0
   -1.8565   -1.0363    0.1265 C   0  0  0  0  0  0  0  0  0  0  0  0
   -0.5904   -1.7831    0.2932 C   0  0  0  0  0  0  0  0  0  0  0  0
   -0.6619   -2.9996    0.4454 O   0  0  0  0  0  0  0  0  0  0  0  0
    0.6089   -1.0811    0.2644 N   0  0  0  0  0  0  0  0  0  0  0  0
    1.8530   -1.8253    0.4855 C   0  0  0  0  0  0  0  0  0  0  0  0
    2.9971   -0.9467    1.0244 C   0  0  0  0  0  0  0  0  0  0  0  0
    3.1732    0.3112    0.2624 N   0  0  0  0  0  0  0  0  0  0  0  0
    4.4893    0.6419   -0.0946 C   0  0  0  0  0  0  0  0  0  0  0  0
    5.0117    1.8175    0.4740 C   0  0  0  0  0  0  0  0  0  0  0  0
    6.3079    2.2457    0.1866 C   0  0  0  0  0  0  0  0  0  0  0  0
    6.9113    3.6881    0.9043 Cl  0  0  0  0  0  0  0  0  0  0  0  0
    7.1160    1.5146   -0.6772 C   0  0  0  0  0  0  0  0  0  0  0  0
    6.6206    0.3474   -1.2576 C   0  0  0  0  0  0  0  0  0  0  0  0
    5.3191   -0.0882   -0.9731 C   0  0  0  0  0  0  0  0  0  0  0  0
    4.7986   -1.5405   -1.7569 Cl  0  0  0  0  0  0  0  0  0  0  0  0
    2.1687    0.5885   -0.7804 C   0  0  0  0  0  0  0  0  0  0  0  0
    0.7552    0.2935   -0.2438 C   0  0  0  0  0  0  0  0  0  0  0  0
   -2.1767    0.0149    0.9943 C   0  0  0  0  0  0  0  0  0  0  0  0
   -3.3732    0.7089    0.8247 C   0  0  0  0  0  0  0  0  0  0  0  0
   -3.7824    1.7648    1.5967 O   0  0  0  0  0  0  0  0  0  0  0  0
   -2.8954    2.2244    2.6074 C   0  0  0  0  0  0  0  0  0  0  0  0
   -4.2501    0.3092   -0.2022 C   0  0  0  0  0  0  0  0  0  0  0  0
   -5.4110    1.0237   -0.4077 O   0  0  0  0  0  0  0  0  0  0  0  0
   -6.4753    0.4450    0.3460 C   0  0  0  0  0  0  0  0  0  0  0  0
   -5.4211   -2.2250   -3.6063 H   0  0  0  0  0  0  0  0  0  0  0  0
   -4.5052   -3.0746   -2.3561 H   0  0  0  0  0  0  0  0  0  0  0  0
   -3.6801   -1.9408   -3.4964 H   0  0  0  0  0  0  0  0  0  0  0  0
   -2.4501   -2.2789   -1.5103 H   0  0  0  0  0  0  0  0  0  0  0  0
    1.6709   -2.6552    1.1774 H   0  0  0  0  0  0  0  0  0  0  0  0
    2.1308   -2.2650   -0.4792 H   0  0  0  0  0  0  0  0  0  0  0  0
    3.9182   -1.5390    1.0795 H   0  0  0  0  0  0  0  0  0  0  0  0
    2.7546   -0.6583    2.0549 H   0  0  0  0  0  0  0  0  0  0  0  0
    4.3905    2.3974    1.1531 H   0  0  0  0  0  0  0  0  0  0  0  0
    8.1262    1.8457   -0.9031 H   0  0  0  0  0  0  0  0  0  0  0  0
    7.2536   -0.2208   -1.9352 H   0  0  0  0  0  0  0  0  0  0  0  0
    2.2194    1.6426   -1.0790 H   0  0  0  0  0  0  0  0  0  0  0  0
    2.3486   -0.0203   -1.6739 H   0  0  0  0  0  0  0  0  0  0  0  0
    0.0171    0.4768   -1.0313 H   0  0  0  0  0  0  0  0  0  0  0  0
    0.5393    0.9655    0.5946 H   0  0  0  0  0  0  0  0  0  0  0  0
   -1.4830    0.2589    1.7912 H   0  0  0  0  0  0  0  0  0  0  0  0
   -2.7348    1.4546    3.3692 H   0  0  0  0  0  0  0  0  0  0  0  0
   -1.9460    2.5608    2.1778 H   0  0  0  0  0  0  0  0  0  0  0  0
   -3.3626    3.0844    3.0969 H   0  0  0  0  0  0  0  0  0  0  0  0
   -6.2666    0.4764    1.4208 H   0  0  0  0  0  0  0  0  0  0  0  0
   -7.3764    1.0374    0.1607 H   0  0  0  0  0  0  0  0  0  0  0  0
   -6.6773   -0.5840    0.0294 H   0  0  0  0  0  0  0  0  0  0  0  0
  1  2  1  0
  2  3  1  0
  3  4  2  0
  4  5  1  0
  5  6  1  0
  6  7  2  0
  6  8  1  0
  8  9  1  0
  9 10  1  0
 10 11  1  0
 11 12  1  0
 12 13  2  0
 13 14  1  0
 14 15  1  0
 14 16  2  0
 16 17  1  0
 17 18  2  0
 18 19  1  0
 11 20  1  0
 20 21  1  0
  5 22  2  0
 22 23  1  0
 23 24  1  0
 24 25  1  0
 23 26  2  0
 26 27  1  0
 27 28  1  0
 26  3  1  0
 21  8  1  0
 18 12  1  0
  1 29  1  0
  1 30  1  0
  1 31  1  0
  4 32  1  0
  9 33  1  0
  9 34  1  0
 10 35  1  0
 10 36  1  0
 13 37  1  0
 16 38  1  0
 17 39  1  0
 20 40  1  0
 20 41  1  0
 21 42  1  0
 21 43  1  0
 22 44  1  0
 25 45  1  0
 25 46  1  0
 25 47  1  0
 28 48  1  0
 28 49  1  0
 28 50  1  0
M  END
$$$$
