
     RDKit          3D

 24 25  0  0  0  0  0  0  0  0999 V2000
    2.2080    1.3015   -2.8827 C   0  0  0  0  0  0  0  0  0  0  0  0
    1.9595    1.0974   -1.4774 N   0  0  0  0  0  0  0  0  0  0  0  0
    2.8608    1.5193   -0.5634 N   0  0  0  0  0  0  0  0  0  0  0  0
    2.2567    1.1439    0.5776 C   0  0  0  0  0  0  0  0  0  0  0  0
    2.8648    1.3924    1.8777 N   0  0  0  0  0  4  0  0  0  0  0  0
    3.9656    1.9656    1.9066 O   0  0  0  0  0  0  0  0  0  0  0  0
    2.2354    1.0107    2.8767 O   0  0  0  0  0  1  0  0  0  0  0  0
    1.0425    0.5182    0.4333 N   0  0  0  0  0  0  0  0  0  0  0  0
    0.8840    0.5044   -0.8706 C   0  0  0  0  0  0  0  0  0  0  0  0
   -0.4521   -0.1453   -1.7617 S   0  0  0  0  0  0  0  0  0  0  0  0
   -1.4532   -0.7365   -0.4110 C   0  0  0  0  0  0  0  0  0  0  0  0
   -2.4211    0.0943    0.1660 C   0  0  0  0  0  0  0  0  0  0  0  0
   -3.2195   -0.3755    1.2126 C   0  0  0  0  0  0  0  0  0  0  0  0
   -3.0549   -1.6786    1.6781 C   0  0  0  0  0  0  0  0  0  0  0  0
   -4.0404   -2.2581    2.9634 Cl  0  0  0  0  0  0  0  0  0  0  0  0
   -2.1002   -2.5166    1.1054 C   0  0  0  0  0  0  0  0  0  0  0  0
   -1.3017   -2.0466    0.0588 C   0  0  0  0  0  0  0  0  0  0  0  0
    3.1681    1.8083   -3.0127 H   0  0  0  0  0  0  0  0  0  0  0  0
    1.4079    1.9227   -3.2922 H   0  0  0  0  0  0  0  0  0  0  0  0
    2.2387    0.3275   -3.3770 H   0  0  0  0  0  0  0  0  0  0  0  0
   -2.5571    1.1135   -0.1870 H   0  0  0  0  0  0  0  0  0  0  0  0
   -3.9630    0.2790    1.6597 H   0  0  0  0  0  0  0  0  0  0  0  0
   -1.9703   -3.5325    1.4687 H   0  0  0  0  0  0  0  0  0  0  0  0
   -0.5586   -2.7089   -0.3784 H   0  0  0  0  0  0  0  0  0  0  0  0
  1  2  1  0
  2  3  1  0
  3  4  2  0
  4  5  1  0
  5  6  2  0
  5  7  1  0
  4  8  1  0
  8  9  2  0
  9 10  1  0
 10 11  1  0
 11 12  2  0
 12 13  1  0
 13 14  2  0
 14 15  1  0
 14 16  1  0
 16 17  2  0
  9  2  1  0
 17 11  1  0
  1 18  1  0
  1 19  1  0
  1 20  1  0
 12 21  1  0
 13 22  1  0
 16 23  1  0
 17 24  1  0
M  CHG  2   5   1   7  -1
M  END
$$$$
