
     RDKit          3D

 41 42  0  0  0  0  0  0  0  0999 V2000
    4.4883   -2.4877    0.9093 C   0  0  0  0  0  0  0  0  0  0  0  0
    3.3436   -1.6959    0.6094 O   0  0  0  0  0  0  0  0  0  0  0  0
    3.5647   -0.4385    0.0937 C   0  0  0  0  0  0  0  0  0  0  0  0
    4.8235    0.0938   -0.1992 C   0  0  0  0  0  0  0  0  0  0  0  0
    4.9189    1.3902   -0.7266 C   0  0  0  0  0  0  0  0  0  0  0  0
    6.2409    1.9508   -1.0359 N   0  0  0  0  0  4  0  0  0  0  0  0
    7.2335    1.2491   -0.7928 O   0  0  0  0  0  0  0  0  0  0  0  0
    6.2873    3.0889   -1.5226 O   0  0  0  0  0  1  0  0  0  0  0  0
    3.7714    2.1532   -0.9651 C   0  0  0  0  0  0  0  0  0  0  0  0
    2.5146    1.6177   -0.6723 C   0  0  0  0  0  0  0  0  0  0  0  0
    2.4010    0.3300   -0.1401 C   0  0  0  0  0  0  0  0  0  0  0  0
    1.1647   -0.2745    0.1730 N   0  0  0  0  0  0  0  0  0  0  0  0
   -0.0915    0.3025    0.1844 C   0  0  0  0  0  0  0  0  0  0  0  0
   -0.3384    1.4850   -0.0215 O   0  0  0  0  0  0  0  0  0  0  0  0
   -1.0621   -0.6630    0.4740 N   0  0  0  0  0  0  0  0  0  0  0  0
   -2.4225   -0.2899    0.5014 N   0  0  0  0  0  0  0  0  0  0  0  0
   -3.0563   -0.3654   -0.8274 C   0  0  0  0  0  0  0  0  0  0  0  0
   -4.5969   -0.5309   -0.7827 C   0  0  0  0  0  0  0  0  0  0  0  0
   -5.2644    0.0295    0.4056 N   0  0  0  0  0  0  0  0  0  0  0  0
   -5.2029    1.4942    0.3899 C   0  0  0  0  0  0  0  0  0  0  0  0
   -4.6414   -0.5081    1.6365 C   0  0  0  0  0  0  0  0  0  0  0  0
   -3.1869   -1.0293    1.5078 C   0  0  0  0  0  0  0  0  0  0  0  0
    5.1170   -2.0034    1.6636 H   0  0  0  0  0  0  0  0  0  0  0  0
    4.1370   -3.4357    1.3278 H   0  0  0  0  0  0  0  0  0  0  0  0
    5.0578   -2.7151    0.0022 H   0  0  0  0  0  0  0  0  0  0  0  0
    5.7289   -0.4795   -0.0271 H   0  0  0  0  0  0  0  0  0  0  0  0
    3.8313    3.1594   -1.3759 H   0  0  0  0  0  0  0  0  0  0  0  0
    1.6392    2.2292   -0.8737 H   0  0  0  0  0  0  0  0  0  0  0  0
    1.2486   -1.1951    0.5851 H   0  0  0  0  0  0  0  0  0  0  0  0
   -0.8397   -1.6157    0.2108 H   0  0  0  0  0  0  0  0  0  0  0  0
   -2.8127    0.5556   -1.3706 H   0  0  0  0  0  0  0  0  0  0  0  0
   -2.6473   -1.2019   -1.4092 H   0  0  0  0  0  0  0  0  0  0  0  0
   -5.0385   -0.1200   -1.6991 H   0  0  0  0  0  0  0  0  0  0  0  0
   -4.8273   -1.6048   -0.8085 H   0  0  0  0  0  0  0  0  0  0  0  0
   -4.1827    1.8862    0.4582 H   0  0  0  0  0  0  0  0  0  0  0  0
   -5.6612    1.8866   -0.5249 H   0  0  0  0  0  0  0  0  0  0  0  0
   -5.7816    1.9049    1.2250 H   0  0  0  0  0  0  0  0  0  0  0  0
   -5.2628   -1.3449    1.9800 H   0  0  0  0  0  0  0  0  0  0  0  0
   -4.6867    0.2357    2.4430 H   0  0  0  0  0  0  0  0  0  0  0  0
   -3.2059   -2.0969    1.2495 H   0  0  0  0  0  0  0  0  0  0  0  0
   -2.7025   -0.9463    2.4886 H   0  0  0  0  0  0  0  0  0  0  0  0
  1  2  1  0
  2  3  1  0
  3  4  2  0
  4  5  1  0
  5  6  1  0
  6  7  2  0
  6  8  1  0
  5  9  2  0
  9 10  1  0
 10 11  2  0
 11 12  1  0
 12 13  1  0
 13 14  2  0
 13 15  1  0
 15 16  1  0
 16 17  1  0
 17 18  1  0
 18 19  1  0
 19 20  1  0
 19 21  1  0
 21 22  1  0
 11  3  1  0
 22 16  1  0
  1 23  1  0
  1 24  1  0
  1 25  1  0
  4 26  1  0
  9 27  1  0
 10 28  1  0
 12 29  1  0
 15 30  1  0
 17 31  1  0
 17 32  1  0
 18 33  1  0
 18 34  1  0
 20 35  1  0
 20 36  1  0
 20 37  1  0
 21 38  1  0
 21 39  1  0
 22 40  1  0
 22 41  1  0
M  CHG  2   6   1   8  -1
M  END
$$$$
