
     RDKit          3D

 47 49  0  0  0  0  0  0  0  0999 V2000
    1.0260    1.3308   -3.1243 O   0  0  0  0  0  0  0  0  0  0  0  0
    0.8544    1.2815   -1.9117 C   0  0  0  0  0  0  0  0  0  0  0  0
    1.3828    2.3565   -0.9773 C   0  0  0  0  0  0  0  0  0  0  0  0
    2.5895    3.1027   -1.5361 C   0  0  0  0  0  0  0  0  0  0  0  0
    4.1188    2.0907   -1.6096 S   0  0  0  0  0  0  0  0  0  0  0  0
    4.3686    1.7339    0.1200 C   0  0  0  0  0  0  0  0  0  0  0  0
    4.5637    2.7529    1.0575 C   0  0  0  0  0  0  0  0  0  0  0  0
    4.7453    2.4405    2.4082 C   0  0  0  0  0  0  0  0  0  0  0  0
    4.7411    1.1092    2.8259 C   0  0  0  0  0  0  0  0  0  0  0  0
    4.5650    0.0888    1.8927 C   0  0  0  0  0  0  0  0  0  0  0  0
    4.3835    0.3999    0.5429 C   0  0  0  0  0  0  0  0  0  0  0  0
    0.1141    0.3325   -1.2312 N   0  0  0  0  0  0  0  0  0  0  0  0
   -0.4717   -0.8552   -1.7353 C   0  0  0  0  0  0  0  0  0  0  0  0
   -0.2643   -1.2987   -3.0460 C   0  0  0  0  0  0  0  0  0  0  0  0
   -0.8020   -2.5140   -3.4842 C   0  0  0  0  0  0  0  0  0  0  0  0
   -1.5501   -3.3082   -2.6184 C   0  0  0  0  0  0  0  0  0  0  0  0
   -1.7777   -2.8791   -1.3134 C   0  0  0  0  0  0  0  0  0  0  0  0
   -1.2721   -1.6439   -0.8788 C   0  0  0  0  0  0  0  0  0  0  0  0
   -1.5637   -1.1810    0.5050 C   0  0  0  0  0  0  0  0  0  0  0  0
   -0.6382   -0.7109    1.1674 O   0  0  0  0  0  0  0  0  0  0  0  0
   -2.8627   -1.2332    0.9835 N   0  0  0  0  0  0  0  0  0  0  0  0
   -3.1643   -0.7617    2.3254 C   0  0  0  0  0  0  0  0  0  0  0  0
   -4.6623   -0.9745    2.4758 C   0  0  0  0  0  0  0  0  0  0  0  0
   -5.1697   -0.7535    1.0566 C   0  0  0  0  0  0  0  0  0  0  0  0
   -4.0846   -1.4016    0.2048 C   0  0  0  0  0  0  0  0  0  0  0  0
    0.5623    3.0723   -0.8357 H   0  0  0  0  0  0  0  0  0  0  0  0
    1.6015    1.9316    0.0085 H   0  0  0  0  0  0  0  0  0  0  0  0
    2.3872    3.4577   -2.5523 H   0  0  0  0  0  0  0  0  0  0  0  0
    2.7881    3.9910   -0.9266 H   0  0  0  0  0  0  0  0  0  0  0  0
    4.5822    3.7948    0.7478 H   0  0  0  0  0  0  0  0  0  0  0  0
    4.8900    3.2368    3.1334 H   0  0  0  0  0  0  0  0  0  0  0  0
    4.8773    0.8657    3.8777 H   0  0  0  0  0  0  0  0  0  0  0  0
    4.5658   -0.9511    2.2148 H   0  0  0  0  0  0  0  0  0  0  0  0
    4.2433   -0.4072   -0.1741 H   0  0  0  0  0  0  0  0  0  0  0  0
    0.0281    0.4477   -0.2192 H   0  0  0  0  0  0  0  0  0  0  0  0
    0.3331   -0.7303   -3.7525 H   0  0  0  0  0  0  0  0  0  0  0  0
   -0.6218   -2.8417   -4.5051 H   0  0  0  0  0  0  0  0  0  0  0  0
   -1.9463   -4.2615   -2.9586 H   0  0  0  0  0  0  0  0  0  0  0  0
   -2.3425   -3.5160   -0.6371 H   0  0  0  0  0  0  0  0  0  0  0  0
   -2.5750   -1.3094    3.0658 H   0  0  0  0  0  0  0  0  0  0  0  0
   -2.9070    0.3025    2.3812 H   0  0  0  0  0  0  0  0  0  0  0  0
   -4.8664   -2.0062    2.7869 H   0  0  0  0  0  0  0  0  0  0  0  0
   -5.1155   -0.2957    3.2037 H   0  0  0  0  0  0  0  0  0  0  0  0
   -5.2222    0.3218    0.8440 H   0  0  0  0  0  0  0  0  0  0  0  0
   -6.1580   -1.1866    0.8812 H   0  0  0  0  0  0  0  0  0  0  0  0
   -3.9990   -0.9453   -0.7859 H   0  0  0  0  0  0  0  0  0  0  0  0
   -4.2745   -2.4750    0.1026 H   0  0  0  0  0  0  0  0  0  0  0  0
  1  2  2  0
  2  3  1  0
  3  4  1  0
  4  5  1  0
  5  6  1  0
  6  7  2  0
  7  8  1  0
  8  9  2  0
  9 10  1  0
 10 11  2  0
  2 12  1  0
 12 13  1  0
 13 14  2  0
 14 15  1  0
 15 16  2  0
 16 17  1  0
 17 18  2  0
 18 19  1  0
 19 20  2  0
 19 21  1  0
 21 22  1  0
 22 23  1  0
 23 24  1  0
 24 25  1  0
 11  6  1  0
 18 13  1  0
 25 21  1  0
  3 26  1  0
  3 27  1  0
  4 28  1  0
  4 29  1  0
  7 30  1  0
  8 31  1  0
  9 32  1  0
 10 33  1  0
 11 34  1  0
 12 35  1  0
 14 36  1  0
 15 37  1  0
 16 38  1  0
 17 39  1  0
 22 40  1  0
 22 41  1  0
 23 42  1  0
 23 43  1  0
 24 44  1  0
 24 45  1  0
 25 46  1  0
 25 47  1  0
M  END
$$$$
