
     RDKit          3D

 64 67  0  0  0  0  0  0  0  0999 V2000
    8.3113   -4.3257   -0.4583 C   0  0  0  0  0  0  0  0  0  0  0  0
    7.1607   -3.3883   -0.6652 C   0  0  0  0  0  0  0  0  0  0  0  0
    7.1770   -2.1265   -0.1104 C   0  0  0  0  0  0  0  0  0  0  0  0
    6.0635   -1.3547   -0.3456 C   0  0  0  0  0  0  0  0  0  0  0  0
    5.9615   -0.0824    0.2564 N   0  0  0  0  0  0  0  0  0  0  0  0
    5.4274    1.2016   -0.6765 S   0  0  0  0  0  6  0  0  0  0  0  0
    5.7411    2.3922    0.0906 O   0  0  0  0  0  0  0  0  0  0  0  0
    5.9231    1.0548   -2.0293 O   0  0  0  0  0  0  0  0  0  0  0  0
    3.6602    1.0353   -0.6727 C   0  0  0  0  0  0  0  0  0  0  0  0
    2.9936    0.6139   -1.8236 C   0  0  0  0  0  0  0  0  0  0  0  0
    1.5994    0.5147   -1.8147 C   0  0  0  0  0  0  0  0  0  0  0  0
    0.8634    0.8567   -0.6711 C   0  0  0  0  0  0  0  0  0  0  0  0
   -0.5394    0.7266   -0.7496 N   0  0  0  0  0  0  0  0  0  0  0  0
   -1.4776    1.1067    0.2045 C   0  0  0  0  0  0  0  0  0  0  0  0
   -1.2285    1.6583    1.2710 O   0  0  0  0  0  0  0  0  0  0  0  0
   -2.9194    0.6984   -0.1848 C   0  0  0  0  0  0  0  0  0  0  0  0
   -3.1276   -0.7964    0.1215 C   0  0  0  0  0  0  0  0  0  0  0  0
   -4.5240   -1.3412   -0.2363 C   0  0  0  0  0  0  0  0  0  0  0  0
   -4.6616   -2.7806    0.2739 C   0  0  0  0  0  0  0  0  0  0  0  0
   -4.7935   -1.2946   -1.7415 C   0  0  0  0  0  0  0  0  0  0  0  0
   -3.8497    1.6140    0.4665 N   0  0  0  0  0  0  0  0  0  0  0  0
   -4.2733    1.5487    1.7671 C   0  0  0  0  0  0  0  0  0  0  0  0
   -4.1024    0.6832    2.6069 O   0  0  0  0  0  0  0  0  0  0  0  0
   -5.0272    2.7760    2.0221 C   0  0  0  0  0  0  0  0  0  0  0  0
   -5.6815    3.2006    3.1627 C   0  0  0  0  0  0  0  0  0  0  0  0
   -6.3148    4.4466    3.1101 C   0  0  0  0  0  0  0  0  0  0  0  0
   -6.2800    5.2264    1.9328 C   0  0  0  0  0  0  0  0  0  0  0  0
   -5.6082    4.7738    0.7916 C   0  0  0  0  0  0  0  0  0  0  0  0
   -4.9930    3.5392    0.8691 C   0  0  0  0  0  0  0  0  0  0  0  0
   -4.2182    2.7970   -0.1213 C   0  0  0  0  0  0  0  0  0  0  0  0
   -3.9686    3.1929   -1.2448 O   0  0  0  0  0  0  0  0  0  0  0  0
    1.5442    1.2875    0.4711 C   0  0  0  0  0  0  0  0  0  0  0  0
    2.9402    1.3811    0.4732 C   0  0  0  0  0  0  0  0  0  0  0  0
    4.9897   -1.7764   -1.0206 N   0  0  0  0  0  0  0  0  0  0  0  0
    5.0595   -3.0181   -1.5239 C   0  0  0  0  0  0  0  0  0  0  0  0
    3.8643   -3.5421   -2.2579 C   0  0  0  0  0  0  0  0  0  0  0  0
    6.1047   -3.8507   -1.3638 N   0  0  0  0  0  0  0  0  0  0  0  0
    8.2494   -5.1695   -1.1538 H   0  0  0  0  0  0  0  0  0  0  0  0
    8.2889   -4.7232    0.5633 H   0  0  0  0  0  0  0  0  0  0  0  0
    9.2656   -3.8133   -0.6287 H   0  0  0  0  0  0  0  0  0  0  0  0
    8.0183   -1.7662    0.4655 H   0  0  0  0  0  0  0  0  0  0  0  0
    6.6444    0.1992    0.9543 H   0  0  0  0  0  0  0  0  0  0  0  0
    3.5511    0.3501   -2.7210 H   0  0  0  0  0  0  0  0  0  0  0  0
    1.1033    0.1734   -2.7189 H   0  0  0  0  0  0  0  0  0  0  0  0
   -0.8981    0.4099   -1.6396 H   0  0  0  0  0  0  0  0  0  0  0  0
   -3.0121    0.8579   -1.2675 H   0  0  0  0  0  0  0  0  0  0  0  0
   -2.3716   -1.3778   -0.4260 H   0  0  0  0  0  0  0  0  0  0  0  0
   -2.9207   -0.9883    1.1831 H   0  0  0  0  0  0  0  0  0  0  0  0
   -5.2896   -0.7421    0.2682 H   0  0  0  0  0  0  0  0  0  0  0  0
   -3.9040   -3.4362   -0.1713 H   0  0  0  0  0  0  0  0  0  0  0  0
   -4.5452   -2.8174    1.3647 H   0  0  0  0  0  0  0  0  0  0  0  0
   -5.6474   -3.1877    0.0326 H   0  0  0  0  0  0  0  0  0  0  0  0
   -5.7521   -1.7646   -1.9813 H   0  0  0  0  0  0  0  0  0  0  0  0
   -4.8361   -0.2627   -2.1067 H   0  0  0  0  0  0  0  0  0  0  0  0
   -4.0135   -1.8196   -2.3028 H   0  0  0  0  0  0  0  0  0  0  0  0
   -5.6976    2.5874    4.0580 H   0  0  0  0  0  0  0  0  0  0  0  0
   -6.8415    4.8221    3.9867 H   0  0  0  0  0  0  0  0  0  0  0  0
   -6.7768    6.1948    1.9189 H   0  0  0  0  0  0  0  0  0  0  0  0
   -5.5694    5.3688   -0.1155 H   0  0  0  0  0  0  0  0  0  0  0  0
    1.0209    1.5600    1.3819 H   0  0  0  0  0  0  0  0  0  0  0  0
    3.4531    1.7273    1.3676 H   0  0  0  0  0  0  0  0  0  0  0  0
    3.2121   -2.7229   -2.5771 H   0  0  0  0  0  0  0  0  0  0  0  0
    4.1756   -4.1005   -3.1449 H   0  0  0  0  0  0  0  0  0  0  0  0
    3.2968   -4.2077   -1.6014 H   0  0  0  0  0  0  0  0  0  0  0  0
  1  2  1  0
  2  3  2  0
  3  4  1  0
  4  5  1  0
  5  6  1  0
  6  7  2  0
  6  8  2  0
  6  9  1  0
  9 10  2  0
 10 11  1  0
 11 12  2  0
 12 13  1  0
 13 14  1  0
 14 15  2  0
 14 16  1  0
 16 17  1  0
 17 18  1  0
 18 19  1  0
 18 20  1  0
 16 21  1  0
 21 22  1  0
 22 23  2  0
 22 24  1  0
 24 25  2  0
 25 26  1  0
 26 27  2  0
 27 28  1  0
 28 29  2  0
 29 30  1  0
 30 31  2  0
 12 32  1  0
 32 33  2  0
  4 34  2  0
 34 35  1  0
 35 36  1  0
 35 37  2  0
 37  2  1  0
 33  9  1  0
 30 21  1  0
 29 24  1  0
  1 38  1  0
  1 39  1  0
  1 40  1  0
  3 41  1  0
  5 42  1  0
 10 43  1  0
 11 44  1  0
 13 45  1  0
 16 46  1  0
 17 47  1  0
 17 48  1  0
 18 49  1  0
 19 50  1  0
 19 51  1  0
 19 52  1  0
 20 53  1  0
 20 54  1  0
 20 55  1  0
 25 56  1  0
 26 57  1  0
 27 58  1  0
 28 59  1  0
 32 60  1  0
 33 61  1  0
 36 62  1  0
 36 63  1  0
 36 64  1  0
M  END
$$$$
