
     RDKit          3D

 47 50  0  0  0  0  0  0  0  0999 V2000
   -1.5911    5.5556   -1.1992 C   0  0  0  0  0  0  0  0  0  0  0  0
   -1.2781    4.1162   -1.4909 C   0  0  0  0  0  0  0  0  0  0  0  0
   -2.0153    3.4143   -2.4506 C   0  0  0  0  0  0  0  0  0  0  0  0
   -1.7269    2.0815   -2.7648 C   0  0  0  0  0  0  0  0  0  0  0  0
   -0.6623    1.4723   -2.0932 C   0  0  0  0  0  0  0  0  0  0  0  0
   -0.1659    0.1884   -2.1984 N   0  0  0  0  0  0  0  0  0  0  0  0
    0.8791    0.0310   -1.3342 C   0  0  0  0  0  0  0  0  0  0  0  0
    1.6651   -1.1430   -1.0975 C   0  0  0  0  0  0  0  0  0  0  0  0
    1.4712   -2.2025   -1.6849 O   0  0  0  0  0  0  0  0  0  0  0  0
    2.6640   -0.9406   -0.1221 N   0  0  0  0  0  0  0  0  0  0  0  0
    3.4894   -2.0789    0.2814 C   0  0  0  0  0  0  0  0  0  0  0  0
    2.8236   -2.8674    1.4110 C   0  0  0  0  0  0  0  0  0  0  0  0
    3.1189   -4.0323    1.6642 O   0  0  0  0  0  0  0  0  0  0  0  0
    1.9515   -2.1329    2.1826 N   0  0  0  0  0  0  0  0  0  0  0  0
    1.1520   -2.7029    3.2449 C   0  0  0  0  0  0  0  0  0  0  0  0
   -0.1998   -1.9901    3.3950 C   0  0  0  0  0  0  0  0  0  0  0  0
   -1.0190   -1.8662    2.1256 C   0  0  0  0  0  0  0  0  0  0  0  0
   -1.1440   -2.9309    1.2204 C   0  0  0  0  0  0  0  0  0  0  0  0
   -1.8967   -2.7877    0.0519 C   0  0  0  0  0  0  0  0  0  0  0  0
   -2.5455   -1.5846   -0.2117 C   0  0  0  0  0  0  0  0  0  0  0  0
   -3.4551   -1.4064   -1.6620 Cl  0  0  0  0  0  0  0  0  0  0  0  0
   -2.4512   -0.5226    0.6843 C   0  0  0  0  0  0  0  0  0  0  0  0
   -1.6949   -0.6657    1.8507 C   0  0  0  0  0  0  0  0  0  0  0  0
    2.8612    0.2656    0.5852 N   0  0  0  0  0  0  0  0  0  0  0  0
    2.1169    1.2993    0.3086 C   0  0  0  0  0  0  0  0  0  0  0  0
    1.0731    1.2167   -0.6716 C   0  0  0  0  0  0  0  0  0  0  0  0
    0.1060    2.1435   -1.1358 C   0  0  0  0  0  0  0  0  0  0  0  0
   -0.2047    3.4860   -0.8376 C   0  0  0  0  0  0  0  0  0  0  0  0
   -2.6438    5.7772   -1.4021 H   0  0  0  0  0  0  0  0  0  0  0  0
   -0.9678    6.2070   -1.8195 H   0  0  0  0  0  0  0  0  0  0  0  0
   -1.4081    5.7863   -0.1440 H   0  0  0  0  0  0  0  0  0  0  0  0
   -2.8356    3.9058   -2.9708 H   0  0  0  0  0  0  0  0  0  0  0  0
   -2.3129    1.5450   -3.5058 H   0  0  0  0  0  0  0  0  0  0  0  0
   -0.5368   -0.5375   -2.7996 H   0  0  0  0  0  0  0  0  0  0  0  0
    3.6324   -2.7496   -0.5724 H   0  0  0  0  0  0  0  0  0  0  0  0
    4.4636   -1.7147    0.6251 H   0  0  0  0  0  0  0  0  0  0  0  0
    1.8908   -1.1397    1.9722 H   0  0  0  0  0  0  0  0  0  0  0  0
    1.7259   -2.6018    4.1723 H   0  0  0  0  0  0  0  0  0  0  0  0
    1.0154   -3.7755    3.0646 H   0  0  0  0  0  0  0  0  0  0  0  0
   -0.0042   -0.9815    3.7856 H   0  0  0  0  0  0  0  0  0  0  0  0
   -0.8050   -2.5094    4.1477 H   0  0  0  0  0  0  0  0  0  0  0  0
   -0.6444   -3.8809    1.4014 H   0  0  0  0  0  0  0  0  0  0  0  0
   -1.9635   -3.6168   -0.6480 H   0  0  0  0  0  0  0  0  0  0  0  0
   -2.9539    0.4197    0.4789 H   0  0  0  0  0  0  0  0  0  0  0  0
   -1.6322    0.1722    2.5406 H   0  0  0  0  0  0  0  0  0  0  0  0
    2.2759    2.2468    0.8459 H   0  0  0  0  0  0  0  0  0  0  0  0
    0.3826    4.0314   -0.1032 H   0  0  0  0  0  0  0  0  0  0  0  0
  1  2  1  0
  2  3  2  0
  3  4  1  0
  4  5  2  0
  5  6  1  0
  6  7  1  0
  7  8  1  0
  8  9  2  0
  8 10  1  0
 10 11  1  0
 11 12  1  0
 12 13  2  0
 12 14  1  0
 14 15  1  0
 15 16  1  0
 16 17  1  0
 17 18  2  0
 18 19  1  0
 19 20  2  0
 20 21  1  0
 20 22  1  0
 22 23  2  0
 10 24  1  0
 24 25  2  0
 25 26  1  0
 26 27  1  0
 27 28  2  0
 28  2  1  0
 27  5  1  0
 26  7  2  0
 23 17  1  0
  1 29  1  0
  1 30  1  0
  1 31  1  0
  3 32  1  0
  4 33  1  0
  6 34  1  0
 11 35  1  0
 11 36  1  0
 14 37  1  0
 15 38  1  0
 15 39  1  0
 16 40  1  0
 16 41  1  0
 18 42  1  0
 19 43  1  0
 22 44  1  0
 23 45  1  0
 25 46  1  0
 28 47  1  0
M  END
$$$$
