
     RDKit          3D

 50 52  0  0  0  0  0  0  0  0999 V2000
    5.6379   -1.6531   -2.8858 C   0  0  0  0  0  0  0  0  0  0  0  0
    4.4701   -0.9836   -2.4248 O   0  0  0  0  0  0  0  0  0  0  0  0
    4.5111    0.3934   -2.3979 C   0  0  0  0  0  0  0  0  0  0  0  0
    5.6156    1.1686   -2.7648 C   0  0  0  0  0  0  0  0  0  0  0  0
    5.5468    2.5617   -2.6987 C   0  0  0  0  0  0  0  0  0  0  0  0
    4.3780    3.1836   -2.2690 C   0  0  0  0  0  0  0  0  0  0  0  0
    3.2697    2.4183   -1.8997 C   0  0  0  0  0  0  0  0  0  0  0  0
    3.3260    1.0245   -1.9607 C   0  0  0  0  0  0  0  0  0  0  0  0
    2.2508    0.1799   -1.6046 N   0  0  0  0  0  0  0  0  0  0  0  0
    0.9939    0.5353   -1.1507 C   0  0  0  0  0  0  0  0  0  0  0  0
    0.5741    1.6778   -0.9844 O   0  0  0  0  0  0  0  0  0  0  0  0
    0.1091   -0.6913   -0.8838 C   0  0  0  0  0  0  0  0  0  0  0  0
   -1.1001   -0.3608   -0.2040 O   0  0  0  0  0  0  0  0  0  0  0  0
   -0.9162   -0.0645    1.1056 C   0  0  0  0  0  0  0  0  0  0  0  0
    0.1066   -0.1982    1.7556 O   0  0  0  0  0  0  0  0  0  0  0  0
   -2.1449    0.5607    1.6139 C   0  0  0  0  0  0  0  0  0  0  0  0
   -2.1156    1.9649    1.6827 C   0  0  0  0  0  0  0  0  0  0  0  0
   -3.2565    2.6523    2.1002 C   0  0  0  0  0  0  0  0  0  0  0  0
   -3.2414    4.1171    2.1776 N   0  0  0  0  0  4  0  0  0  0  0  0
   -2.1501    4.6903    2.0568 O   0  0  0  0  0  0  0  0  0  0  0  0
   -4.3228    4.6942    2.3636 O   0  0  0  0  0  1  0  0  0  0  0  0
   -4.4174    1.9536    2.4407 C   0  0  0  0  0  0  0  0  0  0  0  0
   -4.4235    0.5564    2.3738 C   0  0  0  0  0  0  0  0  0  0  0  0
   -3.2891   -0.1772    1.9782 C   0  0  0  0  0  0  0  0  0  0  0  0
   -3.4247   -1.5629    1.9773 N   0  0  0  0  0  0  0  0  0  0  0  0
   -3.8521   -2.1439    0.6951 C   0  0  0  0  0  0  0  0  0  0  0  0
   -3.3444   -3.5811    0.7560 C   0  0  0  0  0  0  0  0  0  0  0  0
   -2.0435   -3.4412    1.5284 C   0  0  0  0  0  0  0  0  0  0  0  0
   -2.3947   -2.4103    2.5970 C   0  0  0  0  0  0  0  0  0  0  0  0
    6.4888   -1.4583   -2.2250 H   0  0  0  0  0  0  0  0  0  0  0  0
    5.4362   -2.7285   -2.8607 H   0  0  0  0  0  0  0  0  0  0  0  0
    5.8647   -1.3813   -3.9223 H   0  0  0  0  0  0  0  0  0  0  0  0
    6.5449    0.7238   -3.1033 H   0  0  0  0  0  0  0  0  0  0  0  0
    6.4076    3.1639   -2.9815 H   0  0  0  0  0  0  0  0  0  0  0  0
    4.3254    4.2687   -2.2144 H   0  0  0  0  0  0  0  0  0  0  0  0
    2.3802    2.9409   -1.5622 H   0  0  0  0  0  0  0  0  0  0  0  0
    2.4761   -0.8068   -1.6894 H   0  0  0  0  0  0  0  0  0  0  0  0
   -0.1710   -1.1144   -1.8539 H   0  0  0  0  0  0  0  0  0  0  0  0
    0.6661   -1.4592   -0.3336 H   0  0  0  0  0  0  0  0  0  0  0  0
   -1.2094    2.4970    1.3931 H   0  0  0  0  0  0  0  0  0  0  0  0
   -5.3174    2.4710    2.7653 H   0  0  0  0  0  0  0  0  0  0  0  0
   -5.3288    0.0187    2.6543 H   0  0  0  0  0  0  0  0  0  0  0  0
   -3.4012   -1.6271   -0.1605 H   0  0  0  0  0  0  0  0  0  0  0  0
   -4.9414   -2.1101    0.5883 H   0  0  0  0  0  0  0  0  0  0  0  0
   -3.2056   -4.0189   -0.2366 H   0  0  0  0  0  0  0  0  0  0  0  0
   -4.0486   -4.2087    1.3157 H   0  0  0  0  0  0  0  0  0  0  0  0
   -1.7005   -4.3863    1.9575 H   0  0  0  0  0  0  0  0  0  0  0  0
   -1.2547   -3.0581    0.8712 H   0  0  0  0  0  0  0  0  0  0  0  0
   -2.8494   -2.9137    3.4589 H   0  0  0  0  0  0  0  0  0  0  0  0
   -1.5144   -1.8772    2.9659 H   0  0  0  0  0  0  0  0  0  0  0  0
  1  2  1  0
  2  3  1  0
  3  4  2  0
  4  5  1  0
  5  6  2  0
  6  7  1  0
  7  8  2  0
  8  9  1  0
  9 10  1  0
 10 11  2  0
 10 12  1  0
 12 13  1  0
 13 14  1  0
 14 15  2  0
 14 16  1  0
 16 17  2  0
 17 18  1  0
 18 19  1  0
 19 20  2  0
 19 21  1  0
 18 22  2  0
 22 23  1  0
 23 24  2  0
 24 25  1  0
 25 26  1  0
 26 27  1  0
 27 28  1  0
 28 29  1  0
  8  3  1  0
 24 16  1  0
 29 25  1  0
  1 30  1  0
  1 31  1  0
  1 32  1  0
  4 33  1  0
  5 34  1  0
  6 35  1  0
  7 36  1  0
  9 37  1  0
 12 38  1  0
 12 39  1  0
 17 40  1  0
 22 41  1  0
 23 42  1  0
 26 43  1  0
 26 44  1  0
 27 45  1  0
 27 46  1  0
 28 47  1  0
 28 48  1  0
 29 49  1  0
 29 50  1  0
M  CHG  2  19   1  21  -1
M  END
$$$$
