
     RDKit          3D

 70 72  0  0  0  0  0  0  0  0999 V2000
    8.8993   -0.7904   -0.4739 C   0  0  0  0  0  0  0  0  0  0  0  0
    7.9154   -0.6207    0.6730 C   0  0  0  0  0  0  0  0  0  0  0  0
    7.7178    0.8361    1.0983 C   0  0  0  0  0  0  0  0  0  0  0  0
    7.1881    1.7788    0.0112 C   0  0  0  0  0  0  0  0  0  0  0  0
    5.8632    1.3648   -0.6381 C   0  0  0  0  0  0  0  0  0  0  0  0
    4.7057    1.2829    0.3598 C   0  0  0  0  0  0  0  0  0  0  0  0
    3.3454    1.0413   -0.3043 C   0  0  0  0  0  0  0  0  0  0  0  0
    3.2278   -0.3402   -0.9544 C   0  0  0  0  0  0  0  0  0  0  0  0
    1.8465   -0.6089   -1.5703 C   0  0  0  0  0  0  0  0  0  0  0  0
    0.7447   -0.7097   -0.5117 C   0  0  0  0  0  0  0  0  0  0  0  0
   -0.6398   -1.1552   -1.0616 N   0  0  0  0  0  4  0  0  0  0  0  0
   -1.0852   -0.2287   -2.1917 C   0  0  0  0  0  0  0  0  0  0  0  0
   -0.5770   -2.5931   -1.5624 C   0  0  0  0  0  0  0  0  0  0  0  0
   -1.6270   -1.0350    0.1384 C   0  0  0  0  0  0  0  0  0  0  0  0
   -3.0232   -1.6327   -0.1092 C   0  0  0  0  0  0  0  0  0  0  0  0
   -3.9623   -1.2250    0.9985 C   0  0  0  0  0  0  0  0  0  0  0  0
   -5.0443   -0.4136    0.9397 C   0  0  0  0  0  0  0  0  0  0  0  0
   -5.6354    0.0293    2.2328 C   0  0  0  0  0  0  0  0  0  0  0  0
   -5.9869   -0.8766    3.2449 C   0  0  0  0  0  0  0  0  0  0  0  0
   -6.5381   -0.4157    4.4418 C   0  0  0  0  0  0  0  0  0  0  0  0
   -6.7533    0.9483    4.6344 C   0  0  0  0  0  0  0  0  0  0  0  0
   -6.4241    1.8583    3.6282 C   0  0  0  0  0  0  0  0  0  0  0  0
   -5.8735    1.4068    2.4233 C   0  0  0  0  0  0  0  0  0  0  0  0
   -5.4778    2.6153    1.1534 S   0  0  0  0  0  0  0  0  0  0  0  0
   -5.7110    1.6263   -0.3231 C   0  0  0  0  0  0  0  0  0  0  0  0
   -6.1369    2.2628   -1.4956 C   0  0  0  0  0  0  0  0  0  0  0  0
   -6.3839    1.5169   -2.6509 C   0  0  0  0  0  0  0  0  0  0  0  0
   -6.2325    0.1333   -2.6243 C   0  0  0  0  0  0  0  0  0  0  0  0
   -6.5557   -0.7921   -4.0371 Cl  0  0  0  0  0  0  0  0  0  0  0  0
   -5.8088   -0.5122   -1.4633 C   0  0  0  0  0  0  0  0  0  0  0  0
   -5.5003    0.2327   -0.3169 C   0  0  0  0  0  0  0  0  0  0  0  0
    8.5107   -0.3579   -1.4010 H   0  0  0  0  0  0  0  0  0  0  0  0
    9.8591   -0.3156   -0.2448 H   0  0  0  0  0  0  0  0  0  0  0  0
    9.0816   -1.8547   -0.6558 H   0  0  0  0  0  0  0  0  0  0  0  0
    6.9546   -1.0710    0.3979 H   0  0  0  0  0  0  0  0  0  0  0  0
    8.2855   -1.1856    1.5377 H   0  0  0  0  0  0  0  0  0  0  0  0
    7.0416    0.8600    1.9611 H   0  0  0  0  0  0  0  0  0  0  0  0
    8.6757    1.2332    1.4579 H   0  0  0  0  0  0  0  0  0  0  0  0
    7.0701    2.7769    0.4544 H   0  0  0  0  0  0  0  0  0  0  0  0
    7.9446    1.8865   -0.7756 H   0  0  0  0  0  0  0  0  0  0  0  0
    5.9913    0.4092   -1.1551 H   0  0  0  0  0  0  0  0  0  0  0  0
    5.6189    2.1061   -1.4093 H   0  0  0  0  0  0  0  0  0  0  0  0
    4.6504    2.2264    0.9174 H   0  0  0  0  0  0  0  0  0  0  0  0
    4.8909    0.4903    1.0936 H   0  0  0  0  0  0  0  0  0  0  0  0
    2.5787    1.1510    0.4709 H   0  0  0  0  0  0  0  0  0  0  0  0
    3.1542    1.8213   -1.0510 H   0  0  0  0  0  0  0  0  0  0  0  0
    3.4578   -1.1193   -0.2171 H   0  0  0  0  0  0  0  0  0  0  0  0
    3.9722   -0.4321   -1.7548 H   0  0  0  0  0  0  0  0  0  0  0  0
    1.6216    0.1897   -2.2857 H   0  0  0  0  0  0  0  0  0  0  0  0
    1.9217   -1.5399   -2.1390 H   0  0  0  0  0  0  0  0  0  0  0  0
    0.5824    0.2643   -0.0371 H   0  0  0  0  0  0  0  0  0  0  0  0
    1.0199   -1.4354    0.2637 H   0  0  0  0  0  0  0  0  0  0  0  0
   -2.0913   -0.5083   -2.5112 H   0  0  0  0  0  0  0  0  0  0  0  0
   -1.0706    0.8004   -1.8217 H   0  0  0  0  0  0  0  0  0  0  0  0
   -0.4020   -0.3499   -3.0363 H   0  0  0  0  0  0  0  0  0  0  0  0
    0.1425   -2.6577   -2.3814 H   0  0  0  0  0  0  0  0  0  0  0  0
   -0.2773   -3.2359   -0.7304 H   0  0  0  0  0  0  0  0  0  0  0  0
   -1.5620   -2.8792   -1.9401 H   0  0  0  0  0  0  0  0  0  0  0  0
   -1.1546   -1.5479    0.9858 H   0  0  0  0  0  0  0  0  0  0  0  0
   -1.6924    0.0348    0.3752 H   0  0  0  0  0  0  0  0  0  0  0  0
   -3.3962   -1.3318   -1.0862 H   0  0  0  0  0  0  0  0  0  0  0  0
   -2.9686   -2.7270   -0.1161 H   0  0  0  0  0  0  0  0  0  0  0  0
   -3.6588   -1.6013    1.9779 H   0  0  0  0  0  0  0  0  0  0  0  0
   -5.8546   -1.9466    3.1063 H   0  0  0  0  0  0  0  0  0  0  0  0
   -6.8132   -1.1212    5.2231 H   0  0  0  0  0  0  0  0  0  0  0  0
   -7.1903    1.3036    5.5653 H   0  0  0  0  0  0  0  0  0  0  0  0
   -6.6110    2.9181    3.7903 H   0  0  0  0  0  0  0  0  0  0  0  0
   -6.2985    3.3393   -1.5136 H   0  0  0  0  0  0  0  0  0  0  0  0
   -6.7228    2.0195   -3.5540 H   0  0  0  0  0  0  0  0  0  0  0  0
   -5.7383   -1.5968   -1.4501 H   0  0  0  0  0  0  0  0  0  0  0  0
  1  2  1  0
  2  3  1  0
  3  4  1  0
  4  5  1  0
  5  6  1  0
  6  7  1  0
  7  8  1  0
  8  9  1  0
  9 10  1  0
 10 11  1  0
 11 12  1  0
 11 13  1  0
 11 14  1  0
 14 15  1  0
 15 16  1  0
 16 17  2  3
 17 18  1  0
 18 19  2  0
 19 20  1  0
 20 21  2  0
 21 22  1  0
 22 23  2  0
 23 24  1  0
 24 25  1  0
 25 26  2  0
 26 27  1  0
 27 28  2  0
 28 29  1  0
 28 30  1  0
 30 31  2  0
 31 17  1  0
 23 18  1  0
 31 25  1  0
  1 32  1  0
  1 33  1  0
  1 34  1  0
  2 35  1  0
  2 36  1  0
  3 37  1  0
  3 38  1  0
  4 39  1  0
  4 40  1  0
  5 41  1  0
  5 42  1  0
  6 43  1  0
  6 44  1  0
  7 45  1  0
  7 46  1  0
  8 47  1  0
  8 48  1  0
  9 49  1  0
  9 50  1  0
 10 51  1  0
 10 52  1  0
 12 53  1  0
 12 54  1  0
 12 55  1  0
 13 56  1  0
 13 57  1  0
 13 58  1  0
 14 59  1  0
 14 60  1  0
 15 61  1  0
 15 62  1  0
 16 63  1  0
 19 64  1  0
 20 65  1  0
 21 66  1  0
 22 67  1  0
 26 68  1  0
 27 69  1  0
 30 70  1  0
M  CHG  1  11   1
M  END
$$$$
