
     RDKit          3D

 22 23  0  0  0  0  0  0  0  0999 V2000
   -3.6374   -1.0976   -0.2650 C   0  0  0  0  0  0  0  0  0  0  0  0
   -2.6098   -0.3420   -0.6749 C   0  0  0  0  0  0  0  0  0  0  0  0
   -1.9691    0.7521    0.1358 C   0  0  0  0  0  0  0  0  0  0  0  0
   -0.5780    0.3931    0.4194 N   0  0  0  0  0  0  0  0  0  0  0  0
   -0.2215   -0.2809    1.6059 C   0  0  0  0  0  0  0  0  0  0  0  0
   -1.2479   -0.7533    2.8502 S   0  0  0  0  0  0  0  0  0  0  0  0
    1.1090   -0.5861    1.7823 N   0  0  0  0  0  0  0  0  0  0  0  0
    2.0155   -0.2373    0.8340 C   0  0  0  0  0  0  0  0  0  0  0  0
    3.6374   -0.6083    1.0487 S   0  0  0  0  0  0  0  0  0  0  0  0
    4.0215    0.1190   -0.4648 C   0  0  0  0  0  0  0  0  0  0  0  0
    2.8981    0.6260   -1.0935 C   0  0  0  0  0  0  0  0  0  0  0  0
    1.7165    0.4125   -0.3212 C   0  0  0  0  0  0  0  0  0  0  0  0
    0.3413    0.7701   -0.5886 C   0  0  0  0  0  0  0  0  0  0  0  0
    0.0325    1.3540   -1.6243 O   0  0  0  0  0  0  0  0  0  0  0  0
   -4.0566   -1.8626   -0.9118 H   0  0  0  0  0  0  0  0  0  0  0  0
   -4.0805   -0.9789    0.7195 H   0  0  0  0  0  0  0  0  0  0  0  0
   -2.2125   -0.4977   -1.6766 H   0  0  0  0  0  0  0  0  0  0  0  0
   -2.0088    1.6856   -0.4377 H   0  0  0  0  0  0  0  0  0  0  0  0
   -2.5223    0.9432    1.0600 H   0  0  0  0  0  0  0  0  0  0  0  0
    1.4076   -1.0716    2.6201 H   0  0  0  0  0  0  0  0  0  0  0  0
    5.0450    0.1373   -0.8146 H   0  0  0  0  0  0  0  0  0  0  0  0
    2.9199    1.1235   -2.0564 H   0  0  0  0  0  0  0  0  0  0  0  0
  1  2  2  0
  2  3  1  0
  3  4  1  0
  4  5  1  0
  5  6  2  0
  5  7  1  0
  7  8  1  0
  8  9  1  0
  9 10  1  0
 10 11  2  0
 11 12  1  0
 12 13  1  0
 13 14  2  0
 13  4  1  0
 12  8  2  0
  1 15  1  0
  1 16  1  0
  2 17  1  0
  3 18  1  0
  3 19  1  0
  7 20  1  0
 10 21  1  0
 11 22  1  0
M  END
$$$$
