
     RDKit          3D

 39 40  0  0  0  0  0  0  0  0999 V2000
    1.7043   -2.5649   -0.1276 C   0  0  0  0  0  0  0  0  0  0  0  0
    2.3615   -1.1885   -0.1897 C   0  0  0  0  0  0  0  0  0  0  0  0
    1.3519   -0.0556    0.0389 C   0  0  0  0  0  0  0  0  0  0  0  0
    2.2089    1.5659    0.1320 S   0  0  0  0  0  0  0  0  0  0  0  0
    2.8024    1.5362    1.7522 C   0  0  0  0  0  0  0  0  0  0  0  0
    2.4473    0.7100    2.7079 N   0  0  0  0  0  0  0  0  0  0  0  0
    3.1422    1.0590    3.8450 N   0  0  0  0  0  0  0  0  0  0  0  0
    3.9181    2.0733    3.5369 C   0  0  0  0  0  0  0  0  0  0  0  0
    3.7361    2.4088    2.2279 N   0  0  0  0  0  0  0  0  0  0  0  0
    4.3987    3.4769    1.5299 C   0  0  0  0  0  0  0  0  0  0  0  0
    0.3450    0.0104   -1.1200 C   0  0  0  0  0  0  0  0  0  0  0  0
    0.6955    0.2645   -2.2714 O   0  0  0  0  0  0  0  0  0  0  0  0
   -0.9480   -0.2752   -0.7151 N   0  0  0  0  0  0  0  0  0  0  0  0
   -2.1235   -0.3232   -1.4968 C   0  0  0  0  0  0  0  0  0  0  0  0
   -2.1614   -0.0429   -2.8637 C   0  0  0  0  0  0  0  0  0  0  0  0
   -3.3690   -0.1091   -3.5618 C   0  0  0  0  0  0  0  0  0  0  0  0
   -4.5442   -0.4495   -2.8969 C   0  0  0  0  0  0  0  0  0  0  0  0
   -4.5202   -0.7351   -1.5305 C   0  0  0  0  0  0  0  0  0  0  0  0
   -3.3139   -0.6843   -0.8264 C   0  0  0  0  0  0  0  0  0  0  0  0
   -3.1771   -0.9489    0.5174 O   0  0  0  0  0  0  0  0  0  0  0  0
   -4.2889   -1.5570    1.1656 C   0  0  0  0  0  0  0  0  0  0  0  0
    1.0022   -2.7057   -0.9547 H   0  0  0  0  0  0  0  0  0  0  0  0
    1.1653   -2.7036    0.8144 H   0  0  0  0  0  0  0  0  0  0  0  0
    2.4653   -3.3486   -0.1993 H   0  0  0  0  0  0  0  0  0  0  0  0
    3.1489   -1.1586    0.5731 H   0  0  0  0  0  0  0  0  0  0  0  0
    2.8542   -1.0843   -1.1646 H   0  0  0  0  0  0  0  0  0  0  0  0
    0.8132   -0.2158    0.9776 H   0  0  0  0  0  0  0  0  0  0  0  0
    4.5970    2.5801    4.2065 H   0  0  0  0  0  0  0  0  0  0  0  0
    4.8979    3.0699    0.6469 H   0  0  0  0  0  0  0  0  0  0  0  0
    5.1462    3.9325    2.1858 H   0  0  0  0  0  0  0  0  0  0  0  0
    3.6542    4.2256    1.2493 H   0  0  0  0  0  0  0  0  0  0  0  0
   -1.1146   -0.4871    0.2633 H   0  0  0  0  0  0  0  0  0  0  0  0
   -1.2698    0.2426   -3.4124 H   0  0  0  0  0  0  0  0  0  0  0  0
   -3.3912    0.1213   -4.6259 H   0  0  0  0  0  0  0  0  0  0  0  0
   -5.4824   -0.4878   -3.4445 H   0  0  0  0  0  0  0  0  0  0  0  0
   -5.4563   -0.9852   -1.0464 H   0  0  0  0  0  0  0  0  0  0  0  0
   -5.1422   -0.8714    1.2235 H   0  0  0  0  0  0  0  0  0  0  0  0
   -4.5682   -2.4907    0.6659 H   0  0  0  0  0  0  0  0  0  0  0  0
   -3.9855   -1.8038    2.1878 H   0  0  0  0  0  0  0  0  0  0  0  0
  1  2  1  0
  2  3  1  0
  3  4  1  0
  4  5  1  0
  5  6  2  0
  6  7  1  0
  7  8  2  0
  8  9  1  0
  9 10  1  0
  3 11  1  0
 11 12  2  0
 11 13  1  0
 13 14  1  0
 14 15  2  0
 15 16  1  0
 16 17  2  0
 17 18  1  0
 18 19  2  0
 19 20  1  0
 20 21  1  0
  9  5  1  0
 19 14  1  0
  1 22  1  0
  1 23  1  0
  1 24  1  0
  2 25  1  0
  2 26  1  0
  3 27  1  0
  8 28  1  0
 10 29  1  0
 10 30  1  0
 10 31  1  0
 13 32  1  0
 15 33  1  0
 16 34  1  0
 17 35  1  0
 18 36  1  0
 21 37  1  0
 21 38  1  0
 21 39  1  0
M  END
$$$$
