
     RDKit          3D

 40 41  0  0  0  0  0  0  0  0999 V2000
   -4.8085    3.1350    1.0253 C   0  0  0  0  0  0  0  0  0  0  0  0
   -4.0646    1.9402    0.5074 C   0  0  0  0  0  0  0  0  0  0  0  0
   -2.8925    2.0998   -0.2373 C   0  0  0  0  0  0  0  0  0  0  0  0
   -2.1787    0.9854   -0.6949 C   0  0  0  0  0  0  0  0  0  0  0  0
   -2.6121   -0.3068   -0.3948 C   0  0  0  0  0  0  0  0  0  0  0  0
   -1.9689   -1.4847   -0.8257 N   0  0  0  0  0  0  0  0  0  0  0  0
   -0.7188   -1.7146   -1.3372 C   0  0  0  0  0  0  0  0  0  0  0  0
   -0.4630   -3.1981   -2.0806 S   0  0  0  0  0  0  0  0  0  0  0  0
    0.2149   -0.7185   -1.1814 N   0  0  0  0  0  0  0  0  0  0  0  0
    1.5951   -0.9989   -1.4528 N   0  0  0  0  0  0  0  0  0  0  0  0
    2.0667   -0.1983   -2.5892 C   0  0  0  0  0  0  0  0  0  0  0  0
    2.3813   -0.7015   -0.3007 C   0  0  0  0  0  0  0  0  0  0  0  0
    1.9087    0.2274    0.5801 N   0  0  0  0  0  0  0  0  0  0  0  0
    2.6743    0.4908    1.6665 C   0  0  0  0  0  0  0  0  0  0  0  0
    2.1766    1.5087    2.6431 C   0  0  0  0  0  0  0  0  0  0  0  0
    3.8849   -0.1542    1.8733 C   0  0  0  0  0  0  0  0  0  0  0  0
    4.3707   -1.0881    1.0278 N   0  0  0  0  0  0  0  0  0  0  0  0
    3.5952   -1.3711   -0.0556 C   0  0  0  0  0  0  0  0  0  0  0  0
    4.0933   -2.4596   -0.9588 C   0  0  0  0  0  0  0  0  0  0  0  0
   -3.7941   -0.4644    0.3382 C   0  0  0  0  0  0  0  0  0  0  0  0
   -4.5070    0.6473    0.7980 C   0  0  0  0  0  0  0  0  0  0  0  0
   -5.8822    2.9289    1.0889 H   0  0  0  0  0  0  0  0  0  0  0  0
   -4.4396    3.4031    2.0200 H   0  0  0  0  0  0  0  0  0  0  0  0
   -4.6822    3.9940    0.3580 H   0  0  0  0  0  0  0  0  0  0  0  0
   -2.5302    3.0959   -0.4828 H   0  0  0  0  0  0  0  0  0  0  0  0
   -1.3140    1.1699   -1.3234 H   0  0  0  0  0  0  0  0  0  0  0  0
   -2.5285   -2.3304   -0.7898 H   0  0  0  0  0  0  0  0  0  0  0  0
    0.1157   -0.1543   -0.3331 H   0  0  0  0  0  0  0  0  0  0  0  0
    3.1111   -0.4153   -2.8344 H   0  0  0  0  0  0  0  0  0  0  0  0
    1.4750   -0.4357   -3.4806 H   0  0  0  0  0  0  0  0  0  0  0  0
    1.9696    0.8773   -2.3962 H   0  0  0  0  0  0  0  0  0  0  0  0
    2.8757    2.3482    2.7042 H   0  0  0  0  0  0  0  0  0  0  0  0
    2.0655    1.0598    3.6348 H   0  0  0  0  0  0  0  0  0  0  0  0
    1.2010    1.8988    2.3354 H   0  0  0  0  0  0  0  0  0  0  0  0
    4.5045    0.0587    2.7382 H   0  0  0  0  0  0  0  0  0  0  0  0
    3.3066   -3.1955   -1.1521 H   0  0  0  0  0  0  0  0  0  0  0  0
    4.4461   -2.0436   -1.9061 H   0  0  0  0  0  0  0  0  0  0  0  0
    4.9315   -2.9900   -0.4943 H   0  0  0  0  0  0  0  0  0  0  0  0
   -4.1679   -1.4565    0.5799 H   0  0  0  0  0  0  0  0  0  0  0  0
   -5.4113    0.4939    1.3827 H   0  0  0  0  0  0  0  0  0  0  0  0
  1  2  1  0
  2  3  2  0
  3  4  1  0
  4  5  2  0
  5  6  1  0
  6  7  1  0
  7  8  2  0
  7  9  1  0
  9 10  1  0
 10 11  1  0
 10 12  1  0
 12 13  2  0
 13 14  1  0
 14 15  1  0
 14 16  2  0
 16 17  1  0
 17 18  2  0
 18 19  1  0
  5 20  1  0
 20 21  2  0
 21  2  1  0
 18 12  1  0
  1 22  1  0
  1 23  1  0
  1 24  1  0
  3 25  1  0
  4 26  1  0
  6 27  1  0
  9 28  1  0
 11 29  1  0
 11 30  1  0
 11 31  1  0
 15 32  1  0
 15 33  1  0
 15 34  1  0
 16 35  1  0
 19 36  1  0
 19 37  1  0
 19 38  1  0
 20 39  1  0
 21 40  1  0
M  END
$$$$
