
     RDKit          3D

 37 37  0  0  0  0  0  0  0  0999 V2000
    4.6497    1.7585   -0.7145 C   0  0  0  0  0  0  0  0  0  0  0  0
    4.1099    0.3559   -0.9508 C   0  0  0  0  0  0  0  0  0  0  0  0
    3.6699   -0.2992    0.3591 C   0  0  0  0  0  0  0  0  0  0  0  0
    3.2388   -1.7625    0.1992 C   0  0  0  0  0  0  0  0  0  0  0  0
    2.0249   -1.9815   -0.7036 C   0  0  0  0  0  0  0  0  0  0  0  0
    0.7356   -1.4086   -0.1385 C   0  0  0  0  0  0  0  0  0  0  0  0
    0.6018   -1.0922    1.0395 O   0  0  0  0  0  0  0  0  0  0  0  0
   -0.2558   -1.3160   -1.1210 N   0  0  0  0  0  0  0  0  0  0  0  0
   -1.5578   -1.0683   -0.7747 N   0  0  0  0  0  0  0  0  0  0  0  0
   -1.8610    0.0870   -0.2493 C   0  0  0  0  0  0  0  0  0  0  0  0
   -0.9035    1.2592   -0.1338 C   0  0  0  0  0  0  0  0  0  0  0  0
   -3.2615    0.2928    0.2421 C   0  0  0  0  0  0  0  0  0  0  0  0
   -3.5553    1.2451    1.2267 C   0  0  0  0  0  0  0  0  0  0  0  0
   -4.8709    1.4140    1.6711 C   0  0  0  0  0  0  0  0  0  0  0  0
   -5.8914    0.6289    1.1371 C   0  0  0  0  0  0  0  0  0  0  0  0
   -7.5081    0.8402    1.6855 Cl  0  0  0  0  0  0  0  0  0  0  0  0
   -5.6091   -0.3286    0.1656 C   0  0  0  0  0  0  0  0  0  0  0  0
   -4.2949   -0.4992   -0.2789 C   0  0  0  0  0  0  0  0  0  0  0  0
    3.8880    2.4003   -0.2604 H   0  0  0  0  0  0  0  0  0  0  0  0
    4.9547    2.2117   -1.6629 H   0  0  0  0  0  0  0  0  0  0  0  0
    5.5214    1.7376   -0.0526 H   0  0  0  0  0  0  0  0  0  0  0  0
    4.8855   -0.2518   -1.4305 H   0  0  0  0  0  0  0  0  0  0  0  0
    3.2667    0.4209   -1.6464 H   0  0  0  0  0  0  0  0  0  0  0  0
    4.5047   -0.2698    1.0708 H   0  0  0  0  0  0  0  0  0  0  0  0
    2.8602    0.2872    0.8083 H   0  0  0  0  0  0  0  0  0  0  0  0
    4.0819   -2.3370   -0.2041 H   0  0  0  0  0  0  0  0  0  0  0  0
    3.0318   -2.1734    1.1952 H   0  0  0  0  0  0  0  0  0  0  0  0
    1.8672   -3.0607   -0.8217 H   0  0  0  0  0  0  0  0  0  0  0  0
    2.2047   -1.5699   -1.7021 H   0  0  0  0  0  0  0  0  0  0  0  0
   -0.1790   -2.0076   -1.8617 H   0  0  0  0  0  0  0  0  0  0  0  0
   -0.1273    1.2143   -0.9022 H   0  0  0  0  0  0  0  0  0  0  0  0
   -1.4356    2.2040   -0.2811 H   0  0  0  0  0  0  0  0  0  0  0  0
   -0.4381    1.2648    0.8550 H   0  0  0  0  0  0  0  0  0  0  0  0
   -2.7730    1.8509    1.6760 H   0  0  0  0  0  0  0  0  0  0  0  0
   -5.0898    2.1528    2.4379 H   0  0  0  0  0  0  0  0  0  0  0  0
   -6.4016   -0.9471   -0.2472 H   0  0  0  0  0  0  0  0  0  0  0  0
   -4.0835   -1.2527   -1.0347 H   0  0  0  0  0  0  0  0  0  0  0  0
  1  2  1  0
  2  3  1  0
  3  4  1  0
  4  5  1  0
  5  6  1  0
  6  7  2  0
  6  8  1  0
  8  9  1  0
  9 10  2  3
 10 11  1  0
 10 12  1  0
 12 13  2  0
 13 14  1  0
 14 15  2  0
 15 16  1  0
 15 17  1  0
 17 18  2  0
 18 12  1  0
  1 19  1  0
  1 20  1  0
  1 21  1  0
  2 22  1  0
  2 23  1  0
  3 24  1  0
  3 25  1  0
  4 26  1  0
  4 27  1  0
  5 28  1  0
  5 29  1  0
  8 30  1  0
 11 31  1  0
 11 32  1  0
 11 33  1  0
 13 34  1  0
 14 35  1  0
 17 36  1  0
 18 37  1  0
M  END
$$$$
