
     RDKit          3D

 47 48  0  0  0  0  0  0  0  0999 V2000
    5.1684    0.8267    0.0834 C   0  0  0  0  0  0  0  0  0  0  0  0
    3.7697    0.6072   -0.0482 O   0  0  0  0  0  0  0  0  0  0  0  0
    3.0978    1.3855   -0.9527 C   0  0  0  0  0  0  0  0  0  0  0  0
    3.7083    2.1742   -1.9332 C   0  0  0  0  0  0  0  0  0  0  0  0
    2.9335    2.9413   -2.8119 C   0  0  0  0  0  0  0  0  0  0  0  0
    1.5428    2.9361   -2.7175 C   0  0  0  0  0  0  0  0  0  0  0  0
    0.9204    2.1505   -1.7513 C   0  0  0  0  0  0  0  0  0  0  0  0
    1.6967    1.3539   -0.8987 C   0  0  0  0  0  0  0  0  0  0  0  0
    0.9988    0.6118    0.1578 C   0  0  0  0  0  0  0  0  0  0  0  0
    0.8268    1.1976    1.2314 O   0  0  0  0  0  0  0  0  0  0  0  0
    0.5098   -0.6752   -0.0724 N   0  0  0  0  0  0  0  0  0  0  0  0
   -0.3006   -1.1629    1.0003 N   0  0  0  0  0  0  0  0  0  0  0  0
   -1.6272   -0.7700    1.0197 C   0  0  0  0  0  0  0  0  0  0  0  0
   -2.2660   -0.4048    0.0389 O   0  0  0  0  0  0  0  0  0  0  0  0
   -2.1049   -0.8631    2.3188 O   0  0  0  0  0  0  0  0  0  0  0  0
   -3.4129   -0.3991    2.4705 C   0  0  0  0  0  0  0  0  0  0  0  0
   -4.4401   -1.3292    2.6136 C   0  0  0  0  0  0  0  0  0  0  0  0
   -5.7427   -0.8759    2.8180 C   0  0  0  0  0  0  0  0  0  0  0  0
   -6.0026    0.4950    2.8908 C   0  0  0  0  0  0  0  0  0  0  0  0
   -4.9606    1.4171    2.7641 C   0  0  0  0  0  0  0  0  0  0  0  0
   -3.6558    0.9709    2.5599 C   0  0  0  0  0  0  0  0  0  0  0  0
    0.6585   -1.6333   -1.2230 C   0  0  0  0  0  0  0  0  0  0  0  0
    2.1461   -1.9419   -1.4795 C   0  0  0  0  0  0  0  0  0  0  0  0
    0.0257   -1.0715   -2.5083 C   0  0  0  0  0  0  0  0  0  0  0  0
   -0.0222   -3.0032   -0.9489 C   0  0  0  0  0  0  0  0  0  0  0  0
    5.7020    0.4876   -0.8103 H   0  0  0  0  0  0  0  0  0  0  0  0
    5.3897    1.8766    0.3028 H   0  0  0  0  0  0  0  0  0  0  0  0
    5.5221    0.2280    0.9283 H   0  0  0  0  0  0  0  0  0  0  0  0
    4.7873    2.2166   -2.0420 H   0  0  0  0  0  0  0  0  0  0  0  0
    3.4208    3.5550   -3.5665 H   0  0  0  0  0  0  0  0  0  0  0  0
    0.9462    3.5489   -3.3888 H   0  0  0  0  0  0  0  0  0  0  0  0
   -0.1636    2.1571   -1.6565 H   0  0  0  0  0  0  0  0  0  0  0  0
    0.1451   -1.0812    1.9103 H   0  0  0  0  0  0  0  0  0  0  0  0
   -4.2313   -2.3929    2.5624 H   0  0  0  0  0  0  0  0  0  0  0  0
   -6.5563   -1.5889    2.9214 H   0  0  0  0  0  0  0  0  0  0  0  0
   -7.0193    0.8461    3.0484 H   0  0  0  0  0  0  0  0  0  0  0  0
   -5.1661    2.4825    2.8245 H   0  0  0  0  0  0  0  0  0  0  0  0
   -2.8408    1.6826    2.4651 H   0  0  0  0  0  0  0  0  0  0  0  0
    2.6758   -1.0917   -1.9125 H   0  0  0  0  0  0  0  0  0  0  0  0
    2.2649   -2.7681   -2.1905 H   0  0  0  0  0  0  0  0  0  0  0  0
    2.6561   -2.2224   -0.5511 H   0  0  0  0  0  0  0  0  0  0  0  0
   -0.9985   -0.7278   -2.3310 H   0  0  0  0  0  0  0  0  0  0  0  0
   -0.0098   -1.8325   -3.2969 H   0  0  0  0  0  0  0  0  0  0  0  0
    0.5944   -0.2348   -2.9181 H   0  0  0  0  0  0  0  0  0  0  0  0
    0.3826   -3.4784   -0.0477 H   0  0  0  0  0  0  0  0  0  0  0  0
    0.1365   -3.6993   -1.7814 H   0  0  0  0  0  0  0  0  0  0  0  0
   -1.1058   -2.9012   -0.8244 H   0  0  0  0  0  0  0  0  0  0  0  0
  1  2  1  0
  2  3  1  0
  3  4  2  0
  4  5  1  0
  5  6  2  0
  6  7  1  0
  7  8  2  0
  8  9  1  0
  9 10  2  0
  9 11  1  0
 11 12  1  0
 12 13  1  0
 13 14  2  0
 13 15  1  0
 15 16  1  0
 16 17  2  0
 17 18  1  0
 18 19  2  0
 19 20  1  0
 20 21  2  0
 11 22  1  0
 22 23  1  0
 22 24  1  0
 22 25  1  0
  8  3  1  0
 21 16  1  0
  1 26  1  0
  1 27  1  0
  1 28  1  0
  4 29  1  0
  5 30  1  0
  6 31  1  0
  7 32  1  0
 12 33  1  0
 17 34  1  0
 18 35  1  0
 19 36  1  0
 20 37  1  0
 21 38  1  0
 23 39  1  0
 23 40  1  0
 23 41  1  0
 24 42  1  0
 24 43  1  0
 24 44  1  0
 25 45  1  0
 25 46  1  0
 25 47  1  0
M  END
$$$$
