
     RDKit          3D

 44 47  0  0  0  0  0  0  0  0999 V2000
    7.5398   -2.0395   -1.7124 C   0  0  0  0  0  0  0  0  0  0  0  0
    6.8916   -1.4230   -0.6101 O   0  0  0  0  0  0  0  0  0  0  0  0
    5.6031   -1.1512   -0.7855 C   0  0  0  0  0  0  0  0  0  0  0  0
    4.6738   -1.3163   -1.7877 C   0  0  0  0  0  0  0  0  0  0  0  0
    3.4561   -0.7854   -1.2914 C   0  0  0  0  0  0  0  0  0  0  0  0
    3.7098   -0.3255   -0.0094 C   0  0  0  0  0  0  0  0  0  0  0  0
    2.8866    0.3134    1.0011 C   0  0  0  0  0  0  0  0  0  0  0  0
    3.3199    0.7568    2.0619 O   0  0  0  0  0  0  0  0  0  0  0  0
    1.5414    0.3874    0.6942 N   0  0  0  0  0  0  0  0  0  0  0  0
    0.5776    0.9102    1.6440 C   0  0  0  0  0  0  0  0  0  0  0  0
    0.2069   -0.1511    2.7057 C   0  0  0  0  0  0  0  0  0  0  0  0
   -0.7505   -1.2208    2.1454 C   0  0  0  0  0  0  0  0  0  0  0  0
   -2.0822   -0.6082    1.6676 C   0  0  0  0  0  0  0  0  0  0  0  0
   -1.8331    0.6225    0.8627 C   0  0  0  0  0  0  0  0  0  0  0  0
   -0.6272    1.3043    0.8579 C   0  0  0  0  0  0  0  0  0  0  0  0
   -0.8050    2.3411   -0.0601 C   0  0  0  0  0  0  0  0  0  0  0  0
   -2.0055    2.3062   -0.6307 N   0  0  0  0  0  0  0  0  0  0  0  0
   -2.6824    1.2849   -0.0169 N   0  0  0  0  0  0  0  0  0  0  0  0
   -4.0415    1.0637   -0.3896 C   0  0  0  0  0  0  0  0  0  0  0  0
   -4.5158    1.6648   -1.5744 C   0  0  0  0  0  0  0  0  0  0  0  0
   -5.8326    1.4741   -2.0056 C   0  0  0  0  0  0  0  0  0  0  0  0
   -6.7030    0.6912   -1.2557 C   0  0  0  0  0  0  0  0  0  0  0  0
   -6.2560    0.1136   -0.0706 C   0  0  0  0  0  0  0  0  0  0  0  0
   -4.9394    0.3051    0.3594 C   0  0  0  0  0  0  0  0  0  0  0  0
   -4.6266   -0.2135    1.5504 F   0  0  0  0  0  0  0  0  0  0  0  0
    5.0279   -0.5528    0.2889 O   0  0  0  0  0  0  0  0  0  0  0  0
    8.5866   -2.2066   -1.4418 H   0  0  0  0  0  0  0  0  0  0  0  0
    7.5161   -1.3904   -2.5945 H   0  0  0  0  0  0  0  0  0  0  0  0
    7.0881   -3.0112   -1.9396 H   0  0  0  0  0  0  0  0  0  0  0  0
    4.8470   -1.7592   -2.7574 H   0  0  0  0  0  0  0  0  0  0  0  0
    2.5139   -0.7392   -1.8182 H   0  0  0  0  0  0  0  0  0  0  0  0
    1.1876   -0.1096   -0.1092 H   0  0  0  0  0  0  0  0  0  0  0  0
    1.0119    1.7849    2.1423 H   0  0  0  0  0  0  0  0  0  0  0  0
    1.1063   -0.6362    3.1020 H   0  0  0  0  0  0  0  0  0  0  0  0
   -0.2867    0.3454    3.5516 H   0  0  0  0  0  0  0  0  0  0  0  0
   -0.2648   -1.7434    1.3115 H   0  0  0  0  0  0  0  0  0  0  0  0
   -0.9554   -1.9738    2.9151 H   0  0  0  0  0  0  0  0  0  0  0  0
   -2.6262   -1.3617    1.0895 H   0  0  0  0  0  0  0  0  0  0  0  0
   -2.6647   -0.3443    2.5571 H   0  0  0  0  0  0  0  0  0  0  0  0
   -0.0985    3.1027   -0.3666 H   0  0  0  0  0  0  0  0  0  0  0  0
   -3.8605    2.2816   -2.1889 H   0  0  0  0  0  0  0  0  0  0  0  0
   -6.1730    1.9414   -2.9268 H   0  0  0  0  0  0  0  0  0  0  0  0
   -7.7286    0.5441   -1.5841 H   0  0  0  0  0  0  0  0  0  0  0  0
   -6.9329   -0.4765    0.5407 H   0  0  0  0  0  0  0  0  0  0  0  0
  1  2  1  0
  2  3  1  0
  3  4  2  0
  4  5  1  0
  5  6  2  0
  6  7  1  0
  7  8  2  0
  7  9  1  0
  9 10  1  0
 10 11  1  0
 11 12  1  0
 12 13  1  0
 13 14  1  0
 14 15  2  0
 15 16  1  0
 16 17  2  0
 17 18  1  0
 18 19  1  0
 19 20  2  0
 20 21  1  0
 21 22  2  0
 22 23  1  0
 23 24  2  0
 24 25  1  0
  6 26  1  0
 26  3  1  0
 15 10  1  0
 24 19  1  0
 18 14  1  0
  1 27  1  0
  1 28  1  0
  1 29  1  0
  4 30  1  0
  5 31  1  0
  9 32  1  0
 10 33  1  0
 11 34  1  0
 11 35  1  0
 12 36  1  0
 12 37  1  0
 13 38  1  0
 13 39  1  0
 16 40  1  0
 20 41  1  0
 21 42  1  0
 22 43  1  0
 23 44  1  0
M  END
$$$$
