
     RDKit          3D

 52 55  0  0  0  0  0  0  0  0999 V2000
   -7.2190    0.3093   -1.3615 C   0  0  0  0  0  0  0  0  0  0  0  0
   -6.3173   -0.5975   -1.9843 O   0  0  0  0  0  0  0  0  0  0  0  0
   -5.2190   -0.9715   -1.2603 C   0  0  0  0  0  0  0  0  0  0  0  0
   -4.9031   -0.5488    0.0309 C   0  0  0  0  0  0  0  0  0  0  0  0
   -3.7412   -1.0138    0.6593 C   0  0  0  0  0  0  0  0  0  0  0  0
   -2.8806   -1.8985   -0.0001 C   0  0  0  0  0  0  0  0  0  0  0  0
   -1.6694   -2.4103    0.6488 C   0  0  0  0  0  0  0  0  0  0  0  0
   -0.5904   -1.6915    0.9933 C   0  0  0  0  0  0  0  0  0  0  0  0
   -0.3463   -0.0082    0.7694 S   0  0  0  0  0  0  0  0  0  0  0  0
    1.3272   -0.1174    1.2908 C   0  0  0  0  0  0  0  0  0  0  0  0
    2.2050    0.8779    1.0322 C   0  0  0  0  0  0  0  0  0  0  0  0
    3.6156    0.7960    1.1663 C   0  0  0  0  0  0  0  0  0  0  0  0
    4.7742    0.7545    1.2204 N   0  0  0  0  0  0  0  0  0  0  0  0
    1.7159    2.1600    0.4644 C   0  0  0  0  0  0  0  0  0  0  0  0
    1.1890    3.0060    1.1769 O   0  0  0  0  0  0  0  0  0  0  0  0
    1.9143    2.2969   -0.8848 N   0  0  0  0  0  0  0  0  0  0  0  0
    1.5648    3.5213   -1.5684 C   0  0  0  0  0  0  0  0  0  0  0  0
    1.4904    3.2410   -3.0216 C   0  0  0  0  0  0  0  0  0  0  0  0
    0.4824    3.3453   -3.9577 C   0  0  0  0  0  0  0  0  0  0  0  0
    1.0321    2.9116   -5.1881 C   0  0  0  0  0  0  0  0  0  0  0  0
    2.3388    2.5714   -4.9257 C   0  0  0  0  0  0  0  0  0  0  0  0
    2.6264    2.7618   -3.6122 O   0  0  0  0  0  0  0  0  0  0  0  0
    1.5945   -1.3782    1.8400 N   0  0  0  0  0  0  0  0  0  0  0  0
    2.6928   -1.7183    2.6930 C   0  0  0  0  0  0  0  0  0  0  0  0
    3.1080   -0.8395    3.7061 C   0  0  0  0  0  0  0  0  0  0  0  0
    4.1684   -1.1756    4.5521 C   0  0  0  0  0  0  0  0  0  0  0  0
    4.8179   -2.3981    4.4051 C   0  0  0  0  0  0  0  0  0  0  0  0
    4.4012   -3.2899    3.4207 C   0  0  0  0  0  0  0  0  0  0  0  0
    3.3404   -2.9555    2.5746 C   0  0  0  0  0  0  0  0  0  0  0  0
    0.5756   -2.3332    1.6574 C   0  0  0  0  0  0  0  0  0  0  0  0
    0.5667   -3.5089    2.0000 O   0  0  0  0  0  0  0  0  0  0  0  0
   -3.2031   -2.3275   -1.2900 C   0  0  0  0  0  0  0  0  0  0  0  0
   -4.3639   -1.8623   -1.9143 C   0  0  0  0  0  0  0  0  0  0  0  0
   -6.7306    1.2655   -1.1460 H   0  0  0  0  0  0  0  0  0  0  0  0
   -8.0359    0.5037   -2.0633 H   0  0  0  0  0  0  0  0  0  0  0  0
   -7.6551   -0.1256   -0.4559 H   0  0  0  0  0  0  0  0  0  0  0  0
   -5.5376    0.1390    0.5802 H   0  0  0  0  0  0  0  0  0  0  0  0
   -3.5185   -0.6779    1.6702 H   0  0  0  0  0  0  0  0  0  0  0  0
   -1.6838   -3.4833    0.8375 H   0  0  0  0  0  0  0  0  0  0  0  0
    2.4559    1.6223   -1.4125 H   0  0  0  0  0  0  0  0  0  0  0  0
    0.6105    3.8978   -1.1846 H   0  0  0  0  0  0  0  0  0  0  0  0
    2.3406    4.2636   -1.3541 H   0  0  0  0  0  0  0  0  0  0  0  0
   -0.5274    3.6878   -3.7729 H   0  0  0  0  0  0  0  0  0  0  0  0
    0.5377    2.8546   -6.1481 H   0  0  0  0  0  0  0  0  0  0  0  0
    3.1514    2.1951   -5.5323 H   0  0  0  0  0  0  0  0  0  0  0  0
    2.5963    0.1039    3.8789 H   0  0  0  0  0  0  0  0  0  0  0  0
    4.4834   -0.4844    5.3297 H   0  0  0  0  0  0  0  0  0  0  0  0
    5.6437   -2.6589    5.0621 H   0  0  0  0  0  0  0  0  0  0  0  0
    4.9004   -4.2491    3.3091 H   0  0  0  0  0  0  0  0  0  0  0  0
    3.0428   -3.6715    1.8121 H   0  0  0  0  0  0  0  0  0  0  0  0
   -2.5570   -3.0210   -1.8228 H   0  0  0  0  0  0  0  0  0  0  0  0
   -4.6052   -2.1981   -2.9200 H   0  0  0  0  0  0  0  0  0  0  0  0
  1  2  1  0
  2  3  1  0
  3  4  2  0
  4  5  1  0
  5  6  2  0
  6  7  1  0
  7  8  2  3
  8  9  1  0
  9 10  1  0
 10 11  2  3
 11 12  1  0
 12 13  3  0
 11 14  1  0
 14 15  2  0
 14 16  1  0
 16 17  1  0
 17 18  1  0
 18 19  2  0
 19 20  1  0
 20 21  2  0
 21 22  1  0
 10 23  1  0
 23 24  1  0
 24 25  2  0
 25 26  1  0
 26 27  2  0
 27 28  1  0
 28 29  2  0
 23 30  1  0
 30 31  2  0
  6 32  1  0
 32 33  2  0
 33  3  1  0
 30  8  1  0
 22 18  1  0
 29 24  1  0
  1 34  1  0
  1 35  1  0
  1 36  1  0
  4 37  1  0
  5 38  1  0
  7 39  1  0
 16 40  1  0
 17 41  1  0
 17 42  1  0
 19 43  1  0
 20 44  1  0
 21 45  1  0
 25 46  1  0
 26 47  1  0
 27 48  1  0
 28 49  1  0
 29 50  1  0
 32 51  1  0
 33 52  1  0
M  END
$$$$
