
     RDKit          3D

 59 62  0  0  0  0  0  0  0  0999 V2000
   -1.4143    4.1617   -3.0229 C   0  0  0  0  0  0  0  0  0  0  0  0
   -1.4716    4.0180   -1.5132 C   0  0  0  0  0  0  0  0  0  0  0  0
   -1.5241    2.6211   -1.2000 O   0  0  0  0  0  0  0  0  0  0  0  0
   -1.4555    2.3427    0.1335 C   0  0  0  0  0  0  0  0  0  0  0  0
   -1.4277    3.1987    1.0085 O   0  0  0  0  0  0  0  0  0  0  0  0
   -1.5025    0.8233    0.3911 C   0  0  0  0  0  0  0  0  0  0  0  0
   -2.9596    0.4091    0.0179 C   0  0  0  0  0  0  0  0  0  0  0  0
   -3.3865   -1.0049    0.3526 C   0  0  0  0  0  0  0  0  0  0  0  0
   -3.9373   -1.3057    1.6062 C   0  0  0  0  0  0  0  0  0  0  0  0
   -4.3315   -2.6106    1.9253 C   0  0  0  0  0  0  0  0  0  0  0  0
   -4.1925   -3.6340    0.9892 C   0  0  0  0  0  0  0  0  0  0  0  0
   -4.5359   -4.9453    1.1716 O   0  0  0  0  0  0  0  0  0  0  0  0
   -5.1505   -5.2812    2.4092 C   0  0  0  0  0  0  0  0  0  0  0  0
   -3.6587   -3.3374   -0.2658 C   0  0  0  0  0  0  0  0  0  0  0  0
   -3.2647   -2.0354   -0.5861 C   0  0  0  0  0  0  0  0  0  0  0  0
   -1.2083    0.5828    1.8951 C   0  0  0  0  0  0  0  0  0  0  0  0
    0.2285    0.9457    2.2865 C   0  0  0  0  0  0  0  0  0  0  0  0
    1.2037    0.5724    1.2694 N   0  0  0  0  0  0  0  0  0  0  0  0
    2.5464    0.8308    1.5635 C   0  0  0  0  0  0  0  0  0  0  0  0
    2.8867    1.2184    2.6805 O   0  0  0  0  0  0  0  0  0  0  0  0
    3.5451    0.6399    0.5309 C   0  0  0  0  0  0  0  0  0  0  0  0
    3.5097    0.7901   -0.8459 C   0  0  0  0  0  0  0  0  0  0  0  0
    4.7966    0.4843   -1.3680 C   0  0  0  0  0  0  0  0  0  0  0  0
    5.3463    0.4391   -2.6643 C   0  0  0  0  0  0  0  0  0  0  0  0
    6.6952    0.0981   -2.8248 C   0  0  0  0  0  0  0  0  0  0  0  0
    7.4928   -0.1858   -1.7185 C   0  0  0  0  0  0  0  0  0  0  0  0
    6.9689   -0.1395   -0.4221 C   0  0  0  0  0  0  0  0  0  0  0  0
    5.6186    0.1969   -0.2808 C   0  0  0  0  0  0  0  0  0  0  0  0
    4.8535    0.3377    0.8500 N   0  0  0  0  0  0  0  0  0  0  0  0
    0.7526   -0.4283    0.3108 C   0  0  0  0  0  0  0  0  0  0  0  0
   -0.4345    0.1029   -0.4901 C   0  0  0  0  0  0  0  0  0  0  0  0
   -2.2999    3.7251   -3.4957 H   0  0  0  0  0  0  0  0  0  0  0  0
   -1.3443    5.2142   -3.3101 H   0  0  0  0  0  0  0  0  0  0  0  0
   -0.5434    3.6300   -3.4207 H   0  0  0  0  0  0  0  0  0  0  0  0
   -0.5728    4.4646   -1.0682 H   0  0  0  0  0  0  0  0  0  0  0  0
   -2.3636    4.5183   -1.1134 H   0  0  0  0  0  0  0  0  0  0  0  0
   -3.6718    1.0961    0.5021 H   0  0  0  0  0  0  0  0  0  0  0  0
   -3.1226    0.5685   -1.0589 H   0  0  0  0  0  0  0  0  0  0  0  0
   -4.0641   -0.5223    2.3518 H   0  0  0  0  0  0  0  0  0  0  0  0
   -4.7433   -2.7900    2.9131 H   0  0  0  0  0  0  0  0  0  0  0  0
   -6.0832   -4.7256    2.5493 H   0  0  0  0  0  0  0  0  0  0  0  0
   -4.4654   -5.1184    3.2467 H   0  0  0  0  0  0  0  0  0  0  0  0
   -5.3993   -6.3451    2.3825 H   0  0  0  0  0  0  0  0  0  0  0  0
   -3.5555   -4.1273   -1.0059 H   0  0  0  0  0  0  0  0  0  0  0  0
   -2.8713   -1.8377   -1.5804 H   0  0  0  0  0  0  0  0  0  0  0  0
   -1.9085    1.1324    2.5370 H   0  0  0  0  0  0  0  0  0  0  0  0
   -1.3490   -0.4788    2.1310 H   0  0  0  0  0  0  0  0  0  0  0  0
    0.3332    2.0219    2.4693 H   0  0  0  0  0  0  0  0  0  0  0  0
    0.4860    0.4374    3.2247 H   0  0  0  0  0  0  0  0  0  0  0  0
    2.6479    1.0929   -1.4245 H   0  0  0  0  0  0  0  0  0  0  0  0
    4.7372    0.6679   -3.5319 H   0  0  0  0  0  0  0  0  0  0  0  0
    7.1270    0.0632   -3.8233 H   0  0  0  0  0  0  0  0  0  0  0  0
    8.5437   -0.4388   -1.8636 H   0  0  0  0  0  0  0  0  0  0  0  0
    7.5958   -0.3499    0.4387 H   0  0  0  0  0  0  0  0  0  0  0  0
    5.1890    0.2337    1.7996 H   0  0  0  0  0  0  0  0  0  0  0  0
    1.5425   -0.7631   -0.3624 H   0  0  0  0  0  0  0  0  0  0  0  0
    0.4661   -1.3212    0.8819 H   0  0  0  0  0  0  0  0  0  0  0  0
   -0.0349    0.7818   -1.2544 H   0  0  0  0  0  0  0  0  0  0  0  0
   -0.8644   -0.7355   -1.0459 H   0  0  0  0  0  0  0  0  0  0  0  0
  1  2  1  0
  2  3  1  0
  3  4  1  0
  4  5  2  0
  4  6  1  0
  6  7  1  0
  7  8  1  0
  8  9  2  0
  9 10  1  0
 10 11  2  0
 11 12  1  0
 12 13  1  0
 11 14  1  0
 14 15  2  0
  6 16  1  0
 16 17  1  0
 17 18  1  0
 18 19  1  0
 19 20  2  0
 19 21  1  0
 21 22  2  0
 22 23  1  0
 23 24  2  0
 24 25  1  0
 25 26  2  0
 26 27  1  0
 27 28  2  0
 28 29  1  0
 18 30  1  0
 30 31  1  0
 31  6  1  0
 15  8  1  0
 29 21  1  0
 28 23  1  0
  1 32  1  0
  1 33  1  0
  1 34  1  0
  2 35  1  0
  2 36  1  0
  7 37  1  0
  7 38  1  0
  9 39  1  0
 10 40  1  0
 13 41  1  0
 13 42  1  0
 13 43  1  0
 14 44  1  0
 15 45  1  0
 16 46  1  0
 16 47  1  0
 17 48  1  0
 17 49  1  0
 22 50  1  0
 24 51  1  0
 25 52  1  0
 26 53  1  0
 27 54  1  0
 29 55  1  0
 30 56  1  0
 30 57  1  0
 31 58  1  0
 31 59  1  0
M  END
$$$$
