
     RDKit          3D

 43 46  0  0  0  0  0  0  0  0999 V2000
   -4.1175   -3.0403    0.9753 C   0  0  0  0  0  0  0  0  0  0  0  0
   -3.8549   -1.8442    1.8709 C   0  0  0  0  0  0  0  0  0  0  0  0
   -3.8408   -0.6388    1.0949 O   0  0  0  0  0  0  0  0  0  0  0  0
   -2.6440   -0.3041    0.5367 C   0  0  0  0  0  0  0  0  0  0  0  0
   -1.6180   -0.9658    0.6343 O   0  0  0  0  0  0  0  0  0  0  0  0
   -2.7706    0.9410   -0.2014 C   0  0  0  0  0  0  0  0  0  0  0  0
   -3.9100    1.7161   -0.3870 C   0  0  0  0  0  0  0  0  0  0  0  0
   -3.5187    2.8424   -1.1590 C   0  0  0  0  0  0  0  0  0  0  0  0
   -4.2216    4.2693   -1.8427 S   0  0  0  0  0  0  0  0  0  0  0  0
   -2.6854    4.7196   -2.4701 C   0  0  0  0  0  0  0  0  0  0  0  0
   -1.6738    3.8276   -2.1834 C   0  0  0  0  0  0  0  0  0  0  0  0
   -2.1864    2.7397   -1.4220 C   0  0  0  0  0  0  0  0  0  0  0  0
   -1.7217    1.5748   -0.8480 N   0  0  0  0  0  0  0  0  0  0  0  0
   -0.3424    1.1178   -0.9585 C   0  0  0  0  0  0  0  0  0  0  0  0
    0.4534    1.3353    0.3135 C   0  0  0  0  0  0  0  0  0  0  0  0
    0.1538    2.1835    1.1534 O   0  0  0  0  0  0  0  0  0  0  0  0
    1.6780    0.5103    0.5359 C   0  0  0  0  0  0  0  0  0  0  0  0
    2.2388    0.4853    1.8225 C   0  0  0  0  0  0  0  0  0  0  0  0
    3.3913   -0.2611    2.0801 C   0  0  0  0  0  0  0  0  0  0  0  0
    3.9935   -0.9796    1.0518 C   0  0  0  0  0  0  0  0  0  0  0  0
    3.4285   -0.9744   -0.2274 C   0  0  0  0  0  0  0  0  0  0  0  0
    2.2843   -0.2201   -0.4929 C   0  0  0  0  0  0  0  0  0  0  0  0
    3.9521   -1.6805   -1.2813 O   0  0  0  0  0  0  0  0  0  0  0  0
    4.8862   -2.6703   -0.8323 C   0  0  0  0  0  0  0  0  0  0  0  0
    5.8415   -2.0804    0.1919 C   0  0  0  0  0  0  0  0  0  0  0  0
    5.1331   -1.6723    1.3678 O   0  0  0  0  0  0  0  0  0  0  0  0
   -4.1892   -3.9583    1.5655 H   0  0  0  0  0  0  0  0  0  0  0  0
   -5.0498   -2.9052    0.4172 H   0  0  0  0  0  0  0  0  0  0  0  0
   -3.3190   -3.1614    0.2365 H   0  0  0  0  0  0  0  0  0  0  0  0
   -4.6660   -1.7459    2.5998 H   0  0  0  0  0  0  0  0  0  0  0  0
   -2.9255   -1.9645    2.4394 H   0  0  0  0  0  0  0  0  0  0  0  0
   -4.9014    1.5040   -0.0087 H   0  0  0  0  0  0  0  0  0  0  0  0
   -2.6034    5.6419   -3.0287 H   0  0  0  0  0  0  0  0  0  0  0  0
   -0.6460    3.9579   -2.4950 H   0  0  0  0  0  0  0  0  0  0  0  0
   -0.3848    0.0609   -1.2357 H   0  0  0  0  0  0  0  0  0  0  0  0
    0.1394    1.6670   -1.7738 H   0  0  0  0  0  0  0  0  0  0  0  0
    1.7788    1.0490    2.6330 H   0  0  0  0  0  0  0  0  0  0  0  0
    3.8214   -0.2714    3.0780 H   0  0  0  0  0  0  0  0  0  0  0  0
    1.8932   -0.2248   -1.5049 H   0  0  0  0  0  0  0  0  0  0  0  0
    5.4403   -3.0238   -1.7075 H   0  0  0  0  0  0  0  0  0  0  0  0
    4.3248   -3.5169   -0.4179 H   0  0  0  0  0  0  0  0  0  0  0  0
    6.3763   -1.2117   -0.2116 H   0  0  0  0  0  0  0  0  0  0  0  0
    6.5822   -2.8276    0.4934 H   0  0  0  0  0  0  0  0  0  0  0  0
  1  2  1  0
  2  3  1  0
  3  4  1  0
  4  5  2  0
  4  6  1  0
  6  7  2  0
  7  8  1  0
  8  9  1  0
  9 10  1  0
 10 11  2  0
 11 12  1  0
 12 13  1  0
 13 14  1  0
 14 15  1  0
 15 16  2  0
 15 17  1  0
 17 18  2  0
 18 19  1  0
 19 20  2  0
 20 21  1  0
 21 22  2  0
 21 23  1  0
 23 24  1  0
 24 25  1  0
 25 26  1  0
 13  6  1  0
 22 17  1  0
 12  8  2  0
 26 20  1  0
  1 27  1  0
  1 28  1  0
  1 29  1  0
  2 30  1  0
  2 31  1  0
  7 32  1  0
 10 33  1  0
 11 34  1  0
 14 35  1  0
 14 36  1  0
 18 37  1  0
 19 38  1  0
 22 39  1  0
 24 40  1  0
 24 41  1  0
 25 42  1  0
 25 43  1  0
M  END
$$$$
