
     RDKit          3D

 52 54  0  0  0  0  0  0  0  0999 V2000
   -7.1211    0.2171    1.2573 C   0  0  0  0  0  0  0  0  0  0  0  0
   -5.7931   -0.5214    1.3061 C   0  0  0  0  0  0  0  0  0  0  0  0
   -5.0454   -0.4173   -0.0236 C   0  0  0  0  0  0  0  0  0  0  0  0
   -3.7051   -1.1596    0.0327 C   0  0  0  0  0  0  0  0  0  0  0  0
   -2.8900   -1.0141   -1.2727 C   0  0  0  0  0  0  0  0  0  0  0  0
   -1.9489   -2.2283   -1.4320 C   0  0  0  0  0  0  0  0  0  0  0  0
   -1.4193   -2.4003   -2.8506 C   0  0  0  0  0  0  0  0  0  0  0  0
   -2.1843    0.3686   -1.4109 C   0  0  0  0  0  0  0  0  0  0  0  0
   -1.2033    0.7011   -0.3630 N   0  0  0  0  0  0  0  0  0  0  0  0
    0.1058    0.2677   -0.5055 C   0  0  0  0  0  0  0  0  0  0  0  0
    0.5693   -0.3365   -1.4629 O   0  0  0  0  0  0  0  0  0  0  0  0
    0.9332    0.6832    0.6583 C   0  0  0  0  0  0  0  0  0  0  0  0
    2.2218    0.3240    0.7556 C   0  0  0  0  0  0  0  0  0  0  0  0
    3.1709    0.6359    1.7779 C   0  0  0  0  0  0  0  0  0  0  0  0
    2.9285    0.7033    3.1303 C   0  0  0  0  0  0  0  0  0  0  0  0
    4.1304    0.9630    3.7145 N   0  0  0  0  0  0  0  0  0  0  0  0
    5.1468    1.0372    2.8466 N   0  0  0  0  0  0  0  0  0  0  0  0
    4.5799    0.8562    1.6407 C   0  0  0  0  0  0  0  0  0  0  0  0
    5.3968    0.8910    0.4254 C   0  0  0  0  0  0  0  0  0  0  0  0
    6.6508    0.2638    0.4061 C   0  0  0  0  0  0  0  0  0  0  0  0
    7.4373    0.2817   -0.7481 C   0  0  0  0  0  0  0  0  0  0  0  0
    6.9804    0.9330   -1.8921 C   0  0  0  0  0  0  0  0  0  0  0  0
    5.7420    1.5725   -1.8814 C   0  0  0  0  0  0  0  0  0  0  0  0
    4.9546    1.5555   -0.7269 C   0  0  0  0  0  0  0  0  0  0  0  0
    0.0058    1.6673    1.7072 S   0  0  0  0  0  0  0  0  0  0  0  0
   -1.4272    1.5688    0.6897 C   0  0  0  0  0  0  0  0  0  0  0  0
   -2.7868    2.4677    1.0448 S   0  0  0  0  0  0  0  0  0  0  0  0
   -6.9706    1.2814    1.0496 H   0  0  0  0  0  0  0  0  0  0  0  0
   -7.6396    0.1284    2.2170 H   0  0  0  0  0  0  0  0  0  0  0  0
   -7.7717   -0.1963    0.4800 H   0  0  0  0  0  0  0  0  0  0  0  0
   -5.1801   -0.1044    2.1134 H   0  0  0  0  0  0  0  0  0  0  0  0
   -5.9759   -1.5746    1.5489 H   0  0  0  0  0  0  0  0  0  0  0  0
   -4.8976    0.6350   -0.2810 H   0  0  0  0  0  0  0  0  0  0  0  0
   -5.6629   -0.8500   -0.8207 H   0  0  0  0  0  0  0  0  0  0  0  0
   -3.1137   -0.8326    0.8944 H   0  0  0  0  0  0  0  0  0  0  0  0
   -3.9317   -2.2190    0.2097 H   0  0  0  0  0  0  0  0  0  0  0  0
   -3.6067   -1.0750   -2.1044 H   0  0  0  0  0  0  0  0  0  0  0  0
   -2.4986   -3.1469   -1.1897 H   0  0  0  0  0  0  0  0  0  0  0  0
   -1.1215   -2.1793   -0.7177 H   0  0  0  0  0  0  0  0  0  0  0  0
   -0.7723   -3.2819   -2.9036 H   0  0  0  0  0  0  0  0  0  0  0  0
   -0.8388   -1.5396   -3.1886 H   0  0  0  0  0  0  0  0  0  0  0  0
   -2.2440   -2.5484   -3.5555 H   0  0  0  0  0  0  0  0  0  0  0  0
   -2.9470    1.1515   -1.4557 H   0  0  0  0  0  0  0  0  0  0  0  0
   -1.6685    0.4120   -2.3772 H   0  0  0  0  0  0  0  0  0  0  0  0
    2.6265   -0.2734   -0.0637 H   0  0  0  0  0  0  0  0  0  0  0  0
    2.0374    0.5784    3.7281 H   0  0  0  0  0  0  0  0  0  0  0  0
    4.3338    1.0840    4.7011 H   0  0  0  0  0  0  0  0  0  0  0  0
    7.0192   -0.2420    1.2964 H   0  0  0  0  0  0  0  0  0  0  0  0
    8.4066   -0.2096   -0.7500 H   0  0  0  0  0  0  0  0  0  0  0  0
    7.5935    0.9491   -2.7896 H   0  0  0  0  0  0  0  0  0  0  0  0
    5.3909    2.0909   -2.7699 H   0  0  0  0  0  0  0  0  0  0  0  0
    4.0035    2.0812   -0.7340 H   0  0  0  0  0  0  0  0  0  0  0  0
  1  2  1  0
  2  3  1  0
  3  4  1  0
  4  5  1  0
  5  6  1  0
  6  7  1  0
  5  8  1  0
  8  9  1  0
  9 10  1  0
 10 11  2  0
 10 12  1  0
 12 13  2  3
 13 14  1  0
 14 15  2  0
 15 16  1  0
 16 17  1  0
 17 18  2  0
 18 19  1  0
 19 20  2  0
 20 21  1  0
 21 22  2  0
 22 23  1  0
 23 24  2  0
 12 25  1  0
 25 26  1  0
 26 27  2  0
 26  9  1  0
 18 14  1  0
 24 19  1  0
  1 28  1  0
  1 29  1  0
  1 30  1  0
  2 31  1  0
  2 32  1  0
  3 33  1  0
  3 34  1  0
  4 35  1  0
  4 36  1  0
  5 37  1  0
  6 38  1  0
  6 39  1  0
  7 40  1  0
  7 41  1  0
  7 42  1  0
  8 43  1  0
  8 44  1  0
 13 45  1  0
 15 46  1  0
 16 47  1  0
 20 48  1  0
 21 49  1  0
 22 50  1  0
 23 51  1  0
 24 52  1  0
M  END
$$$$
