
     RDKit          3D

 32 32  0  0  0  0  0  0  0  0999 V2000
    5.4232   -0.2935    1.6779 C   0  0  0  0  0  0  0  0  0  0  0  0
    5.4000    0.0984    0.2102 C   0  0  0  0  0  0  0  0  0  0  0  0
    4.5089   -1.1238   -0.7966 S   0  0  0  0  0  0  0  0  0  0  0  0
    2.8424   -0.7199   -0.4548 C   0  0  0  0  0  0  0  0  0  0  0  0
    2.4842    0.3400    0.2338 N   0  0  0  0  0  0  0  0  0  0  0  0
    1.1146    0.4334    0.3648 N   0  0  0  0  0  0  0  0  0  0  0  0
    0.4795   -0.5443   -0.2365 C   0  0  0  0  0  0  0  0  0  0  0  0
   -0.8608   -0.7166   -0.2844 N   0  0  0  0  0  0  0  0  0  0  0  0
   -1.7769    0.4483   -0.1474 C   0  0  0  0  0  0  0  0  0  0  0  0
   -3.1403   -0.2004   -0.1871 N   0  0  0  0  0  0  0  0  0  0  0  0
   -3.5695   -0.9855   -1.2243 C   0  0  0  0  0  0  0  0  0  0  0  0
   -5.0306   -1.3409   -1.1953 C   0  0  0  0  0  0  0  0  0  0  0  0
   -2.8037   -1.4090   -2.0836 O   0  0  0  0  0  0  0  0  0  0  0  0
   -1.6587    1.2475    1.1845 C   0  0  0  0  0  0  0  0  0  0  0  0
   -0.6395    2.1182    1.2631 F   0  0  0  0  0  0  0  0  0  0  0  0
   -2.8018    1.9712    1.3749 F   0  0  0  0  0  0  0  0  0  0  0  0
   -1.5810    0.4163    2.2560 F   0  0  0  0  0  0  0  0  0  0  0  0
   -1.6278    1.5374   -1.2495 C   0  0  0  0  0  0  0  0  0  0  0  0
   -1.6745    1.0072   -2.4964 F   0  0  0  0  0  0  0  0  0  0  0  0
   -2.6456    2.4343   -1.1802 F   0  0  0  0  0  0  0  0  0  0  0  0
   -0.4770    2.2366   -1.1770 F   0  0  0  0  0  0  0  0  0  0  0  0
    1.5302   -1.6714   -1.0054 S   0  0  0  0  0  0  0  0  0  0  0  0
    6.0019    0.4407    2.2483 H   0  0  0  0  0  0  0  0  0  0  0  0
    4.4183   -0.3268    2.1103 H   0  0  0  0  0  0  0  0  0  0  0  0
    5.8955   -1.2710    1.8237 H   0  0  0  0  0  0  0  0  0  0  0  0
    6.4285    0.1412   -0.1629 H   0  0  0  0  0  0  0  0  0  0  0  0
    4.9716    1.0966    0.0764 H   0  0  0  0  0  0  0  0  0  0  0  0
   -1.1820   -1.3325   -1.0377 H   0  0  0  0  0  0  0  0  0  0  0  0
   -3.8517    0.2648    0.3684 H   0  0  0  0  0  0  0  0  0  0  0  0
   -5.5766   -0.7511   -0.4544 H   0  0  0  0  0  0  0  0  0  0  0  0
   -5.1359   -2.4005   -0.9503 H   0  0  0  0  0  0  0  0  0  0  0  0
   -5.4648   -1.1449   -2.1791 H   0  0  0  0  0  0  0  0  0  0  0  0
  1  2  1  0
  2  3  1  0
  3  4  1  0
  4  5  2  0
  5  6  1  0
  6  7  2  0
  7  8  1  0
  8  9  1  0
  9 10  1  0
 10 11  1  0
 11 12  1  0
 11 13  2  0
  9 14  1  0
 14 15  1  0
 14 16  1  0
 14 17  1  0
  9 18  1  0
 18 19  1  0
 18 20  1  0
 18 21  1  0
  7 22  1  0
 22  4  1  0
  1 23  1  0
  1 24  1  0
  1 25  1  0
  2 26  1  0
  2 27  1  0
  8 28  1  0
 10 29  1  0
 12 30  1  0
 12 31  1  0
 12 32  1  0
M  END
$$$$
