
     RDKit          3D

 52 55  0  0  0  0  0  0  0  0999 V2000
    6.7510   -0.7845    3.7917 C   0  0  0  0  0  0  0  0  0  0  0  0
    5.4759   -0.6999    3.0019 C   0  0  0  0  0  0  0  0  0  0  0  0
    4.2522   -1.0141    3.6112 C   0  0  0  0  0  0  0  0  0  0  0  0
    3.0493   -0.9770    2.8972 C   0  0  0  0  0  0  0  0  0  0  0  0
    3.1336   -0.6214    1.5543 C   0  0  0  0  0  0  0  0  0  0  0  0
    2.0826   -0.5343    0.6997 O   0  0  0  0  0  0  0  0  0  0  0  0
    2.5708   -0.1485   -0.5205 C   0  0  0  0  0  0  0  0  0  0  0  0
    1.6631   -0.0230   -1.6516 C   0  0  0  0  0  0  0  0  0  0  0  0
    2.0564   -0.1884   -2.8085 O   0  0  0  0  0  0  0  0  0  0  0  0
    0.3064    0.2696   -1.3980 N   0  0  0  0  0  0  0  0  0  0  0  0
   -0.5974    0.2014   -2.5407 C   0  0  0  0  0  0  0  0  0  0  0  0
   -2.0367   -0.0533   -2.1029 C   0  0  0  0  0  0  0  0  0  0  0  0
   -2.5187    0.9495   -1.0360 C   0  0  0  0  0  0  0  0  0  0  0  0
   -2.6095    2.2479   -1.6456 O   0  0  0  0  0  0  0  0  0  0  0  0
   -3.9182    0.6608   -0.4740 C   0  0  0  0  0  0  0  0  0  0  0  0
   -4.6148    1.6825    0.2023 C   0  0  0  0  0  0  0  0  0  0  0  0
   -5.8815    1.4688    0.7481 C   0  0  0  0  0  0  0  0  0  0  0  0
   -6.4841    0.2203    0.6372 C   0  0  0  0  0  0  0  0  0  0  0  0
   -5.8211   -0.8263   -0.0159 C   0  0  0  0  0  0  0  0  0  0  0  0
   -6.4834   -2.1754   -0.1578 C   0  0  0  0  0  0  0  0  0  0  0  0
   -5.5923   -3.2018   -0.2615 F   0  0  0  0  0  0  0  0  0  0  0  0
   -7.2715   -2.2526   -1.2656 F   0  0  0  0  0  0  0  0  0  0  0  0
   -7.2877   -2.4906    0.8963 F   0  0  0  0  0  0  0  0  0  0  0  0
   -4.5463   -0.5933   -0.5699 C   0  0  0  0  0  0  0  0  0  0  0  0
   -1.5081    0.9940    0.1263 C   0  0  0  0  0  0  0  0  0  0  0  0
   -0.0782    1.2184   -0.3531 C   0  0  0  0  0  0  0  0  0  0  0  0
    3.9549   -0.0204   -0.4517 C   0  0  0  0  0  0  0  0  0  0  0  0
    4.8643    0.3399   -1.5696 C   0  0  0  0  0  0  0  0  0  0  0  0
    4.3165   -0.3126    0.8993 C   0  0  0  0  0  0  0  0  0  0  0  0
    5.5166   -0.3615    1.6354 C   0  0  0  0  0  0  0  0  0  0  0  0
    7.1368   -1.8086    3.7701 H   0  0  0  0  0  0  0  0  0  0  0  0
    6.5832   -0.4882    4.8327 H   0  0  0  0  0  0  0  0  0  0  0  0
    7.5117   -0.1113    3.3816 H   0  0  0  0  0  0  0  0  0  0  0  0
    4.2264   -1.2962    4.6627 H   0  0  0  0  0  0  0  0  0  0  0  0
    2.0998   -1.2180    3.3588 H   0  0  0  0  0  0  0  0  0  0  0  0
   -0.2848   -0.6083   -3.2107 H   0  0  0  0  0  0  0  0  0  0  0  0
   -0.5048    1.1361   -3.1055 H   0  0  0  0  0  0  0  0  0  0  0  0
   -2.0709   -1.0755   -1.7071 H   0  0  0  0  0  0  0  0  0  0  0  0
   -2.6864   -0.0165   -2.9859 H   0  0  0  0  0  0  0  0  0  0  0  0
   -1.7526    2.4935   -2.0250 H   0  0  0  0  0  0  0  0  0  0  0  0
   -4.1662    2.6712    0.2985 H   0  0  0  0  0  0  0  0  0  0  0  0
   -6.3955    2.2812    1.2566 H   0  0  0  0  0  0  0  0  0  0  0  0
   -7.4745    0.0646    1.0618 H   0  0  0  0  0  0  0  0  0  0  0  0
   -4.0577   -1.4233   -1.0747 H   0  0  0  0  0  0  0  0  0  0  0  0
   -1.5478    0.0497    0.6857 H   0  0  0  0  0  0  0  0  0  0  0  0
   -1.7593    1.7976    0.8297 H   0  0  0  0  0  0  0  0  0  0  0  0
    0.5962    1.1904    0.5032 H   0  0  0  0  0  0  0  0  0  0  0  0
    0.0335    2.2235   -0.7790 H   0  0  0  0  0  0  0  0  0  0  0  0
    5.8694    0.5773   -1.2082 H   0  0  0  0  0  0  0  0  0  0  0  0
    4.4899    1.2174   -2.1070 H   0  0  0  0  0  0  0  0  0  0  0  0
    4.9465   -0.4924   -2.2762 H   0  0  0  0  0  0  0  0  0  0  0  0
    6.4629   -0.1386    1.1509 H   0  0  0  0  0  0  0  0  0  0  0  0
  1  2  1  0
  2  3  2  0
  3  4  1  0
  4  5  2  0
  5  6  1  0
  6  7  1  0
  7  8  1  0
  8  9  2  0
  8 10  1  0
 10 11  1  0
 11 12  1  0
 12 13  1  0
 13 14  1  0
 13 15  1  0
 15 16  2  0
 16 17  1  0
 17 18  2  0
 18 19  1  0
 19 20  1  0
 20 21  1  0
 20 22  1  0
 20 23  1  0
 19 24  2  0
 13 25  1  0
 25 26  1  0
  7 27  2  0
 27 28  1  0
 27 29  1  0
 29 30  2  0
 30  2  1  0
 29  5  1  0
 26 10  1  0
 24 15  1  0
  1 31  1  0
  1 32  1  0
  1 33  1  0
  3 34  1  0
  4 35  1  0
 11 36  1  0
 11 37  1  0
 12 38  1  0
 12 39  1  0
 14 40  1  0
 16 41  1  0
 17 42  1  0
 18 43  1  0
 24 44  1  0
 25 45  1  0
 25 46  1  0
 26 47  1  0
 26 48  1  0
 28 49  1  0
 28 50  1  0
 28 51  1  0
 30 52  1  0
M  END
$$$$
