
     RDKit          3D

 47 50  0  0  0  0  0  0  0  0999 V2000
   -7.1281    0.0672    1.1206 C   0  0  0  0  0  0  0  0  0  0  0  0
   -5.7785    0.4996    0.5501 C   0  0  0  0  0  0  0  0  0  0  0  0
   -5.7636    0.3602   -0.9836 C   0  0  0  0  0  0  0  0  0  0  0  0
   -4.4594    0.9042   -1.5887 C   0  0  0  0  0  0  0  0  0  0  0  0
   -3.2413    0.4190   -0.8500 C   0  0  0  0  0  0  0  0  0  0  0  0
   -3.3575   -0.1282    0.4155 C   0  0  0  0  0  0  0  0  0  0  0  0
   -1.8794   -0.6775    1.0286 S   0  0  0  0  0  0  0  0  0  0  0  0
   -1.0418   -0.1948   -0.3605 C   0  0  0  0  0  0  0  0  0  0  0  0
    0.3208   -0.4172   -0.5060 N   0  0  0  0  0  0  0  0  0  0  0  0
    1.2105   -0.9303    0.4237 C   0  0  0  0  0  0  0  0  0  0  0  0
    0.9336   -1.2274    1.5801 O   0  0  0  0  0  0  0  0  0  0  0  0
    2.5695   -1.0667   -0.0959 C   0  0  0  0  0  0  0  0  0  0  0  0
    3.1380   -0.9099   -1.3500 C   0  0  0  0  0  0  0  0  0  0  0  0
    4.5260   -1.1722   -1.2138 C   0  0  0  0  0  0  0  0  0  0  0  0
    4.7341   -1.4816    0.1128 C   0  0  0  0  0  0  0  0  0  0  0  0
    5.9334   -1.8513    0.9061 C   0  0  0  0  0  0  0  0  0  0  0  0
    6.6087   -0.7120    1.5287 N   0  0  0  0  0  0  0  0  0  0  0  0
    6.3287    0.6240    1.4297 C   0  0  0  0  0  0  0  0  0  0  0  0
    7.2657    1.2541    2.2073 C   0  0  0  0  0  0  0  0  0  0  0  0
    7.4689    3.0801    2.5385 Br  0  0  0  0  0  0  0  0  0  0  0  0
    8.0791    0.2425    2.7288 C   0  0  0  0  0  0  0  0  0  0  0  0
    7.6982   -0.9671    2.3068 N   0  0  0  0  0  0  0  0  0  0  0  0
    3.5556   -1.4194    0.7904 O   0  0  0  0  0  0  0  0  0  0  0  0
   -1.8624    0.4196   -1.3022 C   0  0  0  0  0  0  0  0  0  0  0  0
   -1.3024    0.9340   -2.5575 C   0  0  0  0  0  0  0  0  0  0  0  0
   -2.0154    1.8950   -3.2121 N   0  0  0  0  0  0  0  0  0  0  0  0
   -0.2037    0.5895   -2.9901 O   0  0  0  0  0  0  0  0  0  0  0  0
   -4.6314   -0.3145    1.1848 C   0  0  0  0  0  0  0  0  0  0  0  0
   -7.9279    0.7130    0.7375 H   0  0  0  0  0  0  0  0  0  0  0  0
   -7.1331    0.1490    2.2113 H   0  0  0  0  0  0  0  0  0  0  0  0
   -7.3688   -0.9618    0.8416 H   0  0  0  0  0  0  0  0  0  0  0  0
   -5.6300    1.5607    0.7974 H   0  0  0  0  0  0  0  0  0  0  0  0
   -5.8774   -0.6964   -1.2582 H   0  0  0  0  0  0  0  0  0  0  0  0
   -6.6168    0.8868   -1.4276 H   0  0  0  0  0  0  0  0  0  0  0  0
   -4.4844    2.0008   -1.5512 H   0  0  0  0  0  0  0  0  0  0  0  0
   -4.4103    0.6016   -2.6420 H   0  0  0  0  0  0  0  0  0  0  0  0
    0.6862   -0.1435   -1.4122 H   0  0  0  0  0  0  0  0  0  0  0  0
    2.6251   -0.6423   -2.2645 H   0  0  0  0  0  0  0  0  0  0  0  0
    5.2796   -1.1390   -1.9895 H   0  0  0  0  0  0  0  0  0  0  0  0
    6.6794   -2.3381    0.2656 H   0  0  0  0  0  0  0  0  0  0  0  0
    5.6641   -2.5385    1.7140 H   0  0  0  0  0  0  0  0  0  0  0  0
    5.5094    1.0097    0.8369 H   0  0  0  0  0  0  0  0  0  0  0  0
    8.9352    0.3247    3.3876 H   0  0  0  0  0  0  0  0  0  0  0  0
   -1.5387    2.3424   -3.9821 H   0  0  0  0  0  0  0  0  0  0  0  0
   -2.7114    2.4392   -2.7264 H   0  0  0  0  0  0  0  0  0  0  0  0
   -4.8869   -1.3839    1.1902 H   0  0  0  0  0  0  0  0  0  0  0  0
   -4.4993   -0.0032    2.2273 H   0  0  0  0  0  0  0  0  0  0  0  0
  1  2  1  0
  2  3  1  0
  3  4  1  0
  4  5  1  0
  5  6  2  0
  6  7  1  0
  7  8  1  0
  8  9  1  0
  9 10  1  0
 10 11  2  0
 10 12  1  0
 12 13  2  0
 13 14  1  0
 14 15  2  0
 15 16  1  0
 16 17  1  0
 17 18  1  0
 18 19  2  0
 19 20  1  0
 19 21  1  0
 21 22  2  0
 15 23  1  0
  8 24  2  0
 24 25  1  0
 25 26  1  0
 25 27  2  0
  6 28  1  0
 28  2  1  0
 24  5  1  0
 23 12  1  0
 22 17  1  0
  1 29  1  0
  1 30  1  0
  1 31  1  0
  2 32  1  0
  3 33  1  0
  3 34  1  0
  4 35  1  0
  4 36  1  0
  9 37  1  0
 13 38  1  0
 14 39  1  0
 16 40  1  0
 16 41  1  0
 18 42  1  0
 21 43  1  0
 26 44  1  0
 26 45  1  0
 28 46  1  0
 28 47  1  0
M  END
$$$$
