
     RDKit          3D

 45 47  0  0  0  0  0  0  0  0999 V2000
    1.4830   -3.1064    2.4051 C   0  0  0  0  0  0  0  0  0  0  0  0
    2.4023   -2.8400    1.2466 C   0  0  0  0  0  0  0  0  0  0  0  0
    3.4312   -3.7615    0.9680 C   0  0  0  0  0  0  0  0  0  0  0  0
    4.3108   -3.5670   -0.0930 C   0  0  0  0  0  0  0  0  0  0  0  0
    4.1983   -2.4462   -0.9160 C   0  0  0  0  0  0  0  0  0  0  0  0
    3.1743   -1.5265   -0.6432 C   0  0  0  0  0  0  0  0  0  0  0  0
    2.7918   -0.0652   -1.4631 S   0  0  0  0  0  0  0  0  0  0  0  0
    1.4621    0.1926   -0.4186 C   0  0  0  0  0  0  0  0  0  0  0  0
    0.6602    1.3385   -0.5088 N   0  0  0  0  0  0  0  0  0  0  0  0
   -0.2997    1.6007    0.5804 C   0  0  0  0  0  0  0  0  0  0  0  0
   -1.7331    1.1391    0.2832 C   0  0  0  0  0  0  0  0  0  0  0  0
   -1.8681   -0.3857    0.1826 C   0  0  0  0  0  0  0  0  0  0  0  0
   -3.2589   -0.8080   -0.0708 N   0  0  0  0  0  0  0  0  0  0  0  0
   -4.1010   -0.6711    1.1197 C   0  0  0  0  0  0  0  0  0  0  0  0
   -3.2777   -2.2034   -0.5229 C   0  0  0  0  0  0  0  0  0  0  0  0
    0.5659    2.0347   -1.7308 C   0  0  0  0  0  0  0  0  0  0  0  0
    0.7945    1.5165   -2.8228 O   0  0  0  0  0  0  0  0  0  0  0  0
    0.1692    3.4378   -1.6505 C   0  0  0  0  0  0  0  0  0  0  0  0
    0.6531    4.4418   -0.8269 C   0  0  0  0  0  0  0  0  0  0  0  0
    0.0199    5.6972   -1.0734 C   0  0  0  0  0  0  0  0  0  0  0  0
   -0.8969    5.5953   -2.0869 C   0  0  0  0  0  0  0  0  0  0  0  0
   -1.8790    6.8589   -2.7083 Cl  0  0  0  0  0  0  0  0  0  0  0  0
   -1.0065    4.0427   -2.7463 S   0  0  0  0  0  0  0  0  0  0  0  0
    1.3354   -0.6932    0.5447 N   0  0  0  0  0  0  0  0  0  0  0  0
    2.2808   -1.7000    0.4137 C   0  0  0  0  0  0  0  0  0  0  0  0
    0.9612   -4.0577    2.2595 H   0  0  0  0  0  0  0  0  0  0  0  0
    0.7283   -2.3210    2.5103 H   0  0  0  0  0  0  0  0  0  0  0  0
    2.0559   -3.1513    3.3368 H   0  0  0  0  0  0  0  0  0  0  0  0
    3.5446   -4.6467    1.5921 H   0  0  0  0  0  0  0  0  0  0  0  0
    5.0951   -4.2965   -0.2844 H   0  0  0  0  0  0  0  0  0  0  0  0
    4.8827   -2.2921   -1.7447 H   0  0  0  0  0  0  0  0  0  0  0  0
    0.0596    1.1452    1.5113 H   0  0  0  0  0  0  0  0  0  0  0  0
   -0.3266    2.6738    0.7853 H   0  0  0  0  0  0  0  0  0  0  0  0
   -2.0939    1.5993   -0.6441 H   0  0  0  0  0  0  0  0  0  0  0  0
   -2.3664    1.5193    1.0923 H   0  0  0  0  0  0  0  0  0  0  0  0
   -1.4726   -0.8686    1.0853 H   0  0  0  0  0  0  0  0  0  0  0  0
   -1.2484   -0.7161   -0.6595 H   0  0  0  0  0  0  0  0  0  0  0  0
   -4.1946    0.3753    1.4249 H   0  0  0  0  0  0  0  0  0  0  0  0
   -3.7146   -1.2473    1.9683 H   0  0  0  0  0  0  0  0  0  0  0  0
   -5.1204   -1.0150    0.9096 H   0  0  0  0  0  0  0  0  0  0  0  0
   -2.7081   -2.3161   -1.4522 H   0  0  0  0  0  0  0  0  0  0  0  0
   -4.3018   -2.5226   -0.7472 H   0  0  0  0  0  0  0  0  0  0  0  0
   -2.8583   -2.8857    0.2255 H   0  0  0  0  0  0  0  0  0  0  0  0
    1.4297    4.2857   -0.0867 H   0  0  0  0  0  0  0  0  0  0  0  0
    0.2368    6.6168   -0.5442 H   0  0  0  0  0  0  0  0  0  0  0  0
  1  2  1  0
  2  3  2  0
  3  4  1  0
  4  5  2  0
  5  6  1  0
  6  7  1  0
  7  8  1  0
  8  9  1  0
  9 10  1  0
 10 11  1  0
 11 12  1  0
 12 13  1  0
 13 14  1  0
 13 15  1  0
  9 16  1  0
 16 17  2  0
 16 18  1  0
 18 19  2  0
 19 20  1  0
 20 21  2  0
 21 22  1  0
 21 23  1  0
  8 24  2  0
 24 25  1  0
 25  2  1  0
 25  6  2  0
 23 18  1  0
  1 26  1  0
  1 27  1  0
  1 28  1  0
  3 29  1  0
  4 30  1  0
  5 31  1  0
 10 32  1  0
 10 33  1  0
 11 34  1  0
 11 35  1  0
 12 36  1  0
 12 37  1  0
 14 38  1  0
 14 39  1  0
 14 40  1  0
 15 41  1  0
 15 42  1  0
 15 43  1  0
 19 44  1  0
 20 45  1  0
M  END
$$$$
