
     RDKit          3D

 40 42  0  0  0  0  0  0  0  0999 V2000
    6.5604   -2.3363    2.0144 C   0  0  0  0  0  0  0  0  0  0  0  0
    5.3225   -1.5789    1.6308 C   0  0  0  0  0  0  0  0  0  0  0  0
    4.7847   -1.7070    0.3427 C   0  0  0  0  0  0  0  0  0  0  0  0
    3.6535   -0.9782   -0.0269 C   0  0  0  0  0  0  0  0  0  0  0  0
    3.0597   -0.1143    0.8969 C   0  0  0  0  0  0  0  0  0  0  0  0
    1.6267    0.8176    0.4135 S   0  0  0  0  0  6  0  0  0  0  0  0
    1.3121    1.7460    1.4784 O   0  0  0  0  0  0  0  0  0  0  0  0
    1.8325    1.2453   -0.9530 O   0  0  0  0  0  0  0  0  0  0  0  0
    0.4323   -0.4085    0.4676 N   0  0  0  0  0  0  0  0  0  0  0  0
   -0.7774   -0.0585   -0.3035 C   0  0  0  0  0  0  0  0  0  0  0  0
   -1.9751    0.3284    0.2439 C   0  0  0  0  0  0  0  0  0  0  0  0
   -2.8510    0.5427   -0.8591 C   0  0  0  0  0  0  0  0  0  0  0  0
   -4.2531    0.9803   -0.8339 C   0  0  0  0  0  0  0  0  0  0  0  0
   -5.0374    0.9179   -1.9969 C   0  0  0  0  0  0  0  0  0  0  0  0
   -6.3737    1.3270   -1.9857 C   0  0  0  0  0  0  0  0  0  0  0  0
   -6.9452    1.8069   -0.8103 C   0  0  0  0  0  0  0  0  0  0  0  0
   -6.1810    1.8804    0.3520 C   0  0  0  0  0  0  0  0  0  0  0  0
   -4.8435    1.4704    0.3410 C   0  0  0  0  0  0  0  0  0  0  0  0
   -2.2200    0.2701   -2.0152 N   0  0  0  0  0  0  0  0  0  0  0  0
   -0.9701   -0.0798   -1.6554 N   0  0  0  0  0  0  0  0  0  0  0  0
   -0.0368   -0.4773   -2.6798 C   0  0  0  0  0  0  0  0  0  0  0  0
    3.5985    0.0435    2.1755 C   0  0  0  0  0  0  0  0  0  0  0  0
    4.7305   -0.6885    2.5376 C   0  0  0  0  0  0  0  0  0  0  0  0
    6.5484   -2.5869    3.0805 H   0  0  0  0  0  0  0  0  0  0  0  0
    7.4486   -1.7337    1.8010 H   0  0  0  0  0  0  0  0  0  0  0  0
    6.6306   -3.2783    1.4603 H   0  0  0  0  0  0  0  0  0  0  0  0
    5.2488   -2.3737   -0.3816 H   0  0  0  0  0  0  0  0  0  0  0  0
    3.2477   -1.0824   -1.0302 H   0  0  0  0  0  0  0  0  0  0  0  0
    0.2024   -0.5509    1.4546 H   0  0  0  0  0  0  0  0  0  0  0  0
   -2.1956    0.4511    1.2933 H   0  0  0  0  0  0  0  0  0  0  0  0
   -4.6075    0.5474   -2.9259 H   0  0  0  0  0  0  0  0  0  0  0  0
   -6.9632    1.2709   -2.8971 H   0  0  0  0  0  0  0  0  0  0  0  0
   -7.9835    2.1275   -0.8016 H   0  0  0  0  0  0  0  0  0  0  0  0
   -6.6239    2.2610    1.2689 H   0  0  0  0  0  0  0  0  0  0  0  0
   -4.2751    1.5520    1.2627 H   0  0  0  0  0  0  0  0  0  0  0  0
   -0.5550   -1.1234   -3.3936 H   0  0  0  0  0  0  0  0  0  0  0  0
    0.7918   -1.0300   -2.2323 H   0  0  0  0  0  0  0  0  0  0  0  0
    0.3267    0.4231   -3.1803 H   0  0  0  0  0  0  0  0  0  0  0  0
    3.1558    0.7340    2.8897 H   0  0  0  0  0  0  0  0  0  0  0  0
    5.1538   -0.5570    3.5316 H   0  0  0  0  0  0  0  0  0  0  0  0
  1  2  1  0
  2  3  2  0
  3  4  1  0
  4  5  2  0
  5  6  1  0
  6  7  2  0
  6  8  2  0
  6  9  1  0
  9 10  1  0
 10 11  2  0
 11 12  1  0
 12 13  1  0
 13 14  2  0
 14 15  1  0
 15 16  2  0
 16 17  1  0
 17 18  2  0
 12 19  2  0
 19 20  1  0
 20 21  1  0
  5 22  1  0
 22 23  2  0
 23  2  1  0
 20 10  1  0
 18 13  1  0
  1 24  1  0
  1 25  1  0
  1 26  1  0
  3 27  1  0
  4 28  1  0
  9 29  1  0
 11 30  1  0
 14 31  1  0
 15 32  1  0
 16 33  1  0
 17 34  1  0
 18 35  1  0
 21 36  1  0
 21 37  1  0
 21 38  1  0
 22 39  1  0
 23 40  1  0
M  END
$$$$
