
     RDKit          3D

 37 38  0  0  0  0  0  0  0  0999 V2000
   -4.2208   -0.4692   -2.0434 C   0  0  0  0  0  0  0  0  0  0  0  0
   -3.4868   -0.3310   -0.7854 N   0  0  0  0  0  0  0  0  0  0  0  0
   -2.1638   -0.7611   -0.7276 C   0  0  0  0  0  0  0  0  0  0  0  0
   -1.5697   -1.2199   -1.8994 N   0  0  0  0  0  0  0  0  0  0  0  0
   -1.5126   -0.7307    0.4565 C   0  0  0  0  0  0  0  0  0  0  0  0
   -0.0653   -1.1122    0.5429 C   0  0  0  0  0  0  0  0  0  0  0  0
    0.4239   -1.9329   -0.2413 O   0  0  0  0  0  0  0  0  0  0  0  0
    0.8091   -0.3975    1.5769 C   0  0  0  0  0  0  0  0  0  0  0  0
    2.1658   -0.2748    1.1331 O   0  0  0  0  0  0  0  0  0  0  0  0
    2.3176    0.5759    0.0784 C   0  0  0  0  0  0  0  0  0  0  0  0
    1.4074    1.2240   -0.4190 O   0  0  0  0  0  0  0  0  0  0  0  0
    3.7477    0.6061   -0.3728 C   0  0  0  0  0  0  0  0  0  0  0  0
    4.6969   -0.2816    0.1300 C   0  0  0  0  0  0  0  0  0  0  0  0
    6.0051   -0.1961   -0.3417 C   0  0  0  0  0  0  0  0  0  0  0  0
    6.3256    0.7636   -1.2949 C   0  0  0  0  0  0  0  0  0  0  0  0
    5.3213    1.6048   -1.7434 C   0  0  0  0  0  0  0  0  0  0  0  0
    4.0452    1.5490   -1.3072 N   0  0  0  0  0  0  0  0  0  0  0  0
   -2.2270   -0.2713    1.6651 C   0  0  0  0  0  0  0  0  0  0  0  0
   -1.7078   -0.4200    2.7714 O   0  0  0  0  0  0  0  0  0  0  0  0
   -3.4645    0.2990    1.4823 N   0  0  0  0  0  0  0  0  0  0  0  0
   -4.1625    0.8154    2.6452 C   0  0  0  0  0  0  0  0  0  0  0  0
   -4.1747    0.2092    0.2977 C   0  0  0  0  0  0  0  0  0  0  0  0
   -5.3489    0.5765    0.2234 O   0  0  0  0  0  0  0  0  0  0  0  0
   -4.1660   -1.5071   -2.3881 H   0  0  0  0  0  0  0  0  0  0  0  0
   -3.7803    0.1995   -2.7900 H   0  0  0  0  0  0  0  0  0  0  0  0
   -5.2778   -0.2093   -1.9401 H   0  0  0  0  0  0  0  0  0  0  0  0
   -0.5979   -1.5234   -1.7557 H   0  0  0  0  0  0  0  0  0  0  0  0
   -1.5949   -0.5148   -2.6321 H   0  0  0  0  0  0  0  0  0  0  0  0
    0.8218   -1.0034    2.4881 H   0  0  0  0  0  0  0  0  0  0  0  0
    0.4220    0.5975    1.8210 H   0  0  0  0  0  0  0  0  0  0  0  0
    4.4371   -1.0334    0.8676 H   0  0  0  0  0  0  0  0  0  0  0  0
    6.7670   -0.8762    0.0301 H   0  0  0  0  0  0  0  0  0  0  0  0
    7.3350    0.8530   -1.6819 H   0  0  0  0  0  0  0  0  0  0  0  0
    5.5224    2.3692   -2.4892 H   0  0  0  0  0  0  0  0  0  0  0  0
   -4.8037    1.6571    2.3658 H   0  0  0  0  0  0  0  0  0  0  0  0
   -4.7871    0.0162    3.0569 H   0  0  0  0  0  0  0  0  0  0  0  0
   -3.4590    1.1500    3.4132 H   0  0  0  0  0  0  0  0  0  0  0  0
  1  2  1  0
  2  3  1  0
  3  4  1  0
  3  5  2  0
  5  6  1  0
  6  7  2  0
  6  8  1  0
  8  9  1  0
  9 10  1  0
 10 11  2  0
 10 12  1  0
 12 13  2  0
 13 14  1  0
 14 15  2  0
 15 16  1  0
 16 17  2  0
  5 18  1  0
 18 19  2  0
 18 20  1  0
 20 21  1  0
 20 22  1  0
 22 23  2  0
 22  2  1  0
 17 12  1  0
  1 24  1  0
  1 25  1  0
  1 26  1  0
  4 27  1  0
  4 28  1  0
  8 29  1  0
  8 30  1  0
 13 31  1  0
 14 32  1  0
 15 33  1  0
 16 34  1  0
 21 35  1  0
 21 36  1  0
 21 37  1  0
M  END
$$$$
