
     RDKit          3D

 51 55  0  0  0  0  0  0  0  0999 V2000
    1.1088    2.5624    0.3220 C   0  0  0  0  0  0  0  0  0  0  0  0
   -0.0398    1.7947   -0.2703 C   0  0  0  0  0  0  0  0  0  0  0  0
    0.0742    0.5282   -0.7439 C   0  0  0  0  0  0  0  0  0  0  0  0
    1.3557   -0.2248   -0.7060 C   0  0  0  0  0  0  0  0  0  0  0  0
    1.9282   -0.4760   -1.7568 O   0  0  0  0  0  0  0  0  0  0  0  0
    1.7007   -0.6045    0.5729 N   0  0  0  0  0  0  0  0  0  0  0  0
    2.8122   -1.3784    0.9628 C   0  0  0  0  0  0  0  0  0  0  0  0
    2.9301   -1.6870    2.3244 C   0  0  0  0  0  0  0  0  0  0  0  0
    4.0000   -2.4550    2.7912 C   0  0  0  0  0  0  0  0  0  0  0  0
    4.9625   -2.9209    1.9003 C   0  0  0  0  0  0  0  0  0  0  0  0
    4.8543   -2.6174    0.5454 C   0  0  0  0  0  0  0  0  0  0  0  0
    3.7838   -1.8483    0.0778 C   0  0  0  0  0  0  0  0  0  0  0  0
   -1.0372   -0.2267   -1.4500 C   0  0  0  0  0  0  0  0  0  0  0  0
   -1.2744   -1.6102   -0.8456 C   0  0  0  0  0  0  0  0  0  0  0  0
   -1.9709   -1.7717    0.3675 C   0  0  0  0  0  0  0  0  0  0  0  0
   -2.1399   -3.0354    0.9385 C   0  0  0  0  0  0  0  0  0  0  0  0
   -1.6099   -4.1626    0.3124 C   0  0  0  0  0  0  0  0  0  0  0  0
   -0.9112   -4.0165   -0.8921 C   0  0  0  0  0  0  0  0  0  0  0  0
   -0.3519   -5.2019   -1.5535 N   0  0  0  0  0  4  0  0  0  0  0  0
   -0.3758   -6.2738   -0.9313 O   0  0  0  0  0  0  0  0  0  0  0  0
    0.1027   -5.0629   -2.6977 O   0  0  0  0  0  1  0  0  0  0  0  0
   -0.7407   -2.7508   -1.4725 C   0  0  0  0  0  0  0  0  0  0  0  0
   -2.2958    0.5065   -1.4138 N   0  0  0  0  0  0  0  0  0  0  0  0
   -2.3869    1.7855   -0.9981 C   0  0  0  0  0  0  0  0  0  0  0  0
   -3.4490    2.5415   -1.0669 N   0  0  0  0  0  0  0  0  0  0  0  0
   -3.0814    3.7222   -0.4867 C   0  0  0  0  0  0  0  0  0  0  0  0
   -3.8599    4.8753   -0.2948 C   0  0  0  0  0  0  0  0  0  0  0  0
   -3.2922    5.9834    0.3382 C   0  0  0  0  0  0  0  0  0  0  0  0
   -1.9713    5.9442    0.7753 C   0  0  0  0  0  0  0  0  0  0  0  0
   -1.1779    4.8040    0.5920 C   0  0  0  0  0  0  0  0  0  0  0  0
   -1.7535    3.6940   -0.0508 C   0  0  0  0  0  0  0  0  0  0  0  0
   -1.2972    2.4276   -0.4087 N   0  0  0  0  0  0  0  0  0  0  0  0
    1.2734    3.4933   -0.2302 H   0  0  0  0  0  0  0  0  0  0  0  0
    0.9154    2.7886    1.3754 H   0  0  0  0  0  0  0  0  0  0  0  0
    2.0603    2.0254    0.2818 H   0  0  0  0  0  0  0  0  0  0  0  0
    1.0638   -0.3433    1.3153 H   0  0  0  0  0  0  0  0  0  0  0  0
    2.1920   -1.3388    3.0419 H   0  0  0  0  0  0  0  0  0  0  0  0
    4.0808   -2.6905    3.8493 H   0  0  0  0  0  0  0  0  0  0  0  0
    5.7956   -3.5200    2.2589 H   0  0  0  0  0  0  0  0  0  0  0  0
    5.6032   -2.9793   -0.1550 H   0  0  0  0  0  0  0  0  0  0  0  0
    3.7415   -1.6357   -0.9858 H   0  0  0  0  0  0  0  0  0  0  0  0
   -0.7633   -0.3394   -2.5073 H   0  0  0  0  0  0  0  0  0  0  0  0
   -2.3963   -0.9046    0.8728 H   0  0  0  0  0  0  0  0  0  0  0  0
   -2.6887   -3.1396    1.8722 H   0  0  0  0  0  0  0  0  0  0  0  0
   -1.7502   -5.1399    0.7699 H   0  0  0  0  0  0  0  0  0  0  0  0
   -0.1787   -2.6427   -2.4005 H   0  0  0  0  0  0  0  0  0  0  0  0
   -3.0660    0.1220   -1.9506 H   0  0  0  0  0  0  0  0  0  0  0  0
   -4.8896    4.8933   -0.6361 H   0  0  0  0  0  0  0  0  0  0  0  0
   -3.8891    6.8795    0.4901 H   0  0  0  0  0  0  0  0  0  0  0  0
   -1.5458    6.8165    1.2682 H   0  0  0  0  0  0  0  0  0  0  0  0
   -0.1551    4.8105    0.9473 H   0  0  0  0  0  0  0  0  0  0  0  0
  1  2  1  0
  2  3  2  0
  3  4  1  0
  4  5  2  0
  4  6  1  0
  6  7  1  0
  7  8  2  0
  8  9  1  0
  9 10  2  0
 10 11  1  0
 11 12  2  0
  3 13  1  0
 13 14  1  0
 14 15  2  0
 15 16  1  0
 16 17  2  0
 17 18  1  0
 18 19  1  0
 19 20  2  0
 19 21  1  0
 18 22  2  0
 13 23  1  0
 23 24  1  0
 24 25  2  0
 25 26  1  0
 26 27  2  0
 27 28  1  0
 28 29  2  0
 29 30  1  0
 30 31  2  0
 31 32  1  0
 32  2  1  0
 12  7  1  0
 22 14  1  0
 32 24  1  0
 31 26  1  0
  1 33  1  0
  1 34  1  0
  1 35  1  0
  6 36  1  0
  8 37  1  0
  9 38  1  0
 10 39  1  0
 11 40  1  0
 12 41  1  0
 13 42  1  0
 15 43  1  0
 16 44  1  0
 17 45  1  0
 22 46  1  0
 23 47  1  0
 27 48  1  0
 28 49  1  0
 29 50  1  0
 30 51  1  0
M  CHG  2  19   1  21  -1
M  END
$$$$
