
     RDKit          3D

 39 41  0  0  0  0  0  0  0  0999 V2000
    4.8979   -3.1353   -0.3085 C   0  0  0  0  0  0  0  0  0  0  0  0
    4.8893   -1.6682   -0.0856 C   0  0  0  0  0  0  0  0  0  0  0  0
    6.0330   -1.0273    0.1880 N   0  0  0  0  0  0  0  0  0  0  0  0
    5.6618    0.2577    0.3273 N   0  0  0  0  0  0  0  0  0  0  0  0
    6.6564    1.2566    0.6328 C   0  0  0  0  0  0  0  0  0  0  0  0
    4.3278    0.4571    0.1529 C   0  0  0  0  0  0  0  0  0  0  0  0
    3.7801   -0.7802   -0.1204 C   0  0  0  0  0  0  0  0  0  0  0  0
    2.3923   -1.0770   -0.3788 C   0  0  0  0  0  0  0  0  0  0  0  0
    1.5258   -0.1174   -0.3664 N   0  0  0  0  0  0  0  0  0  0  0  0
    0.2299   -0.4771   -0.6190 N   0  0  0  0  0  0  0  0  0  0  0  0
   -0.7826    0.4751   -0.5554 C   0  0  0  0  0  0  0  0  0  0  0  0
   -0.5992    1.6544   -0.2679 O   0  0  0  0  0  0  0  0  0  0  0  0
   -2.1308   -0.0553   -0.8264 C   0  0  0  0  0  0  0  0  0  0  0  0
   -2.3936   -1.1727   -1.6058 C   0  0  0  0  0  0  0  0  0  0  0  0
   -4.0561   -1.5576   -1.7051 S   0  0  0  0  0  0  0  0  0  0  0  0
   -4.4709   -0.2255   -0.7407 C   0  0  0  0  0  0  0  0  0  0  0  0
   -3.3724    0.5215   -0.3546 C   0  0  0  0  0  0  0  0  0  0  0  0
   -3.5213    1.7487    0.5061 C   0  0  0  0  0  0  0  0  0  0  0  0
   -4.9773    2.2365    0.5792 C   0  0  0  0  0  0  0  0  0  0  0  0
   -5.9614    1.0766    0.7714 C   0  0  0  0  0  0  0  0  0  0  0  0
   -5.8958    0.0870   -0.4000 C   0  0  0  0  0  0  0  0  0  0  0  0
    4.5242   -3.3703   -1.3102 H   0  0  0  0  0  0  0  0  0  0  0  0
    4.2583   -3.6355    0.4257 H   0  0  0  0  0  0  0  0  0  0  0  0
    5.9063   -3.5523   -0.2177 H   0  0  0  0  0  0  0  0  0  0  0  0
    7.3958    1.2641   -0.1719 H   0  0  0  0  0  0  0  0  0  0  0  0
    6.1777    2.2360    0.7090 H   0  0  0  0  0  0  0  0  0  0  0  0
    7.1259    0.9957    1.5846 H   0  0  0  0  0  0  0  0  0  0  0  0
    3.8730    1.4358    0.2328 H   0  0  0  0  0  0  0  0  0  0  0  0
    2.1200   -2.1272   -0.5805 H   0  0  0  0  0  0  0  0  0  0  0  0
   -0.0002   -1.4556   -0.7295 H   0  0  0  0  0  0  0  0  0  0  0  0
   -1.6949   -1.7948   -2.1467 H   0  0  0  0  0  0  0  0  0  0  0  0
   -3.1679    1.5081    1.5163 H   0  0  0  0  0  0  0  0  0  0  0  0
   -2.9025    2.5667    0.1231 H   0  0  0  0  0  0  0  0  0  0  0  0
   -5.2304    2.7699   -0.3463 H   0  0  0  0  0  0  0  0  0  0  0  0
   -5.0798    2.9560    1.3994 H   0  0  0  0  0  0  0  0  0  0  0  0
   -5.7259    0.5564    1.7087 H   0  0  0  0  0  0  0  0  0  0  0  0
   -6.9825    1.4628    0.8668 H   0  0  0  0  0  0  0  0  0  0  0  0
   -6.4477   -0.8228   -0.1378 H   0  0  0  0  0  0  0  0  0  0  0  0
   -6.3825    0.5293   -1.2781 H   0  0  0  0  0  0  0  0  0  0  0  0
  1  2  1  0
  2  3  2  0
  3  4  1  0
  4  5  1  0
  4  6  1  0
  6  7  2  0
  7  8  1  0
  8  9  2  3
  9 10  1  0
 10 11  1  0
 11 12  2  0
 11 13  1  0
 13 14  2  0
 14 15  1  0
 15 16  1  0
 16 17  2  0
 17 18  1  0
 18 19  1  0
 19 20  1  0
 20 21  1  0
  7  2  1  0
 17 13  1  0
 21 16  1  0
  1 22  1  0
  1 23  1  0
  1 24  1  0
  5 25  1  0
  5 26  1  0
  5 27  1  0
  6 28  1  0
  8 29  1  0
 10 30  1  0
 14 31  1  0
 18 32  1  0
 18 33  1  0
 19 34  1  0
 19 35  1  0
 20 36  1  0
 20 37  1  0
 21 38  1  0
 21 39  1  0
M  END
$$$$
