
     RDKit          3D

 41 42  0  0  0  0  0  0  0  0999 V2000
   -6.0874   -1.5815   -0.8558 C   0  0  0  0  0  0  0  0  0  0  0  0
   -5.8813   -0.6756    0.3437 C   0  0  0  0  0  0  0  0  0  0  0  0
   -4.4885   -0.3646    0.4956 O   0  0  0  0  0  0  0  0  0  0  0  0
   -4.0361    0.7049   -0.2129 C   0  0  0  0  0  0  0  0  0  0  0  0
   -4.7354    1.3811   -0.9571 O   0  0  0  0  0  0  0  0  0  0  0  0
   -2.6938    0.9429    0.0017 N   0  0  0  0  0  0  0  0  0  0  0  0
   -1.8609    0.1170    0.8726 C   0  0  0  0  0  0  0  0  0  0  0  0
   -0.3782    0.1652    0.4772 C   0  0  0  0  0  0  0  0  0  0  0  0
    0.1645    1.5362    0.3898 N   0  0  0  0  0  0  0  0  0  0  0  0
    1.4992    1.8426    0.7372 C   0  0  0  0  0  0  0  0  0  0  0  0
    2.0065    3.3700    1.2099 S   0  0  0  0  0  0  0  0  0  0  0  0
    2.3426    0.7316    0.6154 N   0  0  0  0  0  0  0  0  0  0  0  0
    3.6848    0.5993    0.9680 C   0  0  0  0  0  0  0  0  0  0  0  0
    4.2804    1.2386    1.8245 O   0  0  0  0  0  0  0  0  0  0  0  0
    4.4224   -0.4913    0.2763 C   0  0  0  0  0  0  0  0  0  0  0  0
    3.8228   -1.7271   -0.0169 C   0  0  0  0  0  0  0  0  0  0  0  0
    4.5618   -2.7227   -0.6630 C   0  0  0  0  0  0  0  0  0  0  0  0
    5.8905   -2.4836   -1.0029 C   0  0  0  0  0  0  0  0  0  0  0  0
    6.5901   -3.4429   -1.6231 F   0  0  0  0  0  0  0  0  0  0  0  0
    6.4883   -1.2664   -0.6964 C   0  0  0  0  0  0  0  0  0  0  0  0
    7.7691   -1.0457   -1.0214 F   0  0  0  0  0  0  0  0  0  0  0  0
    5.7656   -0.2679   -0.0532 C   0  0  0  0  0  0  0  0  0  0  0  0
   -0.8415    2.5990    0.1631 C   0  0  0  0  0  0  0  0  0  0  0  0
   -2.0658    2.1060   -0.6182 C   0  0  0  0  0  0  0  0  0  0  0  0
   -7.1375   -1.8735   -0.9452 H   0  0  0  0  0  0  0  0  0  0  0  0
   -5.4757   -2.4851   -0.7645 H   0  0  0  0  0  0  0  0  0  0  0  0
   -5.7831   -1.0835   -1.7818 H   0  0  0  0  0  0  0  0  0  0  0  0
   -6.4891    0.2336    0.2709 H   0  0  0  0  0  0  0  0  0  0  0  0
   -6.1927   -1.1966    1.2550 H   0  0  0  0  0  0  0  0  0  0  0  0
   -2.2104   -0.9204    0.8604 H   0  0  0  0  0  0  0  0  0  0  0  0
   -1.9906    0.5017    1.8913 H   0  0  0  0  0  0  0  0  0  0  0  0
    0.2045   -0.4228    1.1942 H   0  0  0  0  0  0  0  0  0  0  0  0
   -0.2474   -0.2820   -0.5155 H   0  0  0  0  0  0  0  0  0  0  0  0
    2.0289    0.1140   -0.1153 H   0  0  0  0  0  0  0  0  0  0  0  0
    2.8005   -1.9445    0.2806 H   0  0  0  0  0  0  0  0  0  0  0  0
    4.1182   -3.6873   -0.8929 H   0  0  0  0  0  0  0  0  0  0  0  0
    6.2510    0.6748    0.1875 H   0  0  0  0  0  0  0  0  0  0  0  0
   -1.1533    2.9617    1.1503 H   0  0  0  0  0  0  0  0  0  0  0  0
   -0.3816    3.4309   -0.3799 H   0  0  0  0  0  0  0  0  0  0  0  0
   -1.7650    1.7986   -1.6271 H   0  0  0  0  0  0  0  0  0  0  0  0
   -2.7966    2.9154   -0.7222 H   0  0  0  0  0  0  0  0  0  0  0  0
  1  2  1  0
  2  3  1  0
  3  4  1  0
  4  5  2  0
  4  6  1  0
  6  7  1  0
  7  8  1  0
  8  9  1  0
  9 10  1  0
 10 11  2  0
 10 12  1  0
 12 13  1  0
 13 14  2  0
 13 15  1  0
 15 16  2  0
 16 17  1  0
 17 18  2  0
 18 19  1  0
 18 20  1  0
 20 21  1  0
 20 22  2  0
  9 23  1  0
 23 24  1  0
 24  6  1  0
 22 15  1  0
  1 25  1  0
  1 26  1  0
  1 27  1  0
  2 28  1  0
  2 29  1  0
  7 30  1  0
  7 31  1  0
  8 32  1  0
  8 33  1  0
 12 34  1  0
 16 35  1  0
 17 36  1  0
 22 37  1  0
 23 38  1  0
 23 39  1  0
 24 40  1  0
 24 41  1  0
M  END
$$$$
