
     RDKit          3D

 55 57  0  0  0  0  0  0  0  0999 V2000
    2.4806    2.5243    2.0810 C   0  0  0  0  0  0  0  0  0  0  0  0
    1.6723    2.0617    0.8642 C   0  0  0  0  0  0  0  0  0  0  0  0
    2.5651    1.2170   -0.0433 C   0  0  0  0  0  0  0  0  0  0  0  0
    0.4040    1.3146    1.3375 C   0  0  0  0  0  0  0  0  0  0  0  0
   -0.5876    0.9718    0.2037 C   0  0  0  0  0  0  0  0  0  0  0  0
   -0.2468   -0.3294   -0.5051 C   0  0  0  0  0  0  0  0  0  0  0  0
    0.1808   -1.3529    0.0182 O   0  0  0  0  0  0  0  0  0  0  0  0
   -0.4425   -0.2027   -1.8506 O   0  0  0  0  0  0  0  0  0  0  0  0
   -0.1589   -1.3595   -2.6381 C   0  0  0  0  0  0  0  0  0  0  0  0
    1.3374   -1.5779   -2.9073 C   0  0  0  0  0  0  0  0  0  0  0  0
    1.8245   -1.3195   -4.0066 O   0  0  0  0  0  0  0  0  0  0  0  0
    2.0164   -2.0788   -1.8089 N   0  0  0  0  0  0  0  0  0  0  0  0
    3.3953   -2.3416   -1.6808 C   0  0  0  0  0  0  0  0  0  0  0  0
    3.8379   -2.7732   -0.4208 C   0  0  0  0  0  0  0  0  0  0  0  0
    5.1868   -3.0548   -0.1953 C   0  0  0  0  0  0  0  0  0  0  0  0
    6.1088   -2.9047   -1.2278 C   0  0  0  0  0  0  0  0  0  0  0  0
    5.6736   -2.4758   -2.4809 C   0  0  0  0  0  0  0  0  0  0  0  0
    6.8169   -2.2846   -3.7547 Cl  0  0  0  0  0  0  0  0  0  0  0  0
    4.3238   -2.1946   -2.7129 C   0  0  0  0  0  0  0  0  0  0  0  0
   -1.9833    0.9318    0.6482 N   0  0  0  0  0  0  0  0  0  0  0  0
   -2.4735    0.2131    1.7175 C   0  0  0  0  0  0  0  0  0  0  0  0
   -1.6669   -0.5369    2.4592 O   0  0  0  0  0  0  0  0  0  0  0  0
   -3.8267    0.4598    1.8087 C   0  0  0  0  0  0  0  0  0  0  0  0
   -4.1729    1.3440    0.7404 C   0  0  0  0  0  0  0  0  0  0  0  0
   -3.0154    1.6172    0.0421 C   0  0  0  0  0  0  0  0  0  0  0  0
   -2.7933    2.3736   -1.0252 O   0  0  0  0  0  0  0  0  0  0  0  0
   -5.5658    1.8325    0.5039 C   0  0  0  0  0  0  0  0  0  0  0  0
   -6.5467    1.2846    1.5163 C   0  0  0  0  0  0  0  0  0  0  0  0
   -6.2207    0.4520    2.5240 C   0  0  0  0  0  0  0  0  0  0  0  0
   -4.8232   -0.0533    2.7995 C   0  0  0  0  0  0  0  0  0  0  0  0
    2.8117    1.6746    2.6897 H   0  0  0  0  0  0  0  0  0  0  0  0
    3.3687    3.0843    1.7672 H   0  0  0  0  0  0  0  0  0  0  0  0
    1.8833    3.1845    2.7192 H   0  0  0  0  0  0  0  0  0  0  0  0
    1.3656    2.9573    0.3079 H   0  0  0  0  0  0  0  0  0  0  0  0
    3.4935    1.7483   -0.2832 H   0  0  0  0  0  0  0  0  0  0  0  0
    2.0720    0.9947   -0.9942 H   0  0  0  0  0  0  0  0  0  0  0  0
    2.8382    0.2714    0.4368 H   0  0  0  0  0  0  0  0  0  0  0  0
    0.7062    0.4083    1.8802 H   0  0  0  0  0  0  0  0  0  0  0  0
   -0.1064    1.9582    2.0691 H   0  0  0  0  0  0  0  0  0  0  0  0
   -0.5159    1.7812   -0.5336 H   0  0  0  0  0  0  0  0  0  0  0  0
   -0.6061   -2.2612   -2.1971 H   0  0  0  0  0  0  0  0  0  0  0  0
   -0.6508   -1.2172   -3.6074 H   0  0  0  0  0  0  0  0  0  0  0  0
    1.4629   -2.1874   -0.9541 H   0  0  0  0  0  0  0  0  0  0  0  0
    3.1339   -2.8912    0.4016 H   0  0  0  0  0  0  0  0  0  0  0  0
    5.5132   -3.3883    0.7859 H   0  0  0  0  0  0  0  0  0  0  0  0
    7.1580   -3.1235   -1.0530 H   0  0  0  0  0  0  0  0  0  0  0  0
    4.0239   -1.8689   -3.7031 H   0  0  0  0  0  0  0  0  0  0  0  0
   -2.2070   -0.9653    3.1457 H   0  0  0  0  0  0  0  0  0  0  0  0
   -3.6343    2.7985   -1.2707 H   0  0  0  0  0  0  0  0  0  0  0  0
   -5.5817    2.9279    0.5512 H   0  0  0  0  0  0  0  0  0  0  0  0
   -5.8912    1.5357   -0.5002 H   0  0  0  0  0  0  0  0  0  0  0  0
   -7.5835    1.5953    1.4004 H   0  0  0  0  0  0  0  0  0  0  0  0
   -6.9985    0.1095    3.2038 H   0  0  0  0  0  0  0  0  0  0  0  0
   -4.5273    0.2644    3.8079 H   0  0  0  0  0  0  0  0  0  0  0  0
   -4.8289   -1.1493    2.7803 H   0  0  0  0  0  0  0  0  0  0  0  0
  1  2  1  0
  2  3  1  0
  2  4  1  0
  4  5  1  0
  5  6  1  0
  6  7  2  0
  6  8  1  0
  8  9  1  0
  9 10  1  0
 10 11  2  0
 10 12  1  0
 12 13  1  0
 13 14  2  0
 14 15  1  0
 15 16  2  0
 16 17  1  0
 17 18  1  0
 17 19  2  0
  5 20  1  0
 20 21  1  0
 21 22  1  0
 21 23  2  0
 23 24  1  0
 24 25  2  0
 25 26  1  0
 24 27  1  0
 27 28  1  0
 28 29  2  0
 29 30  1  0
 19 13  1  0
 25 20  1  0
 30 23  1  0
  1 31  1  0
  1 32  1  0
  1 33  1  0
  2 34  1  0
  3 35  1  0
  3 36  1  0
  3 37  1  0
  4 38  1  0
  4 39  1  0
  5 40  1  0
  9 41  1  0
  9 42  1  0
 12 43  1  0
 14 44  1  0
 15 45  1  0
 16 46  1  0
 19 47  1  0
 22 48  1  0
 26 49  1  0
 27 50  1  0
 27 51  1  0
 28 52  1  0
 29 53  1  0
 30 54  1  0
 30 55  1  0
M  END
$$$$
