
     RDKit          3D

 38 40  0  0  0  0  0  0  0  0999 V2000
    1.5134   -2.4012    0.1094 N   0  0  0  0  0  0  0  0  0  0  0  0
    2.0152   -1.3832   -0.1353 C   0  0  0  0  0  0  0  0  0  0  0  0
    2.5653   -0.1083   -0.4410 C   0  0  0  0  0  0  0  0  0  0  0  0
    3.8620    0.2065   -0.2510 C   0  0  0  0  0  0  0  0  0  0  0  0
    4.8238   -0.7031    0.2710 C   0  0  0  0  0  0  0  0  0  0  0  0
    5.4592   -0.6698    1.5010 C   0  0  0  0  0  0  0  0  0  0  0  0
    6.3896   -1.7391    1.6717 C   0  0  0  0  0  0  0  0  0  0  0  0
    6.4418   -2.5310    0.5545 C   0  0  0  0  0  0  0  0  0  0  0  0
    7.5756   -4.0612    0.3987 Br  0  0  0  0  0  0  0  0  0  0  0  0
    5.4099   -2.0139   -0.6826 S   0  0  0  0  0  0  0  0  0  0  0  0
    1.6851    0.9758   -0.9885 C   0  0  0  0  0  0  0  0  0  0  0  0
    2.1340    2.0820   -1.2792 O   0  0  0  0  0  0  0  0  0  0  0  0
    0.3537    0.6612   -1.1347 N   0  0  0  0  0  0  0  0  0  0  0  0
   -0.6269    1.6712   -1.5044 C   0  0  0  0  0  0  0  0  0  0  0  0
   -1.9235    1.0623   -2.0466 C   0  0  0  0  0  0  0  0  0  0  0  0
   -2.6298    0.2001   -1.0439 C   0  0  0  0  0  0  0  0  0  0  0  0
   -2.6225   -1.1813   -1.0047 C   0  0  0  0  0  0  0  0  0  0  0  0
   -3.3662   -1.5861    0.0707 N   0  0  0  0  0  0  0  0  0  0  0  0
   -3.8689   -0.4943    0.7385 C   0  0  0  0  0  0  0  0  0  0  0  0
   -4.6738   -0.4302    1.8823 C   0  0  0  0  0  0  0  0  0  0  0  0
   -5.0408    0.8361    2.3464 C   0  0  0  0  0  0  0  0  0  0  0  0
   -4.6188    1.9899    1.6908 C   0  0  0  0  0  0  0  0  0  0  0  0
   -3.8138    1.9076    0.5486 C   0  0  0  0  0  0  0  0  0  0  0  0
   -3.4286    0.6422    0.0596 C   0  0  0  0  0  0  0  0  0  0  0  0
    4.2210    1.2112   -0.4684 H   0  0  0  0  0  0  0  0  0  0  0  0
    5.2607    0.0846    2.2540 H   0  0  0  0  0  0  0  0  0  0  0  0
    6.9818   -1.9031    2.5636 H   0  0  0  0  0  0  0  0  0  0  0  0
   -0.0227   -0.1835   -0.7170 H   0  0  0  0  0  0  0  0  0  0  0  0
   -0.1864    2.3301   -2.2611 H   0  0  0  0  0  0  0  0  0  0  0  0
   -0.8177    2.2761   -0.6106 H   0  0  0  0  0  0  0  0  0  0  0  0
   -2.5954    1.8691   -2.3635 H   0  0  0  0  0  0  0  0  0  0  0  0
   -1.7004    0.4688   -2.9424 H   0  0  0  0  0  0  0  0  0  0  0  0
   -2.1486   -1.9116   -1.6481 H   0  0  0  0  0  0  0  0  0  0  0  0
   -3.5257   -2.5469    0.3412 H   0  0  0  0  0  0  0  0  0  0  0  0
   -5.0051   -1.3273    2.3948 H   0  0  0  0  0  0  0  0  0  0  0  0
   -5.6662    0.9200    3.2322 H   0  0  0  0  0  0  0  0  0  0  0  0
   -4.9170    2.9651    2.0679 H   0  0  0  0  0  0  0  0  0  0  0  0
   -3.4933    2.8154    0.0466 H   0  0  0  0  0  0  0  0  0  0  0  0
  1  2  3  0
  2  3  1  0
  3  4  2  3
  4  5  1  0
  5  6  2  0
  6  7  1  0
  7  8  2  0
  8  9  1  0
  8 10  1  0
  3 11  1  0
 11 12  2  0
 11 13  1  0
 13 14  1  0
 14 15  1  0
 15 16  1  0
 16 17  2  0
 17 18  1  0
 18 19  1  0
 19 20  2  0
 20 21  1  0
 21 22  2  0
 22 23  1  0
 23 24  2  0
 10  5  1  0
 24 16  1  0
 24 19  1  0
  4 25  1  0
  6 26  1  0
  7 27  1  0
 13 28  1  0
 14 29  1  0
 14 30  1  0
 15 31  1  0
 15 32  1  0
 17 33  1  0
 18 34  1  0
 20 35  1  0
 21 36  1  0
 22 37  1  0
 23 38  1  0
M  END
$$$$
