
     RDKit          3D

 36 38  0  0  0  0  0  0  0  0999 V2000
    2.8788   -2.0124   -2.2949 C   0  0  0  0  0  0  0  0  0  0  0  0
    2.0776   -0.7138   -2.3676 C   0  0  0  0  0  0  0  0  0  0  0  0
    2.9436    0.3652   -2.0664 O   0  0  0  0  0  0  0  0  0  0  0  0
    2.9125    0.7813   -0.7647 C   0  0  0  0  0  0  0  0  0  0  0  0
    3.9664    1.6249   -0.3984 C   0  0  0  0  0  0  0  0  0  0  0  0
    4.0388    2.1397    0.8919 C   0  0  0  0  0  0  0  0  0  0  0  0
    3.0475    1.8205    1.8126 C   0  0  0  0  0  0  0  0  0  0  0  0
    1.9864    0.9851    1.4444 C   0  0  0  0  0  0  0  0  0  0  0  0
    1.9048    0.4464    0.1513 C   0  0  0  0  0  0  0  0  0  0  0  0
    0.8291   -0.3898   -0.2606 N   0  0  0  0  0  0  0  0  0  0  0  0
   -0.3328   -0.6413    0.5870 C   0  0  0  0  0  0  0  0  0  0  0  0
   -1.3789    0.4682    0.4764 C   0  0  0  0  0  0  0  0  0  0  0  0
   -1.0933    1.6340    0.2048 O   0  0  0  0  0  0  0  0  0  0  0  0
   -2.8075    0.1336    0.7584 C   0  0  0  0  0  0  0  0  0  0  0  0
   -3.7962    1.0344    0.3294 C   0  0  0  0  0  0  0  0  0  0  0  0
   -5.1457    0.7726    0.5747 C   0  0  0  0  0  0  0  0  0  0  0  0
   -5.5045   -0.3853    1.2524 C   0  0  0  0  0  0  0  0  0  0  0  0
   -6.7976   -0.6381    1.4908 F   0  0  0  0  0  0  0  0  0  0  0  0
   -4.5392   -1.2846    1.6919 C   0  0  0  0  0  0  0  0  0  0  0  0
   -3.1864   -1.0268    1.4488 C   0  0  0  0  0  0  0  0  0  0  0  0
    0.7885   -0.8763   -1.5593 C   0  0  0  0  0  0  0  0  0  0  0  0
   -0.1813   -1.4853   -2.0177 O   0  0  0  0  0  0  0  0  0  0  0  0
    3.2313   -2.2022   -1.2748 H   0  0  0  0  0  0  0  0  0  0  0  0
    3.7670   -1.9526   -2.9330 H   0  0  0  0  0  0  0  0  0  0  0  0
    2.2777   -2.8717   -2.6091 H   0  0  0  0  0  0  0  0  0  0  0  0
    1.7624   -0.5590   -3.4070 H   0  0  0  0  0  0  0  0  0  0  0  0
    4.7304    1.8823   -1.1277 H   0  0  0  0  0  0  0  0  0  0  0  0
    4.8577    2.7966    1.1725 H   0  0  0  0  0  0  0  0  0  0  0  0
    3.0882    2.2331    2.8179 H   0  0  0  0  0  0  0  0  0  0  0  0
    1.2283    0.7963    2.1961 H   0  0  0  0  0  0  0  0  0  0  0  0
   -0.0359   -0.7743    1.6308 H   0  0  0  0  0  0  0  0  0  0  0  0
   -0.7828   -1.5874    0.2665 H   0  0  0  0  0  0  0  0  0  0  0  0
   -3.5177    1.9437   -0.2018 H   0  0  0  0  0  0  0  0  0  0  0  0
   -5.9137    1.4639    0.2419 H   0  0  0  0  0  0  0  0  0  0  0  0
   -4.8475   -2.1799    2.2237 H   0  0  0  0  0  0  0  0  0  0  0  0
   -2.4562   -1.7410    1.8174 H   0  0  0  0  0  0  0  0  0  0  0  0
  1  2  1  0
  2  3  1  0
  3  4  1  0
  4  5  2  0
  5  6  1  0
  6  7  2  0
  7  8  1  0
  8  9  2  0
  9 10  1  0
 10 11  1  0
 11 12  1  0
 12 13  2  0
 12 14  1  0
 14 15  2  0
 15 16  1  0
 16 17  2  0
 17 18  1  0
 17 19  1  0
 19 20  2  0
 10 21  1  0
 21 22  2  0
 21  2  1  0
  9  4  1  0
 20 14  1  0
  1 23  1  0
  1 24  1  0
  1 25  1  0
  2 26  1  0
  5 27  1  0
  6 28  1  0
  7 29  1  0
  8 30  1  0
 11 31  1  0
 11 32  1  0
 15 33  1  0
 16 34  1  0
 19 35  1  0
 20 36  1  0
M  END
$$$$
