
     RDKit          3D

 45 47  0  0  0  0  0  0  0  0999 V2000
    8.6472   -2.2544   -1.2584 N   0  0  0  0  0  0  0  0  0  0  0  0
    7.8258   -1.5439   -0.8484 C   0  0  0  0  0  0  0  0  0  0  0  0
    6.8047   -0.6674   -0.3537 C   0  0  0  0  0  0  0  0  0  0  0  0
    7.1357    0.3929    0.4921 C   0  0  0  0  0  0  0  0  0  0  0  0
    6.1318    1.2406    0.9696 C   0  0  0  0  0  0  0  0  0  0  0  0
    4.7944    1.0445    0.6085 C   0  0  0  0  0  0  0  0  0  0  0  0
    3.9270    1.9482    1.1543 O   0  0  0  0  0  0  0  0  0  0  0  0
    2.5625    1.8952    0.7652 C   0  0  0  0  0  0  0  0  0  0  0  0
    1.7051    0.8189    1.4571 C   0  0  0  0  0  0  0  0  0  0  0  0
    2.1641    0.0883    2.3357 O   0  0  0  0  0  0  0  0  0  0  0  0
    0.3861    0.7055    1.0332 N   0  0  0  0  0  0  0  0  0  0  0  0
   -0.4798   -0.3082    1.6389 C   0  0  0  0  0  0  0  0  0  0  0  0
   -1.4232   -0.9777    0.6198 C   0  0  0  0  0  0  0  0  0  0  0  0
   -2.1128   -0.0030   -0.2512 N   0  0  0  0  0  0  0  0  0  0  0  0
   -3.4568   -0.2579   -0.5315 C   0  0  0  0  0  0  0  0  0  0  0  0
   -3.8802   -1.5383   -0.8933 C   0  0  0  0  0  0  0  0  0  0  0  0
   -5.2266   -1.7804   -1.1731 C   0  0  0  0  0  0  0  0  0  0  0  0
   -6.1435   -0.7350   -1.0938 C   0  0  0  0  0  0  0  0  0  0  0  0
   -7.6035   -0.9040   -1.3671 C   0  0  0  0  0  0  0  0  0  0  0  0
   -7.9595   -2.1900   -1.6399 F   0  0  0  0  0  0  0  0  0  0  0  0
   -8.3779   -0.5193   -0.3151 F   0  0  0  0  0  0  0  0  0  0  0  0
   -8.0266   -0.1666   -2.4309 F   0  0  0  0  0  0  0  0  0  0  0  0
   -5.6479    0.5093   -0.7477 C   0  0  0  0  0  0  0  0  0  0  0  0
   -4.3433    0.7608   -0.4786 N   0  0  0  0  0  0  0  0  0  0  0  0
   -1.7762    1.4136   -0.0395 C   0  0  0  0  0  0  0  0  0  0  0  0
   -0.2484    1.5887    0.0456 C   0  0  0  0  0  0  0  0  0  0  0  0
    4.4650   -0.0175   -0.2346 C   0  0  0  0  0  0  0  0  0  0  0  0
    5.4681   -0.8703   -0.7155 C   0  0  0  0  0  0  0  0  0  0  0  0
    8.1675    0.5668    0.7897 H   0  0  0  0  0  0  0  0  0  0  0  0
    6.3921    2.0614    1.6351 H   0  0  0  0  0  0  0  0  0  0  0  0
    2.4728    1.8237   -0.3250 H   0  0  0  0  0  0  0  0  0  0  0  0
    2.1379    2.8629    1.0547 H   0  0  0  0  0  0  0  0  0  0  0  0
    0.1122   -1.0769    2.1472 H   0  0  0  0  0  0  0  0  0  0  0  0
   -1.0691    0.2059    2.4079 H   0  0  0  0  0  0  0  0  0  0  0  0
   -2.1315   -1.5962    1.1844 H   0  0  0  0  0  0  0  0  0  0  0  0
   -0.8368   -1.6450   -0.0233 H   0  0  0  0  0  0  0  0  0  0  0  0
   -3.1666   -2.3510   -0.9810 H   0  0  0  0  0  0  0  0  0  0  0  0
   -5.5459   -2.7828   -1.4523 H   0  0  0  0  0  0  0  0  0  0  0  0
   -6.2999    1.3775   -0.6706 H   0  0  0  0  0  0  0  0  0  0  0  0
   -2.1399    2.0311   -0.8700 H   0  0  0  0  0  0  0  0  0  0  0  0
   -2.2389    1.7784    0.8870 H   0  0  0  0  0  0  0  0  0  0  0  0
   -0.0082    2.6284    0.2887 H   0  0  0  0  0  0  0  0  0  0  0  0
    0.2058    1.3561   -0.9248 H   0  0  0  0  0  0  0  0  0  0  0  0
    3.4406   -0.2256   -0.5266 H   0  0  0  0  0  0  0  0  0  0  0  0
    5.1966   -1.6980   -1.3689 H   0  0  0  0  0  0  0  0  0  0  0  0
  1  2  3  0
  2  3  1  0
  3  4  2  0
  4  5  1  0
  5  6  2  0
  6  7  1  0
  7  8  1  0
  8  9  1  0
  9 10  2  0
  9 11  1  0
 11 12  1  0
 12 13  1  0
 13 14  1  0
 14 15  1  0
 15 16  2  0
 16 17  1  0
 17 18  2  0
 18 19  1  0
 19 20  1  0
 19 21  1  0
 19 22  1  0
 18 23  1  0
 23 24  2  0
 14 25  1  0
 25 26  1  0
  6 27  1  0
 27 28  2  0
 28  3  1  0
 26 11  1  0
 24 15  1  0
  4 29  1  0
  5 30  1  0
  8 31  1  0
  8 32  1  0
 12 33  1  0
 12 34  1  0
 13 35  1  0
 13 36  1  0
 16 37  1  0
 17 38  1  0
 23 39  1  0
 25 40  1  0
 25 41  1  0
 26 42  1  0
 26 43  1  0
 27 44  1  0
 28 45  1  0
M  END
$$$$
