
     RDKit          3D

 45 47  0  0  0  0  0  0  0  0999 V2000
    8.5020   -1.7943   -1.2232 N   0  0  0  0  0  0  0  0  0  0  0  0
    7.5732   -1.2908   -0.7426 C   0  0  0  0  0  0  0  0  0  0  0  0
    6.4261   -0.6708   -0.1470 C   0  0  0  0  0  0  0  0  0  0  0  0
    5.9443    0.5437   -0.6437 C   0  0  0  0  0  0  0  0  0  0  0  0
    4.8236    1.1525   -0.0641 C   0  0  0  0  0  0  0  0  0  0  0  0
    4.1760    0.5488    1.0137 C   0  0  0  0  0  0  0  0  0  0  0  0
    3.0771    1.0239    1.6715 O   0  0  0  0  0  0  0  0  0  0  0  0
    2.4840    2.2276    1.2140 C   0  0  0  0  0  0  0  0  0  0  0  0
    1.6909    2.1438   -0.1006 C   0  0  0  0  0  0  0  0  0  0  0  0
    2.0294    2.8333   -1.0665 O   0  0  0  0  0  0  0  0  0  0  0  0
    0.5861    1.3089   -0.1430 N   0  0  0  0  0  0  0  0  0  0  0  0
    0.1315    0.4788    0.9806 C   0  0  0  0  0  0  0  0  0  0  0  0
   -1.0873   -0.4028    0.6452 C   0  0  0  0  0  0  0  0  0  0  0  0
   -2.1486    0.4062    0.0260 N   0  0  0  0  0  0  0  0  0  0  0  0
   -3.3851   -0.2249   -0.1051 C   0  0  0  0  0  0  0  0  0  0  0  0
   -4.5030    0.4787   -0.5562 C   0  0  0  0  0  0  0  0  0  0  0  0
   -5.7392   -0.1607   -0.6668 C   0  0  0  0  0  0  0  0  0  0  0  0
   -5.8512   -1.5050   -0.3219 C   0  0  0  0  0  0  0  0  0  0  0  0
   -7.1439   -2.2532   -0.3893 C   0  0  0  0  0  0  0  0  0  0  0  0
   -6.9888   -3.5489   -0.7793 F   0  0  0  0  0  0  0  0  0  0  0  0
   -7.7813   -2.2989    0.8122 F   0  0  0  0  0  0  0  0  0  0  0  0
   -8.0346   -1.7077   -1.2640 F   0  0  0  0  0  0  0  0  0  0  0  0
   -4.7067   -2.1304    0.1382 C   0  0  0  0  0  0  0  0  0  0  0  0
   -3.5010   -1.5232    0.2517 N   0  0  0  0  0  0  0  0  0  0  0  0
   -1.7336    1.3078   -1.0685 C   0  0  0  0  0  0  0  0  0  0  0  0
   -0.2220    1.2327   -1.3607 C   0  0  0  0  0  0  0  0  0  0  0  0
    4.6632   -0.6650    1.5086 C   0  0  0  0  0  0  0  0  0  0  0  0
    5.7817   -1.2753    0.9342 C   0  0  0  0  0  0  0  0  0  0  0  0
    6.4342    1.0286   -1.4867 H   0  0  0  0  0  0  0  0  0  0  0  0
    4.4898    2.0955   -0.4870 H   0  0  0  0  0  0  0  0  0  0  0  0
    3.2297    3.0295    1.1442 H   0  0  0  0  0  0  0  0  0  0  0  0
    1.7852    2.5610    1.9904 H   0  0  0  0  0  0  0  0  0  0  0  0
   -0.1192    1.1589    1.8029 H   0  0  0  0  0  0  0  0  0  0  0  0
    0.9559   -0.1601    1.3085 H   0  0  0  0  0  0  0  0  0  0  0  0
   -1.4334   -0.8619    1.5798 H   0  0  0  0  0  0  0  0  0  0  0  0
   -0.7828   -1.2075   -0.0370 H   0  0  0  0  0  0  0  0  0  0  0  0
   -4.4295    1.5331   -0.8018 H   0  0  0  0  0  0  0  0  0  0  0  0
   -6.6054    0.3987   -1.0142 H   0  0  0  0  0  0  0  0  0  0  0  0
   -4.7145   -3.1749    0.4434 H   0  0  0  0  0  0  0  0  0  0  0  0
   -2.2630    1.0856   -2.0036 H   0  0  0  0  0  0  0  0  0  0  0  0
   -1.9888    2.3329   -0.7740 H   0  0  0  0  0  0  0  0  0  0  0  0
    0.0193    0.2750   -1.8383 H   0  0  0  0  0  0  0  0  0  0  0  0
    0.0515    2.0217   -2.0686 H   0  0  0  0  0  0  0  0  0  0  0  0
    4.1667   -1.1413    2.3515 H   0  0  0  0  0  0  0  0  0  0  0  0
    6.1413   -2.2200    1.3372 H   0  0  0  0  0  0  0  0  0  0  0  0
  1  2  3  0
  2  3  1  0
  3  4  2  0
  4  5  1  0
  5  6  2  0
  6  7  1  0
  7  8  1  0
  8  9  1  0
  9 10  2  0
  9 11  1  0
 11 12  1  0
 12 13  1  0
 13 14  1  0
 14 15  1  0
 15 16  2  0
 16 17  1  0
 17 18  2  0
 18 19  1  0
 19 20  1  0
 19 21  1  0
 19 22  1  0
 18 23  1  0
 23 24  2  0
 14 25  1  0
 25 26  1  0
  6 27  1  0
 27 28  2  0
 28  3  1  0
 26 11  1  0
 24 15  1  0
  4 29  1  0
  5 30  1  0
  8 31  1  0
  8 32  1  0
 12 33  1  0
 12 34  1  0
 13 35  1  0
 13 36  1  0
 16 37  1  0
 17 38  1  0
 23 39  1  0
 25 40  1  0
 25 41  1  0
 26 42  1  0
 26 43  1  0
 27 44  1  0
 28 45  1  0
M  END
$$$$
