
     RDKit          3D

 31 33  0  0  0  0  0  0  0  0999 V2000
    1.5210   -1.0805    1.8146 O   0  0  0  0  0  0  0  0  0  0  0  0
    1.9201   -0.7981    0.6894 C   0  0  0  0  0  0  0  0  0  0  0  0
    1.2823   -1.2065   -0.4724 N   0  0  0  0  0  0  0  0  0  0  0  0
   -0.0018   -1.7663   -0.3016 N   0  0  0  0  0  0  0  0  0  0  0  0
   -1.0964   -0.9159   -0.3091 C   0  0  0  0  0  0  0  0  0  0  0  0
   -1.0403    0.2775   -0.5712 O   0  0  0  0  0  0  0  0  0  0  0  0
   -2.3311   -1.7017   -0.0055 C   0  0  0  0  0  0  0  0  0  0  0  0
   -3.5985   -1.2898    0.1461 C   0  0  0  0  0  0  0  0  0  0  0  0
   -4.0614    0.0485    0.0137 C   0  0  0  0  0  0  0  0  0  0  0  0
   -3.8529    0.9924   -0.9768 C   0  0  0  0  0  0  0  0  0  0  0  0
   -4.5323    2.2218   -0.7321 C   0  0  0  0  0  0  0  0  0  0  0  0
   -5.2648    2.1805    0.4303 C   0  0  0  0  0  0  0  0  0  0  0  0
   -5.1390    0.6680    1.2114 S   0  0  0  0  0  0  0  0  0  0  0  0
   -1.9130   -3.3838    0.1887 S   0  0  0  0  0  0  0  0  0  0  0  0
   -0.1982   -3.1129   -0.0899 C   0  0  0  0  0  0  0  0  0  0  0  0
    0.9311   -4.3397   -0.1294 S   0  0  0  0  0  0  0  0  0  0  0  0
    3.1224    0.0476    0.5127 C   0  0  0  0  0  0  0  0  0  0  0  0
    3.8959    0.0492   -0.6513 C   0  0  0  0  0  0  0  0  0  0  0  0
    5.0149    0.8779   -0.7253 C   0  0  0  0  0  0  0  0  0  0  0  0
    5.3236    1.6717    0.3685 C   0  0  0  0  0  0  0  0  0  0  0  0
    4.6032    1.6848    1.5102 N   0  0  0  0  0  0  0  0  0  0  0  0
    3.5225    0.8663    1.5616 C   0  0  0  0  0  0  0  0  0  0  0  0
    1.3711   -0.6200   -1.2968 H   0  0  0  0  0  0  0  0  0  0  0  0
   -4.3537   -2.0233    0.4270 H   0  0  0  0  0  0  0  0  0  0  0  0
   -3.2295    0.8196   -1.8459 H   0  0  0  0  0  0  0  0  0  0  0  0
   -4.4844    3.0895   -1.3784 H   0  0  0  0  0  0  0  0  0  0  0  0
   -5.8741    2.9650    0.8577 H   0  0  0  0  0  0  0  0  0  0  0  0
    3.6657   -0.5996   -1.4907 H   0  0  0  0  0  0  0  0  0  0  0  0
    5.6397    0.8984   -1.6121 H   0  0  0  0  0  0  0  0  0  0  0  0
    6.1864    2.3324    0.3576 H   0  0  0  0  0  0  0  0  0  0  0  0
    2.9714    0.8968    2.4990 H   0  0  0  0  0  0  0  0  0  0  0  0
  1  2  2  0
  2  3  1  0
  3  4  1  0
  4  5  1  0
  5  6  2  0
  5  7  1  0
  7  8  2  3
  8  9  1  0
  9 10  2  0
 10 11  1  0
 11 12  2  0
 12 13  1  0
  7 14  1  0
 14 15  1  0
 15 16  2  0
  2 17  1  0
 17 18  2  0
 18 19  1  0
 19 20  2  0
 20 21  1  0
 21 22  2  0
 15  4  1  0
 22 17  1  0
 13  9  1  0
  3 23  1  0
  8 24  1  0
 10 25  1  0
 11 26  1  0
 12 27  1  0
 18 28  1  0
 19 29  1  0
 20 30  1  0
 22 31  1  0
M  END
$$$$
