
     RDKit          3D

 54 58  0  0  0  0  0  0  0  0999 V2000
    4.8452   -3.4098    1.1780 C   0  0  0  0  0  0  0  0  0  0  0  0
    4.2105   -2.4109    0.2238 C   0  0  0  0  0  0  0  0  0  0  0  0
    3.8119   -1.1178    0.9178 C   0  0  0  0  0  0  0  0  0  0  0  0
    3.9128   -0.9869    2.1377 O   0  0  0  0  0  0  0  0  0  0  0  0
    3.3259   -0.0956    0.1059 N   0  0  0  0  0  0  0  0  0  0  0  0
    2.8221   -0.2856   -1.2496 C   0  0  0  0  0  0  0  0  0  0  0  0
    1.2951   -0.3800   -1.2088 C   0  0  0  0  0  0  0  0  0  0  0  0
    0.6533    0.8568   -0.5073 C   0  0  0  0  0  0  0  0  0  0  0  0
    1.3442    1.1062    0.8633 C   0  0  0  0  0  0  0  0  0  0  0  0
    2.8669    1.1359    0.7343 C   0  0  0  0  0  0  0  0  0  0  0  0
    0.9841    1.9573   -1.3975 O   0  0  0  0  0  0  0  0  0  0  0  0
    0.2371    3.0933   -1.3162 C   0  0  0  0  0  0  0  0  0  0  0  0
    0.7422    4.2063   -1.9890 C   0  0  0  0  0  0  0  0  0  0  0  0
    0.0575    5.4234   -1.9453 C   0  0  0  0  0  0  0  0  0  0  0  0
   -1.1351    5.5234   -1.2292 C   0  0  0  0  0  0  0  0  0  0  0  0
   -1.9717    7.0246   -1.1721 Cl  0  0  0  0  0  0  0  0  0  0  0  0
   -1.6528    4.4157   -0.5639 C   0  0  0  0  0  0  0  0  0  0  0  0
   -0.9634    3.1998   -0.6230 C   0  0  0  0  0  0  0  0  0  0  0  0
   -1.4955    2.0090    0.0520 C   0  0  0  0  0  0  0  0  0  0  0  0
   -2.3776    2.1335    0.8977 O   0  0  0  0  0  0  0  0  0  0  0  0
   -0.8845    0.6754   -0.3623 C   0  0  0  0  0  0  0  0  0  0  0  0
   -1.3243   -0.4405    0.5762 C   0  0  0  0  0  0  0  0  0  0  0  0
   -2.4685   -0.9732   -0.2169 C   0  0  0  0  0  0  0  0  0  0  0  0
   -3.4482   -1.9270    0.3558 C   0  0  0  0  0  0  0  0  0  0  0  0
   -3.3052   -2.4364    1.6521 C   0  0  0  0  0  0  0  0  0  0  0  0
   -4.2475   -3.3385    2.1580 C   0  0  0  0  0  0  0  0  0  0  0  0
   -5.3290   -3.7315    1.3709 C   0  0  0  0  0  0  0  0  0  0  0  0
   -6.4831   -4.8419    1.9978 Cl  0  0  0  0  0  0  0  0  0  0  0  0
   -5.4787   -3.2310    0.0798 C   0  0  0  0  0  0  0  0  0  0  0  0
   -4.5387   -2.3298   -0.4277 C   0  0  0  0  0  0  0  0  0  0  0  0
   -2.5153   -0.5661   -1.4453 N   0  0  0  0  0  0  0  0  0  0  0  0
   -1.4473    0.3348   -1.6410 O   0  0  0  0  0  0  0  0  0  0  0  0
    4.1508   -3.6857    1.9785 H   0  0  0  0  0  0  0  0  0  0  0  0
    5.7449   -2.9928    1.6424 H   0  0  0  0  0  0  0  0  0  0  0  0
    5.1276   -4.3214    0.6423 H   0  0  0  0  0  0  0  0  0  0  0  0
    4.9259   -2.1786   -0.5723 H   0  0  0  0  0  0  0  0  0  0  0  0
    3.3159   -2.8653   -0.2149 H   0  0  0  0  0  0  0  0  0  0  0  0
    3.1503    0.5668   -1.8555 H   0  0  0  0  0  0  0  0  0  0  0  0
    3.2356   -1.1830   -1.7145 H   0  0  0  0  0  0  0  0  0  0  0  0
    0.9356   -0.4605   -2.2419 H   0  0  0  0  0  0  0  0  0  0  0  0
    1.0220   -1.3058   -0.6921 H   0  0  0  0  0  0  0  0  0  0  0  0
    1.0222    2.0593    1.2977 H   0  0  0  0  0  0  0  0  0  0  0  0
    1.0684    0.3160    1.5716 H   0  0  0  0  0  0  0  0  0  0  0  0
    3.1944    1.9780    0.1137 H   0  0  0  0  0  0  0  0  0  0  0  0
    3.3230    1.2677    1.7210 H   0  0  0  0  0  0  0  0  0  0  0  0
    1.6739    4.1307   -2.5448 H   0  0  0  0  0  0  0  0  0  0  0  0
    0.4592    6.2872   -2.4694 H   0  0  0  0  0  0  0  0  0  0  0  0
   -2.5876    4.4912   -0.0131 H   0  0  0  0  0  0  0  0  0  0  0  0
   -1.6228   -0.0970    1.5694 H   0  0  0  0  0  0  0  0  0  0  0  0
   -0.5892   -1.2415    0.6854 H   0  0  0  0  0  0  0  0  0  0  0  0
   -2.4730   -2.1510    2.2887 H   0  0  0  0  0  0  0  0  0  0  0  0
   -4.1327   -3.7297    3.1660 H   0  0  0  0  0  0  0  0  0  0  0  0
   -6.3211   -3.5343   -0.5365 H   0  0  0  0  0  0  0  0  0  0  0  0
   -4.6662   -1.9430   -1.4374 H   0  0  0  0  0  0  0  0  0  0  0  0
  1  2  1  0
  2  3  1  0
  3  4  2  0
  3  5  1  0
  5  6  1  0
  6  7  1  0
  7  8  1  0
  8  9  1  0
  9 10  1  0
  8 11  1  0
 11 12  1  0
 12 13  2  0
 13 14  1  0
 14 15  2  0
 15 16  1  0
 15 17  1  0
 17 18  2  0
 18 19  1  0
 19 20  2  0
 19 21  1  0
 21 22  1  0
 22 23  1  0
 23 24  1  0
 24 25  2  0
 25 26  1  0
 26 27  2  0
 27 28  1  0
 27 29  1  0
 29 30  2  0
 23 31  2  0
 31 32  1  0
 10  5  1  0
 18 12  1  0
 32 21  1  0
 21  8  1  0
 30 24  1  0
  1 33  1  0
  1 34  1  0
  1 35  1  0
  2 36  1  0
  2 37  1  0
  6 38  1  0
  6 39  1  0
  7 40  1  0
  7 41  1  0
  9 42  1  0
  9 43  1  0
 10 44  1  0
 10 45  1  0
 13 46  1  0
 14 47  1  0
 17 48  1  0
 22 49  1  0
 22 50  1  0
 25 51  1  0
 26 52  1  0
 29 53  1  0
 30 54  1  0
M  END
$$$$
