
     RDKit          3D

 51 53  0  0  0  0  0  0  0  0999 V2000
   -4.7519    1.0977   -2.7459 O   0  0  0  0  0  0  0  0  0  0  0  0
   -4.7002    1.4015   -1.5587 C   0  0  0  0  0  0  0  0  0  0  0  0
   -4.2906    2.8141   -1.1264 C   0  0  0  0  0  0  0  0  0  0  0  0
   -2.9134    2.9127   -0.7565 O   0  0  0  0  0  0  0  0  0  0  0  0
   -2.6125    2.4416    0.4834 C   0  0  0  0  0  0  0  0  0  0  0  0
   -3.4356    1.9954    1.2698 O   0  0  0  0  0  0  0  0  0  0  0  0
   -1.1356    2.5589    0.7449 C   0  0  0  0  0  0  0  0  0  0  0  0
   -0.7365    1.6612    1.9129 C   0  0  0  0  0  0  0  0  0  0  0  0
    0.7028    1.7141    2.1794 N   0  0  0  0  0  0  0  0  0  0  0  0
    1.5414    0.9118    1.4214 C   0  0  0  0  0  0  0  0  0  0  0  0
    1.1880    0.1670    0.5155 O   0  0  0  0  0  0  0  0  0  0  0  0
    2.9552    1.1016    1.8383 C   0  0  0  0  0  0  0  0  0  0  0  0
    3.9588    0.4231    1.2628 C   0  0  0  0  0  0  0  0  0  0  0  0
    5.3674    0.5199    1.6019 C   0  0  0  0  0  0  0  0  0  0  0  0
    6.3777   -0.1064    0.9799 C   0  0  0  0  0  0  0  0  0  0  0  0
    6.2688   -0.9776   -0.1925 C   0  0  0  0  0  0  0  0  0  0  0  0
    5.9676   -0.4481   -1.4535 C   0  0  0  0  0  0  0  0  0  0  0  0
    5.8766   -1.2874   -2.5666 C   0  0  0  0  0  0  0  0  0  0  0  0
    6.0878   -2.6585   -2.4250 C   0  0  0  0  0  0  0  0  0  0  0  0
    6.3903   -3.1911   -1.1713 C   0  0  0  0  0  0  0  0  0  0  0  0
    6.4808   -2.3528   -0.0571 C   0  0  0  0  0  0  0  0  0  0  0  0
    3.0441    2.2740    3.0913 S   0  0  0  0  0  0  0  0  0  0  0  0
    1.3081    2.5540    3.0876 C   0  0  0  0  0  0  0  0  0  0  0  0
    0.5909    3.6972    4.0663 S   0  0  0  0  0  0  0  0  0  0  0  0
   -4.9709    0.5627   -0.4922 N   0  0  0  0  0  0  0  0  0  0  0  0
   -5.3695   -0.7906   -0.5348 C   0  0  0  0  0  0  0  0  0  0  0  0
   -5.6540   -1.4910   -1.7071 C   0  0  0  0  0  0  0  0  0  0  0  0
   -6.0328   -2.8338   -1.6334 C   0  0  0  0  0  0  0  0  0  0  0  0
   -6.2994   -3.5040   -2.7629 F   0  0  0  0  0  0  0  0  0  0  0  0
   -6.1398   -3.4976   -0.4123 C   0  0  0  0  0  0  0  0  0  0  0  0
   -5.8654   -2.8057    0.7635 C   0  0  0  0  0  0  0  0  0  0  0  0
   -5.4859   -1.4646    0.6930 C   0  0  0  0  0  0  0  0  0  0  0  0
   -5.2209   -0.8084    1.8353 F   0  0  0  0  0  0  0  0  0  0  0  0
   -4.4526    3.4871   -1.9766 H   0  0  0  0  0  0  0  0  0  0  0  0
   -4.9469    3.1720   -0.3220 H   0  0  0  0  0  0  0  0  0  0  0  0
   -0.5932    2.2531   -0.1567 H   0  0  0  0  0  0  0  0  0  0  0  0
   -0.8998    3.6085    0.9532 H   0  0  0  0  0  0  0  0  0  0  0  0
   -1.0068    0.6222    1.6874 H   0  0  0  0  0  0  0  0  0  0  0  0
   -1.2895    1.9350    2.8166 H   0  0  0  0  0  0  0  0  0  0  0  0
    3.7041   -0.2811    0.4703 H   0  0  0  0  0  0  0  0  0  0  0  0
    5.6310    1.1416    2.4555 H   0  0  0  0  0  0  0  0  0  0  0  0
    7.3913    0.0240    1.3538 H   0  0  0  0  0  0  0  0  0  0  0  0
    5.8045    0.6194   -1.5762 H   0  0  0  0  0  0  0  0  0  0  0  0
    5.6436   -0.8710   -3.5422 H   0  0  0  0  0  0  0  0  0  0  0  0
    6.0076   -3.3130   -3.2879 H   0  0  0  0  0  0  0  0  0  0  0  0
    6.5452   -4.2612   -1.0596 H   0  0  0  0  0  0  0  0  0  0  0  0
    6.7109   -2.7814    0.9151 H   0  0  0  0  0  0  0  0  0  0  0  0
   -4.7683    0.9262    0.4440 H   0  0  0  0  0  0  0  0  0  0  0  0
   -5.5937   -1.0328   -2.6899 H   0  0  0  0  0  0  0  0  0  0  0  0
   -6.4357   -4.5435   -0.3895 H   0  0  0  0  0  0  0  0  0  0  0  0
   -5.9431   -3.2957    1.7318 H   0  0  0  0  0  0  0  0  0  0  0  0
  1  2  2  0
  2  3  1  0
  3  4  1  0
  4  5  1  0
  5  6  2  0
  5  7  1  0
  7  8  1  0
  8  9  1  0
  9 10  1  0
 10 11  2  0
 10 12  1  0
 12 13  2  3
 13 14  1  0
 14 15  2  3
 15 16  1  0
 16 17  2  0
 17 18  1  0
 18 19  2  0
 19 20  1  0
 20 21  2  0
 12 22  1  0
 22 23  1  0
 23 24  2  0
  2 25  1  0
 25 26  1  0
 26 27  2  0
 27 28  1  0
 28 29  1  0
 28 30  2  0
 30 31  1  0
 31 32  2  0
 32 33  1  0
 23  9  1  0
 32 26  1  0
 21 16  1  0
  3 34  1  0
  3 35  1  0
  7 36  1  0
  7 37  1  0
  8 38  1  0
  8 39  1  0
 13 40  1  0
 14 41  1  0
 15 42  1  0
 17 43  1  0
 18 44  1  0
 19 45  1  0
 20 46  1  0
 21 47  1  0
 25 48  1  0
 27 49  1  0
 30 50  1  0
 31 51  1  0
M  END
$$$$
