
     RDKit          3D

 77 83  0  0  0  0  0  0  0  0999 V2000
   -6.5923   -2.0217   -2.8645 C   0  0  0  0  0  0  0  0  0  0  0  0
   -6.5224   -0.9760   -1.7456 C   0  0  0  0  0  0  0  0  0  0  0  0
   -7.5641   -1.2308   -0.6504 C   0  0  0  0  0  0  0  0  0  0  0  0
   -6.7791    0.4123   -2.3511 C   0  0  0  0  0  0  0  0  0  0  0  0
   -5.1825   -0.8915   -1.1913 O   0  0  0  0  0  0  0  0  0  0  0  0
   -4.6212   -1.9513   -0.5529 C   0  0  0  0  0  0  0  0  0  0  0  0
   -5.1670   -3.0347   -0.3933 O   0  0  0  0  0  0  0  0  0  0  0  0
   -3.3558   -1.6539   -0.0907 N   0  0  0  0  0  0  0  0  0  0  0  0
   -2.6260   -2.6393    0.7179 C   0  0  0  0  0  0  0  0  0  0  0  0
   -1.0828   -2.6102    0.5284 C   0  0  0  0  0  0  0  0  0  0  0  0
   -0.5888   -1.3135    0.1012 N   0  0  0  0  0  0  0  0  0  0  0  0
   -1.4446   -0.1739    0.5211 C   0  0  2  0  0  0  0  0  0  0  0  0
   -2.7793   -0.3000   -0.2114 C   0  0  0  0  0  0  0  0  0  0  0  0
   -0.5645    0.9649    0.1756 C   0  0  0  0  0  0  0  0  0  0  0  0
    0.7594    0.5185    0.0364 C   0  0  0  0  0  0  0  0  0  0  0  0
    1.5445    1.5857   -0.3009 C   0  0  0  0  0  0  0  0  0  0  0  0
    2.8267    1.5755   -0.6607 O   0  0  0  0  0  0  0  0  0  0  0  0
    0.7307    2.7385   -0.2511 N   0  0  0  0  0  0  0  0  0  0  0  0
    1.1898    4.0935   -0.3560 C   0  0  0  0  0  0  0  0  0  0  0  0
    0.3580    5.1010   -0.8546 C   0  0  0  0  0  0  0  0  0  0  0  0
    0.8217    6.4170   -0.9527 C   0  0  0  0  0  0  0  0  0  0  0  0
    2.1138    6.7392   -0.5478 C   0  0  0  0  0  0  0  0  0  0  0  0
    2.9418    5.7502   -0.0271 C   0  0  0  0  0  0  0  0  0  0  0  0
    2.4814    4.4355    0.0778 C   0  0  0  0  0  0  0  0  0  0  0  0
   -0.5999    2.3194   -0.0261 C   0  0  0  0  0  0  0  0  0  0  0  0
   -1.6230    3.1681    0.0475 O   0  0  0  0  0  0  0  0  0  0  0  0
    0.8377   -0.9512    0.2490 C   0  0  1  0  0  0  0  0  0  0  0  0
    1.4524   -1.3052    1.6273 C   0  0  0  0  0  0  0  0  0  0  0  0
    0.9904   -1.0468    2.7327 O   0  0  0  0  0  0  0  0  0  0  0  0
    2.6394   -2.0070    1.3632 N   0  0  0  0  0  0  0  0  0  0  0  0
    3.5490   -2.4428    2.3960 C   0  0  0  0  0  0  0  0  0  0  0  0
    4.6469   -1.4416    2.6774 C   0  0  0  0  0  0  0  0  0  0  0  0
    5.9817   -1.7289    2.3535 C   0  0  0  0  0  0  0  0  0  0  0  0
    6.9919   -0.8000    2.6173 C   0  0  0  0  0  0  0  0  0  0  0  0
    6.6800    0.4242    3.2054 C   0  0  0  0  0  0  0  0  0  0  0  0
    5.3588    0.7220    3.5320 C   0  0  0  0  0  0  0  0  0  0  0  0
    4.3485   -0.2050    3.2718 C   0  0  0  0  0  0  0  0  0  0  0  0
    2.8416   -2.1596   -0.0188 C   0  0  0  0  0  0  0  0  0  0  0  0
    3.8801   -2.7951   -0.6755 C   0  0  0  0  0  0  0  0  0  0  0  0
    3.8435   -2.8447   -2.0733 C   0  0  0  0  0  0  0  0  0  0  0  0
    2.7810   -2.2663   -2.7861 C   0  0  0  0  0  0  0  0  0  0  0  0
    1.7400   -1.6242   -2.1129 C   0  0  0  0  0  0  0  0  0  0  0  0
    1.7856   -1.5701   -0.7270 C   0  0  0  0  0  0  0  0  0  0  0  0
   -5.7637   -1.8916   -3.5695 H   0  0  0  0  0  0  0  0  0  0  0  0
   -6.5119   -3.0417   -2.4760 H   0  0  0  0  0  0  0  0  0  0  0  0
   -7.5349   -1.9531   -3.4174 H   0  0  0  0  0  0  0  0  0  0  0  0
   -7.4194   -0.5439    0.1917 H   0  0  0  0  0  0  0  0  0  0  0  0
   -7.4905   -2.2428   -0.2412 H   0  0  0  0  0  0  0  0  0  0  0  0
   -8.5863   -1.1056   -1.0292 H   0  0  0  0  0  0  0  0  0  0  0  0
   -7.7786    0.4876   -2.7937 H   0  0  0  0  0  0  0  0  0  0  0  0
   -6.6815    1.1920   -1.5862 H   0  0  0  0  0  0  0  0  0  0  0  0
   -6.0370    0.6432   -3.1249 H   0  0  0  0  0  0  0  0  0  0  0  0
   -2.8628   -2.4000    1.7620 H   0  0  0  0  0  0  0  0  0  0  0  0
   -3.0032   -3.6488    0.5274 H   0  0  0  0  0  0  0  0  0  0  0  0
   -0.6270   -2.9462    1.4658 H   0  0  0  0  0  0  0  0  0  0  0  0
   -0.8126   -3.3479   -0.2359 H   0  0  0  0  0  0  0  0  0  0  0  0
   -1.5970   -0.1944    1.6089 H   0  0  0  0  0  0  0  0  0  0  0  0
   -3.5006    0.4241    0.1873 H   0  0  0  0  0  0  0  0  0  0  0  0
   -2.6676   -0.0893   -1.2833 H   0  0  0  0  0  0  0  0  0  0  0  0
    3.0086    2.3680   -1.1977 H   0  0  0  0  0  0  0  0  0  0  0  0
   -0.6459    4.8885   -1.2073 H   0  0  0  0  0  0  0  0  0  0  0  0
    0.1708    7.1897   -1.3525 H   0  0  0  0  0  0  0  0  0  0  0  0
    2.4705    7.7634   -0.6240 H   0  0  0  0  0  0  0  0  0  0  0  0
    3.9419    6.0027    0.3133 H   0  0  0  0  0  0  0  0  0  0  0  0
    3.1336    3.7070    0.5549 H   0  0  0  0  0  0  0  0  0  0  0  0
   -2.3972    2.6824    0.3773 H   0  0  0  0  0  0  0  0  0  0  0  0
    2.9846   -2.6008    3.3244 H   0  0  0  0  0  0  0  0  0  0  0  0
    3.9639   -3.4195    2.1201 H   0  0  0  0  0  0  0  0  0  0  0  0
    6.2475   -2.6784    1.8939 H   0  0  0  0  0  0  0  0  0  0  0  0
    8.0235   -1.0316    2.3619 H   0  0  0  0  0  0  0  0  0  0  0  0
    7.4660    1.1456    3.4113 H   0  0  0  0  0  0  0  0  0  0  0  0
    5.1123    1.6774    3.9886 H   0  0  0  0  0  0  0  0  0  0  0  0
    3.3212    0.0461    3.5331 H   0  0  0  0  0  0  0  0  0  0  0  0
    4.7092   -3.2453   -0.1432 H   0  0  0  0  0  0  0  0  0  0  0  0
    4.6487   -3.3339   -2.6166 H   0  0  0  0  0  0  0  0  0  0  0  0
    2.7726   -2.3132   -3.8732 H   0  0  0  0  0  0  0  0  0  0  0  0
    0.9194   -1.1697   -2.6597 H   0  0  0  0  0  0  0  0  0  0  0  0
  1  2  1  0
  2  3  1  0
  2  4  1  0
  2  5  1  0
  5  6  1  0
  6  7  2  0
  6  8  1  0
  8  9  1  0
  9 10  1  0
 10 11  1  0
 11 12  1  0
 12 13  1  0
 12 14  1  0
 14 15  1  0
 15 16  2  0
 16 17  1  0
 16 18  1  0
 18 19  1  0
 19 20  2  0
 20 21  1  0
 21 22  2  0
 22 23  1  0
 23 24  2  0
 18 25  1  0
 25 26  1  0
 15 27  1  0
 27 28  1  0
 28 29  2  0
 28 30  1  0
 30 31  1  0
 31 32  1  0
 32 33  2  0
 33 34  1  0
 34 35  2  0
 35 36  1  0
 36 37  2  0
 30 38  1  0
 38 39  2  0
 39 40  1  0
 40 41  2  0
 41 42  1  0
 42 43  2  0
 13  8  1  0
 25 14  2  0
 43 27  1  0
 27 11  1  1
 37 32  1  0
 43 38  1  0
 24 19  1  0
  1 44  1  0
  1 45  1  0
  1 46  1  0
  3 47  1  0
  3 48  1  0
  3 49  1  0
  4 50  1  0
  4 51  1  0
  4 52  1  0
  9 53  1  0
  9 54  1  0
 10 55  1  0
 10 56  1  0
 12 57  1  1
 13 58  1  0
 13 59  1  0
 17 60  1  0
 20 61  1  0
 21 62  1  0
 22 63  1  0
 23 64  1  0
 24 65  1  0
 26 66  1  0
 31 67  1  0
 31 68  1  0
 33 69  1  0
 34 70  1  0
 35 71  1  0
 36 72  1  0
 37 73  1  0
 39 74  1  0
 40 75  1  0
 41 76  1  0
 42 77  1  0
M  END
$$$$
