
     RDKit          3D

 57 60  0  0  0  0  0  0  0  0999 V2000
   -4.5169    1.6400    3.3370 C   0  0  0  0  0  0  0  0  0  0  0  0
   -4.2000    1.0875    2.0624 O   0  0  0  0  0  0  0  0  0  0  0  0
   -2.9907    1.4461    1.5394 C   0  0  0  0  0  0  0  0  0  0  0  0
   -2.4606    2.7336    1.7037 C   0  0  0  0  0  0  0  0  0  0  0  0
   -1.2475    3.0878    1.1047 C   0  0  0  0  0  0  0  0  0  0  0  0
   -0.5528    2.1579    0.3301 C   0  0  0  0  0  0  0  0  0  0  0  0
    0.7121    2.5664   -0.3266 C   0  0  0  0  0  0  0  0  0  0  0  0
    0.7338    3.6618   -0.8835 O   0  0  0  0  0  0  0  0  0  0  0  0
    1.7926    1.6846   -0.3207 N   0  0  0  0  0  0  0  0  0  0  0  0
    2.0769    0.7812    0.8081 C   0  0  0  0  0  0  0  0  0  0  0  0
    2.9464   -0.4167    0.3858 C   0  0  0  0  0  0  0  0  0  0  0  0
    4.1797    0.0545   -0.2802 N   0  0  0  0  0  0  0  0  0  0  0  0
    5.1863   -0.8944   -0.5325 C   0  0  0  0  0  0  0  0  0  0  0  0
    4.9732   -2.2804   -0.5104 C   0  0  0  0  0  0  0  0  0  0  0  0
    6.0137   -3.1829   -0.7633 C   0  0  0  0  0  0  0  0  0  0  0  0
    7.2955   -2.7164   -1.0355 C   0  0  0  0  0  0  0  0  0  0  0  0
    7.5374   -1.3477   -1.0511 C   0  0  0  0  0  0  0  0  0  0  0  0
    6.4935   -0.4518   -0.8000 C   0  0  0  0  0  0  0  0  0  0  0  0
    3.8932    0.9209   -1.4525 C   0  0  0  0  0  0  0  0  0  0  0  0
    2.9935    2.1049   -1.0515 C   0  0  0  0  0  0  0  0  0  0  0  0
   -1.0942    0.8892    0.1174 C   0  0  0  0  0  0  0  0  0  0  0  0
   -2.3053    0.5311    0.7309 C   0  0  0  0  0  0  0  0  0  0  0  0
   -2.8560   -1.1466    0.5155 S   0  0  0  0  0  6  0  0  0  0  0  0
   -1.6885   -1.9241    0.1418 O   0  0  0  0  0  0  0  0  0  0  0  0
   -3.6577   -1.5641    1.6452 O   0  0  0  0  0  0  0  0  0  0  0  0
   -3.8497   -1.0513   -0.8552 N   0  0  0  0  0  0  0  0  0  0  0  0
   -5.0905   -0.2457   -0.7414 C   0  0  0  0  0  0  0  0  0  0  0  0
   -5.9983   -0.8256   -1.8145 C   0  0  0  0  0  0  0  0  0  0  0  0
   -5.7081   -2.3083   -1.7061 C   0  0  0  0  0  0  0  0  0  0  0  0
   -4.2025   -2.3572   -1.4786 C   0  0  0  0  0  0  0  0  0  0  0  0
   -5.3238    1.0406    3.7691 H   0  0  0  0  0  0  0  0  0  0  0  0
   -4.8845    2.6653    3.2300 H   0  0  0  0  0  0  0  0  0  0  0  0
   -3.6630    1.5994    4.0232 H   0  0  0  0  0  0  0  0  0  0  0  0
   -2.9876    3.4927    2.2743 H   0  0  0  0  0  0  0  0  0  0  0  0
   -0.8528    4.0945    1.2302 H   0  0  0  0  0  0  0  0  0  0  0  0
    1.1610    0.4195    1.2788 H   0  0  0  0  0  0  0  0  0  0  0  0
    2.6023    1.3792    1.5644 H   0  0  0  0  0  0  0  0  0  0  0  0
    2.3667   -1.0528   -0.2956 H   0  0  0  0  0  0  0  0  0  0  0  0
    3.1925   -0.9956    1.2841 H   0  0  0  0  0  0  0  0  0  0  0  0
    3.9891   -2.6942   -0.3136 H   0  0  0  0  0  0  0  0  0  0  0  0
    5.8170   -4.2517   -0.7466 H   0  0  0  0  0  0  0  0  0  0  0  0
    8.1035   -3.4168   -1.2278 H   0  0  0  0  0  0  0  0  0  0  0  0
    8.5374   -0.9718   -1.2490 H   0  0  0  0  0  0  0  0  0  0  0  0
    6.7147    0.6126   -0.7879 H   0  0  0  0  0  0  0  0  0  0  0  0
    3.3885    0.3262   -2.2254 H   0  0  0  0  0  0  0  0  0  0  0  0
    4.8094    1.3296   -1.8934 H   0  0  0  0  0  0  0  0  0  0  0  0
    3.5444    2.7937   -0.3989 H   0  0  0  0  0  0  0  0  0  0  0  0
    2.7058    2.6611   -1.9508 H   0  0  0  0  0  0  0  0  0  0  0  0
   -0.5746    0.1824   -0.5269 H   0  0  0  0  0  0  0  0  0  0  0  0
   -5.5567   -0.3713    0.2408 H   0  0  0  0  0  0  0  0  0  0  0  0
   -4.8901    0.8130   -0.9239 H   0  0  0  0  0  0  0  0  0  0  0  0
   -7.0519   -0.5852   -1.6472 H   0  0  0  0  0  0  0  0  0  0  0  0
   -5.7091   -0.4530   -2.8046 H   0  0  0  0  0  0  0  0  0  0  0  0
   -6.2309   -2.7305   -0.8390 H   0  0  0  0  0  0  0  0  0  0  0  0
   -6.0153   -2.8690   -2.5935 H   0  0  0  0  0  0  0  0  0  0  0  0
   -3.9341   -3.2173   -0.8576 H   0  0  0  0  0  0  0  0  0  0  0  0
   -3.6663   -2.4349   -2.4305 H   0  0  0  0  0  0  0  0  0  0  0  0
  1  2  1  0
  2  3  1  0
  3  4  2  0
  4  5  1  0
  5  6  2  0
  6  7  1  0
  7  8  2  0
  7  9  1  0
  9 10  1  0
 10 11  1  0
 11 12  1  0
 12 13  1  0
 13 14  2  0
 14 15  1  0
 15 16  2  0
 16 17  1  0
 17 18  2  0
 12 19  1  0
 19 20  1  0
  6 21  1  0
 21 22  2  0
 22 23  1  0
 23 24  2  0
 23 25  2  0
 23 26  1  0
 26 27  1  0
 27 28  1  0
 28 29  1  0
 29 30  1  0
 22  3  1  0
 30 26  1  0
 20  9  1  0
 18 13  1  0
  1 31  1  0
  1 32  1  0
  1 33  1  0
  4 34  1  0
  5 35  1  0
 10 36  1  0
 10 37  1  0
 11 38  1  0
 11 39  1  0
 14 40  1  0
 15 41  1  0
 16 42  1  0
 17 43  1  0
 18 44  1  0
 19 45  1  0
 19 46  1  0
 20 47  1  0
 20 48  1  0
 21 49  1  0
 27 50  1  0
 27 51  1  0
 28 52  1  0
 28 53  1  0
 29 54  1  0
 29 55  1  0
 30 56  1  0
 30 57  1  0
M  END
$$$$
