
     RDKit          3D

 72 76  0  0  0  0  0  0  0  0999 V2000
    7.9594    0.0048    2.7140 C   0  0  0  0  0  0  0  0  0  0  0  0
    6.7295    0.9193    2.7049 C   0  0  0  0  0  0  0  0  0  0  0  0
    7.0074    2.2467    1.9905 C   0  0  0  0  0  0  0  0  0  0  0  0
    6.3301    1.2201    4.1578 C   0  0  0  0  0  0  0  0  0  0  0  0
    5.5771    0.2437    2.1392 O   0  0  0  0  0  0  0  0  0  0  0  0
    5.5802   -0.1644    0.8503 C   0  0  0  0  0  0  0  0  0  0  0  0
    6.4872   -0.0205    0.0477 O   0  0  0  0  0  0  0  0  0  0  0  0
    4.3862   -0.7643    0.5845 N   0  0  0  0  0  0  0  0  0  0  0  0
    4.0071   -1.1986   -0.7388 C   0  0  0  0  0  0  0  0  0  0  0  0
    3.4472   -0.0585   -1.5909 C   0  0  0  0  0  0  0  0  0  0  0  0
    2.1683    0.5854   -1.0403 C   0  0  0  0  0  0  0  0  0  0  0  0
    0.9524   -0.3480   -1.0851 C   0  0  0  0  0  0  0  0  0  0  0  0
   -0.3154    0.3019   -0.5169 C   0  0  1  0  0  0  0  0  0  0  0  0
   -0.7204    1.5264   -1.2972 N   0  0  0  0  0  0  0  0  0  0  0  0
   -2.2184    1.6115   -1.2361 C   0  0  0  0  0  0  0  0  0  0  0  0
   -2.6946    2.5776   -0.1106 C   0  0  0  0  0  0  0  0  0  0  0  0
   -2.4275    2.5594    1.0819 O   0  0  0  0  0  0  0  0  0  0  0  0
   -3.5231    3.5225   -0.7233 N   0  0  0  0  0  0  0  0  0  0  0  0
   -3.6299    3.2953   -2.0883 C   0  0  0  0  0  0  0  0  0  0  0  0
   -4.3611    4.0340   -2.9945 C   0  0  0  0  0  0  0  0  0  0  0  0
   -4.3343    3.6218   -4.3285 C   0  0  0  0  0  0  0  0  0  0  0  0
   -3.5869    2.4960   -4.7197 C   0  0  0  0  0  0  0  0  0  0  0  0
   -2.8514    1.7624   -3.7839 C   0  0  0  0  0  0  0  0  0  0  0  0
   -2.8814    2.1735   -2.4595 C   0  0  0  0  0  0  0  0  0  0  0  0
   -2.6315    0.2130   -1.0354 C   0  0  0  0  0  0  0  0  0  0  0  0
   -1.5292   -0.5471   -0.6153 C   0  0  0  0  0  0  0  0  0  0  0  0
   -1.9430   -1.8386   -0.4204 C   0  0  0  0  0  0  0  0  0  0  0  0
   -1.3053   -2.9317   -0.0221 O   0  0  0  0  0  0  0  0  0  0  0  0
   -3.2977   -1.8661   -0.7205 N   0  0  0  0  0  0  0  0  0  0  0  0
   -4.1405   -3.0546   -0.6657 C   0  0  0  0  0  0  0  0  0  0  0  0
   -4.7588   -3.2455    0.6977 C   0  0  0  0  0  0  0  0  0  0  0  0
   -4.1264   -4.0423    1.6630 C   0  0  0  0  0  0  0  0  0  0  0  0
   -4.6964   -4.2147    2.9254 C   0  0  0  0  0  0  0  0  0  0  0  0
   -5.9012   -3.5886    3.2385 C   0  0  0  0  0  0  0  0  0  0  0  0
   -6.5353   -2.7870    2.2914 C   0  0  0  0  0  0  0  0  0  0  0  0
   -5.9668   -2.6144    1.0284 C   0  0  0  0  0  0  0  0  0  0  0  0
   -3.7231   -0.6107   -1.1277 C   0  0  0  0  0  0  0  0  0  0  0  0
   -4.9761   -0.3948   -1.5089 O   0  0  0  0  0  0  0  0  0  0  0  0
    8.3327   -0.1890    1.7033 H   0  0  0  0  0  0  0  0  0  0  0  0
    8.7812    0.4468    3.2873 H   0  0  0  0  0  0  0  0  0  0  0  0
    7.7149   -0.9698    3.1507 H   0  0  0  0  0  0  0  0  0  0  0  0
    7.3681    2.0934    0.9689 H   0  0  0  0  0  0  0  0  0  0  0  0
    6.0937    2.8470    1.9145 H   0  0  0  0  0  0  0  0  0  0  0  0
    7.7657    2.8327    2.5209 H   0  0  0  0  0  0  0  0  0  0  0  0
    6.0772    0.2972    4.6922 H   0  0  0  0  0  0  0  0  0  0  0  0
    7.1326    1.7269    4.7033 H   0  0  0  0  0  0  0  0  0  0  0  0
    5.4349    1.8519    4.1928 H   0  0  0  0  0  0  0  0  0  0  0  0
    3.7080   -0.7302    1.3330 H   0  0  0  0  0  0  0  0  0  0  0  0
    4.8910   -1.6157   -1.2348 H   0  0  0  0  0  0  0  0  0  0  0  0
    3.2817   -2.0090   -0.6253 H   0  0  0  0  0  0  0  0  0  0  0  0
    3.2557   -0.4328   -2.6036 H   0  0  0  0  0  0  0  0  0  0  0  0
    4.2095    0.7251   -1.6851 H   0  0  0  0  0  0  0  0  0  0  0  0
    2.3334    0.9333   -0.0142 H   0  0  0  0  0  0  0  0  0  0  0  0
    1.9619    1.4781   -1.6427 H   0  0  0  0  0  0  0  0  0  0  0  0
    1.1674   -1.2536   -0.5072 H   0  0  0  0  0  0  0  0  0  0  0  0
    0.7820   -0.6756   -2.1193 H   0  0  0  0  0  0  0  0  0  0  0  0
   -0.1539    0.5929    0.5283 H   0  0  0  0  0  0  0  0  0  0  0  0
   -0.4887    1.3424   -2.2713 H   0  0  0  0  0  0  0  0  0  0  0  0
   -3.9549    4.2752   -0.2090 H   0  0  0  0  0  0  0  0  0  0  0  0
   -4.9358    4.9026   -2.6934 H   0  0  0  0  0  0  0  0  0  0  0  0
   -4.8956    4.1776   -5.0768 H   0  0  0  0  0  0  0  0  0  0  0  0
   -3.5816    2.1939   -5.7653 H   0  0  0  0  0  0  0  0  0  0  0  0
   -2.2825    0.8898   -4.0908 H   0  0  0  0  0  0  0  0  0  0  0  0
   -0.4104   -2.6653    0.2492 H   0  0  0  0  0  0  0  0  0  0  0  0
   -4.9153   -2.9659   -1.4361 H   0  0  0  0  0  0  0  0  0  0  0  0
   -3.5287   -3.9204   -0.9456 H   0  0  0  0  0  0  0  0  0  0  0  0
   -3.1784   -4.5260    1.4365 H   0  0  0  0  0  0  0  0  0  0  0  0
   -4.1962   -4.8329    3.6659 H   0  0  0  0  0  0  0  0  0  0  0  0
   -6.3420   -3.7191    4.2230 H   0  0  0  0  0  0  0  0  0  0  0  0
   -7.4699   -2.2902    2.5372 H   0  0  0  0  0  0  0  0  0  0  0  0
   -6.4659   -1.9760    0.3021 H   0  0  0  0  0  0  0  0  0  0  0  0
   -5.0481    0.5401   -1.7744 H   0  0  0  0  0  0  0  0  0  0  0  0
  1  2  1  0
  2  3  1  0
  2  4  1  0
  2  5  1  0
  5  6  1  0
  6  7  2  0
  6  8  1  0
  8  9  1  0
  9 10  1  0
 10 11  1  0
 11 12  1  0
 12 13  1  0
 13 14  1  0
 14 15  1  0
 15 16  1  0
 16 17  2  0
 16 18  1  0
 18 19  1  0
 19 20  2  0
 20 21  1  0
 21 22  2  0
 22 23  1  0
 23 24  2  0
 15 25  1  0
 25 26  1  0
 26 27  2  0
 27 28  1  0
 27 29  1  0
 29 30  1  0
 30 31  1  0
 31 32  2  0
 32 33  1  0
 33 34  2  0
 34 35  1  0
 35 36  2  0
 29 37  1  0
 37 38  1  0
 26 13  1  0
 36 31  1  0
 24 15  1  0
 37 25  2  0
 24 19  1  0
  1 39  1  0
  1 40  1  0
  1 41  1  0
  3 42  1  0
  3 43  1  0
  3 44  1  0
  4 45  1  0
  4 46  1  0
  4 47  1  0
  8 48  1  0
  9 49  1  0
  9 50  1  0
 10 51  1  0
 10 52  1  0
 11 53  1  0
 11 54  1  0
 12 55  1  0
 12 56  1  0
 13 57  1  1
 14 58  1  0
 18 59  1  0
 20 60  1  0
 21 61  1  0
 22 62  1  0
 23 63  1  0
 28 64  1  0
 30 65  1  0
 30 66  1  0
 32 67  1  0
 33 68  1  0
 34 69  1  0
 35 70  1  0
 36 71  1  0
 38 72  1  0
M  END
$$$$
