
     RDKit          3D

 47 49  0  0  0  0  0  0  0  0999 V2000
    7.0725   -0.7140   -0.0366 C   0  0  0  0  0  0  0  0  0  0  0  0
    6.1264    0.3101    0.5831 C   0  0  0  0  0  0  0  0  0  0  0  0
    6.4950    0.5903    2.0367 C   0  0  0  0  0  0  0  0  0  0  0  0
    4.7582   -0.1685    0.5038 N   0  0  0  0  0  0  0  0  0  0  0  0
    3.8220    0.3697   -0.3495 C   0  0  0  0  0  0  0  0  0  0  0  0
    3.9794    1.3321   -1.0850 O   0  0  0  0  0  0  0  0  0  0  0  0
    2.4652   -0.3611   -0.3134 C   0  0  0  0  0  0  0  0  0  0  0  0
    2.2902   -1.3236    0.4254 O   0  0  0  0  0  0  0  0  0  0  0  0
    1.5215    0.1850   -1.1602 N   0  0  0  0  0  0  0  0  0  0  0  0
    0.1776   -0.1853   -0.9664 N   0  0  0  0  0  0  0  0  0  0  0  0
   -0.7258    0.8339   -0.7270 C   0  0  0  0  0  0  0  0  0  0  0  0
   -0.4129    2.0164   -0.8664 O   0  0  0  0  0  0  0  0  0  0  0  0
   -2.1287    0.3798   -0.2972 C   0  0  0  0  0  0  0  0  0  0  0  0
   -2.7590   -0.5347   -1.3751 C   0  0  0  0  0  0  0  0  0  0  0  0
   -4.1740   -0.9708   -0.9537 C   0  0  0  0  0  0  0  0  0  0  0  0
   -5.0572    0.2741   -0.7724 C   0  0  0  0  0  0  0  0  0  0  0  0
   -4.4613    1.1881    0.3118 C   0  0  0  0  0  0  0  0  0  0  0  0
   -4.3772    0.4186    1.6403 C   0  0  0  0  0  0  0  0  0  0  0  0
   -3.4921   -0.8270    1.4711 C   0  0  0  0  0  0  0  0  0  0  0  0
   -4.0924   -1.7321    0.3810 C   0  0  0  0  0  0  0  0  0  0  0  0
   -2.0783   -0.3924    1.0442 C   0  0  0  0  0  0  0  0  0  0  0  0
   -3.0474    1.6155   -0.1117 C   0  0  0  0  0  0  0  0  0  0  0  0
    6.7879   -0.9326   -1.0732 H   0  0  0  0  0  0  0  0  0  0  0  0
    7.0495   -1.6605    0.5180 H   0  0  0  0  0  0  0  0  0  0  0  0
    8.1026   -0.3426   -0.0371 H   0  0  0  0  0  0  0  0  0  0  0  0
    6.2085    1.2464    0.0151 H   0  0  0  0  0  0  0  0  0  0  0  0
    5.8213    1.3389    2.4653 H   0  0  0  0  0  0  0  0  0  0  0  0
    7.5179    0.9704    2.1130 H   0  0  0  0  0  0  0  0  0  0  0  0
    6.4164   -0.3148    2.6466 H   0  0  0  0  0  0  0  0  0  0  0  0
    4.4751   -0.9926    1.0298 H   0  0  0  0  0  0  0  0  0  0  0  0
    1.6879    1.1348   -1.5073 H   0  0  0  0  0  0  0  0  0  0  0  0
    0.0396   -1.1090   -0.5623 H   0  0  0  0  0  0  0  0  0  0  0  0
   -2.1425   -1.4276   -1.5362 H   0  0  0  0  0  0  0  0  0  0  0  0
   -2.7991   -0.0105   -2.3386 H   0  0  0  0  0  0  0  0  0  0  0  0
   -4.6044   -1.6219   -1.7245 H   0  0  0  0  0  0  0  0  0  0  0  0
   -5.1363    0.8198   -1.7205 H   0  0  0  0  0  0  0  0  0  0  0  0
   -6.0747   -0.0264   -0.4914 H   0  0  0  0  0  0  0  0  0  0  0  0
   -5.0935    2.0731    0.4374 H   0  0  0  0  0  0  0  0  0  0  0  0
   -5.3819    0.1215    1.9650 H   0  0  0  0  0  0  0  0  0  0  0  0
   -3.9661    1.0644    2.4264 H   0  0  0  0  0  0  0  0  0  0  0  0
   -3.4407   -1.3739    2.4193 H   0  0  0  0  0  0  0  0  0  0  0  0
   -3.4782   -2.6327    0.2599 H   0  0  0  0  0  0  0  0  0  0  0  0
   -5.0928   -2.0667    0.6818 H   0  0  0  0  0  0  0  0  0  0  0  0
   -1.4412   -1.2836    0.9640 H   0  0  0  0  0  0  0  0  0  0  0  0
   -1.6285    0.2367    1.8245 H   0  0  0  0  0  0  0  0  0  0  0  0
   -3.1018    2.1930   -1.0458 H   0  0  0  0  0  0  0  0  0  0  0  0
   -2.6268    2.2925    0.6443 H   0  0  0  0  0  0  0  0  0  0  0  0
  1  2  1  0
  2  3  1  0
  2  4  1  0
  4  5  1  0
  5  6  2  0
  5  7  1  0
  7  8  2  0
  7  9  1  0
  9 10  1  0
 10 11  1  0
 11 12  2  0
 11 13  1  0
 13 14  1  0
 14 15  1  0
 15 16  1  0
 16 17  1  0
 17 18  1  0
 18 19  1  0
 19 20  1  0
 19 21  1  0
 17 22  1  0
 21 13  1  0
 22 13  1  0
 20 15  1  0
  1 23  1  0
  1 24  1  0
  1 25  1  0
  2 26  1  0
  3 27  1  0
  3 28  1  0
  3 29  1  0
  4 30  1  0
  9 31  1  0
 10 32  1  0
 14 33  1  0
 14 34  1  0
 15 35  1  0
 16 36  1  0
 16 37  1  0
 17 38  1  0
 18 39  1  0
 18 40  1  0
 19 41  1  0
 20 42  1  0
 20 43  1  0
 21 44  1  0
 21 45  1  0
 22 46  1  0
 22 47  1  0
M  END
$$$$
