
     RDKit          3D

 48 50  0  0  0  0  0  0  0  0999 V2000
    2.7808    1.2497    1.2942 C   0  0  0  0  0  0  0  0  0  0  0  0
    1.4711    1.0263    1.1066 C   0  0  0  0  0  0  0  0  0  0  0  0
    0.3703    1.7166    1.7812 C   0  0  0  0  0  0  0  0  0  0  0  0
    0.3666    2.7064    2.8679 C   0  0  0  0  0  0  0  0  0  0  0  0
   -0.6423    3.3346    3.1758 O   0  0  0  0  0  0  0  0  0  0  0  0
    1.5601    2.7990    3.4979 O   0  0  0  0  0  0  0  0  0  0  0  0
    1.5821    3.7293    4.5817 C   0  0  0  0  0  0  0  0  0  0  0  0
   -0.7894    1.2985    1.2362 C   0  0  0  0  0  0  0  0  0  0  0  0
   -2.0601    1.6946    1.5480 O   0  0  0  0  0  0  0  0  0  0  0  0
   -0.5315    0.2853    0.2132 C   0  0  0  0  0  0  0  0  0  0  0  0
   -1.4427   -0.4002   -0.5043 C   0  0  0  0  0  0  0  0  0  0  0  0
   -2.8993   -0.2610   -0.4510 C   0  0  0  0  0  0  0  0  0  0  0  0
   -3.5512    0.6376   -1.3030 C   0  0  0  0  0  0  0  0  0  0  0  0
   -4.9415    0.7570   -1.2633 C   0  0  0  0  0  0  0  0  0  0  0  0
   -5.6740   -0.0200   -0.3732 C   0  0  0  0  0  0  0  0  0  0  0  0
   -7.0297    0.1292   -0.3662 O   0  0  0  0  0  0  0  0  0  0  0  0
   -5.0403   -0.9182    0.4805 C   0  0  0  0  0  0  0  0  0  0  0  0
   -3.6490   -1.0388    0.4394 C   0  0  0  0  0  0  0  0  0  0  0  0
    0.8708    0.1510    0.1808 N   0  0  0  0  0  0  0  0  0  0  0  0
    1.5841   -0.6934   -0.7113 C   0  0  0  0  0  0  0  0  0  0  0  0
    1.4574   -0.5440   -2.1010 C   0  0  0  0  0  0  0  0  0  0  0  0
    2.1454   -1.3834   -2.9872 C   0  0  0  0  0  0  0  0  0  0  0  0
    2.0163   -1.1888   -4.4688 C   0  0  0  0  0  0  0  0  0  0  0  0
    2.9971   -2.3676   -2.4715 C   0  0  0  0  0  0  0  0  0  0  0  0
    3.1538   -2.5276   -1.0895 C   0  0  0  0  0  0  0  0  0  0  0  0
    4.0323   -3.6146   -0.5451 C   0  0  0  0  0  0  0  0  0  0  0  0
    2.4336   -1.6971   -0.2206 C   0  0  0  0  0  0  0  0  0  0  0  0
    3.5301    0.7224    0.7131 H   0  0  0  0  0  0  0  0  0  0  0  0
    3.1663    1.9719    2.0019 H   0  0  0  0  0  0  0  0  0  0  0  0
    1.3568    4.7393    4.2252 H   0  0  0  0  0  0  0  0  0  0  0  0
    2.5894    3.7290    5.0074 H   0  0  0  0  0  0  0  0  0  0  0  0
    0.8765    3.4257    5.3614 H   0  0  0  0  0  0  0  0  0  0  0  0
   -2.0000    2.4159    2.2087 H   0  0  0  0  0  0  0  0  0  0  0  0
   -1.1161   -1.1609   -1.2077 H   0  0  0  0  0  0  0  0  0  0  0  0
   -2.9815    1.2527   -1.9943 H   0  0  0  0  0  0  0  0  0  0  0  0
   -5.4491    1.4568   -1.9202 H   0  0  0  0  0  0  0  0  0  0  0  0
   -7.3972   -0.4471    0.3233 H   0  0  0  0  0  0  0  0  0  0  0  0
   -5.6040   -1.5258    1.1804 H   0  0  0  0  0  0  0  0  0  0  0  0
   -3.1507   -1.7348    1.1095 H   0  0  0  0  0  0  0  0  0  0  0  0
    0.8190    0.2448   -2.4938 H   0  0  0  0  0  0  0  0  0  0  0  0
    1.0201   -0.8150   -4.7280 H   0  0  0  0  0  0  0  0  0  0  0  0
    2.1557   -2.1356   -5.0012 H   0  0  0  0  0  0  0  0  0  0  0  0
    2.7657   -0.4723   -4.8187 H   0  0  0  0  0  0  0  0  0  0  0  0
    3.5435   -3.0168   -3.1535 H   0  0  0  0  0  0  0  0  0  0  0  0
    4.8751   -3.8085   -1.2169 H   0  0  0  0  0  0  0  0  0  0  0  0
    4.4509   -3.3295    0.4259 H   0  0  0  0  0  0  0  0  0  0  0  0
    3.4556   -4.5368   -0.4249 H   0  0  0  0  0  0  0  0  0  0  0  0
    2.5230   -1.8360    0.8548 H   0  0  0  0  0  0  0  0  0  0  0  0
  1  2  2  0
  2  3  1  0
  3  4  1  0
  4  5  2  0
  4  6  1  0
  6  7  1  0
  3  8  2  0
  8  9  1  0
  8 10  1  0
 10 11  2  3
 11 12  1  0
 12 13  2  0
 13 14  1  0
 14 15  2  0
 15 16  1  0
 15 17  1  0
 17 18  2  0
 10 19  1  0
 19 20  1  0
 20 21  2  0
 21 22  1  0
 22 23  1  0
 22 24  2  0
 24 25  1  0
 25 26  1  0
 25 27  2  0
 19  2  1  0
 27 20  1  0
 18 12  1  0
  1 28  1  0
  1 29  1  0
  7 30  1  0
  7 31  1  0
  7 32  1  0
  9 33  1  0
 11 34  1  0
 13 35  1  0
 14 36  1  0
 16 37  1  0
 17 38  1  0
 18 39  1  0
 21 40  1  0
 23 41  1  0
 23 42  1  0
 23 43  1  0
 24 44  1  0
 26 45  1  0
 26 46  1  0
 26 47  1  0
 27 48  1  0
M  END
$$$$
