
     RDKit          3D

 40 41  0  0  0  0  0  0  0  0999 V2000
   -0.4592    3.7262   -2.9720 O   0  0  0  0  0  0  0  0  0  0  0  0
   -0.8085    3.7942   -1.8058 C   0  0  0  0  0  0  0  0  0  0  0  0
   -0.6235    4.9224   -1.0976 O   0  0  0  0  0  0  0  0  0  0  0  0
   -1.4997    2.7122   -1.0282 C   0  0  0  0  0  0  0  0  0  0  0  0
   -0.7087    2.3387    0.2225 C   0  0  0  0  0  0  0  0  0  0  0  0
   -1.4890    1.3459    1.0125 N   0  0  0  0  0  0  0  0  0  0  0  0
   -0.9281    1.1669    2.3557 C   0  0  0  0  0  0  0  0  0  0  0  0
   -1.6353    0.0626    3.0567 C   0  0  0  0  0  0  0  0  0  0  0  0
   -2.8279   -0.0140    3.7463 C   0  0  0  0  0  0  0  0  0  0  0  0
   -2.9552   -1.3566    4.1760 C   0  0  0  0  0  0  0  0  0  0  0  0
   -1.8363   -2.0128    3.7199 C   0  0  0  0  0  0  0  0  0  0  0  0
   -1.0285   -1.1604    3.0382 O   0  0  0  0  0  0  0  0  0  0  0  0
    0.6566    1.7785   -0.2060 C   0  0  0  0  0  0  0  0  0  0  0  0
    1.6721    2.4547   -0.3073 O   0  0  0  0  0  0  0  0  0  0  0  0
    0.5729    0.4477   -0.4853 O   0  0  0  0  0  0  0  0  0  0  0  0
    1.7983   -0.1443   -0.9478 C   0  0  0  0  0  0  0  0  0  0  0  0
    1.5592   -1.6329   -1.1875 C   0  0  0  0  0  0  0  0  0  0  0  0
    2.8316   -2.4007   -1.5013 C   0  0  0  0  0  0  0  0  0  0  0  0
    2.2934   -3.5761   -2.2775 C   0  0  0  0  0  0  0  0  0  0  0  0
    1.1898   -2.9356   -3.0917 C   0  0  0  0  0  0  0  0  0  0  0  0
    0.6925   -1.8293   -2.3250 O   0  0  0  0  0  0  0  0  0  0  0  0
   -0.1602    5.5223   -1.7209 H   0  0  0  0  0  0  0  0  0  0  0  0
   -1.6183    1.8464   -1.6920 H   0  0  0  0  0  0  0  0  0  0  0  0
   -2.5053    3.0695   -0.7767 H   0  0  0  0  0  0  0  0  0  0  0  0
   -0.5317    3.2246    0.8444 H   0  0  0  0  0  0  0  0  0  0  0  0
   -1.4320    0.4431    0.5289 H   0  0  0  0  0  0  0  0  0  0  0  0
    0.1427    0.9356    2.3150 H   0  0  0  0  0  0  0  0  0  0  0  0
   -1.0457    2.0910    2.9335 H   0  0  0  0  0  0  0  0  0  0  0  0
   -3.5198    0.8009    3.9071 H   0  0  0  0  0  0  0  0  0  0  0  0
   -3.7645   -1.7942    4.7429 H   0  0  0  0  0  0  0  0  0  0  0  0
   -1.4855   -3.0328    3.7903 H   0  0  0  0  0  0  0  0  0  0  0  0
    2.5729   -0.0071   -0.1846 H   0  0  0  0  0  0  0  0  0  0  0  0
    2.0946    0.3482   -1.8813 H   0  0  0  0  0  0  0  0  0  0  0  0
    1.0433   -2.0749   -0.3259 H   0  0  0  0  0  0  0  0  0  0  0  0
    3.3850   -2.6901   -0.6037 H   0  0  0  0  0  0  0  0  0  0  0  0
    3.4983   -1.8105   -2.1418 H   0  0  0  0  0  0  0  0  0  0  0  0
    3.0435   -4.0771   -2.8949 H   0  0  0  0  0  0  0  0  0  0  0  0
    1.8689   -4.3146   -1.5871 H   0  0  0  0  0  0  0  0  0  0  0  0
    1.5743   -2.5385   -4.0371 H   0  0  0  0  0  0  0  0  0  0  0  0
    0.3732   -3.6292   -3.3109 H   0  0  0  0  0  0  0  0  0  0  0  0
  1  2  2  0
  2  3  1  0
  2  4  1  0
  4  5  1  0
  5  6  1  0
  6  7  1  0
  7  8  1  0
  8  9  2  0
  9 10  1  0
 10 11  2  0
 11 12  1  0
  5 13  1  0
 13 14  2  0
 13 15  1  0
 15 16  1  0
 16 17  1  0
 17 18  1  0
 18 19  1  0
 19 20  1  0
 20 21  1  0
 12  8  1  0
 21 17  1  0
  3 22  1  0
  4 23  1  0
  4 24  1  0
  5 25  1  0
  6 26  1  0
  7 27  1  0
  7 28  1  0
  9 29  1  0
 10 30  1  0
 11 31  1  0
 16 32  1  0
 16 33  1  0
 17 34  1  0
 18 35  1  0
 18 36  1  0
 19 37  1  0
 19 38  1  0
 20 39  1  0
 20 40  1  0
M  END
$$$$
