
     RDKit          3D

 69 73  0  0  0  0  0  0  0  0999 V2000
    0.1849   -6.9504    0.3027 C   0  0  0  0  0  0  0  0  0  0  0  0
   -0.3203   -5.8677    1.0733 O   0  0  0  0  0  0  0  0  0  0  0  0
   -0.7876   -4.7823    0.3837 C   0  0  0  0  0  0  0  0  0  0  0  0
   -0.7508   -4.6128   -1.0004 C   0  0  0  0  0  0  0  0  0  0  0  0
   -1.2602   -3.4467   -1.5771 C   0  0  0  0  0  0  0  0  0  0  0  0
   -1.8092   -2.4469   -0.7736 C   0  0  0  0  0  0  0  0  0  0  0  0
   -1.8545   -2.6021    0.6166 C   0  0  0  0  0  0  0  0  0  0  0  0
   -2.4178   -1.5429    1.4634 C   0  0  0  0  0  0  0  0  0  0  0  0
   -3.8237   -1.8924    2.3735 S   0  0  0  0  0  0  0  0  0  0  0  0
   -3.9040   -0.3087    3.0332 C   0  0  0  0  0  0  0  0  0  0  0  0
   -4.8719    0.1756    3.9376 C   0  0  0  0  0  0  0  0  0  0  0  0
   -4.7894    1.4994    4.3855 C   0  0  0  0  0  0  0  0  0  0  0  0
   -5.6797    2.0703    5.2639 O   0  0  0  0  0  0  0  0  0  0  0  0
   -6.7323    1.2567    5.7609 C   0  0  0  0  0  0  0  0  0  0  0  0
   -3.7516    2.3299    3.9377 C   0  0  0  0  0  0  0  0  0  0  0  0
   -3.7487    3.6122    4.4313 O   0  0  0  0  0  0  0  0  0  0  0  0
   -2.7154    4.4853    3.9987 C   0  0  0  0  0  0  0  0  0  0  0  0
   -2.7983    1.8306    3.0395 C   0  0  0  0  0  0  0  0  0  0  0  0
   -2.8652    0.4927    2.5654 C   0  0  0  0  0  0  0  0  0  0  0  0
   -2.0093   -0.2303    1.6473 C   0  0  0  0  0  0  0  0  0  0  0  0
   -0.8364    0.3133    0.9682 C   0  0  0  0  0  0  0  0  0  0  0  0
   -0.9876    1.3232    0.0134 C   0  0  0  0  0  0  0  0  0  0  0  0
    0.1336    1.8410   -0.6388 C   0  0  0  0  0  0  0  0  0  0  0  0
    1.4125    1.3576   -0.3506 C   0  0  0  0  0  0  0  0  0  0  0  0
    2.4178    1.9475   -1.0645 O   0  0  0  0  0  0  0  0  0  0  0  0
    3.7251    1.3841   -0.9378 C   0  0  0  0  0  0  0  0  0  0  0  0
    4.6978    2.1035   -1.8945 C   0  0  0  0  0  0  0  0  0  0  0  0
    4.6442    1.7772   -3.3330 N   0  0  0  0  0  0  0  0  0  0  0  0
    3.3515    2.1087   -3.9440 C   0  0  0  0  0  0  0  0  0  0  0  0
    3.4201    1.9505   -5.4646 C   0  0  0  0  0  0  0  0  0  0  0  0
    3.8656    0.5448   -5.8547 C   0  0  0  0  0  0  0  0  0  0  0  0
    5.1555    0.1712   -5.1318 C   0  0  0  0  0  0  0  0  0  0  0  0
    5.0338    0.3934   -3.6224 C   0  0  0  0  0  0  0  0  0  0  0  0
    1.5654    0.3578    0.6101 C   0  0  0  0  0  0  0  0  0  0  0  0
    0.4449   -0.1619    1.2684 C   0  0  0  0  0  0  0  0  0  0  0  0
   -1.3368   -3.7753    1.1840 C   0  0  0  0  0  0  0  0  0  0  0  0
    0.4866   -7.7418    0.9960 H   0  0  0  0  0  0  0  0  0  0  0  0
   -0.5875   -7.3616   -0.3561 H   0  0  0  0  0  0  0  0  0  0  0  0
    1.0712   -6.6496   -0.2655 H   0  0  0  0  0  0  0  0  0  0  0  0
   -0.3310   -5.3656   -1.6590 H   0  0  0  0  0  0  0  0  0  0  0  0
   -1.2289   -3.3159   -2.6559 H   0  0  0  0  0  0  0  0  0  0  0  0
   -2.2024   -1.5461   -1.2396 H   0  0  0  0  0  0  0  0  0  0  0  0
   -5.6585   -0.4940    4.2648 H   0  0  0  0  0  0  0  0  0  0  0  0
   -7.3919    0.9267    4.9517 H   0  0  0  0  0  0  0  0  0  0  0  0
   -6.3406    0.4049    6.3265 H   0  0  0  0  0  0  0  0  0  0  0  0
   -7.3287    1.8644    6.4481 H   0  0  0  0  0  0  0  0  0  0  0  0
   -2.8719    5.4544    4.4826 H   0  0  0  0  0  0  0  0  0  0  0  0
   -1.7316    4.1162    4.3062 H   0  0  0  0  0  0  0  0  0  0  0  0
   -2.7593    4.6441    2.9161 H   0  0  0  0  0  0  0  0  0  0  0  0
   -1.9823    2.4498    2.6842 H   0  0  0  0  0  0  0  0  0  0  0  0
   -1.9741    1.7077   -0.2345 H   0  0  0  0  0  0  0  0  0  0  0  0
    0.0094    2.6240   -1.3830 H   0  0  0  0  0  0  0  0  0  0  0  0
    4.0810    1.5479    0.0871 H   0  0  0  0  0  0  0  0  0  0  0  0
    3.7109    0.3079   -1.1410 H   0  0  0  0  0  0  0  0  0  0  0  0
    5.7206    1.9051   -1.5495 H   0  0  0  0  0  0  0  0  0  0  0  0
    4.5557    3.1870   -1.7904 H   0  0  0  0  0  0  0  0  0  0  0  0
    3.0833    3.1479   -3.7200 H   0  0  0  0  0  0  0  0  0  0  0  0
    2.5513    1.4668   -3.5571 H   0  0  0  0  0  0  0  0  0  0  0  0
    4.1211    2.6853   -5.8802 H   0  0  0  0  0  0  0  0  0  0  0  0
    2.4384    2.1619   -5.9033 H   0  0  0  0  0  0  0  0  0  0  0  0
    4.0105    0.4833   -6.9388 H   0  0  0  0  0  0  0  0  0  0  0  0
    3.0792   -0.1735   -5.5927 H   0  0  0  0  0  0  0  0  0  0  0  0
    5.9826    0.7750   -5.5263 H   0  0  0  0  0  0  0  0  0  0  0  0
    5.4015   -0.8775   -5.3332 H   0  0  0  0  0  0  0  0  0  0  0  0
    4.3100   -0.3201   -3.2105 H   0  0  0  0  0  0  0  0  0  0  0  0
    6.0067    0.1738   -3.1665 H   0  0  0  0  0  0  0  0  0  0  0  0
    2.5393   -0.0393    0.8754 H   0  0  0  0  0  0  0  0  0  0  0  0
    0.5813   -0.9418    2.0146 H   0  0  0  0  0  0  0  0  0  0  0  0
   -1.3541   -3.9131    2.2631 H   0  0  0  0  0  0  0  0  0  0  0  0
  1  2  1  0
  2  3  1  0
  3  4  2  0
  4  5  1  0
  5  6  2  0
  6  7  1  0
  7  8  1  0
  8  9  1  0
  9 10  1  0
 10 11  2  0
 11 12  1  0
 12 13  1  0
 13 14  1  0
 12 15  2  0
 15 16  1  0
 16 17  1  0
 15 18  1  0
 18 19  2  0
 19 20  1  0
 20 21  1  0
 21 22  2  0
 22 23  1  0
 23 24  2  0
 24 25  1  0
 25 26  1  0
 26 27  1  0
 27 28  1  0
 28 29  1  0
 29 30  1  0
 30 31  1  0
 31 32  1  0
 32 33  1  0
 24 34  1  0
 34 35  2  0
  7 36  2  0
 36  3  1  0
 20  8  2  0
 35 21  1  0
 19 10  1  0
 33 28  1  0
  1 37  1  0
  1 38  1  0
  1 39  1  0
  4 40  1  0
  5 41  1  0
  6 42  1  0
 11 43  1  0
 14 44  1  0
 14 45  1  0
 14 46  1  0
 17 47  1  0
 17 48  1  0
 17 49  1  0
 18 50  1  0
 22 51  1  0
 23 52  1  0
 26 53  1  0
 26 54  1  0
 27 55  1  0
 27 56  1  0
 29 57  1  0
 29 58  1  0
 30 59  1  0
 30 60  1  0
 31 61  1  0
 31 62  1  0
 32 63  1  0
 32 64  1  0
 33 65  1  0
 33 66  1  0
 34 67  1  0
 35 68  1  0
 36 69  1  0
M  END
$$$$
