
     RDKit          3D

 66 70  0  0  0  0  0  0  0  0999 V2000
    2.2437    2.6644    1.4777 C   0  0  0  0  0  0  0  0  0  0  0  0
    2.8756    2.6019    0.1318 C   0  0  0  0  0  0  0  0  0  0  0  0
    2.3388    2.9532   -1.0970 C   0  0  0  0  0  0  0  0  0  0  0  0
    0.9590    3.4321   -1.4589 C   0  0  0  0  0  0  0  0  0  0  0  0
    0.0680    2.2973   -1.9846 C   0  0  0  0  0  0  0  0  0  0  0  0
   -1.1333    2.1842   -1.2017 O   0  0  0  0  0  0  0  0  0  0  0  0
   -1.0362    1.4640   -0.0490 C   0  0  0  0  0  0  0  0  0  0  0  0
    0.0005    0.9650    0.3768 O   0  0  0  0  0  0  0  0  0  0  0  0
   -2.3681    1.4097    0.6605 C   0  0  0  0  0  0  0  0  0  0  0  0
   -3.3270    0.2961    0.1881 C   0  0  0  0  0  0  0  0  0  0  0  0
   -4.6543    0.4313    0.9832 C   0  0  0  0  0  0  0  0  0  0  0  0
   -5.6596   -0.6523    0.5689 C   0  0  0  0  0  0  0  0  0  0  0  0
   -5.9598   -0.5143   -0.9302 C   0  0  0  0  0  0  0  0  0  0  0  0
   -4.6661   -0.6798   -1.7411 C   0  0  0  0  0  0  0  0  0  0  0  0
   -4.0617   -2.0663   -1.4594 C   0  0  0  0  0  0  0  0  0  0  0  0
   -3.7455   -2.2216    0.0473 C   0  0  0  0  0  0  0  0  0  0  0  0
   -3.1499   -3.6050    0.3260 C   0  0  0  0  0  0  0  0  0  0  0  0
   -5.0571   -2.0396    0.8438 C   0  0  0  0  0  0  0  0  0  0  0  0
   -2.7446   -1.1131    0.4646 C   0  0  0  0  0  0  0  0  0  0  0  0
   -3.6583    0.4050   -1.3225 C   0  0  0  0  0  0  0  0  0  0  0  0
    3.5270    2.7842   -2.3303 S   0  0  0  0  0  0  0  0  0  0  0  0
    4.6867    2.2120   -1.2154 C   0  0  0  0  0  0  0  0  0  0  0  0
    4.1853    2.1375    0.0074 N   0  0  0  0  0  4  0  0  0  0  0  0
    4.9990    1.6190    1.1190 C   0  0  0  0  0  0  0  0  0  0  0  0
    5.4419    0.2001    0.8258 C   0  0  0  0  0  0  0  0  0  0  0  0
    4.4973   -0.8388    0.7442 C   0  0  0  0  0  0  0  0  0  0  0  0
    4.9061   -2.1514    0.4762 C   0  0  0  0  0  0  0  0  0  0  0  0
    6.2672   -2.4252    0.2717 C   0  0  0  0  0  0  0  0  0  0  0  0
    6.7056   -3.8078    0.0401 N   0  0  0  0  0  4  0  0  0  0  0  0
    5.8856   -4.7147    0.2513 O   0  0  0  0  0  0  0  0  0  0  0  0
    7.8727   -3.9751   -0.3385 O   0  0  0  0  0  1  0  0  0  0  0  0
    7.2173   -1.3974    0.3381 C   0  0  0  0  0  0  0  0  0  0  0  0
    6.8030   -0.0918    0.6142 C   0  0  0  0  0  0  0  0  0  0  0  0
    2.8572    3.2588    2.1590 H   0  0  0  0  0  0  0  0  0  0  0  0
    2.1316    1.6598    1.9002 H   0  0  0  0  0  0  0  0  0  0  0  0
    1.2565    3.1308    1.4420 H   0  0  0  0  0  0  0  0  0  0  0  0
    1.0410    4.2091   -2.2340 H   0  0  0  0  0  0  0  0  0  0  0  0
    0.4969    3.9246   -0.5950 H   0  0  0  0  0  0  0  0  0  0  0  0
   -0.2609    2.5366   -3.0032 H   0  0  0  0  0  0  0  0  0  0  0  0
    0.5743    1.3237   -2.0473 H   0  0  0  0  0  0  0  0  0  0  0  0
   -2.1535    1.2972    1.7344 H   0  0  0  0  0  0  0  0  0  0  0  0
   -2.8411    2.3981    0.5619 H   0  0  0  0  0  0  0  0  0  0  0  0
   -4.4618    0.3549    2.0602 H   0  0  0  0  0  0  0  0  0  0  0  0
   -5.0959    1.4228    0.8134 H   0  0  0  0  0  0  0  0  0  0  0  0
   -6.5859   -0.5346    1.1424 H   0  0  0  0  0  0  0  0  0  0  0  0
   -6.4078    0.4655   -1.1330 H   0  0  0  0  0  0  0  0  0  0  0  0
   -6.6928   -1.2706   -1.2372 H   0  0  0  0  0  0  0  0  0  0  0  0
   -4.8856   -0.5846   -2.8112 H   0  0  0  0  0  0  0  0  0  0  0  0
   -3.1495   -2.1937   -2.0546 H   0  0  0  0  0  0  0  0  0  0  0  0
   -4.7621   -2.8489   -1.7849 H   0  0  0  0  0  0  0  0  0  0  0  0
   -2.8861   -3.7124    1.3832 H   0  0  0  0  0  0  0  0  0  0  0  0
   -2.2410   -3.7681   -0.2603 H   0  0  0  0  0  0  0  0  0  0  0  0
   -3.8571   -4.4014    0.0764 H   0  0  0  0  0  0  0  0  0  0  0  0
   -4.8759   -2.1629    1.9219 H   0  0  0  0  0  0  0  0  0  0  0  0
   -5.7826   -2.8157    0.5559 H   0  0  0  0  0  0  0  0  0  0  0  0
   -2.5001   -1.2115    1.5330 H   0  0  0  0  0  0  0  0  0  0  0  0
   -1.8028   -1.2455   -0.0849 H   0  0  0  0  0  0  0  0  0  0  0  0
   -4.0693    1.3981   -1.5484 H   0  0  0  0  0  0  0  0  0  0  0  0
   -2.7505    0.2906   -1.9272 H   0  0  0  0  0  0  0  0  0  0  0  0
    5.6940    1.9297   -1.4987 H   0  0  0  0  0  0  0  0  0  0  0  0
    4.4513    1.6173    2.0635 H   0  0  0  0  0  0  0  0  0  0  0  0
    5.8581    2.2848    1.2532 H   0  0  0  0  0  0  0  0  0  0  0  0
    3.4351   -0.6487    0.9141 H   0  0  0  0  0  0  0  0  0  0  0  0
    4.1614   -2.9495    0.4360 H   0  0  0  0  0  0  0  0  0  0  0  0
    8.2803   -1.6005    0.1957 H   0  0  0  0  0  0  0  0  0  0  0  0
    7.5661    0.6838    0.6766 H   0  0  0  0  0  0  0  0  0  0  0  0
  1  2  1  0
  2  3  2  0
  3  4  1  0
  4  5  1  0
  5  6  1  0
  6  7  1  0
  7  8  2  0
  7  9  1  0
  9 10  1  0
 10 11  1  0
 11 12  1  0
 12 13  1  0
 13 14  1  0
 14 15  1  0
 15 16  1  0
 16 17  1  0
 16 18  1  0
 16 19  1  0
 14 20  1  0
  3 21  1  0
 21 22  1  0
 22 23  2  0
 23 24  1  0
 24 25  1  0
 25 26  2  0
 26 27  1  0
 27 28  2  0
 28 29  1  0
 29 30  2  0
 29 31  1  0
 28 32  1  0
 32 33  2  0
 23  2  1  0
 33 25  1  0
 19 10  1  0
 20 10  1  0
 18 12  1  0
  1 34  1  0
  1 35  1  0
  1 36  1  0
  4 37  1  0
  4 38  1  0
  5 39  1  0
  5 40  1  0
  9 41  1  0
  9 42  1  0
 11 43  1  0
 11 44  1  0
 12 45  1  0
 13 46  1  0
 13 47  1  0
 14 48  1  0
 15 49  1  0
 15 50  1  0
 17 51  1  0
 17 52  1  0
 17 53  1  0
 18 54  1  0
 18 55  1  0
 19 56  1  0
 19 57  1  0
 20 58  1  0
 20 59  1  0
 22 60  1  0
 24 61  1  0
 24 62  1  0
 26 63  1  0
 27 64  1  0
 32 65  1  0
 33 66  1  0
M  CHG  3  23   1  29   1  31  -1
M  END
$$$$
