
     RDKit          3D

 44 46  0  0  0  0  0  0  0  0999 V2000
    1.3130    2.1755    2.4471 C   0  0  0  0  0  0  0  0  0  0  0  0
    1.7388    1.5731    1.2330 O   0  0  0  0  0  0  0  0  0  0  0  0
    0.7729    1.0601    0.4027 C   0  0  0  0  0  0  0  0  0  0  0  0
   -0.5968    1.0425    0.6937 C   0  0  0  0  0  0  0  0  0  0  0  0
   -1.5098    0.4852   -0.2114 C   0  0  0  0  0  0  0  0  0  0  0  0
   -2.9423    0.4973    0.1156 C   0  0  0  0  0  0  0  0  0  0  0  0
   -3.7199   -0.5886    0.3260 C   0  0  0  0  0  0  0  0  0  0  0  0
   -3.1710   -1.9073    0.2467 C   0  0  0  0  0  0  0  0  0  0  0  0
   -2.7594   -2.9919    0.1807 N   0  0  0  0  0  0  0  0  0  0  0  0
   -5.1643   -0.4226    0.6567 C   0  0  0  0  0  0  0  0  0  0  0  0
   -5.9962   -1.5077    0.9466 C   0  0  0  0  0  0  0  0  0  0  0  0
   -7.3408   -1.2818    1.2437 C   0  0  0  0  0  0  0  0  0  0  0  0
   -7.8312    0.0166    1.2459 C   0  0  0  0  0  0  0  0  0  0  0  0
   -6.9521    1.0411    0.9510 C   0  0  0  0  0  0  0  0  0  0  0  0
   -5.6451    0.8501    0.6610 N   0  0  0  0  0  0  0  0  0  0  0  0
   -1.0486   -0.0375   -1.4228 C   0  0  0  0  0  0  0  0  0  0  0  0
    0.3159   -0.0262   -1.7212 C   0  0  0  0  0  0  0  0  0  0  0  0
    1.2317    0.5092   -0.8101 C   0  0  0  0  0  0  0  0  0  0  0  0
    2.5840    0.5762   -1.0382 O   0  0  0  0  0  0  0  0  0  0  0  0
    3.1297   -0.3936   -1.9331 C   0  0  0  0  0  0  0  0  0  0  0  0
    4.6356   -0.4339   -1.7830 C   0  0  0  0  0  0  0  0  0  0  0  0
    5.2370   -0.3361   -0.5170 C   0  0  0  0  0  0  0  0  0  0  0  0
    6.6251   -0.4116   -0.3810 C   0  0  0  0  0  0  0  0  0  0  0  0
    7.4215   -0.5948   -1.5106 C   0  0  0  0  0  0  0  0  0  0  0  0
    9.1324   -0.6869   -1.3470 Cl  0  0  0  0  0  0  0  0  0  0  0  0
    6.8411   -0.7094   -2.7720 C   0  0  0  0  0  0  0  0  0  0  0  0
    5.4520   -0.6357   -2.9073 C   0  0  0  0  0  0  0  0  0  0  0  0
    0.8312    1.4428    3.1028 H   0  0  0  0  0  0  0  0  0  0  0  0
    0.6559    3.0304    2.2561 H   0  0  0  0  0  0  0  0  0  0  0  0
    2.2017    2.5496    2.9650 H   0  0  0  0  0  0  0  0  0  0  0  0
   -0.9772    1.4541    1.6239 H   0  0  0  0  0  0  0  0  0  0  0  0
   -3.3594    1.5007    0.2008 H   0  0  0  0  0  0  0  0  0  0  0  0
   -5.6295   -2.5309    0.9505 H   0  0  0  0  0  0  0  0  0  0  0  0
   -7.9978   -2.1175    1.4715 H   0  0  0  0  0  0  0  0  0  0  0  0
   -8.8714    0.2245    1.4717 H   0  0  0  0  0  0  0  0  0  0  0  0
   -7.2827    2.0768    0.9383 H   0  0  0  0  0  0  0  0  0  0  0  0
   -1.7441   -0.4506   -2.1510 H   0  0  0  0  0  0  0  0  0  0  0  0
    0.6317   -0.4260   -2.6796 H   0  0  0  0  0  0  0  0  0  0  0  0
    2.8767   -0.1078   -2.9615 H   0  0  0  0  0  0  0  0  0  0  0  0
    2.7416   -1.3973   -1.7155 H   0  0  0  0  0  0  0  0  0  0  0  0
    4.6212   -0.1930    0.3708 H   0  0  0  0  0  0  0  0  0  0  0  0
    7.0741   -0.3279    0.6048 H   0  0  0  0  0  0  0  0  0  0  0  0
    7.4622   -0.8566   -3.6524 H   0  0  0  0  0  0  0  0  0  0  0  0
    5.0127   -0.7325   -3.8983 H   0  0  0  0  0  0  0  0  0  0  0  0
  1  2  1  0
  2  3  1  0
  3  4  2  0
  4  5  1  0
  5  6  1  0
  6  7  2  3
  7  8  1  0
  8  9  3  0
  7 10  1  0
 10 11  2  0
 11 12  1  0
 12 13  2  0
 13 14  1  0
 14 15  2  0
  5 16  2  0
 16 17  1  0
 17 18  2  0
 18 19  1  0
 19 20  1  0
 20 21  1  0
 21 22  2  0
 22 23  1  0
 23 24  2  0
 24 25  1  0
 24 26  1  0
 26 27  2  0
 18  3  1  0
 27 21  1  0
 15 10  1  0
  1 28  1  0
  1 29  1  0
  1 30  1  0
  4 31  1  0
  6 32  1  0
 11 33  1  0
 12 34  1  0
 13 35  1  0
 14 36  1  0
 16 37  1  0
 17 38  1  0
 20 39  1  0
 20 40  1  0
 22 41  1  0
 23 42  1  0
 26 43  1  0
 27 44  1  0
M  END
$$$$
