
     RDKit          3D

 50 53  0  0  0  0  0  0  0  0999 V2000
   -4.0226    0.3021   -1.6138 O   0  0  0  0  0  0  0  0  0  0  0  0
   -2.9573   -0.0734   -1.1192 C   0  0  0  0  0  0  0  0  0  0  0  0
   -2.8994   -1.3183   -0.2211 C   0  0  0  0  0  0  0  0  0  0  0  0
   -4.1508   -2.2044   -0.3685 C   0  0  0  0  0  0  0  0  0  0  0  0
   -5.3829   -1.6814    0.3697 C   0  0  0  0  0  0  0  0  0  0  0  0
   -5.0781   -1.3477    1.8237 C   0  0  0  0  0  0  0  0  0  0  0  0
   -3.9032   -0.3856    1.9354 C   0  0  0  0  0  0  0  0  0  0  0  0
   -2.6570   -0.9407    1.2487 C   0  0  0  0  0  0  0  0  0  0  0  0
   -1.7830    0.6457   -1.3363 N   0  0  0  0  0  0  0  0  0  0  0  0
   -1.8896    1.8234   -2.1987 C   0  0  0  0  0  0  0  0  0  0  0  0
   -0.5628    2.5534   -2.3990 C   0  0  0  0  0  0  0  0  0  0  0  0
    0.1929    2.6758   -1.0796 C   0  0  0  0  0  0  0  0  0  0  0  0
    0.4331    1.3026   -0.4218 C   0  0  0  0  0  0  0  0  0  0  0  0
    1.8699    0.9142   -0.4573 C   0  0  0  0  0  0  0  0  0  0  0  0
    2.6710    0.6001    0.5334 N   0  0  0  0  0  0  0  0  0  0  0  0
    3.8585    0.3260   -0.1145 C   0  0  0  0  0  0  0  0  0  0  0  0
    5.0648   -0.0722    0.6049 C   0  0  0  0  0  0  0  0  0  0  0  0
    5.0484   -0.1793    2.0061 C   0  0  0  0  0  0  0  0  0  0  0  0
    6.1978   -0.5600    2.7040 C   0  0  0  0  0  0  0  0  0  0  0  0
    7.3656   -0.8342    2.0034 C   0  0  0  0  0  0  0  0  0  0  0  0
    8.4667   -1.1991    2.6725 F   0  0  0  0  0  0  0  0  0  0  0  0
    7.4071   -0.7352    0.6182 C   0  0  0  0  0  0  0  0  0  0  0  0
    6.2584   -0.3545   -0.0814 C   0  0  0  0  0  0  0  0  0  0  0  0
    3.7869    0.4560   -1.4501 N   0  0  0  0  0  0  0  0  0  0  0  0
    2.4716    0.8471   -1.6786 O   0  0  0  0  0  0  0  0  0  0  0  0
   -0.4253    0.1841   -1.0370 C   0  0  0  0  0  0  0  0  0  0  0  0
   -2.0627   -1.9276   -0.5833 H   0  0  0  0  0  0  0  0  0  0  0  0
   -4.3966   -2.3443   -1.4282 H   0  0  0  0  0  0  0  0  0  0  0  0
   -3.9137   -3.2008    0.0278 H   0  0  0  0  0  0  0  0  0  0  0  0
   -6.1789   -2.4338    0.3263 H   0  0  0  0  0  0  0  0  0  0  0  0
   -5.7730   -0.7893   -0.1327 H   0  0  0  0  0  0  0  0  0  0  0  0
   -4.8510   -2.2702    2.3721 H   0  0  0  0  0  0  0  0  0  0  0  0
   -5.9638   -0.9064    2.2944 H   0  0  0  0  0  0  0  0  0  0  0  0
   -3.6838   -0.1985    2.9928 H   0  0  0  0  0  0  0  0  0  0  0  0
   -4.1724    0.5804    1.4912 H   0  0  0  0  0  0  0  0  0  0  0  0
   -1.8537   -0.2038    1.3479 H   0  0  0  0  0  0  0  0  0  0  0  0
   -2.3265   -1.8364    1.7903 H   0  0  0  0  0  0  0  0  0  0  0  0
   -2.6242    2.4996   -1.7441 H   0  0  0  0  0  0  0  0  0  0  0  0
   -2.2909    1.5109   -3.1701 H   0  0  0  0  0  0  0  0  0  0  0  0
   -0.7478    3.5453   -2.8261 H   0  0  0  0  0  0  0  0  0  0  0  0
    0.0557    2.0087   -3.1231 H   0  0  0  0  0  0  0  0  0  0  0  0
   -0.4099    3.2894   -0.3966 H   0  0  0  0  0  0  0  0  0  0  0  0
    1.1288    3.2260   -1.2346 H   0  0  0  0  0  0  0  0  0  0  0  0
    0.1505    1.4032    0.6353 H   0  0  0  0  0  0  0  0  0  0  0  0
    4.1381    0.0343    2.5637 H   0  0  0  0  0  0  0  0  0  0  0  0
    6.1873   -0.6431    3.7862 H   0  0  0  0  0  0  0  0  0  0  0  0
    8.3303   -0.9537    0.0906 H   0  0  0  0  0  0  0  0  0  0  0  0
    6.3044   -0.2803   -1.1665 H   0  0  0  0  0  0  0  0  0  0  0  0
   -0.0052   -0.1740   -1.9864 H   0  0  0  0  0  0  0  0  0  0  0  0
   -0.4214   -0.6802   -0.3697 H   0  0  0  0  0  0  0  0  0  0  0  0
  1  2  2  0
  2  3  1  0
  3  4  1  0
  4  5  1  0
  5  6  1  0
  6  7  1  0
  7  8  1  0
  2  9  1  0
  9 10  1  0
 10 11  1  0
 11 12  1  0
 12 13  1  0
 13 14  1  0
 14 15  2  0
 15 16  1  0
 16 17  1  0
 17 18  2  0
 18 19  1  0
 19 20  2  0
 20 21  1  0
 20 22  1  0
 22 23  2  0
 16 24  2  0
 24 25  1  0
 13 26  1  0
  8  3  1  0
 26  9  1  0
 25 14  1  0
 23 17  1  0
  3 27  1  0
  4 28  1  0
  4 29  1  0
  5 30  1  0
  5 31  1  0
  6 32  1  0
  6 33  1  0
  7 34  1  0
  7 35  1  0
  8 36  1  0
  8 37  1  0
 10 38  1  0
 10 39  1  0
 11 40  1  0
 11 41  1  0
 12 42  1  0
 12 43  1  0
 13 44  1  0
 18 45  1  0
 19 46  1  0
 22 47  1  0
 23 48  1  0
 26 49  1  0
 26 50  1  0
M  END
$$$$
