
     RDKit          3D

 46 49  0  0  0  0  0  0  0  0999 V2000
    5.8651   -1.9953    0.2123 C   0  0  0  0  0  0  0  0  0  0  0  0
    5.2660   -0.6578   -0.1014 C   0  0  0  0  0  0  0  0  0  0  0  0
    3.7907   -0.6287   -0.3445 C   0  0  0  0  0  0  0  0  0  0  0  0
    3.0614   -1.6987   -0.3354 N   0  0  0  0  0  0  0  0  0  0  0  0
    1.7088   -1.5742   -0.5273 N   0  0  0  0  0  0  0  0  0  0  0  0
    0.8975   -0.5125   -0.1425 C   0  0  0  0  0  0  0  0  0  0  0  0
    1.2766    0.5683    0.3003 O   0  0  0  0  0  0  0  0  0  0  0  0
   -0.5327   -0.8261   -0.3070 C   0  0  0  0  0  0  0  0  0  0  0  0
   -1.6309    0.0292   -0.0352 C   0  0  0  0  0  0  0  0  0  0  0  0
   -2.7677   -0.6918   -0.3427 C   0  0  0  0  0  0  0  0  0  0  0  0
   -4.1859   -0.3489   -0.2599 C   0  0  0  0  0  0  0  0  0  0  0  0
   -5.1134   -0.8753   -1.1660 C   0  0  0  0  0  0  0  0  0  0  0  0
   -6.4683   -0.5405   -1.0749 C   0  0  0  0  0  0  0  0  0  0  0  0
   -6.9272    0.3299   -0.0761 C   0  0  0  0  0  0  0  0  0  0  0  0
   -8.2845    0.6748    0.0290 C   0  0  0  0  0  0  0  0  0  0  0  0
   -8.7238    1.5437    1.0289 C   0  0  0  0  0  0  0  0  0  0  0  0
   -7.8127    2.0784    1.9347 C   0  0  0  0  0  0  0  0  0  0  0  0
   -6.4603    1.7456    1.8424 C   0  0  0  0  0  0  0  0  0  0  0  0
   -6.0017    0.8727    0.8420 C   0  0  0  0  0  0  0  0  0  0  0  0
   -4.6424    0.5274    0.7355 C   0  0  0  0  0  0  0  0  0  0  0  0
   -2.2991   -1.9147   -0.7486 N   0  0  0  0  0  0  0  0  0  0  0  0
   -0.9587   -2.0268   -0.7487 N   0  0  0  0  0  0  0  0  0  0  0  0
    5.8773    0.5390   -0.1680 C   0  0  0  0  0  0  0  0  0  0  0  0
    7.2791    0.7404   -0.0192 C   0  0  0  0  0  0  0  0  0  0  0  0
    7.9475    1.9344    0.2371 C   0  0  0  0  0  0  0  0  0  0  0  0
    9.3354    1.6630    0.2785 C   0  0  0  0  0  0  0  0  0  0  0  0
    9.4580    0.3202    0.0353 C   0  0  0  0  0  0  0  0  0  0  0  0
    8.2389   -0.2388   -0.1504 O   0  0  0  0  0  0  0  0  0  0  0  0
    6.8071   -1.9219    0.7608 H   0  0  0  0  0  0  0  0  0  0  0  0
    5.2001   -2.5838    0.8539 H   0  0  0  0  0  0  0  0  0  0  0  0
    6.0394   -2.5585   -0.7098 H   0  0  0  0  0  0  0  0  0  0  0  0
    3.3724    0.3661   -0.5710 H   0  0  0  0  0  0  0  0  0  0  0  0
    1.2106   -2.4471   -0.7033 H   0  0  0  0  0  0  0  0  0  0  0  0
   -1.5793    1.0469    0.3283 H   0  0  0  0  0  0  0  0  0  0  0  0
   -4.8001   -1.5348   -1.9712 H   0  0  0  0  0  0  0  0  0  0  0  0
   -7.1643   -0.9614   -1.7974 H   0  0  0  0  0  0  0  0  0  0  0  0
   -9.0119    0.2679   -0.6699 H   0  0  0  0  0  0  0  0  0  0  0  0
   -9.7771    1.8027    1.0994 H   0  0  0  0  0  0  0  0  0  0  0  0
   -8.1531    2.7555    2.7140 H   0  0  0  0  0  0  0  0  0  0  0  0
   -5.7641    2.1746    2.5598 H   0  0  0  0  0  0  0  0  0  0  0  0
   -3.9342    0.9427    1.4503 H   0  0  0  0  0  0  0  0  0  0  0  0
   -2.8470   -2.7219   -1.0259 H   0  0  0  0  0  0  0  0  0  0  0  0
    5.2946    1.4375   -0.3582 H   0  0  0  0  0  0  0  0  0  0  0  0
    7.4739    2.8959    0.3822 H   0  0  0  0  0  0  0  0  0  0  0  0
   10.1420    2.3589    0.4594 H   0  0  0  0  0  0  0  0  0  0  0  0
   10.2980   -0.3561   -0.0380 H   0  0  0  0  0  0  0  0  0  0  0  0
  1  2  1  0
  2  3  1  0
  3  4  2  3
  4  5  1  0
  5  6  1  0
  6  7  2  0
  6  8  1  0
  8  9  1  0
  9 10  2  0
 10 11  1  0
 11 12  2  0
 12 13  1  0
 13 14  2  0
 14 15  1  0
 15 16  2  0
 16 17  1  0
 17 18  2  0
 18 19  1  0
 19 20  2  0
 10 21  1  0
 21 22  1  0
  2 23  2  3
 23 24  1  0
 24 25  2  0
 25 26  1  0
 26 27  2  0
 27 28  1  0
 22  8  2  0
 28 24  1  0
 20 11  1  0
 19 14  1  0
  1 29  1  0
  1 30  1  0
  1 31  1  0
  3 32  1  0
  5 33  1  0
  9 34  1  0
 12 35  1  0
 13 36  1  0
 15 37  1  0
 16 38  1  0
 17 39  1  0
 18 40  1  0
 20 41  1  0
 21 42  1  0
 23 43  1  0
 25 44  1  0
 26 45  1  0
 27 46  1  0
M  END
$$$$
