
     RDKit          3D

 53 55  0  0  0  0  0  0  0  0999 V2000
   -2.0964   -1.2291   -0.8888 O   0  0  0  0  0  0  0  0  0  0  0  0
   -1.4637   -0.2241   -0.5850 C   0  0  0  0  0  0  0  0  0  0  0  0
   -2.0116    0.8146    0.1308 N   0  0  0  0  0  0  0  0  0  0  0  0
   -3.3815    0.7425    0.6619 C   0  0  0  0  0  0  0  0  0  0  0  0
   -4.4230    0.9786   -0.4455 C   0  0  0  0  0  0  0  0  0  0  0  0
   -5.7040    0.2111   -0.2113 C   0  0  0  0  0  0  0  0  0  0  0  0
   -6.8219    0.8308    0.3611 C   0  0  0  0  0  0  0  0  0  0  0  0
   -7.9933    0.1043    0.5861 C   0  0  0  0  0  0  0  0  0  0  0  0
   -8.0564   -1.2457    0.2431 C   0  0  0  0  0  0  0  0  0  0  0  0
   -6.9484   -1.8726   -0.3248 C   0  0  0  0  0  0  0  0  0  0  0  0
   -5.7764   -1.1488   -0.5496 C   0  0  0  0  0  0  0  0  0  0  0  0
   -3.5439    1.7967    1.7654 C   0  0  0  0  0  0  0  0  0  0  0  0
   -4.5454    2.0399    2.4189 O   0  0  0  0  0  0  0  0  0  0  0  0
   -2.4128    2.5116    1.9974 O   0  0  0  0  0  0  0  0  0  0  0  0
   -0.0258   -0.0997   -0.9588 C   0  0  0  0  0  0  0  0  0  0  0  0
    0.6805   -1.2723   -1.2678 C   0  0  0  0  0  0  0  0  0  0  0  0
    2.0276   -1.2123   -1.6319 C   0  0  0  0  0  0  0  0  0  0  0  0
    2.6748    0.0261   -1.6749 C   0  0  0  0  0  0  0  0  0  0  0  0
    4.3836    0.1064   -2.1826 S   0  0  0  0  0  6  0  0  0  0  0  0
    4.6467    1.4681   -2.6011 O   0  0  0  0  0  0  0  0  0  0  0  0
    4.6162   -1.0108   -3.0734 O   0  0  0  0  0  0  0  0  0  0  0  0
    5.2243   -0.1706   -0.7363 N   0  0  0  0  0  0  0  0  0  0  0  0
    5.2099   -1.5355   -0.1747 C   0  0  0  0  0  0  0  0  0  0  0  0
    6.3712   -1.6891    0.8036 C   0  0  0  0  0  0  0  0  0  0  0  0
    6.3622   -0.6283    1.9083 C   0  0  0  0  0  0  0  0  0  0  0  0
    5.3037    0.4480    1.6809 C   0  0  0  0  0  0  0  0  0  0  0  0
    5.3043    0.9438    0.2369 C   0  0  0  0  0  0  0  0  0  0  0  0
    1.9727    1.2051   -1.4038 C   0  0  0  0  0  0  0  0  0  0  0  0
    0.6225    1.1413   -1.0440 C   0  0  0  0  0  0  0  0  0  0  0  0
   -1.4160    1.5131    0.5633 H   0  0  0  0  0  0  0  0  0  0  0  0
   -3.4857   -0.2431    1.1325 H   0  0  0  0  0  0  0  0  0  0  0  0
   -4.0325    0.6754   -1.4264 H   0  0  0  0  0  0  0  0  0  0  0  0
   -4.6462    2.0502   -0.5480 H   0  0  0  0  0  0  0  0  0  0  0  0
   -6.7877    1.8811    0.6452 H   0  0  0  0  0  0  0  0  0  0  0  0
   -8.8549    0.5933    1.0345 H   0  0  0  0  0  0  0  0  0  0  0  0
   -8.9672   -1.8104    0.4215 H   0  0  0  0  0  0  0  0  0  0  0  0
   -6.9936   -2.9260   -0.5905 H   0  0  0  0  0  0  0  0  0  0  0  0
   -4.9152   -1.6522   -0.9889 H   0  0  0  0  0  0  0  0  0  0  0  0
   -2.6838    3.1223    2.7173 H   0  0  0  0  0  0  0  0  0  0  0  0
    0.1769   -2.2376   -1.2354 H   0  0  0  0  0  0  0  0  0  0  0  0
    2.5562   -2.1280   -1.8896 H   0  0  0  0  0  0  0  0  0  0  0  0
    5.3320   -2.2784   -0.9701 H   0  0  0  0  0  0  0  0  0  0  0  0
    4.2547   -1.7310    0.3247 H   0  0  0  0  0  0  0  0  0  0  0  0
    6.3533   -2.6915    1.2480 H   0  0  0  0  0  0  0  0  0  0  0  0
    7.3192   -1.6166    0.2517 H   0  0  0  0  0  0  0  0  0  0  0  0
    6.1976   -1.1026    2.8861 H   0  0  0  0  0  0  0  0  0  0  0  0
    7.3568   -0.1610    1.9598 H   0  0  0  0  0  0  0  0  0  0  0  0
    5.4747    1.2867    2.3660 H   0  0  0  0  0  0  0  0  0  0  0  0
    4.3133    0.0434    1.9276 H   0  0  0  0  0  0  0  0  0  0  0  0
    4.4718    1.6436    0.1103 H   0  0  0  0  0  0  0  0  0  0  0  0
    6.2312    1.4935    0.0364 H   0  0  0  0  0  0  0  0  0  0  0  0
    2.4614    2.1744   -1.4885 H   0  0  0  0  0  0  0  0  0  0  0  0
    0.0882    2.0714   -0.8697 H   0  0  0  0  0  0  0  0  0  0  0  0
  1  2  2  0
  2  3  1  0
  3  4  1  0
  4  5  1  0
  5  6  1  0
  6  7  2  0
  7  8  1  0
  8  9  2  0
  9 10  1  0
 10 11  2  0
  4 12  1  0
 12 13  2  0
 12 14  1  0
  2 15  1  0
 15 16  2  0
 16 17  1  0
 17 18  2  0
 18 19  1  0
 19 20  2  0
 19 21  2  0
 19 22  1  0
 22 23  1  0
 23 24  1  0
 24 25  1  0
 25 26  1  0
 26 27  1  0
 18 28  1  0
 28 29  2  0
 11  6  1  0
 29 15  1  0
 27 22  1  0
  3 30  1  0
  4 31  1  0
  5 32  1  0
  5 33  1  0
  7 34  1  0
  8 35  1  0
  9 36  1  0
 10 37  1  0
 11 38  1  0
 14 39  1  0
 16 40  1  0
 17 41  1  0
 23 42  1  0
 23 43  1  0
 24 44  1  0
 24 45  1  0
 25 46  1  0
 25 47  1  0
 26 48  1  0
 26 49  1  0
 27 50  1  0
 27 51  1  0
 28 52  1  0
 29 53  1  0
M  END
$$$$
