
     RDKit          3D

 64 68  0  0  0  0  0  0  0  0999 V2000
   -3.6367   -1.2755   -3.9952 C   0  0  0  0  0  0  0  0  0  0  0  0
   -4.3032   -0.2275   -3.0931 C   0  0  0  0  0  0  0  0  0  0  0  0
   -5.6732   -0.7925   -2.6565 C   0  0  0  0  0  0  0  0  0  0  0  0
   -4.5567    1.0656   -3.8869 C   0  0  0  0  0  0  0  0  0  0  0  0
   -3.5052    0.1196   -1.8098 C   0  0  0  0  0  0  0  0  0  0  0  0
   -4.0909    0.5335   -0.8036 O   0  0  0  0  0  0  0  0  0  0  0  0
   -2.0075    0.0866   -1.7812 C   0  0  0  0  0  0  0  0  0  0  0  0
   -1.3474    0.7362   -2.8634 C   0  0  0  0  0  0  0  0  0  0  0  0
   -0.8283    1.2442   -3.7670 N   0  0  0  0  0  0  0  0  0  0  0  0
   -1.3337   -0.3287   -0.6799 C   0  0  0  0  0  0  0  0  0  0  0  0
    0.3526    0.0997   -0.4351 S   0  0  0  0  0  0  0  0  0  0  0  0
    0.2283   -0.1906    1.2537 C   0  0  0  0  0  0  0  0  0  0  0  0
    1.1157    0.1339    2.2072 C   0  0  0  0  0  0  0  0  0  0  0  0
    2.3718    0.7759    2.0136 C   0  0  0  0  0  0  0  0  0  0  0  0
    2.6743    2.0304    2.4867 C   0  0  0  0  0  0  0  0  0  0  0  0
    3.9558    2.3129    2.0729 N   0  0  0  0  0  0  0  0  0  0  0  0
    4.7041    3.5048    2.2942 C   0  0  0  0  0  0  0  0  0  0  0  0
    6.0249    3.5853    1.8245 C   0  0  0  0  0  0  0  0  0  0  0  0
    6.7782    4.7446    2.0312 C   0  0  0  0  0  0  0  0  0  0  0  0
    6.2200    5.8289    2.7048 C   0  0  0  0  0  0  0  0  0  0  0  0
    4.9070    5.7585    3.1692 C   0  0  0  0  0  0  0  0  0  0  0  0
    4.1468    4.6018    2.9669 C   0  0  0  0  0  0  0  0  0  0  0  0
    4.4887    1.2748    1.3778 N   0  0  0  0  0  0  0  0  0  0  0  0
    3.5442    0.3236    1.3510 C   0  0  0  0  0  0  0  0  0  0  0  0
    3.8062   -0.9601    0.7079 C   0  0  0  0  0  0  0  0  0  0  0  0
    3.3758   -2.1709    1.2581 C   0  0  0  0  0  0  0  0  0  0  0  0
    3.6505   -3.3699    0.6004 C   0  0  0  0  0  0  0  0  0  0  0  0
    4.3530   -3.3199   -0.5922 C   0  0  0  0  0  0  0  0  0  0  0  0
    4.7902   -2.1743   -1.1554 N   0  0  0  0  0  0  0  0  0  0  0  0
    4.5154   -1.0235   -0.4881 C   0  0  0  0  0  0  0  0  0  0  0  0
   -1.0295   -0.9051    1.5928 C   0  0  0  0  0  0  0  0  0  0  0  0
   -1.2376   -1.3676    2.7061 O   0  0  0  0  0  0  0  0  0  0  0  0
   -1.8323   -0.9984    0.4427 N   0  0  0  0  0  0  0  0  0  0  0  0
   -2.9192   -1.9273    0.4530 C   0  0  0  0  0  0  0  0  0  0  0  0
   -3.8194   -1.9798    1.5285 C   0  0  0  0  0  0  0  0  0  0  0  0
   -4.8580   -2.9154    1.5441 C   0  0  0  0  0  0  0  0  0  0  0  0
   -4.9867   -3.8134    0.4942 C   0  0  0  0  0  0  0  0  0  0  0  0
   -5.9760   -4.7150    0.5100 F   0  0  0  0  0  0  0  0  0  0  0  0
   -4.0934   -3.7996   -0.5699 C   0  0  0  0  0  0  0  0  0  0  0  0
   -3.0620   -2.8566   -0.5922 C   0  0  0  0  0  0  0  0  0  0  0  0
   -3.3583   -2.1732   -3.4350 H   0  0  0  0  0  0  0  0  0  0  0  0
   -2.7329   -0.8927   -4.4784 H   0  0  0  0  0  0  0  0  0  0  0  0
   -4.3143   -1.5862   -4.8009 H   0  0  0  0  0  0  0  0  0  0  0  0
   -5.5549   -1.7144   -2.0780 H   0  0  0  0  0  0  0  0  0  0  0  0
   -6.2272   -0.0818   -2.0329 H   0  0  0  0  0  0  0  0  0  0  0  0
   -6.3007   -1.0217   -3.5248 H   0  0  0  0  0  0  0  0  0  0  0  0
   -3.6370    1.4686   -4.3203 H   0  0  0  0  0  0  0  0  0  0  0  0
   -5.2552    0.8910   -4.7122 H   0  0  0  0  0  0  0  0  0  0  0  0
   -4.9815    1.8489   -3.2474 H   0  0  0  0  0  0  0  0  0  0  0  0
    0.8658   -0.0988    3.2431 H   0  0  0  0  0  0  0  0  0  0  0  0
    2.0862    2.7324    3.0584 H   0  0  0  0  0  0  0  0  0  0  0  0
    6.4857    2.7510    1.2984 H   0  0  0  0  0  0  0  0  0  0  0  0
    7.7996    4.7970    1.6606 H   0  0  0  0  0  0  0  0  0  0  0  0
    6.8052    6.7327    2.8648 H   0  0  0  0  0  0  0  0  0  0  0  0
    4.4707    6.6112    3.6845 H   0  0  0  0  0  0  0  0  0  0  0  0
    3.1268    4.5982    3.3368 H   0  0  0  0  0  0  0  0  0  0  0  0
    2.8463   -2.1994    2.2063 H   0  0  0  0  0  0  0  0  0  0  0  0
    3.3319   -4.3202    1.0153 H   0  0  0  0  0  0  0  0  0  0  0  0
    4.5937   -4.2270   -1.1409 H   0  0  0  0  0  0  0  0  0  0  0  0
    4.8923   -0.1214   -0.9653 H   0  0  0  0  0  0  0  0  0  0  0  0
   -3.7377   -1.2746    2.3540 H   0  0  0  0  0  0  0  0  0  0  0  0
   -5.5621   -2.9484    2.3697 H   0  0  0  0  0  0  0  0  0  0  0  0
   -4.2029   -4.5233   -1.3698 H   0  0  0  0  0  0  0  0  0  0  0  0
   -2.3461   -2.8971   -1.4080 H   0  0  0  0  0  0  0  0  0  0  0  0
  1  2  1  0
  2  3  1  0
  2  4  1  0
  2  5  1  0
  5  6  2  0
  5  7  1  0
  7  8  1  0
  8  9  3  0
  7 10  2  3
 10 11  1  0
 11 12  1  0
 12 13  2  3
 13 14  1  0
 14 15  2  0
 15 16  1  0
 16 17  1  0
 17 18  2  0
 18 19  1  0
 19 20  2  0
 20 21  1  0
 21 22  2  0
 16 23  1  0
 23 24  2  0
 24 25  1  0
 25 26  2  0
 26 27  1  0
 27 28  2  0
 28 29  1  0
 29 30  2  0
 12 31  1  0
 31 32  2  0
 31 33  1  0
 33 34  1  0
 34 35  2  0
 35 36  1  0
 36 37  2  0
 37 38  1  0
 37 39  1  0
 39 40  2  0
 33 10  1  0
 40 34  1  0
 24 14  1  0
 30 25  1  0
 22 17  1  0
  1 41  1  0
  1 42  1  0
  1 43  1  0
  3 44  1  0
  3 45  1  0
  3 46  1  0
  4 47  1  0
  4 48  1  0
  4 49  1  0
 13 50  1  0
 15 51  1  0
 18 52  1  0
 19 53  1  0
 20 54  1  0
 21 55  1  0
 22 56  1  0
 26 57  1  0
 27 58  1  0
 28 59  1  0
 30 60  1  0
 35 61  1  0
 36 62  1  0
 39 63  1  0
 40 64  1  0
M  END
$$$$
