
     RDKit          3D

 57 60  0  0  0  0  0  0  0  0999 V2000
    5.6023    2.4111   -1.2311 C   0  0  0  0  0  0  0  0  0  0  0  0
    5.6916    1.0140   -0.9478 O   0  0  0  0  0  0  0  0  0  0  0  0
    5.1939    0.7481    0.3034 C   0  0  0  0  0  0  0  0  0  0  0  0
    5.9869    1.0139    1.4209 C   0  0  0  0  0  0  0  0  0  0  0  0
    5.5013    0.7303    2.6939 C   0  0  0  0  0  0  0  0  0  0  0  0
    4.2257    0.1808    2.8460 C   0  0  0  0  0  0  0  0  0  0  0  0
    3.4214   -0.1036    1.7272 C   0  0  0  0  0  0  0  0  0  0  0  0
    2.0695   -0.6878    1.9948 C   0  0  0  0  0  0  0  0  0  0  0  0
    1.8051   -1.1423    3.1033 O   0  0  0  0  0  0  0  0  0  0  0  0
    1.1651   -0.6615    0.9615 N   0  0  0  0  0  0  0  0  0  0  0  0
   -0.1932   -1.1468    1.0769 C   0  0  0  0  0  0  0  0  0  0  0  0
   -0.4570   -2.2175   -0.0084 C   0  0  0  0  0  0  0  0  0  0  0  0
   -1.9666   -2.4529   -0.3117 C   0  0  0  0  0  0  0  0  0  0  0  0
   -2.6888   -3.0141    0.9303 C   0  0  0  0  0  0  0  0  0  0  0  0
   -2.0877   -3.4934   -1.4428 C   0  0  0  0  0  0  0  0  0  0  0  0
   -2.6386   -1.1228   -0.7825 C   0  0  0  0  0  0  0  0  0  0  0  0
   -2.2086    0.0321    0.0603 C   0  0  0  0  0  0  0  0  0  0  0  0
   -1.1148    0.0119    0.9076 C   0  0  0  0  0  0  0  0  0  0  0  0
   -1.1681    1.2329    1.5857 C   0  0  0  0  0  0  0  0  0  0  0  0
   -2.1811    1.9939    1.1792 N   0  0  0  0  0  0  0  0  0  0  0  0
   -2.8009    1.2817    0.1933 N   0  0  0  0  0  0  0  0  0  0  0  0
   -3.8870    1.8875   -0.5123 C   0  0  0  0  0  0  0  0  0  0  0  0
   -4.4234    3.0967   -0.0202 C   0  0  0  0  0  0  0  0  0  0  0  0
   -5.4864    3.7308   -0.6721 C   0  0  0  0  0  0  0  0  0  0  0  0
   -6.0203    3.1735   -1.8281 C   0  0  0  0  0  0  0  0  0  0  0  0
   -5.4784    1.9954   -2.3258 C   0  0  0  0  0  0  0  0  0  0  0  0
   -5.9722    1.4729   -3.4558 F   0  0  0  0  0  0  0  0  0  0  0  0
   -4.4198    1.3506   -1.6864 C   0  0  0  0  0  0  0  0  0  0  0  0
    3.9308    0.1535    0.4435 C   0  0  0  0  0  0  0  0  0  0  0  0
    3.1794   -0.1127   -0.6775 O   0  0  0  0  0  0  0  0  0  0  0  0
    3.6510   -1.3028   -1.3198 C   0  0  0  0  0  0  0  0  0  0  0  0
    6.3128    2.9806   -0.6209 H   0  0  0  0  0  0  0  0  0  0  0  0
    5.8681    2.5569   -2.2836 H   0  0  0  0  0  0  0  0  0  0  0  0
    4.5822    2.7893   -1.0837 H   0  0  0  0  0  0  0  0  0  0  0  0
    6.9827    1.4335    1.2997 H   0  0  0  0  0  0  0  0  0  0  0  0
    6.1134    0.9351    3.5696 H   0  0  0  0  0  0  0  0  0  0  0  0
    3.8573   -0.0285    3.8498 H   0  0  0  0  0  0  0  0  0  0  0  0
    1.4375   -0.2034    0.0972 H   0  0  0  0  0  0  0  0  0  0  0  0
   -0.3535   -1.5882    2.0669 H   0  0  0  0  0  0  0  0  0  0  0  0
    0.0296   -3.1565    0.2902 H   0  0  0  0  0  0  0  0  0  0  0  0
    0.0364   -1.9133   -0.9447 H   0  0  0  0  0  0  0  0  0  0  0  0
   -2.2164   -3.9433    1.2702 H   0  0  0  0  0  0  0  0  0  0  0  0
   -3.7373   -3.2404    0.7047 H   0  0  0  0  0  0  0  0  0  0  0  0
   -2.6816   -2.3130    1.7715 H   0  0  0  0  0  0  0  0  0  0  0  0
   -1.5801   -3.1528   -2.3527 H   0  0  0  0  0  0  0  0  0  0  0  0
   -3.1367   -3.6793   -1.6984 H   0  0  0  0  0  0  0  0  0  0  0  0
   -1.6382   -4.4494   -1.1498 H   0  0  0  0  0  0  0  0  0  0  0  0
   -2.3327   -0.9194   -1.8160 H   0  0  0  0  0  0  0  0  0  0  0  0
   -3.7269   -1.2426   -0.7599 H   0  0  0  0  0  0  0  0  0  0  0  0
   -0.5158    1.5964    2.3699 H   0  0  0  0  0  0  0  0  0  0  0  0
   -4.0245    3.5570    0.8830 H   0  0  0  0  0  0  0  0  0  0  0  0
   -5.8882    4.6598   -0.2753 H   0  0  0  0  0  0  0  0  0  0  0  0
   -6.8425    3.6525   -2.3512 H   0  0  0  0  0  0  0  0  0  0  0  0
   -4.0350    0.4633   -2.1655 H   0  0  0  0  0  0  0  0  0  0  0  0
    3.7842   -2.1238   -0.6074 H   0  0  0  0  0  0  0  0  0  0  0  0
    4.5821   -1.1162   -1.8632 H   0  0  0  0  0  0  0  0  0  0  0  0
    2.8924   -1.6079   -2.0472 H   0  0  0  0  0  0  0  0  0  0  0  0
  1  2  1  0
  2  3  1  0
  3  4  2  0
  4  5  1  0
  5  6  2  0
  6  7  1  0
  7  8  1  0
  8  9  2  0
  8 10  1  0
 10 11  1  0
 11 12  1  0
 12 13  1  0
 13 14  1  0
 13 15  1  0
 13 16  1  0
 16 17  1  0
 17 18  2  0
 18 19  1  0
 19 20  2  0
 20 21  1  0
 21 22  1  0
 22 23  2  0
 23 24  1  0
 24 25  2  0
 25 26  1  0
 26 27  1  0
 26 28  2  0
  7 29  2  0
 29 30  1  0
 30 31  1  0
 29  3  1  0
 18 11  1  0
 28 22  1  0
 21 17  1  0
  1 32  1  0
  1 33  1  0
  1 34  1  0
  4 35  1  0
  5 36  1  0
  6 37  1  0
 10 38  1  0
 11 39  1  0
 12 40  1  0
 12 41  1  0
 14 42  1  0
 14 43  1  0
 14 44  1  0
 15 45  1  0
 15 46  1  0
 15 47  1  0
 16 48  1  0
 16 49  1  0
 19 50  1  0
 23 51  1  0
 24 52  1  0
 25 53  1  0
 28 54  1  0
 31 55  1  0
 31 56  1  0
 31 57  1  0
M  END
$$$$
