
     RDKit          3D

 38 41  0  0  0  0  0  0  0  0999 V2000
    7.7499    2.8138    0.6381 C   0  0  0  0  0  0  0  0  0  0  0  0
    6.6110    1.9050    0.3580 C   0  0  0  0  0  0  0  0  0  0  0  0
    6.7183    0.6900   -0.1370 N   0  0  0  0  0  0  0  0  0  0  0  0
    5.4859    0.0803   -0.2895 N   0  0  0  0  0  0  0  0  0  0  0  0
    4.5071    0.8598    0.0957 C   0  0  0  0  0  0  0  0  0  0  0  0
    3.1578    0.6527    0.1119 N   0  0  0  0  0  0  0  0  0  0  0  0
    2.5813   -0.5247   -0.3135 C   0  0  0  0  0  0  0  0  0  0  0  0
    3.2134   -1.4892   -0.7375 O   0  0  0  0  0  0  0  0  0  0  0  0
    1.1176   -0.5539   -0.2262 C   0  0  0  0  0  0  0  0  0  0  0  0
    0.2151    0.8426    0.1866 S   0  0  0  0  0  0  0  0  0  0  0  0
   -1.2647    0.0203    0.0454 C   0  0  0  0  0  0  0  0  0  0  0  0
   -2.4116    0.6819    0.2811 N   0  0  0  0  0  0  0  0  0  0  0  0
   -3.5375   -0.0485    0.1692 C   0  0  0  0  0  0  0  0  0  0  0  0
   -4.7649    0.7281    0.4428 C   0  0  0  0  0  0  0  0  0  0  0  0
   -4.8608    2.0506    0.8534 C   0  0  0  0  0  0  0  0  0  0  0  0
   -6.2037    2.4941    1.0244 C   0  0  0  0  0  0  0  0  0  0  0  0
   -7.1086    1.5001    0.7382 C   0  0  0  0  0  0  0  0  0  0  0  0
   -6.3382    0.0515    0.2682 S   0  0  0  0  0  0  0  0  0  0  0  0
   -3.5311   -1.3983   -0.1616 C   0  0  0  0  0  0  0  0  0  0  0  0
   -2.3171   -2.0721   -0.4150 C   0  0  0  0  0  0  0  0  0  0  0  0
   -2.3457   -3.5434   -0.7309 C   0  0  0  0  0  0  0  0  0  0  0  0
   -3.5861   -3.9901   -1.0806 F   0  0  0  0  0  0  0  0  0  0  0  0
   -1.9626   -4.3138    0.3221 F   0  0  0  0  0  0  0  0  0  0  0  0
   -1.5346   -3.8893   -1.7711 F   0  0  0  0  0  0  0  0  0  0  0  0
   -1.1216   -1.3151   -0.3077 C   0  0  0  0  0  0  0  0  0  0  0  0
    0.2748   -1.6269   -0.4713 C   0  0  0  0  0  0  0  0  0  0  0  0
    0.7390   -2.8511   -0.8190 N   0  0  0  0  0  0  0  0  0  0  0  0
    4.9918    2.3928    0.6729 S   0  0  0  0  0  0  0  0  0  0  0  0
    8.6976    2.3328    0.3756 H   0  0  0  0  0  0  0  0  0  0  0  0
    7.6664    3.7348    0.0526 H   0  0  0  0  0  0  0  0  0  0  0  0
    7.7879    3.0748    1.7004 H   0  0  0  0  0  0  0  0  0  0  0  0
    2.5759    1.4027    0.4523 H   0  0  0  0  0  0  0  0  0  0  0  0
   -3.9912    2.6755    1.0244 H   0  0  0  0  0  0  0  0  0  0  0  0
   -6.4876    3.4906    1.3400 H   0  0  0  0  0  0  0  0  0  0  0  0
   -8.1879    1.5546    0.7813 H   0  0  0  0  0  0  0  0  0  0  0  0
   -4.4621   -1.9571   -0.2244 H   0  0  0  0  0  0  0  0  0  0  0  0
    1.7396   -2.9535   -1.0313 H   0  0  0  0  0  0  0  0  0  0  0  0
    0.1873   -3.5025   -1.3773 H   0  0  0  0  0  0  0  0  0  0  0  0
  1  2  1  0
  2  3  2  0
  3  4  1  0
  4  5  2  0
  5  6  1  0
  6  7  1  0
  7  8  2  0
  7  9  1  0
  9 10  1  0
 10 11  1  0
 11 12  2  0
 12 13  1  0
 13 14  1  0
 14 15  2  0
 15 16  1  0
 16 17  2  0
 17 18  1  0
 13 19  2  0
 19 20  1  0
 20 21  1  0
 21 22  1  0
 21 23  1  0
 21 24  1  0
 20 25  2  0
 25 26  1  0
 26 27  1  0
  5 28  1  0
 28  2  1  0
 26  9  2  0
 25 11  1  0
 18 14  1  0
  1 29  1  0
  1 30  1  0
  1 31  1  0
  6 32  1  0
 15 33  1  0
 16 34  1  0
 17 35  1  0
 19 36  1  0
 27 37  1  0
 27 38  1  0
M  END
$$$$
