
     RDKit          3D

 35 37  0  0  0  0  0  0  0  0999 V2000
   -0.3526   -2.0407    0.4169 O   0  0  0  0  0  0  0  0  0  0  0  0
   -0.0691   -0.8990    0.0649 C   0  0  0  0  0  0  0  0  0  0  0  0
    1.2275   -0.4549   -0.0643 N   0  0  0  0  0  0  0  0  0  0  0  0
    2.3481   -1.3412    0.0959 C   0  0  0  0  0  0  0  0  0  0  0  0
    3.6452   -0.5782    0.0693 C   0  0  0  0  0  0  0  0  0  0  0  0
    4.3670   -0.4396   -1.1269 C   0  0  0  0  0  0  0  0  0  0  0  0
    5.5565    0.2903   -1.1519 C   0  0  0  0  0  0  0  0  0  0  0  0
    6.0197    0.8874    0.0144 C   0  0  0  0  0  0  0  0  0  0  0  0
    7.1609    1.5883   -0.0118 F   0  0  0  0  0  0  0  0  0  0  0  0
    5.3145    0.7721    1.2060 C   0  0  0  0  0  0  0  0  0  0  0  0
    4.1250    0.0428    1.2339 C   0  0  0  0  0  0  0  0  0  0  0  0
   -1.0829    0.1066   -0.2654 C   0  0  0  0  0  0  0  0  0  0  0  0
   -0.7391    1.3400   -0.6986 N   0  0  0  0  0  0  0  0  0  0  0  0
   -1.9309    2.0171   -0.9273 O   0  0  0  0  0  0  0  0  0  0  0  0
   -2.9566    1.1920   -0.6369 C   0  0  0  0  0  0  0  0  0  0  0  0
   -2.4923   -0.0225   -0.2073 C   0  0  0  0  0  0  0  0  0  0  0  0
   -3.3988   -1.1331    0.1725 C   0  0  0  0  0  0  0  0  0  0  0  0
   -4.8385   -0.6084    0.3860 C   0  0  0  0  0  0  0  0  0  0  0  0
   -5.2765    0.4004   -0.7010 C   0  0  0  0  0  0  0  0  0  0  0  0
   -4.3565    1.6390   -0.7681 C   0  0  0  0  0  0  0  0  0  0  0  0
    1.3603    0.4733   -0.4546 H   0  0  0  0  0  0  0  0  0  0  0  0
    2.3159   -2.0850   -0.7091 H   0  0  0  0  0  0  0  0  0  0  0  0
    2.2425   -1.8915    1.0385 H   0  0  0  0  0  0  0  0  0  0  0  0
    4.0056   -0.8987   -2.0449 H   0  0  0  0  0  0  0  0  0  0  0  0
    6.1221    0.3993   -2.0717 H   0  0  0  0  0  0  0  0  0  0  0  0
    5.6924    1.2523    2.1028 H   0  0  0  0  0  0  0  0  0  0  0  0
    3.5700   -0.0381    2.1666 H   0  0  0  0  0  0  0  0  0  0  0  0
   -3.0522   -1.6269    1.0865 H   0  0  0  0  0  0  0  0  0  0  0  0
   -3.4016   -1.8810   -0.6295 H   0  0  0  0  0  0  0  0  0  0  0  0
   -4.9014   -0.1162    1.3654 H   0  0  0  0  0  0  0  0  0  0  0  0
   -5.5335   -1.4553    0.4097 H   0  0  0  0  0  0  0  0  0  0  0  0
   -6.3080    0.7222   -0.5185 H   0  0  0  0  0  0  0  0  0  0  0  0
   -5.2687   -0.1092   -1.6735 H   0  0  0  0  0  0  0  0  0  0  0  0
   -4.5974    2.3206    0.0554 H   0  0  0  0  0  0  0  0  0  0  0  0
   -4.5163    2.1757   -1.7086 H   0  0  0  0  0  0  0  0  0  0  0  0
  1  2  2  0
  2  3  1  0
  3  4  1  0
  4  5  1  0
  5  6  2  0
  6  7  1  0
  7  8  2  0
  8  9  1  0
  8 10  1  0
 10 11  2  0
  2 12  1  0
 12 13  2  0
 13 14  1  0
 14 15  1  0
 15 16  2  0
 16 17  1  0
 17 18  1  0
 18 19  1  0
 19 20  1  0
 11  5  1  0
 16 12  1  0
 20 15  1  0
  3 21  1  0
  4 22  1  0
  4 23  1  0
  6 24  1  0
  7 25  1  0
 10 26  1  0
 11 27  1  0
 17 28  1  0
 17 29  1  0
 18 30  1  0
 18 31  1  0
 19 32  1  0
 19 33  1  0
 20 34  1  0
 20 35  1  0
M  END
$$$$
