
     RDKit          3D

 51 54  0  0  0  0  0  0  0  0999 V2000
   -5.8620   -3.1324   -2.6025 C   0  0  0  0  0  0  0  0  0  0  0  0
   -5.4512   -2.7452   -1.2973 O   0  0  0  0  0  0  0  0  0  0  0  0
   -4.4342   -1.8350   -1.2111 C   0  0  0  0  0  0  0  0  0  0  0  0
   -4.1108   -1.4466    0.0940 C   0  0  0  0  0  0  0  0  0  0  0  0
   -3.0904   -0.5244    0.3309 C   0  0  0  0  0  0  0  0  0  0  0  0
   -2.3738   -0.0068   -0.7479 C   0  0  0  0  0  0  0  0  0  0  0  0
   -1.3069    0.9873   -0.4982 C   0  0  0  0  0  0  0  0  0  0  0  0
   -1.6818    2.1625   -0.1036 N   0  0  0  0  0  0  0  0  0  0  0  0
   -0.7069    3.1358    0.1313 C   0  0  0  0  0  0  0  0  0  0  0  0
   -1.1070    4.3943    0.5877 C   0  0  0  0  0  0  0  0  0  0  0  0
   -0.1649    5.3986    0.8281 C   0  0  0  0  0  0  0  0  0  0  0  0
    1.1901    5.1506    0.6120 C   0  0  0  0  0  0  0  0  0  0  0  0
    1.6006    3.8987    0.1559 C   0  0  0  0  0  0  0  0  0  0  0  0
    0.6469    2.9006   -0.0814 C   0  0  0  0  0  0  0  0  0  0  0  0
    1.0446    1.5658   -0.5566 C   0  0  0  0  0  0  0  0  0  0  0  0
    2.2272    1.3551   -0.8163 O   0  0  0  0  0  0  0  0  0  0  0  0
    0.0231    0.6242   -0.7031 N   0  0  0  0  0  0  0  0  0  0  0  0
    0.4514   -0.7578   -0.9831 C   0  0  0  0  0  0  0  0  0  0  0  0
    0.5049   -1.6277    0.2823 C   0  0  0  0  0  0  0  0  0  0  0  0
    1.4004   -1.1076    1.2628 O   0  0  0  0  0  0  0  0  0  0  0  0
    2.7300   -1.4269    1.2085 C   0  0  0  0  0  0  0  0  0  0  0  0
    3.3242   -2.2666    0.2627 C   0  0  0  0  0  0  0  0  0  0  0  0
    4.6968   -2.5275    0.3098 C   0  0  0  0  0  0  0  0  0  0  0  0
    5.4861   -1.9508    1.2996 C   0  0  0  0  0  0  0  0  0  0  0  0
    4.9055   -1.1073    2.2439 C   0  0  0  0  0  0  0  0  0  0  0  0
    3.5290   -0.8377    2.2069 C   0  0  0  0  0  0  0  0  0  0  0  0
    2.9244    0.0902    3.2248 C   0  0  0  0  0  0  0  0  0  0  0  0
   -2.7046   -0.3644   -2.0575 C   0  0  0  0  0  0  0  0  0  0  0  0
   -3.7308   -1.2865   -2.2869 C   0  0  0  0  0  0  0  0  0  0  0  0
   -6.6887   -3.8414   -2.4962 H   0  0  0  0  0  0  0  0  0  0  0  0
   -6.2312   -2.2730   -3.1720 H   0  0  0  0  0  0  0  0  0  0  0  0
   -5.0526   -3.6422   -3.1352 H   0  0  0  0  0  0  0  0  0  0  0  0
   -4.6684   -1.8594    0.9318 H   0  0  0  0  0  0  0  0  0  0  0  0
   -2.8605   -0.2126    1.3466 H   0  0  0  0  0  0  0  0  0  0  0  0
   -2.1631    4.5896    0.7553 H   0  0  0  0  0  0  0  0  0  0  0  0
   -0.4912    6.3728    1.1834 H   0  0  0  0  0  0  0  0  0  0  0  0
    1.9249    5.9297    0.7989 H   0  0  0  0  0  0  0  0  0  0  0  0
    2.6565    3.6986   -0.0117 H   0  0  0  0  0  0  0  0  0  0  0  0
   -0.2306   -1.2165   -1.7027 H   0  0  0  0  0  0  0  0  0  0  0  0
    1.4363   -0.7432   -1.4608 H   0  0  0  0  0  0  0  0  0  0  0  0
    0.7190   -2.6751    0.0433 H   0  0  0  0  0  0  0  0  0  0  0  0
   -0.4797   -1.6406    0.7591 H   0  0  0  0  0  0  0  0  0  0  0  0
    2.7569   -2.7322   -0.5339 H   0  0  0  0  0  0  0  0  0  0  0  0
    5.1502   -3.1786   -0.4330 H   0  0  0  0  0  0  0  0  0  0  0  0
    6.5535   -2.1509    1.3322 H   0  0  0  0  0  0  0  0  0  0  0  0
    5.5336   -0.6546    3.0074 H   0  0  0  0  0  0  0  0  0  0  0  0
    3.6758    0.4546    3.9332 H   0  0  0  0  0  0  0  0  0  0  0  0
    2.4854    0.9620    2.7286 H   0  0  0  0  0  0  0  0  0  0  0  0
    2.1516   -0.4293    3.8006 H   0  0  0  0  0  0  0  0  0  0  0  0
   -2.1754    0.0780   -2.8979 H   0  0  0  0  0  0  0  0  0  0  0  0
   -3.9622   -1.5481   -3.3143 H   0  0  0  0  0  0  0  0  0  0  0  0
  1  2  1  0
  2  3  1  0
  3  4  2  0
  4  5  1  0
  5  6  2  0
  6  7  1  0
  7  8  2  0
  8  9  1  0
  9 10  2  0
 10 11  1  0
 11 12  2  0
 12 13  1  0
 13 14  2  0
 14 15  1  0
 15 16  2  0
 15 17  1  0
 17 18  1  0
 18 19  1  0
 19 20  1  0
 20 21  1  0
 21 22  2  0
 22 23  1  0
 23 24  2  0
 24 25  1  0
 25 26  2  0
 26 27  1  0
  6 28  1  0
 28 29  2  0
 29  3  1  0
 17  7  1  0
 26 21  1  0
 14  9  1  0
  1 30  1  0
  1 31  1  0
  1 32  1  0
  4 33  1  0
  5 34  1  0
 10 35  1  0
 11 36  1  0
 12 37  1  0
 13 38  1  0
 18 39  1  0
 18 40  1  0
 19 41  1  0
 19 42  1  0
 22 43  1  0
 23 44  1  0
 24 45  1  0
 25 46  1  0
 27 47  1  0
 27 48  1  0
 27 49  1  0
 28 50  1  0
 29 51  1  0
M  END
$$$$
