
     RDKit          3D

 32 33  0  0  0  0  0  0  0  0999 V2000
   -0.7538    3.3732   -0.1823 N   0  0  0  0  0  0  0  0  0  0  0  0
   -1.2510    2.3239   -0.1535 C   0  0  0  0  0  0  0  0  0  0  0  0
   -1.8928    1.0367   -0.1547 C   0  0  0  0  0  0  0  0  0  0  0  0
   -2.9787    0.8566   -1.0294 C   0  0  0  0  0  0  0  0  0  0  0  0
   -3.6521   -0.3673   -1.0563 C   0  0  0  0  0  0  0  0  0  0  0  0
   -4.7866   -0.5582   -1.9681 N   0  0  0  0  0  4  0  0  0  0  0  0
   -5.1142    0.3969   -2.6856 O   0  0  0  0  0  0  0  0  0  0  0  0
   -5.3455   -1.6639   -1.9681 O   0  0  0  0  0  1  0  0  0  0  0  0
   -3.2601   -1.4049   -0.2093 C   0  0  0  0  0  0  0  0  0  0  0  0
   -2.1775   -1.2174    0.6577 C   0  0  0  0  0  0  0  0  0  0  0  0
   -1.4459   -0.0167    0.6808 C   0  0  0  0  0  0  0  0  0  0  0  0
   -0.4084    0.1855    1.6052 N   0  0  0  0  0  0  0  0  0  0  0  0
    0.4759   -0.9207    2.0023 C   0  0  0  0  0  0  0  0  0  0  0  0
    1.4111   -1.3740    0.8700 C   0  0  0  0  0  0  0  0  0  0  0  0
    2.3995   -0.3209    0.4180 C   0  0  0  0  0  0  0  0  0  0  0  0
    3.6301   -0.7019   -0.1114 C   0  0  0  0  0  0  0  0  0  0  0  0
    4.4991    0.2835   -0.5743 C   0  0  0  0  0  0  0  0  0  0  0  0
    4.1158    1.6176   -0.5118 C   0  0  0  0  0  0  0  0  0  0  0  0
    2.8714    1.9140    0.0132 C   0  0  0  0  0  0  0  0  0  0  0  0
    2.0117    0.9780    0.4738 N   0  0  0  0  0  0  0  0  0  0  0  0
   -3.2901    1.6781   -1.6742 H   0  0  0  0  0  0  0  0  0  0  0  0
   -3.7878   -2.3569   -0.1963 H   0  0  0  0  0  0  0  0  0  0  0  0
   -1.9286   -2.0328    1.3316 H   0  0  0  0  0  0  0  0  0  0  0  0
    0.2081    0.9624    1.3179 H   0  0  0  0  0  0  0  0  0  0  0  0
    1.0815   -0.5668    2.8462 H   0  0  0  0  0  0  0  0  0  0  0  0
   -0.0980   -1.7701    2.3862 H   0  0  0  0  0  0  0  0  0  0  0  0
    1.9684   -2.2471    1.2319 H   0  0  0  0  0  0  0  0  0  0  0  0
    0.8334   -1.6972   -0.0036 H   0  0  0  0  0  0  0  0  0  0  0  0
    3.9145   -1.7475   -0.1706 H   0  0  0  0  0  0  0  0  0  0  0  0
    5.4660    0.0110   -0.9879 H   0  0  0  0  0  0  0  0  0  0  0  0
    4.7675    2.4069   -0.8690 H   0  0  0  0  0  0  0  0  0  0  0  0
    2.5171    2.9399    0.0763 H   0  0  0  0  0  0  0  0  0  0  0  0
  1  2  3  0
  2  3  1  0
  3  4  2  0
  4  5  1  0
  5  6  1  0
  6  7  2  0
  6  8  1  0
  5  9  2  0
  9 10  1  0
 10 11  2  0
 11 12  1  0
 12 13  1  0
 13 14  1  0
 14 15  1  0
 15 16  2  0
 16 17  1  0
 17 18  2  0
 18 19  1  0
 19 20  2  0
 11  3  1  0
 20 15  1  0
  4 21  1  0
  9 22  1  0
 10 23  1  0
 12 24  1  0
 13 25  1  0
 13 26  1  0
 14 27  1  0
 14 28  1  0
 16 29  1  0
 17 30  1  0
 18 31  1  0
 19 32  1  0
M  CHG  2   6   1   8  -1
M  END
$$$$
