
     RDKit          3D

 46 47  0  0  0  0  0  0  0  0999 V2000
    0.8991    0.6913   -1.4555 O   0  0  0  0  0  0  0  0  0  0  0  0
    0.7434    0.6595   -0.2426 C   0  0  0  0  0  0  0  0  0  0  0  0
   -0.4769    0.7323    0.3792 N   0  0  0  0  0  0  0  0  0  0  0  0
   -1.7310    0.7324   -0.3782 C   0  0  0  0  0  0  0  0  0  0  0  0
   -2.0978   -0.7130   -0.7460 C   0  0  0  0  0  0  0  0  0  0  0  0
   -3.2923   -0.8892   -1.6803 C   0  0  0  0  0  0  0  0  0  0  0  0
   -4.6728   -0.4786   -1.1683 C   0  0  0  0  0  0  0  0  0  0  0  0
   -4.9843   -0.8790    0.2736 C   0  0  0  0  0  0  0  0  0  0  0  0
   -4.8541    0.2570    1.2907 C   0  0  0  0  0  0  0  0  0  0  0  0
   -3.4392    0.7658    1.5751 C   0  0  0  0  0  0  0  0  0  0  0  0
   -2.7888    1.5201    0.4111 C   0  0  0  0  0  0  0  0  0  0  0  0
    1.7709    0.5866    0.6640 N   0  0  0  0  0  0  0  0  0  0  0  0
    3.1498    0.4174    0.2272 C   0  0  0  0  0  0  0  0  0  0  0  0
    3.4354   -1.0488   -0.1268 C   0  0  0  0  0  0  0  0  0  0  0  0
    4.8960   -1.2606   -0.5169 C   0  0  0  0  0  0  0  0  0  0  0  0
    5.8474   -0.7538    0.5628 C   0  0  0  0  0  0  0  0  0  0  0  0
    5.5688    0.7035    0.9179 C   0  0  0  0  0  0  0  0  0  0  0  0
    4.1100    0.9165    1.3128 C   0  0  0  0  0  0  0  0  0  0  0  0
   -0.5177    0.4815    1.3535 H   0  0  0  0  0  0  0  0  0  0  0  0
   -1.5383    1.2833   -1.3080 H   0  0  0  0  0  0  0  0  0  0  0  0
   -2.2234   -1.3223    0.1559 H   0  0  0  0  0  0  0  0  0  0  0  0
   -1.2347   -1.1635   -1.2564 H   0  0  0  0  0  0  0  0  0  0  0  0
   -3.0974   -0.3624   -2.6228 H   0  0  0  0  0  0  0  0  0  0  0  0
   -3.3411   -1.9549   -1.9420 H   0  0  0  0  0  0  0  0  0  0  0  0
   -5.4069   -0.9706   -1.8213 H   0  0  0  0  0  0  0  0  0  0  0  0
   -4.8396    0.5915   -1.3254 H   0  0  0  0  0  0  0  0  0  0  0  0
   -6.0335   -1.2028    0.3029 H   0  0  0  0  0  0  0  0  0  0  0  0
   -4.3998   -1.7506    0.5872 H   0  0  0  0  0  0  0  0  0  0  0  0
   -5.2712   -0.1026    2.2405 H   0  0  0  0  0  0  0  0  0  0  0  0
   -5.4900    1.0972    0.9842 H   0  0  0  0  0  0  0  0  0  0  0  0
   -3.5242    1.4703    2.4135 H   0  0  0  0  0  0  0  0  0  0  0  0
   -2.8053   -0.0488    1.9412 H   0  0  0  0  0  0  0  0  0  0  0  0
   -3.5522    1.9113   -0.2683 H   0  0  0  0  0  0  0  0  0  0  0  0
   -2.3019    2.4157    0.8228 H   0  0  0  0  0  0  0  0  0  0  0  0
    1.5381    0.2701    1.5912 H   0  0  0  0  0  0  0  0  0  0  0  0
    3.2923    1.0277   -0.6744 H   0  0  0  0  0  0  0  0  0  0  0  0
    2.7895   -1.3742   -0.9510 H   0  0  0  0  0  0  0  0  0  0  0  0
    3.1906   -1.6915    0.7292 H   0  0  0  0  0  0  0  0  0  0  0  0
    5.0782   -2.3259   -0.6978 H   0  0  0  0  0  0  0  0  0  0  0  0
    5.1008   -0.7369   -1.4588 H   0  0  0  0  0  0  0  0  0  0  0  0
    5.7430   -1.3745    1.4612 H   0  0  0  0  0  0  0  0  0  0  0  0
    6.8831   -0.8587    0.2206 H   0  0  0  0  0  0  0  0  0  0  0  0
    5.8111    1.3416    0.0591 H   0  0  0  0  0  0  0  0  0  0  0  0
    6.2225    1.0137    1.7408 H   0  0  0  0  0  0  0  0  0  0  0  0
    3.9102    0.3944    2.2579 H   0  0  0  0  0  0  0  0  0  0  0  0
    3.9345    1.9820    1.5054 H   0  0  0  0  0  0  0  0  0  0  0  0
  1  2  2  0
  2  3  1  0
  3  4  1  0
  4  5  1  0
  5  6  1  0
  6  7  1  0
  7  8  1  0
  8  9  1  0
  9 10  1  0
 10 11  1  0
  2 12  1  0
 12 13  1  0
 13 14  1  0
 14 15  1  0
 15 16  1  0
 16 17  1  0
 17 18  1  0
 11  4  1  0
 18 13  1  0
  3 19  1  0
  4 20  1  0
  5 21  1  0
  5 22  1  0
  6 23  1  0
  6 24  1  0
  7 25  1  0
  7 26  1  0
  8 27  1  0
  8 28  1  0
  9 29  1  0
  9 30  1  0
 10 31  1  0
 10 32  1  0
 11 33  1  0
 11 34  1  0
 12 35  1  0
 13 36  1  0
 14 37  1  0
 14 38  1  0
 15 39  1  0
 15 40  1  0
 16 41  1  0
 16 42  1  0
 17 43  1  0
 17 44  1  0
 18 45  1  0
 18 46  1  0
M  END
$$$$
