
     RDKit          3D

 47 49  0  0  0  0  0  0  0  0999 V2000
    7.0865   -0.2557   -2.5756 C   0  0  0  0  0  0  0  0  0  0  0  0
    7.0675   -0.4065   -1.0643 C   0  0  0  0  0  0  0  0  0  0  0  0
    6.1889    0.5480   -0.4708 O   0  0  0  0  0  0  0  0  0  0  0  0
    4.8813    0.2058   -0.2737 C   0  0  0  0  0  0  0  0  0  0  0  0
    4.1472    1.1298    0.4725 C   0  0  0  0  0  0  0  0  0  0  0  0
    2.7929    0.9161    0.7489 C   0  0  0  0  0  0  0  0  0  0  0  0
    2.1471   -0.2299    0.2665 C   0  0  0  0  0  0  0  0  0  0  0  0
    0.7573   -0.4447    0.5415 N   0  0  0  0  0  0  0  0  0  0  0  0
    0.1324   -1.6758    0.7329 C   0  0  0  0  0  0  0  0  0  0  0  0
    0.7732   -2.8388    0.6226 O   0  0  0  0  0  0  0  0  0  0  0  0
   -1.1689   -1.4405    1.1213 C   0  0  0  0  0  0  0  0  0  0  0  0
   -1.3947   -0.0450    1.1213 C   0  0  0  0  0  0  0  0  0  0  0  0
   -2.5673    0.5902    1.4351 N   0  0  0  0  0  0  0  0  0  0  0  0
   -2.6596    2.0490    1.4078 C   0  0  0  0  0  0  0  0  0  0  0  0
   -3.8265   -0.1197    1.6751 C   0  0  0  0  0  0  0  0  0  0  0  0
   -4.7972    0.0138    0.5174 C   0  0  0  0  0  0  0  0  0  0  0  0
   -4.4076   -0.2873   -0.7967 C   0  0  0  0  0  0  0  0  0  0  0  0
   -5.3147   -0.1779   -1.8523 C   0  0  0  0  0  0  0  0  0  0  0  0
   -6.6253    0.2250   -1.6071 C   0  0  0  0  0  0  0  0  0  0  0  0
   -7.0311    0.5182   -0.3065 C   0  0  0  0  0  0  0  0  0  0  0  0
   -6.1239    0.4086    0.7504 C   0  0  0  0  0  0  0  0  0  0  0  0
   -0.2185    0.5512    0.6876 C   0  0  0  0  0  0  0  0  0  0  0  0
    0.0019    1.8370    0.3821 O   0  0  0  0  0  0  0  0  0  0  0  0
    2.8859   -1.1606   -0.4731 C   0  0  0  0  0  0  0  0  0  0  0  0
    4.2434   -0.9392   -0.7464 C   0  0  0  0  0  0  0  0  0  0  0  0
    7.8124   -0.9407   -3.0227 H   0  0  0  0  0  0  0  0  0  0  0  0
    6.1028   -0.4572   -3.0108 H   0  0  0  0  0  0  0  0  0  0  0  0
    7.3521    0.7693   -2.8545 H   0  0  0  0  0  0  0  0  0  0  0  0
    6.8501   -1.4327   -0.7484 H   0  0  0  0  0  0  0  0  0  0  0  0
    8.0705   -0.1822   -0.6828 H   0  0  0  0  0  0  0  0  0  0  0  0
    4.6397    2.0193    0.8587 H   0  0  0  0  0  0  0  0  0  0  0  0
    2.2800    1.6353    1.3845 H   0  0  0  0  0  0  0  0  0  0  0  0
    0.1487   -3.5406    0.8791 H   0  0  0  0  0  0  0  0  0  0  0  0
   -1.8745   -2.2165    1.3779 H   0  0  0  0  0  0  0  0  0  0  0  0
   -2.5900    2.4241    0.3814 H   0  0  0  0  0  0  0  0  0  0  0  0
   -3.6131    2.3995    1.8196 H   0  0  0  0  0  0  0  0  0  0  0  0
   -1.8747    2.5056    2.0212 H   0  0  0  0  0  0  0  0  0  0  0  0
   -4.2802    0.2891    2.5879 H   0  0  0  0  0  0  0  0  0  0  0  0
   -3.6874   -1.1856    1.8838 H   0  0  0  0  0  0  0  0  0  0  0  0
   -3.3845   -0.5914   -1.0051 H   0  0  0  0  0  0  0  0  0  0  0  0
   -4.9943   -0.4019   -2.8661 H   0  0  0  0  0  0  0  0  0  0  0  0
   -7.3301    0.3146   -2.4300 H   0  0  0  0  0  0  0  0  0  0  0  0
   -8.0525    0.8368   -0.1157 H   0  0  0  0  0  0  0  0  0  0  0  0
   -6.4594    0.6422    1.7581 H   0  0  0  0  0  0  0  0  0  0  0  0
    0.7283    1.8776   -0.2643 H   0  0  0  0  0  0  0  0  0  0  0  0
    2.4226   -2.0545   -0.8827 H   0  0  0  0  0  0  0  0  0  0  0  0
    4.7635   -1.6814   -1.3425 H   0  0  0  0  0  0  0  0  0  0  0  0
  1  2  1  0
  2  3  1  0
  3  4  1  0
  4  5  2  0
  5  6  1  0
  6  7  2  0
  7  8  1  0
  8  9  1  0
  9 10  1  0
  9 11  2  0
 11 12  1  0
 12 13  1  0
 13 14  1  0
 13 15  1  0
 15 16  1  0
 16 17  2  0
 17 18  1  0
 18 19  2  0
 19 20  1  0
 20 21  2  0
 12 22  2  0
 22 23  1  0
  7 24  1  0
 24 25  2  0
 25  4  1  0
 22  8  1  0
 21 16  1  0
  1 26  1  0
  1 27  1  0
  1 28  1  0
  2 29  1  0
  2 30  1  0
  5 31  1  0
  6 32  1  0
 10 33  1  0
 11 34  1  0
 14 35  1  0
 14 36  1  0
 14 37  1  0
 15 38  1  0
 15 39  1  0
 17 40  1  0
 18 41  1  0
 19 42  1  0
 20 43  1  0
 21 44  1  0
 23 45  1  0
 24 46  1  0
 25 47  1  0
M  END
$$$$
