
     RDKit          3D

 45 47  0  0  0  0  0  0  0  0999 V2000
    7.2434   -0.9668    1.6067 N   0  0  0  0  0  0  0  0  0  0  0  0
    6.1030   -0.8511    1.7888 C   0  0  0  0  0  0  0  0  0  0  0  0
    4.7000   -0.7012    1.9970 C   0  0  0  0  0  0  0  0  0  0  0  0
    4.2089   -1.0862    3.2798 C   0  0  0  0  0  0  0  0  0  0  0  0
    3.7988   -1.3940    4.3212 N   0  0  0  0  0  0  0  0  0  0  0  0
    3.8880   -0.2098    1.0260 C   0  0  0  0  0  0  0  0  0  0  0  0
    2.4455   -0.0137    1.2138 C   0  0  0  0  0  0  0  0  0  0  0  0
    1.6016    0.3421    0.2261 C   0  0  0  0  0  0  0  0  0  0  0  0
    0.1829    0.5397    0.4894 C   0  0  0  0  0  0  0  0  0  0  0  0
   -0.7612    0.7541   -0.4537 C   0  0  0  0  0  0  0  0  0  0  0  0
   -2.1217    0.9996   -0.1613 N   0  0  0  0  0  0  0  0  0  0  0  0
   -3.1494    1.2455   -1.1887 C   0  0  0  0  0  0  0  0  0  0  0  0
   -3.8721   -0.0404   -1.5869 C   0  0  0  0  0  0  0  0  0  0  0  0
   -4.5564   -0.7765   -0.4294 C   0  0  0  0  0  0  0  0  0  0  0  0
   -3.5684   -1.4443    0.5279 C   0  0  0  0  0  0  0  0  0  0  0  0
   -2.9669   -0.5345    1.6028 C   0  0  0  0  0  0  0  0  0  0  0  0
   -2.6928    0.9101    1.1933 C   0  0  0  0  0  0  0  0  0  0  0  0
   -0.3407    0.7324   -1.9208 C   0  0  0  0  0  0  0  0  0  0  0  0
    1.0064    0.0549   -2.1800 C   0  0  0  0  0  0  0  0  0  0  0  0
    2.0638    0.5542   -1.1973 C   0  0  0  0  0  0  0  0  0  0  0  0
    3.4087   -0.1335   -1.4584 C   0  0  0  0  0  0  0  0  0  0  0  0
    4.4047    0.1984   -0.3485 C   0  0  0  0  0  0  0  0  0  0  0  0
    2.0343   -0.1678    2.2111 H   0  0  0  0  0  0  0  0  0  0  0  0
   -0.0989    0.5224    1.5371 H   0  0  0  0  0  0  0  0  0  0  0  0
   -2.7178    1.7191   -2.0775 H   0  0  0  0  0  0  0  0  0  0  0  0
   -3.8823    1.9746   -0.8194 H   0  0  0  0  0  0  0  0  0  0  0  0
   -4.6369    0.2181   -2.3298 H   0  0  0  0  0  0  0  0  0  0  0  0
   -3.1766   -0.7243   -2.0874 H   0  0  0  0  0  0  0  0  0  0  0  0
   -5.1797   -1.5655   -0.8693 H   0  0  0  0  0  0  0  0  0  0  0  0
   -5.2366   -0.1086    0.1114 H   0  0  0  0  0  0  0  0  0  0  0  0
   -2.7579   -1.9081   -0.0486 H   0  0  0  0  0  0  0  0  0  0  0  0
   -4.0775   -2.2709    1.0398 H   0  0  0  0  0  0  0  0  0  0  0  0
   -2.0405   -1.0003    1.9611 H   0  0  0  0  0  0  0  0  0  0  0  0
   -3.6403   -0.5158    2.4693 H   0  0  0  0  0  0  0  0  0  0  0  0
   -2.0434    1.3988    1.9291 H   0  0  0  0  0  0  0  0  0  0  0  0
   -3.6324    1.4751    1.2488 H   0  0  0  0  0  0  0  0  0  0  0  0
   -1.0800    0.1982   -2.5264 H   0  0  0  0  0  0  0  0  0  0  0  0
   -0.3030    1.7667   -2.2858 H   0  0  0  0  0  0  0  0  0  0  0  0
    1.3199    0.2525   -3.2123 H   0  0  0  0  0  0  0  0  0  0  0  0
    0.8870   -1.0335   -2.0891 H   0  0  0  0  0  0  0  0  0  0  0  0
    2.1947    1.6358   -1.3473 H   0  0  0  0  0  0  0  0  0  0  0  0
    3.8115    0.1936   -2.4246 H   0  0  0  0  0  0  0  0  0  0  0  0
    3.2800   -1.2226   -1.5205 H   0  0  0  0  0  0  0  0  0  0  0  0
    5.3509   -0.2952   -0.5942 H   0  0  0  0  0  0  0  0  0  0  0  0
    4.5997    1.2789   -0.3435 H   0  0  0  0  0  0  0  0  0  0  0  0
  1  2  3  0
  2  3  1  0
  3  4  1  0
  4  5  3  0
  3  6  2  3
  6  7  1  0
  7  8  2  0
  8  9  1  0
  9 10  2  0
 10 11  1  0
 11 12  1  0
 12 13  1  0
 13 14  1  0
 14 15  1  0
 15 16  1  0
 16 17  1  0
 10 18  1  0
 18 19  1  0
 19 20  1  0
 20 21  1  0
 21 22  1  0
 22  6  1  0
 20  8  1  0
 17 11  1  0
  7 23  1  0
  9 24  1  0
 12 25  1  0
 12 26  1  0
 13 27  1  0
 13 28  1  0
 14 29  1  0
 14 30  1  0
 15 31  1  0
 15 32  1  0
 16 33  1  0
 16 34  1  0
 17 35  1  0
 17 36  1  0
 18 37  1  0
 18 38  1  0
 19 39  1  0
 19 40  1  0
 20 41  1  0
 21 42  1  0
 21 43  1  0
 22 44  1  0
 22 45  1  0
M  END
$$$$
