
     RDKit          3D

 36 37  0  0  0  0  0  0  0  0999 V2000
    4.5044    0.9471   -0.3102 C   0  0  0  0  0  0  0  0  0  0  0  0
    4.5034   -0.4409   -0.7278 N   0  0  0  0  0  0  0  0  0  0  0  0
    3.4027   -1.1521   -1.1165 C   0  0  0  0  0  0  0  0  0  0  0  0
    3.6474   -2.3197   -2.2941 S   0  0  0  0  0  0  0  0  0  0  0  0
    2.1934   -0.8400   -0.5190 N   0  0  0  0  0  0  0  0  0  0  0  0
    2.1182   -0.6986    0.9378 C   0  0  0  0  0  0  0  0  0  0  0  0
    1.1128    0.3799    1.3313 C   0  0  0  0  0  0  0  0  0  0  0  0
   -0.2113    0.1933    0.6328 C   0  0  0  0  0  0  0  0  0  0  0  0
   -1.3614    0.8194    1.1377 C   0  0  0  0  0  0  0  0  0  0  0  0
   -2.5943    0.6823    0.4904 C   0  0  0  0  0  0  0  0  0  0  0  0
   -3.7656    1.2555    0.9216 O   0  0  0  0  0  0  0  0  0  0  0  0
   -3.7214    2.0396    2.1043 C   0  0  0  0  0  0  0  0  0  0  0  0
   -2.6791   -0.0865   -0.6862 C   0  0  0  0  0  0  0  0  0  0  0  0
   -3.9241   -0.1767   -1.2590 O   0  0  0  0  0  0  0  0  0  0  0  0
   -4.0467   -0.9236   -2.4604 C   0  0  0  0  0  0  0  0  0  0  0  0
   -1.5283   -0.7000   -1.1948 C   0  0  0  0  0  0  0  0  0  0  0  0
   -0.2877   -0.5578   -0.5507 C   0  0  0  0  0  0  0  0  0  0  0  0
    0.9252   -1.2564   -1.1293 C   0  0  0  0  0  0  0  0  0  0  0  0
    3.5300    1.4153   -0.4648 H   0  0  0  0  0  0  0  0  0  0  0  0
    4.7942    0.9948    0.7419 H   0  0  0  0  0  0  0  0  0  0  0  0
    5.2518    1.4777   -0.9065 H   0  0  0  0  0  0  0  0  0  0  0  0
    5.3466   -0.7504   -1.1986 H   0  0  0  0  0  0  0  0  0  0  0  0
    3.0943   -0.4897    1.3825 H   0  0  0  0  0  0  0  0  0  0  0  0
    1.8102   -1.6744    1.3378 H   0  0  0  0  0  0  0  0  0  0  0  0
    1.5033    1.3680    1.0599 H   0  0  0  0  0  0  0  0  0  0  0  0
    0.9733    0.3575    2.4183 H   0  0  0  0  0  0  0  0  0  0  0  0
   -1.2669    1.4114    2.0423 H   0  0  0  0  0  0  0  0  0  0  0  0
   -4.7322    2.4120    2.2968 H   0  0  0  0  0  0  0  0  0  0  0  0
   -3.4201    1.4368    2.9674 H   0  0  0  0  0  0  0  0  0  0  0  0
   -3.0664    2.9080    1.9787 H   0  0  0  0  0  0  0  0  0  0  0  0
   -3.4391   -0.4885   -3.2607 H   0  0  0  0  0  0  0  0  0  0  0  0
   -5.0932   -0.8786   -2.7769 H   0  0  0  0  0  0  0  0  0  0  0  0
   -3.7943   -1.9767   -2.2981 H   0  0  0  0  0  0  0  0  0  0  0  0
   -1.5678   -1.2986   -2.0997 H   0  0  0  0  0  0  0  0  0  0  0  0
    0.8140   -2.3372   -0.9768 H   0  0  0  0  0  0  0  0  0  0  0  0
    0.9748   -1.0522   -2.2053 H   0  0  0  0  0  0  0  0  0  0  0  0
  1  2  1  0
  2  3  1  0
  3  4  2  0
  3  5  1  0
  5  6  1  0
  6  7  1  0
  7  8  1  0
  8  9  2  0
  9 10  1  0
 10 11  1  0
 11 12  1  0
 10 13  2  0
 13 14  1  0
 14 15  1  0
 13 16  1  0
 16 17  2  0
 17 18  1  0
 18  5  1  0
 17  8  1  0
  1 19  1  0
  1 20  1  0
  1 21  1  0
  2 22  1  0
  6 23  1  0
  6 24  1  0
  7 25  1  0
  7 26  1  0
  9 27  1  0
 12 28  1  0
 12 29  1  0
 12 30  1  0
 15 31  1  0
 15 32  1  0
 15 33  1  0
 16 34  1  0
 18 35  1  0
 18 36  1  0
M  END
$$$$
