
     RDKit          3D

 57 61  0  0  0  0  0  0  0  0999 V2000
   -3.9279    1.6098    3.6830 C   0  0  0  0  0  0  0  0  0  0  0  0
   -5.0859    1.7536    2.7824 N   0  0  0  0  0  0  0  0  0  0  0  0
   -5.9074    0.5360    2.6899 C   0  0  0  0  0  0  0  0  0  0  0  0
   -4.8516    2.6345    1.3462 S   0  0  0  0  0  6  0  0  0  0  0  0
   -6.1317    2.7488    0.6777 O   0  0  0  0  0  0  0  0  0  0  0  0
   -4.0581    3.8073    1.6409 O   0  0  0  0  0  0  0  0  0  0  0  0
   -3.8425    1.5466    0.3598 C   0  0  0  0  0  0  0  0  0  0  0  0
   -4.4239    0.7824   -0.6487 C   0  0  0  0  0  0  0  0  0  0  0  0
   -3.6231   -0.0530   -1.4324 C   0  0  0  0  0  0  0  0  0  0  0  0
   -2.2311   -0.1417   -1.2357 C   0  0  0  0  0  0  0  0  0  0  0  0
   -1.4452   -1.0314   -1.9897 N   0  0  0  0  0  0  0  0  0  0  0  0
   -1.3702   -2.3906   -1.3943 C   0  0  0  0  0  0  0  0  0  0  0  0
   -1.4241   -3.3521   -2.5832 C   0  0  0  0  0  0  0  0  0  0  0  0
   -1.0145   -2.4920   -3.7666 C   0  0  0  0  0  0  0  0  0  0  0  0
   -1.6836   -1.1617   -3.4389 C   0  0  0  0  0  0  0  0  0  0  0  0
   -1.6576    0.6516   -0.2047 C   0  0  0  0  0  0  0  0  0  0  0  0
   -0.1931    0.6532    0.1339 C   0  0  0  0  0  0  0  0  0  0  0  0
    0.1463    1.0402    1.2467 O   0  0  0  0  0  0  0  0  0  0  0  0
    0.6307    0.2083   -0.8655 N   0  0  0  0  0  0  0  0  0  0  0  0
    1.9841    0.1045   -0.7424 C   0  0  0  0  0  0  0  0  0  0  0  0
    2.7549    0.4366    0.2554 N   0  0  0  0  0  0  0  0  0  0  0  0
    4.0797    0.1465   -0.0550 C   0  0  0  0  0  0  0  0  0  0  0  0
    4.2740   -0.4114   -1.3219 C   0  0  0  0  0  0  0  0  0  0  0  0
    5.5477   -0.7611   -1.7977 C   0  0  0  0  0  0  0  0  0  0  0  0
    6.6525   -0.5410   -0.9672 C   0  0  0  0  0  0  0  0  0  0  0  0
    6.5072    0.0122    0.3101 C   0  0  0  0  0  0  0  0  0  0  0  0
    7.6103    0.2345    1.1501 C   0  0  0  0  0  0  0  0  0  0  0  0
    7.4383    0.7861    2.4234 C   0  0  0  0  0  0  0  0  0  0  0  0
    6.1652    1.1253    2.8782 C   0  0  0  0  0  0  0  0  0  0  0  0
    5.0553    0.9163    2.0604 C   0  0  0  0  0  0  0  0  0  0  0  0
    5.2169    0.3600    0.7765 C   0  0  0  0  0  0  0  0  0  0  0  0
    2.7470   -0.5672   -2.1088 S   0  0  0  0  0  0  0  0  0  0  0  0
   -2.4659    1.5024    0.5703 C   0  0  0  0  0  0  0  0  0  0  0  0
   -3.2351    0.8495    3.3158 H   0  0  0  0  0  0  0  0  0  0  0  0
   -3.4019    2.5593    3.8060 H   0  0  0  0  0  0  0  0  0  0  0  0
   -4.2724    1.3082    4.6770 H   0  0  0  0  0  0  0  0  0  0  0  0
   -6.2209    0.2275    3.6929 H   0  0  0  0  0  0  0  0  0  0  0  0
   -6.8208    0.7182    2.1150 H   0  0  0  0  0  0  0  0  0  0  0  0
   -5.3455   -0.2847    2.2339 H   0  0  0  0  0  0  0  0  0  0  0  0
   -5.4953    0.8267   -0.8334 H   0  0  0  0  0  0  0  0  0  0  0  0
   -4.1194   -0.6593   -2.1846 H   0  0  0  0  0  0  0  0  0  0  0  0
   -2.1870   -2.6067   -0.6970 H   0  0  0  0  0  0  0  0  0  0  0  0
   -0.4209   -2.4983   -0.8592 H   0  0  0  0  0  0  0  0  0  0  0  0
   -0.7768   -4.2235   -2.4453 H   0  0  0  0  0  0  0  0  0  0  0  0
   -2.4506   -3.7112   -2.7244 H   0  0  0  0  0  0  0  0  0  0  0  0
    0.0760   -2.3785   -3.7899 H   0  0  0  0  0  0  0  0  0  0  0  0
   -1.3439   -2.9041   -4.7244 H   0  0  0  0  0  0  0  0  0  0  0  0
   -1.2290   -0.3307   -3.9926 H   0  0  0  0  0  0  0  0  0  0  0  0
   -2.7473   -1.2239   -3.6984 H   0  0  0  0  0  0  0  0  0  0  0  0
    0.1990   -0.1597   -1.7071 H   0  0  0  0  0  0  0  0  0  0  0  0
    5.6768   -1.1914   -2.7860 H   0  0  0  0  0  0  0  0  0  0  0  0
    7.6409   -0.8108   -1.3352 H   0  0  0  0  0  0  0  0  0  0  0  0
    8.6153   -0.0197    0.8200 H   0  0  0  0  0  0  0  0  0  0  0  0
    8.3025    0.9520    3.0611 H   0  0  0  0  0  0  0  0  0  0  0  0
    6.0350    1.5525    3.8694 H   0  0  0  0  0  0  0  0  0  0  0  0
    4.0614    1.1843    2.4171 H   0  0  0  0  0  0  0  0  0  0  0  0
   -2.0128    2.1303    1.3370 H   0  0  0  0  0  0  0  0  0  0  0  0
  1  2  1  0
  2  3  1  0
  2  4  1  0
  4  5  2  0
  4  6  2  0
  4  7  1  0
  7  8  2  0
  8  9  1  0
  9 10  2  0
 10 11  1  0
 11 12  1  0
 12 13  1  0
 13 14  1  0
 14 15  1  0
 10 16  1  0
 16 17  1  0
 17 18  2  0
 17 19  1  0
 19 20  1  0
 20 21  2  0
 21 22  1  0
 22 23  2  0
 23 24  1  0
 24 25  2  0
 25 26  1  0
 26 27  2  0
 27 28  1  0
 28 29  2  0
 29 30  1  0
 30 31  2  0
 23 32  1  0
 16 33  2  0
 33  7  1  0
 15 11  1  0
 32 20  1  0
 31 22  1  0
 31 26  1  0
  1 34  1  0
  1 35  1  0
  1 36  1  0
  3 37  1  0
  3 38  1  0
  3 39  1  0
  8 40  1  0
  9 41  1  0
 12 42  1  0
 12 43  1  0
 13 44  1  0
 13 45  1  0
 14 46  1  0
 14 47  1  0
 15 48  1  0
 15 49  1  0
 19 50  1  0
 24 51  1  0
 25 52  1  0
 27 53  1  0
 28 54  1  0
 29 55  1  0
 30 56  1  0
 33 57  1  0
M  END
$$$$
