
     RDKit          3D

 35 37  0  0  0  0  0  0  0  0999 V2000
   -3.8658    0.3397   -2.6683 C   0  0  0  0  0  0  0  0  0  0  0  0
   -3.1217   -0.3522   -1.6752 O   0  0  0  0  0  0  0  0  0  0  0  0
   -3.9061   -0.6176   -0.5116 C   0  0  0  0  0  0  0  0  0  0  0  0
   -3.0672   -1.3760    0.5272 C   0  0  0  0  0  0  0  0  0  0  0  0
   -1.9170   -0.5880    1.0045 N   0  0  0  0  0  0  0  0  0  0  0  0
   -2.0712    0.3849    2.0112 C   0  0  0  0  0  0  0  0  0  0  0  0
   -3.4796    0.7374    2.8603 S   0  0  0  0  0  0  0  0  0  0  0  0
   -0.9656    1.1267    2.3489 N   0  0  0  0  0  0  0  0  0  0  0  0
    0.2130    0.9131    1.7097 C   0  0  0  0  0  0  0  0  0  0  0  0
    1.5534    1.8362    2.1176 S   0  0  0  0  0  0  0  0  0  0  0  0
    2.4991    0.9940    0.9695 C   0  0  0  0  0  0  0  0  0  0  0  0
    1.7744    0.0287    0.2832 C   0  0  0  0  0  0  0  0  0  0  0  0
    0.4160   -0.0186    0.7391 C   0  0  0  0  0  0  0  0  0  0  0  0
   -0.6922   -0.8682    0.3465 C   0  0  0  0  0  0  0  0  0  0  0  0
   -0.5343   -1.7758   -0.4662 O   0  0  0  0  0  0  0  0  0  0  0  0
    2.4048   -0.8397   -0.7661 C   0  0  0  0  0  0  0  0  0  0  0  0
    3.7588   -0.2803   -1.2331 C   0  0  0  0  0  0  0  0  0  0  0  0
    4.6223    0.1878   -0.0528 C   0  0  0  0  0  0  0  0  0  0  0  0
    3.9423    1.3167    0.7373 C   0  0  0  0  0  0  0  0  0  0  0  0
   -3.2150    0.5098   -3.5301 H   0  0  0  0  0  0  0  0  0  0  0  0
   -4.2029    1.3088   -2.2882 H   0  0  0  0  0  0  0  0  0  0  0  0
   -4.7236   -0.2584   -2.9904 H   0  0  0  0  0  0  0  0  0  0  0  0
   -4.7672   -1.2346   -0.7932 H   0  0  0  0  0  0  0  0  0  0  0  0
   -4.2744    0.3300   -0.1061 H   0  0  0  0  0  0  0  0  0  0  0  0
   -2.7149   -2.3132    0.0822 H   0  0  0  0  0  0  0  0  0  0  0  0
   -3.6978   -1.6567    1.3766 H   0  0  0  0  0  0  0  0  0  0  0  0
   -1.0327    1.8400    3.0646 H   0  0  0  0  0  0  0  0  0  0  0  0
    2.5519   -1.8422   -0.3459 H   0  0  0  0  0  0  0  0  0  0  0  0
    1.7416   -0.9380   -1.6325 H   0  0  0  0  0  0  0  0  0  0  0  0
    4.2917   -1.0473   -1.8063 H   0  0  0  0  0  0  0  0  0  0  0  0
    3.5909    0.5666   -1.9108 H   0  0  0  0  0  0  0  0  0  0  0  0
    5.5972    0.5327   -0.4157 H   0  0  0  0  0  0  0  0  0  0  0  0
    4.8114   -0.6646    0.6125 H   0  0  0  0  0  0  0  0  0  0  0  0
    4.4708    1.4672    1.6854 H   0  0  0  0  0  0  0  0  0  0  0  0
    4.0098    2.2512    0.1667 H   0  0  0  0  0  0  0  0  0  0  0  0
  1  2  1  0
  2  3  1  0
  3  4  1  0
  4  5  1  0
  5  6  1  0
  6  7  2  0
  6  8  1  0
  8  9  1  0
  9 10  1  0
 10 11  1  0
 11 12  2  0
 12 13  1  0
 13 14  1  0
 14 15  2  0
 12 16  1  0
 16 17  1  0
 17 18  1  0
 18 19  1  0
 14  5  1  0
 13  9  2  0
 19 11  1  0
  1 20  1  0
  1 21  1  0
  1 22  1  0
  3 23  1  0
  3 24  1  0
  4 25  1  0
  4 26  1  0
  8 27  1  0
 16 28  1  0
 16 29  1  0
 17 30  1  0
 17 31  1  0
 18 32  1  0
 18 33  1  0
 19 34  1  0
 19 35  1  0
M  END
$$$$
