
     RDKit          3D

 48 53  0  0  0  0  0  0  0  0999 V2000
    2.7668   -0.3080    2.2752 O   0  0  0  0  0  0  0  0  0  0  0  0
    3.1698   -0.4793    1.1285 C   0  0  0  0  0  0  0  0  0  0  0  0
    2.3560   -0.7388    0.0519 N   0  0  0  0  0  0  0  0  0  0  0  0
    1.0395   -0.3790    0.0926 N   0  0  0  0  0  0  0  0  0  0  0  0
    0.0899   -0.8212    0.9949 C   0  0  0  0  0  0  0  0  0  0  0  0
    0.3679   -1.4855    2.1141 O   0  0  0  0  0  0  0  0  0  0  0  0
   -1.1198   -0.4127    0.4899 C   0  0  0  0  0  0  0  0  0  0  0  0
   -0.8816    0.3105   -0.7428 C   0  0  0  0  0  0  0  0  0  0  0  0
    0.4731    0.2978   -0.9729 C   0  0  0  0  0  0  0  0  0  0  0  0
    1.2233    0.7650   -1.9691 O   0  0  0  0  0  0  0  0  0  0  0  0
   -2.1238    0.8396   -1.4288 C   0  0  0  0  0  0  0  0  0  0  0  0
   -2.7524    1.6688   -0.2970 C   0  0  0  0  0  0  0  0  0  0  0  0
   -3.0976    3.0114   -0.4004 C   0  0  0  0  0  0  0  0  0  0  0  0
   -3.6643    3.6457    0.7079 C   0  0  0  0  0  0  0  0  0  0  0  0
   -3.8850    2.9478    1.9061 C   0  0  0  0  0  0  0  0  0  0  0  0
   -3.5461    1.5980    2.0250 C   0  0  0  0  0  0  0  0  0  0  0  0
   -2.9820    0.9522    0.9312 C   0  0  0  0  0  0  0  0  0  0  0  0
   -2.5637   -0.5299    0.9166 C   0  0  0  0  0  0  0  0  0  0  0  0
   -3.1836   -1.1646   -0.3425 C   0  0  0  0  0  0  0  0  0  0  0  0
   -3.9219   -2.3421   -0.3462 C   0  0  0  0  0  0  0  0  0  0  0  0
   -4.4338   -2.8095   -1.5587 C   0  0  0  0  0  0  0  0  0  0  0  0
   -4.2122   -2.1088   -2.7551 C   0  0  0  0  0  0  0  0  0  0  0  0
   -3.4717   -0.9243   -2.7687 C   0  0  0  0  0  0  0  0  0  0  0  0
   -2.9532   -0.4473   -1.5703 C   0  0  0  0  0  0  0  0  0  0  0  0
    4.6330   -0.4367    0.8490 C   0  0  0  0  0  0  0  0  0  0  0  0
    5.2113   -1.1496   -0.2108 C   0  0  0  0  0  0  0  0  0  0  0  0
    6.5911   -1.0798   -0.4296 C   0  0  0  0  0  0  0  0  0  0  0  0
    7.3913   -0.3065    0.4112 C   0  0  0  0  0  0  0  0  0  0  0  0
    9.0872   -0.2242    0.1368 Cl  0  0  0  0  0  0  0  0  0  0  0  0
    6.8268    0.3939    1.4754 C   0  0  0  0  0  0  0  0  0  0  0  0
    5.4488    0.3253    1.6973 C   0  0  0  0  0  0  0  0  0  0  0  0
    2.7244   -0.5984   -0.8814 H   0  0  0  0  0  0  0  0  0  0  0  0
    1.2927   -1.2588    2.3605 H   0  0  0  0  0  0  0  0  0  0  0  0
    0.6226    1.2189   -2.5873 H   0  0  0  0  0  0  0  0  0  0  0  0
   -1.9407    1.3816   -2.3582 H   0  0  0  0  0  0  0  0  0  0  0  0
   -2.9335    3.5644   -1.3196 H   0  0  0  0  0  0  0  0  0  0  0  0
   -3.9386    4.6962    0.6447 H   0  0  0  0  0  0  0  0  0  0  0  0
   -4.3252    3.4669    2.7544 H   0  0  0  0  0  0  0  0  0  0  0  0
   -3.7184    1.0694    2.9576 H   0  0  0  0  0  0  0  0  0  0  0  0
   -2.7328   -1.0740    1.8473 H   0  0  0  0  0  0  0  0  0  0  0  0
   -4.0976   -2.8935    0.5725 H   0  0  0  0  0  0  0  0  0  0  0  0
   -5.0126   -3.7302   -1.5771 H   0  0  0  0  0  0  0  0  0  0  0  0
   -4.6245   -2.4964   -3.6840 H   0  0  0  0  0  0  0  0  0  0  0  0
   -3.3103   -0.3932   -3.7013 H   0  0  0  0  0  0  0  0  0  0  0  0
    4.6128   -1.7847   -0.8586 H   0  0  0  0  0  0  0  0  0  0  0  0
    7.0364   -1.6370   -1.2503 H   0  0  0  0  0  0  0  0  0  0  0  0
    7.4500    0.9906    2.1367 H   0  0  0  0  0  0  0  0  0  0  0  0
    5.0125    0.8703    2.5330 H   0  0  0  0  0  0  0  0  0  0  0  0
  1  2  2  0
  2  3  1  0
  3  4  1  0
  4  5  1  0
  5  6  1  0
  5  7  2  0
  7  8  1  0
  8  9  2  0
  9 10  1  0
  8 11  1  0
 11 12  1  0
 12 13  2  0
 13 14  1  0
 14 15  2  0
 15 16  1  0
 16 17  2  0
 17 18  1  0
 18 19  1  0
 19 20  2  0
 20 21  1  0
 21 22  2  0
 22 23  1  0
 23 24  2  0
  2 25  1  0
 25 26  2  0
 26 27  1  0
 27 28  2  0
 28 29  1  0
 28 30  1  0
 30 31  2  0
  9  4  1  0
 24 11  1  0
 31 25  1  0
 18  7  1  0
 24 19  1  0
 17 12  1  0
  3 32  1  0
  6 33  1  0
 10 34  1  0
 11 35  1  0
 13 36  1  0
 14 37  1  0
 15 38  1  0
 16 39  1  0
 18 40  1  0
 20 41  1  0
 21 42  1  0
 22 43  1  0
 23 44  1  0
 26 45  1  0
 27 46  1  0
 30 47  1  0
 31 48  1  0
M  END
$$$$
