
     RDKit          3D

 54 56  0  0  0  0  0  0  0  0999 V2000
   -4.9370   -2.5733   -1.1704 C   0  0  0  0  0  0  0  0  0  0  0  0
   -4.8197   -1.2551   -0.4507 C   0  0  0  0  0  0  0  0  0  0  0  0
   -6.0252   -0.5871   -0.1763 C   0  0  0  0  0  0  0  0  0  0  0  0
   -6.0383    0.5869    0.5625 C   0  0  0  0  0  0  0  0  0  0  0  0
   -4.8459    1.1060    1.0552 C   0  0  0  0  0  0  0  0  0  0  0  0
   -3.6097    0.4775    0.8042 C   0  0  0  0  0  0  0  0  0  0  0  0
   -2.3278    1.1213    1.3425 C   0  0  0  0  0  0  0  0  0  0  0  0
   -1.7008    2.0256    0.2774 C   0  0  0  0  0  0  0  0  0  0  0  0
   -2.4907    1.9032    2.6550 C   0  0  0  0  0  0  0  0  0  0  0  0
   -3.5979   -0.6898   -0.0146 C   0  0  0  0  0  0  0  0  0  0  0  0
   -2.3482   -1.2840   -0.3281 N   0  0  0  0  0  0  0  0  0  0  0  0
   -1.9669   -1.7253   -1.5900 C   0  0  0  0  0  0  0  0  0  0  0  0
   -2.6420   -1.6844   -2.6143 O   0  0  0  0  0  0  0  0  0  0  0  0
   -0.5438   -2.2667   -1.6163 C   0  0  0  0  0  0  0  0  0  0  0  0
    0.4277   -1.1270   -1.5345 C   0  0  0  0  0  0  0  0  0  0  0  0
    0.7853   -0.2368   -2.5269 C   0  0  0  0  0  0  0  0  0  0  0  0
    1.6972    0.7516   -2.0582 C   0  0  0  0  0  0  0  0  0  0  0  0
    2.0179    0.5843   -0.7242 C   0  0  0  0  0  0  0  0  0  0  0  0
    3.0680    1.5307    0.3677 S   0  0  0  0  0  6  0  0  0  0  0  0
    2.4507    1.4690    1.6751 O   0  0  0  0  0  0  0  0  0  0  0  0
    3.2392    2.7917   -0.3233 O   0  0  0  0  0  0  0  0  0  0  0  0
    4.5834    0.7786    0.4452 N   0  0  0  0  0  0  0  0  0  0  0  0
    4.6600   -0.5130    1.1819 C   0  0  0  0  0  0  0  0  0  0  0  0
    6.1314   -0.8847    1.4016 C   0  0  0  0  0  0  0  0  0  0  0  0
    6.8306   -0.9731    0.1498 O   0  0  0  0  0  0  0  0  0  0  0  0
    6.7988    0.2926   -0.5284 C   0  0  0  0  0  0  0  0  0  0  0  0
    5.3577    0.7239   -0.8269 C   0  0  0  0  0  0  0  0  0  0  0  0
    1.2321   -0.7821   -0.0627 S   0  0  0  0  0  0  0  0  0  0  0  0
   -5.8444   -3.1007   -0.8528 H   0  0  0  0  0  0  0  0  0  0  0  0
   -4.9996   -2.4173   -2.2510 H   0  0  0  0  0  0  0  0  0  0  0  0
   -4.1067   -3.2450   -0.9347 H   0  0  0  0  0  0  0  0  0  0  0  0
   -6.9691   -0.9959   -0.5316 H   0  0  0  0  0  0  0  0  0  0  0  0
   -6.9786    1.0930    0.7649 H   0  0  0  0  0  0  0  0  0  0  0  0
   -4.9016    2.0277    1.6283 H   0  0  0  0  0  0  0  0  0  0  0  0
   -1.6178    0.3272    1.5953 H   0  0  0  0  0  0  0  0  0  0  0  0
   -0.7486    2.4372    0.6292 H   0  0  0  0  0  0  0  0  0  0  0  0
   -2.3602    2.8655    0.0307 H   0  0  0  0  0  0  0  0  0  0  0  0
   -1.5041    1.4799   -0.6509 H   0  0  0  0  0  0  0  0  0  0  0  0
   -3.0561    2.8309    2.5185 H   0  0  0  0  0  0  0  0  0  0  0  0
   -1.5085    2.1825    3.0531 H   0  0  0  0  0  0  0  0  0  0  0  0
   -2.9974    1.2982    3.4148 H   0  0  0  0  0  0  0  0  0  0  0  0
   -1.5660   -1.0077    0.2480 H   0  0  0  0  0  0  0  0  0  0  0  0
   -0.4163   -2.9830   -0.7965 H   0  0  0  0  0  0  0  0  0  0  0  0
   -0.3973   -2.8220   -2.5500 H   0  0  0  0  0  0  0  0  0  0  0  0
    0.3865   -0.2741   -3.5356 H   0  0  0  0  0  0  0  0  0  0  0  0
    2.0875    1.5660   -2.6583 H   0  0  0  0  0  0  0  0  0  0  0  0
    4.1637   -0.4342    2.1533 H   0  0  0  0  0  0  0  0  0  0  0  0
    4.1778   -1.2965    0.5884 H   0  0  0  0  0  0  0  0  0  0  0  0
    6.6357   -0.1528    2.0437 H   0  0  0  0  0  0  0  0  0  0  0  0
    6.1995   -1.8624    1.8888 H   0  0  0  0  0  0  0  0  0  0  0  0
    7.3176    1.0397    0.0839 H   0  0  0  0  0  0  0  0  0  0  0  0
    7.3551    0.1813   -1.4644 H   0  0  0  0  0  0  0  0  0  0  0  0
    4.8882   -0.0026   -1.4999 H   0  0  0  0  0  0  0  0  0  0  0  0
    5.3747    1.7043   -1.3118 H   0  0  0  0  0  0  0  0  0  0  0  0
  1  2  1  0
  2  3  2  0
  3  4  1  0
  4  5  2  0
  5  6  1  0
  6  7  1  0
  7  8  1  0
  7  9  1  0
  6 10  2  0
 10 11  1  0
 11 12  1  0
 12 13  2  0
 12 14  1  0
 14 15  1  0
 15 16  2  0
 16 17  1  0
 17 18  2  0
 18 19  1  0
 19 20  2  0
 19 21  2  0
 19 22  1  0
 22 23  1  0
 23 24  1  0
 24 25  1  0
 25 26  1  0
 26 27  1  0
 18 28  1  0
 10  2  1  0
 28 15  1  0
 27 22  1  0
  1 29  1  0
  1 30  1  0
  1 31  1  0
  3 32  1  0
  4 33  1  0
  5 34  1  0
  7 35  1  0
  8 36  1  0
  8 37  1  0
  8 38  1  0
  9 39  1  0
  9 40  1  0
  9 41  1  0
 11 42  1  0
 14 43  1  0
 14 44  1  0
 16 45  1  0
 17 46  1  0
 23 47  1  0
 23 48  1  0
 24 49  1  0
 24 50  1  0
 26 51  1  0
 26 52  1  0
 27 53  1  0
 27 54  1  0
M  END
$$$$
