
     RDKit          3D

 42 45  0  0  0  0  0  0  0  0999 V2000
   -3.5171   -2.0454    0.9568 O   0  0  0  0  0  0  0  0  0  0  0  0
   -3.3101   -0.9611    0.4252 C   0  0  0  0  0  0  0  0  0  0  0  0
   -2.0566   -0.4263    0.2251 N   0  0  0  0  0  0  0  0  0  0  0  0
   -0.8477   -1.1706    0.4877 C   0  0  0  0  0  0  0  0  0  0  0  0
   -0.5443   -2.1423   -0.6753 C   0  0  0  0  0  0  0  0  0  0  0  0
    0.8968   -2.6727   -0.6211 C   0  0  0  0  0  0  0  0  0  0  0  0
    1.9420   -1.5426   -0.7128 C   0  0  0  0  0  0  0  0  0  0  0  0
    1.5650   -0.4186    0.1956 C   0  0  0  0  0  0  0  0  0  0  0  0
    0.2814   -0.2131    0.6759 C   0  0  0  0  0  0  0  0  0  0  0  0
    0.3321    1.0403    1.2973 C   0  0  0  0  0  0  0  0  0  0  0  0
    1.5247    1.6195    1.1728 N   0  0  0  0  0  0  0  0  0  0  0  0
    2.3205    0.6781    0.5840 N   0  0  0  0  0  0  0  0  0  0  0  0
    3.6973    0.9687    0.4135 C   0  0  0  0  0  0  0  0  0  0  0  0
    4.0914    2.3103    0.2617 C   0  0  0  0  0  0  0  0  0  0  0  0
    5.4374    2.6376    0.0756 C   0  0  0  0  0  0  0  0  0  0  0  0
    6.4039    1.6345    0.0642 C   0  0  0  0  0  0  0  0  0  0  0  0
    6.0243    0.3080    0.2610 C   0  0  0  0  0  0  0  0  0  0  0  0
    4.6795   -0.0177    0.4454 C   0  0  0  0  0  0  0  0  0  0  0  0
    4.3981   -1.2848    0.7728 F   0  0  0  0  0  0  0  0  0  0  0  0
   -4.4295   -0.1026   -0.0809 C   0  0  0  0  0  0  0  0  0  0  0  0
   -5.7470   -0.5044    0.0977 C   0  0  0  0  0  0  0  0  0  0  0  0
   -6.7545    0.3218   -0.3903 C   0  0  0  0  0  0  0  0  0  0  0  0
   -6.4128    1.5080   -1.0337 C   0  0  0  0  0  0  0  0  0  0  0  0
   -5.0694    1.8266   -1.1677 C   0  0  0  0  0  0  0  0  0  0  0  0
   -4.0631    1.0517   -0.7095 N   0  0  0  0  0  0  0  0  0  0  0  0
   -2.0224    0.4167   -0.3432 H   0  0  0  0  0  0  0  0  0  0  0  0
   -0.9807   -1.7479    1.4113 H   0  0  0  0  0  0  0  0  0  0  0  0
   -0.6971   -1.6374   -1.6393 H   0  0  0  0  0  0  0  0  0  0  0  0
   -1.2502   -2.9813   -0.6509 H   0  0  0  0  0  0  0  0  0  0  0  0
    1.0606   -3.3843   -1.4384 H   0  0  0  0  0  0  0  0  0  0  0  0
    1.0377   -3.2253    0.3170 H   0  0  0  0  0  0  0  0  0  0  0  0
    2.9158   -1.9775   -0.5036 H   0  0  0  0  0  0  0  0  0  0  0  0
    1.9710   -1.1626   -1.7415 H   0  0  0  0  0  0  0  0  0  0  0  0
   -0.4631    1.5769    1.7998 H   0  0  0  0  0  0  0  0  0  0  0  0
    3.3518    3.1100    0.2665 H   0  0  0  0  0  0  0  0  0  0  0  0
    5.7280    3.6774   -0.0555 H   0  0  0  0  0  0  0  0  0  0  0  0
    7.4521    1.8881   -0.0724 H   0  0  0  0  0  0  0  0  0  0  0  0
    6.7729   -0.4777    0.3023 H   0  0  0  0  0  0  0  0  0  0  0  0
   -5.9813   -1.4352    0.6040 H   0  0  0  0  0  0  0  0  0  0  0  0
   -7.7978    0.0427   -0.2691 H   0  0  0  0  0  0  0  0  0  0  0  0
   -7.1783    2.1711   -1.4229 H   0  0  0  0  0  0  0  0  0  0  0  0
   -4.7616    2.7436   -1.6634 H   0  0  0  0  0  0  0  0  0  0  0  0
  1  2  2  0
  2  3  1  0
  3  4  1  0
  4  5  1  0
  5  6  1  0
  6  7  1  0
  7  8  1  0
  8  9  2  0
  9 10  1  0
 10 11  2  0
 11 12  1  0
 12 13  1  0
 13 14  2  0
 14 15  1  0
 15 16  2  0
 16 17  1  0
 17 18  2  0
 18 19  1  0
  2 20  1  0
 20 21  2  0
 21 22  1  0
 22 23  2  0
 23 24  1  0
 24 25  2  0
  9  4  1  0
 18 13  1  0
 25 20  1  0
 12  8  1  0
  3 26  1  0
  4 27  1  0
  5 28  1  0
  5 29  1  0
  6 30  1  0
  6 31  1  0
  7 32  1  0
  7 33  1  0
 10 34  1  0
 14 35  1  0
 15 36  1  0
 16 37  1  0
 17 38  1  0
 21 39  1  0
 22 40  1  0
 23 41  1  0
 24 42  1  0
M  END
$$$$
