
     RDKit          3D

 38 39  0  0  0  0  0  0  0  0999 V2000
   -3.7309   -2.4114   -0.1121 C   0  0  0  0  0  0  0  0  0  0  0  0
   -2.7872   -1.9754    0.9031 N   0  0  0  0  0  0  0  0  0  0  0  0
   -3.1997   -0.7469    1.5847 C   0  0  0  0  0  0  0  0  0  0  0  0
   -3.2887    0.4783    0.6963 C   0  0  0  0  0  0  0  0  0  0  0  0
   -4.5437    1.0769    0.4850 C   0  0  0  0  0  0  0  0  0  0  0  0
   -4.6662    2.2141   -0.3107 C   0  0  0  0  0  0  0  0  0  0  0  0
   -3.5362    2.7689   -0.9019 C   0  0  0  0  0  0  0  0  0  0  0  0
   -2.2821    2.1855   -0.7043 C   0  0  0  0  0  0  0  0  0  0  0  0
   -2.1491    1.0382    0.0862 C   0  0  0  0  0  0  0  0  0  0  0  0
   -0.9665    0.3915    0.3272 O   0  0  0  0  0  0  0  0  0  0  0  0
    0.1904    0.8427   -0.3597 C   0  0  0  0  0  0  0  0  0  0  0  0
    1.3736   -0.1055   -0.1228 C   0  0  0  0  0  0  0  0  0  0  0  0
    1.2287   -1.2236    0.3605 O   0  0  0  0  0  0  0  0  0  0  0  0
    2.5756    0.4571   -0.5394 N   0  0  0  0  0  0  0  0  0  0  0  0
    3.8607   -0.1233   -0.4842 C   0  0  0  0  0  0  0  0  0  0  0  0
    4.1239   -1.3990    0.0170 C   0  0  0  0  0  0  0  0  0  0  0  0
    5.4305   -1.8988    0.0346 C   0  0  0  0  0  0  0  0  0  0  0  0
    6.4848   -1.1279   -0.4483 C   0  0  0  0  0  0  0  0  0  0  0  0
    6.2343    0.1457   -0.9502 C   0  0  0  0  0  0  0  0  0  0  0  0
    4.9291    0.6450   -0.9677 C   0  0  0  0  0  0  0  0  0  0  0  0
   -3.7962   -1.7075   -0.9474 H   0  0  0  0  0  0  0  0  0  0  0  0
   -3.4031   -3.3731   -0.5193 H   0  0  0  0  0  0  0  0  0  0  0  0
   -4.7297   -2.5600    0.3109 H   0  0  0  0  0  0  0  0  0  0  0  0
   -1.8705   -1.8060    0.4813 H   0  0  0  0  0  0  0  0  0  0  0  0
   -4.1547   -0.9209    2.0967 H   0  0  0  0  0  0  0  0  0  0  0  0
   -2.4823   -0.5349    2.3875 H   0  0  0  0  0  0  0  0  0  0  0  0
   -5.4351    0.6542    0.9440 H   0  0  0  0  0  0  0  0  0  0  0  0
   -5.6421    2.6671   -0.4654 H   0  0  0  0  0  0  0  0  0  0  0  0
   -3.6302    3.6589   -1.5189 H   0  0  0  0  0  0  0  0  0  0  0  0
   -1.4301    2.6565   -1.1815 H   0  0  0  0  0  0  0  0  0  0  0  0
    0.4678    1.8390    0.0046 H   0  0  0  0  0  0  0  0  0  0  0  0
    0.0158    0.8597   -1.4424 H   0  0  0  0  0  0  0  0  0  0  0  0
    2.5370    1.3921   -0.9238 H   0  0  0  0  0  0  0  0  0  0  0  0
    3.3357   -2.0364    0.4052 H   0  0  0  0  0  0  0  0  0  0  0  0
    5.6191   -2.8944    0.4288 H   0  0  0  0  0  0  0  0  0  0  0  0
    7.4981   -1.5206   -0.4322 H   0  0  0  0  0  0  0  0  0  0  0  0
    7.0543    0.7511   -1.3277 H   0  0  0  0  0  0  0  0  0  0  0  0
    4.7645    1.6428   -1.3652 H   0  0  0  0  0  0  0  0  0  0  0  0
  1  2  1  0
  2  3  1  0
  3  4  1  0
  4  5  2  0
  5  6  1  0
  6  7  2  0
  7  8  1  0
  8  9  2  0
  9 10  1  0
 10 11  1  0
 11 12  1  0
 12 13  2  0
 12 14  1  0
 14 15  1  0
 15 16  2  0
 16 17  1  0
 17 18  2  0
 18 19  1  0
 19 20  2  0
  9  4  1  0
 20 15  1  0
  1 21  1  0
  1 22  1  0
  1 23  1  0
  2 24  1  0
  3 25  1  0
  3 26  1  0
  5 27  1  0
  6 28  1  0
  7 29  1  0
  8 30  1  0
 11 31  1  0
 11 32  1  0
 14 33  1  0
 16 34  1  0
 17 35  1  0
 18 36  1  0
 19 37  1  0
 20 38  1  0
M  END
$$$$
