
     RDKit          3D

 62 65  0  0  0  0  0  0  0  0999 V2000
    9.5889   -3.2635   -0.5997 C   0  0  0  0  0  0  0  0  0  0  0  0
    8.1818   -3.6565   -0.1850 C   0  0  0  0  0  0  0  0  0  0  0  0
    7.3927   -2.4804    0.0578 O   0  0  0  0  0  0  0  0  0  0  0  0
    6.7619   -1.9476   -1.0215 C   0  0  0  0  0  0  0  0  0  0  0  0
    6.8200   -2.4209   -2.1504 O   0  0  0  0  0  0  0  0  0  0  0  0
    6.0365   -0.8104   -0.7026 N   0  0  0  0  0  0  0  0  0  0  0  0
    5.1036   -0.2804   -1.6895 C   0  0  0  0  0  0  0  0  0  0  0  0
    3.6838   -0.8000   -1.4079 C   0  0  0  0  0  0  0  0  0  0  0  0
    3.2830   -0.5993    0.0005 N   0  0  0  0  0  0  0  0  0  0  0  0
    1.9483   -0.5881    0.4178 C   0  0  0  0  0  0  0  0  0  0  0  0
    1.6424   -0.7611    1.5994 O   0  0  0  0  0  0  0  0  0  0  0  0
    0.8821   -0.3180   -0.6581 C   0  0  0  0  0  0  0  0  0  0  0  0
   -0.4485   -0.1855   -0.1781 O   0  0  0  0  0  0  0  0  0  0  0  0
   -0.8545    1.0311    0.3036 C   0  0  0  0  0  0  0  0  0  0  0  0
   -0.0078    2.1167    0.5528 C   0  0  0  0  0  0  0  0  0  0  0  0
   -0.5231    3.3287    1.0189 C   0  0  0  0  0  0  0  0  0  0  0  0
   -1.8899    3.4664    1.2414 C   0  0  0  0  0  0  0  0  0  0  0  0
   -2.7451    2.3825    1.0194 C   0  0  0  0  0  0  0  0  0  0  0  0
   -2.2316    1.1540    0.5641 C   0  0  0  0  0  0  0  0  0  0  0  0
   -3.1896    0.0190    0.3055 C   0  0  0  0  0  0  0  0  0  0  0  0
   -4.3665    0.0946    1.2690 C   0  0  0  0  0  0  0  0  0  0  0  0
   -4.9897    1.4112    1.2582 N   0  0  0  0  0  0  0  0  0  0  0  0
   -6.4099    1.5034    1.5793 C   0  0  0  0  0  0  0  0  0  0  0  0
   -7.2747    1.1328    0.4033 C   0  0  0  0  0  0  0  0  0  0  0  0
   -7.2904    1.9294   -0.7520 C   0  0  0  0  0  0  0  0  0  0  0  0
   -8.0944    1.5833   -1.8410 C   0  0  0  0  0  0  0  0  0  0  0  0
   -8.8918    0.4400   -1.7875 C   0  0  0  0  0  0  0  0  0  0  0  0
   -8.8849   -0.3570   -0.6440 C   0  0  0  0  0  0  0  0  0  0  0  0
   -8.0810   -0.0066    0.4378 C   0  0  0  0  0  0  0  0  0  0  0  0
   -8.0858   -0.7918    1.5247 F   0  0  0  0  0  0  0  0  0  0  0  0
   -4.2089    2.5612    1.2521 C   0  0  0  0  0  0  0  0  0  0  0  0
   -4.6638    3.6902    1.4124 O   0  0  0  0  0  0  0  0  0  0  0  0
    4.2874   -0.9843    1.0115 C   0  0  0  0  0  0  0  0  0  0  0  0
    5.6914   -0.4612    0.6746 C   0  0  0  0  0  0  0  0  0  0  0  0
   10.0417   -2.6022    0.1489 H   0  0  0  0  0  0  0  0  0  0  0  0
   10.2222   -4.1496   -0.7186 H   0  0  0  0  0  0  0  0  0  0  0  0
    9.5778   -2.7108   -1.5455 H   0  0  0  0  0  0  0  0  0  0  0  0
    7.7104   -4.3095   -0.9288 H   0  0  0  0  0  0  0  0  0  0  0  0
    8.2175   -4.2174    0.7547 H   0  0  0  0  0  0  0  0  0  0  0  0
    5.1263    0.8131   -1.6077 H   0  0  0  0  0  0  0  0  0  0  0  0
    5.4087   -0.5450   -2.7071 H   0  0  0  0  0  0  0  0  0  0  0  0
    3.6276   -1.8800   -1.5974 H   0  0  0  0  0  0  0  0  0  0  0  0
    2.9813   -0.3086   -2.0866 H   0  0  0  0  0  0  0  0  0  0  0  0
    1.1584    0.5452   -1.2733 H   0  0  0  0  0  0  0  0  0  0  0  0
    0.8755   -1.1935   -1.3173 H   0  0  0  0  0  0  0  0  0  0  0  0
    1.0651    2.0551    0.4076 H   0  0  0  0  0  0  0  0  0  0  0  0
    0.1431    4.1665    1.2081 H   0  0  0  0  0  0  0  0  0  0  0  0
   -2.2881    4.4159    1.5935 H   0  0  0  0  0  0  0  0  0  0  0  0
   -2.7032   -0.9542    0.4327 H   0  0  0  0  0  0  0  0  0  0  0  0
   -3.5410    0.0917   -0.7309 H   0  0  0  0  0  0  0  0  0  0  0  0
   -5.1060   -0.6656    0.9960 H   0  0  0  0  0  0  0  0  0  0  0  0
   -4.0409   -0.1015    2.2979 H   0  0  0  0  0  0  0  0  0  0  0  0
   -6.6747    2.5197    1.8943 H   0  0  0  0  0  0  0  0  0  0  0  0
   -6.6003    0.8576    2.4447 H   0  0  0  0  0  0  0  0  0  0  0  0
   -6.6719    2.8250   -0.8023 H   0  0  0  0  0  0  0  0  0  0  0  0
   -8.0982    2.2085   -2.7307 H   0  0  0  0  0  0  0  0  0  0  0  0
   -9.5173    0.1718   -2.6353 H   0  0  0  0  0  0  0  0  0  0  0  0
   -9.5001   -1.2495   -0.5876 H   0  0  0  0  0  0  0  0  0  0  0  0
    4.2904   -2.0804    1.0512 H   0  0  0  0  0  0  0  0  0  0  0  0
    3.9904   -0.6165    1.9993 H   0  0  0  0  0  0  0  0  0  0  0  0
    6.4232   -0.8504    1.3885 H   0  0  0  0  0  0  0  0  0  0  0  0
    5.7102    0.6328    0.7452 H   0  0  0  0  0  0  0  0  0  0  0  0
  1  2  1  0
  2  3  1  0
  3  4  1  0
  4  5  2  0
  4  6  1  0
  6  7  1  0
  7  8  1  0
  8  9  1  0
  9 10  1  0
 10 11  2  0
 10 12  1  0
 12 13  1  0
 13 14  1  0
 14 15  2  0
 15 16  1  0
 16 17  2  0
 17 18  1  0
 18 19  2  0
 19 20  1  0
 20 21  1  0
 21 22  1  0
 22 23  1  0
 23 24  1  0
 24 25  2  0
 25 26  1  0
 26 27  2  0
 27 28  1  0
 28 29  2  0
 29 30  1  0
 22 31  1  0
 31 32  2  0
  9 33  1  0
 33 34  1  0
 34  6  1  0
 19 14  1  0
 29 24  1  0
 31 18  1  0
  1 35  1  0
  1 36  1  0
  1 37  1  0
  2 38  1  0
  2 39  1  0
  7 40  1  0
  7 41  1  0
  8 42  1  0
  8 43  1  0
 12 44  1  0
 12 45  1  0
 15 46  1  0
 16 47  1  0
 17 48  1  0
 20 49  1  0
 20 50  1  0
 21 51  1  0
 21 52  1  0
 23 53  1  0
 23 54  1  0
 25 55  1  0
 26 56  1  0
 27 57  1  0
 28 58  1  0
 33 59  1  0
 33 60  1  0
 34 61  1  0
 34 62  1  0
M  END
$$$$
