
     RDKit          3D

 56 61  0  0  0  0  0  0  0  0999 V2000
    0.0697    0.6526   -3.6073 C   0  0  0  0  0  0  0  0  0  0  0  0
    0.8536    0.3399   -2.3878 C   0  0  0  0  0  0  0  0  0  0  0  0
    2.1550    0.6397   -2.3407 N   0  0  0  0  0  0  0  0  0  0  0  0
    2.5836    0.2408   -1.1020 N   0  0  0  0  0  0  0  0  0  0  0  0
    3.9499    0.4436   -0.7297 C   0  0  0  0  0  0  0  0  0  0  0  0
    4.8261    1.0445   -1.6538 C   0  0  0  0  0  0  0  0  0  0  0  0
    6.1698    1.2617   -1.3310 C   0  0  0  0  0  0  0  0  0  0  0  0
    6.6466    0.8774   -0.0735 C   0  0  0  0  0  0  0  0  0  0  0  0
    8.0556    1.1015    0.2716 N   0  0  0  0  0  4  0  0  0  0  0  0
    8.4364    0.7569    1.3997 O   0  0  0  0  0  0  0  0  0  0  0  0
    8.7841    1.6220   -0.5858 O   0  0  0  0  0  1  0  0  0  0  0  0
    5.7883    0.2808    0.8570 C   0  0  0  0  0  0  0  0  0  0  0  0
    4.4436    0.0659    0.5273 C   0  0  0  0  0  0  0  0  0  0  0  0
    1.5372   -0.3373   -0.3888 C   0  0  0  0  0  0  0  0  0  0  0  0
    0.4226   -0.2562   -1.1909 C   0  0  0  0  0  0  0  0  0  0  0  0
   -0.8727   -0.7997   -0.6998 C   0  0  0  0  0  0  0  0  0  0  0  0
   -1.7762    0.4268   -0.5575 C   0  0  0  0  0  0  0  0  0  0  0  0
   -1.5998    1.3646    0.4742 C   0  0  0  0  0  0  0  0  0  0  0  0
   -2.4355    2.4794    0.5768 C   0  0  0  0  0  0  0  0  0  0  0  0
   -3.4714    2.6812   -0.3360 C   0  0  0  0  0  0  0  0  0  0  0  0
   -4.2095    3.8112   -0.1247 O   0  0  0  0  0  0  0  0  0  0  0  0
   -5.4731    3.8675   -0.7637 C   0  0  0  0  0  0  0  0  0  0  0  0
   -6.1327    4.9439   -0.2661 F   0  0  0  0  0  0  0  0  0  0  0  0
   -5.2957    4.0997   -2.0879 F   0  0  0  0  0  0  0  0  0  0  0  0
   -3.6508    1.7671   -1.3734 C   0  0  0  0  0  0  0  0  0  0  0  0
   -2.8126    0.6504   -1.4815 C   0  0  0  0  0  0  0  0  0  0  0  0
   -0.7405   -1.5344    0.5779 N   0  0  0  0  0  0  0  0  0  0  0  0
    0.4843   -1.4512    1.2683 C   0  0  0  0  0  0  0  0  0  0  0  0
    1.5894   -0.8842    0.8514 N   0  0  0  0  0  0  0  0  0  0  0  0
    0.5887   -2.0840    2.6770 C   0  0  0  0  0  0  0  0  0  0  0  0
    1.5912   -1.9701    3.3684 O   0  0  0  0  0  0  0  0  0  0  0  0
   -0.5103   -2.7816    3.1012 N   0  0  0  0  0  0  0  0  0  0  0  0
   -1.6804   -2.9244    2.3511 C   0  0  0  0  0  0  0  0  0  0  0  0
   -2.7120   -3.6936    2.9029 C   0  0  0  0  0  0  0  0  0  0  0  0
   -3.8966   -3.8753    2.1986 C   0  0  0  0  0  0  0  0  0  0  0  0
   -4.0450   -3.2906    0.9474 C   0  0  0  0  0  0  0  0  0  0  0  0
   -3.0115   -2.5194    0.4003 C   0  0  0  0  0  0  0  0  0  0  0  0
   -1.8040   -2.3071    1.0872 C   0  0  0  0  0  0  0  0  0  0  0  0
   -0.4550    1.6055   -3.4870 H   0  0  0  0  0  0  0  0  0  0  0  0
   -0.6700   -0.1293   -3.8056 H   0  0  0  0  0  0  0  0  0  0  0  0
    0.7163    0.7280   -4.4879 H   0  0  0  0  0  0  0  0  0  0  0  0
    4.4743    1.3518   -2.6383 H   0  0  0  0  0  0  0  0  0  0  0  0
    6.8211    1.7280   -2.0673 H   0  0  0  0  0  0  0  0  0  0  0  0
    6.1419   -0.0234    1.8406 H   0  0  0  0  0  0  0  0  0  0  0  0
    3.8151   -0.3976    1.2827 H   0  0  0  0  0  0  0  0  0  0  0  0
   -1.2538   -1.4786   -1.4738 H   0  0  0  0  0  0  0  0  0  0  0  0
   -0.8007    1.2434    1.2038 H   0  0  0  0  0  0  0  0  0  0  0  0
   -2.2730    3.1966    1.3790 H   0  0  0  0  0  0  0  0  0  0  0  0
   -6.0843    2.9725   -0.6024 H   0  0  0  0  0  0  0  0  0  0  0  0
   -4.4149    1.9033   -2.1333 H   0  0  0  0  0  0  0  0  0  0  0  0
   -2.9734   -0.0403   -2.3075 H   0  0  0  0  0  0  0  0  0  0  0  0
   -0.4272   -3.2073    4.0142 H   0  0  0  0  0  0  0  0  0  0  0  0
   -2.6011   -4.1576    3.8795 H   0  0  0  0  0  0  0  0  0  0  0  0
   -4.6995   -4.4730    2.6229 H   0  0  0  0  0  0  0  0  0  0  0  0
   -4.9682   -3.4329    0.3898 H   0  0  0  0  0  0  0  0  0  0  0  0
   -3.1929   -2.0991   -0.5826 H   0  0  0  0  0  0  0  0  0  0  0  0
  1  2  1  0
  2  3  2  0
  3  4  1  0
  4  5  1  0
  5  6  2  0
  6  7  1  0
  7  8  2  0
  8  9  1  0
  9 10  2  0
  9 11  1  0
  8 12  1  0
 12 13  2  0
  4 14  1  0
 14 15  2  0
 15 16  1  0
 16 17  1  0
 17 18  2  0
 18 19  1  0
 19 20  2  0
 20 21  1  0
 21 22  1  0
 22 23  1  0
 22 24  1  0
 20 25  1  0
 25 26  2  0
 16 27  1  0
 27 28  1  0
 28 29  2  0
 28 30  1  0
 30 31  2  0
 30 32  1  0
 32 33  1  0
 33 34  2  0
 34 35  1  0
 35 36  2  0
 36 37  1  0
 37 38  2  0
 15  2  1  0
 26 17  1  0
 38 27  1  0
 13  5  1  0
 29 14  1  0
 38 33  1  0
  1 39  1  0
  1 40  1  0
  1 41  1  0
  6 42  1  0
  7 43  1  0
 12 44  1  0
 13 45  1  0
 16 46  1  0
 18 47  1  0
 19 48  1  0
 22 49  1  0
 25 50  1  0
 26 51  1  0
 32 52  1  0
 34 53  1  0
 35 54  1  0
 36 55  1  0
 37 56  1  0
M  CHG  2   9   1  11  -1
M  END
$$$$
