
     RDKit          3D

 57 60  0  0  0  0  0  0  0  0999 V2000
    6.6169   -3.2877    1.4690 C   0  0  0  0  0  0  0  0  0  0  0  0
    6.7005   -2.4680    0.3106 O   0  0  0  0  0  0  0  0  0  0  0  0
    5.5946   -1.7337   -0.0198 C   0  0  0  0  0  0  0  0  0  0  0  0
    5.7537   -0.9242   -1.1414 C   0  0  0  0  0  0  0  0  0  0  0  0
    4.7045   -0.1194   -1.5854 C   0  0  0  0  0  0  0  0  0  0  0  0
    3.4700   -0.1088   -0.9144 C   0  0  0  0  0  0  0  0  0  0  0  0
    2.4196    0.8031   -1.4839 C   0  0  0  0  0  0  0  0  0  0  0  0
    2.6411    1.4421   -2.5089 O   0  0  0  0  0  0  0  0  0  0  0  0
    1.2224    0.8890   -0.8183 N   0  0  0  0  0  0  0  0  0  0  0  0
    0.1113    1.6767   -1.3048 C   0  0  0  0  0  0  0  0  0  0  0  0
   -0.6175    1.0003   -2.4908 C   0  0  0  0  0  0  0  0  0  0  0  0
   -1.6555   -0.0975   -2.0940 C   0  0  0  0  0  0  0  0  0  0  0  0
   -2.3738   -0.5687   -3.3753 C   0  0  0  0  0  0  0  0  0  0  0  0
   -0.9657   -1.3279   -1.4703 C   0  0  0  0  0  0  0  0  0  0  0  0
   -2.7206    0.4742   -1.1071 C   0  0  0  0  0  0  0  0  0  0  0  0
   -2.0999    1.3567   -0.0747 C   0  0  0  0  0  0  0  0  0  0  0  0
   -0.8256    1.8889   -0.1672 C   0  0  0  0  0  0  0  0  0  0  0  0
   -0.6448    2.5952    1.0253 C   0  0  0  0  0  0  0  0  0  0  0  0
   -1.7037    2.5128    1.8261 N   0  0  0  0  0  0  0  0  0  0  0  0
   -2.6405    1.8045    1.1264 N   0  0  0  0  0  0  0  0  0  0  0  0
   -3.9444    1.6445    1.6943 C   0  0  0  0  0  0  0  0  0  0  0  0
   -4.1481    2.0267    3.0334 C   0  0  0  0  0  0  0  0  0  0  0  0
   -5.4014    1.8914    3.6366 C   0  0  0  0  0  0  0  0  0  0  0  0
   -6.4708    1.3788    2.9100 C   0  0  0  0  0  0  0  0  0  0  0  0
   -6.2884    1.0131    1.5794 C   0  0  0  0  0  0  0  0  0  0  0  0
   -5.0345    1.1493    0.9705 C   0  0  0  0  0  0  0  0  0  0  0  0
    3.2999   -0.9332    0.2194 C   0  0  0  0  0  0  0  0  0  0  0  0
    2.0778   -0.9075    0.8463 O   0  0  0  0  0  0  0  0  0  0  0  0
    1.8801   -1.7386    1.9850 C   0  0  0  0  0  0  0  0  0  0  0  0
    4.3702   -1.7376    0.6550 C   0  0  0  0  0  0  0  0  0  0  0  0
    5.8518   -4.0616    1.3496 H   0  0  0  0  0  0  0  0  0  0  0  0
    7.5809   -3.7900    1.5943 H   0  0  0  0  0  0  0  0  0  0  0  0
    6.4356   -2.6858    2.3655 H   0  0  0  0  0  0  0  0  0  0  0  0
    6.7018   -0.9145   -1.6747 H   0  0  0  0  0  0  0  0  0  0  0  0
    4.8588    0.5061   -2.4636 H   0  0  0  0  0  0  0  0  0  0  0  0
    1.0852    0.2952   -0.0069 H   0  0  0  0  0  0  0  0  0  0  0  0
    0.5098    2.6407   -1.6445 H   0  0  0  0  0  0  0  0  0  0  0  0
    0.1100    0.5877   -3.2015 H   0  0  0  0  0  0  0  0  0  0  0  0
   -1.1585    1.7885   -3.0348 H   0  0  0  0  0  0  0  0  0  0  0  0
   -1.6641   -0.9994   -4.0896 H   0  0  0  0  0  0  0  0  0  0  0  0
   -2.8843    0.2624   -3.8742 H   0  0  0  0  0  0  0  0  0  0  0  0
   -3.1266   -1.3328   -3.1492 H   0  0  0  0  0  0  0  0  0  0  0  0
   -1.6752   -2.1558   -1.3554 H   0  0  0  0  0  0  0  0  0  0  0  0
   -0.5649   -1.1209   -0.4747 H   0  0  0  0  0  0  0  0  0  0  0  0
   -0.1436   -1.6823   -2.1025 H   0  0  0  0  0  0  0  0  0  0  0  0
   -3.4436    1.0759   -1.6726 H   0  0  0  0  0  0  0  0  0  0  0  0
   -3.2552   -0.3599   -0.6387 H   0  0  0  0  0  0  0  0  0  0  0  0
    0.2247    3.1489    1.3565 H   0  0  0  0  0  0  0  0  0  0  0  0
   -3.3309    2.4306    3.6298 H   0  0  0  0  0  0  0  0  0  0  0  0
   -5.5373    2.1892    4.6732 H   0  0  0  0  0  0  0  0  0  0  0  0
   -7.4468    1.2744    3.3769 H   0  0  0  0  0  0  0  0  0  0  0  0
   -7.1293    0.6300    1.0061 H   0  0  0  0  0  0  0  0  0  0  0  0
   -4.9730    0.8894   -0.0774 H   0  0  0  0  0  0  0  0  0  0  0  0
    0.8533   -1.5871    2.3323 H   0  0  0  0  0  0  0  0  0  0  0  0
    1.9895   -2.7969    1.7244 H   0  0  0  0  0  0  0  0  0  0  0  0
    2.5536   -1.4557    2.8008 H   0  0  0  0  0  0  0  0  0  0  0  0
    4.2507   -2.3708    1.5243 H   0  0  0  0  0  0  0  0  0  0  0  0
  1  2  1  0
  2  3  1  0
  3  4  2  0
  4  5  1  0
  5  6  2  0
  6  7  1  0
  7  8  2  0
  7  9  1  0
  9 10  1  0
 10 11  1  0
 11 12  1  0
 12 13  1  0
 12 14  1  0
 12 15  1  0
 15 16  1  0
 16 17  2  0
 17 18  1  0
 18 19  2  0
 19 20  1  0
 20 21  1  0
 21 22  2  0
 22 23  1  0
 23 24  2  0
 24 25  1  0
 25 26  2  0
  6 27  1  0
 27 28  1  0
 28 29  1  0
 27 30  2  0
 30  3  1  0
 17 10  1  0
 26 21  1  0
 20 16  1  0
  1 31  1  0
  1 32  1  0
  1 33  1  0
  4 34  1  0
  5 35  1  0
  9 36  1  0
 10 37  1  0
 11 38  1  0
 11 39  1  0
 13 40  1  0
 13 41  1  0
 13 42  1  0
 14 43  1  0
 14 44  1  0
 14 45  1  0
 15 46  1  0
 15 47  1  0
 18 48  1  0
 22 49  1  0
 23 50  1  0
 24 51  1  0
 25 52  1  0
 26 53  1  0
 29 54  1  0
 29 55  1  0
 29 56  1  0
 30 57  1  0
M  END
$$$$
