
     RDKit          3D

 42 43  0  0  0  0  0  0  0  0999 V2000
    3.0254    1.0774   -0.5052 C   0  0  0  0  0  0  0  0  0  0  0  0
    3.2758    0.1280    0.6522 C   0  0  0  0  0  0  0  0  0  0  0  0
    2.9561   -1.1372    0.6551 N   0  0  0  0  0  0  0  0  0  0  0  0
    2.2140   -1.6353   -0.3831 N   0  0  0  0  0  0  0  0  0  0  0  0
    0.8882   -1.2276   -0.5638 C   0  0  0  0  0  0  0  0  0  0  0  0
    0.3608   -0.2622   -0.0207 O   0  0  0  0  0  0  0  0  0  0  0  0
    0.1578   -2.1313   -1.5423 C   0  0  0  0  0  0  0  0  0  0  0  0
   -1.2807   -1.6961   -1.8124 C   0  0  0  0  0  0  0  0  0  0  0  0
   -2.2100   -1.9599   -0.6239 C   0  0  0  0  0  0  0  0  0  0  0  0
   -3.5867   -1.6355   -0.9832 N   0  0  0  0  0  0  0  0  0  0  0  0
   -4.1168   -0.3649   -0.7381 C   0  0  0  0  0  0  0  0  0  0  0  0
   -5.5002   -0.1843   -0.8946 C   0  0  0  0  0  0  0  0  0  0  0  0
   -6.0985    1.0689   -0.7299 C   0  0  0  0  0  0  0  0  0  0  0  0
   -5.3153    2.1771   -0.4272 C   0  0  0  0  0  0  0  0  0  0  0  0
   -3.9376    2.0291   -0.3032 C   0  0  0  0  0  0  0  0  0  0  0  0
   -3.3453    0.7717   -0.4712 C   0  0  0  0  0  0  0  0  0  0  0  0
    3.9725    0.6808    1.8563 C   0  0  0  0  0  0  0  0  0  0  0  0
    4.6534   -0.1886    2.7100 C   0  0  0  0  0  0  0  0  0  0  0  0
    5.2877    0.3454    3.8169 C   0  0  0  0  0  0  0  0  0  0  0  0
    5.2826    1.6604    4.1212 N   0  0  0  0  0  0  0  0  0  0  0  0
    4.6025    2.4770    3.2893 C   0  0  0  0  0  0  0  0  0  0  0  0
    3.9368    2.0424    2.1558 C   0  0  0  0  0  0  0  0  0  0  0  0
    2.9684    0.5395   -1.4550 H   0  0  0  0  0  0  0  0  0  0  0  0
    3.8491    1.7917   -0.5992 H   0  0  0  0  0  0  0  0  0  0  0  0
    2.0955    1.6278   -0.3411 H   0  0  0  0  0  0  0  0  0  0  0  0
    2.3774   -2.6274   -0.5314 H   0  0  0  0  0  0  0  0  0  0  0  0
    0.7143   -2.1106   -2.4872 H   0  0  0  0  0  0  0  0  0  0  0  0
    0.1782   -3.1586   -1.1609 H   0  0  0  0  0  0  0  0  0  0  0  0
   -1.3051   -0.6377   -2.0962 H   0  0  0  0  0  0  0  0  0  0  0  0
   -1.6531   -2.2543   -2.6813 H   0  0  0  0  0  0  0  0  0  0  0  0
   -2.1743   -3.0315   -0.3909 H   0  0  0  0  0  0  0  0  0  0  0  0
   -1.8950   -1.4465    0.2904 H   0  0  0  0  0  0  0  0  0  0  0  0
   -4.2472   -2.3656   -0.7285 H   0  0  0  0  0  0  0  0  0  0  0  0
   -6.1307   -1.0309   -1.1543 H   0  0  0  0  0  0  0  0  0  0  0  0
   -7.1731    1.1758   -0.8476 H   0  0  0  0  0  0  0  0  0  0  0  0
   -5.7736    3.1536   -0.3002 H   0  0  0  0  0  0  0  0  0  0  0  0
   -3.3140    2.8911   -0.0817 H   0  0  0  0  0  0  0  0  0  0  0  0
   -2.2645    0.7089   -0.3790 H   0  0  0  0  0  0  0  0  0  0  0  0
    4.6937   -1.2557    2.5215 H   0  0  0  0  0  0  0  0  0  0  0  0
    5.8327   -0.2891    4.5101 H   0  0  0  0  0  0  0  0  0  0  0  0
    4.6031    3.5266    3.5703 H   0  0  0  0  0  0  0  0  0  0  0  0
    3.3955    2.7577    1.5486 H   0  0  0  0  0  0  0  0  0  0  0  0
  1  2  1  0
  2  3  2  3
  3  4  1  0
  4  5  1  0
  5  6  2  0
  5  7  1  0
  7  8  1  0
  8  9  1  0
  9 10  1  0
 10 11  1  0
 11 12  2  0
 12 13  1  0
 13 14  2  0
 14 15  1  0
 15 16  2  0
  2 17  1  0
 17 18  2  0
 18 19  1  0
 19 20  2  0
 20 21  1  0
 21 22  2  0
 16 11  1  0
 22 17  1  0
  1 23  1  0
  1 24  1  0
  1 25  1  0
  4 26  1  0
  7 27  1  0
  7 28  1  0
  8 29  1  0
  8 30  1  0
  9 31  1  0
  9 32  1  0
 10 33  1  0
 12 34  1  0
 13 35  1  0
 14 36  1  0
 15 37  1  0
 16 38  1  0
 18 39  1  0
 19 40  1  0
 21 41  1  0
 22 42  1  0
M  END
$$$$
