
     RDKit          3D

 57 59  0  0  0  0  0  0  0  0999 V2000
    5.9350   -0.6931    1.4158 C   0  0  0  0  0  0  0  0  0  0  0  0
    5.3817   -0.8781    0.0746 N   0  0  0  0  0  0  0  0  0  0  0  0
    5.5793   -2.2677   -0.3578 C   0  0  0  0  0  0  0  0  0  0  0  0
    5.9797    0.0459   -0.9142 C   0  0  0  0  0  0  0  0  0  0  0  0
    5.7898    1.5503   -0.6415 C   0  0  0  0  0  0  0  0  0  0  0  0
    4.4006    1.9164   -0.2648 N   0  0  0  0  0  0  0  0  0  0  0  0
    3.2973    2.0772   -1.5347 S   0  0  0  0  0  6  0  0  0  0  0  0
    3.7065    1.2815   -2.6653 O   0  0  0  0  0  0  0  0  0  0  0  0
    3.0604    3.5020   -1.6429 O   0  0  0  0  0  0  0  0  0  0  0  0
    1.8405    1.3268   -0.8577 C   0  0  0  0  0  0  0  0  0  0  0  0
    0.6251    2.0139   -0.8943 C   0  0  0  0  0  0  0  0  0  0  0  0
   -0.5262    1.4244   -0.3550 C   0  0  0  0  0  0  0  0  0  0  0  0
   -0.4887    0.1502    0.2411 C   0  0  0  0  0  0  0  0  0  0  0  0
   -1.6397   -0.4560    0.7735 N   0  0  0  0  0  0  0  0  0  0  0  0
   -2.4709    0.3979    1.6629 C   0  0  0  0  0  0  0  0  0  0  0  0
   -3.6570   -0.4067    2.2546 C   0  0  0  0  0  0  0  0  0  0  0  0
   -4.4681   -1.0494    1.1886 N   0  0  0  0  0  0  0  0  0  0  0  0
   -5.4791   -0.3389    0.5338 C   0  0  0  0  0  0  0  0  0  0  0  0
   -5.7515    1.0200    0.7722 C   0  0  0  0  0  0  0  0  0  0  0  0
   -6.7646    1.7049    0.0876 C   0  0  0  0  0  0  0  0  0  0  0  0
   -7.5454    1.0305   -0.8361 C   0  0  0  0  0  0  0  0  0  0  0  0
   -8.5104    1.6870   -1.4928 F   0  0  0  0  0  0  0  0  0  0  0  0
   -7.3417   -0.3174   -1.0730 C   0  0  0  0  0  0  0  0  0  0  0  0
   -6.3259   -0.9917   -0.3835 C   0  0  0  0  0  0  0  0  0  0  0  0
   -3.6090   -1.9316    0.3466 C   0  0  0  0  0  0  0  0  0  0  0  0
   -2.4487   -1.1272   -0.2874 C   0  0  0  0  0  0  0  0  0  0  0  0
    0.7582   -0.5060    0.2507 C   0  0  0  0  0  0  0  0  0  0  0  0
    0.8824   -1.8111    0.8687 N   0  0  0  0  0  4  0  0  0  0  0  0
    0.5245   -2.7968    0.1978 O   0  0  0  0  0  0  0  0  0  0  0  0
    1.3910   -1.8502    1.9998 O   0  0  0  0  0  1  0  0  0  0  0  0
    1.9208    0.0578   -0.2864 C   0  0  0  0  0  0  0  0  0  0  0  0
    5.6942    0.2975    1.8099 H   0  0  0  0  0  0  0  0  0  0  0  0
    7.0241   -0.8271    1.4376 H   0  0  0  0  0  0  0  0  0  0  0  0
    5.4861   -1.4089    2.1175 H   0  0  0  0  0  0  0  0  0  0  0  0
    5.1458   -2.4286   -1.3510 H   0  0  0  0  0  0  0  0  0  0  0  0
    5.0639   -2.9579    0.3247 H   0  0  0  0  0  0  0  0  0  0  0  0
    6.6424   -2.5406   -0.3936 H   0  0  0  0  0  0  0  0  0  0  0  0
    5.5435   -0.1740   -1.8935 H   0  0  0  0  0  0  0  0  0  0  0  0
    7.0572   -0.1548   -1.0144 H   0  0  0  0  0  0  0  0  0  0  0  0
    6.1097    2.1486   -1.5042 H   0  0  0  0  0  0  0  0  0  0  0  0
    6.4409    1.8535    0.1866 H   0  0  0  0  0  0  0  0  0  0  0  0
    4.3887    2.7981    0.2537 H   0  0  0  0  0  0  0  0  0  0  0  0
    0.5564    3.0023   -1.3479 H   0  0  0  0  0  0  0  0  0  0  0  0
   -1.4628    1.9762   -0.4265 H   0  0  0  0  0  0  0  0  0  0  0  0
   -1.8554    0.7730    2.4889 H   0  0  0  0  0  0  0  0  0  0  0  0
   -2.8636    1.2616    1.1150 H   0  0  0  0  0  0  0  0  0  0  0  0
   -3.2531   -1.2017    2.8946 H   0  0  0  0  0  0  0  0  0  0  0  0
   -4.2690    0.2175    2.9126 H   0  0  0  0  0  0  0  0  0  0  0  0
   -5.1787    1.5944    1.4913 H   0  0  0  0  0  0  0  0  0  0  0  0
   -6.9463    2.7602    0.2772 H   0  0  0  0  0  0  0  0  0  0  0  0
   -7.9768   -0.8430   -1.7783 H   0  0  0  0  0  0  0  0  0  0  0  0
   -6.2293   -2.0624   -0.5553 H   0  0  0  0  0  0  0  0  0  0  0  0
   -4.1641   -2.4593   -0.4339 H   0  0  0  0  0  0  0  0  0  0  0  0
   -3.1887   -2.7122    0.9950 H   0  0  0  0  0  0  0  0  0  0  0  0
   -2.8533   -0.3776   -0.9826 H   0  0  0  0  0  0  0  0  0  0  0  0
   -1.8229   -1.8195   -0.8652 H   0  0  0  0  0  0  0  0  0  0  0  0
    2.8649   -0.4804   -0.2550 H   0  0  0  0  0  0  0  0  0  0  0  0
  1  2  1  0
  2  3  1  0
  2  4  1  0
  4  5  1  0
  5  6  1  0
  6  7  1  0
  7  8  2  0
  7  9  2  0
  7 10  1  0
 10 11  2  0
 11 12  1  0
 12 13  2  0
 13 14  1  0
 14 15  1  0
 15 16  1  0
 16 17  1  0
 17 18  1  0
 18 19  2  0
 19 20  1  0
 20 21  2  0
 21 22  1  0
 21 23  1  0
 23 24  2  0
 17 25  1  0
 25 26  1  0
 13 27  1  0
 27 28  1  0
 28 29  2  0
 28 30  1  0
 27 31  2  0
 31 10  1  0
 26 14  1  0
 24 18  1  0
  1 32  1  0
  1 33  1  0
  1 34  1  0
  3 35  1  0
  3 36  1  0
  3 37  1  0
  4 38  1  0
  4 39  1  0
  5 40  1  0
  5 41  1  0
  6 42  1  0
 11 43  1  0
 12 44  1  0
 15 45  1  0
 15 46  1  0
 16 47  1  0
 16 48  1  0
 19 49  1  0
 20 50  1  0
 23 51  1  0
 24 52  1  0
 25 53  1  0
 25 54  1  0
 26 55  1  0
 26 56  1  0
 31 57  1  0
M  CHG  2  28   1  30  -1
M  END
$$$$
