
     RDKit          3D

 48 51  0  0  0  0  0  0  0  0999 V2000
   -7.8446   -0.6116    1.7570 C   0  0  0  0  0  0  0  0  0  0  0  0
   -6.6265   -0.4327    0.8970 C   0  0  0  0  0  0  0  0  0  0  0  0
   -6.7518   -0.4902   -0.4859 C   0  0  0  0  0  0  0  0  0  0  0  0
   -5.6254   -0.3206   -1.3096 C   0  0  0  0  0  0  0  0  0  0  0  0
   -5.8067   -0.3770   -2.8008 C   0  0  0  0  0  0  0  0  0  0  0  0
   -4.3738   -0.1139   -0.6636 C   0  0  0  0  0  0  0  0  0  0  0  0
   -3.0219    0.0771   -1.1334 C   0  0  0  0  0  0  0  0  0  0  0  0
   -2.6625    0.0744   -2.4416 N   0  0  0  0  0  0  0  0  0  0  0  0
   -2.1031    0.2732   -0.1147 C   0  0  0  0  0  0  0  0  0  0  0  0
   -0.6639    0.4863   -0.2362 C   0  0  0  0  0  0  0  0  0  0  0  0
   -0.0691    0.4470   -1.3165 O   0  0  0  0  0  0  0  0  0  0  0  0
    0.0140    0.7518    0.9567 N   0  0  0  0  0  0  0  0  0  0  0  0
    1.4293    0.5859    1.0091 N   0  0  0  0  0  0  0  0  0  0  0  0
    2.1632    1.6604    0.3740 C   0  0  0  0  0  0  0  0  0  0  0  0
    3.6611    1.6060    0.6498 C   0  0  0  0  0  0  0  0  0  0  0  0
    4.2970    2.6547    0.7577 O   0  0  0  0  0  0  0  0  0  0  0  0
    4.2212    0.3217    0.5537 N   0  0  0  0  0  0  0  0  0  0  0  0
    5.6441    0.1310    0.3626 C   0  0  0  0  0  0  0  0  0  0  0  0
    6.4167    1.1065   -0.2911 C   0  0  0  0  0  0  0  0  0  0  0  0
    7.7897    0.9317   -0.5135 C   0  0  0  0  0  0  0  0  0  0  0  0
    8.4269   -0.2309   -0.0958 C   0  0  0  0  0  0  0  0  0  0  0  0
    7.6875   -1.2201    0.5405 C   0  0  0  0  0  0  0  0  0  0  0  0
    6.3194   -1.0400    0.7595 C   0  0  0  0  0  0  0  0  0  0  0  0
    5.6799   -2.0329    1.3964 F   0  0  0  0  0  0  0  0  0  0  0  0
    3.4212   -0.8297    0.9894 C   0  0  0  0  0  0  0  0  0  0  0  0
    1.9010   -0.7151    0.9634 C   0  0  0  0  0  0  0  0  0  0  0  0
    1.1712   -1.6989    1.0909 O   0  0  0  0  0  0  0  0  0  0  0  0
   -2.8665    0.2126    1.4157 S   0  0  0  0  0  0  0  0  0  0  0  0
   -4.3939   -0.0696    0.7276 C   0  0  0  0  0  0  0  0  0  0  0  0
   -5.4625   -0.2180    1.5349 N   0  0  0  0  0  0  0  0  0  0  0  0
   -8.2946   -1.5927    1.5757 H   0  0  0  0  0  0  0  0  0  0  0  0
   -8.5799    0.1687    1.5374 H   0  0  0  0  0  0  0  0  0  0  0  0
   -7.5859   -0.5468    2.8188 H   0  0  0  0  0  0  0  0  0  0  0  0
   -7.7305   -0.6620   -0.9272 H   0  0  0  0  0  0  0  0  0  0  0  0
   -5.3561    0.5014   -3.2728 H   0  0  0  0  0  0  0  0  0  0  0  0
   -5.3457   -1.2856   -3.1998 H   0  0  0  0  0  0  0  0  0  0  0  0
   -6.8659   -0.3861   -3.0792 H   0  0  0  0  0  0  0  0  0  0  0  0
   -3.2200   -0.4045   -3.1401 H   0  0  0  0  0  0  0  0  0  0  0  0
   -1.6654    0.0616   -2.6783 H   0  0  0  0  0  0  0  0  0  0  0  0
   -0.4715    0.4966    1.8138 H   0  0  0  0  0  0  0  0  0  0  0  0
    1.7741    2.6126    0.7510 H   0  0  0  0  0  0  0  0  0  0  0  0
    2.0348    1.6110   -0.7119 H   0  0  0  0  0  0  0  0  0  0  0  0
    5.9705    2.0227   -0.6700 H   0  0  0  0  0  0  0  0  0  0  0  0
    8.3551    1.7109   -1.0203 H   0  0  0  0  0  0  0  0  0  0  0  0
    9.4916   -0.3651   -0.2677 H   0  0  0  0  0  0  0  0  0  0  0  0
    8.1643   -2.1365    0.8751 H   0  0  0  0  0  0  0  0  0  0  0  0
    3.6893   -1.0471    2.0300 H   0  0  0  0  0  0  0  0  0  0  0  0
    3.6644   -1.6780    0.3392 H   0  0  0  0  0  0  0  0  0  0  0  0
  1  2  1  0
  2  3  2  0
  3  4  1  0
  4  5  1  0
  4  6  2  0
  6  7  1  0
  7  8  1  0
  7  9  2  0
  9 10  1  0
 10 11  2  0
 10 12  1  0
 12 13  1  0
 13 14  1  0
 14 15  1  0
 15 16  2  0
 15 17  1  0
 17 18  1  0
 18 19  2  0
 19 20  1  0
 20 21  2  0
 21 22  1  0
 22 23  2  0
 23 24  1  0
 17 25  1  0
 25 26  1  0
 26 27  2  0
  9 28  1  0
 28 29  1  0
 29 30  2  0
 30  2  1  0
 29  6  1  0
 26 13  1  0
 23 18  1  0
  1 31  1  0
  1 32  1  0
  1 33  1  0
  3 34  1  0
  5 35  1  0
  5 36  1  0
  5 37  1  0
  8 38  1  0
  8 39  1  0
 12 40  1  0
 14 41  1  0
 14 42  1  0
 19 43  1  0
 20 44  1  0
 21 45  1  0
 22 46  1  0
 25 47  1  0
 25 48  1  0
M  END
$$$$
