
     RDKit          3D

 42 45  0  0  0  0  0  0  0  0999 V2000
   -4.7390    3.0316   -1.0264 O   0  0  0  0  0  0  0  0  0  0  0  0
   -4.1695    2.1085   -0.4433 C   0  0  0  0  0  0  0  0  0  0  0  0
   -2.7893    2.2326    0.0349 C   0  0  0  0  0  0  0  0  0  0  0  0
   -1.7046    1.3353   -0.1510 C   0  0  0  0  0  0  0  0  0  0  0  0
   -0.6393    1.9344    0.4756 C   0  0  0  0  0  0  0  0  0  0  0  0
    0.7850    1.5873    0.6877 C   0  0  0  0  0  0  0  0  0  0  0  0
    1.1037    0.5391   -0.2281 O   0  0  0  0  0  0  0  0  0  0  0  0
    2.3911    0.0799   -0.2237 C   0  0  0  0  0  0  0  0  0  0  0  0
    2.6633   -0.8964   -1.1858 C   0  0  0  0  0  0  0  0  0  0  0  0
    3.9372   -1.4631   -1.2975 C   0  0  0  0  0  0  0  0  0  0  0  0
    4.9592   -1.0491   -0.4365 C   0  0  0  0  0  0  0  0  0  0  0  0
    6.2611   -1.6070   -0.5186 N   0  0  0  0  0  0  0  0  0  0  0  0
    6.7258   -2.6029   -1.3441 C   0  0  0  0  0  0  0  0  0  0  0  0
    7.9963   -2.8427   -1.1106 N   0  0  0  0  0  0  0  0  0  0  0  0
    8.2867   -1.9591   -0.1175 C   0  0  0  0  0  0  0  0  0  0  0  0
    7.2739   -1.1904    0.2826 N   0  0  0  0  0  0  0  0  0  0  0  0
    4.6885   -0.0671    0.5283 C   0  0  0  0  0  0  0  0  0  0  0  0
    3.4094    0.4927    0.6349 C   0  0  0  0  0  0  0  0  0  0  0  0
   -1.0498    3.1164    1.0076 O   0  0  0  0  0  0  0  0  0  0  0  0
   -2.3872    3.3131    0.7267 N   0  0  0  0  0  0  0  0  0  0  0  0
   -4.8098    0.8929   -0.2284 N   0  0  0  0  0  0  0  0  0  0  0  0
   -6.1770    0.6977   -0.6761 C   0  0  0  0  0  0  0  0  0  0  0  0
   -6.4939   -0.7412   -0.2970 C   0  0  0  0  0  0  0  0  0  0  0  0
   -5.6866   -0.9312    0.9815 C   0  0  0  0  0  0  0  0  0  0  0  0
   -4.4033   -0.1611    0.6928 C   0  0  0  0  0  0  0  0  0  0  0  0
   -1.6969    0.3973   -0.6863 H   0  0  0  0  0  0  0  0  0  0  0  0
    0.9174    1.2437    1.7202 H   0  0  0  0  0  0  0  0  0  0  0  0
    1.4104    2.4668    0.4933 H   0  0  0  0  0  0  0  0  0  0  0  0
    1.8720   -1.2191   -1.8604 H   0  0  0  0  0  0  0  0  0  0  0  0
    4.0890   -2.2138   -2.0672 H   0  0  0  0  0  0  0  0  0  0  0  0
    6.1168   -3.1112   -2.0746 H   0  0  0  0  0  0  0  0  0  0  0  0
    9.2682   -1.8756    0.3335 H   0  0  0  0  0  0  0  0  0  0  0  0
    5.4648    0.2722    1.2131 H   0  0  0  0  0  0  0  0  0  0  0  0
    3.2507    1.2437    1.4032 H   0  0  0  0  0  0  0  0  0  0  0  0
   -6.2626    0.8875   -1.7506 H   0  0  0  0  0  0  0  0  0  0  0  0
   -6.8193    1.4037   -0.1365 H   0  0  0  0  0  0  0  0  0  0  0  0
   -7.5641   -0.9162   -0.1586 H   0  0  0  0  0  0  0  0  0  0  0  0
   -6.1283   -1.4251   -1.0724 H   0  0  0  0  0  0  0  0  0  0  0  0
   -5.5033   -1.9822    1.2220 H   0  0  0  0  0  0  0  0  0  0  0  0
   -6.2165   -0.4720    1.8252 H   0  0  0  0  0  0  0  0  0  0  0  0
   -3.6789   -0.8005    0.1769 H   0  0  0  0  0  0  0  0  0  0  0  0
   -3.9515    0.2507    1.5998 H   0  0  0  0  0  0  0  0  0  0  0  0
  1  2  2  0
  2  3  1  0
  3  4  1  0
  4  5  2  0
  5  6  1  0
  6  7  1  0
  7  8  1  0
  8  9  2  0
  9 10  1  0
 10 11  2  0
 11 12  1  0
 12 13  1  0
 13 14  2  0
 14 15  1  0
 15 16  2  0
 11 17  1  0
 17 18  2  0
  5 19  1  0
 19 20  1  0
  2 21  1  0
 21 22  1  0
 22 23  1  0
 23 24  1  0
 24 25  1  0
 20  3  2  0
 25 21  1  0
 18  8  1  0
 16 12  1  0
  4 26  1  0
  6 27  1  0
  6 28  1  0
  9 29  1  0
 10 30  1  0
 13 31  1  0
 15 32  1  0
 17 33  1  0
 18 34  1  0
 22 35  1  0
 22 36  1  0
 23 37  1  0
 23 38  1  0
 24 39  1  0
 24 40  1  0
 25 41  1  0
 25 42  1  0
M  END
$$$$
