
     RDKit          3D

 45 48  0  0  0  0  0  0  0  0999 V2000
   -5.5109    2.2073   -1.1402 C   0  0  0  0  0  0  0  0  0  0  0  0
   -4.4468    1.3717   -0.7094 O   0  0  0  0  0  0  0  0  0  0  0  0
   -4.6838    0.0157   -0.6602 C   0  0  0  0  0  0  0  0  0  0  0  0
   -5.9619   -0.5501   -0.7712 C   0  0  0  0  0  0  0  0  0  0  0  0
   -6.1285   -1.9342   -0.7391 C   0  0  0  0  0  0  0  0  0  0  0  0
   -5.0224   -2.7616   -0.5945 C   0  0  0  0  0  0  0  0  0  0  0  0
   -3.7454   -2.2075   -0.4742 C   0  0  0  0  0  0  0  0  0  0  0  0
   -3.5427   -0.8161   -0.4940 C   0  0  0  0  0  0  0  0  0  0  0  0
   -2.2576   -0.2478   -0.3633 N   0  0  0  0  0  0  0  0  0  0  0  0
   -2.0619    0.4217    0.9441 C   0  0  0  0  0  0  0  0  0  0  0  0
   -0.7951    1.2965    0.9093 C   0  0  0  0  0  0  0  0  0  0  0  0
    0.3883    0.5655    0.4367 N   0  0  0  0  0  0  0  0  0  0  0  0
    1.6384    1.0875    0.7954 C   0  0  0  0  0  0  0  0  0  0  0  0
    1.7310    2.1479    1.4174 O   0  0  0  0  0  0  0  0  0  0  0  0
    2.8606    0.3463    0.4526 C   0  0  0  0  0  0  0  0  0  0  0  0
    4.1705    0.8909    0.3806 C   0  0  0  0  0  0  0  0  0  0  0  0
    5.0051   -0.1653    0.0828 C   0  0  0  0  0  0  0  0  0  0  0  0
    6.4291   -0.1733   -0.1140 C   0  0  0  0  0  0  0  0  0  0  0  0
    7.3019    0.8961   -0.0286 C   0  0  0  0  0  0  0  0  0  0  0  0
    8.6546    0.5226   -0.2865 C   0  0  0  0  0  0  0  0  0  0  0  0
    8.7732   -0.8204   -0.5609 C   0  0  0  0  0  0  0  0  0  0  0  0
    7.2638   -1.6200   -0.5070 S   0  0  0  0  0  0  0  0  0  0  0  0
    4.2247   -1.2881    0.0009 O   0  0  0  0  0  0  0  0  0  0  0  0
    2.9038   -0.9793    0.2514 N   0  0  0  0  0  0  0  0  0  0  0  0
    0.1637   -0.1650   -0.8236 C   0  0  0  0  0  0  0  0  0  0  0  0
   -1.0902   -1.0566   -0.7619 C   0  0  0  0  0  0  0  0  0  0  0  0
   -5.8909    1.8994   -2.1201 H   0  0  0  0  0  0  0  0  0  0  0  0
   -5.1173    3.2233   -1.2419 H   0  0  0  0  0  0  0  0  0  0  0  0
   -6.3120    2.2364   -0.3947 H   0  0  0  0  0  0  0  0  0  0  0  0
   -6.8495    0.0627   -0.8826 H   0  0  0  0  0  0  0  0  0  0  0  0
   -7.1226   -2.3646   -0.8275 H   0  0  0  0  0  0  0  0  0  0  0  0
   -5.1486   -3.8408   -0.5683 H   0  0  0  0  0  0  0  0  0  0  0  0
   -2.9120   -2.8904   -0.3434 H   0  0  0  0  0  0  0  0  0  0  0  0
   -1.9554   -0.3408    1.7274 H   0  0  0  0  0  0  0  0  0  0  0  0
   -2.9092    1.0579    1.2215 H   0  0  0  0  0  0  0  0  0  0  0  0
   -0.9418    2.1481    0.2330 H   0  0  0  0  0  0  0  0  0  0  0  0
   -0.6074    1.6976    1.9117 H   0  0  0  0  0  0  0  0  0  0  0  0
    4.4468    1.9238    0.5330 H   0  0  0  0  0  0  0  0  0  0  0  0
    6.9954    1.9075    0.2094 H   0  0  0  0  0  0  0  0  0  0  0  0
    9.4959    1.2049   -0.2702 H   0  0  0  0  0  0  0  0  0  0  0  0
    9.6735   -1.3740   -0.7906 H   0  0  0  0  0  0  0  0  0  0  0  0
    1.0207   -0.7685   -1.1177 H   0  0  0  0  0  0  0  0  0  0  0  0
    0.0408    0.5968   -1.6047 H   0  0  0  0  0  0  0  0  0  0  0  0
   -1.2511   -1.5006   -1.7516 H   0  0  0  0  0  0  0  0  0  0  0  0
   -0.9165   -1.8633   -0.0386 H   0  0  0  0  0  0  0  0  0  0  0  0
  1  2  1  0
  2  3  1  0
  3  4  2  0
  4  5  1  0
  5  6  2  0
  6  7  1  0
  7  8  2  0
  8  9  1  0
  9 10  1  0
 10 11  1  0
 11 12  1  0
 12 13  1  0
 13 14  2  0
 13 15  1  0
 15 16  1  0
 16 17  2  0
 17 18  1  0
 18 19  2  0
 19 20  1  0
 20 21  2  0
 21 22  1  0
 17 23  1  0
 23 24  1  0
 12 25  1  0
 25 26  1  0
  8  3  1  0
 26  9  1  0
 24 15  2  0
 22 18  1  0
  1 27  1  0
  1 28  1  0
  1 29  1  0
  4 30  1  0
  5 31  1  0
  6 32  1  0
  7 33  1  0
 10 34  1  0
 10 35  1  0
 11 36  1  0
 11 37  1  0
 16 38  1  0
 19 39  1  0
 20 40  1  0
 21 41  1  0
 25 42  1  0
 25 43  1  0
 26 44  1  0
 26 45  1  0
M  END
$$$$
