
     RDKit          3D

 49 52  0  0  0  0  0  0  0  0999 V2000
    0.3082   -2.6721   -1.1380 O   0  0  0  0  0  0  0  0  0  0  0  0
    0.5494   -2.1731   -0.0410 C   0  0  0  0  0  0  0  0  0  0  0  0
    1.7869   -2.5935    0.7575 C   0  0  0  0  0  0  0  0  0  0  0  0
    2.6856   -1.4703    1.0136 N   0  0  0  0  0  0  0  0  0  0  0  0
    3.7837   -1.3705    0.1896 N   0  0  0  0  0  0  0  0  0  0  0  0
    4.6292   -0.4105    0.4071 C   0  0  0  0  0  0  0  0  0  0  0  0
    5.8205   -0.2843   -0.4803 C   0  0  0  0  0  0  0  0  0  0  0  0
    7.0635    0.1494    0.0037 C   0  0  0  0  0  0  0  0  0  0  0  0
    8.1548    0.2448   -0.8642 C   0  0  0  0  0  0  0  0  0  0  0  0
    8.0034   -0.0994   -2.2033 C   0  0  0  0  0  0  0  0  0  0  0  0
    9.0532   -0.0066   -3.0293 F   0  0  0  0  0  0  0  0  0  0  0  0
    6.7821   -0.5447   -2.6941 C   0  0  0  0  0  0  0  0  0  0  0  0
    5.6888   -0.6428   -1.8311 C   0  0  0  0  0  0  0  0  0  0  0  0
    4.4755    0.5961    1.4811 C   0  0  0  0  0  0  0  0  0  0  0  0
    3.4069    0.4797    2.2710 C   0  0  0  0  0  0  0  0  0  0  0  0
    2.4269   -0.6019    2.0598 C   0  0  0  0  0  0  0  0  0  0  0  0
    1.4263   -0.6638    2.7735 O   0  0  0  0  0  0  0  0  0  0  0  0
   -0.2631   -1.2777    0.6391 N   0  0  0  0  0  0  0  0  0  0  0  0
   -1.4634   -0.6885    0.2004 C   0  0  0  0  0  0  0  0  0  0  0  0
   -2.1135    0.1695    1.0980 C   0  0  0  0  0  0  0  0  0  0  0  0
   -3.3123    0.8006    0.7474 C   0  0  0  0  0  0  0  0  0  0  0  0
   -3.8768    0.5741   -0.5118 C   0  0  0  0  0  0  0  0  0  0  0  0
   -5.1475    1.2231   -0.9348 C   0  0  0  0  0  0  0  0  0  0  0  0
   -5.3344    1.4937   -2.1160 O   0  0  0  0  0  0  0  0  0  0  0  0
   -6.0701    1.4576    0.0687 N   0  0  0  0  0  0  0  0  0  0  0  0
   -7.3590    2.0103   -0.2058 C   0  0  0  0  0  0  0  0  0  0  0  0
   -8.5753    1.1274   -0.2351 C   0  0  0  0  0  0  0  0  0  0  0  0
   -8.3962    2.1171    0.8784 C   0  0  0  0  0  0  0  0  0  0  0  0
   -3.2201   -0.2639   -1.4182 C   0  0  0  0  0  0  0  0  0  0  0  0
   -2.0229   -0.8962   -1.0609 C   0  0  0  0  0  0  0  0  0  0  0  0
    2.3268   -3.3678    0.2012 H   0  0  0  0  0  0  0  0  0  0  0  0
    1.4591   -3.0262    1.7097 H   0  0  0  0  0  0  0  0  0  0  0  0
    7.2107    0.3908    1.0524 H   0  0  0  0  0  0  0  0  0  0  0  0
    9.1244    0.5756   -0.5043 H   0  0  0  0  0  0  0  0  0  0  0  0
    6.6876   -0.8162   -3.7410 H   0  0  0  0  0  0  0  0  0  0  0  0
    4.7342   -0.9965   -2.2174 H   0  0  0  0  0  0  0  0  0  0  0  0
    5.1819    1.4057    1.5969 H   0  0  0  0  0  0  0  0  0  0  0  0
    3.1996    1.1741    3.0746 H   0  0  0  0  0  0  0  0  0  0  0  0
    0.0486   -1.0163    1.5754 H   0  0  0  0  0  0  0  0  0  0  0  0
   -1.6888    0.3636    2.0809 H   0  0  0  0  0  0  0  0  0  0  0  0
   -3.7710    1.4848    1.4553 H   0  0  0  0  0  0  0  0  0  0  0  0
   -5.9128    1.0534    0.9825 H   0  0  0  0  0  0  0  0  0  0  0  0
   -7.3286    2.8243   -0.9286 H   0  0  0  0  0  0  0  0  0  0  0  0
   -8.4518    0.0743   -0.0129 H   0  0  0  0  0  0  0  0  0  0  0  0
   -9.3236    1.3346   -0.9916 H   0  0  0  0  0  0  0  0  0  0  0  0
   -9.0310    2.9959    0.8820 H   0  0  0  0  0  0  0  0  0  0  0  0
   -8.1670    1.7328    1.8646 H   0  0  0  0  0  0  0  0  0  0  0  0
   -3.6380   -0.4320   -2.4094 H   0  0  0  0  0  0  0  0  0  0  0  0
   -1.5506   -1.5386   -1.7979 H   0  0  0  0  0  0  0  0  0  0  0  0
  1  2  2  0
  2  3  1  0
  3  4  1  0
  4  5  1  0
  5  6  2  0
  6  7  1  0
  7  8  2  0
  8  9  1  0
  9 10  2  0
 10 11  1  0
 10 12  1  0
 12 13  2  0
  6 14  1  0
 14 15  2  0
 15 16  1  0
 16 17  2  0
  2 18  1  0
 18 19  1  0
 19 20  2  0
 20 21  1  0
 21 22  2  0
 22 23  1  0
 23 24  2  0
 23 25  1  0
 25 26  1  0
 26 27  1  0
 27 28  1  0
 22 29  1  0
 29 30  2  0
 16  4  1  0
 30 19  1  0
 13  7  1  0
 28 26  1  0
  3 31  1  0
  3 32  1  0
  8 33  1  0
  9 34  1  0
 12 35  1  0
 13 36  1  0
 14 37  1  0
 15 38  1  0
 18 39  1  0
 20 40  1  0
 21 41  1  0
 25 42  1  0
 26 43  1  0
 27 44  1  0
 27 45  1  0
 28 46  1  0
 28 47  1  0
 29 48  1  0
 30 49  1  0
M  END
$$$$
