
     RDKit          3D

 55 57  0  0  0  0  0  0  0  0999 V2000
   -5.1471    0.9942    3.8281 C   0  0  0  0  0  0  0  0  0  0  0  0
   -5.3528    0.7928    2.3563 C   0  0  0  0  0  0  0  0  0  0  0  0
   -6.4296    1.3942    1.6982 C   0  0  0  0  0  0  0  0  0  0  0  0
   -6.6443    1.1729    0.3342 C   0  0  0  0  0  0  0  0  0  0  0  0
   -5.7946    0.3355   -0.4042 C   0  0  0  0  0  0  0  0  0  0  0  0
   -6.0859    0.1103   -1.8596 C   0  0  0  0  0  0  0  0  0  0  0  0
   -4.7026   -0.2508    0.2578 C   0  0  0  0  0  0  0  0  0  0  0  0
   -3.7116   -1.1107   -0.4293 C   0  0  0  0  0  0  0  0  0  0  0  0
   -3.5293   -2.2580   -0.0287 O   0  0  0  0  0  0  0  0  0  0  0  0
   -2.9251   -0.4894   -1.5769 C   0  0  0  0  0  0  0  0  0  0  0  0
   -1.5995   -1.0175   -1.6648 O   0  0  0  0  0  0  0  0  0  0  0  0
   -0.7692   -0.5862   -0.6835 C   0  0  0  0  0  0  0  0  0  0  0  0
   -1.0442    0.2466    0.1663 O   0  0  0  0  0  0  0  0  0  0  0  0
    0.5627   -1.2401   -0.7868 C   0  0  0  0  0  0  0  0  0  0  0  0
    0.8591   -2.1925   -1.7630 C   0  0  0  0  0  0  0  0  0  0  0  0
    2.1303   -2.7720   -1.8149 C   0  0  0  0  0  0  0  0  0  0  0  0
    3.1423   -2.4071   -0.9069 C   0  0  0  0  0  0  0  0  0  0  0  0
    4.4616   -3.1197   -1.0140 C   0  0  0  0  0  0  0  0  0  0  0  0
    2.8426   -1.4338    0.0661 C   0  0  0  0  0  0  0  0  0  0  0  0
    4.0090   -0.8865    1.3173 S   0  0  0  0  0  6  0  0  0  0  0  0
    3.2379   -0.5247    2.4890 O   0  0  0  0  0  0  0  0  0  0  0  0
    5.0811   -1.8519    1.4208 O   0  0  0  0  0  0  0  0  0  0  0  0
    4.6566    0.5424    0.6705 N   0  0  0  0  0  0  0  0  0  0  0  0
    5.5476    0.4157   -0.5141 C   0  0  0  0  0  0  0  0  0  0  0  0
    6.2900    1.7386   -0.7415 C   0  0  0  0  0  0  0  0  0  0  0  0
    5.3704    2.8295   -0.9046 O   0  0  0  0  0  0  0  0  0  0  0  0
    4.5658    2.9783    0.2764 C   0  0  0  0  0  0  0  0  0  0  0  0
    3.7424    1.7125    0.5414 C   0  0  0  0  0  0  0  0  0  0  0  0
    1.5516   -0.8765    0.1338 C   0  0  0  0  0  0  0  0  0  0  0  0
   -4.4990   -0.0431    1.6302 C   0  0  0  0  0  0  0  0  0  0  0  0
   -5.6800    0.2207    4.3900 H   0  0  0  0  0  0  0  0  0  0  0  0
   -5.5147    1.9765    4.1434 H   0  0  0  0  0  0  0  0  0  0  0  0
   -4.0835    0.9488    4.0838 H   0  0  0  0  0  0  0  0  0  0  0  0
   -7.1151    2.0379    2.2458 H   0  0  0  0  0  0  0  0  0  0  0  0
   -7.4959    1.6534   -0.1449 H   0  0  0  0  0  0  0  0  0  0  0  0
   -5.9162   -0.9353   -2.1367 H   0  0  0  0  0  0  0  0  0  0  0  0
   -5.4571    0.7610   -2.4754 H   0  0  0  0  0  0  0  0  0  0  0  0
   -7.1339    0.3300   -2.0919 H   0  0  0  0  0  0  0  0  0  0  0  0
   -2.8948    0.6035   -1.4988 H   0  0  0  0  0  0  0  0  0  0  0  0
   -3.4302   -0.7469   -2.5125 H   0  0  0  0  0  0  0  0  0  0  0  0
    0.1082   -2.5088   -2.4837 H   0  0  0  0  0  0  0  0  0  0  0  0
    2.3221   -3.5293   -2.5749 H   0  0  0  0  0  0  0  0  0  0  0  0
    5.2906   -2.4116   -1.0702 H   0  0  0  0  0  0  0  0  0  0  0  0
    4.5961   -3.8006   -0.1682 H   0  0  0  0  0  0  0  0  0  0  0  0
    4.5144   -3.7248   -1.9264 H   0  0  0  0  0  0  0  0  0  0  0  0
    4.9417    0.1791   -1.3957 H   0  0  0  0  0  0  0  0  0  0  0  0
    6.2867   -0.3747   -0.3568 H   0  0  0  0  0  0  0  0  0  0  0  0
    6.8927    1.6745   -1.6528 H   0  0  0  0  0  0  0  0  0  0  0  0
    6.9662    1.9621    0.0925 H   0  0  0  0  0  0  0  0  0  0  0  0
    3.8976    3.8300    0.1165 H   0  0  0  0  0  0  0  0  0  0  0  0
    5.2162    3.2160    1.1267 H   0  0  0  0  0  0  0  0  0  0  0  0
    3.0615    1.5456   -0.3002 H   0  0  0  0  0  0  0  0  0  0  0  0
    3.1606    1.8524    1.4569 H   0  0  0  0  0  0  0  0  0  0  0  0
    1.3099   -0.1534    0.9131 H   0  0  0  0  0  0  0  0  0  0  0  0
   -3.6590   -0.5285    2.1269 H   0  0  0  0  0  0  0  0  0  0  0  0
  1  2  1  0
  2  3  2  0
  3  4  1  0
  4  5  2  0
  5  6  1  0
  5  7  1  0
  7  8  1  0
  8  9  2  0
  8 10  1  0
 10 11  1  0
 11 12  1  0
 12 13  2  0
 12 14  1  0
 14 15  2  0
 15 16  1  0
 16 17  2  0
 17 18  1  0
 17 19  1  0
 19 20  1  0
 20 21  2  0
 20 22  2  0
 20 23  1  0
 23 24  1  0
 24 25  1  0
 25 26  1  0
 26 27  1  0
 27 28  1  0
 19 29  2  0
  7 30  2  0
 30  2  1  0
 29 14  1  0
 28 23  1  0
  1 31  1  0
  1 32  1  0
  1 33  1  0
  3 34  1  0
  4 35  1  0
  6 36  1  0
  6 37  1  0
  6 38  1  0
 10 39  1  0
 10 40  1  0
 15 41  1  0
 16 42  1  0
 18 43  1  0
 18 44  1  0
 18 45  1  0
 24 46  1  0
 24 47  1  0
 25 48  1  0
 25 49  1  0
 27 50  1  0
 27 51  1  0
 28 52  1  0
 28 53  1  0
 29 54  1  0
 30 55  1  0
M  END
$$$$
