
     RDKit          3D

 44 46  0  0  0  0  0  0  0  0999 V2000
    3.7480    2.1589    1.0074 C   0  0  0  0  0  0  0  0  0  0  0  0
    2.6268    1.3149    0.5009 C   0  0  0  0  0  0  0  0  0  0  0  0
    1.2889    1.6537    0.4620 C   0  0  0  0  0  0  0  0  0  0  0  0
    0.5750    0.6207   -0.1965 C   0  0  0  0  0  0  0  0  0  0  0  0
   -0.8669    0.5723   -0.4914 C   0  0  0  0  0  0  0  0  0  0  0  0
   -1.3538   -0.3099   -1.2017 O   0  0  0  0  0  0  0  0  0  0  0  0
   -1.7422    1.6912    0.0871 C   0  0  0  0  0  0  0  0  0  0  0  0
   -3.1380    1.4931   -0.1334 O   0  0  0  0  0  0  0  0  0  0  0  0
   -3.6938    0.5314    0.6418 C   0  0  0  0  0  0  0  0  0  0  0  0
   -3.1056   -0.0993    1.5111 O   0  0  0  0  0  0  0  0  0  0  0  0
   -5.0988    0.2957    0.2648 C   0  0  0  0  0  0  0  0  0  0  0  0
   -5.5802   -0.9562    0.3933 C   0  0  0  0  0  0  0  0  0  0  0  0
   -6.9368   -1.2831    0.0177 C   0  0  0  0  0  0  0  0  0  0  0  0
   -7.7370   -0.3300   -0.4721 C   0  0  0  0  0  0  0  0  0  0  0  0
   -7.2761    0.9536   -0.6034 N   0  0  0  0  0  0  0  0  0  0  0  0
   -6.0053    1.3626   -0.2505 C   0  0  0  0  0  0  0  0  0  0  0  0
   -5.6822    2.5425   -0.3388 O   0  0  0  0  0  0  0  0  0  0  0  0
    1.5099   -0.3669   -0.5016 C   0  0  0  0  0  0  0  0  0  0  0  0
    1.2484   -1.7301   -1.0654 C   0  0  0  0  0  0  0  0  0  0  0  0
    2.7759    0.0777   -0.1184 N   0  0  0  0  0  0  0  0  0  0  0  0
    4.0098   -0.6010   -0.3464 C   0  0  0  0  0  0  0  0  0  0  0  0
    4.2732   -1.1666   -1.6032 C   0  0  0  0  0  0  0  0  0  0  0  0
    5.4838   -1.8239   -1.8318 C   0  0  0  0  0  0  0  0  0  0  0  0
    6.4200   -1.9149   -0.8086 C   0  0  0  0  0  0  0  0  0  0  0  0
    7.5799   -2.5468   -1.0301 F   0  0  0  0  0  0  0  0  0  0  0  0
    6.1706   -1.3607    0.4417 C   0  0  0  0  0  0  0  0  0  0  0  0
    4.9631   -0.6994    0.6767 C   0  0  0  0  0  0  0  0  0  0  0  0
    3.4333    3.2059    1.0817 H   0  0  0  0  0  0  0  0  0  0  0  0
    4.6119    2.1331    0.3366 H   0  0  0  0  0  0  0  0  0  0  0  0
    4.0529    1.8393    2.0080 H   0  0  0  0  0  0  0  0  0  0  0  0
    0.8857    2.5824    0.8478 H   0  0  0  0  0  0  0  0  0  0  0  0
   -1.4708    2.6242   -0.4184 H   0  0  0  0  0  0  0  0  0  0  0  0
   -1.5446    1.8172    1.1581 H   0  0  0  0  0  0  0  0  0  0  0  0
   -4.9566   -1.7659    0.7649 H   0  0  0  0  0  0  0  0  0  0  0  0
   -7.2788   -2.3066    0.1334 H   0  0  0  0  0  0  0  0  0  0  0  0
   -8.7618   -0.5200   -0.7747 H   0  0  0  0  0  0  0  0  0  0  0  0
   -7.8867    1.6817   -0.9549 H   0  0  0  0  0  0  0  0  0  0  0  0
    1.2086   -1.6900   -2.1582 H   0  0  0  0  0  0  0  0  0  0  0  0
    2.0051   -2.4590   -0.7614 H   0  0  0  0  0  0  0  0  0  0  0  0
    0.2947   -2.1255   -0.7016 H   0  0  0  0  0  0  0  0  0  0  0  0
    3.5653   -1.0733   -2.4233 H   0  0  0  0  0  0  0  0  0  0  0  0
    5.7043   -2.2584   -2.8018 H   0  0  0  0  0  0  0  0  0  0  0  0
    6.9134   -1.4550    1.2276 H   0  0  0  0  0  0  0  0  0  0  0  0
    4.7675   -0.3099    1.6717 H   0  0  0  0  0  0  0  0  0  0  0  0
  1  2  1  0
  2  3  2  0
  3  4  1  0
  4  5  1  0
  5  6  2  0
  5  7  1  0
  7  8  1  0
  8  9  1  0
  9 10  2  0
  9 11  1  0
 11 12  2  0
 12 13  1  0
 13 14  2  0
 14 15  1  0
 15 16  1  0
 16 17  2  0
  4 18  2  0
 18 19  1  0
 18 20  1  0
 20 21  1  0
 21 22  2  0
 22 23  1  0
 23 24  2  0
 24 25  1  0
 24 26  1  0
 26 27  2  0
 20  2  1  0
 27 21  1  0
 16 11  1  0
  1 28  1  0
  1 29  1  0
  1 30  1  0
  3 31  1  0
  7 32  1  0
  7 33  1  0
 12 34  1  0
 13 35  1  0
 14 36  1  0
 15 37  1  0
 19 38  1  0
 19 39  1  0
 19 40  1  0
 22 41  1  0
 23 42  1  0
 26 43  1  0
 27 44  1  0
M  END
$$$$
