
     RDKit          3D

 43 46  0  0  0  0  0  0  0  0999 V2000
   -4.1231   -3.1523    0.1498 C   0  0  0  0  0  0  0  0  0  0  0  0
   -3.6440   -2.2950    1.3062 C   0  0  0  0  0  0  0  0  0  0  0  0
   -3.6949   -0.9078    0.9480 O   0  0  0  0  0  0  0  0  0  0  0  0
   -2.5940   -0.4159    0.3142 C   0  0  0  0  0  0  0  0  0  0  0  0
   -1.6058   -1.0753    0.0162 O   0  0  0  0  0  0  0  0  0  0  0  0
   -2.7731    0.9979    0.0313 C   0  0  0  0  0  0  0  0  0  0  0  0
   -3.8841    1.7915    0.2947 C   0  0  0  0  0  0  0  0  0  0  0  0
   -3.5652    3.1033   -0.1471 C   0  0  0  0  0  0  0  0  0  0  0  0
   -4.2935    4.6721   -0.2243 S   0  0  0  0  0  0  0  0  0  0  0  0
   -2.8589    5.2976   -0.9364 C   0  0  0  0  0  0  0  0  0  0  0  0
   -1.8632    4.3614   -1.1187 C   0  0  0  0  0  0  0  0  0  0  0  0
   -2.3017    3.0891   -0.6551 C   0  0  0  0  0  0  0  0  0  0  0  0
   -1.8123    1.8032   -0.5590 N   0  0  0  0  0  0  0  0  0  0  0  0
   -0.4962    1.4047   -1.0410 C   0  0  0  0  0  0  0  0  0  0  0  0
    0.5087    1.2193    0.0787 C   0  0  0  0  0  0  0  0  0  0  0  0
    0.4113    1.7917    1.1636 O   0  0  0  0  0  0  0  0  0  0  0  0
    1.6890    0.3366   -0.1631 C   0  0  0  0  0  0  0  0  0  0  0  0
    2.0758   -0.0614   -1.4506 C   0  0  0  0  0  0  0  0  0  0  0  0
    3.1900   -0.8888   -1.6243 C   0  0  0  0  0  0  0  0  0  0  0  0
    3.9195   -1.3184   -0.5183 C   0  0  0  0  0  0  0  0  0  0  0  0
    3.5584   -0.8968    0.7641 C   0  0  0  0  0  0  0  0  0  0  0  0
    2.4411   -0.0829    0.9437 C   0  0  0  0  0  0  0  0  0  0  0  0
    4.2515   -1.2512    1.8931 O   0  0  0  0  0  0  0  0  0  0  0  0
    5.5410   -1.7839    1.5703 C   0  0  0  0  0  0  0  0  0  0  0  0
    5.4376   -2.7858    0.4322 C   0  0  0  0  0  0  0  0  0  0  0  0
    4.9849   -2.1446   -0.7665 O   0  0  0  0  0  0  0  0  0  0  0  0
   -5.1280   -2.8497   -0.1624 H   0  0  0  0  0  0  0  0  0  0  0  0
   -3.4709   -3.0371   -0.7217 H   0  0  0  0  0  0  0  0  0  0  0  0
   -4.1443   -4.2085    0.4327 H   0  0  0  0  0  0  0  0  0  0  0  0
   -4.3115   -2.4286    2.1638 H   0  0  0  0  0  0  0  0  0  0  0  0
   -2.6393   -2.5868    1.6332 H   0  0  0  0  0  0  0  0  0  0  0  0
   -4.8096    1.4709    0.7548 H   0  0  0  0  0  0  0  0  0  0  0  0
   -2.8202    6.3489   -1.1871 H   0  0  0  0  0  0  0  0  0  0  0  0
   -0.8947    4.5838   -1.5465 H   0  0  0  0  0  0  0  0  0  0  0  0
   -0.1269    2.1798   -1.7203 H   0  0  0  0  0  0  0  0  0  0  0  0
   -0.6397    0.4867   -1.6173 H   0  0  0  0  0  0  0  0  0  0  0  0
    1.5362    0.2572   -2.3372 H   0  0  0  0  0  0  0  0  0  0  0  0
    3.4845   -1.2064   -2.6214 H   0  0  0  0  0  0  0  0  0  0  0  0
    2.1631    0.2273    1.9490 H   0  0  0  0  0  0  0  0  0  0  0  0
    6.2077   -0.9514    1.3132 H   0  0  0  0  0  0  0  0  0  0  0  0
    5.9334   -2.2705    2.4687 H   0  0  0  0  0  0  0  0  0  0  0  0
    6.4183   -3.2243    0.2234 H   0  0  0  0  0  0  0  0  0  0  0  0
    4.7435   -3.5999    0.6754 H   0  0  0  0  0  0  0  0  0  0  0  0
  1  2  1  0
  2  3  1  0
  3  4  1  0
  4  5  2  0
  4  6  1  0
  6  7  2  0
  7  8  1  0
  8  9  1  0
  9 10  1  0
 10 11  2  0
 11 12  1  0
 12 13  1  0
 13 14  1  0
 14 15  1  0
 15 16  2  0
 15 17  1  0
 17 18  2  0
 18 19  1  0
 19 20  2  0
 20 21  1  0
 21 22  2  0
 21 23  1  0
 23 24  1  0
 24 25  1  0
 25 26  1  0
 13  6  1  0
 22 17  1  0
 12  8  2  0
 26 20  1  0
  1 27  1  0
  1 28  1  0
  1 29  1  0
  2 30  1  0
  2 31  1  0
  7 32  1  0
 10 33  1  0
 11 34  1  0
 14 35  1  0
 14 36  1  0
 18 37  1  0
 19 38  1  0
 22 39  1  0
 24 40  1  0
 24 41  1  0
 25 42  1  0
 25 43  1  0
M  END
$$$$
