
     RDKit          3D

 39 41  0  0  0  0  0  0  0  0999 V2000
    4.1462   -2.8773   -0.3020 C   0  0  0  0  0  0  0  0  0  0  0  0
    4.3745   -1.4364   -0.0277 C   0  0  0  0  0  0  0  0  0  0  0  0
    5.6076   -0.9930    0.2503 N   0  0  0  0  0  0  0  0  0  0  0  0
    5.4459    0.3294    0.4271 N   0  0  0  0  0  0  0  0  0  0  0  0
    6.5915    1.1486    0.7380 C   0  0  0  0  0  0  0  0  0  0  0  0
    4.1575    0.7425    0.2838 C   0  0  0  0  0  0  0  0  0  0  0  0
    3.4180   -0.3847   -0.0145 C   0  0  0  0  0  0  0  0  0  0  0  0
    1.9957   -0.4619   -0.2577 C   0  0  0  0  0  0  0  0  0  0  0  0
    1.2906    0.6228   -0.2011 N   0  0  0  0  0  0  0  0  0  0  0  0
   -0.0568    0.5438   -0.4670 N   0  0  0  0  0  0  0  0  0  0  0  0
   -0.6589   -0.3212   -1.3727 C   0  0  0  0  0  0  0  0  0  0  0  0
   -0.0744   -1.1896   -2.0136 O   0  0  0  0  0  0  0  0  0  0  0  0
   -2.0906   -0.0629   -1.5660 C   0  0  0  0  0  0  0  0  0  0  0  0
   -2.6587   -0.1715   -2.8256 C   0  0  0  0  0  0  0  0  0  0  0  0
   -4.3262    0.1820   -2.8465 S   0  0  0  0  0  0  0  0  0  0  0  0
   -4.3459    0.4188   -1.1653 C   0  0  0  0  0  0  0  0  0  0  0  0
   -3.0988    0.2698   -0.5798 C   0  0  0  0  0  0  0  0  0  0  0  0
   -2.9321    0.3592    0.9153 C   0  0  0  0  0  0  0  0  0  0  0  0
   -4.1451    1.0053    1.6039 C   0  0  0  0  0  0  0  0  0  0  0  0
   -5.4696    0.4624    1.0568 C   0  0  0  0  0  0  0  0  0  0  0  0
   -5.6150    0.7542   -0.4420 C   0  0  0  0  0  0  0  0  0  0  0  0
    3.4652   -3.3027    0.4419 H   0  0  0  0  0  0  0  0  0  0  0  0
    5.0806   -3.4473   -0.2704 H   0  0  0  0  0  0  0  0  0  0  0  0
    3.7031   -3.0109   -1.2940 H   0  0  0  0  0  0  0  0  0  0  0  0
    6.2802    2.1926    0.8239 H   0  0  0  0  0  0  0  0  0  0  0  0
    7.0134    0.8054    1.6859 H   0  0  0  0  0  0  0  0  0  0  0  0
    7.3209    1.0427   -0.0689 H   0  0  0  0  0  0  0  0  0  0  0  0
    3.8667    1.7776    0.3981 H   0  0  0  0  0  0  0  0  0  0  0  0
    1.5806   -1.4644   -0.4487 H   0  0  0  0  0  0  0  0  0  0  0  0
   -0.5530    1.4074   -0.2711 H   0  0  0  0  0  0  0  0  0  0  0  0
   -2.1549   -0.4330   -3.7476 H   0  0  0  0  0  0  0  0  0  0  0  0
   -2.0432    0.9354    1.1841 H   0  0  0  0  0  0  0  0  0  0  0  0
   -2.7941   -0.6570    1.3054 H   0  0  0  0  0  0  0  0  0  0  0  0
   -4.0864    0.8306    2.6841 H   0  0  0  0  0  0  0  0  0  0  0  0
   -4.1143    2.0923    1.4540 H   0  0  0  0  0  0  0  0  0  0  0  0
   -5.5137   -0.6206    1.2292 H   0  0  0  0  0  0  0  0  0  0  0  0
   -6.3107    0.9082    1.5996 H   0  0  0  0  0  0  0  0  0  0  0  0
   -5.8343    1.8193   -0.5869 H   0  0  0  0  0  0  0  0  0  0  0  0
   -6.4617    0.1844   -0.8415 H   0  0  0  0  0  0  0  0  0  0  0  0
  1  2  1  0
  2  3  2  0
  3  4  1  0
  4  5  1  0
  4  6  1  0
  6  7  2  0
  7  8  1  0
  8  9  2  3
  9 10  1  0
 10 11  1  0
 11 12  2  0
 11 13  1  0
 13 14  2  0
 14 15  1  0
 15 16  1  0
 16 17  2  0
 17 18  1  0
 18 19  1  0
 19 20  1  0
 20 21  1  0
  7  2  1  0
 17 13  1  0
 21 16  1  0
  1 22  1  0
  1 23  1  0
  1 24  1  0
  5 25  1  0
  5 26  1  0
  5 27  1  0
  6 28  1  0
  8 29  1  0
 10 30  1  0
 14 31  1  0
 18 32  1  0
 18 33  1  0
 19 34  1  0
 19 35  1  0
 20 36  1  0
 20 37  1  0
 21 38  1  0
 21 39  1  0
M  END
$$$$
