
     RDKit          3D

 54 57  0  0  0  0  0  0  0  0999 V2000
    8.0638    3.2959    1.4036 C   0  0  0  0  0  0  0  0  0  0  0  0
    6.6887    3.6475    1.3130 O   0  0  0  0  0  0  0  0  0  0  0  0
    5.8207    2.6532    0.9579 C   0  0  0  0  0  0  0  0  0  0  0  0
    6.1539    1.3315    0.6784 C   0  0  0  0  0  0  0  0  0  0  0  0
    5.1545    0.4138    0.3249 C   0  0  0  0  0  0  0  0  0  0  0  0
    3.7989    0.7837    0.2445 C   0  0  0  0  0  0  0  0  0  0  0  0
    2.7672   -0.2091   -0.1267 C   0  0  0  0  0  0  0  0  0  0  0  0
    1.4563   -0.1407    0.3130 C   0  0  0  0  0  0  0  0  0  0  0  0
    0.5609   -1.1335   -0.0937 C   0  0  0  0  0  0  0  0  0  0  0  0
   -0.8351   -1.0327    0.3922 C   0  0  0  0  0  0  0  0  0  0  0  0
   -1.3704   -1.9684    0.9701 O   0  0  0  0  0  0  0  0  0  0  0  0
   -1.4571    0.1704    0.1285 N   0  0  0  0  0  0  0  0  0  0  0  0
   -2.8580    0.3732    0.4552 C   0  0  0  0  0  0  0  0  0  0  0  0
   -3.7971   -0.2532   -0.5969 C   0  0  0  0  0  0  0  0  0  0  0  0
   -5.2398   -0.1675   -0.3456 N   0  0  0  0  0  0  0  0  0  0  0  0
   -5.7796    1.1996   -0.3927 C   0  0  0  0  0  0  0  0  0  0  0  0
   -7.1919    1.2516    0.2097 C   0  0  0  0  0  0  0  0  0  0  0  0
   -7.2118    0.9199    1.6051 O   0  0  0  0  0  0  0  0  0  0  0  0
   -6.1595    0.0250    1.9919 C   0  0  0  0  0  0  0  0  0  0  0  0
   -5.6871   -0.8969    0.8554 C   0  0  0  0  0  0  0  0  0  0  0  0
    0.9764   -2.1968   -0.9221 C   0  0  0  0  0  0  0  0  0  0  0  0
    0.1418   -3.2461   -1.3857 C   0  0  0  0  0  0  0  0  0  0  0  0
    0.6403   -4.2512   -2.2121 C   0  0  0  0  0  0  0  0  0  0  0  0
    1.9743   -4.2235   -2.5900 C   0  0  0  0  0  0  0  0  0  0  0  0
    2.7987   -3.1908   -2.1381 C   0  0  0  0  0  0  0  0  0  0  0  0
    2.3264   -2.1781   -1.3134 C   0  0  0  0  0  0  0  0  0  0  0  0
    3.1856   -1.2179   -0.9300 N   0  0  0  0  0  0  0  0  0  0  0  0
    3.4881    2.1255    0.5231 C   0  0  0  0  0  0  0  0  0  0  0  0
    4.4848    3.0440    0.8763 C   0  0  0  0  0  0  0  0  0  0  0  0
    8.6195    4.1927    1.6944 H   0  0  0  0  0  0  0  0  0  0  0  0
    8.4511    2.9639    0.4347 H   0  0  0  0  0  0  0  0  0  0  0  0
    8.2274    2.5377    2.1765 H   0  0  0  0  0  0  0  0  0  0  0  0
    7.1773    0.9746    0.7223 H   0  0  0  0  0  0  0  0  0  0  0  0
    5.4456   -0.6144    0.1107 H   0  0  0  0  0  0  0  0  0  0  0  0
    1.1319    0.6419    0.9903 H   0  0  0  0  0  0  0  0  0  0  0  0
   -1.0112    0.8293   -0.4975 H   0  0  0  0  0  0  0  0  0  0  0  0
   -3.0427   -0.0568    1.4451 H   0  0  0  0  0  0  0  0  0  0  0  0
   -3.0057    1.4551    0.5200 H   0  0  0  0  0  0  0  0  0  0  0  0
   -3.5367   -1.3117   -0.7283 H   0  0  0  0  0  0  0  0  0  0  0  0
   -3.5844    0.2048   -1.5722 H   0  0  0  0  0  0  0  0  0  0  0  0
   -5.8117    1.5405   -1.4331 H   0  0  0  0  0  0  0  0  0  0  0  0
   -5.1469    1.8938    0.1714 H   0  0  0  0  0  0  0  0  0  0  0  0
   -7.6075    2.2593    0.1077 H   0  0  0  0  0  0  0  0  0  0  0  0
   -7.8680    0.5666   -0.3156 H   0  0  0  0  0  0  0  0  0  0  0  0
   -5.3272    0.6290    2.3709 H   0  0  0  0  0  0  0  0  0  0  0  0
   -6.5315   -0.5735    2.8298 H   0  0  0  0  0  0  0  0  0  0  0  0
   -6.5376   -1.5180    0.5470 H   0  0  0  0  0  0  0  0  0  0  0  0
   -4.9220   -1.5894    1.2254 H   0  0  0  0  0  0  0  0  0  0  0  0
   -0.9069   -3.2919   -1.0964 H   0  0  0  0  0  0  0  0  0  0  0  0
   -0.0118   -5.0514   -2.5530 H   0  0  0  0  0  0  0  0  0  0  0  0
    2.3793   -5.0008   -3.2328 H   0  0  0  0  0  0  0  0  0  0  0  0
    3.8440   -3.1756   -2.4399 H   0  0  0  0  0  0  0  0  0  0  0  0
    2.4662    2.4893    0.4543 H   0  0  0  0  0  0  0  0  0  0  0  0
    4.2151    4.0767    1.0845 H   0  0  0  0  0  0  0  0  0  0  0  0
  1  2  1  0
  2  3  1  0
  3  4  2  0
  4  5  1  0
  5  6  2  0
  6  7  1  0
  7  8  2  0
  8  9  1  0
  9 10  1  0
 10 11  2  0
 10 12  1  0
 12 13  1  0
 13 14  1  0
 14 15  1  0
 15 16  1  0
 16 17  1  0
 17 18  1  0
 18 19  1  0
 19 20  1  0
  9 21  2  0
 21 22  1  0
 22 23  2  0
 23 24  1  0
 24 25  2  0
 25 26  1  0
 26 27  2  0
  6 28  1  0
 28 29  2  0
 29  3  1  0
 27  7  1  0
 20 15  1  0
 26 21  1  0
  1 30  1  0
  1 31  1  0
  1 32  1  0
  4 33  1  0
  5 34  1  0
  8 35  1  0
 12 36  1  0
 13 37  1  0
 13 38  1  0
 14 39  1  0
 14 40  1  0
 16 41  1  0
 16 42  1  0
 17 43  1  0
 17 44  1  0
 19 45  1  0
 19 46  1  0
 20 47  1  0
 20 48  1  0
 22 49  1  0
 23 50  1  0
 24 51  1  0
 25 52  1  0
 28 53  1  0
 29 54  1  0
M  END
$$$$
