
     RDKit          3D

 49 52  0  0  0  0  0  0  0  0999 V2000
   -4.8294    4.1351   -0.8848 C   0  0  0  0  0  0  0  0  0  0  0  0
   -3.9745    2.9098   -1.1540 C   0  0  0  0  0  0  0  0  0  0  0  0
   -3.6752    2.2982    0.0997 O   0  0  0  0  0  0  0  0  0  0  0  0
   -2.9177    1.1608    0.0739 C   0  0  0  0  0  0  0  0  0  0  0  0
   -2.6748    0.5950    1.3278 C   0  0  0  0  0  0  0  0  0  0  0  0
   -1.9116   -0.5682    1.4513 C   0  0  0  0  0  0  0  0  0  0  0  0
   -1.3849   -1.1826    0.3112 C   0  0  0  0  0  0  0  0  0  0  0  0
   -0.5436   -2.3656    0.4326 C   0  0  0  0  0  0  0  0  0  0  0  0
    0.8371   -2.5140    0.3169 C   0  0  0  0  0  0  0  0  0  0  0  0
    1.9024   -1.5360    0.0599 C   0  0  0  0  0  0  0  0  0  0  0  0
    2.9768   -1.9007   -0.4132 O   0  0  0  0  0  0  0  0  0  0  0  0
    1.6059   -0.2149    0.3978 N   0  0  0  0  0  0  0  0  0  0  0  0
    2.3869    0.8864    0.1383 N   0  0  0  0  0  0  0  0  0  0  0  0
    3.6759    0.7568    0.1619 C   0  0  0  0  0  0  0  0  0  0  0  0
    4.5729    1.8882   -0.1558 C   0  0  0  0  0  0  0  0  0  0  0  0
    4.0587    3.1464   -0.4829 C   0  0  0  0  0  0  0  0  0  0  0  0
    4.9301    4.1966   -0.7763 C   0  0  0  0  0  0  0  0  0  0  0  0
    6.3096    3.9892   -0.7438 C   0  0  0  0  0  0  0  0  0  0  0  0
    6.8220    2.7325   -0.4189 C   0  0  0  0  0  0  0  0  0  0  0  0
    5.9550    1.6788   -0.1241 C   0  0  0  0  0  0  0  0  0  0  0  0
    1.1517   -3.8417    0.4631 N   0  0  0  0  0  0  0  0  0  0  0  0
    0.0427   -4.5203    0.6837 N   0  0  0  0  0  0  0  0  0  0  0  0
   -1.0180   -3.6692    0.6364 N   0  0  0  0  0  0  0  0  0  0  0  0
   -2.3480   -4.1484    0.7580 C   0  0  0  0  0  0  0  0  0  0  0  0
   -3.3949   -3.3323    0.6329 N   0  0  0  0  0  0  0  0  0  0  0  0
   -4.4992   -4.1674    0.7907 O   0  0  0  0  0  0  0  0  0  0  0  0
   -4.1088   -5.4848    1.0055 N   0  0  0  0  0  0  0  0  0  0  0  0
   -2.7767   -5.4692    0.9911 C   0  0  0  0  0  0  0  0  0  0  0  0
   -2.0026   -6.5554    1.1760 N   0  0  0  0  0  0  0  0  0  0  0  0
   -1.6232   -0.6150   -0.9454 C   0  0  0  0  0  0  0  0  0  0  0  0
   -2.3882    0.5511   -1.0631 C   0  0  0  0  0  0  0  0  0  0  0  0
   -5.0875    4.6432   -1.8182 H   0  0  0  0  0  0  0  0  0  0  0  0
   -4.3003    4.8388   -0.2336 H   0  0  0  0  0  0  0  0  0  0  0  0
   -5.7529    3.8547   -0.3674 H   0  0  0  0  0  0  0  0  0  0  0  0
   -3.0506    3.2212   -1.6550 H   0  0  0  0  0  0  0  0  0  0  0  0
   -4.5342    2.2162   -1.7921 H   0  0  0  0  0  0  0  0  0  0  0  0
   -3.0876    1.0657    2.2175 H   0  0  0  0  0  0  0  0  0  0  0  0
   -1.7409   -0.9828    2.4424 H   0  0  0  0  0  0  0  0  0  0  0  0
    0.6510    0.0356    0.6230 H   0  0  0  0  0  0  0  0  0  0  0  0
    4.1801   -0.1806    0.4497 H   0  0  0  0  0  0  0  0  0  0  0  0
    2.9850    3.3144   -0.5106 H   0  0  0  0  0  0  0  0  0  0  0  0
    4.5327    5.1759   -1.0308 H   0  0  0  0  0  0  0  0  0  0  0  0
    6.9866    4.8084   -0.9737 H   0  0  0  0  0  0  0  0  0  0  0  0
    7.8974    2.5739   -0.3970 H   0  0  0  0  0  0  0  0  0  0  0  0
    6.3651    0.7031    0.1237 H   0  0  0  0  0  0  0  0  0  0  0  0
   -1.0072   -6.5368    0.9566 H   0  0  0  0  0  0  0  0  0  0  0  0
   -2.4258   -7.4762    1.1231 H   0  0  0  0  0  0  0  0  0  0  0  0
   -1.2177   -1.0702   -1.8473 H   0  0  0  0  0  0  0  0  0  0  0  0
   -2.5494    0.9563   -2.0568 H   0  0  0  0  0  0  0  0  0  0  0  0
  1  2  1  0
  2  3  1  0
  3  4  1  0
  4  5  2  0
  5  6  1  0
  6  7  2  0
  7  8  1  0
  8  9  2  0
  9 10  1  0
 10 11  2  0
 10 12  1  0
 12 13  1  0
 13 14  2  3
 14 15  1  0
 15 16  2  0
 16 17  1  0
 17 18  2  0
 18 19  1  0
 19 20  2  0
  9 21  1  0
 21 22  2  0
 22 23  1  0
 23 24  1  0
 24 25  2  0
 25 26  1  0
 26 27  1  0
 27 28  2  0
 28 29  1  0
  7 30  1  0
 30 31  2  0
 31  4  1  0
 23  8  1  0
 28 24  1  0
 20 15  1  0
  1 32  1  0
  1 33  1  0
  1 34  1  0
  2 35  1  0
  2 36  1  0
  5 37  1  0
  6 38  1  0
 12 39  1  0
 14 40  1  0
 16 41  1  0
 17 42  1  0
 18 43  1  0
 19 44  1  0
 20 45  1  0
 29 46  1  0
 29 47  1  0
 30 48  1  0
 31 49  1  0
M  END
$$$$
