
     RDKit          3D

 60 64  0  0  0  0  0  0  0  0999 V2000
   -6.3362   -3.8871   -0.7417 C   0  0  0  0  0  0  0  0  0  0  0  0
   -5.1334   -3.0476   -0.4325 C   0  0  0  0  0  0  0  0  0  0  0  0
   -3.9860   -3.6171    0.1175 C   0  0  0  0  0  0  0  0  0  0  0  0
   -2.8775   -2.8193    0.4211 C   0  0  0  0  0  0  0  0  0  0  0  0
   -2.8813   -1.4359    0.1877 C   0  0  0  0  0  0  0  0  0  0  0  0
   -1.7502   -0.6965    0.5531 N   0  0  0  0  0  0  0  0  0  0  0  0
   -1.4489    0.6629    0.5561 C   0  0  0  0  0  0  0  0  0  0  0  0
   -0.1704    0.9440    0.7448 N   0  0  0  0  0  0  0  0  0  0  0  0
    0.1311    2.2339    0.6833 C   0  0  0  0  0  0  0  0  0  0  0  0
    1.4380    2.6407    0.9027 O   0  0  0  0  0  0  0  0  0  0  0  0
    2.4131    1.7030    0.6399 C   0  0  0  0  0  0  0  0  0  0  0  0
    3.4270    1.5548    1.5650 C   0  0  0  0  0  0  0  0  0  0  0  0
    4.4254    0.6260    1.2972 C   0  0  0  0  0  0  0  0  0  0  0  0
    4.3554   -0.0909    0.1159 C   0  0  0  0  0  0  0  0  0  0  0  0
    5.3441   -1.0245   -0.1085 O   0  0  0  0  0  0  0  0  0  0  0  0
    5.0755   -1.8516   -1.2443 C   0  0  0  0  0  0  0  0  0  0  0  0
    6.1505   -2.9104   -1.3334 C   0  0  0  0  0  0  0  0  0  0  0  0
    6.4030   -3.7638   -0.2478 C   0  0  0  0  0  0  0  0  0  0  0  0
    7.3791   -4.7591   -0.3379 C   0  0  0  0  0  0  0  0  0  0  0  0
    8.1118   -4.9102   -1.5132 C   0  0  0  0  0  0  0  0  0  0  0  0
    7.8681   -4.0700   -2.5996 C   0  0  0  0  0  0  0  0  0  0  0  0
    6.8896   -3.0786   -2.5130 C   0  0  0  0  0  0  0  0  0  0  0  0
    3.3740    0.1047   -0.7885 N   0  0  0  0  0  0  0  0  0  0  0  0
    2.3966    1.0237   -0.5297 N   0  0  0  0  0  0  0  0  0  0  0  0
   -0.7401    3.2268    0.5633 N   0  0  0  0  0  0  0  0  0  0  0  0
   -2.0093    2.8634    0.4398 C   0  0  0  0  0  0  0  0  0  0  0  0
   -2.9731    3.8506    0.3090 N   0  0  0  0  0  0  0  0  0  0  0  0
   -4.3667    3.5229    0.6390 C   0  0  0  0  0  0  0  0  0  0  0  0
   -4.8612    4.4219    1.7850 C   0  0  0  0  0  0  0  0  0  0  0  0
   -4.7905    5.8288    1.4964 O   0  0  0  0  0  0  0  0  0  0  0  0
   -3.7695    6.1649    0.5425 C   0  0  0  0  0  0  0  0  0  0  0  0
   -2.5528    5.2276    0.5986 C   0  0  0  0  0  0  0  0  0  0  0  0
   -2.3884    1.5905    0.4156 N   0  0  0  0  0  0  0  0  0  0  0  0
   -4.0502   -0.8727   -0.3295 C   0  0  0  0  0  0  0  0  0  0  0  0
   -5.1615   -1.6662   -0.6426 C   0  0  0  0  0  0  0  0  0  0  0  0
   -6.0666   -4.9466   -0.8435 H   0  0  0  0  0  0  0  0  0  0  0  0
   -6.7899   -3.5726   -1.6895 H   0  0  0  0  0  0  0  0  0  0  0  0
   -7.0759   -3.7917    0.0627 H   0  0  0  0  0  0  0  0  0  0  0  0
   -3.9425   -4.6846    0.3171 H   0  0  0  0  0  0  0  0  0  0  0  0
   -2.0012   -3.2950    0.8512 H   0  0  0  0  0  0  0  0  0  0  0  0
   -0.8902   -1.2223    0.6485 H   0  0  0  0  0  0  0  0  0  0  0  0
    3.4363    2.1399    2.4763 H   0  0  0  0  0  0  0  0  0  0  0  0
    5.2339    0.4582    1.9941 H   0  0  0  0  0  0  0  0  0  0  0  0
    4.1029   -2.3610   -1.1416 H   0  0  0  0  0  0  0  0  0  0  0  0
    5.0751   -1.2395   -2.1602 H   0  0  0  0  0  0  0  0  0  0  0  0
    5.8401   -3.6535    0.6765 H   0  0  0  0  0  0  0  0  0  0  0  0
    7.5679   -5.4155    0.5085 H   0  0  0  0  0  0  0  0  0  0  0  0
    8.8730   -5.6828   -1.5832 H   0  0  0  0  0  0  0  0  0  0  0  0
    8.4401   -4.1873   -3.5165 H   0  0  0  0  0  0  0  0  0  0  0  0
    6.7101   -2.4382   -3.3742 H   0  0  0  0  0  0  0  0  0  0  0  0
   -4.5208    2.4764    0.9232 H   0  0  0  0  0  0  0  0  0  0  0  0
   -4.9754    3.7096   -0.2545 H   0  0  0  0  0  0  0  0  0  0  0  0
   -4.2723    4.2408    2.6918 H   0  0  0  0  0  0  0  0  0  0  0  0
   -5.9042    4.1895    2.0208 H   0  0  0  0  0  0  0  0  0  0  0  0
   -4.2264    6.1457   -0.4547 H   0  0  0  0  0  0  0  0  0  0  0  0
   -3.4621    7.1965    0.7414 H   0  0  0  0  0  0  0  0  0  0  0  0
   -2.1114    5.2826    1.6031 H   0  0  0  0  0  0  0  0  0  0  0  0
   -1.8091    5.5620   -0.1344 H   0  0  0  0  0  0  0  0  0  0  0  0
   -4.1171    0.1941   -0.5210 H   0  0  0  0  0  0  0  0  0  0  0  0
   -6.0491   -1.1924   -1.0532 H   0  0  0  0  0  0  0  0  0  0  0  0
  1  2  1  0
  2  3  2  0
  3  4  1  0
  4  5  2  0
  5  6  1  0
  6  7  1  0
  7  8  2  0
  8  9  1  0
  9 10  1  0
 10 11  1  0
 11 12  2  0
 12 13  1  0
 13 14  2  0
 14 15  1  0
 15 16  1  0
 16 17  1  0
 17 18  2  0
 18 19  1  0
 19 20  2  0
 20 21  1  0
 21 22  2  0
 14 23  1  0
 23 24  2  0
  9 25  2  0
 25 26  1  0
 26 27  1  0
 27 28  1  0
 28 29  1  0
 29 30  1  0
 30 31  1  0
 31 32  1  0
 26 33  2  0
  5 34  1  0
 34 35  2  0
 35  2  1  0
 33  7  1  0
 24 11  1  0
 32 27  1  0
 22 17  1  0
  1 36  1  0
  1 37  1  0
  1 38  1  0
  3 39  1  0
  4 40  1  0
  6 41  1  0
 12 42  1  0
 13 43  1  0
 16 44  1  0
 16 45  1  0
 18 46  1  0
 19 47  1  0
 20 48  1  0
 21 49  1  0
 22 50  1  0
 28 51  1  0
 28 52  1  0
 29 53  1  0
 29 54  1  0
 31 55  1  0
 31 56  1  0
 32 57  1  0
 32 58  1  0
 34 59  1  0
 35 60  1  0
M  END
$$$$
