
     RDKit          3D

 53 56  0  0  0  0  0  0  0  0999 V2000
    5.3577   -3.3325   -1.6962 C   0  0  0  0  0  0  0  0  0  0  0  0
    4.9440   -2.1839   -0.8260 C   0  0  0  0  0  0  0  0  0  0  0  0
    3.6180   -1.8025   -0.7556 C   0  0  0  0  0  0  0  0  0  0  0  0
    3.2904   -0.7339    0.0797 C   0  0  0  0  0  0  0  0  0  0  0  0
    1.8703   -0.3209    0.1372 C   0  0  0  0  0  0  0  0  0  0  0  0
    1.2634   -0.4545    1.1897 O   0  0  0  0  0  0  0  0  0  0  0  0
    1.3895    0.1687   -1.0624 N   0  0  0  0  0  0  0  0  0  0  0  0
    0.0934    0.6563   -1.3270 C   0  0  0  0  0  0  0  0  0  0  0  0
   -0.1940    1.0160   -2.6465 C   0  0  0  0  0  0  0  0  0  0  0  0
   -1.4601    1.4923   -2.9993 C   0  0  0  0  0  0  0  0  0  0  0  0
   -2.4762    1.6217   -2.0415 C   0  0  0  0  0  0  0  0  0  0  0  0
   -3.8114    2.1527   -2.4833 C   0  0  0  0  0  0  0  0  0  0  0  0
   -2.1745    1.2819   -0.7092 C   0  0  0  0  0  0  0  0  0  0  0  0
   -3.3765    1.4714    0.6013 S   0  0  0  0  0  6  0  0  0  0  0  0
   -4.0730    2.7221    0.3876 O   0  0  0  0  0  0  0  0  0  0  0  0
   -2.7324    1.2068    1.8693 O   0  0  0  0  0  0  0  0  0  0  0  0
   -4.4621    0.1938    0.2981 N   0  0  0  0  0  0  0  0  0  0  0  0
   -3.9328   -1.1991    0.4562 C   0  0  0  0  0  0  0  0  0  0  0  0
   -3.9832   -1.6768    1.9134 C   0  0  0  0  0  0  0  0  0  0  0  0
   -5.3044   -1.5515    2.4596 O   0  0  0  0  0  0  0  0  0  0  0  0
   -5.7332   -0.1824    2.4195 C   0  0  0  0  0  0  0  0  0  0  0  0
   -5.7907    0.3220    0.9756 C   0  0  0  0  0  0  0  0  0  0  0  0
   -0.8981    0.8041   -0.3582 C   0  0  0  0  0  0  0  0  0  0  0  0
    4.2731   -0.0706    0.8439 C   0  0  0  0  0  0  0  0  0  0  0  0
    4.0209    1.0130    1.7225 C   0  0  0  0  0  0  0  0  0  0  0  0
    5.0568    1.6183    2.4307 C   0  0  0  0  0  0  0  0  0  0  0  0
    6.3544    1.1539    2.2715 C   0  0  0  0  0  0  0  0  0  0  0  0
    6.6061    0.0861    1.4065 C   0  0  0  0  0  0  0  0  0  0  0  0
    5.5920   -0.5359    0.6900 C   0  0  0  0  0  0  0  0  0  0  0  0
    5.9154   -1.5557   -0.1267 N   0  0  0  0  0  0  0  0  0  0  0  0
    6.4386   -3.4964   -1.6379 H   0  0  0  0  0  0  0  0  0  0  0  0
    4.8559   -4.2504   -1.3745 H   0  0  0  0  0  0  0  0  0  0  0  0
    5.1000   -3.1280   -2.7400 H   0  0  0  0  0  0  0  0  0  0  0  0
    2.8555   -2.3317   -1.3174 H   0  0  0  0  0  0  0  0  0  0  0  0
    2.0396    0.1915   -1.8392 H   0  0  0  0  0  0  0  0  0  0  0  0
    0.5592    0.9276   -3.4257 H   0  0  0  0  0  0  0  0  0  0  0  0
   -1.6468    1.7637   -4.0373 H   0  0  0  0  0  0  0  0  0  0  0  0
   -3.9244    3.1978   -2.1805 H   0  0  0  0  0  0  0  0  0  0  0  0
   -4.6326    1.5548   -2.0794 H   0  0  0  0  0  0  0  0  0  0  0  0
   -3.9102    2.1126   -3.5740 H   0  0  0  0  0  0  0  0  0  0  0  0
   -2.9195   -1.2870    0.0563 H   0  0  0  0  0  0  0  0  0  0  0  0
   -4.5682   -1.8483   -0.1596 H   0  0  0  0  0  0  0  0  0  0  0  0
   -3.2787   -1.1372    2.5535 H   0  0  0  0  0  0  0  0  0  0  0  0
   -3.7113   -2.7365    1.9577 H   0  0  0  0  0  0  0  0  0  0  0  0
   -5.0678    0.4256    3.0420 H   0  0  0  0  0  0  0  0  0  0  0  0
   -6.7325   -0.1396    2.8641 H   0  0  0  0  0  0  0  0  0  0  0  0
   -6.1540    1.3533    0.9361 H   0  0  0  0  0  0  0  0  0  0  0  0
   -6.5028   -0.2841    0.4015 H   0  0  0  0  0  0  0  0  0  0  0  0
   -0.6969    0.5621    0.6815 H   0  0  0  0  0  0  0  0  0  0  0  0
    3.0079    1.3854    1.8698 H   0  0  0  0  0  0  0  0  0  0  0  0
    4.8470    2.4438    3.1063 H   0  0  0  0  0  0  0  0  0  0  0  0
    7.1728    1.6138    2.8193 H   0  0  0  0  0  0  0  0  0  0  0  0
    7.6261   -0.2737    1.2893 H   0  0  0  0  0  0  0  0  0  0  0  0
  1  2  1  0
  2  3  2  0
  3  4  1  0
  4  5  1  0
  5  6  2  0
  5  7  1  0
  7  8  1  0
  8  9  2  0
  9 10  1  0
 10 11  2  0
 11 12  1  0
 11 13  1  0
 13 14  1  0
 14 15  2  0
 14 16  2  0
 14 17  1  0
 17 18  1  0
 18 19  1  0
 19 20  1  0
 20 21  1  0
 21 22  1  0
 13 23  2  0
  4 24  2  0
 24 25  1  0
 25 26  2  0
 26 27  1  0
 27 28  2  0
 28 29  1  0
 29 30  2  0
 30  2  1  0
 23  8  1  0
 29 24  1  0
 22 17  1  0
  1 31  1  0
  1 32  1  0
  1 33  1  0
  3 34  1  0
  7 35  1  0
  9 36  1  0
 10 37  1  0
 12 38  1  0
 12 39  1  0
 12 40  1  0
 18 41  1  0
 18 42  1  0
 19 43  1  0
 19 44  1  0
 21 45  1  0
 21 46  1  0
 22 47  1  0
 22 48  1  0
 23 49  1  0
 25 50  1  0
 26 51  1  0
 27 52  1  0
 28 53  1  0
M  END
$$$$
