
     RDKit          3D

 30 31  0  0  0  0  0  0  0  0999 V2000
    0.9837    0.9529   -0.5280 O   0  0  0  0  0  0  0  0  0  0  0  0
    1.1575    0.8776    0.6886 C   0  0  0  0  0  0  0  0  0  0  0  0
    2.5123    1.1608    1.3330 C   0  0  0  0  0  0  0  0  0  0  0  0
    3.6231    0.5750    0.5185 C   0  0  0  0  0  0  0  0  0  0  0  0
    4.4654   -0.3960    0.9022 C   0  0  0  0  0  0  0  0  0  0  0  0
    5.3272   -0.6386   -0.2720 C   0  0  0  0  0  0  0  0  0  0  0  0
    6.3089   -1.3568   -0.2832 O   0  0  0  0  0  0  0  0  0  0  0  0
    4.8157    0.1238   -1.3083 N   0  0  0  0  0  0  0  0  0  0  0  0
    3.8639    1.0037   -0.7837 N   0  0  0  0  0  0  0  0  0  0  0  0
    0.1750    0.5601    1.6280 N   0  0  0  0  0  0  0  0  0  0  0  0
   -1.1555    0.4187    1.3212 N   0  0  0  0  0  0  0  0  0  0  0  0
   -1.4511   -0.2586    0.2522 C   0  0  0  0  0  0  0  0  0  0  0  0
   -2.8560   -0.4187   -0.1970 C   0  0  0  0  0  0  0  0  0  0  0  0
   -3.8587    0.2789    0.4982 C   0  0  0  0  0  0  0  0  0  0  0  0
   -5.1942    0.1711    0.1151 C   0  0  0  0  0  0  0  0  0  0  0  0
   -5.5389   -0.6349   -0.9659 C   0  0  0  0  0  0  0  0  0  0  0  0
   -4.5496   -1.3353   -1.6655 C   0  0  0  0  0  0  0  0  0  0  0  0
   -5.0765   -2.3147   -2.9931 Cl  0  0  0  0  0  0  0  0  0  0  0  0
   -3.1988   -1.2347   -1.2886 C   0  0  0  0  0  0  0  0  0  0  0  0
   -1.9896   -2.1227   -2.1622 Cl  0  0  0  0  0  0  0  0  0  0  0  0
    2.5361    0.7541    2.3508 H   0  0  0  0  0  0  0  0  0  0  0  0
    2.6295    2.2475    1.4103 H   0  0  0  0  0  0  0  0  0  0  0  0
    4.5482   -0.9249    1.8321 H   0  0  0  0  0  0  0  0  0  0  0  0
    5.4272    0.4204   -2.0603 H   0  0  0  0  0  0  0  0  0  0  0  0
    2.9860    1.0523   -1.3246 H   0  0  0  0  0  0  0  0  0  0  0  0
    0.3254    0.8791    2.5812 H   0  0  0  0  0  0  0  0  0  0  0  0
   -0.6668   -0.7581   -0.3386 H   0  0  0  0  0  0  0  0  0  0  0  0
   -3.6035    0.9167    1.3431 H   0  0  0  0  0  0  0  0  0  0  0  0
   -5.9630    0.7164    0.6582 H   0  0  0  0  0  0  0  0  0  0  0  0
   -6.5829   -0.7153   -1.2614 H   0  0  0  0  0  0  0  0  0  0  0  0
  1  2  2  0
  2  3  1  0
  3  4  1  0
  4  5  2  0
  5  6  1  0
  6  7  2  0
  6  8  1  0
  8  9  1  0
  2 10  1  0
 10 11  1  0
 11 12  2  3
 12 13  1  0
 13 14  2  0
 14 15  1  0
 15 16  2  0
 16 17  1  0
 17 18  1  0
 17 19  2  0
 19 20  1  0
  9  4  1  0
 19 13  1  0
  3 21  1  0
  3 22  1  0
  5 23  1  0
  8 24  1  0
  9 25  1  0
 10 26  1  0
 12 27  1  0
 14 28  1  0
 15 29  1  0
 16 30  1  0
M  END
$$$$
