
     RDKit          3D

 55 57  0  0  0  0  0  0  0  0999 V2000
    0.9716    3.5934   -0.5749 C   0  0  0  0  0  0  0  0  0  0  0  0
    1.3653    2.7373    0.6319 C   0  0  0  0  0  0  0  0  0  0  0  0
    2.1162    3.6037    1.6481 C   0  0  0  0  0  0  0  0  0  0  0  0
    0.1449    2.0805    1.3141 C   0  0  0  0  0  0  0  0  0  0  0  0
   -0.6051    1.0485    0.4481 C   0  0  0  0  0  0  0  0  0  0  0  0
    0.1796   -0.2393    0.2409 C   0  0  0  0  0  0  0  0  0  0  0  0
    1.2950   -0.4825    0.6922 O   0  0  0  0  0  0  0  0  0  0  0  0
   -0.5014   -1.0937   -0.5847 O   0  0  0  0  0  0  0  0  0  0  0  0
    0.2304   -2.2690   -0.9204 C   0  0  0  0  0  0  0  0  0  0  0  0
    1.3863   -1.9847   -1.8907 C   0  0  0  0  0  0  0  0  0  0  0  0
    1.2491   -1.1886   -2.8173 O   0  0  0  0  0  0  0  0  0  0  0  0
    2.5327   -2.7076   -1.5946 N   0  0  0  0  0  0  0  0  0  0  0  0
    3.7386   -2.7389   -2.3274 C   0  0  0  0  0  0  0  0  0  0  0  0
    3.9138   -2.1190   -3.5681 C   0  0  0  0  0  0  0  0  0  0  0  0
    5.1377   -2.2057   -4.2412 C   0  0  0  0  0  0  0  0  0  0  0  0
    6.1966   -2.9190   -3.6814 C   0  0  0  0  0  0  0  0  0  0  0  0
    6.0256   -3.5414   -2.4480 C   0  0  0  0  0  0  0  0  0  0  0  0
    7.3270   -4.4288   -1.7505 Cl  0  0  0  0  0  0  0  0  0  0  0  0
    4.8070   -3.4564   -1.7718 C   0  0  0  0  0  0  0  0  0  0  0  0
   -1.9358    0.7786    1.0083 N   0  0  0  0  0  0  0  0  0  0  0  0
   -2.1984    0.0169    2.1260 C   0  0  0  0  0  0  0  0  0  0  0  0
   -1.2132   -0.5654    2.7983 O   0  0  0  0  0  0  0  0  0  0  0  0
   -3.5636    0.0200    2.3267 C   0  0  0  0  0  0  0  0  0  0  0  0
   -4.1447    0.8237    1.2968 C   0  0  0  0  0  0  0  0  0  0  0  0
   -3.1139    1.2890    0.5065 C   0  0  0  0  0  0  0  0  0  0  0  0
   -3.1132    2.0810   -0.5590 O   0  0  0  0  0  0  0  0  0  0  0  0
   -5.6156    1.0660    1.1823 C   0  0  0  0  0  0  0  0  0  0  0  0
   -6.3993    0.3755    2.2748 C   0  0  0  0  0  0  0  0  0  0  0  0
   -5.8518   -0.3810    3.2464 C   0  0  0  0  0  0  0  0  0  0  0  0
   -4.3716   -0.6524    3.3895 C   0  0  0  0  0  0  0  0  0  0  0  0
    1.8449    4.1170   -0.9796 H   0  0  0  0  0  0  0  0  0  0  0  0
    0.5609    2.9820   -1.3846 H   0  0  0  0  0  0  0  0  0  0  0  0
    0.2241    4.3471   -0.3023 H   0  0  0  0  0  0  0  0  0  0  0  0
    2.0563    1.9588    0.2872 H   0  0  0  0  0  0  0  0  0  0  0  0
    2.4482    3.0023    2.5018 H   0  0  0  0  0  0  0  0  0  0  0  0
    1.4815    4.4120    2.0274 H   0  0  0  0  0  0  0  0  0  0  0  0
    3.0049    4.0555    1.1942 H   0  0  0  0  0  0  0  0  0  0  0  0
   -0.5509    2.8747    1.6198 H   0  0  0  0  0  0  0  0  0  0  0  0
    0.4779    1.5976    2.2428 H   0  0  0  0  0  0  0  0  0  0  0  0
   -0.7645    1.4632   -0.5528 H   0  0  0  0  0  0  0  0  0  0  0  0
    0.5682   -2.7796   -0.0100 H   0  0  0  0  0  0  0  0  0  0  0  0
   -0.4578   -2.9519   -1.4319 H   0  0  0  0  0  0  0  0  0  0  0  0
    2.5470   -3.1901   -0.7027 H   0  0  0  0  0  0  0  0  0  0  0  0
    3.1146   -1.5571   -4.0457 H   0  0  0  0  0  0  0  0  0  0  0  0
    5.2591   -1.7129   -5.2028 H   0  0  0  0  0  0  0  0  0  0  0  0
    7.1449   -2.9834   -4.2077 H   0  0  0  0  0  0  0  0  0  0  0  0
    4.7035   -3.9493   -0.8088 H   0  0  0  0  0  0  0  0  0  0  0  0
   -1.6090   -1.0254    3.5585 H   0  0  0  0  0  0  0  0  0  0  0  0
   -4.0383    2.3130   -0.7516 H   0  0  0  0  0  0  0  0  0  0  0  0
   -5.9698    0.7029    0.2100 H   0  0  0  0  0  0  0  0  0  0  0  0
   -5.8130    2.1437    1.2312 H   0  0  0  0  0  0  0  0  0  0  0  0
   -7.4775    0.5138    2.2538 H   0  0  0  0  0  0  0  0  0  0  0  0
   -6.4993   -0.8380    3.9906 H   0  0  0  0  0  0  0  0  0  0  0  0
   -4.2039   -1.7350    3.3448 H   0  0  0  0  0  0  0  0  0  0  0  0
   -4.0412   -0.3016    4.3742 H   0  0  0  0  0  0  0  0  0  0  0  0
  1  2  1  0
  2  3  1  0
  2  4  1  0
  4  5  1  0
  5  6  1  0
  6  7  2  0
  6  8  1  0
  8  9  1  0
  9 10  1  0
 10 11  2  0
 10 12  1  0
 12 13  1  0
 13 14  2  0
 14 15  1  0
 15 16  2  0
 16 17  1  0
 17 18  1  0
 17 19  2  0
  5 20  1  0
 20 21  1  0
 21 22  1  0
 21 23  2  0
 23 24  1  0
 24 25  2  0
 25 26  1  0
 24 27  1  0
 27 28  1  0
 28 29  2  0
 29 30  1  0
 19 13  1  0
 25 20  1  0
 30 23  1  0
  1 31  1  0
  1 32  1  0
  1 33  1  0
  2 34  1  0
  3 35  1  0
  3 36  1  0
  3 37  1  0
  4 38  1  0
  4 39  1  0
  5 40  1  0
  9 41  1  0
  9 42  1  0
 12 43  1  0
 14 44  1  0
 15 45  1  0
 16 46  1  0
 19 47  1  0
 22 48  1  0
 26 49  1  0
 27 50  1  0
 27 51  1  0
 28 52  1  0
 29 53  1  0
 30 54  1  0
 30 55  1  0
M  END
$$$$
