
     RDKit          3D

 52 55  0  0  0  0  0  0  0  0999 V2000
   -6.6732   -4.8972   -0.0174 C   0  0  0  0  0  0  0  0  0  0  0  0
   -6.8020   -3.5189   -0.3452 O   0  0  0  0  0  0  0  0  0  0  0  0
   -5.6442   -2.8394   -0.6063 C   0  0  0  0  0  0  0  0  0  0  0  0
   -5.8074   -1.4702   -0.8279 C   0  0  0  0  0  0  0  0  0  0  0  0
   -4.7059   -0.6558   -1.1052 C   0  0  0  0  0  0  0  0  0  0  0  0
   -3.4221   -1.2053   -1.1625 C   0  0  0  0  0  0  0  0  0  0  0  0
   -2.2860   -0.3420   -1.4951 C   0  0  0  0  0  0  0  0  0  0  0  0
   -1.2497   -0.0204   -0.7055 C   0  0  0  0  0  0  0  0  0  0  0  0
    0.0017    1.0335   -1.2607 S   0  0  0  0  0  0  0  0  0  0  0  0
    0.6511    1.2143    0.3574 C   0  0  0  0  0  0  0  0  0  0  0  0
    1.4574    2.2525    0.6769 C   0  0  0  0  0  0  0  0  0  0  0  0
    1.7858    2.6572    2.0001 C   0  0  0  0  0  0  0  0  0  0  0  0
    2.0787    2.9990    3.0701 N   0  0  0  0  0  0  0  0  0  0  0  0
    1.9491    3.1826   -0.3736 C   0  0  0  0  0  0  0  0  0  0  0  0
    1.5244    4.3273   -0.4624 O   0  0  0  0  0  0  0  0  0  0  0  0
    2.9151    2.6523   -1.1926 N   0  0  0  0  0  0  0  0  0  0  0  0
    3.4097    3.3944   -2.3299 C   0  0  0  0  0  0  0  0  0  0  0  0
    4.6494    2.7369   -2.8052 C   0  0  0  0  0  0  0  0  0  0  0  0
    5.9739    3.1216   -2.8432 C   0  0  0  0  0  0  0  0  0  0  0  0
    6.6877    2.0351   -3.4046 C   0  0  0  0  0  0  0  0  0  0  0  0
    5.7578    1.0591   -3.6722 C   0  0  0  0  0  0  0  0  0  0  0  0
    4.5168    1.4710   -3.3037 O   0  0  0  0  0  0  0  0  0  0  0  0
    0.1155    0.2476    1.2142 N   0  0  0  0  0  0  0  0  0  0  0  0
    0.6767   -0.1859    2.4603 C   0  0  0  0  0  0  0  0  0  0  0  0
    2.0638   -0.3519    2.6013 C   0  0  0  0  0  0  0  0  0  0  0  0
    2.6121   -0.7916    3.8096 C   0  0  0  0  0  0  0  0  0  0  0  0
    1.7816   -1.0818    4.8883 C   0  0  0  0  0  0  0  0  0  0  0  0
    0.4029   -0.9422    4.7576 C   0  0  0  0  0  0  0  0  0  0  0  0
   -0.1466   -0.5032    3.5501 C   0  0  0  0  0  0  0  0  0  0  0  0
   -0.9868   -0.4662    0.6946 C   0  0  0  0  0  0  0  0  0  0  0  0
   -1.6187   -1.3554    1.2475 O   0  0  0  0  0  0  0  0  0  0  0  0
   -3.2614   -2.5788   -0.9579 C   0  0  0  0  0  0  0  0  0  0  0  0
   -4.3657   -3.3918   -0.6731 C   0  0  0  0  0  0  0  0  0  0  0  0
   -7.6753   -5.2844    0.1941 H   0  0  0  0  0  0  0  0  0  0  0  0
   -6.0661   -5.0367    0.8823 H   0  0  0  0  0  0  0  0  0  0  0  0
   -6.2691   -5.4671   -0.8607 H   0  0  0  0  0  0  0  0  0  0  0  0
   -6.8020   -1.0332   -0.7797 H   0  0  0  0  0  0  0  0  0  0  0  0
   -4.8639    0.4067   -1.2714 H   0  0  0  0  0  0  0  0  0  0  0  0
   -2.3505    0.0811   -2.4966 H   0  0  0  0  0  0  0  0  0  0  0  0
    3.1188    1.6601   -1.1799 H   0  0  0  0  0  0  0  0  0  0  0  0
    3.5913    4.4343   -2.0399 H   0  0  0  0  0  0  0  0  0  0  0  0
    2.6384    3.3812   -3.1075 H   0  0  0  0  0  0  0  0  0  0  0  0
    6.3729    4.0692   -2.5053 H   0  0  0  0  0  0  0  0  0  0  0  0
    7.7505    1.9717   -3.5945 H   0  0  0  0  0  0  0  0  0  0  0  0
    5.8140    0.0658   -4.0981 H   0  0  0  0  0  0  0  0  0  0  0  0
    2.7403   -0.1764    1.7705 H   0  0  0  0  0  0  0  0  0  0  0  0
    3.6879   -0.9136    3.9076 H   0  0  0  0  0  0  0  0  0  0  0  0
    2.2075   -1.4221    5.8289 H   0  0  0  0  0  0  0  0  0  0  0  0
   -0.2497   -1.1750    5.5948 H   0  0  0  0  0  0  0  0  0  0  0  0
   -1.2270   -0.3954    3.4841 H   0  0  0  0  0  0  0  0  0  0  0  0
   -2.2724   -3.0306   -1.0022 H   0  0  0  0  0  0  0  0  0  0  0  0
   -4.1871   -4.4494   -0.5101 H   0  0  0  0  0  0  0  0  0  0  0  0
  1  2  1  0
  2  3  1  0
  3  4  2  0
  4  5  1  0
  5  6  2  0
  6  7  1  0
  7  8  2  3
  8  9  1  0
  9 10  1  0
 10 11  2  3
 11 12  1  0
 12 13  3  0
 11 14  1  0
 14 15  2  0
 14 16  1  0
 16 17  1  0
 17 18  1  0
 18 19  2  0
 19 20  1  0
 20 21  2  0
 21 22  1  0
 10 23  1  0
 23 24  1  0
 24 25  2  0
 25 26  1  0
 26 27  2  0
 27 28  1  0
 28 29  2  0
 23 30  1  0
 30 31  2  0
  6 32  1  0
 32 33  2  0
 33  3  1  0
 30  8  1  0
 22 18  1  0
 29 24  1  0
  1 34  1  0
  1 35  1  0
  1 36  1  0
  4 37  1  0
  5 38  1  0
  7 39  1  0
 16 40  1  0
 17 41  1  0
 17 42  1  0
 19 43  1  0
 20 44  1  0
 21 45  1  0
 25 46  1  0
 26 47  1  0
 27 48  1  0
 28 49  1  0
 29 50  1  0
 32 51  1  0
 33 52  1  0
M  END
$$$$
