
     RDKit          3D

 41 42  0  0  0  0  0  0  0  0999 V2000
   -4.6030   -0.6782    0.5624 C   0  0  0  0  0  0  0  0  0  0  0  0
   -3.8522    0.1057   -0.5023 C   0  0  0  0  0  0  0  0  0  0  0  0
   -2.5972    0.6736    0.0315 N   0  0  0  0  0  0  0  0  0  0  0  0
   -2.7812    1.9335    0.7830 C   0  0  0  0  0  0  0  0  0  0  0  0
   -2.5379    1.7348    2.2730 C   0  0  0  0  0  0  0  0  0  0  0  0
   -1.3288    0.1005   -0.2222 C   0  0  0  0  0  0  0  0  0  0  0  0
   -0.1558    0.7289    0.0152 C   0  0  0  0  0  0  0  0  0  0  0  0
    1.1626    0.1769   -0.2651 C   0  0  0  0  0  0  0  0  0  0  0  0
    2.2788    0.8161    0.1348 C   0  0  0  0  0  0  0  0  0  0  0  0
    3.6387    0.3268   -0.1225 C   0  0  0  0  0  0  0  0  0  0  0  0
    4.7465    0.9129    0.3999 C   0  0  0  0  0  0  0  0  0  0  0  0
    4.6752    2.0482    1.2606 C   0  0  0  0  0  0  0  0  0  0  0  0
    4.6056    2.9736    1.9580 N   0  0  0  0  0  0  0  0  0  0  0  0
    6.0548    0.4274    0.1049 C   0  0  0  0  0  0  0  0  0  0  0  0
    7.1137    0.0230   -0.1445 N   0  0  0  0  0  0  0  0  0  0  0  0
    3.7080   -0.8899   -1.0379 C   0  0  0  0  0  0  0  0  0  0  0  0
    2.5456   -1.8535   -0.8040 C   0  0  0  0  0  0  0  0  0  0  0  0
    1.2058   -1.1381   -1.0096 C   0  0  0  0  0  0  0  0  0  0  0  0
    0.0458   -2.0346   -0.5789 C   0  0  0  0  0  0  0  0  0  0  0  0
   -1.2915   -1.3195   -0.7807 C   0  0  0  0  0  0  0  0  0  0  0  0
   -4.9453   -0.0224    1.3688 H   0  0  0  0  0  0  0  0  0  0  0  0
   -5.4857   -1.1565    0.1264 H   0  0  0  0  0  0  0  0  0  0  0  0
   -3.9761   -1.4570    1.0071 H   0  0  0  0  0  0  0  0  0  0  0  0
   -4.4939    0.9098   -0.8838 H   0  0  0  0  0  0  0  0  0  0  0  0
   -3.6629   -0.5375   -1.3682 H   0  0  0  0  0  0  0  0  0  0  0  0
   -3.8010    2.3161    0.6523 H   0  0  0  0  0  0  0  0  0  0  0  0
   -2.1248    2.7160    0.3860 H   0  0  0  0  0  0  0  0  0  0  0  0
   -2.7155    2.6717    2.8105 H   0  0  0  0  0  0  0  0  0  0  0  0
   -3.2072    0.9749    2.6875 H   0  0  0  0  0  0  0  0  0  0  0  0
   -1.5114    1.4194    2.4815 H   0  0  0  0  0  0  0  0  0  0  0  0
   -0.1598    1.7304    0.4335 H   0  0  0  0  0  0  0  0  0  0  0  0
    2.1674    1.7497    0.6855 H   0  0  0  0  0  0  0  0  0  0  0  0
    3.6929   -0.5458   -2.0805 H   0  0  0  0  0  0  0  0  0  0  0  0
    4.6373   -1.4531   -0.9013 H   0  0  0  0  0  0  0  0  0  0  0  0
    2.6111   -2.2664    0.2118 H   0  0  0  0  0  0  0  0  0  0  0  0
    2.6246   -2.7005   -1.4963 H   0  0  0  0  0  0  0  0  0  0  0  0
    1.0940   -0.9173   -2.0812 H   0  0  0  0  0  0  0  0  0  0  0  0
    0.0496   -2.9678   -1.1550 H   0  0  0  0  0  0  0  0  0  0  0  0
    0.1522   -2.3145    0.4781 H   0  0  0  0  0  0  0  0  0  0  0  0
   -1.5196   -1.2795   -1.8533 H   0  0  0  0  0  0  0  0  0  0  0  0
   -2.0594   -1.9380   -0.3036 H   0  0  0  0  0  0  0  0  0  0  0  0
  1  2  1  0
  2  3  1  0
  3  4  1  0
  4  5  1  0
  3  6  1  0
  6  7  2  0
  7  8  1  0
  8  9  2  0
  9 10  1  0
 10 11  2  3
 11 12  1  0
 12 13  3  0
 11 14  1  0
 14 15  3  0
 10 16  1  0
 16 17  1  0
 17 18  1  0
 18 19  1  0
 19 20  1  0
 20  6  1  0
 18  8  1  0
  1 21  1  0
  1 22  1  0
  1 23  1  0
  2 24  1  0
  2 25  1  0
  4 26  1  0
  4 27  1  0
  5 28  1  0
  5 29  1  0
  5 30  1  0
  7 31  1  0
  9 32  1  0
 16 33  1  0
 16 34  1  0
 17 35  1  0
 17 36  1  0
 18 37  1  0
 19 38  1  0
 19 39  1  0
 20 40  1  0
 20 41  1  0
M  END
$$$$
