
     RDKit          3D

 39 41  0  0  0  0  0  0  0  0999 V2000
    0.2577    1.7639   -1.8267 O   0  0  0  0  0  0  0  0  0  0  0  0
    0.1889    1.0682   -0.8176 C   0  0  0  0  0  0  0  0  0  0  0  0
    1.2816    0.7933   -0.0271 N   0  0  0  0  0  0  0  0  0  0  0  0
    2.6378    1.1617   -0.4065 C   0  0  0  0  0  0  0  0  0  0  0  0
    3.2214    0.1618   -1.4148 C   0  0  0  0  0  0  0  0  0  0  0  0
    3.5410   -1.1903   -0.7778 C   0  0  0  0  0  0  0  0  0  0  0  0
    4.4532   -1.0370    0.4350 C   0  0  0  0  0  0  0  0  0  0  0  0
    3.8740   -0.0670    1.4597 C   0  0  0  0  0  0  0  0  0  0  0  0
    3.5335    1.2853    0.8326 C   0  0  0  0  0  0  0  0  0  0  0  0
   -1.1222    0.4758   -0.3973 C   0  0  0  0  0  0  0  0  0  0  0  0
   -2.2596    0.8790   -1.1175 C   0  0  0  0  0  0  0  0  0  0  0  0
   -3.5376    0.3859   -0.8076 C   0  0  0  0  0  0  0  0  0  0  0  0
   -4.6719    0.7928   -1.5281 C   0  0  0  0  0  0  0  0  0  0  0  0
   -5.9361    0.2954   -1.2092 C   0  0  0  0  0  0  0  0  0  0  0  0
   -6.0821   -0.6145   -0.1667 C   0  0  0  0  0  0  0  0  0  0  0  0
   -4.9642   -1.0291    0.5590 C   0  0  0  0  0  0  0  0  0  0  0  0
   -3.6848   -0.5376    0.2504 C   0  0  0  0  0  0  0  0  0  0  0  0
   -2.5497   -0.9452    0.9694 C   0  0  0  0  0  0  0  0  0  0  0  0
   -1.2825   -0.4450    0.6479 C   0  0  0  0  0  0  0  0  0  0  0  0
   -0.2037   -0.8836    1.3747 O   0  0  0  0  0  0  0  0  0  0  0  0
    1.1446    0.0988    0.7026 H   0  0  0  0  0  0  0  0  0  0  0  0
    2.5803    2.1442   -0.8913 H   0  0  0  0  0  0  0  0  0  0  0  0
    2.5330    0.0122   -2.2548 H   0  0  0  0  0  0  0  0  0  0  0  0
    4.1452    0.5802   -1.8345 H   0  0  0  0  0  0  0  0  0  0  0  0
    4.0226   -1.8388   -1.5186 H   0  0  0  0  0  0  0  0  0  0  0  0
    2.6112   -1.6884   -0.4776 H   0  0  0  0  0  0  0  0  0  0  0  0
    5.4361   -0.6761    0.1077 H   0  0  0  0  0  0  0  0  0  0  0  0
    4.6129   -2.0151    0.9026 H   0  0  0  0  0  0  0  0  0  0  0  0
    2.9759   -0.5052    1.9108 H   0  0  0  0  0  0  0  0  0  0  0  0
    4.5937    0.0790    2.2734 H   0  0  0  0  0  0  0  0  0  0  0  0
    4.4689    1.7816    0.5437 H   0  0  0  0  0  0  0  0  0  0  0  0
    3.0553    1.9241    1.5850 H   0  0  0  0  0  0  0  0  0  0  0  0
   -2.1448    1.5921   -1.9336 H   0  0  0  0  0  0  0  0  0  0  0  0
   -4.5774    1.5036   -2.3469 H   0  0  0  0  0  0  0  0  0  0  0  0
   -6.8052    0.6195   -1.7759 H   0  0  0  0  0  0  0  0  0  0  0  0
   -7.0667   -1.0023    0.0821 H   0  0  0  0  0  0  0  0  0  0  0  0
   -5.1021   -1.7412    1.3695 H   0  0  0  0  0  0  0  0  0  0  0  0
   -2.6672   -1.6581    1.7815 H   0  0  0  0  0  0  0  0  0  0  0  0
   -0.5110   -1.5238    2.0406 H   0  0  0  0  0  0  0  0  0  0  0  0
  1  2  2  0
  2  3  1  0
  3  4  1  0
  4  5  1  0
  5  6  1  0
  6  7  1  0
  7  8  1  0
  8  9  1  0
  2 10  1  0
 10 11  2  0
 11 12  1  0
 12 13  2  0
 13 14  1  0
 14 15  2  0
 15 16  1  0
 16 17  2  0
 17 18  1  0
 18 19  2  0
 19 20  1  0
  9  4  1  0
 19 10  1  0
 17 12  1  0
  3 21  1  0
  4 22  1  0
  5 23  1  0
  5 24  1  0
  6 25  1  0
  6 26  1  0
  7 27  1  0
  7 28  1  0
  8 29  1  0
  8 30  1  0
  9 31  1  0
  9 32  1  0
 11 33  1  0
 13 34  1  0
 14 35  1  0
 15 36  1  0
 16 37  1  0
 18 38  1  0
 20 39  1  0
M  END
$$$$
