
     RDKit          3D

 64 68  0  0  0  0  0  0  0  0999 V2000
   -2.7876    3.0305   -1.1480 C   0  0  0  0  0  0  0  0  0  0  0  0
   -3.4024    1.7419   -1.7258 C   0  0  0  0  0  0  0  0  0  0  0  0
   -2.5990    1.3507   -2.9762 C   0  0  0  0  0  0  0  0  0  0  0  0
   -4.8621    2.0149   -2.1204 C   0  0  0  0  0  0  0  0  0  0  0  0
   -3.3988    0.6714   -0.6107 C   0  0  0  0  0  0  0  0  0  0  0  0
   -3.7315    0.9399    0.5470 O   0  0  0  0  0  0  0  0  0  0  0  0
   -3.0557   -0.7451   -0.9292 C   0  0  0  0  0  0  0  0  0  0  0  0
   -4.0401   -1.4354   -1.6830 C   0  0  0  0  0  0  0  0  0  0  0  0
   -4.8509   -1.9518   -2.3333 N   0  0  0  0  0  0  0  0  0  0  0  0
   -1.8597   -1.2482   -0.5467 C   0  0  0  0  0  0  0  0  0  0  0  0
   -0.6087   -0.2049    0.1067 S   0  0  0  0  0  0  0  0  0  0  0  0
    0.5913   -1.4176   -0.0569 C   0  0  0  0  0  0  0  0  0  0  0  0
    1.9066   -1.3114    0.1956 C   0  0  0  0  0  0  0  0  0  0  0  0
    2.6170   -0.1687    0.6719 C   0  0  0  0  0  0  0  0  0  0  0  0
    3.7376    0.3370    0.0544 C   0  0  0  0  0  0  0  0  0  0  0  0
    4.1316    1.4418    0.7760 N   0  0  0  0  0  0  0  0  0  0  0  0
    5.2372    2.3044    0.5234 C   0  0  0  0  0  0  0  0  0  0  0  0
    6.1035    2.0824   -0.5577 C   0  0  0  0  0  0  0  0  0  0  0  0
    7.1827    2.9456   -0.7808 C   0  0  0  0  0  0  0  0  0  0  0  0
    7.4020    4.0309    0.0666 C   0  0  0  0  0  0  0  0  0  0  0  0
    6.5460    4.2561    1.1435 C   0  0  0  0  0  0  0  0  0  0  0  0
    5.4678    3.3968    1.3750 C   0  0  0  0  0  0  0  0  0  0  0  0
    3.3082    1.6573    1.8326 N   0  0  0  0  0  0  0  0  0  0  0  0
    2.4133    0.6582    1.8106 C   0  0  0  0  0  0  0  0  0  0  0  0
    1.4152    0.5398    2.8672 C   0  0  0  0  0  0  0  0  0  0  0  0
    0.6832    1.6497    3.2961 C   0  0  0  0  0  0  0  0  0  0  0  0
   -0.2957    1.4934    4.2770 C   0  0  0  0  0  0  0  0  0  0  0  0
   -0.5060    0.2275    4.8038 C   0  0  0  0  0  0  0  0  0  0  0  0
    0.1891   -0.8681    4.4258 N   0  0  0  0  0  0  0  0  0  0  0  0
    1.1386   -0.6824    3.4740 C   0  0  0  0  0  0  0  0  0  0  0  0
    0.0121   -2.7007   -0.5344 C   0  0  0  0  0  0  0  0  0  0  0  0
    0.6915   -3.7100   -0.6758 O   0  0  0  0  0  0  0  0  0  0  0  0
   -1.3743   -2.5494   -0.7284 N   0  0  0  0  0  0  0  0  0  0  0  0
   -2.1564   -3.7360   -0.9041 C   0  0  0  0  0  0  0  0  0  0  0  0
   -1.7599   -4.7287   -1.8147 C   0  0  0  0  0  0  0  0  0  0  0  0
   -2.5100   -5.8987   -1.9667 C   0  0  0  0  0  0  0  0  0  0  0  0
   -3.6514   -6.0865   -1.1977 C   0  0  0  0  0  0  0  0  0  0  0  0
   -4.3666   -7.2111   -1.3374 F   0  0  0  0  0  0  0  0  0  0  0  0
   -4.0519   -5.1303   -0.2731 C   0  0  0  0  0  0  0  0  0  0  0  0
   -3.3020   -3.9597   -0.1190 C   0  0  0  0  0  0  0  0  0  0  0  0
   -2.8118    3.8451   -1.8827 H   0  0  0  0  0  0  0  0  0  0  0  0
   -3.3273    3.3738   -0.2576 H   0  0  0  0  0  0  0  0  0  0  0  0
   -1.7413    2.8721   -0.8561 H   0  0  0  0  0  0  0  0  0  0  0  0
   -3.0332    0.4845   -3.4881 H   0  0  0  0  0  0  0  0  0  0  0  0
   -2.5784    2.1726   -3.7030 H   0  0  0  0  0  0  0  0  0  0  0  0
   -1.5610    1.1055   -2.7273 H   0  0  0  0  0  0  0  0  0  0  0  0
   -4.9310    2.8181   -2.8636 H   0  0  0  0  0  0  0  0  0  0  0  0
   -5.3342    1.1234   -2.5499 H   0  0  0  0  0  0  0  0  0  0  0  0
   -5.4600    2.3096   -1.2490 H   0  0  0  0  0  0  0  0  0  0  0  0
    2.5285   -2.1830   -0.0096 H   0  0  0  0  0  0  0  0  0  0  0  0
    4.2616    0.0143   -0.8323 H   0  0  0  0  0  0  0  0  0  0  0  0
    5.9734    1.2506   -1.2432 H   0  0  0  0  0  0  0  0  0  0  0  0
    7.8553    2.7698   -1.6182 H   0  0  0  0  0  0  0  0  0  0  0  0
    8.2418    4.7003   -0.1112 H   0  0  0  0  0  0  0  0  0  0  0  0
    6.7160    5.1009    1.8069 H   0  0  0  0  0  0  0  0  0  0  0  0
    4.8167    3.5923    2.2266 H   0  0  0  0  0  0  0  0  0  0  0  0
    0.8640    2.6303    2.8600 H   0  0  0  0  0  0  0  0  0  0  0  0
   -0.8826    2.3386    4.6199 H   0  0  0  0  0  0  0  0  0  0  0  0
   -1.2596    0.0574    5.5695 H   0  0  0  0  0  0  0  0  0  0  0  0
    1.6881   -1.5830    3.2134 H   0  0  0  0  0  0  0  0  0  0  0  0
   -0.8711   -4.6003   -2.4291 H   0  0  0  0  0  0  0  0  0  0  0  0
   -2.2073   -6.6622   -2.6764 H   0  0  0  0  0  0  0  0  0  0  0  0
   -4.9398   -5.3058    0.3279 H   0  0  0  0  0  0  0  0  0  0  0  0
   -3.6105   -3.2503    0.6462 H   0  0  0  0  0  0  0  0  0  0  0  0
  1  2  1  0
  2  3  1  0
  2  4  1  0
  2  5  1  0
  5  6  2  0
  5  7  1  0
  7  8  1  0
  8  9  3  0
  7 10  2  3
 10 11  1  0
 11 12  1  0
 12 13  2  3
 13 14  1  0
 14 15  2  0
 15 16  1  0
 16 17  1  0
 17 18  2  0
 18 19  1  0
 19 20  2  0
 20 21  1  0
 21 22  2  0
 16 23  1  0
 23 24  2  0
 24 25  1  0
 25 26  2  0
 26 27  1  0
 27 28  2  0
 28 29  1  0
 29 30  2  0
 12 31  1  0
 31 32  2  0
 31 33  1  0
 33 34  1  0
 34 35  2  0
 35 36  1  0
 36 37  2  0
 37 38  1  0
 37 39  1  0
 39 40  2  0
 33 10  1  0
 40 34  1  0
 24 14  1  0
 30 25  1  0
 22 17  1  0
  1 41  1  0
  1 42  1  0
  1 43  1  0
  3 44  1  0
  3 45  1  0
  3 46  1  0
  4 47  1  0
  4 48  1  0
  4 49  1  0
 13 50  1  0
 15 51  1  0
 18 52  1  0
 19 53  1  0
 20 54  1  0
 21 55  1  0
 22 56  1  0
 26 57  1  0
 27 58  1  0
 28 59  1  0
 30 60  1  0
 35 61  1  0
 36 62  1  0
 39 63  1  0
 40 64  1  0
M  END
$$$$
