
     RDKit          3D

 60 63  0  0  0  0  0  0  0  0999 V2000
   -6.3691    2.0926    0.2333 C   0  0  0  0  0  0  0  0  0  0  0  0
   -5.5977    1.1332    0.9649 O   0  0  0  0  0  0  0  0  0  0  0  0
   -4.4031    0.8890    0.3342 C   0  0  0  0  0  0  0  0  0  0  0  0
   -3.2587    1.4522    0.9012 C   0  0  0  0  0  0  0  0  0  0  0  0
   -2.0071    1.2034    0.3370 C   0  0  0  0  0  0  0  0  0  0  0  0
   -0.8232    1.6669    0.8536 O   0  0  0  0  0  0  0  0  0  0  0  0
   -0.9079    2.7605    1.7579 C   0  0  0  0  0  0  0  0  0  0  0  0
   -1.8978    0.3825   -0.8085 C   0  0  0  0  0  0  0  0  0  0  0  0
   -0.5060    0.1146   -1.3957 C   0  0  0  0  0  0  0  0  0  0  0  0
    0.2044   -0.9854   -0.5994 C   0  0  0  0  0  0  0  0  0  0  0  0
    1.6798   -0.6395   -0.5126 C   0  0  0  0  0  0  0  0  0  0  0  0
    2.3584   -0.5750   -1.5245 O   0  0  0  0  0  0  0  0  0  0  0  0
    2.1156   -0.4319    0.7839 N   0  0  0  0  0  0  0  0  0  0  0  0
    3.4326   -0.1455    1.2226 C   0  0  0  0  0  0  0  0  0  0  0  0
    4.5041    0.0150    0.3349 C   0  0  0  0  0  0  0  0  0  0  0  0
    5.7961    0.2770    0.8010 C   0  0  0  0  0  0  0  0  0  0  0  0
    6.0474    0.3911    2.1670 C   0  0  0  0  0  0  0  0  0  0  0  0
    7.4417    0.6190    2.6693 C   0  0  0  0  0  0  0  0  0  0  0  0
    4.9843    0.2312    3.0629 C   0  0  0  0  0  0  0  0  0  0  0  0
    3.6763   -0.0280    2.6089 C   0  0  0  0  0  0  0  0  0  0  0  0
    2.5899   -0.1891    3.6405 C   0  0  0  0  0  0  0  0  0  0  0  0
   -0.0036   -2.3610   -1.2201 C   0  0  0  0  0  0  0  0  0  0  0  0
    0.1894   -3.5571   -0.3175 C   0  0  0  0  0  0  0  0  0  0  0  0
   -0.3167   -2.5843   -2.4598 N   0  0  0  0  0  0  0  0  0  0  0  0
   -0.4536   -1.5151   -3.2780 C   0  0  0  0  0  0  0  0  0  0  0  0
   -0.5851   -1.4687   -4.5849 N   0  0  0  0  0  0  0  0  0  0  0  0
   -0.7136   -0.1351   -4.8542 C   0  0  0  0  0  0  0  0  0  0  0  0
   -0.7185    0.6691   -3.7886 N   0  0  0  0  0  0  0  0  0  0  0  0
   -0.5407   -0.2313   -2.8066 N   0  0  0  0  0  0  0  0  0  0  0  0
   -3.0664   -0.2077   -1.3389 C   0  0  0  0  0  0  0  0  0  0  0  0
   -4.3206    0.0328   -0.7720 C   0  0  0  0  0  0  0  0  0  0  0  0
   -5.4959   -0.5228   -1.2022 O   0  0  0  0  0  0  0  0  0  0  0  0
   -5.4526   -1.3304   -2.3735 C   0  0  0  0  0  0  0  0  0  0  0  0
   -6.3848    1.9024   -0.8513 H   0  0  0  0  0  0  0  0  0  0  0  0
   -5.9863    3.0958    0.4293 H   0  0  0  0  0  0  0  0  0  0  0  0
   -7.3980    2.0410    0.6021 H   0  0  0  0  0  0  0  0  0  0  0  0
   -3.3834    2.0690    1.7840 H   0  0  0  0  0  0  0  0  0  0  0  0
    0.1108    3.1154    1.9519 H   0  0  0  0  0  0  0  0  0  0  0  0
   -1.3363    2.4470    2.7098 H   0  0  0  0  0  0  0  0  0  0  0  0
   -1.4743    3.5851    1.3228 H   0  0  0  0  0  0  0  0  0  0  0  0
    0.0613    1.0557   -1.3631 H   0  0  0  0  0  0  0  0  0  0  0  0
   -0.2025   -1.0422    0.4191 H   0  0  0  0  0  0  0  0  0  0  0  0
    1.4213   -0.4834    1.5179 H   0  0  0  0  0  0  0  0  0  0  0  0
    4.3757   -0.0546   -0.7408 H   0  0  0  0  0  0  0  0  0  0  0  0
    6.6043    0.3852    0.0796 H   0  0  0  0  0  0  0  0  0  0  0  0
    7.4314    1.2064    3.5929 H   0  0  0  0  0  0  0  0  0  0  0  0
    7.9296   -0.3418    2.8686 H   0  0  0  0  0  0  0  0  0  0  0  0
    8.0390    1.1714    1.9334 H   0  0  0  0  0  0  0  0  0  0  0  0
    5.1817    0.3038    4.1311 H   0  0  0  0  0  0  0  0  0  0  0  0
    1.7884    0.5357    3.4660 H   0  0  0  0  0  0  0  0  0  0  0  0
    2.1825   -1.2049    3.6066 H   0  0  0  0  0  0  0  0  0  0  0  0
    2.9641   -0.0155    4.6554 H   0  0  0  0  0  0  0  0  0  0  0  0
    1.2072   -3.5552    0.0814 H   0  0  0  0  0  0  0  0  0  0  0  0
    0.0246   -4.4880   -0.8677 H   0  0  0  0  0  0  0  0  0  0  0  0
   -0.5205   -3.5019    0.5123 H   0  0  0  0  0  0  0  0  0  0  0  0
   -0.8178    0.2574   -5.8566 H   0  0  0  0  0  0  0  0  0  0  0  0
   -2.9856   -0.8682   -2.1995 H   0  0  0  0  0  0  0  0  0  0  0  0
   -6.4753   -1.6538   -2.5974 H   0  0  0  0  0  0  0  0  0  0  0  0
   -4.8478   -2.2285   -2.2087 H   0  0  0  0  0  0  0  0  0  0  0  0
   -5.0912   -0.7555   -3.2342 H   0  0  0  0  0  0  0  0  0  0  0  0
  1  2  1  0
  2  3  1  0
  3  4  2  0
  4  5  1  0
  5  6  1  0
  6  7  1  0
  5  8  2  0
  8  9  1  0
  9 10  1  0
 10 11  1  0
 11 12  2  0
 11 13  1  0
 13 14  1  0
 14 15  2  0
 15 16  1  0
 16 17  2  0
 17 18  1  0
 17 19  1  0
 19 20  2  0
 20 21  1  0
 10 22  1  0
 22 23  1  0
 22 24  2  0
 24 25  1  0
 25 26  2  0
 26 27  1  0
 27 28  2  0
 28 29  1  0
  8 30  1  0
 30 31  2  0
 31 32  1  0
 32 33  1  0
 31  3  1  0
 29  9  1  0
 20 14  1  0
 29 25  1  0
  1 34  1  0
  1 35  1  0
  1 36  1  0
  4 37  1  0
  7 38  1  0
  7 39  1  0
  7 40  1  0
  9 41  1  0
 10 42  1  0
 13 43  1  0
 15 44  1  0
 16 45  1  0
 18 46  1  0
 18 47  1  0
 18 48  1  0
 19 49  1  0
 21 50  1  0
 21 51  1  0
 21 52  1  0
 23 53  1  0
 23 54  1  0
 23 55  1  0
 27 56  1  0
 30 57  1  0
 33 58  1  0
 33 59  1  0
 33 60  1  0
M  END
$$$$
