
     RDKit          3D

 49 52  0  0  0  0  0  0  0  0999 V2000
    7.8977    0.4657    1.5164 C   0  0  0  0  0  0  0  0  0  0  0  0
    7.4034   -0.2563    0.3441 N   0  0  0  0  0  0  0  0  0  0  0  0
    8.1285   -1.4828    0.0155 C   0  0  0  0  0  0  0  0  0  0  0  0
    6.0361   -0.1823    0.0417 C   0  0  0  0  0  0  0  0  0  0  0  0
    5.4191   -1.0694   -0.8579 C   0  0  0  0  0  0  0  0  0  0  0  0
    4.0535   -0.9905   -1.1742 C   0  0  0  0  0  0  0  0  0  0  0  0
    3.2475   -0.0104   -0.5993 C   0  0  0  0  0  0  0  0  0  0  0  0
    1.8372    0.0797   -0.9864 C   0  0  0  0  0  0  0  0  0  0  0  0
    0.7704    0.0398   -0.1748 C   0  0  0  0  0  0  0  0  0  0  0  0
   -0.5831    0.1330   -0.6190 C   0  0  0  0  0  0  0  0  0  0  0  0
   -1.3342    0.0419    0.4769 C   0  0  0  0  0  0  0  0  0  0  0  0
   -2.8018    0.0729    0.5751 C   0  0  0  0  0  0  0  0  0  0  0  0
   -3.4427   -0.4138    1.7258 C   0  0  0  0  0  0  0  0  0  0  0  0
   -4.8354   -0.3848    1.8469 C   0  0  0  0  0  0  0  0  0  0  0  0
   -5.6154    0.1251    0.8099 C   0  0  0  0  0  0  0  0  0  0  0  0
   -4.9947    0.6231   -0.3451 C   0  0  0  0  0  0  0  0  0  0  0  0
   -3.5976    0.6032   -0.4531 C   0  0  0  0  0  0  0  0  0  0  0  0
   -5.8663    1.2247   -1.4153 C   0  0  0  0  0  0  0  0  0  0  0  0
   -7.1047    0.3631   -1.6698 C   0  0  0  0  0  0  0  0  0  0  0  0
   -7.7803   -0.1895   -0.4054 C   0  0  0  0  0  0  0  0  0  0  0  0
   -7.1142    0.2163    0.9104 C   0  0  0  0  0  0  0  0  0  0  0  0
   -0.6097   -0.1186    1.6750 O   0  0  0  0  0  0  0  0  0  0  0  0
    0.7211   -0.1263    1.3083 C   0  0  0  0  0  0  0  0  0  0  0  0
    1.6511   -0.2490    2.0837 O   0  0  0  0  0  0  0  0  0  0  0  0
    3.8368    0.9038    0.2692 C   0  0  0  0  0  0  0  0  0  0  0  0
    5.2031    0.8145    0.5799 C   0  0  0  0  0  0  0  0  0  0  0  0
    7.7664    1.5469    1.4015 H   0  0  0  0  0  0  0  0  0  0  0  0
    7.3961    0.1270    2.4298 H   0  0  0  0  0  0  0  0  0  0  0  0
    8.9738    0.3092    1.6530 H   0  0  0  0  0  0  0  0  0  0  0  0
    9.1800   -1.4138    0.3166 H   0  0  0  0  0  0  0  0  0  0  0  0
    8.1395   -1.6604   -1.0651 H   0  0  0  0  0  0  0  0  0  0  0  0
    7.6939   -2.3481    0.5281 H   0  0  0  0  0  0  0  0  0  0  0  0
    5.9869   -1.8549   -1.3462 H   0  0  0  0  0  0  0  0  0  0  0  0
    3.6362   -1.7100   -1.8744 H   0  0  0  0  0  0  0  0  0  0  0  0
    1.6862    0.1742   -2.0603 H   0  0  0  0  0  0  0  0  0  0  0  0
   -0.9075    0.2430   -1.6400 H   0  0  0  0  0  0  0  0  0  0  0  0
   -2.8619   -0.8241    2.5500 H   0  0  0  0  0  0  0  0  0  0  0  0
   -5.2996   -0.7609    2.7553 H   0  0  0  0  0  0  0  0  0  0  0  0
   -3.1390    1.0191   -1.3465 H   0  0  0  0  0  0  0  0  0  0  0  0
   -5.3106    1.3392   -2.3533 H   0  0  0  0  0  0  0  0  0  0  0  0
   -6.1673    2.2295   -1.0938 H   0  0  0  0  0  0  0  0  0  0  0  0
   -6.8165   -0.4895   -2.2996 H   0  0  0  0  0  0  0  0  0  0  0  0
   -7.8304    0.9356   -2.2597 H   0  0  0  0  0  0  0  0  0  0  0  0
   -7.7827   -1.2858   -0.4746 H   0  0  0  0  0  0  0  0  0  0  0  0
   -8.8354    0.1089   -0.3864 H   0  0  0  0  0  0  0  0  0  0  0  0
   -7.3837    1.2486    1.1657 H   0  0  0  0  0  0  0  0  0  0  0  0
   -7.4911   -0.4246    1.7160 H   0  0  0  0  0  0  0  0  0  0  0  0
    3.2487    1.6969    0.7243 H   0  0  0  0  0  0  0  0  0  0  0  0
    5.5928    1.5608    1.2649 H   0  0  0  0  0  0  0  0  0  0  0  0
  1  2  1  0
  2  3  1  0
  2  4  1  0
  4  5  2  0
  5  6  1  0
  6  7  2  0
  7  8  1  0
  8  9  2  3
  9 10  1  0
 10 11  2  0
 11 12  1  0
 12 13  2  0
 13 14  1  0
 14 15  2  0
 15 16  1  0
 16 17  2  0
 16 18  1  0
 18 19  1  0
 19 20  1  0
 20 21  1  0
 11 22  1  0
 22 23  1  0
 23 24  2  0
  7 25  1  0
 25 26  2  0
 26  4  1  0
 23  9  1  0
 17 12  1  0
 21 15  1  0
  1 27  1  0
  1 28  1  0
  1 29  1  0
  3 30  1  0
  3 31  1  0
  3 32  1  0
  5 33  1  0
  6 34  1  0
  8 35  1  0
 10 36  1  0
 13 37  1  0
 14 38  1  0
 17 39  1  0
 18 40  1  0
 18 41  1  0
 19 42  1  0
 19 43  1  0
 20 44  1  0
 20 45  1  0
 21 46  1  0
 21 47  1  0
 25 48  1  0
 26 49  1  0
M  END
$$$$
