
     RDKit          3D

 40 41  0  0  0  0  0  0  0  0999 V2000
    5.7578   -2.7730    1.4656 C   0  0  0  0  0  0  0  0  0  0  0  0
    5.3925   -2.1868    0.2245 O   0  0  0  0  0  0  0  0  0  0  0  0
    4.6666   -1.0294    0.2767 C   0  0  0  0  0  0  0  0  0  0  0  0
    4.3876   -0.4583   -0.9683 C   0  0  0  0  0  0  0  0  0  0  0  0
    3.6618    0.7310   -1.0632 C   0  0  0  0  0  0  0  0  0  0  0  0
    3.2019    1.3682    0.0955 C   0  0  0  0  0  0  0  0  0  0  0  0
    2.4122    2.6520    0.0071 C   0  0  0  0  0  0  0  0  0  0  0  0
    0.9522    2.5056    0.3689 C   0  0  0  0  0  0  0  0  0  0  0  0
    0.3674    3.2892    1.1095 O   0  0  0  0  0  0  0  0  0  0  0  0
    0.4132    1.4269   -0.2875 O   0  0  0  0  0  0  0  0  0  0  0  0
   -0.9689    1.3480   -0.0387 N   0  0  0  0  0  0  0  0  0  0  0  0
   -1.4945    0.3155   -0.6287 C   0  0  0  0  0  0  0  0  0  0  0  0
   -0.7607   -0.5875   -1.3670 N   0  0  0  0  0  0  0  0  0  0  0  0
   -2.9691    0.0978   -0.4807 C   0  0  0  0  0  0  0  0  0  0  0  0
   -3.6569    0.6801    0.5906 C   0  0  0  0  0  0  0  0  0  0  0  0
   -5.0323    0.4791    0.7348 C   0  0  0  0  0  0  0  0  0  0  0  0
   -5.7395   -0.2894   -0.1991 C   0  0  0  0  0  0  0  0  0  0  0  0
   -7.2124   -0.5242   -0.0355 C   0  0  0  0  0  0  0  0  0  0  0  0
   -5.0472   -0.8736   -1.2677 C   0  0  0  0  0  0  0  0  0  0  0  0
   -3.6707   -0.6780   -1.4124 C   0  0  0  0  0  0  0  0  0  0  0  0
    3.4758    0.7897    1.3420 C   0  0  0  0  0  0  0  0  0  0  0  0
    4.2031   -0.4024    1.4326 C   0  0  0  0  0  0  0  0  0  0  0  0
    6.3838   -3.6460    1.2518 H   0  0  0  0  0  0  0  0  0  0  0  0
    4.8727   -3.1228    2.0035 H   0  0  0  0  0  0  0  0  0  0  0  0
    6.3498   -2.0855    2.0783 H   0  0  0  0  0  0  0  0  0  0  0  0
    4.7466   -0.9421   -1.8743 H   0  0  0  0  0  0  0  0  0  0  0  0
    3.4652    1.1522   -2.0466 H   0  0  0  0  0  0  0  0  0  0  0  0
    2.8660    3.3858    0.6847 H   0  0  0  0  0  0  0  0  0  0  0  0
    2.4674    3.0802   -1.0001 H   0  0  0  0  0  0  0  0  0  0  0  0
    0.2367   -0.4886   -1.2006 H   0  0  0  0  0  0  0  0  0  0  0  0
   -1.0575   -1.5522   -1.2751 H   0  0  0  0  0  0  0  0  0  0  0  0
   -3.1269    1.2895    1.3211 H   0  0  0  0  0  0  0  0  0  0  0  0
   -5.5468    0.9338    1.5789 H   0  0  0  0  0  0  0  0  0  0  0  0
   -7.6736    0.2667    0.5634 H   0  0  0  0  0  0  0  0  0  0  0  0
   -7.7137   -0.5311   -1.0093 H   0  0  0  0  0  0  0  0  0  0  0  0
   -7.3856   -1.4847    0.4588 H   0  0  0  0  0  0  0  0  0  0  0  0
   -5.5798   -1.4764   -2.0018 H   0  0  0  0  0  0  0  0  0  0  0  0
   -3.1645   -1.1156   -2.2688 H   0  0  0  0  0  0  0  0  0  0  0  0
    3.1282    1.2660    2.2547 H   0  0  0  0  0  0  0  0  0  0  0  0
    4.3920   -0.8097    2.4201 H   0  0  0  0  0  0  0  0  0  0  0  0
  1  2  1  0
  2  3  1  0
  3  4  2  0
  4  5  1  0
  5  6  2  0
  6  7  1  0
  7  8  1  0
  8  9  2  0
  8 10  1  0
 10 11  1  0
 11 12  2  3
 12 13  1  0
 12 14  1  0
 14 15  2  0
 15 16  1  0
 16 17  2  0
 17 18  1  0
 17 19  1  0
 19 20  2  0
  6 21  1  0
 21 22  2  0
 22  3  1  0
 20 14  1  0
  1 23  1  0
  1 24  1  0
  1 25  1  0
  4 26  1  0
  5 27  1  0
  7 28  1  0
  7 29  1  0
 13 30  1  0
 13 31  1  0
 15 32  1  0
 16 33  1  0
 18 34  1  0
 18 35  1  0
 18 36  1  0
 19 37  1  0
 20 38  1  0
 21 39  1  0
 22 40  1  0
M  END
$$$$
