
     RDKit          3D

 45 49  0  0  0  0  0  0  0  0999 V2000
    1.5864   -2.0889    2.3588 O   0  0  0  0  0  0  0  0  0  0  0  0
    0.7645   -1.8746    1.4713 C   0  0  0  0  0  0  0  0  0  0  0  0
   -0.5248   -2.6407    1.3461 C   0  0  0  0  0  0  0  0  0  0  0  0
   -1.6028   -1.8653    0.7548 N   0  0  0  0  0  0  0  0  0  0  0  0
   -2.1216   -2.0598   -0.5173 C   0  0  0  0  0  0  0  0  0  0  0  0
   -1.6520   -2.9969   -1.3273 O   0  0  0  0  0  0  0  0  0  0  0  0
   -3.1052   -1.1279   -0.6657 C   0  0  0  0  0  0  0  0  0  0  0  0
   -3.1871   -0.3620    0.5184 C   0  0  0  0  0  0  0  0  0  0  0  0
   -2.2533   -0.8204    1.3979 C   0  0  0  0  0  0  0  0  0  0  0  0
   -1.9144   -0.4446    2.6219 O   0  0  0  0  0  0  0  0  0  0  0  0
   -4.2668    0.6526    0.3145 C   0  0  0  0  0  0  0  0  0  0  0  0
   -3.7700    1.6700   -0.7454 C   0  0  0  0  0  0  0  0  0  0  0  0
   -3.6795    0.8218   -2.0567 C   0  0  0  0  0  0  0  0  0  0  0  0
   -4.1341   -0.5920   -1.6099 C   0  0  0  0  0  0  0  0  0  0  0  0
   -5.2403   -0.1822   -0.5819 C   0  0  0  0  0  0  0  0  0  0  0  0
    0.9302   -0.9886    0.4104 O   0  0  0  0  0  0  0  0  0  0  0  0
    2.0825   -0.1967    0.4561 C   0  0  0  0  0  0  0  0  0  0  0  0
    2.2539    0.7549    1.4565 C   0  0  0  0  0  0  0  0  0  0  0  0
    3.3891    1.5654    1.4374 C   0  0  0  0  0  0  0  0  0  0  0  0
    4.3435    1.4408    0.4128 C   0  0  0  0  0  0  0  0  0  0  0  0
    5.4898    2.2507    0.3809 C   0  0  0  0  0  0  0  0  0  0  0  0
    6.4274    2.1206   -0.6448 C   0  0  0  0  0  0  0  0  0  0  0  0
    6.2316    1.1802   -1.6518 C   0  0  0  0  0  0  0  0  0  0  0  0
    5.0980    0.3661   -1.6360 C   0  0  0  0  0  0  0  0  0  0  0  0
    4.1456    0.4826   -0.6112 C   0  0  0  0  0  0  0  0  0  0  0  0
    3.0019   -0.3294   -0.5821 C   0  0  0  0  0  0  0  0  0  0  0  0
   -0.8634   -2.9452    2.3424 H   0  0  0  0  0  0  0  0  0  0  0  0
   -0.3502   -3.5382    0.7464 H   0  0  0  0  0  0  0  0  0  0  0  0
   -2.1624   -2.9313   -2.1544 H   0  0  0  0  0  0  0  0  0  0  0  0
   -2.5019    0.2950    2.8607 H   0  0  0  0  0  0  0  0  0  0  0  0
   -4.7013    1.0777    1.2190 H   0  0  0  0  0  0  0  0  0  0  0  0
   -4.4940    2.4819   -0.8777 H   0  0  0  0  0  0  0  0  0  0  0  0
   -2.7994    2.1068   -0.4861 H   0  0  0  0  0  0  0  0  0  0  0  0
   -2.6627    0.8269   -2.4644 H   0  0  0  0  0  0  0  0  0  0  0  0
   -4.3602    1.2312   -2.8117 H   0  0  0  0  0  0  0  0  0  0  0  0
   -4.4515   -1.2661   -2.4052 H   0  0  0  0  0  0  0  0  0  0  0  0
   -5.6639   -1.0452   -0.0531 H   0  0  0  0  0  0  0  0  0  0  0  0
   -6.0460    0.4144   -1.0234 H   0  0  0  0  0  0  0  0  0  0  0  0
    1.5189    0.8642    2.2481 H   0  0  0  0  0  0  0  0  0  0  0  0
    3.5244    2.2980    2.2293 H   0  0  0  0  0  0  0  0  0  0  0  0
    5.6611    2.9913    1.1586 H   0  0  0  0  0  0  0  0  0  0  0  0
    7.3107    2.7538   -0.6555 H   0  0  0  0  0  0  0  0  0  0  0  0
    6.9617    1.0781   -2.4500 H   0  0  0  0  0  0  0  0  0  0  0  0
    4.9636   -0.3640   -2.4308 H   0  0  0  0  0  0  0  0  0  0  0  0
    2.8236   -1.0650   -1.3613 H   0  0  0  0  0  0  0  0  0  0  0  0
  1  2  2  0
  2  3  1  0
  3  4  1  0
  4  5  1  0
  5  6  1  0
  5  7  2  0
  7  8  1  0
  8  9  2  0
  9 10  1  0
  8 11  1  0
 11 12  1  0
 12 13  1  0
 13 14  1  0
 14 15  1  0
  2 16  1  0
 16 17  1  0
 17 18  2  0
 18 19  1  0
 19 20  2  0
 20 21  1  0
 21 22  2  0
 22 23  1  0
 23 24  2  0
 24 25  1  0
 25 26  2  0
  9  4  1  0
 15 11  1  0
 26 17  1  0
 14  7  1  0
 25 20  1  0
  3 27  1  0
  3 28  1  0
  6 29  1  0
 10 30  1  0
 11 31  1  0
 12 32  1  0
 12 33  1  0
 13 34  1  0
 13 35  1  0
 14 36  1  0
 15 37  1  0
 15 38  1  0
 18 39  1  0
 19 40  1  0
 21 41  1  0
 22 42  1  0
 23 43  1  0
 24 44  1  0
 26 45  1  0
M  END
$$$$
