
     RDKit          3D

 46 49  0  0  0  0  0  0  0  0999 V2000
   -1.7049   -0.8300   -2.4488 O   0  0  0  0  0  0  0  0  0  0  0  0
   -1.3651   -0.5504   -1.3011 C   0  0  0  0  0  0  0  0  0  0  0  0
    0.0419   -0.5100   -0.9498 C   0  0  0  0  0  0  0  0  0  0  0  0
    0.9332   -1.5429   -1.1613 C   0  0  0  0  0  0  0  0  0  0  0  0
    2.1556   -1.1304   -0.6940 N   0  0  0  0  0  0  0  0  0  0  0  0
    3.3796   -1.8579   -0.6807 C   0  0  0  0  0  0  0  0  0  0  0  0
    3.4575   -3.1618   -1.1902 C   0  0  0  0  0  0  0  0  0  0  0  0
    4.6730   -3.8525   -1.1627 C   0  0  0  0  0  0  0  0  0  0  0  0
    5.8121   -3.2509   -0.6305 C   0  0  0  0  0  0  0  0  0  0  0  0
    5.7424   -1.9552   -0.1239 C   0  0  0  0  0  0  0  0  0  0  0  0
    4.5322   -1.2587   -0.1478 C   0  0  0  0  0  0  0  0  0  0  0  0
    2.0909    0.1275   -0.1933 N   0  0  0  0  0  0  0  0  0  0  0  0
    0.8313    0.5392   -0.4032 C   0  0  0  0  0  0  0  0  0  0  0  0
    0.4401    1.9119   -0.0725 C   0  0  0  0  0  0  0  0  0  0  0  0
    0.9745    2.5389    1.0657 C   0  0  0  0  0  0  0  0  0  0  0  0
    0.5993    3.8418    1.4008 C   0  0  0  0  0  0  0  0  0  0  0  0
   -0.3046    4.5218    0.5944 C   0  0  0  0  0  0  0  0  0  0  0  0
   -0.6666    5.7705    0.9159 F   0  0  0  0  0  0  0  0  0  0  0  0
   -0.8354    3.9269   -0.5437 C   0  0  0  0  0  0  0  0  0  0  0  0
   -0.4606    2.6236   -0.8810 C   0  0  0  0  0  0  0  0  0  0  0  0
   -2.2961   -0.2702   -0.3000 N   0  0  0  0  0  0  0  0  0  0  0  0
   -1.9918   -0.2559    1.1353 C   0  0  0  0  0  0  0  0  0  0  0  0
   -3.1460   -0.8164    1.9603 C   0  0  0  0  0  0  0  0  0  0  0  0
   -4.4447   -0.0434    1.7286 C   0  0  0  0  0  0  0  0  0  0  0  0
   -4.5250    0.5865    0.3378 C   0  0  0  0  0  0  0  0  0  0  0  0
   -3.7025   -0.1856   -0.6855 C   0  0  0  0  0  0  0  0  0  0  0  0
    0.7723   -2.5171   -1.5967 H   0  0  0  0  0  0  0  0  0  0  0  0
    2.5985   -3.6697   -1.6170 H   0  0  0  0  0  0  0  0  0  0  0  0
    4.7313   -4.8632   -1.5598 H   0  0  0  0  0  0  0  0  0  0  0  0
    6.7552   -3.7912   -0.6126 H   0  0  0  0  0  0  0  0  0  0  0  0
    6.6302   -1.4831    0.2892 H   0  0  0  0  0  0  0  0  0  0  0  0
    4.5038   -0.2463    0.2514 H   0  0  0  0  0  0  0  0  0  0  0  0
    1.6881    2.0108    1.6957 H   0  0  0  0  0  0  0  0  0  0  0  0
    1.0099    4.3279    2.2798 H   0  0  0  0  0  0  0  0  0  0  0  0
   -1.5308    4.4815   -1.1658 H   0  0  0  0  0  0  0  0  0  0  0  0
   -0.8690    2.1818   -1.7873 H   0  0  0  0  0  0  0  0  0  0  0  0
   -1.8050    0.7843    1.4220 H   0  0  0  0  0  0  0  0  0  0  0  0
   -1.0872   -0.8358    1.3402 H   0  0  0  0  0  0  0  0  0  0  0  0
   -2.8935   -0.8068    3.0264 H   0  0  0  0  0  0  0  0  0  0  0  0
   -3.3040   -1.8668    1.6834 H   0  0  0  0  0  0  0  0  0  0  0  0
   -5.2921   -0.7226    1.8807 H   0  0  0  0  0  0  0  0  0  0  0  0
   -4.5478    0.7476    2.4813 H   0  0  0  0  0  0  0  0  0  0  0  0
   -5.5711    0.6512    0.0186 H   0  0  0  0  0  0  0  0  0  0  0  0
   -4.1484    1.6162    0.3931 H   0  0  0  0  0  0  0  0  0  0  0  0
   -3.7817    0.2952   -1.6672 H   0  0  0  0  0  0  0  0  0  0  0  0
   -4.0794   -1.2102   -0.7900 H   0  0  0  0  0  0  0  0  0  0  0  0
  1  2  2  0
  2  3  1  0
  3  4  2  0
  4  5  1  0
  5  6  1  0
  6  7  2  0
  7  8  1  0
  8  9  2  0
  9 10  1  0
 10 11  2  0
  5 12  1  0
 12 13  2  0
 13 14  1  0
 14 15  2  0
 15 16  1  0
 16 17  2  0
 17 18  1  0
 17 19  1  0
 19 20  2  0
  2 21  1  0
 21 22  1  0
 22 23  1  0
 23 24  1  0
 24 25  1  0
 25 26  1  0
 13  3  1  0
 20 14  1  0
 26 21  1  0
 11  6  1  0
  4 27  1  0
  7 28  1  0
  8 29  1  0
  9 30  1  0
 10 31  1  0
 11 32  1  0
 15 33  1  0
 16 34  1  0
 19 35  1  0
 20 36  1  0
 22 37  1  0
 22 38  1  0
 23 39  1  0
 23 40  1  0
 24 41  1  0
 24 42  1  0
 25 43  1  0
 25 44  1  0
 26 45  1  0
 26 46  1  0
M  END
$$$$
