
     RDKit          3D

 58 61  0  0  0  0  0  0  0  0999 V2000
   -3.8760    5.4118   -0.6559 C   0  0  0  0  0  0  0  0  0  0  0  0
   -4.2784    4.0956   -0.0581 C   0  0  0  0  0  0  0  0  0  0  0  0
   -5.6213    3.8280    0.2276 C   0  0  0  0  0  0  0  0  0  0  0  0
   -5.9892    2.6176    0.8131 C   0  0  0  0  0  0  0  0  0  0  0  0
   -5.0148    1.6685    1.1282 C   0  0  0  0  0  0  0  0  0  0  0  0
   -3.6597    1.9168    0.8661 C   0  0  0  0  0  0  0  0  0  0  0  0
   -2.6612    0.9088    1.2144 C   0  0  0  0  0  0  0  0  0  0  0  0
   -2.8359   -0.2835    1.7518 N   0  0  0  0  0  0  0  0  0  0  0  0
   -1.5455   -0.7775    1.8678 C   0  0  0  0  0  0  0  0  0  0  0  0
   -1.1705   -2.3374    2.4941 S   0  0  0  0  0  6  0  0  0  0  0  0
    0.2772   -2.3778    2.6150 O   0  0  0  0  0  0  0  0  0  0  0  0
   -2.0366   -2.5264    3.6410 O   0  0  0  0  0  0  0  0  0  0  0  0
   -1.6690   -3.4621    1.2181 C   0  0  0  0  0  0  0  0  0  0  0  0
   -3.0298   -3.7522    1.0566 C   0  0  0  0  0  0  0  0  0  0  0  0
   -3.4260   -4.6472    0.0622 C   0  0  0  0  0  0  0  0  0  0  0  0
   -2.4643   -5.2447   -0.7479 C   0  0  0  0  0  0  0  0  0  0  0  0
   -2.8480   -6.1033   -1.7015 F   0  0  0  0  0  0  0  0  0  0  0  0
   -1.1098   -4.9676   -0.5826 C   0  0  0  0  0  0  0  0  0  0  0  0
   -0.7036   -4.0733    0.4090 C   0  0  0  0  0  0  0  0  0  0  0  0
   -0.6406    0.1325    1.3653 C   0  0  0  0  0  0  0  0  0  0  0  0
    0.7020    0.1420    1.1995 N   0  0  0  0  0  0  0  0  0  0  0  0
    1.4093    1.4016    1.0150 C   0  0  0  0  0  0  0  0  0  0  0  0
    2.8614    1.1421    0.6098 C   0  0  0  0  0  0  0  0  0  0  0  0
    2.9603    0.5280   -0.7934 C   0  0  0  0  0  0  0  0  0  0  0  0
    4.3527    0.4175   -1.2645 N   0  0  0  0  0  0  0  0  0  0  0  0
    4.3727    0.0763   -2.7066 C   0  0  0  0  0  0  0  0  0  0  0  0
    5.8076   -0.1068   -3.2238 C   0  0  0  0  0  0  0  0  0  0  0  0
    6.4901   -1.1344   -2.4944 O   0  0  0  0  0  0  0  0  0  0  0  0
    6.5271   -0.7991   -1.1014 C   0  0  0  0  0  0  0  0  0  0  0  0
    5.1098   -0.6216   -0.5301 C   0  0  0  0  0  0  0  0  0  0  0  0
   -1.3534    1.2195    0.9480 O   0  0  0  0  0  0  0  0  0  0  0  0
   -3.3050    3.1407    0.2751 C   0  0  0  0  0  0  0  0  0  0  0  0
   -4.6730    5.8136   -1.2903 H   0  0  0  0  0  0  0  0  0  0  0  0
   -2.9869    5.2986   -1.2849 H   0  0  0  0  0  0  0  0  0  0  0  0
   -3.6590    6.1326    0.1385 H   0  0  0  0  0  0  0  0  0  0  0  0
   -6.3902    4.5623   -0.0043 H   0  0  0  0  0  0  0  0  0  0  0  0
   -7.0352    2.4136    1.0291 H   0  0  0  0  0  0  0  0  0  0  0  0
   -5.3191    0.7300    1.5892 H   0  0  0  0  0  0  0  0  0  0  0  0
   -3.7784   -3.2865    1.6955 H   0  0  0  0  0  0  0  0  0  0  0  0
   -4.4752   -4.8847   -0.0853 H   0  0  0  0  0  0  0  0  0  0  0  0
   -0.3813   -5.4529   -1.2256 H   0  0  0  0  0  0  0  0  0  0  0  0
    0.3558   -3.8634    0.5405 H   0  0  0  0  0  0  0  0  0  0  0  0
    1.2252   -0.5588    1.7340 H   0  0  0  0  0  0  0  0  0  0  0  0
    0.9239    2.0209    0.2507 H   0  0  0  0  0  0  0  0  0  0  0  0
    1.3958    1.9624    1.9572 H   0  0  0  0  0  0  0  0  0  0  0  0
    3.4022    2.0968    0.6253 H   0  0  0  0  0  0  0  0  0  0  0  0
    3.3326    0.4900    1.3539 H   0  0  0  0  0  0  0  0  0  0  0  0
    2.4094    1.1847   -1.4795 H   0  0  0  0  0  0  0  0  0  0  0  0
    2.4630   -0.4500   -0.8217 H   0  0  0  0  0  0  0  0  0  0  0  0
    3.8123   -0.8526   -2.8773 H   0  0  0  0  0  0  0  0  0  0  0  0
    3.8922    0.8736   -3.2852 H   0  0  0  0  0  0  0  0  0  0  0  0
    6.3782    0.8271   -3.1553 H   0  0  0  0  0  0  0  0  0  0  0  0
    5.7863   -0.4074   -4.2761 H   0  0  0  0  0  0  0  0  0  0  0  0
    7.1274    0.1085   -0.9630 H   0  0  0  0  0  0  0  0  0  0  0  0
    7.0355   -1.6159   -0.5792 H   0  0  0  0  0  0  0  0  0  0  0  0
    5.2052   -0.3532    0.5267 H   0  0  0  0  0  0  0  0  0  0  0  0
    4.5807   -1.5814   -0.5920 H   0  0  0  0  0  0  0  0  0  0  0  0
   -2.2585    3.3595    0.0687 H   0  0  0  0  0  0  0  0  0  0  0  0
  1  2  1  0
  2  3  2  0
  3  4  1  0
  4  5  2  0
  5  6  1  0
  6  7  1  0
  7  8  2  0
  8  9  1  0
  9 10  1  0
 10 11  2  0
 10 12  2  0
 10 13  1  0
 13 14  2  0
 14 15  1  0
 15 16  2  0
 16 17  1  0
 16 18  1  0
 18 19  2  0
  9 20  2  0
 20 21  1  0
 21 22  1  0
 22 23  1  0
 23 24  1  0
 24 25  1  0
 25 26  1  0
 26 27  1  0
 27 28  1  0
 28 29  1  0
 29 30  1  0
 20 31  1  0
  6 32  2  0
 32  2  1  0
 31  7  1  0
 19 13  1  0
 30 25  1  0
  1 33  1  0
  1 34  1  0
  1 35  1  0
  3 36  1  0
  4 37  1  0
  5 38  1  0
 14 39  1  0
 15 40  1  0
 18 41  1  0
 19 42  1  0
 21 43  1  0
 22 44  1  0
 22 45  1  0
 23 46  1  0
 23 47  1  0
 24 48  1  0
 24 49  1  0
 26 50  1  0
 26 51  1  0
 27 52  1  0
 27 53  1  0
 29 54  1  0
 29 55  1  0
 30 56  1  0
 30 57  1  0
 32 58  1  0
M  END
$$$$
