
     RDKit          3D

 47 50  0  0  0  0  0  0  0  0999 V2000
    6.8389    2.3893   -1.9164 C   0  0  0  0  0  0  0  0  0  0  0  0
    6.4071    1.7307   -0.6295 C   0  0  0  0  0  0  0  0  0  0  0  0
    7.2083    1.5481    0.2793 O   0  0  0  0  0  0  0  0  0  0  0  0
    5.0711    1.3694   -0.6510 N   0  0  0  0  0  0  0  0  0  0  0  0
    4.3390    0.7264    0.3708 C   0  0  0  0  0  0  0  0  0  0  0  0
    4.8823    0.3491    1.5970 C   0  0  0  0  0  0  0  0  0  0  0  0
    4.0870   -0.2860    2.5529 C   0  0  0  0  0  0  0  0  0  0  0  0
    2.7409   -0.5502    2.2942 C   0  0  0  0  0  0  0  0  0  0  0  0
    2.1769   -0.1811    1.0750 C   0  0  0  0  0  0  0  0  0  0  0  0
    0.8247   -0.4045    0.7361 N   0  0  0  0  0  0  0  0  0  0  0  0
   -0.1263   -1.0619    1.4925 C   0  0  0  0  0  0  0  0  0  0  0  0
    0.0084   -1.6037    2.5792 O   0  0  0  0  0  0  0  0  0  0  0  0
   -1.4608   -1.0949    0.8568 C   0  0  0  0  0  0  0  0  0  0  0  0
   -2.1386    0.1199    0.7283 C   0  0  0  0  0  0  0  0  0  0  0  0
   -3.3856    0.1201    0.1269 C   0  0  0  0  0  0  0  0  0  0  0  0
   -4.2019    1.3353   -0.0653 C   0  0  0  0  0  0  0  0  0  0  0  0
   -3.6747    2.6367   -0.0507 C   0  0  0  0  0  0  0  0  0  0  0  0
   -4.5026    3.7463   -0.2350 C   0  0  0  0  0  0  0  0  0  0  0  0
   -5.8536    3.5343   -0.4360 C   0  0  0  0  0  0  0  0  0  0  0  0
   -6.4139    2.3111   -0.4669 N   0  0  0  0  0  0  0  0  0  0  0  0
   -5.5808    1.2530   -0.2848 C   0  0  0  0  0  0  0  0  0  0  0  0
   -3.9378   -1.0332   -0.3269 N   0  0  0  0  0  0  0  0  0  0  0  0
   -3.2920   -2.2036   -0.1858 C   0  0  0  0  0  0  0  0  0  0  0  0
   -3.9037   -3.3582   -0.6572 C   0  0  0  0  0  0  0  0  0  0  0  0
   -3.2953   -4.6123   -0.5534 C   0  0  0  0  0  0  0  0  0  0  0  0
   -2.0445   -4.7168    0.0370 C   0  0  0  0  0  0  0  0  0  0  0  0
   -1.2828   -6.2516    0.1683 Cl  0  0  0  0  0  0  0  0  0  0  0  0
   -1.4065   -3.5774    0.5185 C   0  0  0  0  0  0  0  0  0  0  0  0
   -2.0249   -2.3057    0.4118 C   0  0  0  0  0  0  0  0  0  0  0  0
    2.9837    0.4580    0.1200 C   0  0  0  0  0  0  0  0  0  0  0  0
    6.0560    3.0511   -2.2980 H   0  0  0  0  0  0  0  0  0  0  0  0
    7.0658    1.6199   -2.6590 H   0  0  0  0  0  0  0  0  0  0  0  0
    7.7330    2.9925   -1.7338 H   0  0  0  0  0  0  0  0  0  0  0  0
    4.5612    1.5814   -1.4985 H   0  0  0  0  0  0  0  0  0  0  0  0
    5.9232    0.5312    1.8455 H   0  0  0  0  0  0  0  0  0  0  0  0
    4.5205   -0.5776    3.5069 H   0  0  0  0  0  0  0  0  0  0  0  0
    2.1633   -1.0431    3.0699 H   0  0  0  0  0  0  0  0  0  0  0  0
    0.5384   -0.0830   -0.1803 H   0  0  0  0  0  0  0  0  0  0  0  0
   -1.6979    1.0270    1.1275 H   0  0  0  0  0  0  0  0  0  0  0  0
   -2.6129    2.8151    0.0915 H   0  0  0  0  0  0  0  0  0  0  0  0
   -4.0994    4.7530   -0.2238 H   0  0  0  0  0  0  0  0  0  0  0  0
   -6.5387    4.3640   -0.5835 H   0  0  0  0  0  0  0  0  0  0  0  0
   -6.0845    0.2884   -0.3176 H   0  0  0  0  0  0  0  0  0  0  0  0
   -4.8860   -3.2815   -1.1198 H   0  0  0  0  0  0  0  0  0  0  0  0
   -3.8063   -5.4933   -0.9328 H   0  0  0  0  0  0  0  0  0  0  0  0
   -0.4296   -3.6797    0.9886 H   0  0  0  0  0  0  0  0  0  0  0  0
    2.5520    0.7482   -0.8336 H   0  0  0  0  0  0  0  0  0  0  0  0
  1  2  1  0
  2  3  2  0
  2  4  1  0
  4  5  1  0
  5  6  2  0
  6  7  1  0
  7  8  2  0
  8  9  1  0
  9 10  1  0
 10 11  1  0
 11 12  2  0
 11 13  1  0
 13 14  2  0
 14 15  1  0
 15 16  1  0
 16 17  2  0
 17 18  1  0
 18 19  2  0
 19 20  1  0
 20 21  2  0
 15 22  2  0
 22 23  1  0
 23 24  2  0
 24 25  1  0
 25 26  2  0
 26 27  1  0
 26 28  1  0
 28 29  2  0
  9 30  2  0
 30  5  1  0
 29 13  1  0
 21 16  1  0
 29 23  1  0
  1 31  1  0
  1 32  1  0
  1 33  1  0
  4 34  1  0
  6 35  1  0
  7 36  1  0
  8 37  1  0
 10 38  1  0
 14 39  1  0
 17 40  1  0
 18 41  1  0
 19 42  1  0
 21 43  1  0
 24 44  1  0
 25 45  1  0
 28 46  1  0
 30 47  1  0
M  END
$$$$
