
     RDKit          3D

 49 52  0  0  0  0  0  0  0  0999 V2000
    7.3330    0.5853   -1.0695 C   0  0  0  0  0  0  0  0  0  0  0  0
    6.6266   -0.0799    0.1018 C   0  0  0  0  0  0  0  0  0  0  0  0
    5.1513   -0.2457   -0.1549 C   0  0  0  0  0  0  0  0  0  0  0  0
    4.2471    0.7618    0.2010 C   0  0  0  0  0  0  0  0  0  0  0  0
    2.8758    0.6168   -0.0504 C   0  0  0  0  0  0  0  0  0  0  0  0
    2.3731   -0.5350   -0.6667 C   0  0  0  0  0  0  0  0  0  0  0  0
    0.9474   -0.7521   -0.9653 C   0  0  0  0  0  0  0  0  0  0  0  0
   -0.0961    0.2965   -0.6410 C   0  0  0  0  0  0  0  0  0  0  0  0
   -0.2861    0.5208    0.8010 N   0  0  0  0  0  0  0  0  0  0  0  0
   -0.9588   -0.6039    1.4708 C   0  0  0  0  0  0  0  0  0  0  0  0
   -2.4576   -0.6249    1.3372 C   0  0  0  0  0  0  0  0  0  0  0  0
   -3.1831    0.4351    0.9318 C   0  0  0  0  0  0  0  0  0  0  0  0
   -4.6542    0.3672    0.8100 C   0  0  0  0  0  0  0  0  0  0  0  0
   -5.3090    0.9215   -0.2991 C   0  0  0  0  0  0  0  0  0  0  0  0
   -6.7018    0.8710   -0.4082 C   0  0  0  0  0  0  0  0  0  0  0  0
   -7.4599    0.2707    0.5939 C   0  0  0  0  0  0  0  0  0  0  0  0
   -6.8266   -0.2780    1.7057 C   0  0  0  0  0  0  0  0  0  0  0  0
   -5.4340   -0.2283    1.8135 C   0  0  0  0  0  0  0  0  0  0  0  0
   -2.4955    1.7358    0.5879 C   0  0  0  0  0  0  0  0  0  0  0  0
   -1.0312    1.7651    1.0650 C   0  0  0  0  0  0  0  0  0  0  0  0
    0.6009   -1.8947   -1.5794 C   0  0  0  0  0  0  0  0  0  0  0  0
    1.5569   -2.9488   -1.9436 C   0  0  0  0  0  0  0  0  0  0  0  0
    1.1728   -3.9766   -2.4904 O   0  0  0  0  0  0  0  0  0  0  0  0
    2.8863   -2.7197   -1.6456 O   0  0  0  0  0  0  0  0  0  0  0  0
    3.2918   -1.5258   -1.0184 C   0  0  0  0  0  0  0  0  0  0  0  0
    4.6617   -1.3974   -0.7757 C   0  0  0  0  0  0  0  0  0  0  0  0
    7.2280   -0.0067   -1.9850 H   0  0  0  0  0  0  0  0  0  0  0  0
    8.4011    0.6927   -0.8557 H   0  0  0  0  0  0  0  0  0  0  0  0
    6.9242    1.5823   -1.2658 H   0  0  0  0  0  0  0  0  0  0  0  0
    7.0790   -1.0593    0.2997 H   0  0  0  0  0  0  0  0  0  0  0  0
    6.7784    0.5135    1.0117 H   0  0  0  0  0  0  0  0  0  0  0  0
    4.6017    1.6713    0.6822 H   0  0  0  0  0  0  0  0  0  0  0  0
    2.2149    1.4231    0.2568 H   0  0  0  0  0  0  0  0  0  0  0  0
   -1.0477    0.0427   -1.1268 H   0  0  0  0  0  0  0  0  0  0  0  0
    0.2276    1.2309   -1.1206 H   0  0  0  0  0  0  0  0  0  0  0  0
   -0.5542   -1.5639    1.1316 H   0  0  0  0  0  0  0  0  0  0  0  0
   -0.7224   -0.5568    2.5418 H   0  0  0  0  0  0  0  0  0  0  0  0
   -2.9378   -1.5659    1.5929 H   0  0  0  0  0  0  0  0  0  0  0  0
   -4.7435    1.3861   -1.1025 H   0  0  0  0  0  0  0  0  0  0  0  0
   -7.1932    1.2991   -1.2781 H   0  0  0  0  0  0  0  0  0  0  0  0
   -8.5427    0.2318    0.5090 H   0  0  0  0  0  0  0  0  0  0  0  0
   -7.4147   -0.7423    2.4930 H   0  0  0  0  0  0  0  0  0  0  0  0
   -4.9649   -0.6484    2.7002 H   0  0  0  0  0  0  0  0  0  0  0  0
   -3.0258    2.5769    1.0512 H   0  0  0  0  0  0  0  0  0  0  0  0
   -2.5229    1.8892   -0.4976 H   0  0  0  0  0  0  0  0  0  0  0  0
   -1.0098    1.9583    2.1465 H   0  0  0  0  0  0  0  0  0  0  0  0
   -0.5137    2.6195    0.6110 H   0  0  0  0  0  0  0  0  0  0  0  0
   -0.4287   -2.1147   -1.8391 H   0  0  0  0  0  0  0  0  0  0  0  0
    5.3364   -2.1963   -1.0727 H   0  0  0  0  0  0  0  0  0  0  0  0
  1  2  1  0
  2  3  1  0
  3  4  2  0
  4  5  1  0
  5  6  2  0
  6  7  1  0
  7  8  1  0
  8  9  1  0
  9 10  1  0
 10 11  1  0
 11 12  2  0
 12 13  1  0
 13 14  2  0
 14 15  1  0
 15 16  2  0
 16 17  1  0
 17 18  2  0
 12 19  1  0
 19 20  1  0
  7 21  2  0
 21 22  1  0
 22 23  2  0
 22 24  1  0
 24 25  1  0
 25 26  2  0
 26  3  1  0
 25  6  1  0
 20  9  1  0
 18 13  1  0
  1 27  1  0
  1 28  1  0
  1 29  1  0
  2 30  1  0
  2 31  1  0
  4 32  1  0
  5 33  1  0
  8 34  1  0
  8 35  1  0
 10 36  1  0
 10 37  1  0
 11 38  1  0
 14 39  1  0
 15 40  1  0
 16 41  1  0
 17 42  1  0
 18 43  1  0
 19 44  1  0
 19 45  1  0
 20 46  1  0
 20 47  1  0
 21 48  1  0
 26 49  1  0
M  END
$$$$
