
     RDKit          3D

 38 40  0  0  0  0  0  0  0  0999 V2000
    3.8684    2.7829    3.3508 N   0  0  0  0  0  0  0  0  0  0  0  0
    3.6301    1.9257    2.6054 C   0  0  0  0  0  0  0  0  0  0  0  0
    3.4018    0.8896    1.6567 C   0  0  0  0  0  0  0  0  0  0  0  0
    4.4480    0.2550    1.0939 C   0  0  0  0  0  0  0  0  0  0  0  0
    4.3494   -0.8483    0.1974 C   0  0  0  0  0  0  0  0  0  0  0  0
    3.5229   -1.9623    0.2143 C   0  0  0  0  0  0  0  0  0  0  0  0
    3.7513   -2.8444   -0.8851 C   0  0  0  0  0  0  0  0  0  0  0  0
    4.7576   -2.3795   -1.6891 C   0  0  0  0  0  0  0  0  0  0  0  0
    5.3563   -3.2866   -3.2606 Br  0  0  0  0  0  0  0  0  0  0  0  0
    5.4270   -0.9235   -1.1496 S   0  0  0  0  0  0  0  0  0  0  0  0
    1.9803    0.5694    1.3680 C   0  0  0  0  0  0  0  0  0  0  0  0
    1.2097    0.2415    2.2619 O   0  0  0  0  0  0  0  0  0  0  0  0
    1.6164    0.7051    0.0480 N   0  0  0  0  0  0  0  0  0  0  0  0
    0.2639    0.4237   -0.3996 C   0  0  0  0  0  0  0  0  0  0  0  0
   -0.6993    1.5783   -0.1126 C   0  0  0  0  0  0  0  0  0  0  0  0
   -2.0858    1.2842   -0.5885 C   0  0  0  0  0  0  0  0  0  0  0  0
   -2.6695    1.7304   -1.7582 C   0  0  0  0  0  0  0  0  0  0  0  0
   -3.9453    1.2363   -1.8169 N   0  0  0  0  0  0  0  0  0  0  0  0
   -4.2105    0.4675   -0.7082 C   0  0  0  0  0  0  0  0  0  0  0  0
   -5.3701   -0.2303   -0.3494 C   0  0  0  0  0  0  0  0  0  0  0  0
   -5.3546   -0.9345    0.8583 C   0  0  0  0  0  0  0  0  0  0  0  0
   -4.2246   -0.9381    1.6725 C   0  0  0  0  0  0  0  0  0  0  0  0
   -3.0738   -0.2348    1.2986 C   0  0  0  0  0  0  0  0  0  0  0  0
   -3.0631    0.4825    0.0846 C   0  0  0  0  0  0  0  0  0  0  0  0
    5.4561    0.5901    1.3406 H   0  0  0  0  0  0  0  0  0  0  0  0
    2.7797   -2.1490    0.9826 H   0  0  0  0  0  0  0  0  0  0  0  0
    3.2065   -3.7646   -1.0575 H   0  0  0  0  0  0  0  0  0  0  0  0
    2.2979    0.9936   -0.6432 H   0  0  0  0  0  0  0  0  0  0  0  0
   -0.0771   -0.4963    0.0896 H   0  0  0  0  0  0  0  0  0  0  0  0
    0.3178    0.2254   -1.4761 H   0  0  0  0  0  0  0  0  0  0  0  0
   -0.7220    1.7962    0.9623 H   0  0  0  0  0  0  0  0  0  0  0  0
   -0.3283    2.4912   -0.5963 H   0  0  0  0  0  0  0  0  0  0  0  0
   -2.2881    2.3605   -2.5507 H   0  0  0  0  0  0  0  0  0  0  0  0
   -4.6042    1.4088   -2.5632 H   0  0  0  0  0  0  0  0  0  0  0  0
   -6.2531   -0.2277   -0.9796 H   0  0  0  0  0  0  0  0  0  0  0  0
   -6.2397   -1.4859    1.1672 H   0  0  0  0  0  0  0  0  0  0  0  0
   -4.2335   -1.4897    2.6093 H   0  0  0  0  0  0  0  0  0  0  0  0
   -2.1983   -0.2423    1.9430 H   0  0  0  0  0  0  0  0  0  0  0  0
  1  2  3  0
  2  3  1  0
  3  4  2  3
  4  5  1  0
  5  6  2  0
  6  7  1  0
  7  8  2  0
  8  9  1  0
  8 10  1  0
  3 11  1  0
 11 12  2  0
 11 13  1  0
 13 14  1  0
 14 15  1  0
 15 16  1  0
 16 17  2  0
 17 18  1  0
 18 19  1  0
 19 20  2  0
 20 21  1  0
 21 22  2  0
 22 23  1  0
 23 24  2  0
 10  5  1  0
 24 16  1  0
 24 19  1  0
  4 25  1  0
  6 26  1  0
  7 27  1  0
 13 28  1  0
 14 29  1  0
 14 30  1  0
 15 31  1  0
 15 32  1  0
 17 33  1  0
 18 34  1  0
 20 35  1  0
 21 36  1  0
 22 37  1  0
 23 38  1  0
M  END
$$$$
