
     RDKit          3D

 40 40  0  0  0  0  0  0  0  0999 V2000
   -4.4560    2.6855    0.3653 C   0  0  0  0  0  0  0  0  0  0  0  0
   -3.4611    2.0160    1.2996 C   0  0  0  0  0  0  0  0  0  0  0  0
   -2.1554    1.6821    0.5802 C   0  0  0  0  0  0  0  0  0  0  0  0
   -1.1627    0.9983    1.5178 C   0  0  0  0  0  0  0  0  0  0  0  0
    0.0662    0.6951    0.7862 N   0  0  0  0  0  0  0  0  0  0  0  0
    0.2552   -0.5015    0.3125 C   0  0  0  0  0  0  0  0  0  0  0  0
    1.4178   -0.8338   -0.3727 N   0  0  0  0  0  0  0  0  0  0  0  0
    2.2751    0.1516   -0.8037 N   0  0  0  0  0  0  0  0  0  0  0  0
    3.6788   -0.0172   -0.8192 C   0  0  0  0  0  0  0  0  0  0  0  0
    4.2876   -1.2732   -0.6983 C   0  0  0  0  0  0  0  0  0  0  0  0
    5.6771   -1.4090   -0.7903 C   0  0  0  0  0  0  0  0  0  0  0  0
    6.4670   -0.2877   -1.0281 C   0  0  0  0  0  0  0  0  0  0  0  0
    8.3437   -0.4695   -1.1556 Br  0  0  0  0  0  0  0  0  0  0  0  0
    5.8805    0.9651   -1.1813 C   0  0  0  0  0  0  0  0  0  0  0  0
    4.4915    1.0943   -1.0871 C   0  0  0  0  0  0  0  0  0  0  0  0
   -0.7867   -1.6237    0.4578 C   0  0  0  0  0  0  0  0  0  0  0  0
   -0.8024   -2.3983    1.3946 O   0  0  0  0  0  0  0  0  0  0  0  0
   -1.5984   -1.5951   -0.6197 O   0  0  0  0  0  0  0  0  0  0  0  0
   -2.6563   -2.5626   -0.6204 C   0  0  0  0  0  0  0  0  0  0  0  0
   -3.8647   -2.0111    0.1131 C   0  0  0  0  0  0  0  0  0  0  0  0
   -4.7047    2.0313   -0.4765 H   0  0  0  0  0  0  0  0  0  0  0  0
   -4.0513    3.6210   -0.0338 H   0  0  0  0  0  0  0  0  0  0  0  0
   -5.3822    2.9168    0.9006 H   0  0  0  0  0  0  0  0  0  0  0  0
   -3.2596    2.6804    2.1479 H   0  0  0  0  0  0  0  0  0  0  0  0
   -3.9086    1.1003    1.7033 H   0  0  0  0  0  0  0  0  0  0  0  0
   -2.3643    1.0354   -0.2799 H   0  0  0  0  0  0  0  0  0  0  0  0
   -1.7068    2.5993    0.1785 H   0  0  0  0  0  0  0  0  0  0  0  0
   -0.9049    1.6811    2.3360 H   0  0  0  0  0  0  0  0  0  0  0  0
   -1.6118    0.1209    1.9948 H   0  0  0  0  0  0  0  0  0  0  0  0
    1.3817   -1.6748   -0.9452 H   0  0  0  0  0  0  0  0  0  0  0  0
    2.0188    1.0740   -0.4265 H   0  0  0  0  0  0  0  0  0  0  0  0
    3.6911   -2.1616   -0.5151 H   0  0  0  0  0  0  0  0  0  0  0  0
    6.1272   -2.3915   -0.6773 H   0  0  0  0  0  0  0  0  0  0  0  0
    6.4884    1.8436   -1.3792 H   0  0  0  0  0  0  0  0  0  0  0  0
    4.0442    2.0757   -1.2272 H   0  0  0  0  0  0  0  0  0  0  0  0
   -2.3272   -3.5153   -0.1896 H   0  0  0  0  0  0  0  0  0  0  0  0
   -2.9158   -2.7543   -1.6667 H   0  0  0  0  0  0  0  0  0  0  0  0
   -3.6274   -1.8058    1.1619 H   0  0  0  0  0  0  0  0  0  0  0  0
   -4.1853   -1.0634   -0.3319 H   0  0  0  0  0  0  0  0  0  0  0  0
   -4.6980   -2.7183    0.0752 H   0  0  0  0  0  0  0  0  0  0  0  0
  1  2  1  0
  2  3  1  0
  3  4  1  0
  4  5  1  0
  5  6  2  3
  6  7  1  0
  7  8  1  0
  8  9  1  0
  9 10  2  0
 10 11  1  0
 11 12  2  0
 12 13  1  0
 12 14  1  0
 14 15  2  0
  6 16  1  0
 16 17  2  0
 16 18  1  0
 18 19  1  0
 19 20  1  0
 15  9  1  0
  1 21  1  0
  1 22  1  0
  1 23  1  0
  2 24  1  0
  2 25  1  0
  3 26  1  0
  3 27  1  0
  4 28  1  0
  4 29  1  0
  7 30  1  0
  8 31  1  0
 10 32  1  0
 11 33  1  0
 14 34  1  0
 15 35  1  0
 19 36  1  0
 19 37  1  0
 20 38  1  0
 20 39  1  0
 20 40  1  0
M  END
$$$$
