
     RDKit          3D

 58 61  0  0  0  0  0  0  0  0999 V2000
    0.3252   -2.1785    2.2582 O   0  0  0  0  0  0  0  0  0  0  0  0
   -0.1344   -1.0574    2.0577 C   0  0  0  0  0  0  0  0  0  0  0  0
    0.6934    0.2074    2.3441 C   0  0  0  0  0  0  0  0  0  0  0  0
    1.6645    0.5349    1.2833 N   0  0  0  0  0  0  0  0  0  0  0  0
    2.7027   -0.4980    1.0909 C   0  0  0  0  0  0  0  0  0  0  0  0
    2.6302   -1.2510   -0.2515 C   0  0  0  0  0  0  0  0  0  0  0  0
    2.6473   -0.3123   -1.4088 N   0  0  0  0  0  0  0  0  0  0  0  0
    3.9453   -0.3722   -2.4889 S   0  0  0  0  0  6  0  0  0  0  0  0
    4.3068   -1.7541   -2.7170 O   0  0  0  0  0  0  0  0  0  0  0  0
    3.6022    0.4839   -3.6084 O   0  0  0  0  0  0  0  0  0  0  0  0
    5.2737    0.4206   -1.6310 C   0  0  0  0  0  0  0  0  0  0  0  0
    5.5973    1.7507   -1.9312 C   0  0  0  0  0  0  0  0  0  0  0  0
    6.6731    2.3662   -1.2885 C   0  0  0  0  0  0  0  0  0  0  0  0
    7.4328    1.6532   -0.3613 C   0  0  0  0  0  0  0  0  0  0  0  0
    7.1176    0.3237   -0.0788 C   0  0  0  0  0  0  0  0  0  0  0  0
    6.0431   -0.2897   -0.7194 C   0  0  0  0  0  0  0  0  0  0  0  0
    5.7688   -1.5610   -0.4047 F   0  0  0  0  0  0  0  0  0  0  0  0
    2.0469    1.0227   -1.1404 C   0  0  0  0  0  0  0  0  0  0  0  0
    1.0329    0.9451    0.0158 C   0  0  0  0  0  0  0  0  0  0  0  0
   -1.3836   -0.7686    1.5408 N   0  0  0  0  0  0  0  0  0  0  0  0
   -2.3776   -1.6629    1.0734 C   0  0  0  0  0  0  0  0  0  0  0  0
   -2.2791   -3.0480    1.2435 C   0  0  0  0  0  0  0  0  0  0  0  0
   -3.2589   -3.9034    0.7320 C   0  0  0  0  0  0  0  0  0  0  0  0
   -4.3489   -3.3887    0.0390 C   0  0  0  0  0  0  0  0  0  0  0  0
   -4.4749   -2.0114   -0.1292 C   0  0  0  0  0  0  0  0  0  0  0  0
   -3.5105   -1.1403    0.4046 C   0  0  0  0  0  0  0  0  0  0  0  0
   -3.6662    0.3352    0.2208 C   0  0  0  0  0  0  0  0  0  0  0  0
   -2.6693    1.0595    0.1963 O   0  0  0  0  0  0  0  0  0  0  0  0
   -4.9978    0.9722    0.0944 C   0  0  0  0  0  0  0  0  0  0  0  0
   -6.0598    0.6096    0.9314 C   0  0  0  0  0  0  0  0  0  0  0  0
   -7.2930    1.2511    0.8026 C   0  0  0  0  0  0  0  0  0  0  0  0
   -7.4618    2.2585   -0.1494 C   0  0  0  0  0  0  0  0  0  0  0  0
   -6.3973    2.6360   -0.9678 C   0  0  0  0  0  0  0  0  0  0  0  0
   -5.1620    1.9991   -0.8412 C   0  0  0  0  0  0  0  0  0  0  0  0
    1.2159    0.0551    3.2967 H   0  0  0  0  0  0  0  0  0  0  0  0
    0.0278    1.0625    2.5130 H   0  0  0  0  0  0  0  0  0  0  0  0
    3.6663    0.0234    1.1363 H   0  0  0  0  0  0  0  0  0  0  0  0
    2.7277   -1.2163    1.9183 H   0  0  0  0  0  0  0  0  0  0  0  0
    3.4453   -1.9763   -0.3090 H   0  0  0  0  0  0  0  0  0  0  0  0
    1.7028   -1.8332   -0.3094 H   0  0  0  0  0  0  0  0  0  0  0  0
    5.0218    2.3118   -2.6652 H   0  0  0  0  0  0  0  0  0  0  0  0
    6.9241    3.3995   -1.5184 H   0  0  0  0  0  0  0  0  0  0  0  0
    8.2738    2.1304    0.1348 H   0  0  0  0  0  0  0  0  0  0  0  0
    7.7063   -0.2421    0.6371 H   0  0  0  0  0  0  0  0  0  0  0  0
    1.5297    1.3653   -2.0432 H   0  0  0  0  0  0  0  0  0  0  0  0
    2.8247    1.7509   -0.8900 H   0  0  0  0  0  0  0  0  0  0  0  0
    0.2440    0.2467   -0.2841 H   0  0  0  0  0  0  0  0  0  0  0  0
    0.5682    1.9281    0.1510 H   0  0  0  0  0  0  0  0  0  0  0  0
   -1.5534    0.2093    1.2940 H   0  0  0  0  0  0  0  0  0  0  0  0
   -1.4436   -3.5001    1.7702 H   0  0  0  0  0  0  0  0  0  0  0  0
   -3.1564   -4.9778    0.8665 H   0  0  0  0  0  0  0  0  0  0  0  0
   -5.0963   -4.0617   -0.3737 H   0  0  0  0  0  0  0  0  0  0  0  0
   -5.3234   -1.6365   -0.6960 H   0  0  0  0  0  0  0  0  0  0  0  0
   -5.9359   -0.1511    1.6992 H   0  0  0  0  0  0  0  0  0  0  0  0
   -8.1206    0.9772    1.4536 H   0  0  0  0  0  0  0  0  0  0  0  0
   -8.4214    2.7622   -0.2428 H   0  0  0  0  0  0  0  0  0  0  0  0
   -6.5268    3.4337   -1.6963 H   0  0  0  0  0  0  0  0  0  0  0  0
   -4.3294    2.3069   -1.4691 H   0  0  0  0  0  0  0  0  0  0  0  0
  1  2  2  0
  2  3  1  0
  3  4  1  0
  4  5  1  0
  5  6  1  0
  6  7  1  0
  7  8  1  0
  8  9  2  0
  8 10  2  0
  8 11  1  0
 11 12  2  0
 12 13  1  0
 13 14  2  0
 14 15  1  0
 15 16  2  0
 16 17  1  0
  7 18  1  0
 18 19  1  0
  2 20  1  0
 20 21  1  0
 21 22  2  0
 22 23  1  0
 23 24  2  0
 24 25  1  0
 25 26  2  0
 26 27  1  0
 27 28  2  0
 27 29  1  0
 29 30  2  0
 30 31  1  0
 31 32  2  0
 32 33  1  0
 33 34  2  0
 19  4  1  0
 26 21  1  0
 34 29  1  0
 16 11  1  0
  3 35  1  0
  3 36  1  0
  5 37  1  0
  5 38  1  0
  6 39  1  0
  6 40  1  0
 12 41  1  0
 13 42  1  0
 14 43  1  0
 15 44  1  0
 18 45  1  0
 18 46  1  0
 19 47  1  0
 19 48  1  0
 20 49  1  0
 22 50  1  0
 23 51  1  0
 24 52  1  0
 25 53  1  0
 30 54  1  0
 31 55  1  0
 32 56  1  0
 33 57  1  0
 34 58  1  0
M  END
$$$$
