
     RDKit          3D

 35 37  0  0  0  0  0  0  0  0999 V2000
   -3.7241    2.5587   -0.0214 C   0  0  0  0  0  0  0  0  0  0  0  0
   -3.1324    1.2067   -0.2959 C   0  0  0  0  0  0  0  0  0  0  0  0
   -3.4451    0.1167    0.5285 C   0  0  0  0  0  0  0  0  0  0  0  0
   -2.8766   -1.1358    0.2914 C   0  0  0  0  0  0  0  0  0  0  0  0
   -1.9744   -1.2926   -0.7640 C   0  0  0  0  0  0  0  0  0  0  0  0
   -1.2539   -2.8901   -1.0685 S   0  0  0  0  0  6  0  0  0  0  0  0
   -0.7651   -2.9153   -2.4301 O   0  0  0  0  0  0  0  0  0  0  0  0
   -2.1864   -3.8876   -0.5861 O   0  0  0  0  0  0  0  0  0  0  0  0
    0.0558   -2.9233    0.0004 N   0  0  0  0  0  0  0  0  0  0  0  0
    1.0126   -1.8736   -0.0340 C   0  0  0  0  0  0  0  0  0  0  0  0
    1.1267   -1.0250    1.0677 C   0  0  0  0  0  0  0  0  0  0  0  0
    2.0326    0.0418    1.0463 C   0  0  0  0  0  0  0  0  0  0  0  0
    2.8313    0.2591   -0.0853 C   0  0  0  0  0  0  0  0  0  0  0  0
    3.7511    1.3347   -0.1344 N   0  0  0  0  0  0  0  0  0  0  0  0
    4.0318    2.2894    0.8105 C   0  0  0  0  0  0  0  0  0  0  0  0
    4.9520    3.1040    0.3480 N   0  0  0  0  0  0  0  0  0  0  0  0
    5.2519    2.6491   -0.9082 N   0  0  0  0  0  0  0  0  0  0  0  0
    4.5317    1.5786   -1.2120 N   0  0  0  0  0  0  0  0  0  0  0  0
    2.7161   -0.6021   -1.1873 C   0  0  0  0  0  0  0  0  0  0  0  0
    1.8082   -1.6645   -1.1580 C   0  0  0  0  0  0  0  0  0  0  0  0
   -1.6572   -0.2169   -1.5971 C   0  0  0  0  0  0  0  0  0  0  0  0
   -2.2281    1.0329   -1.3527 C   0  0  0  0  0  0  0  0  0  0  0  0
   -3.0783    3.1168    0.6634 H   0  0  0  0  0  0  0  0  0  0  0  0
   -4.7193    2.4662    0.4259 H   0  0  0  0  0  0  0  0  0  0  0  0
   -3.8369    3.1311   -0.9482 H   0  0  0  0  0  0  0  0  0  0  0  0
   -4.1439    0.2372    1.3541 H   0  0  0  0  0  0  0  0  0  0  0  0
   -3.1453   -1.9774    0.9256 H   0  0  0  0  0  0  0  0  0  0  0  0
   -0.2049   -3.3117    0.9049 H   0  0  0  0  0  0  0  0  0  0  0  0
    0.5048   -1.1743    1.9467 H   0  0  0  0  0  0  0  0  0  0  0  0
    2.0810    0.6792    1.9247 H   0  0  0  0  0  0  0  0  0  0  0  0
    3.5627    2.3508    1.7787 H   0  0  0  0  0  0  0  0  0  0  0  0
    3.3234   -0.4659   -2.0815 H   0  0  0  0  0  0  0  0  0  0  0  0
    1.7364   -2.3267   -2.0187 H   0  0  0  0  0  0  0  0  0  0  0  0
   -0.9683   -0.3405   -2.4299 H   0  0  0  0  0  0  0  0  0  0  0  0
   -1.9702    1.8703   -1.9985 H   0  0  0  0  0  0  0  0  0  0  0  0
  1  2  1  0
  2  3  2  0
  3  4  1  0
  4  5  2  0
  5  6  1  0
  6  7  2  0
  6  8  2  0
  6  9  1  0
  9 10  1  0
 10 11  2  0
 11 12  1  0
 12 13  2  0
 13 14  1  0
 14 15  1  0
 15 16  2  0
 16 17  1  0
 17 18  2  0
 13 19  1  0
 19 20  2  0
  5 21  1  0
 21 22  2  0
 22  2  1  0
 20 10  1  0
 18 14  1  0
  1 23  1  0
  1 24  1  0
  1 25  1  0
  3 26  1  0
  4 27  1  0
  9 28  1  0
 11 29  1  0
 12 30  1  0
 15 31  1  0
 19 32  1  0
 20 33  1  0
 21 34  1  0
 22 35  1  0
M  END
$$$$
