
     RDKit          3D

 62 64  0  0  0  0  0  0  0  0999 V2000
   -5.1276    2.2526   -1.6126 C   0  0  0  0  0  0  0  0  0  0  0  0
   -3.9920    1.3575   -1.1941 C   0  0  0  0  0  0  0  0  0  0  0  0
   -2.7431    1.6748   -1.7765 C   0  0  0  0  0  0  0  0  0  0  0  0
   -1.5956    0.9462   -1.4932 C   0  0  0  0  0  0  0  0  0  0  0  0
   -0.4265    1.3478   -2.1566 O   0  0  0  0  0  0  0  0  0  0  0  0
    0.7572    0.6544   -1.9997 C   0  0  0  0  0  0  0  0  0  0  0  0
    1.7643    0.9784   -2.6245 O   0  0  0  0  0  0  0  0  0  0  0  0
    0.7746   -0.4800   -1.0316 C   0  0  0  0  0  0  0  0  0  0  0  0
    2.1293   -1.1431   -0.9370 C   0  0  0  0  0  0  0  0  0  0  0  0
    3.0476   -0.3188   -0.0480 C   0  0  0  0  0  0  0  0  0  0  0  0
    3.0878   -0.4693    1.1692 O   0  0  0  0  0  0  0  0  0  0  0  0
    3.8114    0.6028   -0.7314 N   0  0  0  0  0  0  0  0  0  0  0  0
    4.6822    1.5466   -0.0627 C   0  0  0  0  0  0  0  0  0  0  0  0
    6.1579    1.2445   -0.3083 C   0  0  0  0  0  0  0  0  0  0  0  0
    6.6269   -0.0064    0.4471 C   0  0  0  0  0  0  0  0  0  0  0  0
    8.0286   -0.3687    0.1576 N   0  0  0  0  0  0  0  0  0  0  0  0
    8.9753    0.6297    0.6604 C   0  0  0  0  0  0  0  0  0  0  0  0
    8.3328   -1.6728    0.7561 C   0  0  0  0  0  0  0  0  0  0  0  0
   -0.3315   -0.8485   -0.3452 C   0  0  0  0  0  0  0  0  0  0  0  0
   -0.3316   -1.9338    0.7006 C   0  0  0  0  0  0  0  0  0  0  0  0
   -1.5880   -0.1267   -0.6196 C   0  0  0  0  0  0  0  0  0  0  0  0
   -2.8435   -0.4550   -0.0768 C   0  0  0  0  0  0  0  0  0  0  0  0
   -3.0646   -1.4930    0.7680 O   0  0  0  0  0  0  0  0  0  0  0  0
   -4.3713   -1.5182    1.0662 C   0  0  0  0  0  0  0  0  0  0  0  0
   -5.0725   -0.5121    0.4256 C   0  0  0  0  0  0  0  0  0  0  0  0
   -6.5882   -0.3228    0.5617 C   0  0  0  0  0  0  0  0  0  0  0  0
   -7.2482   -1.5058    1.3291 C   0  0  0  0  0  0  0  0  0  0  0  0
   -6.9116    0.9380    1.3841 C   0  0  0  0  0  0  0  0  0  0  0  0
   -7.2818   -0.3083   -0.8143 C   0  0  0  0  0  0  0  0  0  0  0  0
   -4.0540    0.2212   -0.3292 C   0  0  0  0  0  0  0  0  0  0  0  0
   -4.7863    3.2863   -1.7145 H   0  0  0  0  0  0  0  0  0  0  0  0
   -5.5243    1.9253   -2.5777 H   0  0  0  0  0  0  0  0  0  0  0  0
   -5.9289    2.2788   -0.8832 H   0  0  0  0  0  0  0  0  0  0  0  0
   -2.6672    2.5131   -2.4675 H   0  0  0  0  0  0  0  0  0  0  0  0
    2.5793   -1.2698   -1.9294 H   0  0  0  0  0  0  0  0  0  0  0  0
    2.0847   -2.1588   -0.5334 H   0  0  0  0  0  0  0  0  0  0  0  0
    3.5336    0.8180   -1.6889 H   0  0  0  0  0  0  0  0  0  0  0  0
    4.4643    1.5792    1.0104 H   0  0  0  0  0  0  0  0  0  0  0  0
    4.4414    2.5319   -0.4768 H   0  0  0  0  0  0  0  0  0  0  0  0
    6.7309    2.1184    0.0235 H   0  0  0  0  0  0  0  0  0  0  0  0
    6.3410    1.1230   -1.3830 H   0  0  0  0  0  0  0  0  0  0  0  0
    5.9884   -0.8436    0.1420 H   0  0  0  0  0  0  0  0  0  0  0  0
    6.4780    0.1347    1.5252 H   0  0  0  0  0  0  0  0  0  0  0  0
   10.0073    0.3098    0.4727 H   0  0  0  0  0  0  0  0  0  0  0  0
    8.8608    1.5836    0.1384 H   0  0  0  0  0  0  0  0  0  0  0  0
    8.8601    0.8012    1.7354 H   0  0  0  0  0  0  0  0  0  0  0  0
    9.3530   -1.9856    0.5064 H   0  0  0  0  0  0  0  0  0  0  0  0
    7.6667   -2.4455    0.3582 H   0  0  0  0  0  0  0  0  0  0  0  0
    8.2343   -1.6591    1.8464 H   0  0  0  0  0  0  0  0  0  0  0  0
    0.6665   -2.2944    0.9550 H   0  0  0  0  0  0  0  0  0  0  0  0
   -0.9074   -2.7998    0.3586 H   0  0  0  0  0  0  0  0  0  0  0  0
   -0.7494   -1.5653    1.6434 H   0  0  0  0  0  0  0  0  0  0  0  0
   -4.6617   -2.3131    1.7386 H   0  0  0  0  0  0  0  0  0  0  0  0
   -6.8611   -1.5956    2.3497 H   0  0  0  0  0  0  0  0  0  0  0  0
   -8.3326   -1.3687    1.4110 H   0  0  0  0  0  0  0  0  0  0  0  0
   -7.0771   -2.4601    0.8193 H   0  0  0  0  0  0  0  0  0  0  0  0
   -6.5826    0.8195    2.4227 H   0  0  0  0  0  0  0  0  0  0  0  0
   -7.9884    1.1340    1.3991 H   0  0  0  0  0  0  0  0  0  0  0  0
   -6.4154    1.8353    1.0155 H   0  0  0  0  0  0  0  0  0  0  0  0
   -7.0395   -1.2165   -1.3826 H   0  0  0  0  0  0  0  0  0  0  0  0
   -6.9990    0.5377   -1.4355 H   0  0  0  0  0  0  0  0  0  0  0  0
   -8.3737   -0.2650   -0.7114 H   0  0  0  0  0  0  0  0  0  0  0  0
  1  2  1  0
  2  3  2  0
  3  4  1  0
  4  5  1  0
  5  6  1  0
  6  7  2  0
  6  8  1  0
  8  9  1  0
  9 10  1  0
 10 11  2  0
 10 12  1  0
 12 13  1  0
 13 14  1  0
 14 15  1  0
 15 16  1  0
 16 17  1  0
 16 18  1  0
  8 19  2  0
 19 20  1  0
 19 21  1  0
 21 22  1  0
 22 23  1  0
 23 24  1  0
 24 25  2  0
 25 26  1  0
 26 27  1  0
 26 28  1  0
 26 29  1  0
 25 30  1  0
 30  2  1  0
 21  4  2  0
 30 22  2  0
  1 31  1  0
  1 32  1  0
  1 33  1  0
  3 34  1  0
  9 35  1  0
  9 36  1  0
 12 37  1  0
 13 38  1  0
 13 39  1  0
 14 40  1  0
 14 41  1  0
 15 42  1  0
 15 43  1  0
 17 44  1  0
 17 45  1  0
 17 46  1  0
 18 47  1  0
 18 48  1  0
 18 49  1  0
 20 50  1  0
 20 51  1  0
 20 52  1  0
 24 53  1  0
 27 54  1  0
 27 55  1  0
 27 56  1  0
 28 57  1  0
 28 58  1  0
 28 59  1  0
 29 60  1  0
 29 61  1  0
 29 62  1  0
M  END
$$$$
