
     RDKit          3D

 46 47  0  0  0  0  0  0  0  0999 V2000
    8.1773   -1.1083    2.3230 O   0  0  0  0  0  0  0  0  0  0  0  0
    7.8246   -1.8926    1.4584 C   0  0  0  0  0  0  0  0  0  0  0  0
    8.5994   -2.9403    1.1212 O   0  0  0  0  0  0  0  0  0  0  0  0
    6.5538   -1.8487    0.6625 C   0  0  0  0  0  0  0  0  0  0  0  0
    5.7120   -0.6421    1.0594 C   0  0  0  0  0  0  0  0  0  0  0  0
    4.4173   -0.5694    0.2726 C   0  0  0  0  0  0  0  0  0  0  0  0
    4.1176   -1.4141   -0.5623 O   0  0  0  0  0  0  0  0  0  0  0  0
    3.6683    0.5391    0.6340 N   0  0  0  0  0  0  0  0  0  0  0  0
    2.4217    0.9419    0.1127 C   0  0  0  0  0  0  0  0  0  0  0  0
    1.7467    0.2673   -0.9087 C   0  0  0  0  0  0  0  0  0  0  0  0
    0.5123    0.7333   -1.3738 C   0  0  0  0  0  0  0  0  0  0  0  0
   -0.0535    1.8770   -0.8084 C   0  0  0  0  0  0  0  0  0  0  0  0
   -1.6187    2.4570   -1.4076 S   0  0  0  0  0  6  0  0  0  0  0  0
   -1.5727    2.4157   -2.8516 O   0  0  0  0  0  0  0  0  0  0  0  0
   -1.9814    3.6567   -0.6860 O   0  0  0  0  0  0  0  0  0  0  0  0
   -2.6498    1.2262   -0.9230 N   0  0  0  0  0  0  0  0  0  0  0  0
   -3.1917    1.2610    0.4425 C   0  0  0  0  0  0  0  0  0  0  0  0
   -3.7027   -0.1258    0.8481 C   0  0  0  0  0  0  0  0  0  0  0  0
   -4.8755   -0.5968    0.0196 C   0  0  0  0  0  0  0  0  0  0  0  0
   -4.6974   -1.5700   -0.9735 C   0  0  0  0  0  0  0  0  0  0  0  0
   -5.7756   -1.9902   -1.7535 C   0  0  0  0  0  0  0  0  0  0  0  0
   -7.0405   -1.4430   -1.5485 C   0  0  0  0  0  0  0  0  0  0  0  0
   -7.2291   -0.4761   -0.5629 C   0  0  0  0  0  0  0  0  0  0  0  0
   -6.1524   -0.0540    0.2183 C   0  0  0  0  0  0  0  0  0  0  0  0
    0.6092    2.5672    0.2061 C   0  0  0  0  0  0  0  0  0  0  0  0
    1.8439    2.0964    0.6627 C   0  0  0  0  0  0  0  0  0  0  0  0
    9.3869   -2.8616    1.6992 H   0  0  0  0  0  0  0  0  0  0  0  0
    6.8113   -1.7953   -0.4012 H   0  0  0  0  0  0  0  0  0  0  0  0
    5.9975   -2.7747    0.8457 H   0  0  0  0  0  0  0  0  0  0  0  0
    5.4652   -0.6907    2.1271 H   0  0  0  0  0  0  0  0  0  0  0  0
    6.2758    0.2827    0.8854 H   0  0  0  0  0  0  0  0  0  0  0  0
    4.0565    1.1296    1.3598 H   0  0  0  0  0  0  0  0  0  0  0  0
    2.1566   -0.6246   -1.3730 H   0  0  0  0  0  0  0  0  0  0  0  0
    0.0030    0.2018   -2.1748 H   0  0  0  0  0  0  0  0  0  0  0  0
   -3.2799    0.9272   -1.6695 H   0  0  0  0  0  0  0  0  0  0  0  0
   -4.0007    1.9982    0.4878 H   0  0  0  0  0  0  0  0  0  0  0  0
   -2.4091    1.5599    1.1480 H   0  0  0  0  0  0  0  0  0  0  0  0
   -4.0075   -0.1066    1.9021 H   0  0  0  0  0  0  0  0  0  0  0  0
   -2.8853   -0.8554    0.7822 H   0  0  0  0  0  0  0  0  0  0  0  0
   -3.7161   -2.0066   -1.1479 H   0  0  0  0  0  0  0  0  0  0  0  0
   -5.6287   -2.7455   -2.5213 H   0  0  0  0  0  0  0  0  0  0  0  0
   -7.8798   -1.7710   -2.1563 H   0  0  0  0  0  0  0  0  0  0  0  0
   -8.2164   -0.0503   -0.4027 H   0  0  0  0  0  0  0  0  0  0  0  0
   -6.3186    0.7013    0.9832 H   0  0  0  0  0  0  0  0  0  0  0  0
    0.1795    3.4663    0.6420 H   0  0  0  0  0  0  0  0  0  0  0  0
    2.3467    2.6479    1.4537 H   0  0  0  0  0  0  0  0  0  0  0  0
  1  2  2  0
  2  3  1  0
  2  4  1  0
  4  5  1  0
  5  6  1  0
  6  7  2  0
  6  8  1  0
  8  9  1  0
  9 10  2  0
 10 11  1  0
 11 12  2  0
 12 13  1  0
 13 14  2  0
 13 15  2  0
 13 16  1  0
 16 17  1  0
 17 18  1  0
 18 19  1  0
 19 20  2  0
 20 21  1  0
 21 22  2  0
 22 23  1  0
 23 24  2  0
 12 25  1  0
 25 26  2  0
 26  9  1  0
 24 19  1  0
  3 27  1  0
  4 28  1  0
  4 29  1  0
  5 30  1  0
  5 31  1  0
  8 32  1  0
 10 33  1  0
 11 34  1  0
 16 35  1  0
 17 36  1  0
 17 37  1  0
 18 38  1  0
 18 39  1  0
 20 40  1  0
 21 41  1  0
 22 42  1  0
 23 43  1  0
 24 44  1  0
 25 45  1  0
 26 46  1  0
M  END
$$$$
