
     RDKit          3D

 70 75  0  0  0  0  0  0  0  0999 V2000
   -1.6997    0.4810   -6.5140 C   0  0  0  0  0  0  0  0  0  0  0  0
   -1.4492   -0.0192   -5.1223 C   0  0  0  0  0  0  0  0  0  0  0  0
   -1.2683   -1.3834   -4.8826 C   0  0  0  0  0  0  0  0  0  0  0  0
   -1.0109   -1.8466   -3.5889 C   0  0  0  0  0  0  0  0  0  0  0  0
   -0.9251   -0.9599   -2.5038 C   0  0  0  0  0  0  0  0  0  0  0  0
   -0.5999   -1.5124   -1.1274 C   0  0  0  0  0  0  0  0  0  0  0  0
   -1.3046   -0.8791   -0.0164 N   0  0  0  0  0  0  0  0  0  0  0  0
   -2.5780   -1.3871    0.2962 C   0  0  0  0  0  0  0  0  0  0  0  0
   -3.0728   -2.3570   -0.2842 O   0  0  0  0  0  0  0  0  0  0  0  0
   -3.2738   -0.7293    1.5063 C   0  0  0  0  0  0  0  0  0  0  0  0
   -4.7748   -1.0672    1.5096 C   0  0  0  0  0  0  0  0  0  0  0  0
   -5.4791   -0.6315    2.7761 C   0  0  0  0  0  0  0  0  0  0  0  0
   -6.2609    0.5314    2.7910 C   0  0  0  0  0  0  0  0  0  0  0  0
   -6.9038    0.9364    3.9620 C   0  0  0  0  0  0  0  0  0  0  0  0
   -6.7701    0.1846    5.1275 C   0  0  0  0  0  0  0  0  0  0  0  0
   -5.9938   -0.9722    5.1237 C   0  0  0  0  0  0  0  0  0  0  0  0
   -5.3504   -1.3801    3.9539 C   0  0  0  0  0  0  0  0  0  0  0  0
   -3.0782    0.7203    1.4764 N   0  0  0  0  0  0  0  0  0  0  0  0
   -1.7267    1.0698    1.4048 C   0  0  0  0  0  0  0  0  0  0  0  0
   -1.4118    2.2030    2.0477 N   0  0  0  0  0  0  0  0  0  0  0  0
   -0.1516    2.6138    1.9183 C   0  0  0  0  0  0  0  0  0  0  0  0
    0.8095    1.9913    1.2304 N   0  0  0  0  0  0  0  0  0  0  0  0
    0.4801    0.8368    0.6069 C   0  0  0  0  0  0  0  0  0  0  0  0
    1.5368    0.1540   -0.0272 N   0  0  0  0  0  0  0  0  0  0  0  0
    2.3665    1.0518   -0.8723 C   0  0  0  0  0  0  0  0  0  0  0  0
    3.7218    1.4283   -0.2340 C   0  0  0  0  0  0  0  0  0  0  0  0
    4.5034    0.2228    0.1093 N   0  0  0  0  0  0  0  0  0  0  0  0
    5.8870    0.2300    0.1486 C   0  0  0  0  0  0  0  0  0  0  0  0
    6.6235    1.4235    0.2320 C   0  0  0  0  0  0  0  0  0  0  0  0
    8.0239    1.4343    0.2691 C   0  0  0  0  0  0  0  0  0  0  0  0
    8.7319    0.2406    0.2218 C   0  0  0  0  0  0  0  0  0  0  0  0
    8.0364   -0.9587    0.1381 C   0  0  0  0  0  0  0  0  0  0  0  0
    6.6357   -0.9580    0.1010 C   0  0  0  0  0  0  0  0  0  0  0  0
    3.7248   -0.9775    0.4662 C   0  0  0  0  0  0  0  0  0  0  0  0
    2.3188   -0.6017    0.9863 C   0  0  0  0  0  0  0  0  0  0  0  0
   -0.8211    0.3118    0.6472 C   0  0  0  0  0  0  0  0  0  0  0  0
   -1.0781    0.4086   -2.7596 C   0  0  0  0  0  0  0  0  0  0  0  0
   -1.3385    0.8736   -4.0530 C   0  0  0  0  0  0  0  0  0  0  0  0
   -2.2547    1.4250   -6.4971 H   0  0  0  0  0  0  0  0  0  0  0  0
   -0.7486    0.6391   -7.0329 H   0  0  0  0  0  0  0  0  0  0  0  0
   -2.2994   -0.2377   -7.0831 H   0  0  0  0  0  0  0  0  0  0  0  0
   -1.3289   -2.0976   -5.7006 H   0  0  0  0  0  0  0  0  0  0  0  0
   -0.8812   -2.9155   -3.4331 H   0  0  0  0  0  0  0  0  0  0  0  0
    0.4770   -1.5516   -0.9867 H   0  0  0  0  0  0  0  0  0  0  0  0
   -0.8869   -2.5726   -1.1208 H   0  0  0  0  0  0  0  0  0  0  0  0
   -2.8051   -1.1475    2.4084 H   0  0  0  0  0  0  0  0  0  0  0  0
   -4.9270   -2.1493    1.3978 H   0  0  0  0  0  0  0  0  0  0  0  0
   -5.2648   -0.6106    0.6391 H   0  0  0  0  0  0  0  0  0  0  0  0
   -6.3767    1.1275    1.8881 H   0  0  0  0  0  0  0  0  0  0  0  0
   -7.5118    1.8368    3.9632 H   0  0  0  0  0  0  0  0  0  0  0  0
   -7.2755    0.4986    6.0377 H   0  0  0  0  0  0  0  0  0  0  0  0
   -5.8953   -1.5621    6.0315 H   0  0  0  0  0  0  0  0  0  0  0  0
   -4.7564   -2.2913    3.9672 H   0  0  0  0  0  0  0  0  0  0  0  0
   -3.5059    1.2463    2.2351 H   0  0  0  0  0  0  0  0  0  0  0  0
    0.1205    3.5366    2.4182 H   0  0  0  0  0  0  0  0  0  0  0  0
    1.8235    1.9590   -1.1698 H   0  0  0  0  0  0  0  0  0  0  0  0
    2.5660    0.5067   -1.8043 H   0  0  0  0  0  0  0  0  0  0  0  0
    3.5675    2.0272    0.6709 H   0  0  0  0  0  0  0  0  0  0  0  0
    4.2594    2.0454   -0.9636 H   0  0  0  0  0  0  0  0  0  0  0  0
    6.1159    2.3819    0.2952 H   0  0  0  0  0  0  0  0  0  0  0  0
    8.5551    2.3798    0.3380 H   0  0  0  0  0  0  0  0  0  0  0  0
    9.8176    0.2450    0.2498 H   0  0  0  0  0  0  0  0  0  0  0  0
    8.5774   -1.8999    0.0953 H   0  0  0  0  0  0  0  0  0  0  0  0
    6.1380   -1.9198    0.0099 H   0  0  0  0  0  0  0  0  0  0  0  0
    3.6359   -1.6229   -0.4164 H   0  0  0  0  0  0  0  0  0  0  0  0
    4.2243   -1.5454    1.2607 H   0  0  0  0  0  0  0  0  0  0  0  0
    2.4414   -0.0198    1.9105 H   0  0  0  0  0  0  0  0  0  0  0  0
    1.7769   -1.5195    1.2449 H   0  0  0  0  0  0  0  0  0  0  0  0
   -1.0007    1.1385   -1.9607 H   0  0  0  0  0  0  0  0  0  0  0  0
   -1.4565    1.9426   -4.2164 H   0  0  0  0  0  0  0  0  0  0  0  0
  1  2  1  0
  2  3  2  0
  3  4  1  0
  4  5  2  0
  5  6  1  0
  6  7  1  0
  7  8  1  0
  8  9  2  0
  8 10  1  0
 10 11  1  0
 11 12  1  0
 12 13  2  0
 13 14  1  0
 14 15  2  0
 15 16  1  0
 16 17  2  0
 10 18  1  0
 18 19  1  0
 19 20  2  0
 20 21  1  0
 21 22  2  0
 22 23  1  0
 23 24  1  0
 24 25  1  0
 25 26  1  0
 26 27  1  0
 27 28  1  0
 28 29  2  0
 29 30  1  0
 30 31  2  0
 31 32  1  0
 32 33  2  0
 27 34  1  0
 34 35  1  0
 23 36  2  0
  5 37  1  0
 37 38  2  0
 38  2  1  0
 36  7  1  0
 17 12  1  0
 36 19  1  0
 35 24  1  0
 33 28  1  0
  1 39  1  0
  1 40  1  0
  1 41  1  0
  3 42  1  0
  4 43  1  0
  6 44  1  0
  6 45  1  0
 10 46  1  0
 11 47  1  0
 11 48  1  0
 13 49  1  0
 14 50  1  0
 15 51  1  0
 16 52  1  0
 17 53  1  0
 18 54  1  0
 21 55  1  0
 25 56  1  0
 25 57  1  0
 26 58  1  0
 26 59  1  0
 29 60  1  0
 30 61  1  0
 31 62  1  0
 32 63  1  0
 33 64  1  0
 34 65  1  0
 34 66  1  0
 35 67  1  0
 35 68  1  0
 37 69  1  0
 38 70  1  0
M  END
$$$$
