
     RDKit          3D

 48 53  0  0  0  0  0  0  0  0999 V2000
    2.8083    1.5915    1.0046 O   0  0  0  0  0  0  0  0  0  0  0  0
    3.2274    0.5626    0.4855 C   0  0  0  0  0  0  0  0  0  0  0  0
    2.4819   -0.3180   -0.2654 N   0  0  0  0  0  0  0  0  0  0  0  0
    1.1375   -0.1606   -0.2572 N   0  0  0  0  0  0  0  0  0  0  0  0
    0.3100   -0.8570    0.5995 C   0  0  0  0  0  0  0  0  0  0  0  0
    0.7952   -1.6910    1.5161 O   0  0  0  0  0  0  0  0  0  0  0  0
   -0.9706   -0.4838    0.2646 C   0  0  0  0  0  0  0  0  0  0  0  0
   -0.8873    0.4165   -0.8738 C   0  0  0  0  0  0  0  0  0  0  0  0
    0.4412    0.5655   -1.2001 C   0  0  0  0  0  0  0  0  0  0  0  0
    1.0564    1.2323   -2.1730 O   0  0  0  0  0  0  0  0  0  0  0  0
   -2.2146    0.9062   -1.4110 C   0  0  0  0  0  0  0  0  0  0  0  0
   -2.8400    1.5100   -0.1428 C   0  0  0  0  0  0  0  0  0  0  0  0
   -3.3101    2.8142   -0.0410 C   0  0  0  0  0  0  0  0  0  0  0  0
   -3.8599    3.2367    1.1715 C   0  0  0  0  0  0  0  0  0  0  0  0
   -3.9414    2.3669    2.2704 C   0  0  0  0  0  0  0  0  0  0  0  0
   -3.4748    1.0532    2.1839 C   0  0  0  0  0  0  0  0  0  0  0  0
   -2.9230    0.6180    0.9845 C   0  0  0  0  0  0  0  0  0  0  0  0
   -2.3727   -0.7966    0.7414 C   0  0  0  0  0  0  0  0  0  0  0  0
   -3.0111   -1.3212   -0.5558 C   0  0  0  0  0  0  0  0  0  0  0  0
   -3.6392   -2.5548   -0.6822 C   0  0  0  0  0  0  0  0  0  0  0  0
   -4.1823   -2.9075   -1.9199 C   0  0  0  0  0  0  0  0  0  0  0  0
   -4.1010   -2.0381   -3.0193 C   0  0  0  0  0  0  0  0  0  0  0  0
   -3.4749   -0.7944   -2.9083 C   0  0  0  0  0  0  0  0  0  0  0  0
   -2.9282   -0.4292   -1.6835 C   0  0  0  0  0  0  0  0  0  0  0  0
    4.6534    0.1761    0.6870 C   0  0  0  0  0  0  0  0  0  0  0  0
    5.3481   -0.6070   -0.2459 C   0  0  0  0  0  0  0  0  0  0  0  0
    6.6864   -0.9434   -0.0182 C   0  0  0  0  0  0  0  0  0  0  0  0
    7.3305   -0.4927    1.1340 C   0  0  0  0  0  0  0  0  0  0  0  0
    8.9766   -0.9098    1.4095 Cl  0  0  0  0  0  0  0  0  0  0  0  0
    6.6521    0.2982    2.0595 C   0  0  0  0  0  0  0  0  0  0  0  0
    5.3153    0.6365    1.8338 C   0  0  0  0  0  0  0  0  0  0  0  0
    2.7561   -1.2868   -0.3198 H   0  0  0  0  0  0  0  0  0  0  0  0
    0.0454   -1.9884    2.0596 H   0  0  0  0  0  0  0  0  0  0  0  0
    0.3847    1.7604   -2.6347 H   0  0  0  0  0  0  0  0  0  0  0  0
   -2.1463    1.5818   -2.2654 H   0  0  0  0  0  0  0  0  0  0  0  0
   -3.2517    3.4990   -0.8811 H   0  0  0  0  0  0  0  0  0  0  0  0
   -4.2282    4.2556    1.2685 H   0  0  0  0  0  0  0  0  0  0  0  0
   -4.3721    2.7243    3.2030 H   0  0  0  0  0  0  0  0  0  0  0  0
   -3.5430    0.3932    3.0428 H   0  0  0  0  0  0  0  0  0  0  0  0
   -2.4291   -1.4730    1.5960 H   0  0  0  0  0  0  0  0  0  0  0  0
   -3.7115   -3.2366    0.1593 H   0  0  0  0  0  0  0  0  0  0  0  0
   -4.6769   -3.8694   -2.0355 H   0  0  0  0  0  0  0  0  0  0  0  0
   -4.5334   -2.3389   -3.9710 H   0  0  0  0  0  0  0  0  0  0  0  0
   -3.4208   -0.1321   -3.7666 H   0  0  0  0  0  0  0  0  0  0  0  0
    4.8725   -0.9384   -1.1654 H   0  0  0  0  0  0  0  0  0  0  0  0
    7.2223   -1.5471   -0.7463 H   0  0  0  0  0  0  0  0  0  0  0  0
    7.1547    0.6577    2.9536 H   0  0  0  0  0  0  0  0  0  0  0  0
    4.7878    1.2594    2.5545 H   0  0  0  0  0  0  0  0  0  0  0  0
  1  2  2  0
  2  3  1  0
  3  4  1  0
  4  5  1  0
  5  6  1  0
  5  7  2  0
  7  8  1  0
  8  9  2  0
  9 10  1  0
  8 11  1  0
 11 12  1  0
 12 13  2  0
 13 14  1  0
 14 15  2  0
 15 16  1  0
 16 17  2  0
 17 18  1  0
 18 19  1  0
 19 20  2  0
 20 21  1  0
 21 22  2  0
 22 23  1  0
 23 24  2  0
  2 25  1  0
 25 26  2  0
 26 27  1  0
 27 28  2  0
 28 29  1  0
 28 30  1  0
 30 31  2  0
  9  4  1  0
 24 11  1  0
 31 25  1  0
 18  7  1  0
 24 19  1  0
 17 12  1  0
  3 32  1  0
  6 33  1  0
 10 34  1  0
 11 35  1  0
 13 36  1  0
 14 37  1  0
 15 38  1  0
 16 39  1  0
 18 40  1  0
 20 41  1  0
 21 42  1  0
 22 43  1  0
 23 44  1  0
 26 45  1  0
 27 46  1  0
 30 47  1  0
 31 48  1  0
M  END
$$$$
