
     RDKit          3D

 49 52  0  0  0  0  0  0  0  0999 V2000
   -7.7620    2.3026   -0.0316 C   0  0  0  0  0  0  0  0  0  0  0  0
   -7.2883    1.3866    0.9471 O   0  0  0  0  0  0  0  0  0  0  0  0
   -6.4028    0.4336    0.5233 C   0  0  0  0  0  0  0  0  0  0  0  0
   -5.8698    0.3188   -0.7617 C   0  0  0  0  0  0  0  0  0  0  0  0
   -4.9673   -0.7089   -1.0622 C   0  0  0  0  0  0  0  0  0  0  0  0
   -4.5916   -1.6398   -0.0834 C   0  0  0  0  0  0  0  0  0  0  0  0
   -3.6030   -2.7339   -0.3948 C   0  0  0  0  0  0  0  0  0  0  0  0
   -2.2469   -2.2797   -0.1932 N   0  0  0  0  0  0  0  0  0  0  0  0
   -1.6014   -2.4524    1.0182 C   0  0  0  0  0  0  0  0  0  0  0  0
   -2.1161   -3.0926    1.9331 O   0  0  0  0  0  0  0  0  0  0  0  0
   -0.2939   -1.8116    1.1006 C   0  0  0  0  0  0  0  0  0  0  0  0
    0.5554   -1.3745    0.0840 C   0  0  0  0  0  0  0  0  0  0  0  0
    1.7083   -0.7585    0.6151 C   0  0  0  0  0  0  0  0  0  0  0  0
    1.7120   -0.7675    1.9738 C   0  0  0  0  0  0  0  0  0  0  0  0
    0.3665   -1.4608    2.6697 S   0  0  0  0  0  0  0  0  0  0  0  0
    2.9244   -0.1454    2.5330 C   0  0  0  0  0  0  0  0  0  0  0  0
    3.7841    0.0102    1.3198 N   0  0  0  0  0  0  0  0  0  0  0  0
    4.5714    1.2413    1.3659 C   0  0  0  0  0  0  0  0  0  0  0  0
    5.5518    1.3626    0.2186 C   0  0  0  0  0  0  0  0  0  0  0  0
    5.4514    2.4173   -0.6993 C   0  0  0  0  0  0  0  0  0  0  0  0
    6.3575    2.5261   -1.7558 C   0  0  0  0  0  0  0  0  0  0  0  0
    7.3724    1.5834   -1.9047 C   0  0  0  0  0  0  0  0  0  0  0  0
    7.4876    0.5352   -0.9943 C   0  0  0  0  0  0  0  0  0  0  0  0
    6.5823    0.4249    0.0623 C   0  0  0  0  0  0  0  0  0  0  0  0
    2.9284   -0.0963    0.0970 C   0  0  0  0  0  0  0  0  0  0  0  0
   -5.1188   -1.5098    1.2077 C   0  0  0  0  0  0  0  0  0  0  0  0
   -6.0186   -0.4833    1.5045 C   0  0  0  0  0  0  0  0  0  0  0  0
   -8.4828    2.9673    0.4550 H   0  0  0  0  0  0  0  0  0  0  0  0
   -8.2830    1.7817   -0.8411 H   0  0  0  0  0  0  0  0  0  0  0  0
   -6.9460    2.9221   -0.4187 H   0  0  0  0  0  0  0  0  0  0  0  0
   -6.1326    1.0144   -1.5516 H   0  0  0  0  0  0  0  0  0  0  0  0
   -4.5613   -0.7778   -2.0693 H   0  0  0  0  0  0  0  0  0  0  0  0
   -3.8062   -3.6233    0.2124 H   0  0  0  0  0  0  0  0  0  0  0  0
   -3.6945   -3.0343   -1.4449 H   0  0  0  0  0  0  0  0  0  0  0  0
   -1.9044   -1.5636   -0.8144 H   0  0  0  0  0  0  0  0  0  0  0  0
    0.3550   -1.4984   -0.9720 H   0  0  0  0  0  0  0  0  0  0  0  0
    2.6737    0.8189    2.9895 H   0  0  0  0  0  0  0  0  0  0  0  0
    3.4248   -0.7839    3.2659 H   0  0  0  0  0  0  0  0  0  0  0  0
    5.1590    1.2662    2.2931 H   0  0  0  0  0  0  0  0  0  0  0  0
    3.9141    2.1200    1.3949 H   0  0  0  0  0  0  0  0  0  0  0  0
    4.6646    3.1624   -0.6002 H   0  0  0  0  0  0  0  0  0  0  0  0
    6.2728    3.3481   -2.4627 H   0  0  0  0  0  0  0  0  0  0  0  0
    8.0769    1.6674   -2.7270 H   0  0  0  0  0  0  0  0  0  0  0  0
    8.2809   -0.1990   -1.1066 H   0  0  0  0  0  0  0  0  0  0  0  0
    6.6750   -0.4014    0.7646 H   0  0  0  0  0  0  0  0  0  0  0  0
    2.6589    0.8847   -0.3101 H   0  0  0  0  0  0  0  0  0  0  0  0
    3.4276   -0.6968   -0.6687 H   0  0  0  0  0  0  0  0  0  0  0  0
   -4.8249   -2.2055    1.9936 H   0  0  0  0  0  0  0  0  0  0  0  0
   -6.4208   -0.3969    2.5115 H   0  0  0  0  0  0  0  0  0  0  0  0
  1  2  1  0
  2  3  1  0
  3  4  2  0
  4  5  1  0
  5  6  2  0
  6  7  1  0
  7  8  1  0
  8  9  1  0
  9 10  2  0
  9 11  1  0
 11 12  2  0
 12 13  1  0
 13 14  2  0
 14 15  1  0
 14 16  1  0
 16 17  1  0
 17 18  1  0
 18 19  1  0
 19 20  2  0
 20 21  1  0
 21 22  2  0
 22 23  1  0
 23 24  2  0
 17 25  1  0
  6 26  1  0
 26 27  2  0
 27  3  1  0
 15 11  1  0
 24 19  1  0
 25 13  1  0
  1 28  1  0
  1 29  1  0
  1 30  1  0
  4 31  1  0
  5 32  1  0
  7 33  1  0
  7 34  1  0
  8 35  1  0
 12 36  1  0
 16 37  1  0
 16 38  1  0
 18 39  1  0
 18 40  1  0
 20 41  1  0
 21 42  1  0
 22 43  1  0
 23 44  1  0
 24 45  1  0
 25 46  1  0
 25 47  1  0
 26 48  1  0
 27 49  1  0
M  END
$$$$
