
     RDKit          3D

 66 70  0  0  0  0  0  0  0  0999 V2000
    2.4375    0.4591    0.9598 C   0  0  0  0  0  0  0  0  0  0  0  0
    2.7470    1.2913   -0.2335 C   0  0  0  0  0  0  0  0  0  0  0  0
    2.2919    2.5637   -0.5439 C   0  0  0  0  0  0  0  0  0  0  0  0
    1.3252    3.4688    0.1782 C   0  0  0  0  0  0  0  0  0  0  0  0
   -0.0888    3.4128   -0.4203 C   0  0  0  0  0  0  0  0  0  0  0  0
   -1.0022    2.7146    0.4508 O   0  0  0  0  0  0  0  0  0  0  0  0
   -1.0298    1.3593    0.3324 C   0  0  0  0  0  0  0  0  0  0  0  0
   -0.2828    0.7075   -0.3898 O   0  0  0  0  0  0  0  0  0  0  0  0
   -2.0793    0.7655    1.2465 C   0  0  0  0  0  0  0  0  0  0  0  0
   -3.3009    0.1651    0.5237 C   0  0  0  0  0  0  0  0  0  0  0  0
   -4.3241   -0.2995    1.5973 C   0  0  0  0  0  0  0  0  0  0  0  0
   -5.5735   -0.9047    0.9389 C   0  0  0  0  0  0  0  0  0  0  0  0
   -6.2326    0.1499    0.0356 C   0  0  0  0  0  0  0  0  0  0  0  0
   -5.2449    0.5999   -1.0524 C   0  0  0  0  0  0  0  0  0  0  0  0
   -4.8321   -0.6161   -1.8992 C   0  0  0  0  0  0  0  0  0  0  0  0
   -4.1627   -1.6891   -1.0087 C   0  0  0  0  0  0  0  0  0  0  0  0
   -3.7557   -2.8980   -1.8548 C   0  0  0  0  0  0  0  0  0  0  0  0
   -5.1594   -2.1164    0.0912 C   0  0  0  0  0  0  0  0  0  0  0  0
   -2.9165   -1.0659   -0.3361 C   0  0  0  0  0  0  0  0  0  0  0  0
   -3.9965    1.2072   -0.3886 C   0  0  0  0  0  0  0  0  0  0  0  0
    2.9970    3.0951   -2.0235 S   0  0  0  0  0  0  0  0  0  0  0  0
    3.8300    1.6206   -2.2293 C   0  0  0  0  0  0  0  0  0  0  0  0
    3.5895    0.7888   -1.2273 N   0  0  0  0  0  4  0  0  0  0  0  0
    4.1074   -0.5854   -1.2695 C   0  0  0  0  0  0  0  0  0  0  0  0
    5.2924   -0.8038   -0.3486 C   0  0  0  0  0  0  0  0  0  0  0  0
    5.5926   -2.1226    0.0430 C   0  0  0  0  0  0  0  0  0  0  0  0
    6.6860   -2.3988    0.8704 C   0  0  0  0  0  0  0  0  0  0  0  0
    7.5015   -1.3526    1.3119 C   0  0  0  0  0  0  0  0  0  0  0  0
    8.6375   -1.6359    2.2009 N   0  0  0  0  0  4  0  0  0  0  0  0
    9.2531   -0.6673    2.6629 O   0  0  0  0  0  0  0  0  0  0  0  0
    8.9001   -2.8231    2.4367 O   0  0  0  0  0  1  0  0  0  0  0  0
    7.2346   -0.0374    0.9167 C   0  0  0  0  0  0  0  0  0  0  0  0
    6.1414    0.2319    0.0823 C   0  0  0  0  0  0  0  0  0  0  0  0
    1.8802    1.0323    1.7081 H   0  0  0  0  0  0  0  0  0  0  0  0
    1.8322   -0.4127    0.6931 H   0  0  0  0  0  0  0  0  0  0  0  0
    3.3533    0.1186    1.4544 H   0  0  0  0  0  0  0  0  0  0  0  0
    1.7012    4.5010    0.1039 H   0  0  0  0  0  0  0  0  0  0  0  0
    1.3054    3.2201    1.2469 H   0  0  0  0  0  0  0  0  0  0  0  0
   -0.1192    2.9733   -1.4289 H   0  0  0  0  0  0  0  0  0  0  0  0
   -0.4818    4.4354   -0.5134 H   0  0  0  0  0  0  0  0  0  0  0  0
   -1.5759    0.0082    1.8622 H   0  0  0  0  0  0  0  0  0  0  0  0
   -2.4096    1.5440    1.9483 H   0  0  0  0  0  0  0  0  0  0  0  0
   -3.8622   -1.0422    2.2634 H   0  0  0  0  0  0  0  0  0  0  0  0
   -4.6227    0.5467    2.2304 H   0  0  0  0  0  0  0  0  0  0  0  0
   -6.2815   -1.2226    1.7136 H   0  0  0  0  0  0  0  0  0  0  0  0
   -6.5473    1.0114    0.6365 H   0  0  0  0  0  0  0  0  0  0  0  0
   -7.1382   -0.2628   -0.4270 H   0  0  0  0  0  0  0  0  0  0  0  0
   -5.7231    1.3517   -1.6926 H   0  0  0  0  0  0  0  0  0  0  0  0
   -5.7150   -1.0329   -2.4008 H   0  0  0  0  0  0  0  0  0  0  0  0
   -4.1447   -0.2970   -2.6926 H   0  0  0  0  0  0  0  0  0  0  0  0
   -4.6284   -3.3783   -2.3082 H   0  0  0  0  0  0  0  0  0  0  0  0
   -3.0790   -2.6026   -2.6634 H   0  0  0  0  0  0  0  0  0  0  0  0
   -3.2398   -3.6492   -1.2483 H   0  0  0  0  0  0  0  0  0  0  0  0
   -6.0522   -2.5681   -0.3615 H   0  0  0  0  0  0  0  0  0  0  0  0
   -4.7077   -2.8850    0.7346 H   0  0  0  0  0  0  0  0  0  0  0  0
   -2.1992   -0.7802   -1.1146 H   0  0  0  0  0  0  0  0  0  0  0  0
   -2.4185   -1.8161    0.2926 H   0  0  0  0  0  0  0  0  0  0  0  0
   -4.2842    2.0894    0.1970 H   0  0  0  0  0  0  0  0  0  0  0  0
   -3.3100    1.5571   -1.1697 H   0  0  0  0  0  0  0  0  0  0  0  0
    4.4637    1.4115   -3.0845 H   0  0  0  0  0  0  0  0  0  0  0  0
    4.4209   -0.8257   -2.2961 H   0  0  0  0  0  0  0  0  0  0  0  0
    3.2870   -1.2705   -1.0164 H   0  0  0  0  0  0  0  0  0  0  0  0
    4.9804   -2.9602   -0.2943 H   0  0  0  0  0  0  0  0  0  0  0  0
    6.8845   -3.4305    1.1617 H   0  0  0  0  0  0  0  0  0  0  0  0
    7.8681    0.7830    1.2524 H   0  0  0  0  0  0  0  0  0  0  0  0
    5.9805    1.2686   -0.2094 H   0  0  0  0  0  0  0  0  0  0  0  0
  1  2  1  0
  2  3  2  0
  3  4  1  0
  4  5  1  0
  5  6  1  0
  6  7  1  0
  7  8  2  0
  7  9  1  0
  9 10  1  0
 10 11  1  0
 11 12  1  0
 12 13  1  0
 13 14  1  0
 14 15  1  0
 15 16  1  0
 16 17  1  0
 16 18  1  0
 16 19  1  0
 14 20  1  0
  3 21  1  0
 21 22  1  0
 22 23  2  0
 23 24  1  0
 24 25  1  0
 25 26  2  0
 26 27  1  0
 27 28  2  0
 28 29  1  0
 29 30  2  0
 29 31  1  0
 28 32  1  0
 32 33  2  0
 23  2  1  0
 33 25  1  0
 19 10  1  0
 20 10  1  0
 18 12  1  0
  1 34  1  0
  1 35  1  0
  1 36  1  0
  4 37  1  0
  4 38  1  0
  5 39  1  0
  5 40  1  0
  9 41  1  0
  9 42  1  0
 11 43  1  0
 11 44  1  0
 12 45  1  0
 13 46  1  0
 13 47  1  0
 14 48  1  0
 15 49  1  0
 15 50  1  0
 17 51  1  0
 17 52  1  0
 17 53  1  0
 18 54  1  0
 18 55  1  0
 19 56  1  0
 19 57  1  0
 20 58  1  0
 20 59  1  0
 22 60  1  0
 24 61  1  0
 24 62  1  0
 26 63  1  0
 27 64  1  0
 32 65  1  0
 33 66  1  0
M  CHG  3  23   1  29   1  31  -1
M  END
$$$$
