
     RDKit          3D

 46 47  0  0  0  0  0  0  0  0999 V2000
    0.4999   -1.1953    0.4403 O   0  0  0  0  0  0  0  0  0  0  0  0
    0.6300    0.0165    0.3513 C   0  0  0  0  0  0  0  0  0  0  0  0
   -0.4083    0.9102    0.2494 N   0  0  0  0  0  0  0  0  0  0  0  0
   -1.8005    0.4642    0.3323 C   0  0  0  0  0  0  0  0  0  0  0  0
   -2.7133    1.5038   -0.3358 C   0  0  0  0  0  0  0  0  0  0  0  0
   -3.5422    0.9428   -1.4920 C   0  0  0  0  0  0  0  0  0  0  0  0
   -4.2710   -0.3822   -1.2581 C   0  0  0  0  0  0  0  0  0  0  0  0
   -5.1064   -0.4701    0.0180 C   0  0  0  0  0  0  0  0  0  0  0  0
   -4.3759   -1.0571    1.2339 C   0  0  0  0  0  0  0  0  0  0  0  0
   -3.6576   -0.0336    2.1116 C   0  0  0  0  0  0  0  0  0  0  0  0
   -2.1760    0.1952    1.7992 C   0  0  0  0  0  0  0  0  0  0  0  0
    1.8366    0.6735    0.3381 N   0  0  0  0  0  0  0  0  0  0  0  0
    3.0870   -0.0735    0.3409 C   0  0  0  0  0  0  0  0  0  0  0  0
    4.2415    0.8232    0.7891 C   0  0  0  0  0  0  0  0  0  0  0  0
    5.5546    0.0468    0.9088 C   0  0  0  0  0  0  0  0  0  0  0  0
    5.6538   -1.1398   -0.0511 C   0  0  0  0  0  0  0  0  0  0  0  0
    4.8572   -0.9035   -1.3263 C   0  0  0  0  0  0  0  0  0  0  0  0
    3.3680   -0.6952   -1.0396 C   0  0  0  0  0  0  0  0  0  0  0  0
   -0.2039    1.8174    0.6422 H   0  0  0  0  0  0  0  0  0  0  0  0
   -1.8403   -0.4864   -0.2087 H   0  0  0  0  0  0  0  0  0  0  0  0
   -2.1181    2.3341   -0.7398 H   0  0  0  0  0  0  0  0  0  0  0  0
   -3.3855    1.9740    0.3891 H   0  0  0  0  0  0  0  0  0  0  0  0
   -2.8871    0.8160   -2.3636 H   0  0  0  0  0  0  0  0  0  0  0  0
   -4.2786    1.7038   -1.7805 H   0  0  0  0  0  0  0  0  0  0  0  0
   -3.5702   -1.2229   -1.3138 H   0  0  0  0  0  0  0  0  0  0  0  0
   -4.9477   -0.5202   -2.1124 H   0  0  0  0  0  0  0  0  0  0  0  0
   -5.5690    0.4945    0.2556 H   0  0  0  0  0  0  0  0  0  0  0  0
   -5.9378   -1.1541   -0.2015 H   0  0  0  0  0  0  0  0  0  0  0  0
   -3.7034   -1.8720    0.9428 H   0  0  0  0  0  0  0  0  0  0  0  0
   -5.1489   -1.5187    1.8637 H   0  0  0  0  0  0  0  0  0  0  0  0
   -4.2026    0.9171    2.1151 H   0  0  0  0  0  0  0  0  0  0  0  0
   -3.7045   -0.3905    3.1496 H   0  0  0  0  0  0  0  0  0  0  0  0
   -1.6114   -0.6789    2.1500 H   0  0  0  0  0  0  0  0  0  0  0  0
   -1.8304    1.0315    2.4221 H   0  0  0  0  0  0  0  0  0  0  0  0
    1.8266    1.5314   -0.1937 H   0  0  0  0  0  0  0  0  0  0  0  0
    2.9777   -0.8862    1.0719 H   0  0  0  0  0  0  0  0  0  0  0  0
    4.0121    1.3016    1.7493 H   0  0  0  0  0  0  0  0  0  0  0  0
    4.3687    1.6420    0.0680 H   0  0  0  0  0  0  0  0  0  0  0  0
    6.3878    0.7379    0.7322 H   0  0  0  0  0  0  0  0  0  0  0  0
    5.6762   -0.3210    1.9349 H   0  0  0  0  0  0  0  0  0  0  0  0
    6.7059   -1.3327   -0.2896 H   0  0  0  0  0  0  0  0  0  0  0  0
    5.2764   -2.0424    0.4461 H   0  0  0  0  0  0  0  0  0  0  0  0
    4.9840   -1.7461   -2.0154 H   0  0  0  0  0  0  0  0  0  0  0  0
    5.2549   -0.0186   -1.8392 H   0  0  0  0  0  0  0  0  0  0  0  0
    2.8475   -1.6595   -1.1023 H   0  0  0  0  0  0  0  0  0  0  0  0
    2.9442   -0.0768   -1.8414 H   0  0  0  0  0  0  0  0  0  0  0  0
  1  2  2  0
  2  3  1  0
  3  4  1  0
  4  5  1  0
  5  6  1  0
  6  7  1  0
  7  8  1  0
  8  9  1  0
  9 10  1  0
 10 11  1  0
  2 12  1  0
 12 13  1  0
 13 14  1  0
 14 15  1  0
 15 16  1  0
 16 17  1  0
 17 18  1  0
 11  4  1  0
 18 13  1  0
  3 19  1  0
  4 20  1  0
  5 21  1  0
  5 22  1  0
  6 23  1  0
  6 24  1  0
  7 25  1  0
  7 26  1  0
  8 27  1  0
  8 28  1  0
  9 29  1  0
  9 30  1  0
 10 31  1  0
 10 32  1  0
 11 33  1  0
 11 34  1  0
 12 35  1  0
 13 36  1  0
 14 37  1  0
 14 38  1  0
 15 39  1  0
 15 40  1  0
 16 41  1  0
 16 42  1  0
 17 43  1  0
 17 44  1  0
 18 45  1  0
 18 46  1  0
M  END
$$$$
