
     RDKit          3D

 55 57  0  0  0  0  0  0  0  0999 V2000
   -8.7411   -0.3054    1.8846 C   0  0  0  0  0  0  0  0  0  0  0  0
   -7.5086   -1.0015    2.0040 O   0  0  0  0  0  0  0  0  0  0  0  0
   -6.5210   -0.7134    1.0938 C   0  0  0  0  0  0  0  0  0  0  0  0
   -6.6400    0.2349    0.0717 C   0  0  0  0  0  0  0  0  0  0  0  0
   -5.5806    0.4588   -0.8114 C   0  0  0  0  0  0  0  0  0  0  0  0
   -4.3927   -0.2613   -0.6802 C   0  0  0  0  0  0  0  0  0  0  0  0
   -3.2774   -0.0305   -1.6009 C   0  0  0  0  0  0  0  0  0  0  0  0
   -2.3982    0.9752   -1.5068 C   0  0  0  0  0  0  0  0  0  0  0  0
   -2.3426    2.2226   -0.3282 S   0  0  0  0  0  0  0  0  0  0  0  0
   -0.8898    2.9375   -1.0166 C   0  0  0  0  0  0  0  0  0  0  0  0
   -0.1819    4.2955   -0.3535 S   0  0  0  0  0  0  0  0  0  0  0  0
   -0.4797    2.2053   -2.1141 N   0  0  0  0  0  0  0  0  0  0  0  0
    0.6984    2.5002   -2.9350 C   0  0  0  0  0  0  0  0  0  0  0  0
    1.8718    1.5501   -2.6713 C   0  0  0  0  0  0  0  0  0  0  0  0
    2.4467    1.6751   -1.2602 C   0  0  0  0  0  0  0  0  0  0  0  0
    3.6641    0.7877   -1.0488 C   0  0  0  0  0  0  0  0  0  0  0  0
    4.1378    0.1095   -1.9505 O   0  0  0  0  0  0  0  0  0  0  0  0
    4.1258    0.8679    0.2556 N   0  0  0  0  0  0  0  0  0  0  0  0
    5.2266    0.1920    0.8228 C   0  0  0  0  0  0  0  0  0  0  0  0
    5.4705    0.4134    2.1862 C   0  0  0  0  0  0  0  0  0  0  0  0
    6.5378   -0.2108    2.8346 C   0  0  0  0  0  0  0  0  0  0  0  0
    7.3770   -1.0658    2.1237 C   0  0  0  0  0  0  0  0  0  0  0  0
    7.1458   -1.2975    0.7630 C   0  0  0  0  0  0  0  0  0  0  0  0
    8.0241   -2.1897   -0.0343 C   0  0  0  0  0  0  0  0  0  0  0  0
    7.9340   -2.4122   -1.2269 O   0  0  0  0  0  0  0  0  0  0  0  0
    8.9882   -2.7681    0.7060 O   0  0  0  0  0  0  0  0  0  0  0  0
    6.0704   -0.6682    0.1156 C   0  0  0  0  0  0  0  0  0  0  0  0
   -1.2740    1.1256   -2.4671 C   0  0  0  0  0  0  0  0  0  0  0  0
   -1.1000    0.3864   -3.4255 O   0  0  0  0  0  0  0  0  0  0  0  0
   -4.2658   -1.2112    0.3406 C   0  0  0  0  0  0  0  0  0  0  0  0
   -5.3213   -1.4416    1.2312 C   0  0  0  0  0  0  0  0  0  0  0  0
   -5.2845   -2.3523    2.2592 O   0  0  0  0  0  0  0  0  0  0  0  0
   -4.0760   -3.0690    2.4631 C   0  0  0  0  0  0  0  0  0  0  0  0
   -9.2205   -0.5099    0.9217 H   0  0  0  0  0  0  0  0  0  0  0  0
   -8.6043    0.7695    2.0382 H   0  0  0  0  0  0  0  0  0  0  0  0
   -9.4079   -0.6737    2.6704 H   0  0  0  0  0  0  0  0  0  0  0  0
   -7.5448    0.8171   -0.0655 H   0  0  0  0  0  0  0  0  0  0  0  0
   -5.6940    1.1995   -1.5998 H   0  0  0  0  0  0  0  0  0  0  0  0
   -3.1825   -0.7685   -2.3974 H   0  0  0  0  0  0  0  0  0  0  0  0
    0.4029    2.4005   -3.9865 H   0  0  0  0  0  0  0  0  0  0  0  0
    1.0197    3.5371   -2.7964 H   0  0  0  0  0  0  0  0  0  0  0  0
    2.6597    1.7678   -3.4037 H   0  0  0  0  0  0  0  0  0  0  0  0
    1.5648    0.5116   -2.8474 H   0  0  0  0  0  0  0  0  0  0  0  0
    2.7501    2.7109   -1.0717 H   0  0  0  0  0  0  0  0  0  0  0  0
    1.6906    1.3895   -0.5201 H   0  0  0  0  0  0  0  0  0  0  0  0
    3.6156    1.4797    0.8798 H   0  0  0  0  0  0  0  0  0  0  0  0
    4.8312    1.0758    2.7666 H   0  0  0  0  0  0  0  0  0  0  0  0
    6.7169   -0.0266    3.8913 H   0  0  0  0  0  0  0  0  0  0  0  0
    8.2077   -1.5428    2.6375 H   0  0  0  0  0  0  0  0  0  0  0  0
    9.4733   -3.3199    0.0559 H   0  0  0  0  0  0  0  0  0  0  0  0
    5.9177   -0.8690   -0.9409 H   0  0  0  0  0  0  0  0  0  0  0  0
   -3.3336   -1.7593    0.4225 H   0  0  0  0  0  0  0  0  0  0  0  0
   -4.2170   -3.7264    3.3263 H   0  0  0  0  0  0  0  0  0  0  0  0
   -3.8407   -3.7004    1.5998 H   0  0  0  0  0  0  0  0  0  0  0  0
   -3.2487   -2.3896    2.6951 H   0  0  0  0  0  0  0  0  0  0  0  0
  1  2  1  0
  2  3  1  0
  3  4  2  0
  4  5  1  0
  5  6  2  0
  6  7  1  0
  7  8  2  3
  8  9  1  0
  9 10  1  0
 10 11  2  0
 10 12  1  0
 12 13  1  0
 13 14  1  0
 14 15  1  0
 15 16  1  0
 16 17  2  0
 16 18  1  0
 18 19  1  0
 19 20  2  0
 20 21  1  0
 21 22  2  0
 22 23  1  0
 23 24  1  0
 24 25  2  0
 24 26  1  0
 23 27  2  0
 12 28  1  0
 28 29  2  0
  6 30  1  0
 30 31  2  0
 31 32  1  0
 32 33  1  0
 31  3  1  0
 28  8  1  0
 27 19  1  0
  1 34  1  0
  1 35  1  0
  1 36  1  0
  4 37  1  0
  5 38  1  0
  7 39  1  0
 13 40  1  0
 13 41  1  0
 14 42  1  0
 14 43  1  0
 15 44  1  0
 15 45  1  0
 18 46  1  0
 20 47  1  0
 21 48  1  0
 22 49  1  0
 26 50  1  0
 27 51  1  0
 30 52  1  0
 33 53  1  0
 33 54  1  0
 33 55  1  0
M  END
$$$$
