
     RDKit          3D

 41 44  0  0  0  0  0  0  0  0999 V2000
    5.1109    2.3465    1.1878 C   0  0  0  0  0  0  0  0  0  0  0  0
    4.9258    1.0671    1.9922 C   0  0  0  0  0  0  0  0  0  0  0  0
    4.4329   -0.0699    1.1294 C   0  0  0  0  0  0  0  0  0  0  0  0
    5.3332   -0.9986    0.5983 C   0  0  0  0  0  0  0  0  0  0  0  0
    4.9026   -2.0472   -0.2189 C   0  0  0  0  0  0  0  0  0  0  0  0
    3.5349   -2.1354   -0.5004 C   0  0  0  0  0  0  0  0  0  0  0  0
    2.8504   -3.0536   -1.2656 N   0  0  0  0  0  0  0  0  0  0  0  0
    1.5128   -2.7722   -1.2704 C   0  0  0  0  0  0  0  0  0  0  0  0
    0.6698   -3.5519   -1.9378 O   0  0  0  0  0  0  0  0  0  0  0  0
    1.3287   -1.6372   -0.5126 C   0  0  0  0  0  0  0  0  0  0  0  0
    0.0557   -1.0772   -0.3303 N   0  0  0  0  0  0  0  0  0  0  0  0
    0.0620    0.0951    0.0890 N   0  0  0  0  0  0  0  0  0  0  0  0
   -1.1678    0.6683    0.2015 C   0  0  0  0  0  0  0  0  0  0  0  0
   -2.3266    0.2350   -0.2647 N   0  0  0  0  0  0  0  0  0  0  0  0
   -3.3536    1.1120    0.0494 C   0  0  0  0  0  0  0  0  0  0  0  0
   -4.7230    0.8493   -0.3841 C   0  0  0  0  0  0  0  0  0  0  0  0
   -4.9442    0.0422   -1.5105 C   0  0  0  0  0  0  0  0  0  0  0  0
   -6.2414   -0.2231   -1.9586 C   0  0  0  0  0  0  0  0  0  0  0  0
   -7.3337    0.3115   -1.2802 C   0  0  0  0  0  0  0  0  0  0  0  0
   -7.1313    1.1042   -0.1529 C   0  0  0  0  0  0  0  0  0  0  0  0
   -5.8338    1.3716    0.2943 C   0  0  0  0  0  0  0  0  0  0  0  0
   -2.9595    2.2275    0.7587 C   0  0  0  0  0  0  0  0  0  0  0  0
   -1.2714    2.1801    1.0416 S   0  0  0  0  0  0  0  0  0  0  0  0
    2.5968   -1.2249   -0.0009 C   0  0  0  0  0  0  0  0  0  0  0  0
    3.0631   -0.1815    0.8303 C   0  0  0  0  0  0  0  0  0  0  0  0
    4.1669    2.6760    0.7412 H   0  0  0  0  0  0  0  0  0  0  0  0
    5.8338    2.2045    0.3772 H   0  0  0  0  0  0  0  0  0  0  0  0
    5.4786    3.1516    1.8316 H   0  0  0  0  0  0  0  0  0  0  0  0
    5.8759    0.7925    2.4673 H   0  0  0  0  0  0  0  0  0  0  0  0
    4.2156    1.2390    2.8108 H   0  0  0  0  0  0  0  0  0  0  0  0
    6.3959   -0.9122    0.8186 H   0  0  0  0  0  0  0  0  0  0  0  0
    5.6122   -2.7629   -0.6219 H   0  0  0  0  0  0  0  0  0  0  0  0
    3.2661   -3.8338   -1.7508 H   0  0  0  0  0  0  0  0  0  0  0  0
   -0.2186   -3.1660   -1.8065 H   0  0  0  0  0  0  0  0  0  0  0  0
   -4.1004   -0.3832   -2.0509 H   0  0  0  0  0  0  0  0  0  0  0  0
   -6.3950   -0.8481   -2.8363 H   0  0  0  0  0  0  0  0  0  0  0  0
   -8.3430    0.1050   -1.6273 H   0  0  0  0  0  0  0  0  0  0  0  0
   -7.9843    1.5132    0.3826 H   0  0  0  0  0  0  0  0  0  0  0  0
   -5.7102    1.9811    1.1878 H   0  0  0  0  0  0  0  0  0  0  0  0
   -3.5496    3.0639    1.1016 H   0  0  0  0  0  0  0  0  0  0  0  0
    2.3631    0.5418    1.2394 H   0  0  0  0  0  0  0  0  0  0  0  0
  1  2  1  0
  2  3  1  0
  3  4  2  0
  4  5  1  0
  5  6  2  0
  6  7  1  0
  7  8  1  0
  8  9  1  0
  8 10  2  0
 10 11  1  0
 11 12  2  3
 12 13  1  0
 13 14  2  0
 14 15  1  0
 15 16  1  0
 16 17  2  0
 17 18  1  0
 18 19  2  0
 19 20  1  0
 20 21  2  0
 15 22  2  0
 22 23  1  0
 10 24  1  0
 24 25  2  0
 25  3  1  0
 24  6  1  0
 23 13  1  0
 21 16  1  0
  1 26  1  0
  1 27  1  0
  1 28  1  0
  2 29  1  0
  2 30  1  0
  4 31  1  0
  5 32  1  0
  7 33  1  0
  9 34  1  0
 17 35  1  0
 18 36  1  0
 19 37  1  0
 20 38  1  0
 21 39  1  0
 22 40  1  0
 25 41  1  0
M  END
$$$$
