
     RDKit          3D

 43 44  0  0  0  0  0  0  0  0999 V2000
   -1.0694    3.3130   -1.8755 C   0  0  0  0  0  0  0  0  0  0  0  0
   -1.7410    2.7467   -0.6393 C   0  0  0  0  0  0  0  0  0  0  0  0
   -1.6395    1.3180   -0.6868 O   0  0  0  0  0  0  0  0  0  0  0  0
   -2.3713    0.6653    0.2671 C   0  0  0  0  0  0  0  0  0  0  0  0
   -3.0613    1.2419    1.1002 O   0  0  0  0  0  0  0  0  0  0  0  0
   -2.2698   -0.7974    0.1711 C   0  0  0  0  0  0  0  0  0  0  0  0
   -1.2672   -1.4787   -0.5097 C   0  0  0  0  0  0  0  0  0  0  0  0
   -0.1782   -0.9238   -1.1681 N   0  0  0  0  0  0  0  0  0  0  0  0
    0.8466   -1.5843   -1.8262 C   0  0  0  0  0  0  0  0  0  0  0  0
    0.9905   -2.7945   -1.9719 O   0  0  0  0  0  0  0  0  0  0  0  0
    1.8843   -0.6157   -2.4054 C   0  0  0  0  0  0  0  0  0  0  0  0
    2.9014   -0.2642   -1.4654 O   0  0  0  0  0  0  0  0  0  0  0  0
    2.5460    0.6735   -0.5565 C   0  0  0  0  0  0  0  0  0  0  0  0
    1.4583    1.2273   -0.5028 O   0  0  0  0  0  0  0  0  0  0  0  0
    3.6593    0.9508    0.3848 C   0  0  0  0  0  0  0  0  0  0  0  0
    4.8725    0.2626    0.3306 C   0  0  0  0  0  0  0  0  0  0  0  0
    5.8475    0.5955    1.2533 C   0  0  0  0  0  0  0  0  0  0  0  0
    5.6907    1.5462    2.1988 N   0  0  0  0  0  0  0  0  0  0  0  0
    4.5069    2.1932    2.2325 C   0  0  0  0  0  0  0  0  0  0  0  0
    3.4693    1.9351    1.3565 C   0  0  0  0  0  0  0  0  0  0  0  0
   -1.4813   -3.1583   -0.4557 S   0  0  0  0  0  0  0  0  0  0  0  0
   -2.8715   -3.0458    0.5179 C   0  0  0  0  0  0  0  0  0  0  0  0
   -3.5647   -4.2952    0.9557 C   0  0  0  0  0  0  0  0  0  0  0  0
   -3.2065   -1.7294    0.7911 C   0  0  0  0  0  0  0  0  0  0  0  0
   -4.3896   -1.3100    1.6117 C   0  0  0  0  0  0  0  0  0  0  0  0
   -1.1237    4.4052   -1.8824 H   0  0  0  0  0  0  0  0  0  0  0  0
   -0.0182    3.0126   -1.9206 H   0  0  0  0  0  0  0  0  0  0  0  0
   -1.5480    2.9294   -2.7827 H   0  0  0  0  0  0  0  0  0  0  0  0
   -1.2378    3.1143    0.2615 H   0  0  0  0  0  0  0  0  0  0  0  0
   -2.7932    3.0529   -0.6266 H   0  0  0  0  0  0  0  0  0  0  0  0
   -0.0919    0.0916   -1.0857 H   0  0  0  0  0  0  0  0  0  0  0  0
    2.3739   -1.1139   -3.2496 H   0  0  0  0  0  0  0  0  0  0  0  0
    1.3974    0.2767   -2.8183 H   0  0  0  0  0  0  0  0  0  0  0  0
    5.0659   -0.5149   -0.4001 H   0  0  0  0  0  0  0  0  0  0  0  0
    6.8104    0.0916    1.2590 H   0  0  0  0  0  0  0  0  0  0  0  0
    4.4131    2.9483    3.0083 H   0  0  0  0  0  0  0  0  0  0  0  0
    2.5387    2.4878    1.4331 H   0  0  0  0  0  0  0  0  0  0  0  0
   -3.6450   -4.3206    2.0475 H   0  0  0  0  0  0  0  0  0  0  0  0
   -4.5745   -4.3334    0.5340 H   0  0  0  0  0  0  0  0  0  0  0  0
   -3.0361   -5.2012    0.6413 H   0  0  0  0  0  0  0  0  0  0  0  0
   -5.0194   -2.1609    1.8881 H   0  0  0  0  0  0  0  0  0  0  0  0
   -5.0163   -0.6096    1.0503 H   0  0  0  0  0  0  0  0  0  0  0  0
   -4.0573   -0.8281    2.5368 H   0  0  0  0  0  0  0  0  0  0  0  0
  1  2  1  0
  2  3  1  0
  3  4  1  0
  4  5  2  0
  4  6  1  0
  6  7  2  0
  7  8  1  0
  8  9  1  0
  9 10  2  0
  9 11  1  0
 11 12  1  0
 12 13  1  0
 13 14  2  0
 13 15  1  0
 15 16  2  0
 16 17  1  0
 17 18  2  0
 18 19  1  0
 19 20  2  0
  7 21  1  0
 21 22  1  0
 22 23  1  0
 22 24  2  0
 24 25  1  0
 24  6  1  0
 20 15  1  0
  1 26  1  0
  1 27  1  0
  1 28  1  0
  2 29  1  0
  2 30  1  0
  8 31  1  0
 11 32  1  0
 11 33  1  0
 16 34  1  0
 17 35  1  0
 19 36  1  0
 20 37  1  0
 23 38  1  0
 23 39  1  0
 23 40  1  0
 25 41  1  0
 25 42  1  0
 25 43  1  0
M  END
$$$$
