
     RDKit          3D

 41 42  0  0  0  0  0  0  0  0999 V2000
   -3.6199    0.4096   -1.9167 C   0  0  0  0  0  0  0  0  0  0  0  0
   -3.1147    1.2777   -0.7742 C   0  0  0  0  0  0  0  0  0  0  0  0
   -2.5902    0.4419    0.3260 N   0  0  0  0  0  0  0  0  0  0  0  0
   -3.5944    0.1580    1.3687 C   0  0  0  0  0  0  0  0  0  0  0  0
   -3.4698    1.1385    2.5246 C   0  0  0  0  0  0  0  0  0  0  0  0
   -1.2560   -0.0202    0.3698 C   0  0  0  0  0  0  0  0  0  0  0  0
   -0.3486    0.1845   -0.6100 C   0  0  0  0  0  0  0  0  0  0  0  0
    1.0321   -0.2538   -0.5193 C   0  0  0  0  0  0  0  0  0  0  0  0
    2.0175    0.4689   -1.0849 C   0  0  0  0  0  0  0  0  0  0  0  0
    3.4442    0.1596   -0.9347 C   0  0  0  0  0  0  0  0  0  0  0  0
    4.4237    0.8926   -1.5248 C   0  0  0  0  0  0  0  0  0  0  0  0
    4.1429    2.0232   -2.3478 C   0  0  0  0  0  0  0  0  0  0  0  0
    3.9037    2.9415   -3.0163 N   0  0  0  0  0  0  0  0  0  0  0  0
    5.8002    0.5523   -1.3681 C   0  0  0  0  0  0  0  0  0  0  0  0
    6.9155    0.2616   -1.2319 N   0  0  0  0  0  0  0  0  0  0  0  0
    3.7611   -1.0411   -0.0471 C   0  0  0  0  0  0  0  0  0  0  0  0
    2.6723   -1.3500    0.9868 C   0  0  0  0  0  0  0  0  0  0  0  0
    1.3176   -1.4990    0.2875 C   0  0  0  0  0  0  0  0  0  0  0  0
    0.2006   -1.8936    1.2634 C   0  0  0  0  0  0  0  0  0  0  0  0
   -0.7508   -0.7504    1.6105 C   0  0  0  0  0  0  0  0  0  0  0  0
   -4.0207    1.0364   -2.7193 H   0  0  0  0  0  0  0  0  0  0  0  0
   -2.8203   -0.2087   -2.3363 H   0  0  0  0  0  0  0  0  0  0  0  0
   -4.4166   -0.2613   -1.5789 H   0  0  0  0  0  0  0  0  0  0  0  0
   -2.3556    1.9821   -1.1320 H   0  0  0  0  0  0  0  0  0  0  0  0
   -3.9378    1.9076   -0.4135 H   0  0  0  0  0  0  0  0  0  0  0  0
   -3.5205   -0.8760    1.7201 H   0  0  0  0  0  0  0  0  0  0  0  0
   -4.6065    0.2364    0.9512 H   0  0  0  0  0  0  0  0  0  0  0  0
   -2.4924    1.0692    3.0110 H   0  0  0  0  0  0  0  0  0  0  0  0
   -4.2374    0.9344    3.2777 H   0  0  0  0  0  0  0  0  0  0  0  0
   -3.5973    2.1701    2.1801 H   0  0  0  0  0  0  0  0  0  0  0  0
   -0.6078    0.7518   -1.4974 H   0  0  0  0  0  0  0  0  0  0  0  0
    1.7408    1.3620   -1.6447 H   0  0  0  0  0  0  0  0  0  0  0  0
    4.6993   -0.8939    0.5003 H   0  0  0  0  0  0  0  0  0  0  0  0
    3.8972   -1.9192   -0.6924 H   0  0  0  0  0  0  0  0  0  0  0  0
    2.6318   -0.5516    1.7397 H   0  0  0  0  0  0  0  0  0  0  0  0
    2.9316   -2.2761    1.5140 H   0  0  0  0  0  0  0  0  0  0  0  0
    1.4106   -2.3323   -0.4254 H   0  0  0  0  0  0  0  0  0  0  0  0
   -0.3920   -2.6944    0.7982 H   0  0  0  0  0  0  0  0  0  0  0  0
    0.6115   -2.3269    2.1833 H   0  0  0  0  0  0  0  0  0  0  0  0
   -1.5588   -1.1854    2.2020 H   0  0  0  0  0  0  0  0  0  0  0  0
   -0.2458   -0.0256    2.2622 H   0  0  0  0  0  0  0  0  0  0  0  0
  1  2  1  0
  2  3  1  0
  3  4  1  0
  4  5  1  0
  3  6  1  0
  6  7  2  0
  7  8  1  0
  8  9  2  0
  9 10  1  0
 10 11  2  3
 11 12  1  0
 12 13  3  0
 11 14  1  0
 14 15  3  0
 10 16  1  0
 16 17  1  0
 17 18  1  0
 18 19  1  0
 19 20  1  0
 20  6  1  0
 18  8  1  0
  1 21  1  0
  1 22  1  0
  1 23  1  0
  2 24  1  0
  2 25  1  0
  4 26  1  0
  4 27  1  0
  5 28  1  0
  5 29  1  0
  5 30  1  0
  7 31  1  0
  9 32  1  0
 16 33  1  0
 16 34  1  0
 17 35  1  0
 17 36  1  0
 18 37  1  0
 19 38  1  0
 19 39  1  0
 20 40  1  0
 20 41  1  0
M  END
$$$$
