
     RDKit          3D

 23 24  0  0  0  0  0  0  0  0999 V2000
   -5.0983    0.0228    0.0191 C   0  0  0  0  0  0  0  0  0  0  0  0
   -4.3583    1.1619   -1.1705 S   0  0  0  0  0  0  0  0  0  0  0  0
   -2.6545    0.8606   -0.8969 C   0  0  0  0  0  0  0  0  0  0  0  0
   -2.2347   -0.0229   -0.0220 N   0  0  0  0  0  0  0  0  0  0  0  0
   -0.8514   -0.0521   -0.0144 C   0  0  0  0  0  0  0  0  0  0  0  0
   -0.0487   -0.8762    0.8022 C   0  0  0  0  0  0  0  0  0  0  0  0
    1.3455   -0.8065    0.7083 C   0  0  0  0  0  0  0  0  0  0  0  0
    1.9378    0.0719   -0.1984 C   0  0  0  0  0  0  0  0  0  0  0  0
    3.7044    0.1719   -0.2885 S   0  0  0  0  0  6  0  0  0  0  0  0
    4.0461   -0.9154   -1.5199 N   0  0  0  0  0  0  0  0  0  0  0  0
    4.0778    1.4740   -0.7879 O   0  0  0  0  0  0  0  0  0  0  0  0
    4.2738   -0.3929    0.9120 O   0  0  0  0  0  0  0  0  0  0  0  0
    1.1693    0.9133   -1.0141 C   0  0  0  0  0  0  0  0  0  0  0  0
   -0.2283    0.8266   -0.9043 C   0  0  0  0  0  0  0  0  0  0  0  0
   -1.4394    1.7032   -1.7589 S   0  0  0  0  0  0  0  0  0  0  0  0
   -4.8191   -1.0099   -0.2077 H   0  0  0  0  0  0  0  0  0  0  0  0
   -6.1873    0.1042   -0.0369 H   0  0  0  0  0  0  0  0  0  0  0  0
   -4.7873    0.2704    1.0379 H   0  0  0  0  0  0  0  0  0  0  0  0
   -0.5224   -1.5585    1.5022 H   0  0  0  0  0  0  0  0  0  0  0  0
    1.9548   -1.4423    1.3480 H   0  0  0  0  0  0  0  0  0  0  0  0
    4.4816   -0.4272   -2.3033 H   0  0  0  0  0  0  0  0  0  0  0  0
    4.6071   -1.6865   -1.1559 H   0  0  0  0  0  0  0  0  0  0  0  0
    1.6314    1.6096   -1.7085 H   0  0  0  0  0  0  0  0  0  0  0  0
  1  2  1  0
  2  3  1  0
  3  4  2  0
  4  5  1  0
  5  6  2  0
  6  7  1  0
  7  8  2  0
  8  9  1  0
  9 10  1  0
  9 11  2  0
  9 12  2  0
  8 13  1  0
 13 14  2  0
 14 15  1  0
 15  3  1  0
 14  5  1  0
  1 16  1  0
  1 17  1  0
  1 18  1  0
  6 19  1  0
  7 20  1  0
 10 21  1  0
 10 22  1  0
 13 23  1  0
M  END
$$$$
