
     RDKit          3D

 51 54  0  0  0  0  0  0  0  0999 V2000
    7.9721   -1.7457    1.7174 C   0  0  0  0  0  0  0  0  0  0  0  0
    6.6423   -1.6535    1.0295 C   0  0  0  0  0  0  0  0  0  0  0  0
    5.5197   -1.1772    1.7159 C   0  0  0  0  0  0  0  0  0  0  0  0
    4.2872   -1.0616    1.0676 C   0  0  0  0  0  0  0  0  0  0  0  0
    4.1587   -1.4149   -0.2817 C   0  0  0  0  0  0  0  0  0  0  0  0
    2.8366   -1.2840   -0.9968 C   0  0  0  0  0  0  0  0  0  0  0  0
    2.8827   -0.2069   -1.9761 N   0  0  0  0  0  0  0  0  0  0  0  0
    1.6827   -0.0844   -3.1275 S   0  0  0  0  0  6  0  0  0  0  0  0
    1.9283    1.1430   -3.8520 O   0  0  0  0  0  0  0  0  0  0  0  0
    1.5698   -1.3588   -3.8003 O   0  0  0  0  0  0  0  0  0  0  0  0
    0.2230    0.1563   -2.1417 C   0  0  0  0  0  0  0  0  0  0  0  0
   -0.6215   -0.9327   -1.8688 C   0  0  0  0  0  0  0  0  0  0  0  0
   -1.7754   -0.7499   -1.0986 C   0  0  0  0  0  0  0  0  0  0  0  0
   -2.0687    0.5208   -0.6274 C   0  0  0  0  0  0  0  0  0  0  0  0
   -1.2331    1.6013   -0.9222 C   0  0  0  0  0  0  0  0  0  0  0  0
   -0.0828    1.4413   -1.6814 C   0  0  0  0  0  0  0  0  0  0  0  0
   -1.7649    2.8755   -0.3509 C   0  0  0  0  0  0  0  0  0  0  0  0
   -3.0094    2.3944    0.4048 C   0  0  0  0  0  0  0  0  0  0  0  0
   -3.1573    0.9514    0.1540 N   0  0  0  0  0  0  0  0  0  0  0  0
   -4.1925    0.1512    0.6308 C   0  0  0  0  0  0  0  0  0  0  0  0
   -4.2542   -1.0654    0.4186 O   0  0  0  0  0  0  0  0  0  0  0  0
   -5.2861    0.8926    1.4651 C   0  0  0  0  0  0  0  0  0  0  0  0
   -6.4279    1.5869    0.6715 C   0  0  0  0  0  0  0  0  0  0  0  0
   -7.2869    0.3330    0.9095 C   0  0  0  0  0  0  0  0  0  0  0  0
   -6.3983    0.0305    2.1280 C   0  0  0  0  0  0  0  0  0  0  0  0
    5.2890   -1.8732   -0.9723 C   0  0  0  0  0  0  0  0  0  0  0  0
    6.5203   -1.9876   -0.3235 C   0  0  0  0  0  0  0  0  0  0  0  0
    8.5164   -0.8027    1.6074 H   0  0  0  0  0  0  0  0  0  0  0  0
    7.8462   -1.9597    2.7839 H   0  0  0  0  0  0  0  0  0  0  0  0
    8.5760   -2.5549    1.2934 H   0  0  0  0  0  0  0  0  0  0  0  0
    5.5983   -0.8938    2.7633 H   0  0  0  0  0  0  0  0  0  0  0  0
    3.4306   -0.6928    1.6273 H   0  0  0  0  0  0  0  0  0  0  0  0
    2.5995   -2.2415   -1.4737 H   0  0  0  0  0  0  0  0  0  0  0  0
    2.0493   -1.0752   -0.2643 H   0  0  0  0  0  0  0  0  0  0  0  0
    3.3417    0.6641   -1.7210 H   0  0  0  0  0  0  0  0  0  0  0  0
   -0.3913   -1.9245   -2.2540 H   0  0  0  0  0  0  0  0  0  0  0  0
   -2.4179   -1.6002   -0.8943 H   0  0  0  0  0  0  0  0  0  0  0  0
    0.5522    2.2902   -1.9187 H   0  0  0  0  0  0  0  0  0  0  0  0
   -2.0358    3.5771   -1.1461 H   0  0  0  0  0  0  0  0  0  0  0  0
   -1.0463    3.3462    0.3268 H   0  0  0  0  0  0  0  0  0  0  0  0
   -3.9095    2.9214    0.0718 H   0  0  0  0  0  0  0  0  0  0  0  0
   -2.8980    2.5536    1.4833 H   0  0  0  0  0  0  0  0  0  0  0  0
   -4.8285    1.5535    2.2129 H   0  0  0  0  0  0  0  0  0  0  0  0
   -6.2222    1.8148   -0.3779 H   0  0  0  0  0  0  0  0  0  0  0  0
   -6.8133    2.4896    1.1596 H   0  0  0  0  0  0  0  0  0  0  0  0
   -8.3429    0.5140    1.1245 H   0  0  0  0  0  0  0  0  0  0  0  0
   -7.2088   -0.4130    0.1105 H   0  0  0  0  0  0  0  0  0  0  0  0
   -6.7775    0.4539    3.0659 H   0  0  0  0  0  0  0  0  0  0  0  0
   -6.1701   -1.0259    2.2922 H   0  0  0  0  0  0  0  0  0  0  0  0
    5.2141   -2.1371   -2.0261 H   0  0  0  0  0  0  0  0  0  0  0  0
    7.3841   -2.3394   -0.8833 H   0  0  0  0  0  0  0  0  0  0  0  0
  1  2  1  0
  2  3  2  0
  3  4  1  0
  4  5  2  0
  5  6  1  0
  6  7  1  0
  7  8  1  0
  8  9  2  0
  8 10  2  0
  8 11  1  0
 11 12  2  0
 12 13  1  0
 13 14  2  0
 14 15  1  0
 15 16  2  0
 15 17  1  0
 17 18  1  0
 18 19  1  0
 19 20  1  0
 20 21  2  0
 20 22  1  0
 22 23  1  0
 23 24  1  0
 24 25  1  0
  5 26  1  0
 26 27  2  0
 27  2  1  0
 16 11  1  0
 25 22  1  0
 19 14  1  0
  1 28  1  0
  1 29  1  0
  1 30  1  0
  3 31  1  0
  4 32  1  0
  6 33  1  0
  6 34  1  0
  7 35  1  0
 12 36  1  0
 13 37  1  0
 16 38  1  0
 17 39  1  0
 17 40  1  0
 18 41  1  0
 18 42  1  0
 22 43  1  0
 23 44  1  0
 23 45  1  0
 24 46  1  0
 24 47  1  0
 25 48  1  0
 25 49  1  0
 26 50  1  0
 27 51  1  0
M  END
$$$$
