
     RDKit          3D

 46 50  0  0  0  0  0  0  0  0999 V2000
    0.4949    1.9774    1.7738 O   0  0  0  0  0  0  0  0  0  0  0  0
    0.3370    1.0619    0.9791 C   0  0  0  0  0  0  0  0  0  0  0  0
    1.3207    0.2331    0.4692 N   0  0  0  0  0  0  0  0  0  0  0  0
    2.7080    0.2150    0.7718 C   0  0  0  0  0  0  0  0  0  0  0  0
    3.2429    1.0372    1.7723 C   0  0  0  0  0  0  0  0  0  0  0  0
    4.6011    1.0062    2.0764 C   0  0  0  0  0  0  0  0  0  0  0  0
    5.4486    0.1492    1.3863 C   0  0  0  0  0  0  0  0  0  0  0  0
    4.9548   -0.6899    0.3807 C   0  0  0  0  0  0  0  0  0  0  0  0
    5.8427   -1.5436   -0.2954 C   0  0  0  0  0  0  0  0  0  0  0  0
    5.3978   -2.3923   -1.3047 C   0  0  0  0  0  0  0  0  0  0  0  0
    4.0563   -2.3962   -1.6525 C   0  0  0  0  0  0  0  0  0  0  0  0
    3.1597   -1.5527   -0.9883 C   0  0  0  0  0  0  0  0  0  0  0  0
    3.5725   -0.6741    0.0503 C   0  0  0  0  0  0  0  0  0  0  0  0
   -0.9829    0.7341    0.4663 C   0  0  0  0  0  0  0  0  0  0  0  0
   -1.5173   -0.5433    0.4120 C   0  0  0  0  0  0  0  0  0  0  0  0
   -2.8012   -0.4339   -0.0651 N   0  0  0  0  0  0  0  0  0  0  0  0
   -3.7517   -1.4734   -0.2728 C   0  0  0  0  0  0  0  0  0  0  0  0
   -3.4503   -2.8094    0.0281 C   0  0  0  0  0  0  0  0  0  0  0  0
   -4.4052   -3.8078   -0.1889 C   0  0  0  0  0  0  0  0  0  0  0  0
   -5.6589   -3.4825   -0.7040 C   0  0  0  0  0  0  0  0  0  0  0  0
   -5.9653   -2.1573   -1.0039 C   0  0  0  0  0  0  0  0  0  0  0  0
   -5.0175   -1.1544   -0.7898 C   0  0  0  0  0  0  0  0  0  0  0  0
   -3.1031    0.8480   -0.3556 N   0  0  0  0  0  0  0  0  0  0  0  0
   -2.0180    1.5645   -0.0326 C   0  0  0  0  0  0  0  0  0  0  0  0
   -2.0216    3.1307   -0.2824 C   0  0  0  0  0  0  0  0  0  0  0  0
   -0.9679    4.0000   -0.0937 C   0  0  0  0  0  0  0  0  0  0  0  0
   -1.3065    5.3494   -0.4196 C   0  0  0  0  0  0  0  0  0  0  0  0
   -2.6060    5.4649   -0.8548 C   0  0  0  0  0  0  0  0  0  0  0  0
   -3.4073    3.9565   -0.8738 S   0  0  0  0  0  0  0  0  0  0  0  0
    1.0098   -0.4131   -0.2384 H   0  0  0  0  0  0  0  0  0  0  0  0
    2.6264    1.7168    2.3513 H   0  0  0  0  0  0  0  0  0  0  0  0
    4.9954    1.6520    2.8571 H   0  0  0  0  0  0  0  0  0  0  0  0
    6.5059    0.1432    1.6438 H   0  0  0  0  0  0  0  0  0  0  0  0
    6.9004   -1.5526   -0.0384 H   0  0  0  0  0  0  0  0  0  0  0  0
    6.0995   -3.0446   -1.8177 H   0  0  0  0  0  0  0  0  0  0  0  0
    3.7018   -3.0528   -2.4432 H   0  0  0  0  0  0  0  0  0  0  0  0
    2.1262   -1.6001   -1.3148 H   0  0  0  0  0  0  0  0  0  0  0  0
   -1.0973   -1.4901    0.7153 H   0  0  0  0  0  0  0  0  0  0  0  0
   -2.4909   -3.1117    0.4346 H   0  0  0  0  0  0  0  0  0  0  0  0
   -4.1713   -4.8434    0.0468 H   0  0  0  0  0  0  0  0  0  0  0  0
   -6.3987   -4.2616   -0.8699 H   0  0  0  0  0  0  0  0  0  0  0  0
   -6.9431   -1.9004   -1.4038 H   0  0  0  0  0  0  0  0  0  0  0  0
   -5.2818   -0.1256   -1.0308 H   0  0  0  0  0  0  0  0  0  0  0  0
    0.0137    3.7175    0.2580 H   0  0  0  0  0  0  0  0  0  0  0  0
   -0.6267    6.1885   -0.3370 H   0  0  0  0  0  0  0  0  0  0  0  0
   -3.1254    6.3608   -1.1654 H   0  0  0  0  0  0  0  0  0  0  0  0
  1  2  2  0
  2  3  1  0
  3  4  1  0
  4  5  2  0
  5  6  1  0
  6  7  2  0
  7  8  1  0
  8  9  2  0
  9 10  1  0
 10 11  2  0
 11 12  1  0
 12 13  2  0
  2 14  1  0
 14 15  2  0
 15 16  1  0
 16 17  1  0
 17 18  2  0
 18 19  1  0
 19 20  2  0
 20 21  1  0
 21 22  2  0
 16 23  1  0
 23 24  2  0
 24 25  1  0
 25 26  2  0
 26 27  1  0
 27 28  2  0
 28 29  1  0
 13  4  1  0
 24 14  1  0
 29 25  1  0
 13  8  1  0
 22 17  1  0
  3 30  1  0
  5 31  1  0
  6 32  1  0
  7 33  1  0
  9 34  1  0
 10 35  1  0
 11 36  1  0
 12 37  1  0
 15 38  1  0
 18 39  1  0
 19 40  1  0
 20 41  1  0
 21 42  1  0
 22 43  1  0
 26 44  1  0
 27 45  1  0
 28 46  1  0
M  END
$$$$
