
     RDKit          3D

 56 60  0  0  0  0  0  0  0  0999 V2000
    4.4334    1.5911    2.3432 C   0  0  0  0  0  0  0  0  0  0  0  0
    4.5025    0.4617    1.3845 C   0  0  0  0  0  0  0  0  0  0  0  0
    4.1250    0.6350    0.1109 N   0  0  0  0  0  0  0  0  0  0  0  0
    4.3086   -0.5779   -0.4604 N   0  0  0  0  0  0  0  0  0  0  0  0
    3.9901   -0.7409   -1.8768 C   0  0  0  0  0  0  0  0  0  0  0  0
    2.6815   -1.4647   -2.0967 C   0  0  0  0  0  0  0  0  0  0  0  0
    2.6229   -2.5655   -2.9645 C   0  0  0  0  0  0  0  0  0  0  0  0
    1.4183   -3.2362   -3.1802 C   0  0  0  0  0  0  0  0  0  0  0  0
    0.2545   -2.8051   -2.5440 C   0  0  0  0  0  0  0  0  0  0  0  0
    0.2839   -1.6920   -1.6963 C   0  0  0  0  0  0  0  0  0  0  0  0
   -0.9868   -1.2696   -1.0386 C   0  0  0  0  0  0  0  0  0  0  0  0
   -1.8791   -2.0920   -0.8697 O   0  0  0  0  0  0  0  0  0  0  0  0
   -1.0786    0.0624   -0.6886 N   0  0  0  0  0  0  0  0  0  0  0  0
   -2.2629    0.6851   -0.0864 C   0  0  0  0  0  0  0  0  0  0  0  0
   -2.6390    0.0272    1.2656 C   0  0  0  0  0  0  0  0  0  0  0  0
   -3.8519    0.7360    1.8944 C   0  0  0  0  0  0  0  0  0  0  0  0
   -3.5049    2.2117    2.1448 C   0  0  0  0  0  0  0  0  0  0  0  0
   -3.1456    2.8976    0.8179 C   0  0  0  0  0  0  0  0  0  0  0  0
   -4.3422    2.8084   -0.1422 C   0  0  0  0  0  0  0  0  0  0  0  0
   -4.6951    1.3360   -0.4060 C   0  0  0  0  0  0  0  0  0  0  0  0
   -5.0446    0.6518    0.9266 C   0  0  0  0  0  0  0  0  0  0  0  0
   -3.4836    0.6275   -1.0375 C   0  0  0  0  0  0  0  0  0  0  0  0
   -1.9408    2.1794    0.1896 C   0  0  0  0  0  0  0  0  0  0  0  0
    1.4987   -1.0300   -1.4706 C   0  0  0  0  0  0  0  0  0  0  0  0
    4.8060   -1.5225    0.4076 C   0  0  0  0  0  0  0  0  0  0  0  0
    5.0841   -2.9271    0.0201 C   0  0  0  0  0  0  0  0  0  0  0  0
    4.9304   -0.8618    1.6074 C   0  0  0  0  0  0  0  0  0  0  0  0
    5.5370   -1.5426    3.2435 Br  0  0  0  0  0  0  0  0  0  0  0  0
    3.7762    1.3422    3.1825 H   0  0  0  0  0  0  0  0  0  0  0  0
    5.4286    1.8210    2.7366 H   0  0  0  0  0  0  0  0  0  0  0  0
    4.0425    2.4976    1.8690 H   0  0  0  0  0  0  0  0  0  0  0  0
    3.9440    0.2544   -2.3343 H   0  0  0  0  0  0  0  0  0  0  0  0
    4.8319   -1.2736   -2.3325 H   0  0  0  0  0  0  0  0  0  0  0  0
    3.5174   -2.9180   -3.4747 H   0  0  0  0  0  0  0  0  0  0  0  0
    1.3836   -4.0974   -3.8435 H   0  0  0  0  0  0  0  0  0  0  0  0
   -0.6803   -3.3371   -2.7127 H   0  0  0  0  0  0  0  0  0  0  0  0
   -0.3788    0.6909   -1.0585 H   0  0  0  0  0  0  0  0  0  0  0  0
   -1.7847    0.0656    1.9542 H   0  0  0  0  0  0  0  0  0  0  0  0
   -2.8793   -1.0341    1.1348 H   0  0  0  0  0  0  0  0  0  0  0  0
   -4.1107    0.2520    2.8428 H   0  0  0  0  0  0  0  0  0  0  0  0
   -2.6641    2.2856    2.8454 H   0  0  0  0  0  0  0  0  0  0  0  0
   -4.3552    2.7227    2.6129 H   0  0  0  0  0  0  0  0  0  0  0  0
   -2.8959    3.9487    1.0008 H   0  0  0  0  0  0  0  0  0  0  0  0
   -5.2066    3.3299    0.2869 H   0  0  0  0  0  0  0  0  0  0  0  0
   -4.1036    3.3119   -1.0871 H   0  0  0  0  0  0  0  0  0  0  0  0
   -5.5518    1.2782   -1.0868 H   0  0  0  0  0  0  0  0  0  0  0  0
   -5.3111   -0.3977    0.7505 H   0  0  0  0  0  0  0  0  0  0  0  0
   -5.9233    1.1324    1.3741 H   0  0  0  0  0  0  0  0  0  0  0  0
   -3.2356    1.0969   -1.9985 H   0  0  0  0  0  0  0  0  0  0  0  0
   -3.7541   -0.4106   -1.2644 H   0  0  0  0  0  0  0  0  0  0  0  0
   -1.6583    2.6834   -0.7445 H   0  0  0  0  0  0  0  0  0  0  0  0
   -1.0714    2.2609    0.8559 H   0  0  0  0  0  0  0  0  0  0  0  0
    1.5449   -0.1898   -0.7801 H   0  0  0  0  0  0  0  0  0  0  0  0
    4.1495   -3.4673   -0.1602 H   0  0  0  0  0  0  0  0  0  0  0  0
    5.6302   -3.4598    0.8044 H   0  0  0  0  0  0  0  0  0  0  0  0
    5.6942   -2.9718   -0.8875 H   0  0  0  0  0  0  0  0  0  0  0  0
  1  2  1  0
  2  3  2  0
  3  4  1  0
  4  5  1  0
  5  6  1  0
  6  7  2  0
  7  8  1  0
  8  9  2  0
  9 10  1  0
 10 11  1  0
 11 12  2  0
 11 13  1  0
 13 14  1  0
 14 15  1  0
 15 16  1  0
 16 17  1  0
 17 18  1  0
 18 19  1  0
 19 20  1  0
 20 21  1  0
 20 22  1  0
 18 23  1  0
 10 24  2  0
  4 25  1  0
 25 26  1  0
 25 27  2  0
 27 28  1  0
 27  2  1  0
 24  6  1  0
 22 14  1  0
 23 14  1  0
 21 16  1  0
  1 29  1  0
  1 30  1  0
  1 31  1  0
  5 32  1  0
  5 33  1  0
  7 34  1  0
  8 35  1  0
  9 36  1  0
 13 37  1  0
 15 38  1  0
 15 39  1  0
 16 40  1  0
 17 41  1  0
 17 42  1  0
 18 43  1  0
 19 44  1  0
 19 45  1  0
 20 46  1  0
 21 47  1  0
 21 48  1  0
 22 49  1  0
 22 50  1  0
 23 51  1  0
 23 52  1  0
 24 53  1  0
 26 54  1  0
 26 55  1  0
 26 56  1  0
M  END
$$$$
