
     RDKit          3D

 54 56  0  0  0  0  0  0  0  0999 V2000
   -2.7536   -4.0523    0.6823 C   0  0  0  0  0  0  0  0  0  0  0  0
   -3.3689   -2.6803    0.4849 C   0  0  0  0  0  0  0  0  0  0  0  0
   -2.3275   -1.7815    0.0929 O   0  0  0  0  0  0  0  0  0  0  0  0
   -2.7059   -0.4732   -0.0006 C   0  0  0  0  0  0  0  0  0  0  0  0
   -3.8463   -0.0768    0.2115 O   0  0  0  0  0  0  0  0  0  0  0  0
   -1.5901    0.4011   -0.3522 C   0  0  0  0  0  0  0  0  0  0  0  0
   -1.7334    1.4756   -1.2195 C   0  0  0  0  0  0  0  0  0  0  0  0
   -2.8072    1.9067   -1.9351 N   0  0  0  0  0  0  0  0  0  0  0  0
   -3.6762    2.5878   -1.2606 C   0  0  0  0  0  0  0  0  0  0  0  0
   -4.8360    3.1408   -1.7590 N   0  0  0  0  0  0  0  0  0  0  0  0
   -5.5733    4.1211   -0.9803 C   0  0  0  0  0  0  0  0  0  0  0  0
   -5.0643    3.1511   -3.1964 C   0  0  0  0  0  0  0  0  0  0  0  0
   -0.2422    2.2908   -1.4529 S   0  0  0  0  0  0  0  0  0  0  0  0
    0.6024    1.2650   -0.3796 C   0  0  0  0  0  0  0  0  0  0  0  0
    2.0042    1.5570   -0.1671 C   0  0  0  0  0  0  0  0  0  0  0  0
    2.7348    0.8777    0.6629 N   0  0  0  0  0  0  0  0  0  0  0  0
    4.0341    1.3012    0.7112 N   0  0  0  0  0  0  0  0  0  0  0  0
    5.0155    0.4085    0.1885 C   0  0  0  0  0  0  0  0  0  0  0  0
    6.3650    0.6267    0.5035 C   0  0  0  0  0  0  0  0  0  0  0  0
    7.3693   -0.1756   -0.0458 C   0  0  0  0  0  0  0  0  0  0  0  0
    7.0391   -1.1915   -0.9396 C   0  0  0  0  0  0  0  0  0  0  0  0
    5.7072   -1.3999   -1.2889 C   0  0  0  0  0  0  0  0  0  0  0  0
    4.7047   -0.5972   -0.7369 C   0  0  0  0  0  0  0  0  0  0  0  0
   -0.2271    0.2801    0.1330 C   0  0  0  0  0  0  0  0  0  0  0  0
    0.2472   -0.7159    1.0868 C   0  0  0  0  0  0  0  0  0  0  0  0
    0.9452   -1.8446    0.6385 C   0  0  0  0  0  0  0  0  0  0  0  0
    1.3761   -2.8087    1.5522 C   0  0  0  0  0  0  0  0  0  0  0  0
    1.1007   -2.6472    2.9093 C   0  0  0  0  0  0  0  0  0  0  0  0
    1.6246   -3.8392    4.0344 Cl  0  0  0  0  0  0  0  0  0  0  0  0
    0.3988   -1.5306    3.3629 C   0  0  0  0  0  0  0  0  0  0  0  0
   -0.0298   -0.5631    2.4513 C   0  0  0  0  0  0  0  0  0  0  0  0
   -2.2684   -4.3943   -0.2378 H   0  0  0  0  0  0  0  0  0  0  0  0
   -3.5127   -4.7827    0.9749 H   0  0  0  0  0  0  0  0  0  0  0  0
   -1.9797   -4.0192    1.4563 H   0  0  0  0  0  0  0  0  0  0  0  0
   -4.1294   -2.7231   -0.3022 H   0  0  0  0  0  0  0  0  0  0  0  0
   -3.8246   -2.3441    1.4232 H   0  0  0  0  0  0  0  0  0  0  0  0
   -3.5449    2.7931   -0.1797 H   0  0  0  0  0  0  0  0  0  0  0  0
   -5.5923    3.8487    0.0806 H   0  0  0  0  0  0  0  0  0  0  0  0
   -6.6134    4.1904   -1.3163 H   0  0  0  0  0  0  0  0  0  0  0  0
   -5.1098    5.1079   -1.0765 H   0  0  0  0  0  0  0  0  0  0  0  0
   -6.1013    3.4127   -3.4318 H   0  0  0  0  0  0  0  0  0  0  0  0
   -4.4069    3.8802   -3.6819 H   0  0  0  0  0  0  0  0  0  0  0  0
   -4.8765    2.1628   -3.6300 H   0  0  0  0  0  0  0  0  0  0  0  0
    2.4514    2.3903   -0.7420 H   0  0  0  0  0  0  0  0  0  0  0  0
    4.3283    1.5512    1.6594 H   0  0  0  0  0  0  0  0  0  0  0  0
    6.6462    1.4290    1.1807 H   0  0  0  0  0  0  0  0  0  0  0  0
    8.4090   -0.0001    0.2175 H   0  0  0  0  0  0  0  0  0  0  0  0
    7.8192   -1.8127   -1.3717 H   0  0  0  0  0  0  0  0  0  0  0  0
    5.4454   -2.1819   -1.9969 H   0  0  0  0  0  0  0  0  0  0  0  0
    3.6740   -0.7701   -1.0313 H   0  0  0  0  0  0  0  0  0  0  0  0
    1.1601   -1.9760   -0.4190 H   0  0  0  0  0  0  0  0  0  0  0  0
    1.9257   -3.6768    1.1999 H   0  0  0  0  0  0  0  0  0  0  0  0
    0.1860   -1.4065    4.4211 H   0  0  0  0  0  0  0  0  0  0  0  0
   -0.5724    0.3075    2.8117 H   0  0  0  0  0  0  0  0  0  0  0  0
  1  2  1  0
  2  3  1  0
  3  4  1  0
  4  5  2  0
  4  6  1  0
  6  7  2  0
  7  8  1  0
  8  9  2  3
  9 10  1  0
 10 11  1  0
 10 12  1  0
  7 13  1  0
 13 14  1  0
 14 15  1  0
 15 16  2  3
 16 17  1  0
 17 18  1  0
 18 19  2  0
 19 20  1  0
 20 21  2  0
 21 22  1  0
 22 23  2  0
 14 24  2  0
 24 25  1  0
 25 26  2  0
 26 27  1  0
 27 28  2  0
 28 29  1  0
 28 30  1  0
 30 31  2  0
 24  6  1  0
 31 25  1  0
 23 18  1  0
  1 32  1  0
  1 33  1  0
  1 34  1  0
  2 35  1  0
  2 36  1  0
  9 37  1  0
 11 38  1  0
 11 39  1  0
 11 40  1  0
 12 41  1  0
 12 42  1  0
 12 43  1  0
 15 44  1  0
 17 45  1  0
 19 46  1  0
 20 47  1  0
 21 48  1  0
 22 49  1  0
 23 50  1  0
 26 51  1  0
 27 52  1  0
 30 53  1  0
 31 54  1  0
M  END
$$$$
