
     RDKit          3D

 52 54  0  0  0  0  0  0  0  0999 V2000
   -3.9923   -1.4987   -2.9841 C   0  0  0  0  0  0  0  0  0  0  0  0
   -3.2015   -2.3813   -2.0312 C   0  0  0  0  0  0  0  0  0  0  0  0
   -3.9650   -2.7401   -0.7547 C   0  0  0  0  0  0  0  0  0  0  0  0
   -4.4106   -1.5544    0.1110 C   0  0  0  0  0  0  0  0  0  0  0  0
   -3.3013   -0.5663    0.5582 C   0  0  0  0  0  0  0  0  0  0  0  0
   -3.9733    0.5931    1.3339 C   0  0  0  0  0  0  0  0  0  0  0  0
   -3.2063    1.9075    1.2787 C   0  0  0  0  0  0  0  0  0  0  0  0
   -2.2267   -1.3097    1.3923 C   0  0  0  0  0  0  0  0  0  0  0  0
   -1.0707   -0.4980    1.7769 N   0  0  0  0  0  0  0  0  0  0  0  0
   -0.1659   -0.1316    0.7934 C   0  0  0  0  0  0  0  0  0  0  0  0
   -0.2385   -0.4193   -0.3938 O   0  0  0  0  0  0  0  0  0  0  0  0
    0.9504    0.6585    1.3781 C   0  0  0  0  0  0  0  0  0  0  0  0
    1.9373    1.1366    0.6061 C   0  0  0  0  0  0  0  0  0  0  0  0
    3.0877    1.8972    0.9814 C   0  0  0  0  0  0  0  0  0  0  0  0
    3.1398    2.8936    1.9284 C   0  0  0  0  0  0  0  0  0  0  0  0
    4.4128    3.3750    1.8968 N   0  0  0  0  0  0  0  0  0  0  0  0
    5.1881    2.7893    0.9760 N   0  0  0  0  0  0  0  0  0  0  0  0
    4.3996    1.8603    0.4070 C   0  0  0  0  0  0  0  0  0  0  0  0
    4.9211    0.9944   -0.6529 C   0  0  0  0  0  0  0  0  0  0  0  0
    4.6303   -0.3766   -0.6779 C   0  0  0  0  0  0  0  0  0  0  0  0
    5.1283   -1.1882   -1.7008 C   0  0  0  0  0  0  0  0  0  0  0  0
    5.9270   -0.6389   -2.7025 C   0  0  0  0  0  0  0  0  0  0  0  0
    6.2351    0.7200   -2.6801 C   0  0  0  0  0  0  0  0  0  0  0  0
    5.7374    1.5319   -1.6584 C   0  0  0  0  0  0  0  0  0  0  0  0
    0.7585    0.7697    3.0787 S   0  0  0  0  0  0  0  0  0  0  0  0
   -0.7416   -0.1502    3.0715 C   0  0  0  0  0  0  0  0  0  0  0  0
   -1.5653   -0.4898    4.4821 S   0  0  0  0  0  0  0  0  0  0  0  0
   -4.1791   -0.5102   -2.5545 H   0  0  0  0  0  0  0  0  0  0  0  0
   -3.4332   -1.3553   -3.9144 H   0  0  0  0  0  0  0  0  0  0  0  0
   -4.9550   -1.9552   -3.2348 H   0  0  0  0  0  0  0  0  0  0  0  0
   -2.2516   -1.8956   -1.7855 H   0  0  0  0  0  0  0  0  0  0  0  0
   -2.9453   -3.3122   -2.5516 H   0  0  0  0  0  0  0  0  0  0  0  0
   -4.8598   -3.3130   -1.0308 H   0  0  0  0  0  0  0  0  0  0  0  0
   -3.3520   -3.4242   -0.1569 H   0  0  0  0  0  0  0  0  0  0  0  0
   -5.1815   -1.0013   -0.4406 H   0  0  0  0  0  0  0  0  0  0  0  0
   -4.9118   -1.9549    1.0024 H   0  0  0  0  0  0  0  0  0  0  0  0
   -2.8405   -0.1452   -0.3424 H   0  0  0  0  0  0  0  0  0  0  0  0
   -4.1476    0.3065    2.3771 H   0  0  0  0  0  0  0  0  0  0  0  0
   -4.9627    0.7940    0.9034 H   0  0  0  0  0  0  0  0  0  0  0  0
   -3.0001    2.1985    0.2438 H   0  0  0  0  0  0  0  0  0  0  0  0
   -3.8021    2.7039    1.7372 H   0  0  0  0  0  0  0  0  0  0  0  0
   -2.2605    1.8620    1.8186 H   0  0  0  0  0  0  0  0  0  0  0  0
   -2.6946   -1.7615    2.2718 H   0  0  0  0  0  0  0  0  0  0  0  0
   -1.8195   -2.1389    0.8025 H   0  0  0  0  0  0  0  0  0  0  0  0
    1.8820    0.9036   -0.4590 H   0  0  0  0  0  0  0  0  0  0  0  0
    2.4052    3.3132    2.6001 H   0  0  0  0  0  0  0  0  0  0  0  0
    4.8168    4.1142    2.4623 H   0  0  0  0  0  0  0  0  0  0  0  0
    4.0298   -0.8308    0.1058 H   0  0  0  0  0  0  0  0  0  0  0  0
    4.8981   -2.2504   -1.7114 H   0  0  0  0  0  0  0  0  0  0  0  0
    6.3163   -1.2713   -3.4961 H   0  0  0  0  0  0  0  0  0  0  0  0
    6.8655    1.1495   -3.4542 H   0  0  0  0  0  0  0  0  0  0  0  0
    5.9889    2.5906   -1.6461 H   0  0  0  0  0  0  0  0  0  0  0  0
  1  2  1  0
  2  3  1  0
  3  4  1  0
  4  5  1  0
  5  6  1  0
  6  7  1  0
  5  8  1  0
  8  9  1  0
  9 10  1  0
 10 11  2  0
 10 12  1  0
 12 13  2  3
 13 14  1  0
 14 15  2  0
 15 16  1  0
 16 17  1  0
 17 18  2  0
 18 19  1  0
 19 20  2  0
 20 21  1  0
 21 22  2  0
 22 23  1  0
 23 24  2  0
 12 25  1  0
 25 26  1  0
 26 27  2  0
 26  9  1  0
 18 14  1  0
 24 19  1  0
  1 28  1  0
  1 29  1  0
  1 30  1  0
  2 31  1  0
  2 32  1  0
  3 33  1  0
  3 34  1  0
  4 35  1  0
  4 36  1  0
  5 37  1  0
  6 38  1  0
  6 39  1  0
  7 40  1  0
  7 41  1  0
  7 42  1  0
  8 43  1  0
  8 44  1  0
 13 45  1  0
 15 46  1  0
 16 47  1  0
 20 48  1  0
 21 49  1  0
 22 50  1  0
 23 51  1  0
 24 52  1  0
M  END
$$$$
