
     RDKit          3D

 71 75  0  0  0  0  0  0  0  0999 V2000
   -2.2809    4.7272    5.2603 C   0  0  0  0  0  0  0  0  0  0  0  0
   -2.9081    4.4597    4.0131 O   0  0  0  0  0  0  0  0  0  0  0  0
   -2.4815    3.3526    3.3332 C   0  0  0  0  0  0  0  0  0  0  0  0
   -1.4696    2.4825    3.7318 C   0  0  0  0  0  0  0  0  0  0  0  0
   -1.1305    1.3846    2.9318 C   0  0  0  0  0  0  0  0  0  0  0  0
   -1.7970    1.1308    1.7201 C   0  0  0  0  0  0  0  0  0  0  0  0
   -1.3764   -0.0808    0.8822 C   0  0  0  0  0  0  0  0  0  0  0  0
   -2.4852   -0.6449   -0.0480 C   0  0  0  0  0  0  0  0  0  0  0  0
   -2.1139   -2.0220   -0.6289 C   0  0  0  0  0  0  0  0  0  0  0  0
   -3.1086   -2.6753   -1.4899 N   0  0  0  0  0  0  0  0  0  0  0  0
   -3.3991   -1.9245   -2.7247 C   0  0  0  0  0  0  0  0  0  0  0  0
   -4.3780   -2.7053   -3.6178 C   0  0  0  0  0  0  0  0  0  0  0  0
   -5.6019   -2.9880   -2.9243 O   0  0  0  0  0  0  0  0  0  0  0  0
   -5.3296   -3.7486   -1.7379 C   0  0  0  0  0  0  0  0  0  0  0  0
   -4.3706   -2.9954   -0.7999 C   0  0  0  0  0  0  0  0  0  0  0  0
   -0.0437    0.1570    0.1633 C   0  0  0  0  0  0  0  0  0  0  0  0
    0.0907    1.0740   -0.8865 C   0  0  0  0  0  0  0  0  0  0  0  0
   -1.0151    1.7638   -1.3113 O   0  0  0  0  0  0  0  0  0  0  0  0
   -0.8108    3.1775   -1.3494 C   0  0  0  0  0  0  0  0  0  0  0  0
    1.3141    1.2308   -1.5487 C   0  0  0  0  0  0  0  0  0  0  0  0
    2.4534    0.5215   -1.1467 C   0  0  0  0  0  0  0  0  0  0  0  0
    3.6620    0.6440   -1.7801 O   0  0  0  0  0  0  0  0  0  0  0  0
    3.8496    1.7257   -2.6810 C   0  0  0  0  0  0  0  0  0  0  0  0
    2.3707   -0.3857   -0.0705 C   0  0  0  0  0  0  0  0  0  0  0  0
    3.5148   -1.1828    0.4417 C   0  0  0  0  0  0  0  0  0  0  0  0
    4.9122   -1.1623   -0.0407 C   0  0  0  0  0  0  0  0  0  0  0  0
    5.8203   -0.2209    0.4629 C   0  0  0  0  0  0  0  0  0  0  0  0
    7.1473   -0.2217    0.0293 C   0  0  0  0  0  0  0  0  0  0  0  0
    7.5755   -1.1644   -0.9050 C   0  0  0  0  0  0  0  0  0  0  0  0
    6.6784   -2.1056   -1.4097 C   0  0  0  0  0  0  0  0  0  0  0  0
    5.3503   -2.1062   -0.9797 C   0  0  0  0  0  0  0  0  0  0  0  0
    3.3129   -2.0231    1.4698 C   0  0  0  0  0  0  0  0  0  0  0  0
    2.0185   -2.2036    2.1245 C   0  0  0  0  0  0  0  0  0  0  0  0
    1.8850   -2.9774    3.0646 O   0  0  0  0  0  0  0  0  0  0  0  0
    0.9729   -1.4538    1.6290 O   0  0  0  0  0  0  0  0  0  0  0  0
    1.1191   -0.5450    0.5517 C   0  0  0  0  0  0  0  0  0  0  0  0
   -2.8136    2.0132    1.3328 C   0  0  0  0  0  0  0  0  0  0  0  0
   -3.1480    3.1115    2.1313 C   0  0  0  0  0  0  0  0  0  0  0  0
   -1.2128    4.9290    5.1295 H   0  0  0  0  0  0  0  0  0  0  0  0
   -2.7400    5.6278    5.6790 H   0  0  0  0  0  0  0  0  0  0  0  0
   -2.4457    3.9096    5.9693 H   0  0  0  0  0  0  0  0  0  0  0  0
   -0.9217    2.6253    4.6570 H   0  0  0  0  0  0  0  0  0  0  0  0
   -0.3356    0.7196    3.2667 H   0  0  0  0  0  0  0  0  0  0  0  0
   -1.2422   -0.8773    1.6269 H   0  0  0  0  0  0  0  0  0  0  0  0
   -3.4065   -0.7407    0.5396 H   0  0  0  0  0  0  0  0  0  0  0  0
   -2.7059    0.0514   -0.8615 H   0  0  0  0  0  0  0  0  0  0  0  0
   -1.8788   -2.7051    0.1980 H   0  0  0  0  0  0  0  0  0  0  0  0
   -1.1847   -1.9390   -1.2054 H   0  0  0  0  0  0  0  0  0  0  0  0
   -2.4753   -1.7451   -3.2865 H   0  0  0  0  0  0  0  0  0  0  0  0
   -3.8496   -0.9532   -2.4872 H   0  0  0  0  0  0  0  0  0  0  0  0
   -3.9348   -3.6461   -3.9656 H   0  0  0  0  0  0  0  0  0  0  0  0
   -4.6284   -2.1096   -4.5014 H   0  0  0  0  0  0  0  0  0  0  0  0
   -6.2844   -3.9212   -1.2309 H   0  0  0  0  0  0  0  0  0  0  0  0
   -4.9221   -4.7267   -2.0214 H   0  0  0  0  0  0  0  0  0  0  0  0
   -4.1729   -3.6192    0.0796 H   0  0  0  0  0  0  0  0  0  0  0  0
   -4.8690   -2.0777   -0.4642 H   0  0  0  0  0  0  0  0  0  0  0  0
   -0.2300    3.5352   -0.4898 H   0  0  0  0  0  0  0  0  0  0  0  0
   -1.7939    3.6562   -1.3164 H   0  0  0  0  0  0  0  0  0  0  0  0
   -0.3290    3.4695   -2.2885 H   0  0  0  0  0  0  0  0  0  0  0  0
    1.3519    1.8967   -2.4032 H   0  0  0  0  0  0  0  0  0  0  0  0
    3.2598    1.5824   -3.5916 H   0  0  0  0  0  0  0  0  0  0  0  0
    4.9054    1.7409   -2.9693 H   0  0  0  0  0  0  0  0  0  0  0  0
    3.6216    2.6853   -2.2055 H   0  0  0  0  0  0  0  0  0  0  0  0
    5.4953    0.5192    1.1899 H   0  0  0  0  0  0  0  0  0  0  0  0
    7.8471    0.5123    0.4202 H   0  0  0  0  0  0  0  0  0  0  0  0
    8.6091   -1.1655   -1.2412 H   0  0  0  0  0  0  0  0  0  0  0  0
    7.0133   -2.8388   -2.1390 H   0  0  0  0  0  0  0  0  0  0  0  0
    4.6579   -2.8419   -1.3828 H   0  0  0  0  0  0  0  0  0  0  0  0
    4.1103   -2.6284    1.8905 H   0  0  0  0  0  0  0  0  0  0  0  0
   -3.3550    1.8704    0.4011 H   0  0  0  0  0  0  0  0  0  0  0  0
   -3.9388    3.7856    1.8114 H   0  0  0  0  0  0  0  0  0  0  0  0
  1  2  1  0
  2  3  1  0
  3  4  2  0
  4  5  1  0
  5  6  2  0
  6  7  1  0
  7  8  1  0
  8  9  1  0
  9 10  1  0
 10 11  1  0
 11 12  1  0
 12 13  1  0
 13 14  1  0
 14 15  1  0
  7 16  1  0
 16 17  2  0
 17 18  1  0
 18 19  1  0
 17 20  1  0
 20 21  2  0
 21 22  1  0
 22 23  1  0
 21 24  1  0
 24 25  1  0
 25 26  1  0
 26 27  2  0
 27 28  1  0
 28 29  2  0
 29 30  1  0
 30 31  2  0
 25 32  2  0
 32 33  1  0
 33 34  2  0
 33 35  1  0
 35 36  1  0
  6 37  1  0
 37 38  2  0
 38  3  1  0
 15 10  1  0
 36 16  1  0
 36 24  2  0
 31 26  1  0
  1 39  1  0
  1 40  1  0
  1 41  1  0
  4 42  1  0
  5 43  1  0
  7 44  1  0
  8 45  1  0
  8 46  1  0
  9 47  1  0
  9 48  1  0
 11 49  1  0
 11 50  1  0
 12 51  1  0
 12 52  1  0
 14 53  1  0
 14 54  1  0
 15 55  1  0
 15 56  1  0
 19 57  1  0
 19 58  1  0
 19 59  1  0
 20 60  1  0
 23 61  1  0
 23 62  1  0
 23 63  1  0
 27 64  1  0
 28 65  1  0
 29 66  1  0
 30 67  1  0
 31 68  1  0
 32 69  1  0
 37 70  1  0
 38 71  1  0
M  END
$$$$
