
     RDKit          3D

 56 58  0  0  0  0  0  0  0  0999 V2000
   -8.9646   -1.1855    0.9140 C   0  0  0  0  0  0  0  0  0  0  0  0
   -8.3358   -0.0411    0.3556 O   0  0  0  0  0  0  0  0  0  0  0  0
   -6.9743    0.0691    0.4966 C   0  0  0  0  0  0  0  0  0  0  0  0
   -6.1671   -0.8752    1.1387 C   0  0  0  0  0  0  0  0  0  0  0  0
   -4.7872   -0.6799    1.2321 C   0  0  0  0  0  0  0  0  0  0  0  0
   -4.1928    0.4620    0.6870 C   0  0  0  0  0  0  0  0  0  0  0  0
   -2.6981    0.6495    0.7676 C   0  0  0  0  0  0  0  0  0  0  0  0
   -1.9741   -0.0893   -0.3608 C   0  0  0  0  0  0  0  0  0  0  0  0
   -0.5382    0.1126   -0.3173 N   0  0  0  0  0  0  0  0  0  0  0  0
    0.2534   -0.5783    0.5659 C   0  0  0  0  0  0  0  0  0  0  0  0
   -0.1696   -1.3977    1.3716 O   0  0  0  0  0  0  0  0  0  0  0  0
    1.6917   -0.1969    0.5442 C   0  0  0  0  0  0  0  0  0  0  0  0
    2.3480    0.0753   -0.5987 C   0  0  0  0  0  0  0  0  0  0  0  0
    3.8107    0.4133   -0.6611 C   0  0  0  0  0  0  0  0  0  0  0  0
    4.4883    0.0501    0.6091 N   0  0  0  0  0  0  0  0  0  0  0  0
    6.1497    0.4452    0.6554 S   0  0  0  0  0  6  0  0  0  0  0  0
    6.6935    0.0016    1.9202 O   0  0  0  0  0  0  0  0  0  0  0  0
    6.2755    1.8211    0.2221 O   0  0  0  0  0  0  0  0  0  0  0  0
    6.8360   -0.6063   -0.6019 C   0  0  0  0  0  0  0  0  0  0  0  0
    6.7550   -1.9950   -0.4387 C   0  0  0  0  0  0  0  0  0  0  0  0
    7.2847   -2.8308   -1.4217 C   0  0  0  0  0  0  0  0  0  0  0  0
    7.8889   -2.2726   -2.5451 C   0  0  0  0  0  0  0  0  0  0  0  0
    8.3951   -3.0774   -3.4881 F   0  0  0  0  0  0  0  0  0  0  0  0
    7.9779   -0.8920   -2.7058 C   0  0  0  0  0  0  0  0  0  0  0  0
    7.4500   -0.0475   -1.7284 C   0  0  0  0  0  0  0  0  0  0  0  0
    3.7341    0.5364    1.7989 C   0  0  0  0  0  0  0  0  0  0  0  0
    2.3895   -0.1881    1.8746 C   0  0  0  0  0  0  0  0  0  0  0  0
   -5.0000    1.4095    0.0402 C   0  0  0  0  0  0  0  0  0  0  0  0
   -6.3855    1.2245   -0.0554 C   0  0  0  0  0  0  0  0  0  0  0  0
   -7.2435    2.1011   -0.6737 O   0  0  0  0  0  0  0  0  0  0  0  0
   -6.7100    3.3344   -1.1318 C   0  0  0  0  0  0  0  0  0  0  0  0
   -8.8294   -1.2207    2.0002 H   0  0  0  0  0  0  0  0  0  0  0  0
   -8.6060   -2.1048    0.4394 H   0  0  0  0  0  0  0  0  0  0  0  0
  -10.0380   -1.1071    0.7159 H   0  0  0  0  0  0  0  0  0  0  0  0
   -6.5796   -1.7776    1.5769 H   0  0  0  0  0  0  0  0  0  0  0  0
   -4.1768   -1.4298    1.7335 H   0  0  0  0  0  0  0  0  0  0  0  0
   -2.4550    1.7193    0.7297 H   0  0  0  0  0  0  0  0  0  0  0  0
   -2.3424    0.3048    1.7468 H   0  0  0  0  0  0  0  0  0  0  0  0
   -2.1754   -1.1659   -0.3080 H   0  0  0  0  0  0  0  0  0  0  0  0
   -2.3167    0.2658   -1.3392 H   0  0  0  0  0  0  0  0  0  0  0  0
   -0.1468    0.8874   -0.8339 H   0  0  0  0  0  0  0  0  0  0  0  0
    1.8392    0.0223   -1.5575 H   0  0  0  0  0  0  0  0  0  0  0  0
    4.2502   -0.1600   -1.4833 H   0  0  0  0  0  0  0  0  0  0  0  0
    3.9173    1.4815   -0.8770 H   0  0  0  0  0  0  0  0  0  0  0  0
    6.2851   -2.4213    0.4455 H   0  0  0  0  0  0  0  0  0  0  0  0
    7.2336   -3.9105   -1.3194 H   0  0  0  0  0  0  0  0  0  0  0  0
    8.4611   -0.4856   -3.5894 H   0  0  0  0  0  0  0  0  0  0  0  0
    7.5247    1.0311   -1.8489 H   0  0  0  0  0  0  0  0  0  0  0  0
    4.2862    0.3303    2.7216 H   0  0  0  0  0  0  0  0  0  0  0  0
    3.5862    1.6211    1.7267 H   0  0  0  0  0  0  0  0  0  0  0  0
    2.5489   -1.2253    2.1953 H   0  0  0  0  0  0  0  0  0  0  0  0
    1.7666    0.3003    2.6330 H   0  0  0  0  0  0  0  0  0  0  0  0
   -4.5240    2.2860   -0.3865 H   0  0  0  0  0  0  0  0  0  0  0  0
   -5.9900    3.1753   -1.9411 H   0  0  0  0  0  0  0  0  0  0  0  0
   -6.2637    3.9044   -0.3101 H   0  0  0  0  0  0  0  0  0  0  0  0
   -7.5365    3.9270   -1.5358 H   0  0  0  0  0  0  0  0  0  0  0  0
  1  2  1  0
  2  3  1  0
  3  4  2  0
  4  5  1  0
  5  6  2  0
  6  7  1  0
  7  8  1  0
  8  9  1  0
  9 10  1  0
 10 11  2  0
 10 12  1  0
 12 13  2  0
 13 14  1  0
 14 15  1  0
 15 16  1  0
 16 17  2  0
 16 18  2  0
 16 19  1  0
 19 20  2  0
 20 21  1  0
 21 22  2  0
 22 23  1  0
 22 24  1  0
 24 25  2  0
 15 26  1  0
 26 27  1  0
  6 28  1  0
 28 29  2  0
 29 30  1  0
 30 31  1  0
 29  3  1  0
 27 12  1  0
 25 19  1  0
  1 32  1  0
  1 33  1  0
  1 34  1  0
  4 35  1  0
  5 36  1  0
  7 37  1  0
  7 38  1  0
  8 39  1  0
  8 40  1  0
  9 41  1  0
 13 42  1  0
 14 43  1  0
 14 44  1  0
 20 45  1  0
 21 46  1  0
 24 47  1  0
 25 48  1  0
 26 49  1  0
 26 50  1  0
 27 51  1  0
 27 52  1  0
 28 53  1  0
 31 54  1  0
 31 55  1  0
 31 56  1  0
M  END
$$$$
