
     RDKit          3D

 42 44  0  0  0  0  0  0  0  0999 V2000
   -1.8955   -5.3671   -1.3262 C   0  0  0  0  0  0  0  0  0  0  0  0
   -1.3025   -4.0213   -0.9464 C   0  0  0  0  0  0  0  0  0  0  0  0
   -2.6400   -2.8197   -0.6497 S   0  0  0  0  0  0  0  0  0  0  0  0
   -1.6899   -1.3659   -0.2201 C   0  0  0  0  0  0  0  0  0  0  0  0
   -2.3688   -0.2142    0.1160 C   0  0  0  0  0  0  0  0  0  0  0  0
   -1.6190    0.8969    0.4387 C   0  0  0  0  0  0  0  0  0  0  0  0
   -2.2067    2.0869    0.8003 N   0  0  0  0  0  0  0  0  0  0  0  0
   -3.5611    2.4749    0.4235 C   0  0  0  0  0  0  0  0  0  0  0  0
   -3.5231    4.0038    0.4067 C   0  0  0  0  0  0  0  0  0  0  0  0
   -2.3952    4.3449    1.3674 C   0  0  0  0  0  0  0  0  0  0  0  0
   -1.3725    3.2495    1.0824 C   0  0  0  0  0  0  0  0  0  0  0  0
   -0.2769    0.8285    0.4390 N   0  0  0  0  0  0  0  0  0  0  0  0
    0.3113   -0.3333    0.0986 C   0  0  0  0  0  0  0  0  0  0  0  0
    1.7885   -0.3833    0.0973 C   0  0  0  0  0  0  0  0  0  0  0  0
    2.4867   -1.5497   -0.2684 C   0  0  0  0  0  0  0  0  0  0  0  0
    3.8860   -1.5989   -0.2701 C   0  0  0  0  0  0  0  0  0  0  0  0
    4.6344   -0.4812    0.1059 C   0  0  0  0  0  0  0  0  0  0  0  0
    6.1330   -0.5206    0.0729 C   0  0  0  0  0  0  0  0  0  0  0  0
    3.9625    0.6915    0.4584 C   0  0  0  0  0  0  0  0  0  0  0  0
    2.5631    0.7351    0.4582 C   0  0  0  0  0  0  0  0  0  0  0  0
   -0.3536   -1.4473   -0.2412 N   0  0  0  0  0  0  0  0  0  0  0  0
   -2.4902   -5.3006   -2.2436 H   0  0  0  0  0  0  0  0  0  0  0  0
   -2.5293   -5.7675   -0.5275 H   0  0  0  0  0  0  0  0  0  0  0  0
   -1.0926   -6.0902   -1.5046 H   0  0  0  0  0  0  0  0  0  0  0  0
   -0.6595   -3.6645   -1.7574 H   0  0  0  0  0  0  0  0  0  0  0  0
   -0.6985   -4.1317   -0.0400 H   0  0  0  0  0  0  0  0  0  0  0  0
   -3.4494   -0.1959    0.1371 H   0  0  0  0  0  0  0  0  0  0  0  0
   -3.8594    2.0988   -0.5614 H   0  0  0  0  0  0  0  0  0  0  0  0
   -4.2714    2.1136    1.1752 H   0  0  0  0  0  0  0  0  0  0  0  0
   -4.4791    4.4488    0.6962 H   0  0  0  0  0  0  0  0  0  0  0  0
   -3.2732    4.3591   -0.6005 H   0  0  0  0  0  0  0  0  0  0  0  0
   -2.7502    4.2723    2.4025 H   0  0  0  0  0  0  0  0  0  0  0  0
   -1.9906    5.3484    1.2102 H   0  0  0  0  0  0  0  0  0  0  0  0
   -0.7153    3.0929    1.9443 H   0  0  0  0  0  0  0  0  0  0  0  0
   -0.7676    3.5171    0.2073 H   0  0  0  0  0  0  0  0  0  0  0  0
    1.9368   -2.4424   -0.5620 H   0  0  0  0  0  0  0  0  0  0  0  0
    4.3829   -2.5197   -0.5671 H   0  0  0  0  0  0  0  0  0  0  0  0
    6.5582    0.1514    0.8257 H   0  0  0  0  0  0  0  0  0  0  0  0
    6.4936   -0.2187   -0.9152 H   0  0  0  0  0  0  0  0  0  0  0  0
    6.5022   -1.5280    0.2920 H   0  0  0  0  0  0  0  0  0  0  0  0
    4.5195    1.5828    0.7382 H   0  0  0  0  0  0  0  0  0  0  0  0
    2.0727    1.6643    0.7452 H   0  0  0  0  0  0  0  0  0  0  0  0
  1  2  1  0
  2  3  1  0
  3  4  1  0
  4  5  2  0
  5  6  1  0
  6  7  1  0
  7  8  1  0
  8  9  1  0
  9 10  1  0
 10 11  1  0
  6 12  2  0
 12 13  1  0
 13 14  1  0
 14 15  2  0
 15 16  1  0
 16 17  2  0
 17 18  1  0
 17 19  1  0
 19 20  2  0
 13 21  2  0
 21  4  1  0
 11  7  1  0
 20 14  1  0
  1 22  1  0
  1 23  1  0
  1 24  1  0
  2 25  1  0
  2 26  1  0
  5 27  1  0
  8 28  1  0
  8 29  1  0
  9 30  1  0
  9 31  1  0
 10 32  1  0
 10 33  1  0
 11 34  1  0
 11 35  1  0
 15 36  1  0
 16 37  1  0
 18 38  1  0
 18 39  1  0
 18 40  1  0
 19 41  1  0
 20 42  1  0
M  END
$$$$
