
     RDKit          3D

 41 43  0  0  0  0  0  0  0  0999 V2000
   -2.9640    1.0017    1.2379 C   0  0  0  0  0  0  0  0  0  0  0  0
   -2.5262   -0.0122    0.2113 C   0  0  0  0  0  0  0  0  0  0  0  0
   -3.4058   -0.6521   -0.5910 C   0  0  0  0  0  0  0  0  0  0  0  0
   -4.8595   -0.4667   -0.5841 C   0  0  0  0  0  0  0  0  0  0  0  0
   -5.4483    0.5011   -1.4045 C   0  0  0  0  0  0  0  0  0  0  0  0
   -6.8329    0.6793   -1.3951 C   0  0  0  0  0  0  0  0  0  0  0  0
   -7.6324   -0.1080   -0.5670 C   0  0  0  0  0  0  0  0  0  0  0  0
   -7.0495   -1.0739    0.2529 C   0  0  0  0  0  0  0  0  0  0  0  0
   -5.6651   -1.2539    0.2452 C   0  0  0  0  0  0  0  0  0  0  0  0
   -1.1022   -0.3324    0.0517 C   0  0  0  0  0  0  0  0  0  0  0  0
    0.0035    0.1021    0.6777 C   0  0  0  0  0  0  0  0  0  0  0  0
    0.1849    1.2385    1.9600 S   0  0  0  0  0  0  0  0  0  0  0  0
    1.9377    1.0890    2.0070 C   0  0  0  0  0  0  0  0  0  0  0  0
    2.9006    1.8969    3.1033 S   0  0  0  0  0  0  0  0  0  0  0  0
    2.3216    0.1861    1.0400 N   0  0  0  0  0  0  0  0  0  0  0  0
    3.6657   -0.1039    0.7648 N   0  0  0  0  0  0  0  0  0  0  0  0
    4.2911    0.6670   -0.1964 C   0  0  0  0  0  0  0  0  0  0  0  0
    3.8341    1.7207   -0.6274 O   0  0  0  0  0  0  0  0  0  0  0  0
    5.5984    0.1690   -0.6863 C   0  0  0  0  0  0  0  0  0  0  0  0
    6.5775    1.1061   -1.0153 C   0  0  0  0  0  0  0  0  0  0  0  0
    7.7935    0.6369   -1.4731 C   0  0  0  0  0  0  0  0  0  0  0  0
    8.0780   -0.6744   -1.6258 N   0  0  0  0  0  0  0  0  0  0  0  0
    7.1020   -1.5572   -1.3257 C   0  0  0  0  0  0  0  0  0  0  0  0
    5.8530   -1.1920   -0.8560 C   0  0  0  0  0  0  0  0  0  0  0  0
    1.3437   -0.4297    0.2802 C   0  0  0  0  0  0  0  0  0  0  0  0
    1.5302   -1.3063   -0.5552 O   0  0  0  0  0  0  0  0  0  0  0  0
   -4.0458    1.1639    1.2540 H   0  0  0  0  0  0  0  0  0  0  0  0
   -2.5151    1.9787    1.0320 H   0  0  0  0  0  0  0  0  0  0  0  0
   -2.6919    0.6730    2.2459 H   0  0  0  0  0  0  0  0  0  0  0  0
   -3.0742   -1.3797   -1.3299 H   0  0  0  0  0  0  0  0  0  0  0  0
   -4.8331    1.1218   -2.0515 H   0  0  0  0  0  0  0  0  0  0  0  0
   -7.2871    1.4329   -2.0331 H   0  0  0  0  0  0  0  0  0  0  0  0
   -8.7104    0.0319   -0.5601 H   0  0  0  0  0  0  0  0  0  0  0  0
   -7.6729   -1.6865    0.8990 H   0  0  0  0  0  0  0  0  0  0  0  0
   -5.2199   -2.0077    0.8899 H   0  0  0  0  0  0  0  0  0  0  0  0
   -0.9243   -1.0693   -0.7380 H   0  0  0  0  0  0  0  0  0  0  0  0
    3.9874   -1.0278    1.0236 H   0  0  0  0  0  0  0  0  0  0  0  0
    6.3976    2.1717   -0.9153 H   0  0  0  0  0  0  0  0  0  0  0  0
    8.5951    1.3206   -1.7390 H   0  0  0  0  0  0  0  0  0  0  0  0
    7.3592   -2.6008   -1.4872 H   0  0  0  0  0  0  0  0  0  0  0  0
    5.1058   -1.9542   -0.6711 H   0  0  0  0  0  0  0  0  0  0  0  0
  1  2  1  0
  2  3  2  3
  3  4  1  0
  4  5  2  0
  5  6  1  0
  6  7  2  0
  7  8  1  0
  8  9  2  0
  2 10  1  0
 10 11  2  3
 11 12  1  0
 12 13  1  0
 13 14  2  0
 13 15  1  0
 15 16  1  0
 16 17  1  0
 17 18  2  0
 17 19  1  0
 19 20  2  0
 20 21  1  0
 21 22  2  0
 22 23  1  0
 23 24  2  0
 15 25  1  0
 25 26  2  0
  9  4  1  0
 25 11  1  0
 24 19  1  0
  1 27  1  0
  1 28  1  0
  1 29  1  0
  3 30  1  0
  5 31  1  0
  6 32  1  0
  7 33  1  0
  8 34  1  0
  9 35  1  0
 10 36  1  0
 16 37  1  0
 20 38  1  0
 21 39  1  0
 23 40  1  0
 24 41  1  0
M  END
$$$$
