
     RDKit          3D

 50 53  0  0  0  0  0  0  0  0999 V2000
    7.6237    0.4245   -0.6246 C   0  0  0  0  0  0  0  0  0  0  0  0
    6.8184    1.5628   -0.3472 O   0  0  0  0  0  0  0  0  0  0  0  0
    5.4983    1.3368   -0.0758 C   0  0  0  0  0  0  0  0  0  0  0  0
    4.8658    0.0956   -0.0412 C   0  0  0  0  0  0  0  0  0  0  0  0
    3.4952   -0.0012    0.2508 C   0  0  0  0  0  0  0  0  0  0  0  0
    2.7363    1.1454    0.5053 C   0  0  0  0  0  0  0  0  0  0  0  0
    1.3384    1.1051    0.8067 N   0  0  0  0  0  0  0  0  0  0  0  0
    0.7380    2.2354    1.2853 N   0  0  0  0  0  0  0  0  0  0  0  0
   -0.5101    1.8837    1.5785 C   0  0  0  0  0  0  0  0  0  0  0  0
   -0.7839    0.5595    1.2245 C   0  0  0  0  0  0  0  0  0  0  0  0
    0.4051    0.0783    0.7040 C   0  0  0  0  0  0  0  0  0  0  0  0
    0.5894   -1.2965    0.1509 C   0  0  0  0  0  0  0  0  0  0  0  0
   -0.7781   -1.9909   -0.1371 C   0  0  0  0  0  0  0  0  0  0  0  0
   -1.3261   -1.5302   -1.5029 C   0  0  0  0  0  0  0  0  0  0  0  0
   -0.5489   -3.5143   -0.2194 C   0  0  0  0  0  0  0  0  0  0  0  0
   -1.7989   -1.7109    1.0118 C   0  0  0  0  0  0  0  0  0  0  0  0
   -2.0515   -0.2146    1.3195 C   0  0  0  0  0  0  0  0  0  0  0  0
   -3.0019    0.3854    0.4057 N   0  0  0  0  0  0  0  0  0  0  0  0
   -4.3519    0.1489    0.5179 C   0  0  0  0  0  0  0  0  0  0  0  0
   -4.8294   -0.5341    1.4186 O   0  0  0  0  0  0  0  0  0  0  0  0
   -5.1781    0.7553   -0.5122 C   0  0  0  0  0  0  0  0  0  0  0  0
   -4.8523    1.6012   -1.5978 C   0  0  0  0  0  0  0  0  0  0  0  0
   -5.9151    1.9448   -2.3306 N   0  0  0  0  0  0  0  0  0  0  0  0
   -6.9354    1.3283   -1.7138 N   0  0  0  0  0  0  0  0  0  0  0  0
   -6.5482    0.6064   -0.6260 C   0  0  0  0  0  0  0  0  0  0  0  0
    3.3867    2.3908    0.4867 C   0  0  0  0  0  0  0  0  0  0  0  0
    4.7512    2.4817    0.1935 C   0  0  0  0  0  0  0  0  0  0  0  0
    7.2721   -0.0994   -1.5196 H   0  0  0  0  0  0  0  0  0  0  0  0
    7.6653   -0.2491    0.2377 H   0  0  0  0  0  0  0  0  0  0  0  0
    8.6413    0.7749   -0.8225 H   0  0  0  0  0  0  0  0  0  0  0  0
    5.4107   -0.8244   -0.2274 H   0  0  0  0  0  0  0  0  0  0  0  0
    3.0817   -0.9989    0.3025 H   0  0  0  0  0  0  0  0  0  0  0  0
   -1.1740    2.6194    2.0156 H   0  0  0  0  0  0  0  0  0  0  0  0
    1.1398   -1.8871    0.8940 H   0  0  0  0  0  0  0  0  0  0  0  0
    1.1774   -1.2705   -0.7732 H   0  0  0  0  0  0  0  0  0  0  0  0
   -0.6885   -1.8871   -2.3204 H   0  0  0  0  0  0  0  0  0  0  0  0
   -2.3340   -1.9231   -1.6762 H   0  0  0  0  0  0  0  0  0  0  0  0
   -1.3660   -0.4413   -1.5914 H   0  0  0  0  0  0  0  0  0  0  0  0
    0.1823   -3.7634   -0.9967 H   0  0  0  0  0  0  0  0  0  0  0  0
   -0.1717   -3.9114    0.7297 H   0  0  0  0  0  0  0  0  0  0  0  0
   -1.4805   -4.0417   -0.4536 H   0  0  0  0  0  0  0  0  0  0  0  0
   -1.4003   -2.1697    1.9286 H   0  0  0  0  0  0  0  0  0  0  0  0
   -2.7462   -2.2242    0.8042 H   0  0  0  0  0  0  0  0  0  0  0  0
   -2.4623   -0.1314    2.3335 H   0  0  0  0  0  0  0  0  0  0  0  0
   -2.6414    0.8943   -0.3869 H   0  0  0  0  0  0  0  0  0  0  0  0
   -3.8862    1.9885   -1.8937 H   0  0  0  0  0  0  0  0  0  0  0  0
   -7.8705    1.4453   -2.0916 H   0  0  0  0  0  0  0  0  0  0  0  0
   -7.2599    0.0540   -0.0279 H   0  0  0  0  0  0  0  0  0  0  0  0
    2.8425    3.3120    0.6898 H   0  0  0  0  0  0  0  0  0  0  0  0
    5.2318    3.4570    0.1775 H   0  0  0  0  0  0  0  0  0  0  0  0
  1  2  1  0
  2  3  1  0
  3  4  2  0
  4  5  1  0
  5  6  2  0
  6  7  1  0
  7  8  1  0
  8  9  2  0
  9 10  1  0
 10 11  2  0
 11 12  1  0
 12 13  1  0
 13 14  1  0
 13 15  1  0
 13 16  1  0
 16 17  1  0
 17 18  1  0
 18 19  1  0
 19 20  2  0
 19 21  1  0
 21 22  1  0
 22 23  2  0
 23 24  1  0
 24 25  1  0
  6 26  1  0
 26 27  2  0
 27  3  1  0
 11  7  1  0
 25 21  2  0
 17 10  1  0
  1 28  1  0
  1 29  1  0
  1 30  1  0
  4 31  1  0
  5 32  1  0
  9 33  1  0
 12 34  1  0
 12 35  1  0
 14 36  1  0
 14 37  1  0
 14 38  1  0
 15 39  1  0
 15 40  1  0
 15 41  1  0
 16 42  1  0
 16 43  1  0
 17 44  1  0
 18 45  1  0
 22 46  1  0
 24 47  1  0
 25 48  1  0
 26 49  1  0
 27 50  1  0
M  END
$$$$
