
     RDKit          3D

 48 51  0  0  0  0  0  0  0  0999 V2000
    9.1467    0.6321   -0.4281 C   0  0  0  0  0  0  0  0  0  0  0  0
    8.2324   -0.3882   -0.0478 O   0  0  0  0  0  0  0  0  0  0  0  0
    6.9013   -0.1018   -0.1678 C   0  0  0  0  0  0  0  0  0  0  0  0
    6.0438   -1.1262    0.2296 C   0  0  0  0  0  0  0  0  0  0  0  0
    4.6559   -0.9633    0.1580 C   0  0  0  0  0  0  0  0  0  0  0  0
    4.0816    0.2271   -0.3198 C   0  0  0  0  0  0  0  0  0  0  0  0
    2.6139    0.3798   -0.3936 C   0  0  0  0  0  0  0  0  0  0  0  0
    1.9776    1.1364   -1.3725 C   0  0  0  0  0  0  0  0  0  0  0  0
    0.5850    1.2248   -1.3684 C   0  0  0  0  0  0  0  0  0  0  0  0
   -0.1647    0.5561   -0.3925 C   0  0  0  0  0  0  0  0  0  0  0  0
   -1.6176    0.6476   -0.4018 C   0  0  0  0  0  0  0  0  0  0  0  0
   -2.2816    1.6797   -0.9514 N   0  0  0  0  0  0  0  0  0  0  0  0
   -3.6222    1.3527   -0.7574 O   0  0  0  0  0  0  0  0  0  0  0  0
   -3.6486    0.1417   -0.1291 C   0  0  0  0  0  0  0  0  0  0  0  0
   -4.9457   -0.4393    0.2233 C   0  0  0  0  0  0  0  0  0  0  0  0
   -4.9383   -1.5489    1.0939 C   0  0  0  0  0  0  0  0  0  0  0  0
   -6.1219   -2.1685    1.4927 C   0  0  0  0  0  0  0  0  0  0  0  0
   -7.3380   -1.6901    1.0239 C   0  0  0  0  0  0  0  0  0  0  0  0
   -7.3715   -0.5966    0.1556 C   0  0  0  0  0  0  0  0  0  0  0  0
   -6.1868    0.0361   -0.2533 C   0  0  0  0  0  0  0  0  0  0  0  0
   -6.1622    1.0991   -1.1188 O   0  0  0  0  0  0  0  0  0  0  0  0
   -7.4012    1.6291   -1.5709 C   0  0  0  0  0  0  0  0  0  0  0  0
   -2.4423   -0.3301    0.1047 N   0  0  0  0  0  0  0  0  0  0  0  0
    0.5500   -0.1781    0.5518 C   0  0  0  0  0  0  0  0  0  0  0  0
   -0.1433   -0.8121    1.5635 O   0  0  0  0  0  0  0  0  0  0  0  0
    0.6823   -1.5545    2.4531 C   0  0  0  0  0  0  0  0  0  0  0  0
    1.9061   -0.2761    0.5587 N   0  0  0  0  0  0  0  0  0  0  0  0
    4.9635    1.2515   -0.7083 C   0  0  0  0  0  0  0  0  0  0  0  0
    6.3557    1.0909   -0.6356 C   0  0  0  0  0  0  0  0  0  0  0  0
    9.0266    1.5230    0.1971 H   0  0  0  0  0  0  0  0  0  0  0  0
   10.1596    0.2491   -0.2706 H   0  0  0  0  0  0  0  0  0  0  0  0
    9.0450    0.8773   -1.4905 H   0  0  0  0  0  0  0  0  0  0  0  0
    6.4550   -2.0614    0.6016 H   0  0  0  0  0  0  0  0  0  0  0  0
    4.0157   -1.7838    0.4787 H   0  0  0  0  0  0  0  0  0  0  0  0
    2.5405    1.6432   -2.1494 H   0  0  0  0  0  0  0  0  0  0  0  0
    0.0908    1.8124   -2.1398 H   0  0  0  0  0  0  0  0  0  0  0  0
   -3.9914   -1.9360    1.4712 H   0  0  0  0  0  0  0  0  0  0  0  0
   -6.0899   -3.0210    2.1663 H   0  0  0  0  0  0  0  0  0  0  0  0
   -8.2648   -2.1693    1.3300 H   0  0  0  0  0  0  0  0  0  0  0  0
   -8.3454   -0.2646   -0.1895 H   0  0  0  0  0  0  0  0  0  0  0  0
   -7.1819    2.4824   -2.2199 H   0  0  0  0  0  0  0  0  0  0  0  0
   -8.0044    1.9951   -0.7337 H   0  0  0  0  0  0  0  0  0  0  0  0
   -7.9509    0.8925   -2.1657 H   0  0  0  0  0  0  0  0  0  0  0  0
    1.2202   -2.3506    1.9266 H   0  0  0  0  0  0  0  0  0  0  0  0
    0.0311   -2.0285    3.1938 H   0  0  0  0  0  0  0  0  0  0  0  0
    1.3754   -0.8991    2.9919 H   0  0  0  0  0  0  0  0  0  0  0  0
    4.5787    2.2071   -1.0581 H   0  0  0  0  0  0  0  0  0  0  0  0
    6.9801    1.9214   -0.9476 H   0  0  0  0  0  0  0  0  0  0  0  0
  1  2  1  0
  2  3  1  0
  3  4  2  0
  4  5  1  0
  5  6  2  0
  6  7  1  0
  7  8  2  0
  8  9  1  0
  9 10  2  0
 10 11  1  0
 11 12  2  0
 12 13  1  0
 13 14  1  0
 14 15  1  0
 15 16  2  0
 16 17  1  0
 17 18  2  0
 18 19  1  0
 19 20  2  0
 20 21  1  0
 21 22  1  0
 14 23  2  0
 10 24  1  0
 24 25  1  0
 25 26  1  0
 24 27  2  0
  6 28  1  0
 28 29  2  0
 29  3  1  0
 27  7  1  0
 23 11  1  0
 20 15  1  0
  1 30  1  0
  1 31  1  0
  1 32  1  0
  4 33  1  0
  5 34  1  0
  8 35  1  0
  9 36  1  0
 16 37  1  0
 17 38  1  0
 18 39  1  0
 19 40  1  0
 22 41  1  0
 22 42  1  0
 22 43  1  0
 26 44  1  0
 26 45  1  0
 26 46  1  0
 28 47  1  0
 29 48  1  0
M  END
$$$$
