
     RDKit          3D

 32 34  0  0  0  0  0  0  0  0999 V2000
    6.5796   -0.7405   -1.1245 C   0  0  0  0  0  0  0  0  0  0  0  0
    5.3096   -0.9396   -1.7335 O   0  0  0  0  0  0  0  0  0  0  0  0
    4.2054   -0.6253   -0.9869 C   0  0  0  0  0  0  0  0  0  0  0  0
    4.2175   -0.1253    0.3131 C   0  0  0  0  0  0  0  0  0  0  0  0
    3.0168    0.1604    0.9785 C   0  0  0  0  0  0  0  0  0  0  0  0
    1.7844   -0.0578    0.3334 C   0  0  0  0  0  0  0  0  0  0  0  0
    0.5318    0.1804    0.8691 N   0  0  0  0  0  0  0  0  0  0  0  0
   -0.3831   -0.1397   -0.0041 C   0  0  0  0  0  0  0  0  0  0  0  0
   -1.7432   -0.0642    0.0934 N   0  0  0  0  0  0  0  0  0  0  0  0
   -2.3825    0.3180    1.2481 C   0  0  0  0  0  0  0  0  0  0  0  0
   -1.8520    0.5571    2.3255 O   0  0  0  0  0  0  0  0  0  0  0  0
   -3.8391    0.3670    1.1270 C   0  0  0  0  0  0  0  0  0  0  0  0
   -4.7714    0.1726    2.1928 C   0  0  0  0  0  0  0  0  0  0  0  0
   -6.0266    0.3011    1.6542 C   0  0  0  0  0  0  0  0  0  0  0  0
   -5.9421    0.5869    0.3329 O   0  0  0  0  0  0  0  0  0  0  0  0
   -4.6175    0.6533    0.0132 C   0  0  0  0  0  0  0  0  0  0  0  0
   -4.3357    1.0363   -1.3882 C   0  0  0  0  0  0  0  0  0  0  0  0
    0.1633   -0.7264   -1.5091 S   0  0  0  0  0  0  0  0  0  0  0  0
    1.7918   -0.5594   -0.9696 C   0  0  0  0  0  0  0  0  0  0  0  0
    2.9887   -0.8483   -1.6444 C   0  0  0  0  0  0  0  0  0  0  0  0
    6.7407    0.3156   -0.8841 H   0  0  0  0  0  0  0  0  0  0  0  0
    7.3464   -1.0382   -1.8462 H   0  0  0  0  0  0  0  0  0  0  0  0
    6.6949   -1.3713   -0.2369 H   0  0  0  0  0  0  0  0  0  0  0  0
    5.1435    0.0579    0.8487 H   0  0  0  0  0  0  0  0  0  0  0  0
    3.0241    0.5500    1.9923 H   0  0  0  0  0  0  0  0  0  0  0  0
   -2.2677   -0.3829   -0.7033 H   0  0  0  0  0  0  0  0  0  0  0  0
   -4.5352   -0.0433    3.2265 H   0  0  0  0  0  0  0  0  0  0  0  0
   -7.0273    0.2315    2.0575 H   0  0  0  0  0  0  0  0  0  0  0  0
   -3.4631    1.6939   -1.4463 H   0  0  0  0  0  0  0  0  0  0  0  0
   -5.1833    1.5719   -1.8279 H   0  0  0  0  0  0  0  0  0  0  0  0
   -4.1451    0.1464   -1.9955 H   0  0  0  0  0  0  0  0  0  0  0  0
    2.9763   -1.2380   -2.6580 H   0  0  0  0  0  0  0  0  0  0  0  0
  1  2  1  0
  2  3  1  0
  3  4  2  0
  4  5  1  0
  5  6  2  0
  6  7  1  0
  7  8  2  0
  8  9  1  0
  9 10  1  0
 10 11  2  0
 10 12  1  0
 12 13  1  0
 13 14  2  0
 14 15  1  0
 15 16  1  0
 16 17  1  0
  8 18  1  0
 18 19  1  0
 19 20  2  0
 20  3  1  0
 19  6  1  0
 16 12  2  0
  1 21  1  0
  1 22  1  0
  1 23  1  0
  4 24  1  0
  5 25  1  0
  9 26  1  0
 13 27  1  0
 14 28  1  0
 17 29  1  0
 17 30  1  0
 17 31  1  0
 20 32  1  0
M  END
$$$$
