
     RDKit          3D

 45 48  0  0  0  0  0  0  0  0999 V2000
   -0.1203   -2.6129    1.4326 C   0  0  0  0  0  0  0  0  0  0  0  0
   -0.5169   -2.3399    0.0870 O   0  0  0  0  0  0  0  0  0  0  0  0
   -1.8700   -2.1125    0.0237 C   0  0  0  0  0  0  0  0  0  0  0  0
   -2.6810   -3.2405   -0.1708 C   0  0  0  0  0  0  0  0  0  0  0  0
   -4.0628   -3.1046   -0.2580 C   0  0  0  0  0  0  0  0  0  0  0  0
   -4.6339   -1.8410   -0.1672 C   0  0  0  0  0  0  0  0  0  0  0  0
   -3.8197   -0.7148    0.0005 C   0  0  0  0  0  0  0  0  0  0  0  0
   -2.4124   -0.8130    0.0919 C   0  0  0  0  0  0  0  0  0  0  0  0
   -1.6013    0.4120    0.2526 C   0  0  0  0  0  0  0  0  0  0  0  0
   -2.2108    1.4802    0.8217 N   0  0  0  0  0  0  0  0  0  0  0  0
   -1.4660    2.6077    0.9462 C   0  0  0  0  0  0  0  0  0  0  0  0
   -2.1214    3.7831    1.5844 C   0  0  0  0  0  0  0  0  0  0  0  0
   -3.4076    3.5863    2.0096 N   0  0  0  0  0  0  0  0  0  0  0  0
   -1.5508    4.8582    1.7269 O   0  0  0  0  0  0  0  0  0  0  0  0
   -0.1729    2.6707    0.5224 C   0  0  0  0  0  0  0  0  0  0  0  0
    0.7746    3.6799    0.5473 N   0  0  0  0  0  0  0  0  0  0  0  0
    1.9649    3.1902   -0.0062 C   0  0  0  0  0  0  0  0  0  0  0  0
    2.9753    3.8669   -0.1040 O   0  0  0  0  0  0  0  0  0  0  0  0
    1.7116    1.8342   -0.3817 N   0  0  0  0  0  0  0  0  0  0  0  0
    2.6350    0.9191   -0.9641 C   0  0  0  0  0  0  0  0  0  0  0  0
    3.9665    1.3017   -1.2004 C   0  0  0  0  0  0  0  0  0  0  0  0
    4.9030    0.4204   -1.7558 C   0  0  0  0  0  0  0  0  0  0  0  0
    4.5324   -0.8753   -2.0938 C   0  0  0  0  0  0  0  0  0  0  0  0
    3.2187   -1.2910   -1.8893 C   0  0  0  0  0  0  0  0  0  0  0  0
    2.7933   -2.6924   -2.2181 C   0  0  0  0  0  0  0  0  0  0  0  0
    2.2894   -0.3942   -1.3261 C   0  0  0  0  0  0  0  0  0  0  0  0
    0.3647    1.5409   -0.0405 C   0  0  0  0  0  0  0  0  0  0  0  0
   -0.3261    0.4065   -0.1853 N   0  0  0  0  0  0  0  0  0  0  0  0
    0.9679   -2.7266    1.4443 H   0  0  0  0  0  0  0  0  0  0  0  0
   -0.5647   -3.5481    1.7902 H   0  0  0  0  0  0  0  0  0  0  0  0
   -0.3811   -1.7859    2.1032 H   0  0  0  0  0  0  0  0  0  0  0  0
   -2.2273   -4.2247   -0.2552 H   0  0  0  0  0  0  0  0  0  0  0  0
   -4.6890   -3.9801   -0.4041 H   0  0  0  0  0  0  0  0  0  0  0  0
   -5.7132   -1.7253   -0.2395 H   0  0  0  0  0  0  0  0  0  0  0  0
   -4.3009    0.2613    0.0458 H   0  0  0  0  0  0  0  0  0  0  0  0
   -3.8944    4.3365    2.4797 H   0  0  0  0  0  0  0  0  0  0  0  0
   -3.8485    2.6791    1.9124 H   0  0  0  0  0  0  0  0  0  0  0  0
    0.6402    4.6147    0.9157 H   0  0  0  0  0  0  0  0  0  0  0  0
    4.3271    2.2967   -0.9587 H   0  0  0  0  0  0  0  0  0  0  0  0
    5.9251    0.7546   -1.9192 H   0  0  0  0  0  0  0  0  0  0  0  0
    5.2691   -1.5502   -2.5203 H   0  0  0  0  0  0  0  0  0  0  0  0
    1.8195   -2.6902   -2.7199 H   0  0  0  0  0  0  0  0  0  0  0  0
    3.5069   -3.1763   -2.8934 H   0  0  0  0  0  0  0  0  0  0  0  0
    2.7222   -3.2857   -1.3010 H   0  0  0  0  0  0  0  0  0  0  0  0
    1.2855   -0.7753   -1.1847 H   0  0  0  0  0  0  0  0  0  0  0  0
  1  2  1  0
  2  3  1  0
  3  4  2  0
  4  5  1  0
  5  6  2  0
  6  7  1  0
  7  8  2  0
  8  9  1  0
  9 10  2  0
 10 11  1  0
 11 12  1  0
 12 13  1  0
 12 14  2  0
 11 15  2  0
 15 16  1  0
 16 17  1  0
 17 18  2  0
 17 19  1  0
 19 20  1  0
 20 21  2  0
 21 22  1  0
 22 23  2  0
 23 24  1  0
 24 25  1  0
 24 26  2  0
 19 27  1  0
 27 28  2  0
  8  3  1  0
 28  9  1  0
 27 15  1  0
 26 20  1  0
  1 29  1  0
  1 30  1  0
  1 31  1  0
  4 32  1  0
  5 33  1  0
  6 34  1  0
  7 35  1  0
 13 36  1  0
 13 37  1  0
 16 38  1  0
 21 39  1  0
 22 40  1  0
 23 41  1  0
 25 42  1  0
 25 43  1  0
 25 44  1  0
 26 45  1  0
M  END
$$$$
