
     RDKit          3D

 30 31  0  0  0  0  0  0  0  0999 V2000
    1.4366   -2.0641   -1.3127 C   0  0  0  0  0  0  0  0  0  0  0  0
    1.9514   -0.9031   -0.4840 C   0  0  0  0  0  0  0  0  0  0  0  0
    1.1713   -0.0437    0.1090 N   0  0  0  0  0  0  0  0  0  0  0  0
   -0.1821   -0.1224   -0.0387 N   0  0  0  0  0  0  0  0  0  0  0  0
   -0.9788    0.8094    0.6103 C   0  0  0  0  0  0  0  0  0  0  0  0
   -0.5684    1.7078    1.3435 O   0  0  0  0  0  0  0  0  0  0  0  0
   -2.4424    0.7331    0.3487 C   0  0  0  0  0  0  0  0  0  0  0  0
   -3.0600   -0.4672   -0.0300 C   0  0  0  0  0  0  0  0  0  0  0  0
   -4.4334   -0.4904   -0.2820 C   0  0  0  0  0  0  0  0  0  0  0  0
   -5.1821   -1.9662   -0.7550 Cl  0  0  0  0  0  0  0  0  0  0  0  0
   -5.2037    0.6639   -0.1534 C   0  0  0  0  0  0  0  0  0  0  0  0
   -4.5997    1.8549    0.2468 C   0  0  0  0  0  0  0  0  0  0  0  0
   -3.2305    1.8852    0.5064 C   0  0  0  0  0  0  0  0  0  0  0  0
   -2.7225    3.0893    0.9156 O   0  0  0  0  0  0  0  0  0  0  0  0
    3.3886   -0.6826   -0.3404 C   0  0  0  0  0  0  0  0  0  0  0  0
    4.0155    0.2153    0.5123 C   0  0  0  0  0  0  0  0  0  0  0  0
    5.4370    0.1946    0.3957 C   0  0  0  0  0  0  0  0  0  0  0  0
    5.8369   -0.7117   -0.5503 C   0  0  0  0  0  0  0  0  0  0  0  0
    7.6664   -1.0302   -1.0002 Br  0  0  0  0  0  0  0  0  0  0  0  0
    4.5480   -1.5208   -1.2888 S   0  0  0  0  0  0  0  0  0  0  0  0
    2.1452   -2.8945   -1.3423 H   0  0  0  0  0  0  0  0  0  0  0  0
    1.2430   -1.7176   -2.3319 H   0  0  0  0  0  0  0  0  0  0  0  0
    0.5119   -2.4652   -0.8889 H   0  0  0  0  0  0  0  0  0  0  0  0
   -0.5645   -0.6992   -0.7765 H   0  0  0  0  0  0  0  0  0  0  0  0
   -2.4991   -1.3934   -0.1046 H   0  0  0  0  0  0  0  0  0  0  0  0
   -6.2725    0.6422   -0.3504 H   0  0  0  0  0  0  0  0  0  0  0  0
   -5.1933    2.7582    0.3651 H   0  0  0  0  0  0  0  0  0  0  0  0
   -1.7979    2.9425    1.2236 H   0  0  0  0  0  0  0  0  0  0  0  0
    3.4685    0.8605    1.1927 H   0  0  0  0  0  0  0  0  0  0  0  0
    6.1104    0.8152    0.9739 H   0  0  0  0  0  0  0  0  0  0  0  0
  1  2  1  0
  2  3  2  3
  3  4  1  0
  4  5  1  0
  5  6  2  0
  5  7  1  0
  7  8  2  0
  8  9  1  0
  9 10  1  0
  9 11  2  0
 11 12  1  0
 12 13  2  0
 13 14  1  0
  2 15  1  0
 15 16  2  0
 16 17  1  0
 17 18  2  0
 18 19  1  0
 18 20  1  0
 13  7  1  0
 20 15  1  0
  1 21  1  0
  1 22  1  0
  1 23  1  0
  4 24  1  0
  8 25  1  0
 11 26  1  0
 12 27  1  0
 14 28  1  0
 16 29  1  0
 17 30  1  0
M  END
$$$$
