
     RDKit          3D

 44 47  0  0  0  0  0  0  0  0999 V2000
    5.7026   -1.0697    2.0074 C   0  0  0  0  0  0  0  0  0  0  0  0
    5.6088   -0.5936    0.5656 C   0  0  0  0  0  0  0  0  0  0  0  0
    4.1840   -0.4587    0.1192 C   0  0  0  0  0  0  0  0  0  0  0  0
    3.3560   -1.4324   -0.4045 C   0  0  0  0  0  0  0  0  0  0  0  0
    2.0598   -0.9225   -0.7097 C   0  0  0  0  0  0  0  0  0  0  0  0
    0.9117   -1.6079   -1.2598 C   0  0  0  0  0  0  0  0  0  0  0  0
    0.9682   -2.8001   -1.5489 O   0  0  0  0  0  0  0  0  0  0  0  0
   -0.2266   -0.8071   -1.4211 N   0  0  0  0  0  0  0  0  0  0  0  0
   -1.4146   -1.4881   -1.9480 C   0  0  0  0  0  0  0  0  0  0  0  0
   -2.3837   -1.9169   -0.8633 C   0  0  0  0  0  0  0  0  0  0  0  0
   -2.0128   -2.8665    0.1014 C   0  0  0  0  0  0  0  0  0  0  0  0
   -2.9113   -3.2612    1.0947 C   0  0  0  0  0  0  0  0  0  0  0  0
   -4.1934   -2.7191    1.1327 C   0  0  0  0  0  0  0  0  0  0  0  0
   -4.5811   -1.7871    0.1735 C   0  0  0  0  0  0  0  0  0  0  0  0
   -3.6843   -1.3912   -0.8208 C   0  0  0  0  0  0  0  0  0  0  0  0
   -0.1896    0.5516   -1.0922 C   0  0  0  0  0  0  0  0  0  0  0  0
   -1.6409    1.5074   -1.3578 S   0  0  0  0  0  0  0  0  0  0  0  0
   -1.0234    3.1950   -1.0587 C   0  0  0  0  0  0  0  0  0  0  0  0
   -0.9625    3.5629    0.4097 C   0  0  0  0  0  0  0  0  0  0  0  0
   -2.3291    4.1364    0.6795 C   0  0  0  0  0  0  0  0  0  0  0  0
   -2.7239    4.7580   -0.5415 O   0  0  0  0  0  0  0  0  0  0  0  0
   -2.0346    4.1886   -1.5774 C   0  0  0  0  0  0  0  0  0  0  0  0
   -2.2385    4.4555   -2.7524 O   0  0  0  0  0  0  0  0  0  0  0  0
    0.8402    1.1719   -0.6049 N   0  0  0  0  0  0  0  0  0  0  0  0
    1.9401    0.4112   -0.4198 C   0  0  0  0  0  0  0  0  0  0  0  0
    3.3807    1.0535    0.2248 S   0  0  0  0  0  0  0  0  0  0  0  0
    6.7509   -1.1631    2.3079 H   0  0  0  0  0  0  0  0  0  0  0  0
    5.2143   -0.3678    2.6916 H   0  0  0  0  0  0  0  0  0  0  0  0
    5.2256   -2.0475    2.1335 H   0  0  0  0  0  0  0  0  0  0  0  0
    6.1407    0.3593    0.4591 H   0  0  0  0  0  0  0  0  0  0  0  0
    6.1243   -1.3113   -0.0845 H   0  0  0  0  0  0  0  0  0  0  0  0
    3.6582   -2.4621   -0.5592 H   0  0  0  0  0  0  0  0  0  0  0  0
   -1.1269   -2.3821   -2.5149 H   0  0  0  0  0  0  0  0  0  0  0  0
   -1.9131   -0.8409   -2.6781 H   0  0  0  0  0  0  0  0  0  0  0  0
   -1.0240   -3.3200    0.0835 H   0  0  0  0  0  0  0  0  0  0  0  0
   -2.6106   -3.9973    1.8361 H   0  0  0  0  0  0  0  0  0  0  0  0
   -4.8925   -3.0292    1.9049 H   0  0  0  0  0  0  0  0  0  0  0  0
   -5.5845   -1.3691    0.1968 H   0  0  0  0  0  0  0  0  0  0  0  0
   -4.0139   -0.6660   -1.5624 H   0  0  0  0  0  0  0  0  0  0  0  0
   -0.0667    3.3741   -1.5594 H   0  0  0  0  0  0  0  0  0  0  0  0
   -0.6993    2.7504    1.0931 H   0  0  0  0  0  0  0  0  0  0  0  0
   -0.2135    4.3547    0.5426 H   0  0  0  0  0  0  0  0  0  0  0  0
   -3.0644    3.3667    0.9367 H   0  0  0  0  0  0  0  0  0  0  0  0
   -2.3063    4.8814    1.4801 H   0  0  0  0  0  0  0  0  0  0  0  0
  1  2  1  0
  2  3  1  0
  3  4  2  0
  4  5  1  0
  5  6  1  0
  6  7  2  0
  6  8  1  0
  8  9  1  0
  9 10  1  0
 10 11  2  0
 11 12  1  0
 12 13  2  0
 13 14  1  0
 14 15  2  0
  8 16  1  0
 16 17  1  0
 17 18  1  0
 18 19  1  0
 19 20  1  0
 20 21  1  0
 21 22  1  0
 22 23  2  0
 16 24  2  0
 24 25  1  0
 25 26  1  0
 26  3  1  0
 25  5  2  0
 15 10  1  0
 22 18  1  0
  1 27  1  0
  1 28  1  0
  1 29  1  0
  2 30  1  0
  2 31  1  0
  4 32  1  0
  9 33  1  0
  9 34  1  0
 11 35  1  0
 12 36  1  0
 13 37  1  0
 14 38  1  0
 15 39  1  0
 18 40  1  0
 19 41  1  0
 19 42  1  0
 20 43  1  0
 20 44  1  0
M  END
$$$$
