
     RDKit          3D

 64 67  0  0  0  0  0  0  0  0999 V2000
    0.6843    1.0604   -2.7279 C   0  0  0  0  0  0  0  0  0  0  0  0
   -0.2352    0.3151   -1.9258 O   0  0  0  0  0  0  0  0  0  0  0  0
   -0.8478    1.1038   -0.9850 C   0  0  0  0  0  0  0  0  0  0  0  0
   -1.6913    2.1434   -1.4063 C   0  0  0  0  0  0  0  0  0  0  0  0
   -2.3542    2.9489   -0.4765 C   0  0  0  0  0  0  0  0  0  0  0  0
   -3.1874    3.9886   -0.8057 O   0  0  0  0  0  0  0  0  0  0  0  0
   -3.3464    4.2955   -2.1855 C   0  0  0  0  0  0  0  0  0  0  0  0
   -2.1818    2.6935    0.8936 C   0  0  0  0  0  0  0  0  0  0  0  0
   -2.8388    3.4910    1.9281 C   0  0  0  0  0  0  0  0  0  0  0  0
   -2.6593    3.2115    3.2216 C   0  0  0  0  0  0  0  0  0  0  0  0
   -1.8062    2.1039    3.6692 C   0  0  0  0  0  0  0  0  0  0  0  0
   -1.6559    1.8636    4.8607 O   0  0  0  0  0  0  0  0  0  0  0  0
   -1.1917    1.3588    2.6748 O   0  0  0  0  0  0  0  0  0  0  0  0
   -1.3572    1.6324    1.2927 C   0  0  0  0  0  0  0  0  0  0  0  0
   -0.6790    0.8065    0.3762 C   0  0  0  0  0  0  0  0  0  0  0  0
    0.2002   -0.3489    0.8651 C   0  0  0  0  0  0  0  0  0  0  0  0
   -0.3603   -1.7353    0.4512 C   0  0  0  0  0  0  0  0  0  0  0  0
   -1.7611   -1.9984    1.0272 C   0  0  0  0  0  0  0  0  0  0  0  0
   -2.2163   -3.3698    0.7719 N   0  0  0  0  0  0  0  0  0  0  0  0
   -2.4618   -3.6525   -0.6443 C   0  0  0  0  0  0  0  0  0  0  0  0
   -3.3183   -4.9117   -0.6142 C   0  0  0  0  0  0  0  0  0  0  0  0
   -3.9367   -4.9449    0.7781 C   0  0  0  0  0  0  0  0  0  0  0  0
   -3.4923   -3.6489    1.4352 C   0  0  0  0  0  0  0  0  0  0  0  0
    1.6788   -0.1209    0.5400 C   0  0  0  0  0  0  0  0  0  0  0  0
    2.3676    0.9161    1.1800 C   0  0  0  0  0  0  0  0  0  0  0  0
    3.7179    1.1752    0.8985 C   0  0  0  0  0  0  0  0  0  0  0  0
    4.4551    0.4090   -0.0187 C   0  0  0  0  0  0  0  0  0  0  0  0
    5.7980    0.6809   -0.3159 N   0  0  0  0  0  0  0  0  0  0  0  0
    6.5423    1.5893    0.5550 C   0  0  0  0  0  0  0  0  0  0  0  0
    6.5947   -0.3685   -0.9512 C   0  0  0  0  0  0  0  0  0  0  0  0
    3.7435   -0.6209   -0.6563 C   0  0  0  0  0  0  0  0  0  0  0  0
    2.3917   -0.8879   -0.3831 C   0  0  0  0  0  0  0  0  0  0  0  0
    0.1541    1.6020   -3.5179 H   0  0  0  0  0  0  0  0  0  0  0  0
    1.2867    1.7522   -2.1277 H   0  0  0  0  0  0  0  0  0  0  0  0
    1.3624    0.3478   -3.2076 H   0  0  0  0  0  0  0  0  0  0  0  0
   -1.8255    2.2896   -2.4722 H   0  0  0  0  0  0  0  0  0  0  0  0
   -3.8151    3.4643   -2.7227 H   0  0  0  0  0  0  0  0  0  0  0  0
   -4.0148    5.1589   -2.2604 H   0  0  0  0  0  0  0  0  0  0  0  0
   -2.3904    4.5748   -2.6404 H   0  0  0  0  0  0  0  0  0  0  0  0
   -3.4752    4.3160    1.6250 H   0  0  0  0  0  0  0  0  0  0  0  0
   -3.1363    3.7902    4.0026 H   0  0  0  0  0  0  0  0  0  0  0  0
    0.1802   -0.3714    1.9635 H   0  0  0  0  0  0  0  0  0  0  0  0
   -0.3865   -1.8355   -0.6392 H   0  0  0  0  0  0  0  0  0  0  0  0
    0.3186   -2.5161    0.8208 H   0  0  0  0  0  0  0  0  0  0  0  0
   -1.7192   -1.8420    2.1124 H   0  0  0  0  0  0  0  0  0  0  0  0
   -2.4822   -1.2767    0.6250 H   0  0  0  0  0  0  0  0  0  0  0  0
   -3.0189   -2.8406   -1.1290 H   0  0  0  0  0  0  0  0  0  0  0  0
   -1.5358   -3.8220   -1.2026 H   0  0  0  0  0  0  0  0  0  0  0  0
   -2.7075   -5.8083   -0.7714 H   0  0  0  0  0  0  0  0  0  0  0  0
   -4.0855   -4.8874   -1.3953 H   0  0  0  0  0  0  0  0  0  0  0  0
   -3.5511   -5.8087    1.3318 H   0  0  0  0  0  0  0  0  0  0  0  0
   -5.0271   -5.0280    0.7396 H   0  0  0  0  0  0  0  0  0  0  0  0
   -4.2320   -2.8603    1.2417 H   0  0  0  0  0  0  0  0  0  0  0  0
   -3.3794   -3.7648    2.5182 H   0  0  0  0  0  0  0  0  0  0  0  0
    1.8580    1.5442    1.9082 H   0  0  0  0  0  0  0  0  0  0  0  0
    4.1731    2.0050    1.4297 H   0  0  0  0  0  0  0  0  0  0  0  0
    7.5689    1.7274    0.1966 H   0  0  0  0  0  0  0  0  0  0  0  0
    6.5974    1.1983    1.5771 H   0  0  0  0  0  0  0  0  0  0  0  0
    6.0936    2.5887    0.5644 H   0  0  0  0  0  0  0  0  0  0  0  0
    7.6346   -0.0493   -1.0869 H   0  0  0  0  0  0  0  0  0  0  0  0
    6.2197   -0.5984   -1.9543 H   0  0  0  0  0  0  0  0  0  0  0  0
    6.6067   -1.2798   -0.3425 H   0  0  0  0  0  0  0  0  0  0  0  0
    4.2207   -1.2509   -1.4006 H   0  0  0  0  0  0  0  0  0  0  0  0
    1.9130   -1.6982   -0.9262 H   0  0  0  0  0  0  0  0  0  0  0  0
  1  2  1  0
  2  3  1  0
  3  4  2  0
  4  5  1  0
  5  6  1  0
  6  7  1  0
  5  8  2  0
  8  9  1  0
  9 10  2  0
 10 11  1  0
 11 12  2  0
 11 13  1  0
 13 14  1  0
 14 15  2  0
 15 16  1  0
 16 17  1  0
 17 18  1  0
 18 19  1  0
 19 20  1  0
 20 21  1  0
 21 22  1  0
 22 23  1  0
 16 24  1  0
 24 25  2  0
 25 26  1  0
 26 27  2  0
 27 28  1  0
 28 29  1  0
 28 30  1  0
 27 31  1  0
 31 32  2  0
 15  3  1  0
 23 19  1  0
 32 24  1  0
 14  8  1  0
  1 33  1  0
  1 34  1  0
  1 35  1  0
  4 36  1  0
  7 37  1  0
  7 38  1  0
  7 39  1  0
  9 40  1  0
 10 41  1  0
 16 42  1  0
 17 43  1  0
 17 44  1  0
 18 45  1  0
 18 46  1  0
 20 47  1  0
 20 48  1  0
 21 49  1  0
 21 50  1  0
 22 51  1  0
 22 52  1  0
 23 53  1  0
 23 54  1  0
 25 55  1  0
 26 56  1  0
 29 57  1  0
 29 58  1  0
 29 59  1  0
 30 60  1  0
 30 61  1  0
 30 62  1  0
 31 63  1  0
 32 64  1  0
M  END
$$$$
