
     RDKit          3D

 66 70  0  0  0  0  0  0  0  0999 V2000
   -2.2637   -2.4262   -2.7243 C   0  0  0  0  0  0  0  0  0  0  0  0
   -1.4489   -1.8953   -3.8915 C   0  0  0  0  0  0  0  0  0  0  0  0
   -1.0619   -0.5338   -3.6832 O   0  0  0  0  0  0  0  0  0  0  0  0
   -0.0086   -0.3595   -2.8240 C   0  0  0  0  0  0  0  0  0  0  0  0
    1.2298   -0.9693   -3.0598 C   0  0  0  0  0  0  0  0  0  0  0  0
    2.3101   -0.7280   -2.2083 C   0  0  0  0  0  0  0  0  0  0  0  0
    2.1585    0.1455   -1.1326 C   0  0  0  0  0  0  0  0  0  0  0  0
    3.3119    0.3958   -0.2414 C   0  0  0  0  0  0  0  0  0  0  0  0
    3.2208    1.2126    0.7596 N   0  0  0  0  0  0  0  0  0  0  0  0
    4.3330    1.4373    1.5270 N   0  0  0  0  0  0  0  0  0  0  0  0
    5.6534    1.4442    1.0967 C   0  0  0  0  0  0  0  0  0  0  0  0
    6.0371    1.1241   -0.0261 O   0  0  0  0  0  0  0  0  0  0  0  0
    6.6712    1.8826    2.1110 C   0  0  0  0  0  0  0  0  0  0  0  0
    8.0260    1.7258    1.7708 C   0  0  0  0  0  0  0  0  0  0  0  0
    9.0372    2.0926    2.6609 C   0  0  0  0  0  0  0  0  0  0  0  0
    8.7090    2.6244    3.9047 C   0  0  0  0  0  0  0  0  0  0  0  0
    7.3715    2.7959    4.2586 C   0  0  0  0  0  0  0  0  0  0  0  0
    6.3588    2.4279    3.3668 C   0  0  0  0  0  0  0  0  0  0  0  0
    5.0546    2.6175    3.7453 O   0  0  0  0  0  0  0  0  0  0  0  0
    0.9345    0.7827   -0.9132 C   0  0  0  0  0  0  0  0  0  0  0  0
   -0.1650    0.5398   -1.7565 C   0  0  0  0  0  0  0  0  0  0  0  0
   -1.4750    1.2516   -1.4864 C   0  0  0  0  0  0  0  0  0  0  0  0
   -2.4315    0.4883   -0.6585 N   0  0  0  0  0  0  0  0  0  0  0  0
   -1.9500    0.2608    0.7095 C   0  0  0  0  0  0  0  0  0  0  0  0
   -2.9917   -0.4101    1.6292 C   0  0  0  0  0  0  0  0  0  0  0  0
   -4.2601    0.4298    1.6779 C   0  0  0  0  0  0  0  0  0  0  0  0
   -4.7976    0.4956    0.2515 C   0  0  0  0  0  0  0  0  0  0  0  0
   -3.7441    1.1613   -0.6667 C   0  0  0  0  0  0  0  0  0  0  0  0
   -5.1663   -0.8938   -0.2337 C   0  0  0  0  0  0  0  0  0  0  0  0
   -6.1993   -1.0822   -1.0749 C   0  0  0  0  0  0  0  0  0  0  0  0
   -6.5423   -2.3988   -1.5412 C   0  0  0  0  0  0  0  0  0  0  0  0
   -5.8456   -3.4649   -1.1342 C   0  0  0  0  0  0  0  0  0  0  0  0
   -4.7131   -3.2988   -0.1861 C   0  0  0  0  0  0  0  0  0  0  0  0
   -4.1072   -4.2990    0.1944 O   0  0  0  0  0  0  0  0  0  0  0  0
   -4.4267   -1.9904    0.2168 N   0  0  0  0  0  0  0  0  0  0  0  0
   -3.3370   -1.8392    1.1824 C   0  0  0  0  0  0  0  0  0  0  0  0
   -3.1113   -1.7641   -2.5221 H   0  0  0  0  0  0  0  0  0  0  0  0
   -1.6593   -2.4774   -1.8119 H   0  0  0  0  0  0  0  0  0  0  0  0
   -2.6406   -3.4300   -2.9427 H   0  0  0  0  0  0  0  0  0  0  0  0
   -2.0815   -1.8997   -4.7886 H   0  0  0  0  0  0  0  0  0  0  0  0
   -0.5984   -2.5498   -4.1116 H   0  0  0  0  0  0  0  0  0  0  0  0
    1.3768   -1.6127   -3.9212 H   0  0  0  0  0  0  0  0  0  0  0  0
    3.2641   -1.2101   -2.4039 H   0  0  0  0  0  0  0  0  0  0  0  0
    4.2243   -0.1791   -0.4697 H   0  0  0  0  0  0  0  0  0  0  0  0
    4.1389    1.9173    2.4056 H   0  0  0  0  0  0  0  0  0  0  0  0
    8.3015    1.3079    0.8037 H   0  0  0  0  0  0  0  0  0  0  0  0
   10.0784    1.9565    2.3832 H   0  0  0  0  0  0  0  0  0  0  0  0
    9.4970    2.9075    4.5981 H   0  0  0  0  0  0  0  0  0  0  0  0
    7.1396    3.2163    5.2334 H   0  0  0  0  0  0  0  0  0  0  0  0
    5.0379    2.9932    4.6440 H   0  0  0  0  0  0  0  0  0  0  0  0
    0.8330    1.4739   -0.0794 H   0  0  0  0  0  0  0  0  0  0  0  0
   -1.9324    1.4862   -2.4565 H   0  0  0  0  0  0  0  0  0  0  0  0
   -1.2674    2.2288   -1.0278 H   0  0  0  0  0  0  0  0  0  0  0  0
   -1.6520    1.2148    1.1652 H   0  0  0  0  0  0  0  0  0  0  0  0
   -1.0614   -0.3796    0.6933 H   0  0  0  0  0  0  0  0  0  0  0  0
   -2.5517   -0.4632    2.6333 H   0  0  0  0  0  0  0  0  0  0  0  0
   -4.0417    1.4364    2.0539 H   0  0  0  0  0  0  0  0  0  0  0  0
   -4.9960   -0.0157    2.3590 H   0  0  0  0  0  0  0  0  0  0  0  0
   -5.6947    1.1290    0.2555 H   0  0  0  0  0  0  0  0  0  0  0  0
   -3.6276    2.2075   -0.3503 H   0  0  0  0  0  0  0  0  0  0  0  0
   -4.1322    1.1816   -1.6933 H   0  0  0  0  0  0  0  0  0  0  0  0
   -6.7938   -0.2497   -1.4393 H   0  0  0  0  0  0  0  0  0  0  0  0
   -7.3721   -2.5047   -2.2316 H   0  0  0  0  0  0  0  0  0  0  0  0
   -6.0652   -4.4727   -1.4593 H   0  0  0  0  0  0  0  0  0  0  0  0
   -2.4491   -2.3506    0.7901 H   0  0  0  0  0  0  0  0  0  0  0  0
   -3.6453   -2.4079    2.0704 H   0  0  0  0  0  0  0  0  0  0  0  0
  1  2  1  0
  2  3  1  0
  3  4  1  0
  4  5  2  0
  5  6  1  0
  6  7  2  0
  7  8  1  0
  8  9  2  3
  9 10  1  0
 10 11  1  0
 11 12  2  0
 11 13  1  0
 13 14  2  0
 14 15  1  0
 15 16  2  0
 16 17  1  0
 17 18  2  0
 18 19  1  0
  7 20  1  0
 20 21  2  0
 21 22  1  0
 22 23  1  0
 23 24  1  0
 24 25  1  0
 25 26  1  0
 26 27  1  0
 27 28  1  0
 27 29  1  0
 29 30  2  0
 30 31  1  0
 31 32  2  0
 32 33  1  0
 33 34  2  0
 33 35  1  0
 35 36  1  0
 21  4  1  0
 28 23  1  0
 35 29  1  0
 18 13  1  0
 36 25  1  0
  1 37  1  0
  1 38  1  0
  1 39  1  0
  2 40  1  0
  2 41  1  0
  5 42  1  0
  6 43  1  0
  8 44  1  0
 10 45  1  0
 14 46  1  0
 15 47  1  0
 16 48  1  0
 17 49  1  0
 19 50  1  0
 20 51  1  0
 22 52  1  0
 22 53  1  0
 24 54  1  0
 24 55  1  0
 25 56  1  0
 26 57  1  0
 26 58  1  0
 27 59  1  0
 28 60  1  0
 28 61  1  0
 30 62  1  0
 31 63  1  0
 32 64  1  0
 36 65  1  0
 36 66  1  0
M  END
$$$$
