
     RDKit          3D

 54 57  0  0  0  0  0  0  0  0999 V2000
    8.6562    0.4397    0.1994 C   0  0  0  0  0  0  0  0  0  0  0  0
    7.2725    0.7526    0.2834 O   0  0  0  0  0  0  0  0  0  0  0  0
    6.3884   -0.2722    0.0763 C   0  0  0  0  0  0  0  0  0  0  0  0
    6.7272   -1.5951   -0.2076 C   0  0  0  0  0  0  0  0  0  0  0  0
    5.7234   -2.5453   -0.3975 C   0  0  0  0  0  0  0  0  0  0  0  0
    4.3813   -2.1745   -0.3038 C   0  0  0  0  0  0  0  0  0  0  0  0
    4.0259   -0.8513   -0.0196 C   0  0  0  0  0  0  0  0  0  0  0  0
    2.6501   -0.5649    0.0566 N   0  0  0  0  0  0  0  0  0  0  0  0
    2.0336    0.6366    0.3162 C   0  0  0  0  0  0  0  0  0  0  0  0
    2.6030    1.7029    0.5335 O   0  0  0  0  0  0  0  0  0  0  0  0
    0.5300    0.5689    0.3196 C   0  0  0  0  0  0  0  0  0  0  0  0
   -0.1487    1.7063    0.5474 C   0  0  0  0  0  0  0  0  0  0  0  0
   -1.5987    1.7732    0.5744 C   0  0  0  0  0  0  0  0  0  0  0  0
   -2.2660    3.0842    0.8228 C   0  0  0  0  0  0  0  0  0  0  0  0
   -1.5887    4.0989    0.9989 O   0  0  0  0  0  0  0  0  0  0  0  0
   -3.6493    3.0681    0.8383 N   0  0  0  0  0  0  0  0  0  0  0  0
   -4.3463    4.2511    1.0617 C   0  0  0  0  0  0  0  0  0  0  0  0
   -5.6842    4.2867    1.0874 C   0  0  0  0  0  0  0  0  0  0  0  0
   -6.4362    3.0782    0.8805 C   0  0  0  0  0  0  0  0  0  0  0  0
   -5.8057    1.9181    0.6625 C   0  0  0  0  0  0  0  0  0  0  0  0
   -4.3157    1.8761    0.6332 C   0  0  0  0  0  0  0  0  0  0  0  0
   -3.7343    0.7400    0.4202 N   0  0  0  0  0  0  0  0  0  0  0  0
   -2.3585    0.6712    0.3842 C   0  0  0  0  0  0  0  0  0  0  0  0
   -1.7157   -0.5777    0.1435 N   0  0  0  0  0  0  0  0  0  0  0  0
   -2.5783   -1.7679   -0.0118 C   0  0  0  0  0  0  0  0  0  0  0  0
   -3.1474   -1.8961   -1.4399 C   0  0  0  0  0  0  0  0  0  0  0  0
   -2.0687   -2.1922   -2.4823 C   0  0  0  0  0  0  0  0  0  0  0  0
   -4.2112   -2.9966   -1.4743 C   0  0  0  0  0  0  0  0  0  0  0  0
   -0.3121   -0.6641    0.0851 C   0  0  0  0  0  0  0  0  0  0  0  0
    0.3490   -1.7612   -0.1701 N   0  0  0  0  0  0  0  0  0  0  0  0
    5.0380    0.0921    0.1687 C   0  0  0  0  0  0  0  0  0  0  0  0
    9.2190    1.3592    0.3869 H   0  0  0  0  0  0  0  0  0  0  0  0
    8.9437   -0.2883    0.9652 H   0  0  0  0  0  0  0  0  0  0  0  0
    8.9211    0.0861   -0.8025 H   0  0  0  0  0  0  0  0  0  0  0  0
    7.7593   -1.9180   -0.2876 H   0  0  0  0  0  0  0  0  0  0  0  0
    5.9863   -3.5763   -0.6188 H   0  0  0  0  0  0  0  0  0  0  0  0
    3.6156   -2.9313   -0.4555 H   0  0  0  0  0  0  0  0  0  0  0  0
    2.0087   -1.3475   -0.1023 H   0  0  0  0  0  0  0  0  0  0  0  0
    0.3864    2.6386    0.7235 H   0  0  0  0  0  0  0  0  0  0  0  0
   -3.7565    5.1518    1.2158 H   0  0  0  0  0  0  0  0  0  0  0  0
   -6.2189    5.2149    1.2625 H   0  0  0  0  0  0  0  0  0  0  0  0
   -7.5199    3.1312    0.9056 H   0  0  0  0  0  0  0  0  0  0  0  0
   -6.3346    0.9871    0.5022 H   0  0  0  0  0  0  0  0  0  0  0  0
   -3.4070   -1.7086    0.7072 H   0  0  0  0  0  0  0  0  0  0  0  0
   -2.0596   -2.6879    0.2792 H   0  0  0  0  0  0  0  0  0  0  0  0
   -3.6351   -0.9562   -1.7254 H   0  0  0  0  0  0  0  0  0  0  0  0
   -1.5292   -3.1155   -2.2471 H   0  0  0  0  0  0  0  0  0  0  0  0
   -1.3443   -1.3749   -2.5477 H   0  0  0  0  0  0  0  0  0  0  0  0
   -2.5142   -2.3096   -3.4763 H   0  0  0  0  0  0  0  0  0  0  0  0
   -4.6505   -3.0830   -2.4739 H   0  0  0  0  0  0  0  0  0  0  0  0
   -3.7855   -3.9694   -1.2056 H   0  0  0  0  0  0  0  0  0  0  0  0
   -5.0228   -2.7752   -0.7732 H   0  0  0  0  0  0  0  0  0  0  0  0
   -0.2828   -2.5422   -0.3404 H   0  0  0  0  0  0  0  0  0  0  0  0
    4.8080    1.1295    0.3910 H   0  0  0  0  0  0  0  0  0  0  0  0
  1  2  1  0
  2  3  1  0
  3  4  2  0
  4  5  1  0
  5  6  2  0
  6  7  1  0
  7  8  1  0
  8  9  1  0
  9 10  2  0
  9 11  1  0
 11 12  2  0
 12 13  1  0
 13 14  1  0
 14 15  2  0
 14 16  1  0
 16 17  1  0
 17 18  2  0
 18 19  1  0
 19 20  2  0
 20 21  1  0
 21 22  2  0
 22 23  1  0
 23 24  1  0
 24 25  1  0
 25 26  1  0
 26 27  1  0
 26 28  1  0
 24 29  1  0
 29 30  2  3
  7 31  2  0
 31  3  1  0
 29 11  1  0
 23 13  2  0
 21 16  1  0
  1 32  1  0
  1 33  1  0
  1 34  1  0
  4 35  1  0
  5 36  1  0
  6 37  1  0
  8 38  1  0
 12 39  1  0
 17 40  1  0
 18 41  1  0
 19 42  1  0
 20 43  1  0
 25 44  1  0
 25 45  1  0
 26 46  1  0
 27 47  1  0
 27 48  1  0
 27 49  1  0
 28 50  1  0
 28 51  1  0
 28 52  1  0
 30 53  1  0
 31 54  1  0
M  END
$$$$
