
     RDKit          3D

 48 50  0  0  0  0  0  0  0  0999 V2000
    4.1210    3.1169   -0.5273 C   0  0  0  0  0  0  0  0  0  0  0  0
    3.1756    2.0129   -0.1942 C   0  0  0  0  0  0  0  0  0  0  0  0
    1.8760    2.1451    0.2510 C   0  0  0  0  0  0  0  0  0  0  0  0
    1.2940    0.8583    0.3398 C   0  0  0  0  0  0  0  0  0  0  0  0
   -0.0625    0.5295    0.7486 C   0  0  0  0  0  0  0  0  0  0  0  0
   -0.8533    1.4954    1.0931 N   0  0  0  0  0  0  0  0  0  0  0  0
   -2.1473    1.1995    1.4449 N   0  0  0  0  0  0  0  0  0  0  0  0
   -2.9212    0.1664    0.9063 C   0  0  0  0  0  0  0  0  0  0  0  0
   -2.5079   -0.6977    0.1430 O   0  0  0  0  0  0  0  0  0  0  0  0
   -4.3461    0.2413    1.4184 C   0  0  0  0  0  0  0  0  0  0  0  0
   -5.3104   -0.8044    0.8608 C   0  0  0  0  0  0  0  0  0  0  0  0
   -4.9015   -2.2488    1.1409 C   0  0  0  0  0  0  0  0  0  0  0  0
   -5.5029   -0.6222   -0.5508 O   0  0  0  0  0  0  0  0  0  0  0  0
   -6.8072   -0.0646   -0.6931 C   0  0  0  0  0  0  0  0  0  0  0  0
   -7.5536   -0.6146    0.4885 C   0  0  0  0  0  0  0  0  0  0  0  0
   -6.5784   -0.5807    1.5305 O   0  0  0  0  0  0  0  0  0  0  0  0
    2.2793   -0.0532   -0.0264 C   0  0  0  0  0  0  0  0  0  0  0  0
    2.2051   -1.5473    0.0110 C   0  0  0  0  0  0  0  0  0  0  0  0
    3.4275    0.6577   -0.3841 N   0  0  0  0  0  0  0  0  0  0  0  0
    4.6434    0.0958   -0.8739 C   0  0  0  0  0  0  0  0  0  0  0  0
    5.8742    0.5305   -0.3695 C   0  0  0  0  0  0  0  0  0  0  0  0
    7.0624   -0.0238   -0.8534 C   0  0  0  0  0  0  0  0  0  0  0  0
    7.0291   -1.0101   -1.8433 C   0  0  0  0  0  0  0  0  0  0  0  0
    8.5374   -1.6494   -2.3914 Cl  0  0  0  0  0  0  0  0  0  0  0  0
    5.7996   -1.4438   -2.3510 C   0  0  0  0  0  0  0  0  0  0  0  0
    5.6816   -2.6519   -3.5813 Cl  0  0  0  0  0  0  0  0  0  0  0  0
    4.6081   -0.8921   -1.8667 C   0  0  0  0  0  0  0  0  0  0  0  0
    3.5747    4.0553   -0.6751 H   0  0  0  0  0  0  0  0  0  0  0  0
    4.6688    2.9180   -1.4533 H   0  0  0  0  0  0  0  0  0  0  0  0
    4.8316    3.2787    0.2885 H   0  0  0  0  0  0  0  0  0  0  0  0
    1.3778    3.0834    0.4655 H   0  0  0  0  0  0  0  0  0  0  0  0
   -0.3387   -0.5352    0.7732 H   0  0  0  0  0  0  0  0  0  0  0  0
   -2.6360    1.9948    1.8465 H   0  0  0  0  0  0  0  0  0  0  0  0
   -4.3188    0.1702    2.5136 H   0  0  0  0  0  0  0  0  0  0  0  0
   -4.7294    1.2416    1.1754 H   0  0  0  0  0  0  0  0  0  0  0  0
   -5.7081   -2.9357    0.8585 H   0  0  0  0  0  0  0  0  0  0  0  0
   -4.0232   -2.5556    0.5676 H   0  0  0  0  0  0  0  0  0  0  0  0
   -4.7104   -2.4053    2.2077 H   0  0  0  0  0  0  0  0  0  0  0  0
   -6.7178    1.0258   -0.6408 H   0  0  0  0  0  0  0  0  0  0  0  0
   -7.2463   -0.3451   -1.6536 H   0  0  0  0  0  0  0  0  0  0  0  0
   -7.8525   -1.6563    0.3308 H   0  0  0  0  0  0  0  0  0  0  0  0
   -8.4314   -0.0238    0.7610 H   0  0  0  0  0  0  0  0  0  0  0  0
    3.1697   -2.0015    0.2565 H   0  0  0  0  0  0  0  0  0  0  0  0
    1.5056   -1.8846    0.7826 H   0  0  0  0  0  0  0  0  0  0  0  0
    1.8564   -1.9374   -0.9499 H   0  0  0  0  0  0  0  0  0  0  0  0
    5.9295    1.2657    0.4295 H   0  0  0  0  0  0  0  0  0  0  0  0
    8.0133    0.3130   -0.4463 H   0  0  0  0  0  0  0  0  0  0  0  0
    3.6630   -1.2107   -2.2998 H   0  0  0  0  0  0  0  0  0  0  0  0
  1  2  1  0
  2  3  2  0
  3  4  1  0
  4  5  1  0
  5  6  2  3
  6  7  1  0
  7  8  1  0
  8  9  2  0
  8 10  1  0
 10 11  1  0
 11 12  1  0
 11 13  1  0
 13 14  1  0
 14 15  1  0
 15 16  1  0
  4 17  2  0
 17 18  1  0
 17 19  1  0
 19 20  1  0
 20 21  2  0
 21 22  1  0
 22 23  2  0
 23 24  1  0
 23 25  1  0
 25 26  1  0
 25 27  2  0
 19  2  1  0
 27 20  1  0
 16 11  1  0
  1 28  1  0
  1 29  1  0
  1 30  1  0
  3 31  1  0
  5 32  1  0
  7 33  1  0
 10 34  1  0
 10 35  1  0
 12 36  1  0
 12 37  1  0
 12 38  1  0
 14 39  1  0
 14 40  1  0
 15 41  1  0
 15 42  1  0
 18 43  1  0
 18 44  1  0
 18 45  1  0
 21 46  1  0
 22 47  1  0
 27 48  1  0
M  END
$$$$
