
     RDKit          3D

 42 44  0  0  0  0  0  0  0  0999 V2000
   -3.5530    1.4429   -1.4066 O   0  0  0  0  0  0  0  0  0  0  0  0
   -2.8244    1.1103   -0.4680 C   0  0  0  0  0  0  0  0  0  0  0  0
   -3.3778    1.0003    0.9764 C   0  0  0  0  0  0  0  0  0  0  0  0
   -3.6147   -0.4526    1.3594 C   0  0  0  0  0  0  0  0  0  0  0  0
   -5.0373   -0.6733    0.9050 C   0  0  0  0  0  0  0  0  0  0  0  0
   -5.6801    0.6658    1.1879 C   0  0  0  0  0  0  0  0  0  0  0  0
   -4.6454    1.6554    1.1315 O   0  0  0  0  0  0  0  0  0  0  0  0
   -1.4887    0.7838   -0.6814 N   0  0  0  0  0  0  0  0  0  0  0  0
   -0.5028    0.5029    0.3691 C   0  0  0  0  0  0  0  0  0  0  0  0
    0.9416    0.7177   -0.1068 C   0  0  0  0  0  0  0  0  0  0  0  0
    1.2697   -0.1000   -1.3166 N   0  0  0  0  0  0  0  0  0  0  0  0
    2.1527   -1.5315   -1.0219 S   0  0  0  0  0  6  0  0  0  0  0  0
    2.3803   -2.1907   -2.2890 O   0  0  0  0  0  0  0  0  0  0  0  0
    1.4955   -2.2072    0.0780 O   0  0  0  0  0  0  0  0  0  0  0  0
    3.7173   -0.9144   -0.4578 C   0  0  0  0  0  0  0  0  0  0  0  0
    4.4674   -0.0957   -1.3077 C   0  0  0  0  0  0  0  0  0  0  0  0
    5.6950    0.4013   -0.8719 C   0  0  0  0  0  0  0  0  0  0  0  0
    6.1665    0.0774    0.4019 C   0  0  0  0  0  0  0  0  0  0  0  0
    5.4155   -0.7463    1.2435 C   0  0  0  0  0  0  0  0  0  0  0  0
    4.1862   -1.2477    0.8156 C   0  0  0  0  0  0  0  0  0  0  0  0
    0.1039   -0.3122   -2.2392 C   0  0  0  0  0  0  0  0  0  0  0  0
   -0.9834    0.7524   -2.0580 C   0  0  0  0  0  0  0  0  0  0  0  0
   -2.6864    1.4956    1.6615 H   0  0  0  0  0  0  0  0  0  0  0  0
   -3.5602   -0.5612    2.4492 H   0  0  0  0  0  0  0  0  0  0  0  0
   -2.9204   -1.1660    0.9086 H   0  0  0  0  0  0  0  0  0  0  0  0
   -5.0585   -0.8782   -0.1719 H   0  0  0  0  0  0  0  0  0  0  0  0
   -5.5372   -1.5013    1.4147 H   0  0  0  0  0  0  0  0  0  0  0  0
   -6.1099    0.6925    2.1946 H   0  0  0  0  0  0  0  0  0  0  0  0
   -6.4663    0.9128    0.4688 H   0  0  0  0  0  0  0  0  0  0  0  0
   -0.6907    1.1433    1.2340 H   0  0  0  0  0  0  0  0  0  0  0  0
   -0.6495   -0.5371    0.6786 H   0  0  0  0  0  0  0  0  0  0  0  0
    1.0958    1.7704   -0.3750 H   0  0  0  0  0  0  0  0  0  0  0  0
    1.6324    0.5090    0.7157 H   0  0  0  0  0  0  0  0  0  0  0  0
    4.1018    0.1500   -2.3023 H   0  0  0  0  0  0  0  0  0  0  0  0
    6.2880    1.0365   -1.5256 H   0  0  0  0  0  0  0  0  0  0  0  0
    7.1267    0.4628    0.7375 H   0  0  0  0  0  0  0  0  0  0  0  0
    5.7933   -1.0010    2.2310 H   0  0  0  0  0  0  0  0  0  0  0  0
    3.6096   -1.8948    1.4724 H   0  0  0  0  0  0  0  0  0  0  0  0
   -0.3391   -1.2988   -2.0547 H   0  0  0  0  0  0  0  0  0  0  0  0
    0.4727   -0.2853   -3.2702 H   0  0  0  0  0  0  0  0  0  0  0  0
   -0.5845    1.7502   -2.2767 H   0  0  0  0  0  0  0  0  0  0  0  0
   -1.8016    0.5621   -2.7607 H   0  0  0  0  0  0  0  0  0  0  0  0
  1  2  2  0
  2  3  1  0
  3  4  1  0
  4  5  1  0
  5  6  1  0
  6  7  1  0
  2  8  1  0
  8  9  1  0
  9 10  1  0
 10 11  1  0
 11 12  1  0
 12 13  2  0
 12 14  2  0
 12 15  1  0
 15 16  2  0
 16 17  1  0
 17 18  2  0
 18 19  1  0
 19 20  2  0
 11 21  1  0
 21 22  1  0
  7  3  1  0
 22  8  1  0
 20 15  1  0
  3 23  1  0
  4 24  1  0
  4 25  1  0
  5 26  1  0
  5 27  1  0
  6 28  1  0
  6 29  1  0
  9 30  1  0
  9 31  1  0
 10 32  1  0
 10 33  1  0
 16 34  1  0
 17 35  1  0
 18 36  1  0
 19 37  1  0
 20 38  1  0
 21 39  1  0
 21 40  1  0
 22 41  1  0
 22 42  1  0
M  END
$$$$
