
     RDKit          3D

 32 33  0  0  0  0  0  0  0  0999 V2000
   -6.0932   -0.0451   -0.4564 C   0  0  0  0  0  0  0  0  0  0  0  0
   -5.1992   -1.2223   -0.1134 C   0  0  0  0  0  0  0  0  0  0  0  0
   -3.8496   -0.9427   -0.5097 O   0  0  0  0  0  0  0  0  0  0  0  0
   -3.0823   -0.3403    0.4298 C   0  0  0  0  0  0  0  0  0  0  0  0
   -3.4432   -0.0427    1.5591 O   0  0  0  0  0  0  0  0  0  0  0  0
   -1.7165   -0.0640   -0.1063 C   0  0  0  0  0  0  0  0  0  0  0  0
   -0.7950    0.5641    0.7422 C   0  0  0  0  0  0  0  0  0  0  0  0
    0.4929    0.8703    0.2752 C   0  0  0  0  0  0  0  0  0  0  0  0
    0.8758    0.5668   -1.0470 C   0  0  0  0  0  0  0  0  0  0  0  0
    2.2454    0.9465   -1.5581 C   0  0  0  0  0  0  0  0  0  0  0  0
    3.4021   -0.4520   -1.6318 S   0  0  0  0  0  0  0  0  0  0  0  0
    4.2439   -0.2398   -0.1176 C   0  0  0  0  0  0  0  0  0  0  0  0
    3.6216    0.0214    1.0087 N   0  0  0  0  0  0  0  0  0  0  0  0
    4.4939    0.1723    2.0606 N   0  0  0  0  0  0  0  0  0  0  0  0
    5.7480    0.0151    1.6903 C   0  0  0  0  0  0  0  0  0  0  0  0
    6.8082    0.1271    2.5113 N   0  0  0  0  0  0  0  0  0  0  0  0
    5.9398   -0.3743    0.0268 S   0  0  0  0  0  0  0  0  0  0  0  0
   -0.0452   -0.0781   -1.8877 C   0  0  0  0  0  0  0  0  0  0  0  0
   -1.3332   -0.3874   -1.4228 C   0  0  0  0  0  0  0  0  0  0  0  0
   -6.0918    0.1324   -1.5349 H   0  0  0  0  0  0  0  0  0  0  0  0
   -5.7305    0.8747    0.0163 H   0  0  0  0  0  0  0  0  0  0  0  0
   -7.1248   -0.2177   -0.1286 H   0  0  0  0  0  0  0  0  0  0  0  0
   -5.2614   -1.4694    0.9475 H   0  0  0  0  0  0  0  0  0  0  0  0
   -5.5180   -2.1092   -0.6612 H   0  0  0  0  0  0  0  0  0  0  0  0
   -1.0728    0.8200    1.7718 H   0  0  0  0  0  0  0  0  0  0  0  0
    1.1917    1.3549    0.9586 H   0  0  0  0  0  0  0  0  0  0  0  0
    2.6669    1.7749   -0.9708 H   0  0  0  0  0  0  0  0  0  0  0  0
    2.1326    1.3388   -2.5779 H   0  0  0  0  0  0  0  0  0  0  0  0
    7.6881   -0.3013    2.2354 H   0  0  0  0  0  0  0  0  0  0  0  0
    6.6032    0.0846    3.5073 H   0  0  0  0  0  0  0  0  0  0  0  0
    0.2306   -0.3379   -2.9140 H   0  0  0  0  0  0  0  0  0  0  0  0
   -2.0280   -0.8782   -2.1026 H   0  0  0  0  0  0  0  0  0  0  0  0
  1  2  1  0
  2  3  1  0
  3  4  1  0
  4  5  2  0
  4  6  1  0
  6  7  2  0
  7  8  1  0
  8  9  2  0
  9 10  1  0
 10 11  1  0
 11 12  1  0
 12 13  2  0
 13 14  1  0
 14 15  2  0
 15 16  1  0
 15 17  1  0
  9 18  1  0
 18 19  2  0
 19  6  1  0
 17 12  1  0
  1 20  1  0
  1 21  1  0
  1 22  1  0
  2 23  1  0
  2 24  1  0
  7 25  1  0
  8 26  1  0
 10 27  1  0
 10 28  1  0
 16 29  1  0
 16 30  1  0
 18 31  1  0
 19 32  1  0
M  END
$$$$
