
     RDKit          3D

 49 52  0  0  0  0  0  0  0  0999 V2000
   -1.4829    5.4459   -1.1284 C   0  0  0  0  0  0  0  0  0  0  0  0
   -1.2305    4.1045   -0.5066 C   0  0  0  0  0  0  0  0  0  0  0  0
   -1.0972    2.9663   -1.3079 C   0  0  0  0  0  0  0  0  0  0  0  0
   -0.8924    1.7115   -0.7291 C   0  0  0  0  0  0  0  0  0  0  0  0
   -0.8198    1.5662    0.6647 C   0  0  0  0  0  0  0  0  0  0  0  0
   -0.6252    0.2101    1.3265 C   0  0  0  0  0  0  0  0  0  0  0  0
   -1.9476   -0.5547    1.4077 C   0  0  0  0  0  0  0  0  0  0  0  0
   -1.6758   -1.6730    0.4399 C   0  0  0  0  0  0  0  0  0  0  0  0
   -2.7308   -2.6347    0.0424 C   0  0  0  0  0  0  0  0  0  0  0  0
   -4.0187   -2.5754    0.5868 C   0  0  0  0  0  0  0  0  0  0  0  0
   -4.9897   -3.4985    0.1887 C   0  0  0  0  0  0  0  0  0  0  0  0
   -4.6793   -4.4813   -0.7504 C   0  0  0  0  0  0  0  0  0  0  0  0
   -3.3978   -4.5458   -1.2942 C   0  0  0  0  0  0  0  0  0  0  0  0
   -2.4251   -3.6255   -0.8992 C   0  0  0  0  0  0  0  0  0  0  0  0
   -0.4521   -1.7444    0.0107 N   0  0  0  0  0  0  0  0  0  0  0  0
    0.2316   -0.6955    0.5567 N   0  0  0  0  0  0  0  0  0  0  0  0
    1.6194   -0.6180    0.4524 C   0  0  0  0  0  0  0  0  0  0  0  0
    2.3417   -1.5994   -0.2536 C   0  0  0  0  0  0  0  0  0  0  0  0
    3.7331   -1.5474   -0.3844 C   0  0  0  0  0  0  0  0  0  0  0  0
    4.4319   -0.4888    0.1897 C   0  0  0  0  0  0  0  0  0  0  0  0
    6.1915   -0.4090    0.0116 S   0  0  0  0  0  6  0  0  0  0  0  0
    6.3410    0.2941   -1.5128 N   0  0  0  0  0  0  0  0  0  0  0  0
    6.7065    0.5714    0.9402 O   0  0  0  0  0  0  0  0  0  0  0  0
    6.7088   -1.7541   -0.0642 O   0  0  0  0  0  0  0  0  0  0  0  0
    3.7561    0.4952    0.9077 C   0  0  0  0  0  0  0  0  0  0  0  0
    2.3627    0.4253    1.0309 C   0  0  0  0  0  0  0  0  0  0  0  0
   -0.9773    2.7096    1.4640 C   0  0  0  0  0  0  0  0  0  0  0  0
   -1.1824    3.9643    0.8841 C   0  0  0  0  0  0  0  0  0  0  0  0
   -2.5588    5.6074   -1.2456 H   0  0  0  0  0  0  0  0  0  0  0  0
   -1.0047    5.5172   -2.1110 H   0  0  0  0  0  0  0  0  0  0  0  0
   -1.0698    6.2480   -0.5078 H   0  0  0  0  0  0  0  0  0  0  0  0
   -1.1497    3.0465   -2.3915 H   0  0  0  0  0  0  0  0  0  0  0  0
   -0.7836    0.8428   -1.3773 H   0  0  0  0  0  0  0  0  0  0  0  0
   -0.2234    0.3436    2.3392 H   0  0  0  0  0  0  0  0  0  0  0  0
   -2.8238    0.0330    1.1205 H   0  0  0  0  0  0  0  0  0  0  0  0
   -2.0937   -0.9806    2.4061 H   0  0  0  0  0  0  0  0  0  0  0  0
   -4.2913   -1.8253    1.3226 H   0  0  0  0  0  0  0  0  0  0  0  0
   -5.9901   -3.4520    0.6123 H   0  0  0  0  0  0  0  0  0  0  0  0
   -5.4362   -5.1988   -1.0581 H   0  0  0  0  0  0  0  0  0  0  0  0
   -3.1532   -5.3123   -2.0254 H   0  0  0  0  0  0  0  0  0  0  0  0
   -1.4280   -3.6870   -1.3307 H   0  0  0  0  0  0  0  0  0  0  0  0
    1.8078   -2.4308   -0.7109 H   0  0  0  0  0  0  0  0  0  0  0  0
    4.2523   -2.3327   -0.9294 H   0  0  0  0  0  0  0  0  0  0  0  0
    5.4550    0.3479   -2.0148 H   0  0  0  0  0  0  0  0  0  0  0  0
    6.7760    1.2122   -1.4089 H   0  0  0  0  0  0  0  0  0  0  0  0
    4.2937    1.3184    1.3728 H   0  0  0  0  0  0  0  0  0  0  0  0
    1.8691    1.2159    1.5887 H   0  0  0  0  0  0  0  0  0  0  0  0
   -0.9427    2.6338    2.5489 H   0  0  0  0  0  0  0  0  0  0  0  0
   -1.3045    4.8339    1.5264 H   0  0  0  0  0  0  0  0  0  0  0  0
  1  2  1  0
  2  3  2  0
  3  4  1  0
  4  5  2  0
  5  6  1  0
  6  7  1  0
  7  8  1  0
  8  9  1  0
  9 10  2  0
 10 11  1  0
 11 12  2  0
 12 13  1  0
 13 14  2  0
  8 15  2  0
 15 16  1  0
 16 17  1  0
 17 18  2  0
 18 19  1  0
 19 20  2  0
 20 21  1  0
 21 22  1  0
 21 23  2  0
 21 24  2  0
 20 25  1  0
 25 26  2  0
  5 27  1  0
 27 28  2  0
 28  2  1  0
 16  6  1  0
 26 17  1  0
 14  9  1  0
  1 29  1  0
  1 30  1  0
  1 31  1  0
  3 32  1  0
  4 33  1  0
  6 34  1  0
  7 35  1  0
  7 36  1  0
 10 37  1  0
 11 38  1  0
 12 39  1  0
 13 40  1  0
 14 41  1  0
 18 42  1  0
 19 43  1  0
 22 44  1  0
 22 45  1  0
 25 46  1  0
 26 47  1  0
 27 48  1  0
 28 49  1  0
M  END
$$$$
