
     RDKit          3D

 55 59  0  0  0  0  0  0  0  0999 V2000
   -7.4285   -0.4565   -3.3984 C   0  0  0  0  0  0  0  0  0  0  0  0
   -6.3969   -0.3452   -2.3157 C   0  0  0  0  0  0  0  0  0  0  0  0
   -6.7141   -0.6583   -0.9893 C   0  0  0  0  0  0  0  0  0  0  0  0
   -5.7548   -0.5321    0.0181 C   0  0  0  0  0  0  0  0  0  0  0  0
   -4.4650   -0.0743   -0.2813 C   0  0  0  0  0  0  0  0  0  0  0  0
   -3.4239    0.0598    0.8000 C   0  0  0  0  0  0  0  0  0  0  0  0
   -2.3923   -1.4259    0.9280 S   0  0  0  0  0  0  0  0  0  0  0  0
   -1.2059   -0.7891    2.0528 C   0  0  0  0  0  0  0  0  0  0  0  0
   -1.3899   -1.0905    3.3083 N   0  0  0  0  0  0  0  0  0  0  0  0
   -0.4712   -0.6371    4.2814 C   0  0  0  0  0  0  0  0  0  0  0  0
   -0.6736   -0.9884    5.6162 C   0  0  0  0  0  0  0  0  0  0  0  0
    0.2197   -0.5633    6.6031 C   0  0  0  0  0  0  0  0  0  0  0  0
    1.3233    0.2192    6.2607 C   0  0  0  0  0  0  0  0  0  0  0  0
    1.5376    0.5791    4.9304 C   0  0  0  0  0  0  0  0  0  0  0  0
    0.6433    0.1503    3.9462 C   0  0  0  0  0  0  0  0  0  0  0  0
    0.8070    0.4784    2.5432 C   0  0  0  0  0  0  0  0  0  0  0  0
    1.7427    1.2033    1.9670 N   0  0  0  0  0  0  0  0  0  0  0  0
    1.4372    1.1980    0.6249 C   0  0  0  0  0  0  0  0  0  0  0  0
    2.2884    1.9793   -0.3179 C   0  0  0  0  0  0  0  0  0  0  0  0
    2.5686    1.2264   -1.6049 C   0  0  0  0  0  0  0  0  0  0  0  0
    1.6627    0.8015   -2.3245 O   0  0  0  0  0  0  0  0  0  0  0  0
    3.8975    1.0593   -1.9065 N   0  0  0  0  0  0  0  0  0  0  0  0
    4.2961    0.4537   -3.1570 C   0  0  0  0  0  0  0  0  0  0  0  0
    5.7715    0.3278   -3.1727 C   0  0  0  0  0  0  0  0  0  0  0  0
    6.6380   -0.7326   -3.0043 C   0  0  0  0  0  0  0  0  0  0  0  0
    7.9459   -0.2030   -3.1294 C   0  0  0  0  0  0  0  0  0  0  0  0
    7.7942    1.1443   -3.3631 C   0  0  0  0  0  0  0  0  0  0  0  0
    6.4782    1.4787   -3.3838 O   0  0  0  0  0  0  0  0  0  0  0  0
    0.2873    0.4578    0.3920 C   0  0  0  0  0  0  0  0  0  0  0  0
   -0.3732    0.1814   -0.7284 O   0  0  0  0  0  0  0  0  0  0  0  0
   -0.1168   -0.0018    1.6350 N   0  0  0  0  0  0  0  0  0  0  0  0
   -4.1505    0.2417   -1.6108 C   0  0  0  0  0  0  0  0  0  0  0  0
   -5.1096    0.1136   -2.6168 C   0  0  0  0  0  0  0  0  0  0  0  0
   -6.9915   -0.8952   -4.3013 H   0  0  0  0  0  0  0  0  0  0  0  0
   -8.2598   -1.1010   -3.0924 H   0  0  0  0  0  0  0  0  0  0  0  0
   -7.8278    0.5338   -3.6378 H   0  0  0  0  0  0  0  0  0  0  0  0
   -7.7098   -1.0106   -0.7307 H   0  0  0  0  0  0  0  0  0  0  0  0
   -6.0207   -0.7972    1.0395 H   0  0  0  0  0  0  0  0  0  0  0  0
   -2.8019    0.9384    0.5927 H   0  0  0  0  0  0  0  0  0  0  0  0
   -3.9088    0.2444    1.7657 H   0  0  0  0  0  0  0  0  0  0  0  0
   -1.5301   -1.6008    5.8854 H   0  0  0  0  0  0  0  0  0  0  0  0
    0.0540   -0.8458    7.6398 H   0  0  0  0  0  0  0  0  0  0  0  0
    2.0178    0.5464    7.0305 H   0  0  0  0  0  0  0  0  0  0  0  0
    2.3977    1.1880    4.6613 H   0  0  0  0  0  0  0  0  0  0  0  0
    1.7828    2.9150   -0.5841 H   0  0  0  0  0  0  0  0  0  0  0  0
    3.2299    2.2517    0.1732 H   0  0  0  0  0  0  0  0  0  0  0  0
    4.5962    1.6020   -1.4125 H   0  0  0  0  0  0  0  0  0  0  0  0
    3.8077   -0.5226   -3.2514 H   0  0  0  0  0  0  0  0  0  0  0  0
    3.9473    1.0905   -3.9774 H   0  0  0  0  0  0  0  0  0  0  0  0
    6.3593   -1.7601   -2.8135 H   0  0  0  0  0  0  0  0  0  0  0  0
    8.8847   -0.7355   -3.0592 H   0  0  0  0  0  0  0  0  0  0  0  0
    8.4877    1.9596   -3.5232 H   0  0  0  0  0  0  0  0  0  0  0  0
    0.2060    0.4007   -1.4964 H   0  0  0  0  0  0  0  0  0  0  0  0
   -3.1505    0.5838   -1.8705 H   0  0  0  0  0  0  0  0  0  0  0  0
   -4.8430    0.3681   -3.6403 H   0  0  0  0  0  0  0  0  0  0  0  0
  1  2  1  0
  2  3  2  0
  3  4  1  0
  4  5  2  0
  5  6  1  0
  6  7  1  0
  7  8  1  0
  8  9  2  0
  9 10  1  0
 10 11  2  0
 11 12  1  0
 12 13  2  0
 13 14  1  0
 14 15  2  0
 15 16  1  0
 16 17  2  0
 17 18  1  0
 18 19  1  0
 19 20  1  0
 20 21  2  0
 20 22  1  0
 22 23  1  0
 23 24  1  0
 24 25  2  0
 25 26  1  0
 26 27  2  0
 27 28  1  0
 18 29  2  0
 29 30  1  0
 29 31  1  0
  5 32  1  0
 32 33  2  0
 33  2  1  0
 31  8  1  0
 15 10  1  0
 31 16  1  0
 28 24  1  0
  1 34  1  0
  1 35  1  0
  1 36  1  0
  3 37  1  0
  4 38  1  0
  6 39  1  0
  6 40  1  0
 11 41  1  0
 12 42  1  0
 13 43  1  0
 14 44  1  0
 19 45  1  0
 19 46  1  0
 22 47  1  0
 23 48  1  0
 23 49  1  0
 25 50  1  0
 26 51  1  0
 27 52  1  0
 30 53  1  0
 32 54  1  0
 33 55  1  0
M  END
$$$$
