
     RDKit          3D

 38 39  0  0  0  0  0  0  0  0999 V2000
   -1.5172    1.7692    2.6721 C   0  0  0  0  0  0  0  0  0  0  0  0
   -1.6318    2.4559    1.3951 N   0  0  0  0  0  0  0  0  0  0  0  0
   -2.8039    2.0343    0.6231 C   0  0  0  0  0  0  0  0  0  0  0  0
   -2.7492    0.6007    0.1364 C   0  0  0  0  0  0  0  0  0  0  0  0
   -3.6213   -0.3447    0.7049 C   0  0  0  0  0  0  0  0  0  0  0  0
   -3.6064   -1.6723    0.2826 C   0  0  0  0  0  0  0  0  0  0  0  0
   -2.7184   -2.0716   -0.7102 C   0  0  0  0  0  0  0  0  0  0  0  0
   -1.8439   -1.1463   -1.2848 C   0  0  0  0  0  0  0  0  0  0  0  0
   -1.8559    0.1912   -0.8731 C   0  0  0  0  0  0  0  0  0  0  0  0
   -1.0113    1.1589   -1.3548 O   0  0  0  0  0  0  0  0  0  0  0  0
   -0.3295    0.9061   -2.5790 C   0  0  0  0  0  0  0  0  0  0  0  0
    1.0045    0.1603   -2.4370 C   0  0  0  0  0  0  0  0  0  0  0  0
    1.5496   -0.3351   -3.4190 O   0  0  0  0  0  0  0  0  0  0  0  0
    1.4747    0.1527   -1.1363 N   0  0  0  0  0  0  0  0  0  0  0  0
    2.6605   -0.4205   -0.6425 C   0  0  0  0  0  0  0  0  0  0  0  0
    3.6138   -1.0520   -1.4425 C   0  0  0  0  0  0  0  0  0  0  0  0
    4.7688   -1.5960   -0.8710 C   0  0  0  0  0  0  0  0  0  0  0  0
    4.9795   -1.5121    0.5033 C   0  0  0  0  0  0  0  0  0  0  0  0
    4.0350   -0.8830    1.3095 C   0  0  0  0  0  0  0  0  0  0  0  0
    2.8813   -0.3395    0.7387 C   0  0  0  0  0  0  0  0  0  0  0  0
   -2.4154    1.9098    3.2820 H   0  0  0  0  0  0  0  0  0  0  0  0
   -0.6744    2.1879    3.2312 H   0  0  0  0  0  0  0  0  0  0  0  0
   -1.3292    0.6980    2.5501 H   0  0  0  0  0  0  0  0  0  0  0  0
   -0.8030    2.2863    0.8288 H   0  0  0  0  0  0  0  0  0  0  0  0
   -2.9006    2.6909   -0.2508 H   0  0  0  0  0  0  0  0  0  0  0  0
   -3.7151    2.2099    1.2091 H   0  0  0  0  0  0  0  0  0  0  0  0
   -4.3187   -0.0470    1.4854 H   0  0  0  0  0  0  0  0  0  0  0  0
   -4.2850   -2.3943    0.7298 H   0  0  0  0  0  0  0  0  0  0  0  0
   -2.7001   -3.1088   -1.0367 H   0  0  0  0  0  0  0  0  0  0  0  0
   -1.1584   -1.5140   -2.0421 H   0  0  0  0  0  0  0  0  0  0  0  0
   -0.9727    0.3917   -3.3028 H   0  0  0  0  0  0  0  0  0  0  0  0
   -0.0887    1.8846   -3.0104 H   0  0  0  0  0  0  0  0  0  0  0  0
    0.8550    0.5759   -0.4528 H   0  0  0  0  0  0  0  0  0  0  0  0
    3.4914   -1.1369   -2.5175 H   0  0  0  0  0  0  0  0  0  0  0  0
    5.5037   -2.0850   -1.5057 H   0  0  0  0  0  0  0  0  0  0  0  0
    5.8784   -1.9359    0.9431 H   0  0  0  0  0  0  0  0  0  0  0  0
    4.1952   -0.8147    2.3822 H   0  0  0  0  0  0  0  0  0  0  0  0
    2.1590    0.1455    1.3902 H   0  0  0  0  0  0  0  0  0  0  0  0
  1  2  1  0
  2  3  1  0
  3  4  1  0
  4  5  2  0
  5  6  1  0
  6  7  2  0
  7  8  1  0
  8  9  2  0
  9 10  1  0
 10 11  1  0
 11 12  1  0
 12 13  2  0
 12 14  1  0
 14 15  1  0
 15 16  2  0
 16 17  1  0
 17 18  2  0
 18 19  1  0
 19 20  2  0
  9  4  1  0
 20 15  1  0
  1 21  1  0
  1 22  1  0
  1 23  1  0
  2 24  1  0
  3 25  1  0
  3 26  1  0
  5 27  1  0
  6 28  1  0
  7 29  1  0
  8 30  1  0
 11 31  1  0
 11 32  1  0
 14 33  1  0
 16 34  1  0
 17 35  1  0
 18 36  1  0
 19 37  1  0
 20 38  1  0
M  END
$$$$
