
     RDKit          3D

 55 57  0  0  0  0  0  0  0  0999 V2000
   -0.8426   -4.0273    1.3074 C   0  0  0  0  0  0  0  0  0  0  0  0
   -2.1256   -3.2195    1.2524 C   0  0  0  0  0  0  0  0  0  0  0  0
   -1.8898   -1.8175    1.1465 O   0  0  0  0  0  0  0  0  0  0  0  0
   -1.5666   -1.3735   -0.1750 C   0  0  0  0  0  0  0  0  0  0  0  0
   -0.2272   -1.6942   -0.5664 O   0  0  0  0  0  0  0  0  0  0  0  0
    0.7649   -0.9511    0.0397 C   0  0  0  0  0  0  0  0  0  0  0  0
    2.1487   -1.5499    0.0369 C   0  0  0  0  0  0  0  0  0  0  0  0
    2.2897   -2.7550    0.2102 O   0  0  0  0  0  0  0  0  0  0  0  0
    3.1421   -0.6249   -0.2272 N   0  0  0  0  0  0  0  0  0  0  0  0
    4.5326   -0.8504   -0.2863 C   0  0  0  0  0  0  0  0  0  0  0  0
    5.1364   -2.0823   -0.0299 C   0  0  0  0  0  0  0  0  0  0  0  0
    6.5264   -2.2201   -0.1060 C   0  0  0  0  0  0  0  0  0  0  0  0
    7.3239   -1.1274   -0.4371 C   0  0  0  0  0  0  0  0  0  0  0  0
    6.7324    0.1064   -0.6923 C   0  0  0  0  0  0  0  0  0  0  0  0
    5.3438    0.2439   -0.6165 C   0  0  0  0  0  0  0  0  0  0  0  0
    0.5314    0.2148    0.6647 C   0  0  0  0  0  0  0  0  0  0  0  0
   -0.8256    0.8680    0.6740 C   0  0  0  0  0  0  0  0  0  0  0  0
   -0.7000    2.3555    0.3594 C   0  0  0  0  0  0  0  0  0  0  0  0
   -1.0453    3.3061    1.3329 C   0  0  0  0  0  0  0  0  0  0  0  0
   -0.9322    4.6718    1.0661 C   0  0  0  0  0  0  0  0  0  0  0  0
   -0.4699    5.1055   -0.1742 C   0  0  0  0  0  0  0  0  0  0  0  0
   -0.1182    4.1748   -1.1490 C   0  0  0  0  0  0  0  0  0  0  0  0
   -0.2301    2.8086   -0.8848 C   0  0  0  0  0  0  0  0  0  0  0  0
   -1.8167    0.1439   -0.2769 C   0  0  0  0  0  0  0  0  0  0  0  0
   -3.2735    0.5485    0.0500 C   0  0  0  0  0  0  0  0  0  0  0  0
   -4.3058   -0.0667   -0.8957 C   0  0  0  0  0  0  0  0  0  0  0  0
   -5.7068    0.4641   -0.6152 C   0  0  0  0  0  0  0  0  0  0  0  0
   -6.6341   -0.1429   -1.5048 O   0  0  0  0  0  0  0  0  0  0  0  0
   -0.1390   -3.5943    2.0253 H   0  0  0  0  0  0  0  0  0  0  0  0
   -0.3473   -4.0514    0.3331 H   0  0  0  0  0  0  0  0  0  0  0  0
   -1.0535   -5.0613    1.5963 H   0  0  0  0  0  0  0  0  0  0  0  0
   -2.6675   -3.3691    2.1924 H   0  0  0  0  0  0  0  0  0  0  0  0
   -2.7829   -3.5670    0.4475 H   0  0  0  0  0  0  0  0  0  0  0  0
   -2.2180   -1.8836   -0.8930 H   0  0  0  0  0  0  0  0  0  0  0  0
    2.8408    0.3162   -0.4415 H   0  0  0  0  0  0  0  0  0  0  0  0
    4.5543   -2.9596    0.2345 H   0  0  0  0  0  0  0  0  0  0  0  0
    6.9820   -3.1864    0.0956 H   0  0  0  0  0  0  0  0  0  0  0  0
    8.4034   -1.2391   -0.4950 H   0  0  0  0  0  0  0  0  0  0  0  0
    7.3506    0.9622   -0.9502 H   0  0  0  0  0  0  0  0  0  0  0  0
    4.9084    1.2186   -0.8197 H   0  0  0  0  0  0  0  0  0  0  0  0
    1.3213    0.7227    1.2126 H   0  0  0  0  0  0  0  0  0  0  0  0
   -1.1993    0.7675    1.7032 H   0  0  0  0  0  0  0  0  0  0  0  0
   -1.4076    2.9900    2.3092 H   0  0  0  0  0  0  0  0  0  0  0  0
   -1.2049    5.3977    1.8281 H   0  0  0  0  0  0  0  0  0  0  0  0
   -0.3828    6.1691   -0.3803 H   0  0  0  0  0  0  0  0  0  0  0  0
    0.2440    4.5136   -2.1163 H   0  0  0  0  0  0  0  0  0  0  0  0
    0.0548    2.1008   -1.6600 H   0  0  0  0  0  0  0  0  0  0  0  0
   -1.6046    0.4371   -1.3145 H   0  0  0  0  0  0  0  0  0  0  0  0
   -3.5187    0.2725    1.0832 H   0  0  0  0  0  0  0  0  0  0  0  0
   -3.3643    1.6399   -0.0090 H   0  0  0  0  0  0  0  0  0  0  0  0
   -4.0381    0.1443   -1.9383 H   0  0  0  0  0  0  0  0  0  0  0  0
   -4.3214   -1.1582   -0.8001 H   0  0  0  0  0  0  0  0  0  0  0  0
   -6.0150    0.2262    0.4076 H   0  0  0  0  0  0  0  0  0  0  0  0
   -5.7583    1.5498   -0.7461 H   0  0  0  0  0  0  0  0  0  0  0  0
   -6.3986    0.1326   -2.4071 H   0  0  0  0  0  0  0  0  0  0  0  0
  1  2  1  0
  2  3  1  0
  3  4  1  0
  4  5  1  0
  5  6  1  0
  6  7  1  0
  7  8  2  0
  7  9  1  0
  9 10  1  0
 10 11  2  0
 11 12  1  0
 12 13  2  0
 13 14  1  0
 14 15  2  0
  6 16  2  0
 16 17  1  0
 17 18  1  0
 18 19  2  0
 19 20  1  0
 20 21  2  0
 21 22  1  0
 22 23  2  0
 17 24  1  0
 24 25  1  0
 25 26  1  0
 26 27  1  0
 27 28  1  0
 24  4  1  0
 15 10  1  0
 23 18  1  0
  1 29  1  0
  1 30  1  0
  1 31  1  0
  2 32  1  0
  2 33  1  0
  4 34  1  0
  9 35  1  0
 11 36  1  0
 12 37  1  0
 13 38  1  0
 14 39  1  0
 15 40  1  0
 16 41  1  0
 17 42  1  0
 19 43  1  0
 20 44  1  0
 21 45  1  0
 22 46  1  0
 23 47  1  0
 24 48  1  0
 25 49  1  0
 25 50  1  0
 26 51  1  0
 26 52  1  0
 27 53  1  0
 27 54  1  0
 28 55  1  0
M  END
$$$$
