
     RDKit          3D

 44 46  0  0  0  0  0  0  0  0999 V2000
    7.5278   -0.6542    0.9604 C   0  0  0  0  0  0  0  0  0  0  0  0
    6.7420    0.6411    1.0403 C   0  0  0  0  0  0  0  0  0  0  0  0
    5.5129    0.5198    0.3092 O   0  0  0  0  0  0  0  0  0  0  0  0
    4.4652    0.0039    1.0000 C   0  0  0  0  0  0  0  0  0  0  0  0
    4.4848   -0.3614    2.1646 O   0  0  0  0  0  0  0  0  0  0  0  0
    3.2547   -0.0661    0.1366 C   0  0  0  0  0  0  0  0  0  0  0  0
    3.2581    0.3402   -1.2019 C   0  0  0  0  0  0  0  0  0  0  0  0
    2.0887    0.2511   -1.9679 C   0  0  0  0  0  0  0  0  0  0  0  0
    0.8887   -0.2202   -1.4131 C   0  0  0  0  0  0  0  0  0  0  0  0
   -0.2483   -0.3439   -2.2415 N   0  0  0  0  0  0  0  0  0  0  0  0
   -1.6145   -0.3397   -1.8632 C   0  0  0  0  0  0  0  0  0  0  0  0
   -2.5440   -0.7179   -2.8153 C   0  0  0  0  0  0  0  0  0  0  0  0
   -3.8715   -0.7196   -2.4390 C   0  0  0  0  0  0  0  0  0  0  0  0
   -4.9350   -1.1253   -3.4135 C   0  0  0  0  0  0  0  0  0  0  0  0
   -4.2660   -0.3684   -1.2027 N   0  0  0  0  0  0  0  0  0  0  0  0
   -3.3021   -0.0180   -0.3300 C   0  0  0  0  0  0  0  0  0  0  0  0
   -3.7099    0.3669    1.0371 C   0  0  0  0  0  0  0  0  0  0  0  0
   -5.0575    0.3199    1.4450 C   0  0  0  0  0  0  0  0  0  0  0  0
   -5.4445    0.6826    2.7396 C   0  0  0  0  0  0  0  0  0  0  0  0
   -4.4896    1.1028    3.6602 C   0  0  0  0  0  0  0  0  0  0  0  0
   -3.1503    1.1610    3.2877 C   0  0  0  0  0  0  0  0  0  0  0  0
   -2.7676    0.7975    1.9923 C   0  0  0  0  0  0  0  0  0  0  0  0
   -1.9888    0.0043   -0.6221 N   0  0  0  0  0  0  0  0  0  0  0  0
    0.9098   -0.6575   -0.0836 C   0  0  0  0  0  0  0  0  0  0  0  0
    2.0740   -0.5717    0.6894 C   0  0  0  0  0  0  0  0  0  0  0  0
    7.7013   -0.9347   -0.0837 H   0  0  0  0  0  0  0  0  0  0  0  0
    8.4933   -0.5538    1.4642 H   0  0  0  0  0  0  0  0  0  0  0  0
    6.9758   -1.4780    1.4237 H   0  0  0  0  0  0  0  0  0  0  0  0
    6.5607    0.9374    2.0799 H   0  0  0  0  0  0  0  0  0  0  0  0
    7.3143    1.4482    0.5713 H   0  0  0  0  0  0  0  0  0  0  0  0
    4.1622    0.7238   -1.6678 H   0  0  0  0  0  0  0  0  0  0  0  0
    2.1276    0.5625   -3.0090 H   0  0  0  0  0  0  0  0  0  0  0  0
   -0.1384    0.1636   -3.1126 H   0  0  0  0  0  0  0  0  0  0  0  0
   -2.2425   -1.0161   -3.8111 H   0  0  0  0  0  0  0  0  0  0  0  0
   -4.9216   -0.4641   -4.2855 H   0  0  0  0  0  0  0  0  0  0  0  0
   -4.7740   -2.1569   -3.7416 H   0  0  0  0  0  0  0  0  0  0  0  0
   -5.9276   -1.0645   -2.9554 H   0  0  0  0  0  0  0  0  0  0  0  0
   -5.8253   -0.0060    0.7448 H   0  0  0  0  0  0  0  0  0  0  0  0
   -6.4923    0.6349    3.0242 H   0  0  0  0  0  0  0  0  0  0  0  0
   -4.7884    1.3846    4.6663 H   0  0  0  0  0  0  0  0  0  0  0  0
   -2.3989    1.4889    4.0014 H   0  0  0  0  0  0  0  0  0  0  0  0
   -1.7126    0.8550    1.7270 H   0  0  0  0  0  0  0  0  0  0  0  0
    0.0187   -1.0822    0.3721 H   0  0  0  0  0  0  0  0  0  0  0  0
    2.0504   -0.9108    1.7234 H   0  0  0  0  0  0  0  0  0  0  0  0
  1  2  1  0
  2  3  1  0
  3  4  1  0
  4  5  2  0
  4  6  1  0
  6  7  2  0
  7  8  1  0
  8  9  2  0
  9 10  1  0
 10 11  1  0
 11 12  2  0
 12 13  1  0
 13 14  1  0
 13 15  2  0
 15 16  1  0
 16 17  1  0
 17 18  2  0
 18 19  1  0
 19 20  2  0
 20 21  1  0
 21 22  2  0
 16 23  2  0
  9 24  1  0
 24 25  2  0
 25  6  1  0
 23 11  1  0
 22 17  1  0
  1 26  1  0
  1 27  1  0
  1 28  1  0
  2 29  1  0
  2 30  1  0
  7 31  1  0
  8 32  1  0
 10 33  1  0
 12 34  1  0
 14 35  1  0
 14 36  1  0
 14 37  1  0
 18 38  1  0
 19 39  1  0
 20 40  1  0
 21 41  1  0
 22 42  1  0
 24 43  1  0
 25 44  1  0
M  END
$$$$
