
     RDKit          3D

 56 59  0  0  0  0  0  0  0  0999 V2000
    7.7170    1.9289    2.1605 C   0  0  0  0  0  0  0  0  0  0  0  0
    6.4265    2.5014    2.3309 O   0  0  0  0  0  0  0  0  0  0  0  0
    5.4094    1.9625    1.5929 C   0  0  0  0  0  0  0  0  0  0  0  0
    5.5303    0.9392    0.6562 C   0  0  0  0  0  0  0  0  0  0  0  0
    4.3987    0.4802   -0.0219 C   0  0  0  0  0  0  0  0  0  0  0  0
    3.1357    1.0342    0.2361 C   0  0  0  0  0  0  0  0  0  0  0  0
    2.0004    0.4417   -0.5183 C   0  0  0  0  0  0  0  0  0  0  0  0
    2.0697    0.4387   -1.7458 O   0  0  0  0  0  0  0  0  0  0  0  0
    0.8451   -0.1809    0.2632 C   0  0  0  0  0  0  0  0  0  0  0  0
    1.3516   -1.2408    1.2554 C   0  0  0  0  0  0  0  0  0  0  0  0
    0.3601   -2.3864    1.4529 C   0  0  0  0  0  0  0  0  0  0  0  0
   -1.0798   -1.9018    1.3156 C   0  0  0  0  0  0  0  0  0  0  0  0
   -1.3741   -1.3098    0.0055 N   0  0  0  0  0  0  0  0  0  0  0  0
   -2.1674   -2.2224   -0.8344 C   0  0  0  0  0  0  0  0  0  0  0  0
   -2.7829   -1.5207   -2.0065 C   0  0  0  0  0  0  0  0  0  0  0  0
   -2.3283   -1.5497   -3.3173 C   0  0  0  0  0  0  0  0  0  0  0  0
   -3.1512   -0.7135   -4.0858 C   0  0  0  0  0  0  0  0  0  0  0  0
   -4.1007   -0.1976   -3.2362 C   0  0  0  0  0  0  0  0  0  0  0  0
   -3.9084   -0.6933   -1.9511 N   0  0  0  0  0  0  0  0  0  0  0  0
   -4.7429   -0.4025   -0.8114 C   0  0  0  0  0  0  0  0  0  0  0  0
   -5.7023    0.6099   -0.8871 C   0  0  0  0  0  0  0  0  0  0  0  0
   -6.5015    0.8764    0.2250 C   0  0  0  0  0  0  0  0  0  0  0  0
   -6.3369    0.1290    1.3828 C   0  0  0  0  0  0  0  0  0  0  0  0
   -5.3801   -0.8657    1.3767 C   0  0  0  0  0  0  0  0  0  0  0  0
   -4.5926   -1.1434    0.3153 N   0  0  0  0  0  0  0  0  0  0  0  0
   -0.1850   -0.7937   -0.6994 C   0  0  0  0  0  0  0  0  0  0  0  0
    3.0026    2.0979    1.1416 C   0  0  0  0  0  0  0  0  0  0  0  0
    1.7007    2.7911    1.4172 C   0  0  0  0  0  0  0  0  0  0  0  0
    4.1525    2.5334    1.8261 C   0  0  0  0  0  0  0  0  0  0  0  0
    8.4090    2.4633    2.8187 H   0  0  0  0  0  0  0  0  0  0  0  0
    7.7214    0.8758    2.4573 H   0  0  0  0  0  0  0  0  0  0  0  0
    8.0725    2.0530    1.1330 H   0  0  0  0  0  0  0  0  0  0  0  0
    6.4846    0.4773    0.4279 H   0  0  0  0  0  0  0  0  0  0  0  0
    4.5015   -0.3214   -0.7507 H   0  0  0  0  0  0  0  0  0  0  0  0
    0.3332    0.6174    0.8099 H   0  0  0  0  0  0  0  0  0  0  0  0
    1.5365   -0.7534    2.2212 H   0  0  0  0  0  0  0  0  0  0  0  0
    2.3133   -1.6650    0.9423 H   0  0  0  0  0  0  0  0  0  0  0  0
    0.5538   -3.1757    0.7151 H   0  0  0  0  0  0  0  0  0  0  0  0
    0.5141   -2.8377    2.4401 H   0  0  0  0  0  0  0  0  0  0  0  0
   -1.7667   -2.7202    1.5645 H   0  0  0  0  0  0  0  0  0  0  0  0
   -1.2624   -1.1303    2.0754 H   0  0  0  0  0  0  0  0  0  0  0  0
   -1.5271   -3.0402   -1.1949 H   0  0  0  0  0  0  0  0  0  0  0  0
   -2.9532   -2.7274   -0.2641 H   0  0  0  0  0  0  0  0  0  0  0  0
   -1.4663   -2.1053   -3.6645 H   0  0  0  0  0  0  0  0  0  0  0  0
   -3.0653   -0.5046   -5.1441 H   0  0  0  0  0  0  0  0  0  0  0  0
   -4.9167    0.4673   -3.4705 H   0  0  0  0  0  0  0  0  0  0  0  0
   -5.8378    1.2251   -1.7682 H   0  0  0  0  0  0  0  0  0  0  0  0
   -7.2434    1.6690    0.1857 H   0  0  0  0  0  0  0  0  0  0  0  0
   -6.9415    0.3159    2.2631 H   0  0  0  0  0  0  0  0  0  0  0  0
   -5.2108   -1.4885    2.2508 H   0  0  0  0  0  0  0  0  0  0  0  0
   -0.5024   -0.0274   -1.4165 H   0  0  0  0  0  0  0  0  0  0  0  0
    0.3017   -1.5910   -1.2783 H   0  0  0  0  0  0  0  0  0  0  0  0
    1.8693    3.8050    1.7993 H   0  0  0  0  0  0  0  0  0  0  0  0
    1.1065    2.8944    0.5037 H   0  0  0  0  0  0  0  0  0  0  0  0
    1.1315    2.2377    2.1705 H   0  0  0  0  0  0  0  0  0  0  0  0
    4.0790    3.3446    2.5502 H   0  0  0  0  0  0  0  0  0  0  0  0
  1  2  1  0
  2  3  1  0
  3  4  2  0
  4  5  1  0
  5  6  2  0
  6  7  1  0
  7  8  2  0
  7  9  1  0
  9 10  1  0
 10 11  1  0
 11 12  1  0
 12 13  1  0
 13 14  1  0
 14 15  1  0
 15 16  2  0
 16 17  1  0
 17 18  2  0
 18 19  1  0
 19 20  1  0
 20 21  2  0
 21 22  1  0
 22 23  2  0
 23 24  1  0
 24 25  2  0
 13 26  1  0
  6 27  1  0
 27 28  1  0
 27 29  2  0
 29  3  1  0
 26  9  1  0
 19 15  1  0
 25 20  1  0
  1 30  1  0
  1 31  1  0
  1 32  1  0
  4 33  1  0
  5 34  1  0
  9 35  1  0
 10 36  1  0
 10 37  1  0
 11 38  1  0
 11 39  1  0
 12 40  1  0
 12 41  1  0
 14 42  1  0
 14 43  1  0
 16 44  1  0
 17 45  1  0
 18 46  1  0
 21 47  1  0
 22 48  1  0
 23 49  1  0
 24 50  1  0
 26 51  1  0
 26 52  1  0
 28 53  1  0
 28 54  1  0
 28 55  1  0
 29 56  1  0
M  END
$$$$
