
     RDKit          3D

 50 53  0  0  0  0  0  0  0  0999 V2000
   -4.6206   -4.6108   -0.8557 C   0  0  0  0  0  0  0  0  0  0  0  0
   -3.9548   -3.5808   -1.5746 O   0  0  0  0  0  0  0  0  0  0  0  0
   -3.1563   -2.7381   -0.8523 C   0  0  0  0  0  0  0  0  0  0  0  0
   -2.9836   -2.7545    0.5308 C   0  0  0  0  0  0  0  0  0  0  0  0
   -2.1325   -1.8282    1.1464 C   0  0  0  0  0  0  0  0  0  0  0  0
   -1.4347   -0.8736    0.3890 C   0  0  0  0  0  0  0  0  0  0  0  0
   -0.5392    0.1355    1.0927 C   0  0  0  0  0  0  0  0  0  0  0  0
   -1.2657    1.4673    1.2903 C   0  0  0  0  0  0  0  0  0  0  0  0
   -0.4974    2.3396    0.3360 C   0  0  0  0  0  0  0  0  0  0  0  0
   -0.9239    3.7248    0.0283 C   0  0  0  0  0  0  0  0  0  0  0  0
   -2.0232    4.3112    0.6657 C   0  0  0  0  0  0  0  0  0  0  0  0
   -2.3981    5.6202    0.3504 C   0  0  0  0  0  0  0  0  0  0  0  0
   -1.6792    6.3461   -0.5984 C   0  0  0  0  0  0  0  0  0  0  0  0
   -0.5829    5.7672   -1.2348 C   0  0  0  0  0  0  0  0  0  0  0  0
   -0.2049    4.4600   -0.9226 C   0  0  0  0  0  0  0  0  0  0  0  0
    0.5712    1.7976   -0.1653 N   0  0  0  0  0  0  0  0  0  0  0  0
    0.6383    0.5187    0.3099 N   0  0  0  0  0  0  0  0  0  0  0  0
    1.7575   -0.2747    0.0660 C   0  0  0  0  0  0  0  0  0  0  0  0
    2.8178    0.2055   -0.7271 C   0  0  0  0  0  0  0  0  0  0  0  0
    3.9570   -0.5624   -0.9906 C   0  0  0  0  0  0  0  0  0  0  0  0
    4.0571   -1.8393   -0.4458 C   0  0  0  0  0  0  0  0  0  0  0  0
    5.4959   -2.8225   -0.7602 S   0  0  0  0  0  6  0  0  0  0  0  0
    6.4983   -2.3595    0.5137 N   0  0  0  0  0  0  0  0  0  0  0  0
    6.1387   -2.3331   -1.9580 O   0  0  0  0  0  0  0  0  0  0  0  0
    5.1580   -4.2131   -0.5713 O   0  0  0  0  0  0  0  0  0  0  0  0
    3.0233   -2.3567    0.3322 C   0  0  0  0  0  0  0  0  0  0  0  0
    1.8889   -1.5746    0.5833 C   0  0  0  0  0  0  0  0  0  0  0  0
   -1.6236   -0.8613   -1.0003 C   0  0  0  0  0  0  0  0  0  0  0  0
   -2.4740   -1.7863   -1.6111 C   0  0  0  0  0  0  0  0  0  0  0  0
   -5.1865   -5.2094   -1.5760 H   0  0  0  0  0  0  0  0  0  0  0  0
   -5.3337   -4.1921   -0.1379 H   0  0  0  0  0  0  0  0  0  0  0  0
   -3.9043   -5.2748   -0.3606 H   0  0  0  0  0  0  0  0  0  0  0  0
   -3.4971   -3.4730    1.1608 H   0  0  0  0  0  0  0  0  0  0  0  0
   -2.0193   -1.8625    2.2281 H   0  0  0  0  0  0  0  0  0  0  0  0
   -0.2328   -0.2569    2.0708 H   0  0  0  0  0  0  0  0  0  0  0  0
   -2.3324    1.4363    1.0525 H   0  0  0  0  0  0  0  0  0  0  0  0
   -1.1197    1.8465    2.3074 H   0  0  0  0  0  0  0  0  0  0  0  0
   -2.6018    3.7742    1.4108 H   0  0  0  0  0  0  0  0  0  0  0  0
   -3.2529    6.0751    0.8453 H   0  0  0  0  0  0  0  0  0  0  0  0
   -1.9734    7.3640   -0.8426 H   0  0  0  0  0  0  0  0  0  0  0  0
   -0.0212    6.3313   -1.9752 H   0  0  0  0  0  0  0  0  0  0  0  0
    0.6522    4.0189   -1.4275 H   0  0  0  0  0  0  0  0  0  0  0  0
    2.7519    1.2024   -1.1600 H   0  0  0  0  0  0  0  0  0  0  0  0
    4.7441   -0.1542   -1.6199 H   0  0  0  0  0  0  0  0  0  0  0  0
    7.3164   -1.8850    0.1280 H   0  0  0  0  0  0  0  0  0  0  0  0
    6.0194   -1.7860    1.2075 H   0  0  0  0  0  0  0  0  0  0  0  0
    3.0837   -3.3631    0.7416 H   0  0  0  0  0  0  0  0  0  0  0  0
    1.1014   -2.0142    1.1885 H   0  0  0  0  0  0  0  0  0  0  0  0
   -1.1006   -0.1360   -1.6222 H   0  0  0  0  0  0  0  0  0  0  0  0
   -2.6005   -1.7657   -2.6909 H   0  0  0  0  0  0  0  0  0  0  0  0
  1  2  1  0
  2  3  1  0
  3  4  2  0
  4  5  1  0
  5  6  2  0
  6  7  1  0
  7  8  1  0
  8  9  1  0
  9 10  1  0
 10 11  2  0
 11 12  1  0
 12 13  2  0
 13 14  1  0
 14 15  2  0
  9 16  2  0
 16 17  1  0
 17 18  1  0
 18 19  2  0
 19 20  1  0
 20 21  2  0
 21 22  1  0
 22 23  1  0
 22 24  2  0
 22 25  2  0
 21 26  1  0
 26 27  2  0
  6 28  1  0
 28 29  2  0
 29  3  1  0
 17  7  1  0
 27 18  1  0
 15 10  1  0
  1 30  1  0
  1 31  1  0
  1 32  1  0
  4 33  1  0
  5 34  1  0
  7 35  1  0
  8 36  1  0
  8 37  1  0
 11 38  1  0
 12 39  1  0
 13 40  1  0
 14 41  1  0
 15 42  1  0
 19 43  1  0
 20 44  1  0
 23 45  1  0
 23 46  1  0
 26 47  1  0
 27 48  1  0
 28 49  1  0
 29 50  1  0
M  END
$$$$
