
     RDKit          3D

 65 68  0  0  0  0  0  0  0  0999 V2000
   -9.3647    1.7201   -2.4521 C   0  0  0  0  0  0  0  0  0  0  0  0
   -8.0699    1.8529   -1.7070 C   0  0  0  0  0  0  0  0  0  0  0  0
   -6.8553    1.5660   -2.3392 C   0  0  0  0  0  0  0  0  0  0  0  0
   -5.6512    1.6533   -1.6357 C   0  0  0  0  0  0  0  0  0  0  0  0
   -5.6430    2.0242   -0.2861 C   0  0  0  0  0  0  0  0  0  0  0  0
   -4.3492    2.0965    0.4836 C   0  0  0  0  0  0  0  0  0  0  0  0
   -4.0492    0.7938    1.2226 C   0  0  0  0  0  0  0  0  0  0  0  0
   -2.7947    0.8676    1.9512 N   0  0  0  0  0  0  0  0  0  0  0  0
   -2.4985   -0.0790    2.9114 C   0  0  0  0  0  0  0  0  0  0  0  0
   -3.3014   -0.9162    3.3092 O   0  0  0  0  0  0  0  0  0  0  0  0
   -1.0956    0.0507    3.4741 C   0  0  0  0  0  0  0  0  0  0  0  0
   -0.5317   -1.2905    3.9418 C   0  0  0  0  0  0  0  0  0  0  0  0
   -0.3825   -2.3177    2.8151 C   0  0  0  0  0  0  0  0  0  0  0  0
    0.5709   -1.9002    1.7910 N   0  0  0  0  0  0  0  0  0  0  0  0
    0.0255   -1.2433    0.6801 N   0  0  0  0  0  0  0  0  0  0  0  0
    0.7845   -0.8402   -0.3006 C   0  0  0  0  0  0  0  0  0  0  0  0
    0.1345   -0.1448   -1.4621 C   0  0  0  0  0  0  0  0  0  0  0  0
    2.2068   -1.0669   -0.2379 C   0  0  0  0  0  0  0  0  0  0  0  0
    3.2612   -0.8358   -1.1065 C   0  0  0  0  0  0  0  0  0  0  0  0
    3.2497   -0.3756   -2.5194 C   0  0  0  0  0  0  0  0  0  0  0  0
    4.4135   -1.1995   -0.3971 N   0  0  0  0  0  0  0  0  0  0  0  0
    5.7964   -1.0033   -0.7021 C   0  0  0  0  0  0  0  0  0  0  0  0
    6.2345   -0.0543   -1.6318 C   0  0  0  0  0  0  0  0  0  0  0  0
    7.6015    0.1045   -1.8920 C   0  0  0  0  0  0  0  0  0  0  0  0
    8.5523   -0.6788   -1.2296 C   0  0  0  0  0  0  0  0  0  0  0  0
   10.0173   -0.4854   -1.4854 C   0  0  0  0  0  0  0  0  0  0  0  0
    8.1196   -1.5999   -0.2722 C   0  0  0  0  0  0  0  0  0  0  0  0
    6.7562   -1.7585   -0.0074 C   0  0  0  0  0  0  0  0  0  0  0  0
    4.0886   -1.8337    0.7620 N   0  0  0  0  0  0  0  0  0  0  0  0
    2.7670   -1.6953    0.8787 C   0  0  0  0  0  0  0  0  0  0  0  0
    1.9454   -2.1509    1.9926 C   0  0  0  0  0  0  0  0  0  0  0  0
    2.3986   -2.6912    2.9988 O   0  0  0  0  0  0  0  0  0  0  0  0
   -6.8607    2.2927    0.3507 C   0  0  0  0  0  0  0  0  0  0  0  0
   -8.0637    2.2041   -0.3532 C   0  0  0  0  0  0  0  0  0  0  0  0
  -10.1271    2.3862   -2.0357 H   0  0  0  0  0  0  0  0  0  0  0  0
   -9.2376    1.9905   -3.5048 H   0  0  0  0  0  0  0  0  0  0  0  0
   -9.7261    0.6895   -2.3921 H   0  0  0  0  0  0  0  0  0  0  0  0
   -6.8410    1.2686   -3.3851 H   0  0  0  0  0  0  0  0  0  0  0  0
   -4.7206    1.4242   -2.1490 H   0  0  0  0  0  0  0  0  0  0  0  0
   -4.3926    2.9314    1.1951 H   0  0  0  0  0  0  0  0  0  0  0  0
   -3.5255    2.3384   -0.2007 H   0  0  0  0  0  0  0  0  0  0  0  0
   -4.8536    0.5533    1.9275 H   0  0  0  0  0  0  0  0  0  0  0  0
   -3.9696   -0.0446    0.5204 H   0  0  0  0  0  0  0  0  0  0  0  0
   -2.0039    1.2806    1.4739 H   0  0  0  0  0  0  0  0  0  0  0  0
   -0.4267    0.5131    2.7414 H   0  0  0  0  0  0  0  0  0  0  0  0
   -1.1540    0.7345    4.3293 H   0  0  0  0  0  0  0  0  0  0  0  0
    0.4432   -1.1144    4.4125 H   0  0  0  0  0  0  0  0  0  0  0  0
   -1.1834   -1.7137    4.7157 H   0  0  0  0  0  0  0  0  0  0  0  0
   -0.0333   -3.2637    3.2457 H   0  0  0  0  0  0  0  0  0  0  0  0
   -1.3425   -2.5283    2.3314 H   0  0  0  0  0  0  0  0  0  0  0  0
    0.6829    0.7663   -1.7141 H   0  0  0  0  0  0  0  0  0  0  0  0
   -0.8953    0.1280   -1.2136 H   0  0  0  0  0  0  0  0  0  0  0  0
    0.1168   -0.8156   -2.3249 H   0  0  0  0  0  0  0  0  0  0  0  0
    3.3279    0.7140   -2.5740 H   0  0  0  0  0  0  0  0  0  0  0  0
    2.3235   -0.6699   -3.0200 H   0  0  0  0  0  0  0  0  0  0  0  0
    4.0539   -0.8313   -3.1040 H   0  0  0  0  0  0  0  0  0  0  0  0
    5.5557    0.6181   -2.1410 H   0  0  0  0  0  0  0  0  0  0  0  0
    7.9202    0.8569   -2.6108 H   0  0  0  0  0  0  0  0  0  0  0  0
   10.5486   -1.4411   -1.4367 H   0  0  0  0  0  0  0  0  0  0  0  0
   10.4411    0.1964   -0.7416 H   0  0  0  0  0  0  0  0  0  0  0  0
   10.1907   -0.0685   -2.4827 H   0  0  0  0  0  0  0  0  0  0  0  0
    8.8394   -2.2008    0.2797 H   0  0  0  0  0  0  0  0  0  0  0  0
    6.4571   -2.4889    0.7438 H   0  0  0  0  0  0  0  0  0  0  0  0
   -6.8826    2.5659    1.4039 H   0  0  0  0  0  0  0  0  0  0  0  0
   -8.9980    2.4076    0.1653 H   0  0  0  0  0  0  0  0  0  0  0  0
  1  2  1  0
  2  3  2  0
  3  4  1  0
  4  5  2  0
  5  6  1  0
  6  7  1  0
  7  8  1  0
  8  9  1  0
  9 10  2  0
  9 11  1  0
 11 12  1  0
 12 13  1  0
 13 14  1  0
 14 15  1  0
 15 16  2  0
 16 17  1  0
 16 18  1  0
 18 19  2  0
 19 20  1  0
 19 21  1  0
 21 22  1  0
 22 23  2  0
 23 24  1  0
 24 25  2  0
 25 26  1  0
 25 27  1  0
 27 28  2  0
 21 29  1  0
 29 30  2  0
 30 31  1  0
 31 32  2  0
  5 33  1  0
 33 34  2  0
 34  2  1  0
 31 14  1  0
 30 18  1  0
 28 22  1  0
  1 35  1  0
  1 36  1  0
  1 37  1  0
  3 38  1  0
  4 39  1  0
  6 40  1  0
  6 41  1  0
  7 42  1  0
  7 43  1  0
  8 44  1  0
 11 45  1  0
 11 46  1  0
 12 47  1  0
 12 48  1  0
 13 49  1  0
 13 50  1  0
 17 51  1  0
 17 52  1  0
 17 53  1  0
 20 54  1  0
 20 55  1  0
 20 56  1  0
 23 57  1  0
 24 58  1  0
 26 59  1  0
 26 60  1  0
 26 61  1  0
 27 62  1  0
 28 63  1  0
 33 64  1  0
 34 65  1  0
M  END
$$$$
