
     RDKit          3D

 42 44  0  0  0  0  0  0  0  0999 V2000
    1.9275    3.0853    1.1051 C   0  0  0  0  0  0  0  0  0  0  0  0
    2.1442    2.0186    0.1889 O   0  0  0  0  0  0  0  0  0  0  0  0
    1.0840    1.1911   -0.0710 C   0  0  0  0  0  0  0  0  0  0  0  0
   -0.1551    1.2522    0.5693 C   0  0  0  0  0  0  0  0  0  0  0  0
   -1.1892    0.3485    0.2644 C   0  0  0  0  0  0  0  0  0  0  0  0
   -2.3913    0.5183    0.9808 N   0  0  0  0  0  0  0  0  0  0  0  0
   -2.8530   -0.6604    1.7386 C   0  0  0  0  0  0  0  0  0  0  0  0
   -4.2944   -0.8938    1.2917 C   0  0  0  0  0  0  0  0  0  0  0  0
   -4.7453    0.4850    0.8463 C   0  0  0  0  0  0  0  0  0  0  0  0
   -3.4998    1.0242    0.1538 C   0  0  0  0  0  0  0  0  0  0  0  0
   -0.9603   -0.6432   -0.7161 C   0  0  0  0  0  0  0  0  0  0  0  0
   -2.0032   -1.4940   -0.9917 O   0  0  0  0  0  0  0  0  0  0  0  0
   -1.7311   -2.6271   -1.8044 C   0  0  0  0  0  0  0  0  0  0  0  0
    0.2801   -0.6981   -1.3642 C   0  0  0  0  0  0  0  0  0  0  0  0
    1.3044    0.2134   -1.0527 C   0  0  0  0  0  0  0  0  0  0  0  0
    2.6342    0.1175   -1.7664 C   0  0  0  0  0  0  0  0  0  0  0  0
    3.7061   -0.4139   -0.8812 C   0  0  0  0  0  0  0  0  0  0  0  0
    3.7849   -1.5985   -0.3515 N   0  0  0  0  0  0  0  0  0  0  0  0
    4.9436   -1.5988    0.3984 C   0  0  0  0  0  0  0  0  0  0  0  0
    5.5649   -2.8616    1.2837 S   0  0  0  0  0  0  0  0  0  0  0  0
    5.5736   -0.3984    0.3330 N   0  0  0  0  0  0  0  0  0  0  0  0
    4.9020    0.4188   -0.4978 C   0  0  0  0  0  0  0  0  0  0  0  0
    5.1821    1.5169   -0.9147 O   0  0  0  0  0  0  0  0  0  0  0  0
    1.1304    3.7509    0.7578 H   0  0  0  0  0  0  0  0  0  0  0  0
    2.8504    3.6710    1.1580 H   0  0  0  0  0  0  0  0  0  0  0  0
    1.7183    2.7038    2.1097 H   0  0  0  0  0  0  0  0  0  0  0  0
   -0.3608    1.9942    1.3344 H   0  0  0  0  0  0  0  0  0  0  0  0
   -2.8343   -0.4014    2.8039 H   0  0  0  0  0  0  0  0  0  0  0  0
   -2.2404   -1.5601    1.6134 H   0  0  0  0  0  0  0  0  0  0  0  0
   -4.3227   -1.5903    0.4458 H   0  0  0  0  0  0  0  0  0  0  0  0
   -4.9169   -1.3063    2.0907 H   0  0  0  0  0  0  0  0  0  0  0  0
   -5.6147    0.4554    0.1840 H   0  0  0  0  0  0  0  0  0  0  0  0
   -4.9939    1.1015    1.7185 H   0  0  0  0  0  0  0  0  0  0  0  0
   -3.4644    0.6575   -0.8792 H   0  0  0  0  0  0  0  0  0  0  0  0
   -3.5004    2.1190    0.1311 H   0  0  0  0  0  0  0  0  0  0  0  0
   -0.9207   -3.2336   -1.3864 H   0  0  0  0  0  0  0  0  0  0  0  0
   -2.6327   -3.2470   -1.8241 H   0  0  0  0  0  0  0  0  0  0  0  0
   -1.5132   -2.3270   -2.8344 H   0  0  0  0  0  0  0  0  0  0  0  0
    0.4765   -1.4472   -2.1246 H   0  0  0  0  0  0  0  0  0  0  0  0
    2.9120    1.0990   -2.1657 H   0  0  0  0  0  0  0  0  0  0  0  0
    2.5570   -0.5518   -2.6317 H   0  0  0  0  0  0  0  0  0  0  0  0
    6.4614   -0.1895    0.7566 H   0  0  0  0  0  0  0  0  0  0  0  0
  1  2  1  0
  2  3  1  0
  3  4  2  0
  4  5  1  0
  5  6  1  0
  6  7  1  0
  7  8  1  0
  8  9  1  0
  9 10  1  0
  5 11  2  0
 11 12  1  0
 12 13  1  0
 11 14  1  0
 14 15  2  0
 15 16  1  0
 16 17  1  0
 17 18  2  0
 18 19  1  0
 19 20  2  0
 19 21  1  0
 21 22  1  0
 22 23  2  0
 15  3  1  0
 22 17  1  0
 10  6  1  0
  1 24  1  0
  1 25  1  0
  1 26  1  0
  4 27  1  0
  7 28  1  0
  7 29  1  0
  8 30  1  0
  8 31  1  0
  9 32  1  0
  9 33  1  0
 10 34  1  0
 10 35  1  0
 13 36  1  0
 13 37  1  0
 13 38  1  0
 14 39  1  0
 16 40  1  0
 16 41  1  0
 21 42  1  0
M  END
$$$$
