
     RDKit          3D

 42 44  0  0  0  0  0  0  0  0999 V2000
   -5.3007    1.9396   -0.2457 C   0  0  0  0  0  0  0  0  0  0  0  0
   -4.9137    0.4622   -0.0767 C   0  0  0  0  0  0  0  0  0  0  0  0
   -5.5073   -0.0930    1.2274 C   0  0  0  0  0  0  0  0  0  0  0  0
   -5.5030   -0.3326   -1.2561 C   0  0  0  0  0  0  0  0  0  0  0  0
   -3.4583    0.2968   -0.1006 N   0  0  0  0  0  0  0  0  0  0  0  0
   -2.5624    0.8554    0.7954 C   0  0  0  0  0  0  0  0  0  0  0  0
   -2.8935    1.5709    1.7349 O   0  0  0  0  0  0  0  0  0  0  0  0
   -1.1551    0.4969    0.5007 C   0  0  0  0  0  0  0  0  0  0  0  0
   -0.0861    0.9286    1.2451 N   0  0  0  0  0  0  0  0  0  0  0  0
    0.9571    0.3949    0.6565 C   0  0  0  0  0  0  0  0  0  0  0  0
    2.2751    0.5025    0.9857 N   0  0  0  0  0  0  0  0  0  0  0  0
    3.1321   -0.1231    0.2315 C   0  0  0  0  0  0  0  0  0  0  0  0
    4.5859   -0.0276    0.5543 C   0  0  0  0  0  0  0  0  0  0  0  0
    5.5714   -0.0349   -0.4412 C   0  0  0  0  0  0  0  0  0  0  0  0
    6.9209    0.0588   -0.0902 C   0  0  0  0  0  0  0  0  0  0  0  0
    7.2905    0.1688    1.2498 C   0  0  0  0  0  0  0  0  0  0  0  0
    6.3133    0.1947    2.2431 C   0  0  0  0  0  0  0  0  0  0  0  0
    4.9641    0.1019    1.8974 C   0  0  0  0  0  0  0  0  0  0  0  0
    2.7543   -0.9710   -0.9458 C   0  0  0  0  0  0  0  0  0  0  0  0
    1.4400   -1.0463   -1.2314 C   0  0  0  0  0  0  0  0  0  0  0  0
    0.8780   -1.8367   -2.3482 C   0  0  0  0  0  0  0  0  0  0  0  0
    0.2079   -1.0700   -3.2431 F   0  0  0  0  0  0  0  0  0  0  0  0
    1.8572   -2.4677   -3.0537 F   0  0  0  0  0  0  0  0  0  0  0  0
    0.0342   -2.8098   -1.9259 F   0  0  0  0  0  0  0  0  0  0  0  0
    0.5302   -0.3614   -0.4387 N   0  0  0  0  0  0  0  0  0  0  0  0
   -0.8185   -0.2943   -0.5385 N   0  0  0  0  0  0  0  0  0  0  0  0
   -6.3880    2.0584   -0.3146 H   0  0  0  0  0  0  0  0  0  0  0  0
   -4.8577    2.3604   -1.1557 H   0  0  0  0  0  0  0  0  0  0  0  0
   -4.9592    2.5511    0.5957 H   0  0  0  0  0  0  0  0  0  0  0  0
   -6.6023   -0.0499    1.2135 H   0  0  0  0  0  0  0  0  0  0  0  0
   -5.2133   -1.1380    1.3794 H   0  0  0  0  0  0  0  0  0  0  0  0
   -5.1704    0.4709    2.1031 H   0  0  0  0  0  0  0  0  0  0  0  0
   -5.2508   -1.3968   -1.1802 H   0  0  0  0  0  0  0  0  0  0  0  0
   -5.1059    0.0276   -2.2124 H   0  0  0  0  0  0  0  0  0  0  0  0
   -6.5949   -0.2474   -1.2917 H   0  0  0  0  0  0  0  0  0  0  0  0
   -3.0329   -0.2746   -0.8261 H   0  0  0  0  0  0  0  0  0  0  0  0
    5.3159   -0.0838   -1.4954 H   0  0  0  0  0  0  0  0  0  0  0  0
    7.6862    0.0573   -0.8630 H   0  0  0  0  0  0  0  0  0  0  0  0
    8.3410    0.2462    1.5203 H   0  0  0  0  0  0  0  0  0  0  0  0
    6.5997    0.2933    3.2875 H   0  0  0  0  0  0  0  0  0  0  0  0
    4.2108    0.1316    2.6829 H   0  0  0  0  0  0  0  0  0  0  0  0
    3.5083   -1.5099   -1.5061 H   0  0  0  0  0  0  0  0  0  0  0  0
  1  2  1  0
  2  3  1  0
  2  4  1  0
  2  5  1  0
  5  6  1  0
  6  7  2  0
  6  8  1  0
  8  9  1  0
  9 10  2  0
 10 11  1  0
 11 12  2  0
 12 13  1  0
 13 14  2  0
 14 15  1  0
 15 16  2  0
 16 17  1  0
 17 18  2  0
 12 19  1  0
 19 20  2  0
 20 21  1  0
 21 22  1  0
 21 23  1  0
 21 24  1  0
 20 25  1  0
 25 26  1  0
 26  8  2  0
 25 10  1  0
 18 13  1  0
  1 27  1  0
  1 28  1  0
  1 29  1  0
  3 30  1  0
  3 31  1  0
  3 32  1  0
  4 33  1  0
  4 34  1  0
  4 35  1  0
  5 36  1  0
 14 37  1  0
 15 38  1  0
 16 39  1  0
 17 40  1  0
 18 41  1  0
 19 42  1  0
M  END
$$$$
