
     RDKit          3D

 57 60  0  0  0  0  0  0  0  0999 V2000
    4.9009   -3.2830    1.4156 C   0  0  0  0  0  0  0  0  0  0  0  0
    4.9548   -1.7613    1.3383 C   0  0  0  0  0  0  0  0  0  0  0  0
    5.5301   -1.2418    0.0356 C   0  0  0  0  0  0  0  0  0  0  0  0
    6.8980   -1.5023   -0.1919 C   0  0  0  0  0  0  0  0  0  0  0  0
    7.5720   -0.9566   -1.2788 C   0  0  0  0  0  0  0  0  0  0  0  0
    6.8963   -0.1192   -2.1555 C   0  0  0  0  0  0  0  0  0  0  0  0
    5.5332    0.1621   -1.9694 C   0  0  0  0  0  0  0  0  0  0  0  0
    4.8604    1.0666   -2.9701 C   0  0  0  0  0  0  0  0  0  0  0  0
    4.8321   -0.4255   -0.8842 C   0  0  0  0  0  0  0  0  0  0  0  0
    3.4605   -0.0939   -0.7474 N   0  0  0  0  0  0  0  0  0  0  0  0
    2.4419   -0.9896   -0.4700 C   0  0  0  0  0  0  0  0  0  0  0  0
    2.5528   -2.2033   -0.3514 O   0  0  0  0  0  0  0  0  0  0  0  0
    1.0796   -0.3842   -0.4040 C   0  0  0  0  0  0  0  0  0  0  0  0
   -0.0221   -1.1697   -0.7623 C   0  0  0  0  0  0  0  0  0  0  0  0
   -1.3127   -0.6374   -0.7125 C   0  0  0  0  0  0  0  0  0  0  0  0
   -1.5204    0.6837   -0.2920 C   0  0  0  0  0  0  0  0  0  0  0  0
   -2.9208    1.2638   -0.2382 C   0  0  0  0  0  0  0  0  0  0  0  0
   -3.2944    1.7556    1.0979 N   0  0  0  0  0  0  0  0  0  0  0  0
   -3.3823    0.6935    2.1164 C   0  0  0  0  0  0  0  0  0  0  0  0
   -4.4816   -0.3486    1.8605 C   0  0  0  0  0  0  0  0  0  0  0  0
   -5.7761    0.2704    1.3940 C   0  0  0  0  0  0  0  0  0  0  0  0
   -6.9398   -0.5077    1.3324 C   0  0  0  0  0  0  0  0  0  0  0  0
   -8.1331    0.0451    0.8693 C   0  0  0  0  0  0  0  0  0  0  0  0
   -8.1725    1.3762    0.4612 C   0  0  0  0  0  0  0  0  0  0  0  0
   -7.0174    2.1568    0.5119 C   0  0  0  0  0  0  0  0  0  0  0  0
   -5.8079    1.6101    0.9649 C   0  0  0  0  0  0  0  0  0  0  0  0
   -4.5753    2.4852    1.0561 C   0  0  0  0  0  0  0  0  0  0  0  0
   -0.4125    1.4624    0.0769 C   0  0  0  0  0  0  0  0  0  0  0  0
    0.8795    0.9326    0.0285 C   0  0  0  0  0  0  0  0  0  0  0  0
    5.9049   -3.7199    1.4184 H   0  0  0  0  0  0  0  0  0  0  0  0
    4.3569   -3.7164    0.5715 H   0  0  0  0  0  0  0  0  0  0  0  0
    4.4040   -3.5941    2.3402 H   0  0  0  0  0  0  0  0  0  0  0  0
    3.9680   -1.3417    1.5475 H   0  0  0  0  0  0  0  0  0  0  0  0
    5.5854   -1.3892    2.1573 H   0  0  0  0  0  0  0  0  0  0  0  0
    7.4579   -2.1204    0.5077 H   0  0  0  0  0  0  0  0  0  0  0  0
    8.6266   -1.1706   -1.4292 H   0  0  0  0  0  0  0  0  0  0  0  0
    7.4404    0.3111   -2.9934 H   0  0  0  0  0  0  0  0  0  0  0  0
    4.5324    1.9911   -2.4843 H   0  0  0  0  0  0  0  0  0  0  0  0
    4.0012    0.5623   -3.4242 H   0  0  0  0  0  0  0  0  0  0  0  0
    5.5383    1.3456   -3.7840 H   0  0  0  0  0  0  0  0  0  0  0  0
    3.1552    0.7297   -1.2469 H   0  0  0  0  0  0  0  0  0  0  0  0
    0.1236   -2.1999   -1.0826 H   0  0  0  0  0  0  0  0  0  0  0  0
   -2.1546   -1.2648   -0.9976 H   0  0  0  0  0  0  0  0  0  0  0  0
   -3.6439    0.5369   -0.6274 H   0  0  0  0  0  0  0  0  0  0  0  0
   -2.9281    2.1009   -0.9499 H   0  0  0  0  0  0  0  0  0  0  0  0
   -3.5704    1.1727    3.0875 H   0  0  0  0  0  0  0  0  0  0  0  0
   -2.4182    0.1862    2.2401 H   0  0  0  0  0  0  0  0  0  0  0  0
   -4.1457   -1.0607    1.0971 H   0  0  0  0  0  0  0  0  0  0  0  0
   -4.6558   -0.9111    2.7855 H   0  0  0  0  0  0  0  0  0  0  0  0
   -6.9204   -1.5493    1.6448 H   0  0  0  0  0  0  0  0  0  0  0  0
   -9.0329   -0.5630    0.8275 H   0  0  0  0  0  0  0  0  0  0  0  0
   -9.1045    1.8076    0.1054 H   0  0  0  0  0  0  0  0  0  0  0  0
   -7.0659    3.1970    0.1976 H   0  0  0  0  0  0  0  0  0  0  0  0
   -4.5637    3.2055    0.2281 H   0  0  0  0  0  0  0  0  0  0  0  0
   -4.6613    3.0831    1.9732 H   0  0  0  0  0  0  0  0  0  0  0  0
   -0.5632    2.4827    0.4259 H   0  0  0  0  0  0  0  0  0  0  0  0
    1.7109    1.5488    0.3600 H   0  0  0  0  0  0  0  0  0  0  0  0
  1  2  1  0
  2  3  1  0
  3  4  2  0
  4  5  1  0
  5  6  2  0
  6  7  1  0
  7  8  1  0
  7  9  2  0
  9 10  1  0
 10 11  1  0
 11 12  2  0
 11 13  1  0
 13 14  2  0
 14 15  1  0
 15 16  2  0
 16 17  1  0
 17 18  1  0
 18 19  1  0
 19 20  1  0
 20 21  1  0
 21 22  2  0
 22 23  1  0
 23 24  2  0
 24 25  1  0
 25 26  2  0
 26 27  1  0
 16 28  1  0
 28 29  2  0
  9  3  1  0
 29 13  1  0
 27 18  1  0
 26 21  1  0
  1 30  1  0
  1 31  1  0
  1 32  1  0
  2 33  1  0
  2 34  1  0
  4 35  1  0
  5 36  1  0
  6 37  1  0
  8 38  1  0
  8 39  1  0
  8 40  1  0
 10 41  1  0
 14 42  1  0
 15 43  1  0
 17 44  1  0
 17 45  1  0
 19 46  1  0
 19 47  1  0
 20 48  1  0
 20 49  1  0
 22 50  1  0
 23 51  1  0
 24 52  1  0
 25 53  1  0
 27 54  1  0
 27 55  1  0
 28 56  1  0
 29 57  1  0
M  END
$$$$
