
     RDKit          3D

 48 50  0  0  0  0  0  0  0  0999 V2000
   -1.7622    0.3155   -1.1921 O   0  0  0  0  0  0  0  0  0  0  0  0
   -2.0555    1.4157   -0.7331 C   0  0  0  0  0  0  0  0  0  0  0  0
   -1.1784    2.2107    0.2109 C   0  0  0  0  0  0  0  0  0  0  0  0
    0.1106    1.4939    0.6105 C   0  0  0  0  0  0  0  0  0  0  0  0
    1.0961    1.3344   -0.5541 C   0  0  0  0  0  0  0  0  0  0  0  0
    2.4405    1.0028   -0.0747 N   0  0  0  0  0  0  0  0  0  0  0  0
    2.7545   -0.3243    0.1656 C   0  0  0  0  0  0  0  0  0  0  0  0
    2.0161   -1.2852    0.0007 O   0  0  0  0  0  0  0  0  0  0  0  0
    4.1453   -0.4393    0.6759 C   0  0  0  0  0  0  0  0  0  0  0  0
    4.6865   -1.6228    0.9927 C   0  0  0  0  0  0  0  0  0  0  0  0
    6.0442   -1.8114    1.5201 C   0  0  0  0  0  0  0  0  0  0  0  0
    7.0793   -2.0726    0.6106 C   0  0  0  0  0  0  0  0  0  0  0  0
    8.3897   -2.2502    1.0601 C   0  0  0  0  0  0  0  0  0  0  0  0
    8.6790   -2.1691    2.4208 C   0  0  0  0  0  0  0  0  0  0  0  0
    7.6579   -1.9108    3.3357 C   0  0  0  0  0  0  0  0  0  0  0  0
    6.3451   -1.7323    2.8898 C   0  0  0  0  0  0  0  0  0  0  0  0
    5.1232   -1.4218    4.0742 Cl  0  0  0  0  0  0  0  0  0  0  0  0
    4.8686    1.1130    0.7884 S   0  0  0  0  0  0  0  0  0  0  0  0
    3.4169    1.9315    0.2248 C   0  0  0  0  0  0  0  0  0  0  0  0
    3.3296    3.5941    0.1047 S   0  0  0  0  0  0  0  0  0  0  0  0
   -3.2318    2.0665   -1.0559 N   0  0  0  0  0  0  0  0  0  0  0  0
   -4.2116    1.3007   -1.7204 N   0  0  0  0  0  0  0  0  0  0  0  0
   -5.5075    1.4180   -1.2506 C   0  0  0  0  0  0  0  0  0  0  0  0
   -5.8320    2.2706   -0.4268 O   0  0  0  0  0  0  0  0  0  0  0  0
   -6.4986    0.4310   -1.7630 C   0  0  0  0  0  0  0  0  0  0  0  0
   -6.3110   -0.2636   -2.9664 C   0  0  0  0  0  0  0  0  0  0  0  0
   -7.2755   -1.1775   -3.4047 C   0  0  0  0  0  0  0  0  0  0  0  0
   -8.4270   -1.3923   -2.6481 C   0  0  0  0  0  0  0  0  0  0  0  0
   -9.6095   -2.5159   -3.1929 Cl  0  0  0  0  0  0  0  0  0  0  0  0
   -8.6282   -0.6972   -1.4575 C   0  0  0  0  0  0  0  0  0  0  0  0
   -7.6668    0.2166   -1.0172 C   0  0  0  0  0  0  0  0  0  0  0  0
   -1.7630    2.4098    1.1173 H   0  0  0  0  0  0  0  0  0  0  0  0
   -0.9455    3.1748   -0.2558 H   0  0  0  0  0  0  0  0  0  0  0  0
    0.5823    2.0730    1.4140 H   0  0  0  0  0  0  0  0  0  0  0  0
   -0.1173    0.5082    1.0347 H   0  0  0  0  0  0  0  0  0  0  0  0
    1.1386    2.2524   -1.1484 H   0  0  0  0  0  0  0  0  0  0  0  0
    0.7632    0.5358   -1.2257 H   0  0  0  0  0  0  0  0  0  0  0  0
    4.1079   -2.5380    0.8802 H   0  0  0  0  0  0  0  0  0  0  0  0
    6.8734   -2.1366   -0.4561 H   0  0  0  0  0  0  0  0  0  0  0  0
    9.1856   -2.4503    0.3463 H   0  0  0  0  0  0  0  0  0  0  0  0
    9.6996   -2.3063    2.7697 H   0  0  0  0  0  0  0  0  0  0  0  0
    7.8913   -1.8492    4.3957 H   0  0  0  0  0  0  0  0  0  0  0  0
   -3.6090    2.7857   -0.4361 H   0  0  0  0  0  0  0  0  0  0  0  0
   -3.8711    0.4171   -2.1003 H   0  0  0  0  0  0  0  0  0  0  0  0
   -5.4374   -0.0943   -3.5899 H   0  0  0  0  0  0  0  0  0  0  0  0
   -7.1263   -1.7126   -4.3396 H   0  0  0  0  0  0  0  0  0  0  0  0
   -9.5282   -0.8580   -0.8694 H   0  0  0  0  0  0  0  0  0  0  0  0
   -7.8316    0.7601   -0.0881 H   0  0  0  0  0  0  0  0  0  0  0  0
  1  2  2  0
  2  3  1  0
  3  4  1  0
  4  5  1  0
  5  6  1  0
  6  7  1  0
  7  8  2  0
  7  9  1  0
  9 10  2  3
 10 11  1  0
 11 12  2  0
 12 13  1  0
 13 14  2  0
 14 15  1  0
 15 16  2  0
 16 17  1  0
  9 18  1  0
 18 19  1  0
 19 20  2  0
  2 21  1  0
 21 22  1  0
 22 23  1  0
 23 24  2  0
 23 25  1  0
 25 26  2  0
 26 27  1  0
 27 28  2  0
 28 29  1  0
 28 30  1  0
 30 31  2  0
 19  6  1  0
 31 25  1  0
 16 11  1  0
  3 32  1  0
  3 33  1  0
  4 34  1  0
  4 35  1  0
  5 36  1  0
  5 37  1  0
 10 38  1  0
 12 39  1  0
 13 40  1  0
 14 41  1  0
 15 42  1  0
 21 43  1  0
 22 44  1  0
 26 45  1  0
 27 46  1  0
 30 47  1  0
 31 48  1  0
M  END
$$$$
