
     RDKit          3D

 43 45  0  0  0  0  0  0  0  0999 V2000
    3.7581    1.3941    2.2004 C   0  0  0  0  0  0  0  0  0  0  0  0
    3.6265   -0.1243    2.1510 C   0  0  0  0  0  0  0  0  0  0  0  0
    3.8308   -0.6762    0.7431 C   0  0  0  0  0  0  0  0  0  0  0  0
    2.0755   -0.7215    2.9402 S   0  0  0  0  0  0  0  0  0  0  0  0
    0.8472   -0.4001    1.6875 C   0  0  0  0  0  0  0  0  0  0  0  0
   -0.0036   -1.4187    1.3165 C   0  0  0  0  0  0  0  0  0  0  0  0
   -0.9532   -1.1377    0.3560 C   0  0  0  0  0  0  0  0  0  0  0  0
   -1.8546   -2.1069   -0.0690 N   0  0  0  0  0  0  0  0  0  0  0  0
   -2.9200   -1.6596   -0.9820 C   0  0  0  0  0  0  0  0  0  0  0  0
   -3.8694   -2.8331   -1.2692 C   0  0  0  0  0  0  0  0  0  0  0  0
   -3.2310   -3.9623   -1.8873 O   0  0  0  0  0  0  0  0  0  0  0  0
   -1.8172   -4.0132   -1.6551 C   0  0  0  0  0  0  0  0  0  0  0  0
   -1.3974   -3.4935   -0.2690 C   0  0  0  0  0  0  0  0  0  0  0  0
   -1.0522    0.1014   -0.1525 N   0  0  0  0  0  0  0  0  0  0  0  0
   -0.1965    1.0475    0.2795 C   0  0  0  0  0  0  0  0  0  0  0  0
   -0.3276    2.4039   -0.2918 C   0  0  0  0  0  0  0  0  0  0  0  0
    0.4084    3.4923    0.2160 C   0  0  0  0  0  0  0  0  0  0  0  0
    0.2862    4.7765   -0.3251 C   0  0  0  0  0  0  0  0  0  0  0  0
   -0.5791    5.0039   -1.3906 C   0  0  0  0  0  0  0  0  0  0  0  0
   -1.3220    3.9501   -1.9133 C   0  0  0  0  0  0  0  0  0  0  0  0
   -1.1969    2.6676   -1.3689 C   0  0  0  0  0  0  0  0  0  0  0  0
    0.7676    0.8382    1.1877 N   0  0  0  0  0  0  0  0  0  0  0  0
    4.7686    1.6921    1.8978 H   0  0  0  0  0  0  0  0  0  0  0  0
    3.0644    1.8970    1.5226 H   0  0  0  0  0  0  0  0  0  0  0  0
    3.5962    1.7786    3.2131 H   0  0  0  0  0  0  0  0  0  0  0  0
    4.4265   -0.5344    2.7791 H   0  0  0  0  0  0  0  0  0  0  0  0
    3.1176   -0.2603    0.0245 H   0  0  0  0  0  0  0  0  0  0  0  0
    4.8339   -0.4224    0.3818 H   0  0  0  0  0  0  0  0  0  0  0  0
    3.7455   -1.7681    0.7257 H   0  0  0  0  0  0  0  0  0  0  0  0
    0.0621   -2.3932    1.7808 H   0  0  0  0  0  0  0  0  0  0  0  0
   -3.4957   -0.8434   -0.5295 H   0  0  0  0  0  0  0  0  0  0  0  0
   -2.4841   -1.3050   -1.9247 H   0  0  0  0  0  0  0  0  0  0  0  0
   -4.6795   -2.5112   -1.9312 H   0  0  0  0  0  0  0  0  0  0  0  0
   -4.3275   -3.1867   -0.3380 H   0  0  0  0  0  0  0  0  0  0  0  0
   -1.3257   -3.4336   -2.4456 H   0  0  0  0  0  0  0  0  0  0  0  0
   -1.5028   -5.0550   -1.7748 H   0  0  0  0  0  0  0  0  0  0  0  0
   -0.3093   -3.5935   -0.1850 H   0  0  0  0  0  0  0  0  0  0  0  0
   -1.8578   -4.1141    0.5083 H   0  0  0  0  0  0  0  0  0  0  0  0
    1.0878    3.3451    1.0540 H   0  0  0  0  0  0  0  0  0  0  0  0
    0.8669    5.5960    0.0903 H   0  0  0  0  0  0  0  0  0  0  0  0
   -0.6758    6.0012   -1.8114 H   0  0  0  0  0  0  0  0  0  0  0  0
   -2.0010    4.1215   -2.7445 H   0  0  0  0  0  0  0  0  0  0  0  0
   -1.7899    1.8611   -1.7975 H   0  0  0  0  0  0  0  0  0  0  0  0
  1  2  1  0
  2  3  1  0
  2  4  1  0
  4  5  1  0
  5  6  2  0
  6  7  1  0
  7  8  1  0
  8  9  1  0
  9 10  1  0
 10 11  1  0
 11 12  1  0
 12 13  1  0
  7 14  2  0
 14 15  1  0
 15 16  1  0
 16 17  2  0
 17 18  1  0
 18 19  2  0
 19 20  1  0
 20 21  2  0
 15 22  2  0
 22  5  1  0
 13  8  1  0
 21 16  1  0
  1 23  1  0
  1 24  1  0
  1 25  1  0
  2 26  1  0
  3 27  1  0
  3 28  1  0
  3 29  1  0
  6 30  1  0
  9 31  1  0
  9 32  1  0
 10 33  1  0
 10 34  1  0
 12 35  1  0
 12 36  1  0
 13 37  1  0
 13 38  1  0
 17 39  1  0
 18 40  1  0
 19 41  1  0
 20 42  1  0
 21 43  1  0
M  END
$$$$
