
     RDKit          3D

 45 46  0  0  0  0  0  0  0  0999 V2000
    7.6843    0.6605    0.0899 C   0  0  0  0  0  0  0  0  0  0  0  0
    6.5940    0.4667   -0.9488 C   0  0  0  0  0  0  0  0  0  0  0  0
    5.4032   -0.1450   -0.3855 N   0  0  0  0  0  0  0  0  0  0  0  0
    5.3358   -1.4880   -0.3273 N   0  0  0  0  0  0  0  0  0  0  0  0
    4.1379   -1.7230    0.2087 C   0  0  0  0  0  0  0  0  0  0  0  0
    3.4308   -0.5392    0.5078 C   0  0  0  0  0  0  0  0  0  0  0  0
    2.1152   -0.4030    1.0894 C   0  0  0  0  0  0  0  0  0  0  0  0
    1.4627   -1.4806    1.3896 N   0  0  0  0  0  0  0  0  0  0  0  0
    0.1960   -1.3654    1.9079 N   0  0  0  0  0  0  0  0  0  0  0  0
   -0.7251   -0.3661    1.5795 C   0  0  0  0  0  0  0  0  0  0  0  0
   -0.4867    0.6153    0.8818 O   0  0  0  0  0  0  0  0  0  0  0  0
   -2.1015   -0.6452    2.2002 C   0  0  0  0  0  0  0  0  0  0  0  0
   -3.1090    0.3190    1.9455 O   0  0  0  0  0  0  0  0  0  0  0  0
   -3.8733    0.1466    0.8242 C   0  0  0  0  0  0  0  0  0  0  0  0
   -3.5056   -0.5776   -0.3104 C   0  0  0  0  0  0  0  0  0  0  0  0
   -4.3784   -0.6769   -1.4045 C   0  0  0  0  0  0  0  0  0  0  0  0
   -3.9929   -1.4861   -2.6084 C   0  0  0  0  0  0  0  0  0  0  0  0
   -5.6309   -0.0529   -1.3438 C   0  0  0  0  0  0  0  0  0  0  0  0
   -5.9977    0.7045   -0.2259 C   0  0  0  0  0  0  0  0  0  0  0  0
   -7.3432    1.3633   -0.1600 C   0  0  0  0  0  0  0  0  0  0  0  0
   -5.1116    0.7933    0.8545 C   0  0  0  0  0  0  0  0  0  0  0  0
    4.2844    0.4813    0.1128 C   0  0  0  0  0  0  0  0  0  0  0  0
    4.1348    1.9591    0.1527 C   0  0  0  0  0  0  0  0  0  0  0  0
    8.5656    1.1218   -0.3661 H   0  0  0  0  0  0  0  0  0  0  0  0
    7.3439    1.3063    0.9060 H   0  0  0  0  0  0  0  0  0  0  0  0
    7.9878   -0.2966    0.5273 H   0  0  0  0  0  0  0  0  0  0  0  0
    6.9459   -0.1810   -1.7598 H   0  0  0  0  0  0  0  0  0  0  0  0
    6.3092    1.4243   -1.3956 H   0  0  0  0  0  0  0  0  0  0  0  0
    3.8217   -2.7470    0.3631 H   0  0  0  0  0  0  0  0  0  0  0  0
    1.7491    0.6175    1.2779 H   0  0  0  0  0  0  0  0  0  0  0  0
   -0.1626   -2.2461    2.2672 H   0  0  0  0  0  0  0  0  0  0  0  0
   -2.4352   -1.6562    1.9326 H   0  0  0  0  0  0  0  0  0  0  0  0
   -1.9537   -0.6487    3.2873 H   0  0  0  0  0  0  0  0  0  0  0  0
   -2.5344   -1.0556   -0.3830 H   0  0  0  0  0  0  0  0  0  0  0  0
   -2.9117   -1.4443   -2.7770 H   0  0  0  0  0  0  0  0  0  0  0  0
   -4.4766   -1.0993   -3.5115 H   0  0  0  0  0  0  0  0  0  0  0  0
   -4.2900   -2.5298   -2.4676 H   0  0  0  0  0  0  0  0  0  0  0  0
   -6.3206   -0.1463   -2.1807 H   0  0  0  0  0  0  0  0  0  0  0  0
   -7.6849    1.6546   -1.1588 H   0  0  0  0  0  0  0  0  0  0  0  0
   -7.3032    2.2738    0.4472 H   0  0  0  0  0  0  0  0  0  0  0  0
   -8.0745    0.6774    0.2783 H   0  0  0  0  0  0  0  0  0  0  0  0
   -5.3859    1.3671    1.7370 H   0  0  0  0  0  0  0  0  0  0  0  0
    5.0124    2.4292    0.6075 H   0  0  0  0  0  0  0  0  0  0  0  0
    3.2631    2.2613    0.7399 H   0  0  0  0  0  0  0  0  0  0  0  0
    4.0113    2.3570   -0.8596 H   0  0  0  0  0  0  0  0  0  0  0  0
  1  2  1  0
  2  3  1  0
  3  4  1  0
  4  5  2  0
  5  6  1  0
  6  7  1  0
  7  8  2  3
  8  9  1  0
  9 10  1  0
 10 11  2  0
 10 12  1  0
 12 13  1  0
 13 14  1  0
 14 15  2  0
 15 16  1  0
 16 17  1  0
 16 18  2  0
 18 19  1  0
 19 20  1  0
 19 21  2  0
  6 22  2  0
 22 23  1  0
 22  3  1  0
 21 14  1  0
  1 24  1  0
  1 25  1  0
  1 26  1  0
  2 27  1  0
  2 28  1  0
  5 29  1  0
  7 30  1  0
  9 31  1  0
 12 32  1  0
 12 33  1  0
 15 34  1  0
 17 35  1  0
 17 36  1  0
 17 37  1  0
 18 38  1  0
 20 39  1  0
 20 40  1  0
 20 41  1  0
 21 42  1  0
 23 43  1  0
 23 44  1  0
 23 45  1  0
M  END
$$$$
