
     RDKit          3D

 63 66  0  0  0  0  0  0  0  0999 V2000
    6.8445    0.3830   -2.1386 C   0  0  0  0  0  0  0  0  0  0  0  0
    6.8012    0.1854   -0.6171 C   0  0  0  0  0  0  0  0  0  0  0  0
    6.2696    1.4469    0.1031 C   0  0  0  0  0  0  0  0  0  0  0  0
    4.8717    1.7367   -0.1684 N   0  0  0  0  0  0  0  0  0  0  0  0
    3.8866    1.4739    0.7626 C   0  0  0  0  0  0  0  0  0  0  0  0
    4.1053    1.1011    1.9095 O   0  0  0  0  0  0  0  0  0  0  0  0
    2.4856    1.6306    0.2889 C   0  0  0  0  0  0  0  0  0  0  0  0
    2.1263    2.5928   -0.6586 C   0  0  0  0  0  0  0  0  0  0  0  0
    0.7971    2.6851   -1.0811 C   0  0  0  0  0  0  0  0  0  0  0  0
   -0.1836    1.8344   -0.5612 C   0  0  0  0  0  0  0  0  0  0  0  0
   -1.4295    2.0336   -1.0814 O   0  0  0  0  0  0  0  0  0  0  0  0
   -2.5454    1.3283   -0.5256 C   0  0  0  0  0  0  0  0  0  0  0  0
   -3.7902    2.1850   -0.7735 C   0  0  0  0  0  0  0  0  0  0  0  0
   -5.0551    1.4494   -0.3397 C   0  0  0  0  0  0  0  0  0  0  0  0
   -5.1623    0.1636   -1.0406 N   0  0  0  0  0  0  0  0  0  0  0  0
   -6.4632   -0.4948   -0.8015 C   0  0  0  0  0  0  0  0  0  0  0  0
   -6.7819   -0.9107    0.6264 C   0  0  0  0  0  0  0  0  0  0  0  0
   -6.4958   -2.2028    1.0660 C   0  0  0  0  0  0  0  0  0  0  0  0
   -6.7906   -2.5476    2.3823 C   0  0  0  0  0  0  0  0  0  0  0  0
   -7.3627   -1.6013    3.2232 C   0  0  0  0  0  0  0  0  0  0  0  0
   -7.6180   -0.3415    2.7112 C   0  0  0  0  0  0  0  0  0  0  0  0
   -7.3413    0.0227    1.4404 N   0  0  0  0  0  0  0  0  0  0  0  0
   -4.0150   -0.7035   -0.7701 C   0  0  0  0  0  0  0  0  0  0  0  0
   -2.7193   -0.0273   -1.2144 C   0  0  0  0  0  0  0  0  0  0  0  0
    0.1754    0.8858    0.3963 C   0  0  0  0  0  0  0  0  0  0  0  0
    1.5051    0.7876    0.8234 C   0  0  0  0  0  0  0  0  0  0  0  0
    6.0872   -1.0871   -0.1839 C   0  0  0  0  0  0  0  0  0  0  0  0
    4.9621   -1.5916   -0.8541 C   0  0  0  0  0  0  0  0  0  0  0  0
    4.3286   -2.7561   -0.4107 C   0  0  0  0  0  0  0  0  0  0  0  0
    4.8074   -3.4312    0.7097 C   0  0  0  0  0  0  0  0  0  0  0  0
    5.9162   -2.9391    1.3929 C   0  0  0  0  0  0  0  0  0  0  0  0
    6.5488   -1.7746    0.9515 C   0  0  0  0  0  0  0  0  0  0  0  0
    5.8571    0.5846   -2.5660 H   0  0  0  0  0  0  0  0  0  0  0  0
    7.4907    1.2306   -2.3924 H   0  0  0  0  0  0  0  0  0  0  0  0
    7.2507   -0.5055   -2.6357 H   0  0  0  0  0  0  0  0  0  0  0  0
    7.8531    0.0744   -0.3159 H   0  0  0  0  0  0  0  0  0  0  0  0
    6.8362    2.3240   -0.2276 H   0  0  0  0  0  0  0  0  0  0  0  0
    6.4212    1.3523    1.1846 H   0  0  0  0  0  0  0  0  0  0  0  0
    4.6064    1.9130   -1.1255 H   0  0  0  0  0  0  0  0  0  0  0  0
    2.8549    3.2923   -1.0559 H   0  0  0  0  0  0  0  0  0  0  0  0
    0.5175    3.4353   -1.8183 H   0  0  0  0  0  0  0  0  0  0  0  0
   -2.4410    1.2111    0.5603 H   0  0  0  0  0  0  0  0  0  0  0  0
   -3.8534    2.4561   -1.8356 H   0  0  0  0  0  0  0  0  0  0  0  0
   -3.7006    3.1334   -0.2297 H   0  0  0  0  0  0  0  0  0  0  0  0
   -5.0352    1.3131    0.7493 H   0  0  0  0  0  0  0  0  0  0  0  0
   -5.9177    2.0847   -0.5780 H   0  0  0  0  0  0  0  0  0  0  0  0
   -6.5459   -1.3721   -1.4592 H   0  0  0  0  0  0  0  0  0  0  0  0
   -7.2641    0.1755   -1.1444 H   0  0  0  0  0  0  0  0  0  0  0  0
   -6.0485   -2.9309    0.3980 H   0  0  0  0  0  0  0  0  0  0  0  0
   -6.5742   -3.5458    2.7499 H   0  0  0  0  0  0  0  0  0  0  0  0
   -7.6053   -1.8390    4.2529 H   0  0  0  0  0  0  0  0  0  0  0  0
   -8.0659    0.4323    3.3269 H   0  0  0  0  0  0  0  0  0  0  0  0
   -4.1176   -1.6448   -1.3227 H   0  0  0  0  0  0  0  0  0  0  0  0
   -3.9426   -0.9526    0.2951 H   0  0  0  0  0  0  0  0  0  0  0  0
   -1.8689   -0.6821   -0.9958 H   0  0  0  0  0  0  0  0  0  0  0  0
   -2.7148    0.1069   -2.3043 H   0  0  0  0  0  0  0  0  0  0  0  0
   -0.5452    0.2007    0.8274 H   0  0  0  0  0  0  0  0  0  0  0  0
    1.7797    0.0431    1.5691 H   0  0  0  0  0  0  0  0  0  0  0  0
    4.5511   -1.0824   -1.7211 H   0  0  0  0  0  0  0  0  0  0  0  0
    3.4554   -3.1341   -0.9380 H   0  0  0  0  0  0  0  0  0  0  0  0
    4.3118   -4.3354    1.0557 H   0  0  0  0  0  0  0  0  0  0  0  0
    6.2855   -3.4545    2.2749 H   0  0  0  0  0  0  0  0  0  0  0  0
    7.4048   -1.4004    1.5098 H   0  0  0  0  0  0  0  0  0  0  0  0
  1  2  1  0
  2  3  1  0
  3  4  1  0
  4  5  1  0
  5  6  2  0
  5  7  1  0
  7  8  2  0
  8  9  1  0
  9 10  2  0
 10 11  1  0
 11 12  1  0
 12 13  1  0
 13 14  1  0
 14 15  1  0
 15 16  1  0
 16 17  1  0
 17 18  2  0
 18 19  1  0
 19 20  2  0
 20 21  1  0
 21 22  2  0
 15 23  1  0
 23 24  1  0
 10 25  1  0
 25 26  2  0
  2 27  1  0
 27 28  2  0
 28 29  1  0
 29 30  2  0
 30 31  1  0
 31 32  2  0
 26  7  1  0
 32 27  1  0
 24 12  1  0
 22 17  1  0
  1 33  1  0
  1 34  1  0
  1 35  1  0
  2 36  1  0
  3 37  1  0
  3 38  1  0
  4 39  1  0
  8 40  1  0
  9 41  1  0
 12 42  1  0
 13 43  1  0
 13 44  1  0
 14 45  1  0
 14 46  1  0
 16 47  1  0
 16 48  1  0
 18 49  1  0
 19 50  1  0
 20 51  1  0
 21 52  1  0
 23 53  1  0
 23 54  1  0
 24 55  1  0
 24 56  1  0
 25 57  1  0
 26 58  1  0
 28 59  1  0
 29 60  1  0
 30 61  1  0
 31 62  1  0
 32 63  1  0
M  END
$$$$
