
     RDKit          3D

 69 73  0  0  0  0  0  0  0  0999 V2000
   -1.3064   -7.1190   -0.8905 C   0  0  0  0  0  0  0  0  0  0  0  0
   -1.7450   -6.1167    0.0176 O   0  0  0  0  0  0  0  0  0  0  0  0
   -1.9503   -4.8648   -0.4950 C   0  0  0  0  0  0  0  0  0  0  0  0
   -1.7846   -4.4873   -1.8276 C   0  0  0  0  0  0  0  0  0  0  0  0
   -2.0258   -3.1676   -2.2176 C   0  0  0  0  0  0  0  0  0  0  0  0
   -2.4333   -2.2205   -1.2778 C   0  0  0  0  0  0  0  0  0  0  0  0
   -2.6055   -2.5838    0.0627 C   0  0  0  0  0  0  0  0  0  0  0  0
   -3.0137   -1.5826    1.0555 C   0  0  0  0  0  0  0  0  0  0  0  0
   -4.5304   -1.7709    1.8236 S   0  0  0  0  0  0  0  0  0  0  0  0
   -4.3441   -0.3361    2.7495 C   0  0  0  0  0  0  0  0  0  0  0  0
   -5.2658    0.1891    3.6790 C   0  0  0  0  0  0  0  0  0  0  0  0
   -4.9537    1.3725    4.3592 C   0  0  0  0  0  0  0  0  0  0  0  0
   -5.7791    1.9694    5.2826 O   0  0  0  0  0  0  0  0  0  0  0  0
   -7.0156    1.3340    5.5719 C   0  0  0  0  0  0  0  0  0  0  0  0
   -3.7336    2.0211    4.1187 C   0  0  0  0  0  0  0  0  0  0  0  0
   -3.5109    3.1736    4.8327 O   0  0  0  0  0  0  0  0  0  0  0  0
   -2.2369    3.7894    4.7103 C   0  0  0  0  0  0  0  0  0  0  0  0
   -2.8324    1.4869    3.1877 C   0  0  0  0  0  0  0  0  0  0  0  0
   -3.1303    0.2916    2.4799 C   0  0  0  0  0  0  0  0  0  0  0  0
   -2.3670   -0.4339    1.4859 C   0  0  0  0  0  0  0  0  0  0  0  0
   -1.0592   -0.0447    0.9665 C   0  0  0  0  0  0  0  0  0  0  0  0
    0.0767   -0.8054    1.2551 C   0  0  0  0  0  0  0  0  0  0  0  0
    1.3207   -0.4198    0.7503 C   0  0  0  0  0  0  0  0  0  0  0  0
    1.4468    0.7237   -0.0428 C   0  0  0  0  0  0  0  0  0  0  0  0
    2.7195    0.9834   -0.4680 O   0  0  0  0  0  0  0  0  0  0  0  0
    2.8964    2.0664   -1.3822 C   0  0  0  0  0  0  0  0  0  0  0  0
    4.3777    2.1538   -1.8031 C   0  0  0  0  0  0  0  0  0  0  0  0
    4.9072    0.9757   -2.5194 N   0  0  0  0  0  0  0  0  0  0  0  0
    6.3697    1.0372   -2.6675 C   0  0  0  0  0  0  0  0  0  0  0  0
    6.8439    2.0480   -3.7155 C   0  0  0  0  0  0  0  0  0  0  0  0
    6.1676    1.8099   -5.0620 C   0  0  0  0  0  0  0  0  0  0  0  0
    4.6526    1.7171   -4.9064 C   0  0  0  0  0  0  0  0  0  0  0  0
    4.2695    0.7139   -3.8158 C   0  0  0  0  0  0  0  0  0  0  0  0
    0.3145    1.4890   -0.3229 C   0  0  0  0  0  0  0  0  0  0  0  0
   -0.9343    1.1064    0.1802 C   0  0  0  0  0  0  0  0  0  0  0  0
   -2.3605   -3.9112    0.4422 C   0  0  0  0  0  0  0  0  0  0  0  0
   -1.1864   -8.0501   -0.3283 H   0  0  0  0  0  0  0  0  0  0  0  0
   -2.0518   -7.2965   -1.6728 H   0  0  0  0  0  0  0  0  0  0  0  0
   -0.3330   -6.8627   -1.3216 H   0  0  0  0  0  0  0  0  0  0  0  0
   -1.4671   -5.1930   -2.5876 H   0  0  0  0  0  0  0  0  0  0  0  0
   -1.8928   -2.8759   -3.2561 H   0  0  0  0  0  0  0  0  0  0  0  0
   -2.6147   -1.1970   -1.5974 H   0  0  0  0  0  0  0  0  0  0  0  0
   -6.1964   -0.3408    3.8446 H   0  0  0  0  0  0  0  0  0  0  0  0
   -7.5328    1.9369    6.3244 H   0  0  0  0  0  0  0  0  0  0  0  0
   -6.8580    0.3372    5.9964 H   0  0  0  0  0  0  0  0  0  0  0  0
   -7.6549    1.2910    4.6842 H   0  0  0  0  0  0  0  0  0  0  0  0
   -1.4350    3.1082    5.0140 H   0  0  0  0  0  0  0  0  0  0  0  0
   -2.0766    4.1633    3.6938 H   0  0  0  0  0  0  0  0  0  0  0  0
   -2.2156    4.6492    5.3869 H   0  0  0  0  0  0  0  0  0  0  0  0
   -1.8832    1.9695    2.9830 H   0  0  0  0  0  0  0  0  0  0  0  0
    0.0049   -1.7009    1.8679 H   0  0  0  0  0  0  0  0  0  0  0  0
    2.2005   -1.0193    0.9725 H   0  0  0  0  0  0  0  0  0  0  0  0
    2.2521    1.9474   -2.2599 H   0  0  0  0  0  0  0  0  0  0  0  0
    2.6359    3.0058   -0.8788 H   0  0  0  0  0  0  0  0  0  0  0  0
    4.5178    3.0691   -2.3890 H   0  0  0  0  0  0  0  0  0  0  0  0
    4.9572    2.2730   -0.8782 H   0  0  0  0  0  0  0  0  0  0  0  0
    6.8432    1.2533   -1.7018 H   0  0  0  0  0  0  0  0  0  0  0  0
    6.7301    0.0389   -2.9490 H   0  0  0  0  0  0  0  0  0  0  0  0
    6.6369    3.0696   -3.3753 H   0  0  0  0  0  0  0  0  0  0  0  0
    7.9308    1.9713   -3.8343 H   0  0  0  0  0  0  0  0  0  0  0  0
    6.4260    2.6136   -5.7603 H   0  0  0  0  0  0  0  0  0  0  0  0
    6.5450    0.8756   -5.4959 H   0  0  0  0  0  0  0  0  0  0  0  0
    4.2433    2.7067   -4.6718 H   0  0  0  0  0  0  0  0  0  0  0  0
    4.2061    1.4104   -5.8592 H   0  0  0  0  0  0  0  0  0  0  0  0
    4.5662   -0.2913   -4.1445 H   0  0  0  0  0  0  0  0  0  0  0  0
    3.1801    0.6640   -3.7216 H   0  0  0  0  0  0  0  0  0  0  0  0
    0.3667    2.3881   -0.9269 H   0  0  0  0  0  0  0  0  0  0  0  0
   -1.8092    1.7101   -0.0510 H   0  0  0  0  0  0  0  0  0  0  0  0
   -2.4798   -4.2126    1.4806 H   0  0  0  0  0  0  0  0  0  0  0  0
  1  2  1  0
  2  3  1  0
  3  4  2  0
  4  5  1  0
  5  6  2  0
  6  7  1  0
  7  8  1  0
  8  9  1  0
  9 10  1  0
 10 11  2  0
 11 12  1  0
 12 13  1  0
 13 14  1  0
 12 15  2  0
 15 16  1  0
 16 17  1  0
 15 18  1  0
 18 19  2  0
 19 20  1  0
 20 21  1  0
 21 22  2  0
 22 23  1  0
 23 24  2  0
 24 25  1  0
 25 26  1  0
 26 27  1  0
 27 28  1  0
 28 29  1  0
 29 30  1  0
 30 31  1  0
 31 32  1  0
 32 33  1  0
 24 34  1  0
 34 35  2  0
  7 36  2  0
 36  3  1  0
 20  8  2  0
 35 21  1  0
 19 10  1  0
 33 28  1  0
  1 37  1  0
  1 38  1  0
  1 39  1  0
  4 40  1  0
  5 41  1  0
  6 42  1  0
 11 43  1  0
 14 44  1  0
 14 45  1  0
 14 46  1  0
 17 47  1  0
 17 48  1  0
 17 49  1  0
 18 50  1  0
 22 51  1  0
 23 52  1  0
 26 53  1  0
 26 54  1  0
 27 55  1  0
 27 56  1  0
 29 57  1  0
 29 58  1  0
 30 59  1  0
 30 60  1  0
 31 61  1  0
 31 62  1  0
 32 63  1  0
 32 64  1  0
 33 65  1  0
 33 66  1  0
 34 67  1  0
 35 68  1  0
 36 69  1  0
M  END
$$$$
