
     RDKit          3D

 41 43  0  0  0  0  0  0  0  0999 V2000
   -2.5954   -3.9572    1.5636 C   0  0  0  0  0  0  0  0  0  0  0  0
   -1.7873   -2.6953    1.2921 C   0  0  0  0  0  0  0  0  0  0  0  0
   -1.8327   -1.7346    2.4820 C   0  0  0  0  0  0  0  0  0  0  0  0
   -0.9512   -0.4975    2.2988 C   0  0  0  0  0  0  0  0  0  0  0  0
   -1.6395    0.6727    1.0871 S   0  0  0  0  0  0  0  0  0  0  0  0
   -0.3304    0.7290   -0.0499 C   0  0  0  0  0  0  0  0  0  0  0  0
    0.0883   -0.3733   -0.5940 N   0  0  0  0  0  0  0  0  0  0  0  0
    1.1744    0.0105   -1.3365 C   0  0  0  0  0  0  0  0  0  0  0  0
    1.9851   -0.7455   -2.0906 C   0  0  0  0  0  0  0  0  0  0  0  0
    1.9235   -2.1597   -2.3327 C   0  0  0  0  0  0  0  0  0  0  0  0
    2.9396   -2.8760   -3.0424 C   0  0  0  0  0  0  0  0  0  0  0  0
    2.6577   -4.2202   -3.1562 C   0  0  0  0  0  0  0  0  0  0  0  0
    1.1752   -4.6288   -2.4121 S   0  0  0  0  0  0  0  0  0  0  0  0
    0.9026   -3.0031   -1.9458 C   0  0  0  0  0  0  0  0  0  0  0  0
    1.3901    1.4797   -1.1862 C   0  0  0  0  0  0  0  0  0  0  0  0
    2.2803    2.1161   -1.7235 O   0  0  0  0  0  0  0  0  0  0  0  0
    0.3566    1.8711   -0.3656 N   0  0  0  0  0  0  0  0  0  0  0  0
    0.1304    3.2216    0.0177 C   0  0  0  0  0  0  0  0  0  0  0  0
    1.2124    4.1080    0.1602 C   0  0  0  0  0  0  0  0  0  0  0  0
    1.0184    5.4412    0.5401 C   0  0  0  0  0  0  0  0  0  0  0  0
   -0.2660    5.9195    0.7718 C   0  0  0  0  0  0  0  0  0  0  0  0
   -1.3535    5.0690    0.6105 C   0  0  0  0  0  0  0  0  0  0  0  0
   -1.1562    3.7348    0.2323 C   0  0  0  0  0  0  0  0  0  0  0  0
   -2.2188   -4.4813    2.4489 H   0  0  0  0  0  0  0  0  0  0  0  0
   -3.6502   -3.7170    1.7297 H   0  0  0  0  0  0  0  0  0  0  0  0
   -2.5314   -4.6394    0.7104 H   0  0  0  0  0  0  0  0  0  0  0  0
   -2.1807   -2.2124    0.3911 H   0  0  0  0  0  0  0  0  0  0  0  0
   -0.7465   -2.9737    1.0857 H   0  0  0  0  0  0  0  0  0  0  0  0
   -1.4809   -2.2669    3.3758 H   0  0  0  0  0  0  0  0  0  0  0  0
   -2.8674   -1.4371    2.6912 H   0  0  0  0  0  0  0  0  0  0  0  0
    0.0702   -0.7945    2.0406 H   0  0  0  0  0  0  0  0  0  0  0  0
   -0.8888    0.0380    3.2520 H   0  0  0  0  0  0  0  0  0  0  0  0
    2.8084   -0.2291   -2.5849 H   0  0  0  0  0  0  0  0  0  0  0  0
    3.8388   -2.4323   -3.4525 H   0  0  0  0  0  0  0  0  0  0  0  0
    3.2488   -4.9826   -3.6445 H   0  0  0  0  0  0  0  0  0  0  0  0
   -0.0063   -2.7634   -1.4118 H   0  0  0  0  0  0  0  0  0  0  0  0
    2.2360    3.7741    0.0068 H   0  0  0  0  0  0  0  0  0  0  0  0
    1.8750    6.1022    0.6536 H   0  0  0  0  0  0  0  0  0  0  0  0
   -0.4190    6.9549    1.0642 H   0  0  0  0  0  0  0  0  0  0  0  0
   -2.3632    5.4417    0.7656 H   0  0  0  0  0  0  0  0  0  0  0  0
   -2.0463    3.1367    0.0576 H   0  0  0  0  0  0  0  0  0  0  0  0
  1  2  1  0
  2  3  1  0
  3  4  1  0
  4  5  1  0
  5  6  1  0
  6  7  2  0
  7  8  1  0
  8  9  2  3
  9 10  1  0
 10 11  1  0
 11 12  2  0
 12 13  1  0
 13 14  1  0
  8 15  1  0
 15 16  2  0
 15 17  1  0
 17 18  1  0
 18 19  2  0
 19 20  1  0
 20 21  2  0
 21 22  1  0
 22 23  2  0
 17  6  1  0
 23 18  1  0
 14 10  2  0
  1 24  1  0
  1 25  1  0
  1 26  1  0
  2 27  1  0
  2 28  1  0
  3 29  1  0
  3 30  1  0
  4 31  1  0
  4 32  1  0
  9 33  1  0
 11 34  1  0
 12 35  1  0
 14 36  1  0
 19 37  1  0
 20 38  1  0
 21 39  1  0
 22 40  1  0
 23 41  1  0
M  END
$$$$
