
     RDKit          3D

 49 51  0  0  0  0  0  0  0  0999 V2000
    8.1219    0.6565   -1.2663 C   0  0  0  0  0  0  0  0  0  0  0  0
    6.9494   -0.0955   -0.7087 C   0  0  0  0  0  0  0  0  0  0  0  0
    7.1328   -1.0755    0.2742 C   0  0  0  0  0  0  0  0  0  0  0  0
    6.0398   -1.7682    0.8017 C   0  0  0  0  0  0  0  0  0  0  0  0
    4.7504   -1.4695    0.3627 C   0  0  0  0  0  0  0  0  0  0  0  0
    3.6903   -2.1765    0.8550 O   0  0  0  0  0  0  0  0  0  0  0  0
    4.5461   -0.4640   -0.5873 C   0  0  0  0  0  0  0  0  0  0  0  0
    3.2020   -0.0976   -1.0918 C   0  0  0  0  0  0  0  0  0  0  0  0
    3.0518    0.0842   -2.2990 O   0  0  0  0  0  0  0  0  0  0  0  0
    2.0439    0.1000   -0.1909 C   0  0  0  0  0  0  0  0  0  0  0  0
    2.1820    0.4974    1.1327 C   0  0  0  0  0  0  0  0  0  0  0  0
    1.1379    0.7238    1.9697 N   0  0  0  0  0  0  0  0  0  0  0  0
   -0.0964    0.5430    1.4586 C   0  0  0  0  0  0  0  0  0  0  0  0
   -0.3441    0.1695    0.1502 C   0  0  0  0  0  0  0  0  0  0  0  0
    0.7491   -0.0450   -0.6932 C   0  0  0  0  0  0  0  0  0  0  0  0
   -1.7533    0.1073   -0.3298 C   0  0  0  0  0  0  0  0  0  0  0  0
   -2.7265   -0.0079    0.7449 N   0  0  0  0  0  0  0  0  0  0  0  0
   -4.1131   -0.2870    0.3756 C   0  0  0  0  0  0  0  0  0  0  0  0
   -4.8564    0.9699   -0.0914 C   0  0  0  0  0  0  0  0  0  0  0  0
   -6.3355    0.7565   -0.4643 C   0  0  0  0  0  0  0  0  0  0  0  0
   -6.5052   -0.2045   -1.6406 C   0  0  0  0  0  0  0  0  0  0  0  0
   -7.1761    0.2976    0.7271 C   0  0  0  0  0  0  0  0  0  0  0  0
   -2.4643    0.4754    2.0124 C   0  0  0  0  0  0  0  0  0  0  0  0
   -3.3312    0.6311    2.8707 O   0  0  0  0  0  0  0  0  0  0  0  0
   -1.1663    0.7518    2.3057 N   0  0  0  0  0  0  0  0  0  0  0  0
    5.6489    0.2098   -1.1309 C   0  0  0  0  0  0  0  0  0  0  0  0
    7.9571    0.9082   -2.3192 H   0  0  0  0  0  0  0  0  0  0  0  0
    8.2780    1.5797   -0.6999 H   0  0  0  0  0  0  0  0  0  0  0  0
    9.0342    0.0531   -1.2160 H   0  0  0  0  0  0  0  0  0  0  0  0
    8.1346   -1.3151    0.6269 H   0  0  0  0  0  0  0  0  0  0  0  0
    6.2175   -2.5375    1.5478 H   0  0  0  0  0  0  0  0  0  0  0  0
    4.0161   -2.8868    1.4345 H   0  0  0  0  0  0  0  0  0  0  0  0
    3.1551    0.6679    1.5833 H   0  0  0  0  0  0  0  0  0  0  0  0
    0.5986   -0.3160   -1.7361 H   0  0  0  0  0  0  0  0  0  0  0  0
   -1.8777   -0.7613   -0.9865 H   0  0  0  0  0  0  0  0  0  0  0  0
   -1.9797    1.0172   -0.8969 H   0  0  0  0  0  0  0  0  0  0  0  0
   -4.6160   -0.7188    1.2473 H   0  0  0  0  0  0  0  0  0  0  0  0
   -4.1038   -1.0554   -0.4043 H   0  0  0  0  0  0  0  0  0  0  0  0
   -4.7989    1.7370    0.6917 H   0  0  0  0  0  0  0  0  0  0  0  0
   -4.3368    1.3938   -0.9603 H   0  0  0  0  0  0  0  0  0  0  0  0
   -6.7258    1.7328   -0.7816 H   0  0  0  0  0  0  0  0  0  0  0  0
   -5.8948    0.1107   -2.4932 H   0  0  0  0  0  0  0  0  0  0  0  0
   -7.5500   -0.2273   -1.9692 H   0  0  0  0  0  0  0  0  0  0  0  0
   -6.2208   -1.2277   -1.3751 H   0  0  0  0  0  0  0  0  0  0  0  0
   -7.0441    0.9715    1.5801 H   0  0  0  0  0  0  0  0  0  0  0  0
   -8.2401    0.2946    0.4662 H   0  0  0  0  0  0  0  0  0  0  0  0
   -6.9125   -0.7156    1.0464 H   0  0  0  0  0  0  0  0  0  0  0  0
   -0.9564    1.0382    3.2496 H   0  0  0  0  0  0  0  0  0  0  0  0
    5.4884    0.9744   -1.8899 H   0  0  0  0  0  0  0  0  0  0  0  0
  1  2  1  0
  2  3  2  0
  3  4  1  0
  4  5  2  0
  5  6  1  0
  5  7  1  0
  7  8  1  0
  8  9  2  0
  8 10  1  0
 10 11  2  0
 11 12  1  0
 12 13  2  0
 13 14  1  0
 14 15  2  0
 14 16  1  0
 16 17  1  0
 17 18  1  0
 18 19  1  0
 19 20  1  0
 20 21  1  0
 20 22  1  0
 17 23  1  0
 23 24  2  0
 23 25  1  0
  7 26  2  0
 26  2  1  0
 15 10  1  0
 25 13  1  0
  1 27  1  0
  1 28  1  0
  1 29  1  0
  3 30  1  0
  4 31  1  0
  6 32  1  0
 11 33  1  0
 15 34  1  0
 16 35  1  0
 16 36  1  0
 18 37  1  0
 18 38  1  0
 19 39  1  0
 19 40  1  0
 20 41  1  0
 21 42  1  0
 21 43  1  0
 21 44  1  0
 22 45  1  0
 22 46  1  0
 22 47  1  0
 25 48  1  0
 26 49  1  0
M  END
$$$$
