
     RDKit          3D

 61 63  0  0  0  0  0  0  0  0999 V2000
    6.9184    2.8910   -0.8412 C   0  0  0  0  0  0  0  0  0  0  0  0
    6.5234    2.3049    0.5074 C   0  0  0  0  0  0  0  0  0  0  0  0
    5.2024    1.5364    0.4729 C   0  0  0  0  0  0  0  0  0  0  0  0
    3.9995    2.4110    0.1270 C   0  0  0  0  0  0  0  0  0  0  0  0
    2.7658    1.6563    0.1991 N   0  0  0  0  0  0  0  0  0  0  0  0
    2.0848    1.4813    1.3868 C   0  0  0  0  0  0  0  0  0  0  0  0
    2.4338    2.0091    2.4405 O   0  0  0  0  0  0  0  0  0  0  0  0
    0.8982    0.5072    1.2833 C   0  0  0  0  0  0  0  0  0  0  0  0
   -0.0824    0.6463    2.4575 C   0  0  0  0  0  0  0  0  0  0  0  0
   -1.1060    1.7277    2.2019 C   0  0  0  0  0  0  0  0  0  0  0  0
   -0.8551    3.0507    2.5837 C   0  0  0  0  0  0  0  0  0  0  0  0
   -1.7817    4.0543    2.2994 C   0  0  0  0  0  0  0  0  0  0  0  0
   -2.9642    3.7447    1.6310 C   0  0  0  0  0  0  0  0  0  0  0  0
   -3.2248    2.4297    1.2494 C   0  0  0  0  0  0  0  0  0  0  0  0
   -2.3001    1.4251    1.5321 C   0  0  0  0  0  0  0  0  0  0  0  0
    1.4591   -0.8663    1.2975 N   0  0  0  0  0  0  0  0  0  0  0  0
    1.6984   -1.6652   -0.1451 S   0  0  0  0  0  6  0  0  0  0  0  0
    2.5472   -2.7964    0.1440 O   0  0  0  0  0  0  0  0  0  0  0  0
    2.0465   -0.6851   -1.1494 O   0  0  0  0  0  0  0  0  0  0  0  0
    0.0709   -2.2834   -0.4831 C   0  0  0  0  0  0  0  0  0  0  0  0
   -0.3312   -3.5068    0.0519 C   0  0  0  0  0  0  0  0  0  0  0  0
   -1.6180   -3.9897   -0.2117 C   0  0  0  0  0  0  0  0  0  0  0  0
   -2.5131   -3.2617   -1.0148 C   0  0  0  0  0  0  0  0  0  0  0  0
   -2.0820   -2.0480   -1.5497 C   0  0  0  0  0  0  0  0  0  0  0  0
   -0.7930   -1.5555   -1.2983 C   0  0  0  0  0  0  0  0  0  0  0  0
   -3.0015   -1.2613   -2.3826 C   0  0  0  0  0  0  0  0  0  0  0  0
   -2.6496   -0.1472   -2.7641 O   0  0  0  0  0  0  0  0  0  0  0  0
   -4.2295   -1.8345   -2.6681 N   0  0  0  0  0  0  0  0  0  0  0  0
   -5.1461   -1.0863   -3.5081 C   0  0  0  0  0  0  0  0  0  0  0  0
   -4.7128   -3.0057   -2.0974 C   0  0  0  0  0  0  0  0  0  0  0  0
   -5.8700   -3.3867   -2.2963 O   0  0  0  0  0  0  0  0  0  0  0  0
   -3.8310   -3.7164   -1.2848 N   0  0  0  0  0  0  0  0  0  0  0  0
   -4.3021   -4.9602   -0.6871 C   0  0  0  0  0  0  0  0  0  0  0  0
    6.9438    2.1160   -1.6173 H   0  0  0  0  0  0  0  0  0  0  0  0
    6.2231    3.6766   -1.1563 H   0  0  0  0  0  0  0  0  0  0  0  0
    7.9163    3.3388   -0.7767 H   0  0  0  0  0  0  0  0  0  0  0  0
    6.4679    3.1080    1.2522 H   0  0  0  0  0  0  0  0  0  0  0  0
    7.3147    1.6206    0.8376 H   0  0  0  0  0  0  0  0  0  0  0  0
    5.0473    1.0729    1.4536 H   0  0  0  0  0  0  0  0  0  0  0  0
    5.2723    0.7115   -0.2441 H   0  0  0  0  0  0  0  0  0  0  0  0
    4.0724    2.7920   -0.8933 H   0  0  0  0  0  0  0  0  0  0  0  0
    3.9371    3.2609    0.8104 H   0  0  0  0  0  0  0  0  0  0  0  0
    2.5648    1.0115   -0.5672 H   0  0  0  0  0  0  0  0  0  0  0  0
    0.3697    0.6955    0.3416 H   0  0  0  0  0  0  0  0  0  0  0  0
    0.4359    0.8412    3.4045 H   0  0  0  0  0  0  0  0  0  0  0  0
   -0.6189   -0.2991    2.6154 H   0  0  0  0  0  0  0  0  0  0  0  0
    0.0681    3.3120    3.0986 H   0  0  0  0  0  0  0  0  0  0  0  0
   -1.5756    5.0797    2.5941 H   0  0  0  0  0  0  0  0  0  0  0  0
   -3.6809    4.5281    1.4024 H   0  0  0  0  0  0  0  0  0  0  0  0
   -4.1444    2.1905    0.7227 H   0  0  0  0  0  0  0  0  0  0  0  0
   -2.5163    0.4064    1.2196 H   0  0  0  0  0  0  0  0  0  0  0  0
    2.1271   -1.0991    2.0343 H   0  0  0  0  0  0  0  0  0  0  0  0
    0.3446   -4.0906    0.6760 H   0  0  0  0  0  0  0  0  0  0  0  0
   -1.8916   -4.9459    0.2272 H   0  0  0  0  0  0  0  0  0  0  0  0
   -0.4783   -0.6075   -1.7319 H   0  0  0  0  0  0  0  0  0  0  0  0
   -4.6248   -0.3398   -4.1149 H   0  0  0  0  0  0  0  0  0  0  0  0
   -5.6860   -1.7665   -4.1755 H   0  0  0  0  0  0  0  0  0  0  0  0
   -5.8704   -0.5794   -2.8622 H   0  0  0  0  0  0  0  0  0  0  0  0
   -3.6744   -5.7891   -1.0285 H   0  0  0  0  0  0  0  0  0  0  0  0
   -4.2633   -4.8749    0.4035 H   0  0  0  0  0  0  0  0  0  0  0  0
   -5.3344   -5.1900   -0.9650 H   0  0  0  0  0  0  0  0  0  0  0  0
  1  2  1  0
  2  3  1  0
  3  4  1  0
  4  5  1  0
  5  6  1  0
  6  7  2  0
  6  8  1  0
  8  9  1  0
  9 10  1  0
 10 11  2  0
 11 12  1  0
 12 13  2  0
 13 14  1  0
 14 15  2  0
  8 16  1  0
 16 17  1  0
 17 18  2  0
 17 19  2  0
 17 20  1  0
 20 21  2  0
 21 22  1  0
 22 23  2  0
 23 24  1  0
 24 25  2  0
 24 26  1  0
 26 27  2  0
 26 28  1  0
 28 29  1  0
 28 30  1  0
 30 31  2  0
 30 32  1  0
 32 33  1  0
 15 10  1  0
 25 20  1  0
 32 23  1  0
  1 34  1  0
  1 35  1  0
  1 36  1  0
  2 37  1  0
  2 38  1  0
  3 39  1  0
  3 40  1  0
  4 41  1  0
  4 42  1  0
  5 43  1  0
  8 44  1  0
  9 45  1  0
  9 46  1  0
 11 47  1  0
 12 48  1  0
 13 49  1  0
 14 50  1  0
 15 51  1  0
 16 52  1  0
 21 53  1  0
 22 54  1  0
 25 55  1  0
 29 56  1  0
 29 57  1  0
 29 58  1  0
 33 59  1  0
 33 60  1  0
 33 61  1  0
M  END
$$$$
