
     RDKit          3D

 47 48  0  0  0  0  0  0  0  0999 V2000
    6.3897   -1.4087    2.5747 C   0  0  0  0  0  0  0  0  0  0  0  0
    5.0209   -1.7151    1.9990 C   0  0  0  0  0  0  0  0  0  0  0  0
    4.6780   -0.6686    1.0840 O   0  0  0  0  0  0  0  0  0  0  0  0
    3.4725   -0.8265    0.4653 C   0  0  0  0  0  0  0  0  0  0  0  0
    2.7262   -1.7753    0.6725 O   0  0  0  0  0  0  0  0  0  0  0  0
    3.1495    0.2490   -0.4764 C   0  0  0  0  0  0  0  0  0  0  0  0
    4.0089    1.2685   -0.8887 C   0  0  0  0  0  0  0  0  0  0  0  0
    5.4107    1.5993   -0.5076 C   0  0  0  0  0  0  0  0  0  0  0  0
    3.3549    2.0244   -1.8259 N   0  0  0  0  0  0  0  0  0  0  0  0
    2.0942    1.5377   -2.0309 C   0  0  0  0  0  0  0  0  0  0  0  0
    1.1670    2.1818   -3.0018 C   0  0  0  0  0  0  0  0  0  0  0  0
    1.9084    0.4422   -1.1942 C   0  0  0  0  0  0  0  0  0  0  0  0
    0.6420   -0.3094   -1.1419 C   0  0  0  0  0  0  0  0  0  0  0  0
   -0.0199   -0.4918   -2.1682 O   0  0  0  0  0  0  0  0  0  0  0  0
    0.1097   -0.8012    0.2059 C   0  0  0  0  0  0  0  0  0  0  0  0
   -1.3192   -0.7444    0.2956 O   0  0  0  0  0  0  0  0  0  0  0  0
   -1.8221    0.5111    0.3308 C   0  0  0  0  0  0  0  0  0  0  0  0
   -1.1681    1.5426    0.3682 O   0  0  0  0  0  0  0  0  0  0  0  0
   -3.2998    0.5169    0.3331 C   0  0  0  0  0  0  0  0  0  0  0  0
   -4.0582   -0.5908    0.3265 C   0  0  0  0  0  0  0  0  0  0  0  0
   -5.5268   -0.5731    0.3377 C   0  0  0  0  0  0  0  0  0  0  0  0
   -6.2078   -1.5452    1.0837 C   0  0  0  0  0  0  0  0  0  0  0  0
   -7.6056   -1.5832    1.0967 C   0  0  0  0  0  0  0  0  0  0  0  0
   -8.3298   -0.6544    0.3533 C   0  0  0  0  0  0  0  0  0  0  0  0
  -10.0495   -0.7030    0.3648 Cl  0  0  0  0  0  0  0  0  0  0  0  0
   -7.6685    0.3086   -0.4053 C   0  0  0  0  0  0  0  0  0  0  0  0
   -6.2703    0.3459   -0.4168 C   0  0  0  0  0  0  0  0  0  0  0  0
    6.3851   -0.4398    3.0853 H   0  0  0  0  0  0  0  0  0  0  0  0
    7.1369   -1.3445    1.7770 H   0  0  0  0  0  0  0  0  0  0  0  0
    6.6965   -2.1817    3.2854 H   0  0  0  0  0  0  0  0  0  0  0  0
    5.0484   -2.6756    1.4715 H   0  0  0  0  0  0  0  0  0  0  0  0
    4.2808   -1.7568    2.8062 H   0  0  0  0  0  0  0  0  0  0  0  0
    5.4725    1.8347    0.5592 H   0  0  0  0  0  0  0  0  0  0  0  0
    6.0765    0.7579   -0.7236 H   0  0  0  0  0  0  0  0  0  0  0  0
    5.7842    2.4677   -1.0602 H   0  0  0  0  0  0  0  0  0  0  0  0
    3.7481    2.8263   -2.3027 H   0  0  0  0  0  0  0  0  0  0  0  0
    1.5494    3.1506   -3.3407 H   0  0  0  0  0  0  0  0  0  0  0  0
    0.1871    2.3518   -2.5453 H   0  0  0  0  0  0  0  0  0  0  0  0
    1.0356    1.5435   -3.8808 H   0  0  0  0  0  0  0  0  0  0  0  0
    0.3732   -1.8574    0.3028 H   0  0  0  0  0  0  0  0  0  0  0  0
    0.5520   -0.2477    1.0408 H   0  0  0  0  0  0  0  0  0  0  0  0
   -3.7324    1.5118    0.3529 H   0  0  0  0  0  0  0  0  0  0  0  0
   -3.6019   -1.5787    0.3310 H   0  0  0  0  0  0  0  0  0  0  0  0
   -5.6558   -2.2790    1.6683 H   0  0  0  0  0  0  0  0  0  0  0  0
   -8.1187   -2.3392    1.6851 H   0  0  0  0  0  0  0  0  0  0  0  0
   -8.2316    1.0274   -0.9952 H   0  0  0  0  0  0  0  0  0  0  0  0
   -5.7730    1.0912   -1.0337 H   0  0  0  0  0  0  0  0  0  0  0  0
  1  2  1  0
  2  3  1  0
  3  4  1  0
  4  5  2  0
  4  6  1  0
  6  7  2  0
  7  8  1  0
  7  9  1  0
  9 10  1  0
 10 11  1  0
 10 12  2  0
 12 13  1  0
 13 14  2  0
 13 15  1  0
 15 16  1  0
 16 17  1  0
 17 18  2  0
 17 19  1  0
 19 20  2  3
 20 21  1  0
 21 22  2  0
 22 23  1  0
 23 24  2  0
 24 25  1  0
 24 26  1  0
 26 27  2  0
 12  6  1  0
 27 21  1  0
  1 28  1  0
  1 29  1  0
  1 30  1  0
  2 31  1  0
  2 32  1  0
  8 33  1  0
  8 34  1  0
  8 35  1  0
  9 36  1  0
 11 37  1  0
 11 38  1  0
 11 39  1  0
 15 40  1  0
 15 41  1  0
 19 42  1  0
 20 43  1  0
 22 44  1  0
 23 45  1  0
 26 46  1  0
 27 47  1  0
M  END
$$$$
