
     RDKit          3D

 52 54  0  0  0  0  0  0  0  0999 V2000
    5.4234   -3.4545   -2.0506 C   0  0  0  0  0  0  0  0  0  0  0  0
    4.2004   -2.8878   -1.3556 C   0  0  0  0  0  0  0  0  0  0  0  0
    4.4456   -1.5012   -1.0842 O   0  0  0  0  0  0  0  0  0  0  0  0
    3.4343   -0.8608   -0.4481 C   0  0  0  0  0  0  0  0  0  0  0  0
    2.3736   -1.3689   -0.1088 O   0  0  0  0  0  0  0  0  0  0  0  0
    3.7779    0.5703   -0.1830 C   0  0  0  0  0  0  0  0  0  0  0  0
    4.9576    1.1197   -0.7199 C   0  0  0  0  0  0  0  0  0  0  0  0
    5.2938    2.4506   -0.4793 C   0  0  0  0  0  0  0  0  0  0  0  0
    4.4558    3.2437    0.2955 C   0  0  0  0  0  0  0  0  0  0  0  0
    3.2795    2.7123    0.8330 C   0  0  0  0  0  0  0  0  0  0  0  0
    2.9208    1.3768    0.6078 C   0  0  0  0  0  0  0  0  0  0  0  0
    1.7277    0.8190    1.1377 N   0  0  0  0  0  0  0  0  0  0  0  0
    0.8066    1.3994    1.9911 C   0  0  0  0  0  0  0  0  0  0  0  0
    0.8887    2.5154    2.4898 O   0  0  0  0  0  0  0  0  0  0  0  0
   -0.3660    0.4786    2.2756 C   0  0  0  0  0  0  0  0  0  0  0  0
   -1.3575    1.0322    3.2971 C   0  0  0  0  0  0  0  0  0  0  0  0
   -2.6897    0.5160    2.8189 C   0  0  0  0  0  0  0  0  0  0  0  0
   -3.7346    0.5923    3.4452 O   0  0  0  0  0  0  0  0  0  0  0  0
   -2.5282   -0.0093    1.5381 N   0  0  0  0  0  0  0  0  0  0  0  0
   -3.6815   -0.2887    0.6786 C   0  0  0  0  0  0  0  0  0  0  0  0
   -3.3842   -1.3534   -0.3859 C   0  0  0  0  0  0  0  0  0  0  0  0
   -4.6106   -1.6364   -1.2526 C   0  0  0  0  0  0  0  0  0  0  0  0
   -5.1501   -0.3599   -1.8917 C   0  0  0  0  0  0  0  0  0  0  0  0
   -5.4447    0.7110   -0.8461 C   0  0  0  0  0  0  0  0  0  0  0  0
   -4.2277    0.9960    0.0330 C   0  0  0  0  0  0  0  0  0  0  0  0
   -1.2131    0.2937    1.0261 C   0  0  0  0  0  0  0  0  0  0  0  0
    5.2951   -4.5204   -2.2620 H   0  0  0  0  0  0  0  0  0  0  0  0
    6.3154   -3.3211   -1.4282 H   0  0  0  0  0  0  0  0  0  0  0  0
    5.6097   -2.9264   -2.9920 H   0  0  0  0  0  0  0  0  0  0  0  0
    4.0282   -3.4226   -0.4148 H   0  0  0  0  0  0  0  0  0  0  0  0
    3.3227   -2.9874   -2.0042 H   0  0  0  0  0  0  0  0  0  0  0  0
    5.6276    0.5212   -1.3338 H   0  0  0  0  0  0  0  0  0  0  0  0
    6.2072    2.8687   -0.8960 H   0  0  0  0  0  0  0  0  0  0  0  0
    4.7122    4.2838    0.4868 H   0  0  0  0  0  0  0  0  0  0  0  0
    2.6589    3.3802    1.4239 H   0  0  0  0  0  0  0  0  0  0  0  0
    1.5703   -0.1594    0.8836 H   0  0  0  0  0  0  0  0  0  0  0  0
    0.0116   -0.4885    2.6323 H   0  0  0  0  0  0  0  0  0  0  0  0
   -1.1426    0.6606    4.3029 H   0  0  0  0  0  0  0  0  0  0  0  0
   -1.4023    2.1259    3.3124 H   0  0  0  0  0  0  0  0  0  0  0  0
   -4.4676   -0.6829    1.3372 H   0  0  0  0  0  0  0  0  0  0  0  0
   -2.5636   -1.0257   -1.0360 H   0  0  0  0  0  0  0  0  0  0  0  0
   -3.0521   -2.2813    0.0948 H   0  0  0  0  0  0  0  0  0  0  0  0
   -5.3941   -2.0977   -0.6395 H   0  0  0  0  0  0  0  0  0  0  0  0
   -4.3499   -2.3587   -2.0344 H   0  0  0  0  0  0  0  0  0  0  0  0
   -4.4169    0.0248   -2.6110 H   0  0  0  0  0  0  0  0  0  0  0  0
   -6.0622   -0.5867   -2.4559 H   0  0  0  0  0  0  0  0  0  0  0  0
   -6.2810    0.3847   -0.2151 H   0  0  0  0  0  0  0  0  0  0  0  0
   -5.7629    1.6350   -1.3430 H   0  0  0  0  0  0  0  0  0  0  0  0
   -4.5029    1.7236    0.8066 H   0  0  0  0  0  0  0  0  0  0  0  0
   -3.4481    1.4710   -0.5759 H   0  0  0  0  0  0  0  0  0  0  0  0
   -1.2652    1.2050    0.4206 H   0  0  0  0  0  0  0  0  0  0  0  0
   -0.8454   -0.5316    0.4098 H   0  0  0  0  0  0  0  0  0  0  0  0
  1  2  1  0
  2  3  1  0
  3  4  1  0
  4  5  2  0
  4  6  1  0
  6  7  2  0
  7  8  1  0
  8  9  2  0
  9 10  1  0
 10 11  2  0
 11 12  1  0
 12 13  1  0
 13 14  2  0
 13 15  1  0
 15 16  1  0
 16 17  1  0
 17 18  2  0
 17 19  1  0
 19 20  1  0
 20 21  1  0
 21 22  1  0
 22 23  1  0
 23 24  1  0
 24 25  1  0
 19 26  1  0
 11  6  1  0
 26 15  1  0
 25 20  1  0
  1 27  1  0
  1 28  1  0
  1 29  1  0
  2 30  1  0
  2 31  1  0
  7 32  1  0
  8 33  1  0
  9 34  1  0
 10 35  1  0
 12 36  1  0
 15 37  1  0
 16 38  1  0
 16 39  1  0
 20 40  1  0
 21 41  1  0
 21 42  1  0
 22 43  1  0
 22 44  1  0
 23 45  1  0
 23 46  1  0
 24 47  1  0
 24 48  1  0
 25 49  1  0
 25 50  1  0
 26 51  1  0
 26 52  1  0
M  END
$$$$
