
     RDKit          3D

 55 58  0  0  0  0  0  0  0  0999 V2000
   -7.5396    1.4150   -1.4372 C   0  0  0  0  0  0  0  0  0  0  0  0
   -6.8019    0.2355   -1.1519 O   0  0  0  0  0  0  0  0  0  0  0  0
   -5.5259    0.3845   -0.6687 C   0  0  0  0  0  0  0  0  0  0  0  0
   -4.8973    1.6133   -0.4624 C   0  0  0  0  0  0  0  0  0  0  0  0
   -3.5890    1.6633    0.0305 C   0  0  0  0  0  0  0  0  0  0  0  0
   -2.8672    0.4950    0.3251 C   0  0  0  0  0  0  0  0  0  0  0  0
   -1.4806    0.5759    0.8307 C   0  0  0  0  0  0  0  0  0  0  0  0
   -0.5157   -0.3724    0.5409 C   0  0  0  0  0  0  0  0  0  0  0  0
    0.7646   -0.1931    1.0629 C   0  0  0  0  0  0  0  0  0  0  0  0
    1.7678   -1.2127    0.7066 C   0  0  0  0  0  0  0  0  0  0  0  0
    1.6529   -2.3243    1.2144 O   0  0  0  0  0  0  0  0  0  0  0  0
    2.7740   -0.8728   -0.1961 N   0  0  0  0  0  0  0  0  0  0  0  0
    2.8150    0.3805   -0.9588 C   0  0  0  0  0  0  0  0  0  0  0  0
    3.4280    0.1732   -2.3383 C   0  0  0  0  0  0  0  0  0  0  0  0
    4.8385   -0.4164   -2.2672 C   0  0  0  0  0  0  0  0  0  0  0  0
    5.0855   -1.2477   -0.9976 C   0  0  0  0  0  0  0  0  0  0  0  0
    6.1348   -2.3156   -1.2288 C   0  0  0  0  0  0  0  0  0  0  0  0
    5.7367   -3.2119   -2.1562 F   0  0  0  0  0  0  0  0  0  0  0  0
    7.2923   -1.7655   -1.6581 F   0  0  0  0  0  0  0  0  0  0  0  0
    6.4053   -2.9897   -0.0911 F   0  0  0  0  0  0  0  0  0  0  0  0
    3.7950   -1.8819   -0.4927 C   0  0  0  0  0  0  0  0  0  0  0  0
    1.0741    0.8949    1.9013 C   0  0  0  0  0  0  0  0  0  0  0  0
    2.3318    1.1098    2.5190 C   0  0  0  0  0  0  0  0  0  0  0  0
    2.5516    2.2244    3.3249 C   0  0  0  0  0  0  0  0  0  0  0  0
    1.5218    3.1320    3.5279 C   0  0  0  0  0  0  0  0  0  0  0  0
    0.2780    2.9140    2.9295 C   0  0  0  0  0  0  0  0  0  0  0  0
    0.0318    1.8098    2.1243 C   0  0  0  0  0  0  0  0  0  0  0  0
   -1.1948    1.6622    1.5927 N   0  0  0  0  0  0  0  0  0  0  0  0
   -3.5202   -0.7369    0.1247 C   0  0  0  0  0  0  0  0  0  0  0  0
   -4.8329   -0.8029   -0.3673 C   0  0  0  0  0  0  0  0  0  0  0  0
   -5.5193   -1.9723   -0.5893 O   0  0  0  0  0  0  0  0  0  0  0  0
   -4.8941   -3.1913   -0.2154 C   0  0  0  0  0  0  0  0  0  0  0  0
   -7.0612    1.9973   -2.2316 H   0  0  0  0  0  0  0  0  0  0  0  0
   -7.6851    2.0186   -0.5353 H   0  0  0  0  0  0  0  0  0  0  0  0
   -8.5279    1.1128   -1.7968 H   0  0  0  0  0  0  0  0  0  0  0  0
   -5.3932    2.5549   -0.6724 H   0  0  0  0  0  0  0  0  0  0  0  0
   -3.1258    2.6378    0.1837 H   0  0  0  0  0  0  0  0  0  0  0  0
   -0.7277   -1.2291   -0.0903 H   0  0  0  0  0  0  0  0  0  0  0  0
    1.8097    0.7969   -1.0662 H   0  0  0  0  0  0  0  0  0  0  0  0
    3.4149    1.0934   -0.3824 H   0  0  0  0  0  0  0  0  0  0  0  0
    2.7891   -0.5131   -2.9093 H   0  0  0  0  0  0  0  0  0  0  0  0
    3.4477    1.1177   -2.8934 H   0  0  0  0  0  0  0  0  0  0  0  0
    5.5748    0.3968   -2.2978 H   0  0  0  0  0  0  0  0  0  0  0  0
    5.0112   -1.0127   -3.1717 H   0  0  0  0  0  0  0  0  0  0  0  0
    5.4598   -0.5686   -0.2193 H   0  0  0  0  0  0  0  0  0  0  0  0
    3.3685   -2.5600   -1.2425 H   0  0  0  0  0  0  0  0  0  0  0  0
    3.9835   -2.4738    0.4106 H   0  0  0  0  0  0  0  0  0  0  0  0
    3.1456    0.4001    2.3818 H   0  0  0  0  0  0  0  0  0  0  0  0
    3.5190    2.3780    3.7963 H   0  0  0  0  0  0  0  0  0  0  0  0
    1.6753    4.0052    4.1572 H   0  0  0  0  0  0  0  0  0  0  0  0
   -0.5272    3.6247    3.1037 H   0  0  0  0  0  0  0  0  0  0  0  0
   -2.9910   -1.6505    0.3761 H   0  0  0  0  0  0  0  0  0  0  0  0
   -5.5945   -4.0052   -0.4272 H   0  0  0  0  0  0  0  0  0  0  0  0
   -3.9909   -3.3686   -0.8085 H   0  0  0  0  0  0  0  0  0  0  0  0
   -4.6755   -3.2121    0.8573 H   0  0  0  0  0  0  0  0  0  0  0  0
  1  2  1  0
  2  3  1  0
  3  4  2  0
  4  5  1  0
  5  6  2  0
  6  7  1  0
  7  8  2  0
  8  9  1  0
  9 10  1  0
 10 11  2  0
 10 12  1  0
 12 13  1  0
 13 14  1  0
 14 15  1  0
 15 16  1  0
 16 17  1  0
 17 18  1  0
 17 19  1  0
 17 20  1  0
 16 21  1  0
  9 22  2  0
 22 23  1  0
 23 24  2  0
 24 25  1  0
 25 26  2  0
 26 27  1  0
 27 28  2  0
  6 29  1  0
 29 30  2  0
 30 31  1  0
 31 32  1  0
 30  3  1  0
 28  7  1  0
 21 12  1  0
 27 22  1  0
  1 33  1  0
  1 34  1  0
  1 35  1  0
  4 36  1  0
  5 37  1  0
  8 38  1  0
 13 39  1  0
 13 40  1  0
 14 41  1  0
 14 42  1  0
 15 43  1  0
 15 44  1  0
 16 45  1  0
 21 46  1  0
 21 47  1  0
 23 48  1  0
 24 49  1  0
 25 50  1  0
 26 51  1  0
 29 52  1  0
 32 53  1  0
 32 54  1  0
 32 55  1  0
M  END
$$$$
