
     RDKit          3D

 52 53  0  0  0  0  0  0  0  0999 V2000
    6.7837    1.1163   -2.8402 C   0  0  0  0  0  0  0  0  0  0  0  0
    6.0790    0.4894   -1.7768 O   0  0  0  0  0  0  0  0  0  0  0  0
    5.0772    1.2107   -1.1840 C   0  0  0  0  0  0  0  0  0  0  0  0
    4.6660    2.4909   -1.5551 C   0  0  0  0  0  0  0  0  0  0  0  0
    3.6286    3.1176   -0.8632 C   0  0  0  0  0  0  0  0  0  0  0  0
    3.0028    2.4668    0.2002 C   0  0  0  0  0  0  0  0  0  0  0  0
    3.4019    1.1808    0.5801 C   0  0  0  0  0  0  0  0  0  0  0  0
    2.7198    0.5976    1.6640 N   0  0  0  0  0  0  0  0  0  0  0  0
    2.8446   -0.6890    2.1614 C   0  0  0  0  0  0  0  0  0  0  0  0
    3.5540   -1.5863    1.7169 O   0  0  0  0  0  0  0  0  0  0  0  0
    1.9177   -0.9409    3.3582 C   0  0  0  0  0  0  0  0  0  0  0  0
    0.5302   -1.1205    2.9269 N   0  0  0  0  0  0  0  0  0  0  0  0
    0.1850   -2.4299    2.3841 C   0  0  0  0  0  0  0  0  0  0  0  0
   -0.2010    0.0279    2.6727 C   0  0  0  0  0  0  0  0  0  0  0  0
    0.2290    1.1608    2.8869 O   0  0  0  0  0  0  0  0  0  0  0  0
   -1.5358   -0.1474    2.0728 C   0  0  0  0  0  0  0  0  0  0  0  0
   -1.6412   -0.0443    0.7404 C   0  0  0  0  0  0  0  0  0  0  0  0
   -2.9039   -0.2474    0.0136 C   0  0  0  0  0  0  0  0  0  0  0  0
   -4.0703    0.4141    0.4316 C   0  0  0  0  0  0  0  0  0  0  0  0
   -5.2742    0.2615   -0.2599 C   0  0  0  0  0  0  0  0  0  0  0  0
   -6.3268    0.9612    0.2620 O   0  0  0  0  0  0  0  0  0  0  0  0
   -7.5666    0.8716   -0.4284 C   0  0  0  0  0  0  0  0  0  0  0  0
   -5.3116   -0.5577   -1.3853 C   0  0  0  0  0  0  0  0  0  0  0  0
   -4.1534   -1.2144   -1.8218 C   0  0  0  0  0  0  0  0  0  0  0  0
   -2.9445   -1.0618   -1.1353 C   0  0  0  0  0  0  0  0  0  0  0  0
   -1.7670   -1.6721   -1.4904 O   0  0  0  0  0  0  0  0  0  0  0  0
   -1.7564   -2.4335   -2.6911 C   0  0  0  0  0  0  0  0  0  0  0  0
    4.4403    0.5608   -0.1179 C   0  0  0  0  0  0  0  0  0  0  0  0
    6.1174    1.3315   -3.6829 H   0  0  0  0  0  0  0  0  0  0  0  0
    7.2912    2.0237   -2.4955 H   0  0  0  0  0  0  0  0  0  0  0  0
    7.5508    0.4184   -3.1923 H   0  0  0  0  0  0  0  0  0  0  0  0
    5.1280    3.0250   -2.3772 H   0  0  0  0  0  0  0  0  0  0  0  0
    3.3064    4.1148   -1.1520 H   0  0  0  0  0  0  0  0  0  0  0  0
    2.1951    2.9745    0.7234 H   0  0  0  0  0  0  0  0  0  0  0  0
    1.9818    1.1624    2.0901 H   0  0  0  0  0  0  0  0  0  0  0  0
    2.2520   -1.8319    3.8996 H   0  0  0  0  0  0  0  0  0  0  0  0
    1.9913   -0.0947    4.0513 H   0  0  0  0  0  0  0  0  0  0  0  0
   -0.8972   -2.5780    2.3573 H   0  0  0  0  0  0  0  0  0  0  0  0
    0.6219   -3.2114    3.0129 H   0  0  0  0  0  0  0  0  0  0  0  0
    0.5821   -2.5061    1.3674 H   0  0  0  0  0  0  0  0  0  0  0  0
   -2.3558   -0.3797    2.7379 H   0  0  0  0  0  0  0  0  0  0  0  0
   -0.7661    0.1526    0.1237 H   0  0  0  0  0  0  0  0  0  0  0  0
   -4.0469    1.0719    1.2989 H   0  0  0  0  0  0  0  0  0  0  0  0
   -8.2910    1.4973    0.1018 H   0  0  0  0  0  0  0  0  0  0  0  0
   -7.9461   -0.1555   -0.4234 H   0  0  0  0  0  0  0  0  0  0  0  0
   -7.4785    1.2561   -1.4499 H   0  0  0  0  0  0  0  0  0  0  0  0
   -6.2248   -0.7084   -1.9513 H   0  0  0  0  0  0  0  0  0  0  0  0
   -4.2328   -1.8416   -2.7036 H   0  0  0  0  0  0  0  0  0  0  0  0
   -2.0222   -1.8156   -3.5547 H   0  0  0  0  0  0  0  0  0  0  0  0
   -2.4139   -3.3052   -2.6097 H   0  0  0  0  0  0  0  0  0  0  0  0
   -0.7368   -2.7983   -2.8455 H   0  0  0  0  0  0  0  0  0  0  0  0
    4.7870   -0.4318    0.1512 H   0  0  0  0  0  0  0  0  0  0  0  0
  1  2  1  0
  2  3  1  0
  3  4  2  0
  4  5  1  0
  5  6  2  0
  6  7  1  0
  7  8  1  0
  8  9  1  0
  9 10  2  0
  9 11  1  0
 11 12  1  0
 12 13  1  0
 12 14  1  0
 14 15  2  0
 14 16  1  0
 16 17  2  3
 17 18  1  0
 18 19  2  0
 19 20  1  0
 20 21  1  0
 21 22  1  0
 20 23  2  0
 23 24  1  0
 24 25  2  0
 25 26  1  0
 26 27  1  0
  7 28  2  0
 28  3  1  0
 25 18  1  0
  1 29  1  0
  1 30  1  0
  1 31  1  0
  4 32  1  0
  5 33  1  0
  6 34  1  0
  8 35  1  0
 11 36  1  0
 11 37  1  0
 13 38  1  0
 13 39  1  0
 13 40  1  0
 16 41  1  0
 17 42  1  0
 19 43  1  0
 22 44  1  0
 22 45  1  0
 22 46  1  0
 23 47  1  0
 24 48  1  0
 27 49  1  0
 27 50  1  0
 27 51  1  0
 28 52  1  0
M  END
$$$$
