
     RDKit          3D

 33 35  0  0  0  0  0  0  0  0999 V2000
   -0.0365   -2.3473    1.2707 O   0  0  0  0  0  0  0  0  0  0  0  0
   -0.0363   -1.7815    0.1877 C   0  0  0  0  0  0  0  0  0  0  0  0
    1.1458   -1.0658   -0.3763 C   0  0  0  0  0  0  0  0  0  0  0  0
    2.3012   -1.0319    0.3023 C   0  0  0  0  0  0  0  0  0  0  0  0
    3.4950   -0.3864   -0.1323 C   0  0  0  0  0  0  0  0  0  0  0  0
    3.7030    0.8394   -0.7434 C   0  0  0  0  0  0  0  0  0  0  0  0
    5.0785    1.1098   -1.0047 C   0  0  0  0  0  0  0  0  0  0  0  0
    5.8934    0.0925   -0.5684 C   0  0  0  0  0  0  0  0  0  0  0  0
    5.0052   -1.1708    0.1576 S   0  0  0  0  0  0  0  0  0  0  0  0
    0.7639   -0.4065   -1.9238 S   0  0  0  0  0  0  0  0  0  0  0  0
   -0.8801   -1.0157   -1.8947 C   0  0  0  0  0  0  0  0  0  0  0  0
   -1.9730   -0.8211   -3.1377 S   0  0  0  0  0  0  0  0  0  0  0  0
   -1.0943   -1.6700   -0.7008 N   0  0  0  0  0  0  0  0  0  0  0  0
   -2.4314   -2.2937   -0.3759 N   0  0  0  0  0  0  0  0  0  0  0  0
   -3.3877   -1.5680    0.8338 S   0  0  0  0  0  6  0  0  0  0  0  0
   -3.1348   -2.2326    2.0911 O   0  0  0  0  0  0  0  0  0  0  0  0
   -4.7223   -1.4950    0.2772 O   0  0  0  0  0  0  0  0  0  0  0  0
   -2.7725    0.0960    0.9452 C   0  0  0  0  0  0  0  0  0  0  0  0
   -1.8460    0.4257    1.9396 C   0  0  0  0  0  0  0  0  0  0  0  0
   -1.3482    1.7260    2.0098 C   0  0  0  0  0  0  0  0  0  0  0  0
   -1.7895    2.6918    1.1041 C   0  0  0  0  0  0  0  0  0  0  0  0
   -2.7375    2.3656    0.1323 C   0  0  0  0  0  0  0  0  0  0  0  0
   -3.2397    1.0670    0.0543 C   0  0  0  0  0  0  0  0  0  0  0  0
    2.3584   -1.5622    1.2540 H   0  0  0  0  0  0  0  0  0  0  0  0
    2.9062    1.5293   -0.9939 H   0  0  0  0  0  0  0  0  0  0  0  0
    5.4487    2.0082   -1.4831 H   0  0  0  0  0  0  0  0  0  0  0  0
    6.9713    0.0323   -0.6336 H   0  0  0  0  0  0  0  0  0  0  0  0
   -3.0207   -2.4656   -1.1981 H   0  0  0  0  0  0  0  0  0  0  0  0
   -1.5064   -0.3215    2.6556 H   0  0  0  0  0  0  0  0  0  0  0  0
   -0.6246    1.9904    2.7781 H   0  0  0  0  0  0  0  0  0  0  0  0
   -1.4064    3.7081    1.1669 H   0  0  0  0  0  0  0  0  0  0  0  0
   -3.0924    3.1289   -0.5567 H   0  0  0  0  0  0  0  0  0  0  0  0
   -3.9903    0.8249   -0.6959 H   0  0  0  0  0  0  0  0  0  0  0  0
  1  2  2  0
  2  3  1  0
  3  4  2  3
  4  5  1  0
  5  6  2  0
  6  7  1  0
  7  8  2  0
  8  9  1  0
  3 10  1  0
 10 11  1  0
 11 12  2  0
 11 13  1  0
 13 14  1  0
 14 15  1  0
 15 16  2  0
 15 17  2  0
 15 18  1  0
 18 19  2  0
 19 20  1  0
 20 21  2  0
 21 22  1  0
 22 23  2  0
 13  2  1  0
 23 18  1  0
  9  5  1  0
  4 24  1  0
  6 25  1  0
  7 26  1  0
  8 27  1  0
 14 28  1  0
 19 29  1  0
 20 30  1  0
 21 31  1  0
 22 32  1  0
 23 33  1  0
M  END
$$$$
