
     RDKit          3D

 53 55  0  0  0  0  0  0  0  0999 V2000
   -6.1959   -0.5808   -2.2799 C   0  0  0  0  0  0  0  0  0  0  0  0
   -5.9957    0.8143   -2.4509 O   0  0  0  0  0  0  0  0  0  0  0  0
   -4.7128    1.2904   -2.3390 C   0  0  0  0  0  0  0  0  0  0  0  0
   -3.5811    0.4843   -2.1843 C   0  0  0  0  0  0  0  0  0  0  0  0
   -2.3105    1.0596   -2.0862 C   0  0  0  0  0  0  0  0  0  0  0  0
   -2.1540    2.4470   -2.1317 C   0  0  0  0  0  0  0  0  0  0  0  0
   -0.8279    3.0766   -2.0909 C   0  0  0  0  0  0  0  0  0  0  0  0
    0.1436    2.8964   -1.1818 C   0  0  0  0  0  0  0  0  0  0  0  0
    0.0427    2.0593    0.0474 C   0  0  0  0  0  0  0  0  0  0  0  0
   -1.0056    1.9517    0.6651 O   0  0  0  0  0  0  0  0  0  0  0  0
    1.2570    1.4732    0.3488 N   0  0  0  0  0  0  0  0  0  0  0  0
    1.5573    0.6544    1.4582 C   0  0  0  0  0  0  0  0  0  0  0  0
    0.6506    0.3565    2.4787 C   0  0  0  0  0  0  0  0  0  0  0  0
    1.0327   -0.4375    3.5665 C   0  0  0  0  0  0  0  0  0  0  0  0
    2.3232   -0.9542    3.6392 C   0  0  0  0  0  0  0  0  0  0  0  0
    3.2216   -0.6896    2.6049 C   0  0  0  0  0  0  0  0  0  0  0  0
    4.8856   -1.3162    2.6973 S   0  0  0  0  0  6  0  0  0  0  0  0
    5.1994   -1.5070    4.0974 O   0  0  0  0  0  0  0  0  0  0  0  0
    5.7064   -0.4759    1.8498 O   0  0  0  0  0  0  0  0  0  0  0  0
    4.7829   -2.8294    1.9741 N   0  0  0  0  0  0  0  0  0  0  0  0
    4.1061   -3.9356    2.6752 C   0  0  0  0  0  0  0  0  0  0  0  0
    3.8859   -4.9701    1.5796 C   0  0  0  0  0  0  0  0  0  0  0  0
    3.5802   -4.1041    0.3716 C   0  0  0  0  0  0  0  0  0  0  0  0
    4.5563   -2.9430    0.5199 C   0  0  0  0  0  0  0  0  0  0  0  0
    2.8525    0.1305    1.5311 C   0  0  0  0  0  0  0  0  0  0  0  0
   -3.2856    3.2565   -2.2991 C   0  0  0  0  0  0  0  0  0  0  0  0
   -4.5637    2.6902   -2.3931 C   0  0  0  0  0  0  0  0  0  0  0  0
   -5.7182    3.4159   -2.5617 O   0  0  0  0  0  0  0  0  0  0  0  0
   -5.6490    4.8142   -2.3259 C   0  0  0  0  0  0  0  0  0  0  0  0
   -5.8599   -0.9131   -1.2919 H   0  0  0  0  0  0  0  0  0  0  0  0
   -5.7066   -1.1500   -3.0765 H   0  0  0  0  0  0  0  0  0  0  0  0
   -7.2711   -0.7741   -2.3466 H   0  0  0  0  0  0  0  0  0  0  0  0
   -3.6513   -0.5971   -2.1380 H   0  0  0  0  0  0  0  0  0  0  0  0
   -1.4474    0.4091   -1.9724 H   0  0  0  0  0  0  0  0  0  0  0  0
   -0.6395    3.7658   -2.9127 H   0  0  0  0  0  0  0  0  0  0  0  0
    1.0775    3.4359   -1.3043 H   0  0  0  0  0  0  0  0  0  0  0  0
    2.0178    1.6341   -0.2984 H   0  0  0  0  0  0  0  0  0  0  0  0
   -0.3639    0.7446    2.4708 H   0  0  0  0  0  0  0  0  0  0  0  0
    0.3181   -0.6384    4.3615 H   0  0  0  0  0  0  0  0  0  0  0  0
    2.6197   -1.5505    4.4992 H   0  0  0  0  0  0  0  0  0  0  0  0
    3.1430   -3.6170    3.0826 H   0  0  0  0  0  0  0  0  0  0  0  0
    4.7299   -4.3351    3.4790 H   0  0  0  0  0  0  0  0  0  0  0  0
    3.0790   -5.6683    1.8183 H   0  0  0  0  0  0  0  0  0  0  0  0
    4.8035   -5.5460    1.4088 H   0  0  0  0  0  0  0  0  0  0  0  0
    2.5483   -3.7358    0.4268 H   0  0  0  0  0  0  0  0  0  0  0  0
    3.7029   -4.6356   -0.5761 H   0  0  0  0  0  0  0  0  0  0  0  0
    4.1507   -2.0350    0.0687 H   0  0  0  0  0  0  0  0  0  0  0  0
    5.5124   -3.1742    0.0380 H   0  0  0  0  0  0  0  0  0  0  0  0
    3.5840    0.3607    0.7600 H   0  0  0  0  0  0  0  0  0  0  0  0
   -3.1486    4.3316   -2.3545 H   0  0  0  0  0  0  0  0  0  0  0  0
   -5.2437    5.0345   -1.3330 H   0  0  0  0  0  0  0  0  0  0  0  0
   -6.6684    5.2115   -2.3652 H   0  0  0  0  0  0  0  0  0  0  0  0
   -5.0706    5.3146   -3.1090 H   0  0  0  0  0  0  0  0  0  0  0  0
  1  2  1  0
  2  3  1  0
  3  4  2  0
  4  5  1  0
  5  6  2  0
  6  7  1  0
  7  8  2  3
  8  9  1  0
  9 10  2  0
  9 11  1  0
 11 12  1  0
 12 13  2  0
 13 14  1  0
 14 15  2  0
 15 16  1  0
 16 17  1  0
 17 18  2  0
 17 19  2  0
 17 20  1  0
 20 21  1  0
 21 22  1  0
 22 23  1  0
 23 24  1  0
 16 25  2  0
  6 26  1  0
 26 27  2  0
 27 28  1  0
 28 29  1  0
 27  3  1  0
 25 12  1  0
 24 20  1  0
  1 30  1  0
  1 31  1  0
  1 32  1  0
  4 33  1  0
  5 34  1  0
  7 35  1  0
  8 36  1  0
 11 37  1  0
 13 38  1  0
 14 39  1  0
 15 40  1  0
 21 41  1  0
 21 42  1  0
 22 43  1  0
 22 44  1  0
 23 45  1  0
 23 46  1  0
 24 47  1  0
 24 48  1  0
 25 49  1  0
 26 50  1  0
 29 51  1  0
 29 52  1  0
 29 53  1  0
M  END
$$$$
