
     RDKit          3D

 37 39  0  0  0  0  0  0  0  0999 V2000
    4.7799   -0.8605   -1.2511 C   0  0  0  0  0  0  0  0  0  0  0  0
    4.2538   -0.2428    0.0120 C   0  0  0  0  0  0  0  0  0  0  0  0
    5.1324    0.3501    0.9274 C   0  0  0  0  0  0  0  0  0  0  0  0
    4.6470    0.9325    2.0987 C   0  0  0  0  0  0  0  0  0  0  0  0
    3.2791    0.9442    2.3524 C   0  0  0  0  0  0  0  0  0  0  0  0
    2.8820    1.5063    3.5362 O   0  0  0  0  0  0  0  0  0  0  0  0
    2.3779    0.4044    1.4251 C   0  0  0  0  0  0  0  0  0  0  0  0
    0.9217    0.4628    1.7087 C   0  0  0  0  0  0  0  0  0  0  0  0
    0.5497    0.4852    2.8819 O   0  0  0  0  0  0  0  0  0  0  0  0
   -0.0972    0.5178    0.6420 C   0  0  0  0  0  0  0  0  0  0  0  0
    0.0969    1.2286   -0.5345 C   0  0  0  0  0  0  0  0  0  0  0  0
   -0.8184    1.2960   -1.5312 N   0  0  0  0  0  0  0  0  0  0  0  0
   -1.9922    0.6646   -1.3236 C   0  0  0  0  0  0  0  0  0  0  0  0
   -2.2938   -0.0462   -0.1754 C   0  0  0  0  0  0  0  0  0  0  0  0
   -1.3239   -0.1215    0.8279 C   0  0  0  0  0  0  0  0  0  0  0  0
   -3.5949   -0.7687   -0.0922 C   0  0  0  0  0  0  0  0  0  0  0  0
   -4.5848   -0.2911   -1.0411 N   0  0  0  0  0  0  0  0  0  0  0  0
   -5.9270   -0.8271   -0.9133 C   0  0  0  0  0  0  0  0  0  0  0  0
   -4.2186    0.2998   -2.2339 C   0  0  0  0  0  0  0  0  0  0  0  0
   -4.9908    0.4652   -3.1759 O   0  0  0  0  0  0  0  0  0  0  0  0
   -2.9361    0.7414   -2.3276 N   0  0  0  0  0  0  0  0  0  0  0  0
    2.8737   -0.2075    0.2640 C   0  0  0  0  0  0  0  0  0  0  0  0
    4.1496   -1.6984   -1.5671 H   0  0  0  0  0  0  0  0  0  0  0  0
    4.8038   -0.1134   -2.0503 H   0  0  0  0  0  0  0  0  0  0  0  0
    5.7913   -1.2532   -1.1030 H   0  0  0  0  0  0  0  0  0  0  0  0
    6.2048    0.3501    0.7418 H   0  0  0  0  0  0  0  0  0  0  0  0
    5.3350    1.3705    2.8173 H   0  0  0  0  0  0  0  0  0  0  0  0
    1.9410    1.2611    3.6834 H   0  0  0  0  0  0  0  0  0  0  0  0
    1.0064    1.7919   -0.7255 H   0  0  0  0  0  0  0  0  0  0  0  0
   -1.5172   -0.6752    1.7444 H   0  0  0  0  0  0  0  0  0  0  0  0
   -4.0150   -0.6527    0.9136 H   0  0  0  0  0  0  0  0  0  0  0  0
   -3.4314   -1.8349   -0.2882 H   0  0  0  0  0  0  0  0  0  0  0  0
   -6.6296   -0.3024   -1.5667 H   0  0  0  0  0  0  0  0  0  0  0  0
   -5.9102   -1.8862   -1.1873 H   0  0  0  0  0  0  0  0  0  0  0  0
   -6.2623   -0.7189    0.1222 H   0  0  0  0  0  0  0  0  0  0  0  0
   -2.6835    1.2485   -3.1622 H   0  0  0  0  0  0  0  0  0  0  0  0
    2.2010   -0.6789   -0.4489 H   0  0  0  0  0  0  0  0  0  0  0  0
  1  2  1  0
  2  3  2  0
  3  4  1  0
  4  5  2  0
  5  6  1  0
  5  7  1  0
  7  8  1  0
  8  9  2  0
  8 10  1  0
 10 11  2  0
 11 12  1  0
 12 13  2  0
 13 14  1  0
 14 15  2  0
 14 16  1  0
 16 17  1  0
 17 18  1  0
 17 19  1  0
 19 20  2  0
 19 21  1  0
  7 22  2  0
 22  2  1  0
 15 10  1  0
 21 13  1  0
  1 23  1  0
  1 24  1  0
  1 25  1  0
  3 26  1  0
  4 27  1  0
  6 28  1  0
 11 29  1  0
 15 30  1  0
 16 31  1  0
 16 32  1  0
 18 33  1  0
 18 34  1  0
 18 35  1  0
 21 36  1  0
 22 37  1  0
M  END
$$$$
