
     RDKit          3D

 52 54  0  0  0  0  0  0  0  0999 V2000
    1.2077   -2.4504   -2.9543 C   0  0  0  0  0  0  0  0  0  0  0  0
    1.7488   -3.1815   -1.7402 C   0  0  0  0  0  0  0  0  0  0  0  0
    2.6731   -2.3399   -1.0327 O   0  0  0  0  0  0  0  0  0  0  0  0
    2.1313   -1.5219   -0.0974 C   0  0  0  0  0  0  0  0  0  0  0  0
    0.9429   -1.4458    0.1793 O   0  0  0  0  0  0  0  0  0  0  0  0
    3.1713   -0.6879    0.5753 C   0  0  0  0  0  0  0  0  0  0  0  0
    4.5238   -0.8262    0.2081 C   0  0  0  0  0  0  0  0  0  0  0  0
    5.5091   -0.0600    0.8266 C   0  0  0  0  0  0  0  0  0  0  0  0
    5.1535    0.8484    1.8153 C   0  0  0  0  0  0  0  0  0  0  0  0
    3.8140    0.9962    2.1898 C   0  0  0  0  0  0  0  0  0  0  0  0
    2.8027    0.2390    1.5835 C   0  0  0  0  0  0  0  0  0  0  0  0
    1.4344    0.3763    1.9498 N   0  0  0  0  0  0  0  0  0  0  0  0
    0.8834    1.1852    2.9219 C   0  0  0  0  0  0  0  0  0  0  0  0
    1.4998    1.9674    3.6420 O   0  0  0  0  0  0  0  0  0  0  0  0
   -0.6300    1.0886    3.0624 C   0  0  0  0  0  0  0  0  0  0  0  0
   -1.1351   -0.3300    3.3104 C   0  0  0  0  0  0  0  0  0  0  0  0
   -1.8852   -0.6946    2.0576 C   0  0  0  0  0  0  0  0  0  0  0  0
   -2.3250   -1.8061    1.8123 O   0  0  0  0  0  0  0  0  0  0  0  0
   -2.0138    0.4372    1.2719 N   0  0  0  0  0  0  0  0  0  0  0  0
   -2.6501    0.4274   -0.0464 C   0  0  0  0  0  0  0  0  0  0  0  0
   -1.6230    0.1299   -1.1538 C   0  0  0  0  0  0  0  0  0  0  0  0
   -2.0427    0.6446   -2.5329 C   0  0  0  0  0  0  0  0  0  0  0  0
   -3.5562    0.6801   -2.6914 C   0  0  0  0  0  0  0  0  0  0  0  0
   -4.2159    1.5978   -1.6603 C   0  0  0  0  0  0  0  0  0  0  0  0
   -3.4353    1.7073   -0.3477 C   0  0  0  0  0  0  0  0  0  0  0  0
   -1.3477    1.5926    1.8235 C   0  0  0  0  0  0  0  0  0  0  0  0
    0.5364   -3.0950   -3.5287 H   0  0  0  0  0  0  0  0  0  0  0  0
    2.0273   -2.1256   -3.6037 H   0  0  0  0  0  0  0  0  0  0  0  0
    0.6612   -1.5496   -2.6591 H   0  0  0  0  0  0  0  0  0  0  0  0
    0.9399   -3.5265   -1.0860 H   0  0  0  0  0  0  0  0  0  0  0  0
    2.3044   -4.0687   -2.0608 H   0  0  0  0  0  0  0  0  0  0  0  0
    4.8279   -1.5318   -0.5617 H   0  0  0  0  0  0  0  0  0  0  0  0
    6.5515   -0.1729    0.5386 H   0  0  0  0  0  0  0  0  0  0  0  0
    5.9172    1.4496    2.3041 H   0  0  0  0  0  0  0  0  0  0  0  0
    3.5987    1.7224    2.9674 H   0  0  0  0  0  0  0  0  0  0  0  0
    0.7953   -0.2267    1.4238 H   0  0  0  0  0  0  0  0  0  0  0  0
   -0.8919    1.7185    3.9230 H   0  0  0  0  0  0  0  0  0  0  0  0
   -0.3346   -1.0518    3.4949 H   0  0  0  0  0  0  0  0  0  0  0  0
   -1.8425   -0.3498    4.1461 H   0  0  0  0  0  0  0  0  0  0  0  0
   -3.3675   -0.4048   -0.0371 H   0  0  0  0  0  0  0  0  0  0  0  0
   -0.6437    0.5600   -0.9108 H   0  0  0  0  0  0  0  0  0  0  0  0
   -1.4696   -0.9558   -1.2010 H   0  0  0  0  0  0  0  0  0  0  0  0
   -1.5938    0.0169   -3.3110 H   0  0  0  0  0  0  0  0  0  0  0  0
   -1.6429    1.6560   -2.6789 H   0  0  0  0  0  0  0  0  0  0  0  0
   -3.9528   -0.3369   -2.5791 H   0  0  0  0  0  0  0  0  0  0  0  0
   -3.8253    1.0090   -3.7015 H   0  0  0  0  0  0  0  0  0  0  0  0
   -4.3361    2.6034   -2.0814 H   0  0  0  0  0  0  0  0  0  0  0  0
   -5.2291    1.2288   -1.4596 H   0  0  0  0  0  0  0  0  0  0  0  0
   -2.7454    2.5588   -0.4148 H   0  0  0  0  0  0  0  0  0  0  0  0
   -4.1292    1.9394    0.4693 H   0  0  0  0  0  0  0  0  0  0  0  0
   -2.1129    2.3294    2.0896 H   0  0  0  0  0  0  0  0  0  0  0  0
   -0.6782    2.0297    1.0761 H   0  0  0  0  0  0  0  0  0  0  0  0
  1  2  1  0
  2  3  1  0
  3  4  1  0
  4  5  2  0
  4  6  1  0
  6  7  2  0
  7  8  1  0
  8  9  2  0
  9 10  1  0
 10 11  2  0
 11 12  1  0
 12 13  1  0
 13 14  2  0
 13 15  1  0
 15 16  1  0
 16 17  1  0
 17 18  2  0
 17 19  1  0
 19 20  1  0
 20 21  1  0
 21 22  1  0
 22 23  1  0
 23 24  1  0
 24 25  1  0
 19 26  1  0
 11  6  1  0
 26 15  1  0
 25 20  1  0
  1 27  1  0
  1 28  1  0
  1 29  1  0
  2 30  1  0
  2 31  1  0
  7 32  1  0
  8 33  1  0
  9 34  1  0
 10 35  1  0
 12 36  1  0
 15 37  1  0
 16 38  1  0
 16 39  1  0
 20 40  1  0
 21 41  1  0
 21 42  1  0
 22 43  1  0
 22 44  1  0
 23 45  1  0
 23 46  1  0
 24 47  1  0
 24 48  1  0
 25 49  1  0
 25 50  1  0
 26 51  1  0
 26 52  1  0
M  END
$$$$
