
     RDKit          3D

 53 55  0  0  0  0  0  0  0  0999 V2000
    5.1735   -0.6260    1.1194 C   0  0  0  0  0  0  0  0  0  0  0  0
    5.5824   -0.8838   -0.2772 C   0  0  0  0  0  0  0  0  0  0  0  0
    6.8753   -1.2793   -0.4548 O   0  0  0  0  0  0  0  0  0  0  0  0
    7.0362   -1.5362   -1.7770 C   0  0  0  0  0  0  0  0  0  0  0  0
    5.8658   -1.3014   -2.4568 C   0  0  0  0  0  0  0  0  0  0  0  0
    4.9241   -0.8343   -1.4954 C   0  0  0  0  0  0  0  0  0  0  0  0
    3.5335   -0.4808   -1.7220 C   0  0  0  0  0  0  0  0  0  0  0  0
    2.7818   -1.2787   -2.2781 O   0  0  0  0  0  0  0  0  0  0  0  0
    3.0959    0.7775   -1.2963 N   0  0  0  0  0  0  0  0  0  0  0  0
    3.9742    1.8907   -0.9578 C   0  0  0  0  0  0  0  0  0  0  0  0
    1.6610    1.0593   -1.3584 C   0  0  0  0  0  0  0  0  0  0  0  0
    0.8684    0.4316   -0.1959 C   0  0  0  0  0  0  0  0  0  0  0  0
    1.2183    1.0819    1.1483 C   0  0  0  0  0  0  0  0  0  0  0  0
    0.3195    0.5449    2.2553 C   0  0  0  0  0  0  0  0  0  0  0  0
   -1.1593    0.6781    1.8928 C   0  0  0  0  0  0  0  0  0  0  0  0
   -1.4567    0.0020    0.6215 N   0  0  0  0  0  0  0  0  0  0  0  0
   -2.8900    0.0940    0.2726 C   0  0  0  0  0  0  0  0  0  0  0  0
   -3.7979   -0.7356    1.1968 C   0  0  0  0  0  0  0  0  0  0  0  0
   -5.2267   -0.7456    0.7120 C   0  0  0  0  0  0  0  0  0  0  0  0
   -5.7410   -1.8447    0.0115 C   0  0  0  0  0  0  0  0  0  0  0  0
   -7.0623   -1.8359   -0.4437 C   0  0  0  0  0  0  0  0  0  0  0  0
   -7.8801   -0.7303   -0.2073 C   0  0  0  0  0  0  0  0  0  0  0  0
   -7.3761    0.3697    0.4839 C   0  0  0  0  0  0  0  0  0  0  0  0
   -6.0595    0.3549    0.9347 C   0  0  0  0  0  0  0  0  0  0  0  0
   -5.5883    1.4252    1.5911 F   0  0  0  0  0  0  0  0  0  0  0  0
   -0.6410    0.5630   -0.4714 C   0  0  0  0  0  0  0  0  0  0  0  0
    4.1072   -0.8271    1.2587 H   0  0  0  0  0  0  0  0  0  0  0  0
    5.7266   -1.2677    1.8126 H   0  0  0  0  0  0  0  0  0  0  0  0
    5.3690    0.4160    1.3885 H   0  0  0  0  0  0  0  0  0  0  0  0
    8.0169   -1.8841   -2.0701 H   0  0  0  0  0  0  0  0  0  0  0  0
    5.6992   -1.4417   -3.5158 H   0  0  0  0  0  0  0  0  0  0  0  0
    3.7371    2.7336   -1.6148 H   0  0  0  0  0  0  0  0  0  0  0  0
    5.0306    1.6570   -1.0941 H   0  0  0  0  0  0  0  0  0  0  0  0
    3.7957    2.1832    0.0798 H   0  0  0  0  0  0  0  0  0  0  0  0
    1.5084    2.1453   -1.3843 H   0  0  0  0  0  0  0  0  0  0  0  0
    1.2838    0.6696   -2.3122 H   0  0  0  0  0  0  0  0  0  0  0  0
    1.1128   -0.6378   -0.1324 H   0  0  0  0  0  0  0  0  0  0  0  0
    2.2631    0.8870    1.4112 H   0  0  0  0  0  0  0  0  0  0  0  0
    1.1003    2.1709    1.0816 H   0  0  0  0  0  0  0  0  0  0  0  0
    0.5207    1.0861    3.1869 H   0  0  0  0  0  0  0  0  0  0  0  0
    0.5593   -0.5098    2.4415 H   0  0  0  0  0  0  0  0  0  0  0  0
   -1.7336    0.2309    2.7107 H   0  0  0  0  0  0  0  0  0  0  0  0
   -1.4333    1.7401    1.8433 H   0  0  0  0  0  0  0  0  0  0  0  0
   -3.0280   -0.2881   -0.7483 H   0  0  0  0  0  0  0  0  0  0  0  0
   -3.2155    1.1428    0.2560 H   0  0  0  0  0  0  0  0  0  0  0  0
   -3.7861   -0.3452    2.2211 H   0  0  0  0  0  0  0  0  0  0  0  0
   -3.4246   -1.7659    1.2588 H   0  0  0  0  0  0  0  0  0  0  0  0
   -5.1159   -2.7136   -0.1845 H   0  0  0  0  0  0  0  0  0  0  0  0
   -7.4536   -2.6943   -0.9849 H   0  0  0  0  0  0  0  0  0  0  0  0
   -8.9073   -0.7267   -0.5626 H   0  0  0  0  0  0  0  0  0  0  0  0
   -7.9983    1.2383    0.6739 H   0  0  0  0  0  0  0  0  0  0  0  0
   -0.8648    0.0237   -1.4008 H   0  0  0  0  0  0  0  0  0  0  0  0
   -0.9008    1.6174   -0.6391 H   0  0  0  0  0  0  0  0  0  0  0  0
  1  2  1  0
  2  3  1  0
  3  4  1  0
  4  5  2  0
  5  6  1  0
  6  7  1  0
  7  8  2  0
  7  9  1  0
  9 10  1  0
  9 11  1  0
 11 12  1  0
 12 13  1  0
 13 14  1  0
 14 15  1  0
 15 16  1  0
 16 17  1  0
 17 18  1  0
 18 19  1  0
 19 20  2  0
 20 21  1  0
 21 22  2  0
 22 23  1  0
 23 24  2  0
 24 25  1  0
 16 26  1  0
  6  2  2  0
 26 12  1  0
 24 19  1  0
  1 27  1  0
  1 28  1  0
  1 29  1  0
  4 30  1  0
  5 31  1  0
 10 32  1  0
 10 33  1  0
 10 34  1  0
 11 35  1  0
 11 36  1  0
 12 37  1  0
 13 38  1  0
 13 39  1  0
 14 40  1  0
 14 41  1  0
 15 42  1  0
 15 43  1  0
 17 44  1  0
 17 45  1  0
 18 46  1  0
 18 47  1  0
 20 48  1  0
 21 49  1  0
 22 50  1  0
 23 51  1  0
 26 52  1  0
 26 53  1  0
M  END
$$$$
