
     RDKit          3D

 48 50  0  0  0  0  0  0  0  0999 V2000
    6.4325   -2.9191   -1.4586 C   0  0  0  0  0  0  0  0  0  0  0  0
    4.9716   -2.5750   -1.4879 C   0  0  0  0  0  0  0  0  0  0  0  0
    4.1073   -3.2193   -2.3764 C   0  0  0  0  0  0  0  0  0  0  0  0
    2.7246   -2.9396   -2.4198 C   0  0  0  0  0  0  0  0  0  0  0  0
    1.8660   -3.6834   -3.4043 C   0  0  0  0  0  0  0  0  0  0  0  0
    2.2377   -1.9890   -1.4936 C   0  0  0  0  0  0  0  0  0  0  0  0
    0.6322   -1.4134   -1.2362 S   0  0  0  0  0  0  0  0  0  0  0  0
    1.1673   -0.3700    0.0177 C   0  0  0  0  0  0  0  0  0  0  0  0
    0.2299    0.4320    0.6943 N   0  0  0  0  0  0  0  0  0  0  0  0
   -1.2259    0.3390    0.4592 C   0  0  0  0  0  0  0  0  0  0  0  0
   -1.7023    1.3242   -0.6130 C   0  0  0  0  0  0  0  0  0  0  0  0
   -3.1729    1.1082   -0.9945 C   0  0  0  0  0  0  0  0  0  0  0  0
   -4.1008    1.1418    0.1469 N   0  0  0  0  0  0  0  0  0  0  0  0
   -4.2054    2.4856    0.7247 C   0  0  0  0  0  0  0  0  0  0  0  0
   -5.4321    0.6945   -0.2738 C   0  0  0  0  0  0  0  0  0  0  0  0
    0.7797    1.4617    1.5008 C   0  0  0  0  0  0  0  0  0  0  0  0
    1.9448    1.8500    1.4252 O   0  0  0  0  0  0  0  0  0  0  0  0
   -0.1169    2.1032    2.4586 C   0  0  0  0  0  0  0  0  0  0  0  0
   -0.8137    1.5465    3.5183 C   0  0  0  0  0  0  0  0  0  0  0  0
   -1.5814    2.5167    4.2313 C   0  0  0  0  0  0  0  0  0  0  0  0
   -1.4076    3.7702    3.7010 C   0  0  0  0  0  0  0  0  0  0  0  0
   -2.2806    5.3295    4.3776 Br  0  0  0  0  0  0  0  0  0  0  0  0
   -0.3363    3.8035    2.3897 S   0  0  0  0  0  0  0  0  0  0  0  0
    2.4515   -0.4482    0.2674 N   0  0  0  0  0  0  0  0  0  0  0  0
    3.0737   -1.3434   -0.5825 C   0  0  0  0  0  0  0  0  0  0  0  0
    4.4507   -1.6429   -0.5818 C   0  0  0  0  0  0  0  0  0  0  0  0
    6.7800   -3.2360   -2.4479 H   0  0  0  0  0  0  0  0  0  0  0  0
    6.6113   -3.7291   -0.7446 H   0  0  0  0  0  0  0  0  0  0  0  0
    7.0318   -2.0497   -1.1679 H   0  0  0  0  0  0  0  0  0  0  0  0
    4.5144   -3.9608   -3.0642 H   0  0  0  0  0  0  0  0  0  0  0  0
    1.7461   -4.7231   -3.0811 H   0  0  0  0  0  0  0  0  0  0  0  0
    0.8729   -3.2378   -3.5038 H   0  0  0  0  0  0  0  0  0  0  0  0
    2.3295   -3.6717   -4.3974 H   0  0  0  0  0  0  0  0  0  0  0  0
   -1.4971   -0.6884    0.1961 H   0  0  0  0  0  0  0  0  0  0  0  0
   -1.7642    0.5256    1.3901 H   0  0  0  0  0  0  0  0  0  0  0  0
   -1.5409    2.3550   -0.2806 H   0  0  0  0  0  0  0  0  0  0  0  0
   -1.0949    1.2089   -1.5188 H   0  0  0  0  0  0  0  0  0  0  0  0
   -3.2370    0.1236   -1.4785 H   0  0  0  0  0  0  0  0  0  0  0  0
   -3.4615    1.8461   -1.7534 H   0  0  0  0  0  0  0  0  0  0  0  0
   -4.5276    3.2307   -0.0133 H   0  0  0  0  0  0  0  0  0  0  0  0
   -3.2521    2.8049    1.1492 H   0  0  0  0  0  0  0  0  0  0  0  0
   -4.9227    2.4932    1.5529 H   0  0  0  0  0  0  0  0  0  0  0  0
   -6.1037    0.6308    0.5888 H   0  0  0  0  0  0  0  0  0  0  0  0
   -5.8799    1.3722   -1.0100 H   0  0  0  0  0  0  0  0  0  0  0  0
   -5.3891   -0.3088   -0.7111 H   0  0  0  0  0  0  0  0  0  0  0  0
   -0.7845    0.4891    3.7624 H   0  0  0  0  0  0  0  0  0  0  0  0
   -2.2167    2.2980    5.0821 H   0  0  0  0  0  0  0  0  0  0  0  0
    5.0924   -1.1359    0.1336 H   0  0  0  0  0  0  0  0  0  0  0  0
  1  2  1  0
  2  3  2  0
  3  4  1  0
  4  5  1  0
  4  6  2  0
  6  7  1  0
  7  8  1  0
  8  9  1  0
  9 10  1  0
 10 11  1  0
 11 12  1  0
 12 13  1  0
 13 14  1  0
 13 15  1  0
  9 16  1  0
 16 17  2  0
 16 18  1  0
 18 19  2  0
 19 20  1  0
 20 21  2  0
 21 22  1  0
 21 23  1  0
  8 24  2  0
 24 25  1  0
 25 26  2  0
 26  2  1  0
 25  6  1  0
 23 18  1  0
  1 27  1  0
  1 28  1  0
  1 29  1  0
  3 30  1  0
  5 31  1  0
  5 32  1  0
  5 33  1  0
 10 34  1  0
 10 35  1  0
 11 36  1  0
 11 37  1  0
 12 38  1  0
 12 39  1  0
 14 40  1  0
 14 41  1  0
 14 42  1  0
 15 43  1  0
 15 44  1  0
 15 45  1  0
 19 46  1  0
 20 47  1  0
 26 48  1  0
M  END
$$$$
