
     RDKit          3D

 37 39  0  0  0  0  0  0  0  0999 V2000
   -3.2819   -3.1901   -1.7785 C   0  0  0  0  0  0  0  0  0  0  0  0
   -3.7481   -1.9439   -2.2835 O   0  0  0  0  0  0  0  0  0  0  0  0
   -2.9690   -0.8427   -2.0285 C   0  0  0  0  0  0  0  0  0  0  0  0
   -1.7565   -0.8380   -1.3404 C   0  0  0  0  0  0  0  0  0  0  0  0
   -1.0602    0.3652   -1.1439 C   0  0  0  0  0  0  0  0  0  0  0  0
    0.2361    0.4003   -0.4476 C   0  0  0  0  0  0  0  0  0  0  0  0
    0.4601   -0.2480    0.7073 C   0  0  0  0  0  0  0  0  0  0  0  0
    1.6923   -0.2502    1.4306 C   0  0  0  0  0  0  0  0  0  0  0  0
    1.8686   -0.9326    2.5462 N   0  0  0  0  0  0  0  0  0  0  0  0
    3.1488   -0.7611    3.0429 C   0  0  0  0  0  0  0  0  0  0  0  0
    3.6665   -1.3462    4.2164 C   0  0  0  0  0  0  0  0  0  0  0  0
    4.9857   -1.0843    4.6007 C   0  0  0  0  0  0  0  0  0  0  0  0
    5.7902   -0.2497    3.8315 C   0  0  0  0  0  0  0  0  0  0  0  0
    5.2988    0.3422    2.6636 C   0  0  0  0  0  0  0  0  0  0  0  0
    3.9722    0.0712    2.2887 C   0  0  0  0  0  0  0  0  0  0  0  0
    3.0907    0.6386    0.9293 S   0  0  0  0  0  0  0  0  0  0  0  0
   -1.5771    1.5629   -1.6654 C   0  0  0  0  0  0  0  0  0  0  0  0
   -2.7911    1.5764   -2.3569 C   0  0  0  0  0  0  0  0  0  0  0  0
   -3.3808    2.6890   -2.8947 O   0  0  0  0  0  0  0  0  0  0  0  0
   -2.7306    3.9365   -2.7020 C   0  0  0  0  0  0  0  0  0  0  0  0
   -3.4732    0.3666   -2.5284 C   0  0  0  0  0  0  0  0  0  0  0  0
   -4.6693    0.3514   -3.2066 O   0  0  0  0  0  0  0  0  0  0  0  0
   -4.0144   -3.9557   -2.0516 H   0  0  0  0  0  0  0  0  0  0  0  0
   -2.3255   -3.4666   -2.2341 H   0  0  0  0  0  0  0  0  0  0  0  0
   -3.2109   -3.1718   -0.6859 H   0  0  0  0  0  0  0  0  0  0  0  0
   -1.3284   -1.7591   -0.9590 H   0  0  0  0  0  0  0  0  0  0  0  0
    0.9961    1.0088   -0.9300 H   0  0  0  0  0  0  0  0  0  0  0  0
   -0.3365   -0.8253    1.1700 H   0  0  0  0  0  0  0  0  0  0  0  0
    3.0344   -1.9964    4.8129 H   0  0  0  0  0  0  0  0  0  0  0  0
    5.3814   -1.5373    5.5067 H   0  0  0  0  0  0  0  0  0  0  0  0
    6.8148   -0.0537    4.1412 H   0  0  0  0  0  0  0  0  0  0  0  0
    5.9274    0.9936    2.0641 H   0  0  0  0  0  0  0  0  0  0  0  0
   -1.0154    2.4791   -1.5120 H   0  0  0  0  0  0  0  0  0  0  0  0
   -3.3432    4.7101   -3.1751 H   0  0  0  0  0  0  0  0  0  0  0  0
   -2.6503    4.1808   -1.6377 H   0  0  0  0  0  0  0  0  0  0  0  0
   -1.7485    3.9483   -3.1861 H   0  0  0  0  0  0  0  0  0  0  0  0
   -4.9531   -0.5817   -3.2043 H   0  0  0  0  0  0  0  0  0  0  0  0
  1  2  1  0
  2  3  1  0
  3  4  2  0
  4  5  1  0
  5  6  1  0
  6  7  2  3
  7  8  1  0
  8  9  2  0
  9 10  1  0
 10 11  2  0
 11 12  1  0
 12 13  2  0
 13 14  1  0
 14 15  2  0
 15 16  1  0
  5 17  2  0
 17 18  1  0
 18 19  1  0
 19 20  1  0
 18 21  2  0
 21 22  1  0
 21  3  1  0
 16  8  1  0
 15 10  1  0
  1 23  1  0
  1 24  1  0
  1 25  1  0
  4 26  1  0
  6 27  1  0
  7 28  1  0
 11 29  1  0
 12 30  1  0
 13 31  1  0
 14 32  1  0
 17 33  1  0
 20 34  1  0
 20 35  1  0
 20 36  1  0
 22 37  1  0
M  END
$$$$
