
     RDKit          3D

 47 50  0  0  0  0  0  0  0  0999 V2000
   -4.8135    1.9325    0.1967 C   0  0  0  0  0  0  0  0  0  0  0  0
   -3.5195    2.2861   -0.3814 N   0  0  0  0  0  0  0  0  0  0  0  0
   -2.5304    2.6274    0.6597 C   0  0  0  0  0  0  0  0  0  0  0  0
   -1.9779    1.4207    1.4544 C   0  0  0  0  0  0  0  0  0  0  0  0
   -1.4263    0.3725    0.5757 N   0  0  0  0  0  0  0  0  0  0  0  0
   -0.9520   -0.7705    1.3661 C   0  0  0  0  0  0  0  0  0  0  0  0
   -0.0891   -1.7300    0.5771 C   0  0  0  0  0  0  0  0  0  0  0  0
   -0.4663   -3.0660    0.4417 C   0  0  0  0  0  0  0  0  0  0  0  0
    0.3424   -3.9590   -0.2691 C   0  0  0  0  0  0  0  0  0  0  0  0
   -0.2195   -5.5958   -0.3823 Cl  0  0  0  0  0  0  0  0  0  0  0  0
    1.5575   -3.5423   -0.8704 C   0  0  0  0  0  0  0  0  0  0  0  0
    2.4156   -4.3932   -1.6039 C   0  0  0  0  0  0  0  0  0  0  0  0
    3.5887   -3.9070   -2.1677 C   0  0  0  0  0  0  0  0  0  0  0  0
    3.8813   -2.5733   -1.9897 C   0  0  0  0  0  0  0  0  0  0  0  0
    3.0932   -1.7228   -1.3012 N   0  0  0  0  0  0  0  0  0  0  0  0
    1.9542   -2.1948   -0.7435 C   0  0  0  0  0  0  0  0  0  0  0  0
    1.1242   -1.3351   -0.0131 C   0  0  0  0  0  0  0  0  0  0  0  0
    1.5070    0.0163    0.0761 O   0  0  0  0  0  0  0  0  0  0  0  0
    2.3577    0.2746    1.1444 C   0  0  0  0  0  0  0  0  0  0  0  0
    2.6828   -0.5456    1.9987 O   0  0  0  0  0  0  0  0  0  0  0  0
    2.7416    1.6761    1.1102 C   0  0  0  0  0  0  0  0  0  0  0  0
    2.3781    2.6682    0.2148 C   0  0  0  0  0  0  0  0  0  0  0  0
    2.9639    3.9299    0.5259 C   0  0  0  0  0  0  0  0  0  0  0  0
    3.7563    3.8649    1.6489 C   0  0  0  0  0  0  0  0  0  0  0  0
    3.7888    2.2935    2.3208 S   0  0  0  0  0  0  0  0  0  0  0  0
   -2.4271   -0.0195   -0.4349 C   0  0  0  0  0  0  0  0  0  0  0  0
   -2.9789    1.1965   -1.2182 C   0  0  0  0  0  0  0  0  0  0  0  0
   -4.7733    1.0573    0.8528 H   0  0  0  0  0  0  0  0  0  0  0  0
   -5.5413    1.7286   -0.5967 H   0  0  0  0  0  0  0  0  0  0  0  0
   -5.2136    2.7724    0.7754 H   0  0  0  0  0  0  0  0  0  0  0  0
   -1.6886    3.1360    0.1705 H   0  0  0  0  0  0  0  0  0  0  0  0
   -2.9527    3.3632    1.3553 H   0  0  0  0  0  0  0  0  0  0  0  0
   -1.1862    1.7905    2.1177 H   0  0  0  0  0  0  0  0  0  0  0  0
   -2.7693    1.0096    2.0941 H   0  0  0  0  0  0  0  0  0  0  0  0
   -0.3395   -0.4188    2.2072 H   0  0  0  0  0  0  0  0  0  0  0  0
   -1.8003   -1.3007    1.8193 H   0  0  0  0  0  0  0  0  0  0  0  0
   -1.3922   -3.4192    0.8908 H   0  0  0  0  0  0  0  0  0  0  0  0
    2.1766   -5.4453   -1.7405 H   0  0  0  0  0  0  0  0  0  0  0  0
    4.2532   -4.5539   -2.7289 H   0  0  0  0  0  0  0  0  0  0  0  0
    4.7837   -2.1347   -2.4059 H   0  0  0  0  0  0  0  0  0  0  0  0
    1.7183    2.4976   -0.6291 H   0  0  0  0  0  0  0  0  0  0  0  0
    2.8116    4.8369   -0.0466 H   0  0  0  0  0  0  0  0  0  0  0  0
    4.3200    4.6643    2.1101 H   0  0  0  0  0  0  0  0  0  0  0  0
   -3.2595   -0.5577    0.0363 H   0  0  0  0  0  0  0  0  0  0  0  0
   -1.9743   -0.7013   -1.1641 H   0  0  0  0  0  0  0  0  0  0  0  0
   -3.7387    0.8578   -1.9335 H   0  0  0  0  0  0  0  0  0  0  0  0
   -2.1666    1.6132   -1.8290 H   0  0  0  0  0  0  0  0  0  0  0  0
  1  2  1  0
  2  3  1  0
  3  4  1  0
  4  5  1  0
  5  6  1  0
  6  7  1  0
  7  8  2  0
  8  9  1  0
  9 10  1  0
  9 11  2  0
 11 12  1  0
 12 13  2  0
 13 14  1  0
 14 15  2  0
 15 16  1  0
 16 17  2  0
 17 18  1  0
 18 19  1  0
 19 20  2  0
 19 21  1  0
 21 22  2  0
 22 23  1  0
 23 24  2  0
 24 25  1  0
  5 26  1  0
 26 27  1  0
 27  2  1  0
 17  7  1  0
 25 21  1  0
 16 11  1  0
  1 28  1  0
  1 29  1  0
  1 30  1  0
  3 31  1  0
  3 32  1  0
  4 33  1  0
  4 34  1  0
  6 35  1  0
  6 36  1  0
  8 37  1  0
 12 38  1  0
 13 39  1  0
 14 40  1  0
 22 41  1  0
 23 42  1  0
 24 43  1  0
 26 44  1  0
 26 45  1  0
 27 46  1  0
 27 47  1  0
M  END
$$$$
