
     RDKit          3D

 52 55  0  0  0  0  0  0  0  0999 V2000
    5.9959    1.0038    6.4417 N   0  0  0  0  0  0  0  0  0  0  0  0
    6.6041    0.2945    5.0399 S   0  0  0  0  0  6  0  0  0  0  0  0
    6.8615   -1.0855    5.3818 O   0  0  0  0  0  0  0  0  0  0  0  0
    7.6230    1.1662    4.5059 O   0  0  0  0  0  0  0  0  0  0  0  0
    5.1911    0.3588    3.9717 C   0  0  0  0  0  0  0  0  0  0  0  0
    4.9721    1.4989    3.1943 C   0  0  0  0  0  0  0  0  0  0  0  0
    3.8636    1.5519    2.3482 C   0  0  0  0  0  0  0  0  0  0  0  0
    2.9756    0.4692    2.2745 C   0  0  0  0  0  0  0  0  0  0  0  0
    1.7882    0.5127    1.3436 C   0  0  0  0  0  0  0  0  0  0  0  0
    2.0787   -0.1967    0.0187 C   0  0  0  0  0  0  0  0  0  0  0  0
    0.9515   -0.1410   -0.8925 N   0  0  0  0  0  0  0  0  0  0  0  0
   -0.1399   -0.9675   -0.7365 C   0  0  0  0  0  0  0  0  0  0  0  0
   -0.2568   -1.7925    0.1601 O   0  0  0  0  0  0  0  0  0  0  0  0
   -1.2490   -0.7435   -1.6900 C   0  0  0  0  0  0  0  0  0  0  0  0
   -2.4971   -0.4820   -1.1216 C   0  0  0  0  0  0  0  0  0  0  0  0
   -3.5624   -0.2017   -1.9589 C   0  0  0  0  0  0  0  0  0  0  0  0
   -4.9235    0.1042   -1.4661 C   0  0  0  0  0  0  0  0  0  0  0  0
   -5.1539    0.7097   -0.2161 C   0  0  0  0  0  0  0  0  0  0  0  0
   -6.4503    0.9867    0.2329 C   0  0  0  0  0  0  0  0  0  0  0  0
   -7.5478    0.6677   -0.5605 C   0  0  0  0  0  0  0  0  0  0  0  0
   -7.3507    0.0764   -1.8038 C   0  0  0  0  0  0  0  0  0  0  0  0
   -6.0541   -0.1986   -2.2493 C   0  0  0  0  0  0  0  0  0  0  0  0
   -3.4091   -0.1928   -3.3071 N   0  0  0  0  0  0  0  0  0  0  0  0
   -2.2162   -0.4794   -3.8546 C   0  0  0  0  0  0  0  0  0  0  0  0
   -2.1144   -0.4826   -5.2395 C   0  0  0  0  0  0  0  0  0  0  0  0
   -0.9201   -0.7913   -5.8942 C   0  0  0  0  0  0  0  0  0  0  0  0
    0.2054   -1.1147   -5.1516 C   0  0  0  0  0  0  0  0  0  0  0  0
    0.1306   -1.1143   -3.7601 C   0  0  0  0  0  0  0  0  0  0  0  0
   -1.0753   -0.7795   -3.0901 C   0  0  0  0  0  0  0  0  0  0  0  0
    3.2181   -0.6745    3.0508 C   0  0  0  0  0  0  0  0  0  0  0  0
    4.3258   -0.7345    3.8973 C   0  0  0  0  0  0  0  0  0  0  0  0
    5.9960    0.3066    7.1883 H   0  0  0  0  0  0  0  0  0  0  0  0
    5.0749    1.4211    6.3120 H   0  0  0  0  0  0  0  0  0  0  0  0
    5.6598    2.3416    3.2377 H   0  0  0  0  0  0  0  0  0  0  0  0
    3.7002    2.4416    1.7430 H   0  0  0  0  0  0  0  0  0  0  0  0
    1.5027    1.5554    1.1531 H   0  0  0  0  0  0  0  0  0  0  0  0
    0.9227    0.0606    1.8443 H   0  0  0  0  0  0  0  0  0  0  0  0
    2.9279    0.2694   -0.4932 H   0  0  0  0  0  0  0  0  0  0  0  0
    2.3305   -1.2497    0.1918 H   0  0  0  0  0  0  0  0  0  0  0  0
    0.9142    0.6075   -1.5744 H   0  0  0  0  0  0  0  0  0  0  0  0
   -2.6150   -0.5089   -0.0432 H   0  0  0  0  0  0  0  0  0  0  0  0
   -4.3236    0.9926    0.4265 H   0  0  0  0  0  0  0  0  0  0  0  0
   -6.5998    1.4562    1.2019 H   0  0  0  0  0  0  0  0  0  0  0  0
   -8.5546    0.8833   -0.2129 H   0  0  0  0  0  0  0  0  0  0  0  0
   -8.2021   -0.1722   -2.4319 H   0  0  0  0  0  0  0  0  0  0  0  0
   -5.9257   -0.6620   -3.2268 H   0  0  0  0  0  0  0  0  0  0  0  0
   -2.9972   -0.2440   -5.8293 H   0  0  0  0  0  0  0  0  0  0  0  0
   -0.8805   -0.7896   -6.9805 H   0  0  0  0  0  0  0  0  0  0  0  0
    1.1354   -1.3758   -5.6507 H   0  0  0  0  0  0  0  0  0  0  0  0
    1.0193   -1.3998   -3.2005 H   0  0  0  0  0  0  0  0  0  0  0  0
    2.5444   -1.5289    2.9918 H   0  0  0  0  0  0  0  0  0  0  0  0
    4.5060   -1.6327    4.4842 H   0  0  0  0  0  0  0  0  0  0  0  0
  1  2  1  0
  2  3  2  0
  2  4  2  0
  2  5  1  0
  5  6  2  0
  6  7  1  0
  7  8  2  0
  8  9  1  0
  9 10  1  0
 10 11  1  0
 11 12  1  0
 12 13  2  0
 12 14  1  0
 14 15  2  0
 15 16  1  0
 16 17  1  0
 17 18  2  0
 18 19  1  0
 19 20  2  0
 20 21  1  0
 21 22  2  0
 16 23  2  0
 23 24  1  0
 24 25  2  0
 25 26  1  0
 26 27  2  0
 27 28  1  0
 28 29  2  0
  8 30  1  0
 30 31  2  0
 31  5  1  0
 29 14  1  0
 22 17  1  0
 29 24  1  0
  1 32  1  0
  1 33  1  0
  6 34  1  0
  7 35  1  0
  9 36  1  0
  9 37  1  0
 10 38  1  0
 10 39  1  0
 11 40  1  0
 15 41  1  0
 18 42  1  0
 19 43  1  0
 20 44  1  0
 21 45  1  0
 22 46  1  0
 25 47  1  0
 26 48  1  0
 27 49  1  0
 28 50  1  0
 30 51  1  0
 31 52  1  0
M  END
$$$$
