
     RDKit          3D

 63 67  0  0  0  0  0  0  0  0999 V2000
    0.6080   -5.8072    3.0540 Cl  0  0  0  0  0  0  0  0  0  0  0  0
    0.3803   -4.1078    2.9404 C   0  0  0  0  0  0  0  0  0  0  0  0
   -0.9080   -3.5748    2.9646 C   0  0  0  0  0  0  0  0  0  0  0  0
   -1.0942   -2.1915    2.8680 C   0  0  0  0  0  0  0  0  0  0  0  0
    0.0087   -1.3236    2.7429 C   0  0  0  0  0  0  0  0  0  0  0  0
   -0.1541    0.1861    2.6294 C   0  0  0  0  0  0  0  0  0  0  0  0
   -0.9498    0.8076    3.7730 C   0  0  0  0  0  0  0  0  0  0  0  0
   -2.3539    0.9143    3.7512 C   0  0  0  0  0  0  0  0  0  0  0  0
   -3.0442    1.4923    4.8220 C   0  0  0  0  0  0  0  0  0  0  0  0
   -2.3395    1.9654    5.9298 C   0  0  0  0  0  0  0  0  0  0  0  0
   -3.1843    2.6860    7.2443 Cl  0  0  0  0  0  0  0  0  0  0  0  0
   -0.9507    1.8578    5.9788 C   0  0  0  0  0  0  0  0  0  0  0  0
   -0.2601    1.2770    4.9096 C   0  0  0  0  0  0  0  0  0  0  0  0
   -0.7114    0.5746    1.3107 N   0  0  0  0  0  0  0  0  0  0  0  0
   -0.9948    1.8857    0.9191 C   0  0  0  0  0  0  0  0  0  0  0  0
   -1.4135    1.8371   -0.3776 C   0  0  0  0  0  0  0  0  0  0  0  0
   -1.3291    0.5118   -0.7695 N   0  0  0  0  0  4  0  0  0  0  0  0
   -1.5831    0.0214   -2.1412 C   0  0  0  0  0  0  0  0  0  0  0  0
   -0.2941    0.0361   -3.0038 C   0  0  0  0  0  0  0  0  0  0  0  0
    0.2478    1.3634   -3.0199 O   0  0  0  0  0  0  0  0  0  0  0  0
    1.6643    1.4293   -3.1932 C   0  0  0  0  0  0  0  0  0  0  0  0
    2.3478    1.3583   -1.8470 C   0  0  0  0  0  0  0  0  0  0  0  0
    3.0554    0.1938   -1.4952 C   0  0  0  0  0  0  0  0  0  0  0  0
    3.6688    0.0812   -0.2452 C   0  0  0  0  0  0  0  0  0  0  0  0
    3.5853    1.1339    0.6627 C   0  0  0  0  0  0  0  0  0  0  0  0
    4.3035    0.9831    2.2172 Cl  0  0  0  0  0  0  0  0  0  0  0  0
    2.9058    2.3016    0.3306 C   0  0  0  0  0  0  0  0  0  0  0  0
    2.2897    2.4133   -0.9185 C   0  0  0  0  0  0  0  0  0  0  0  0
    1.4429    3.8816   -1.2527 Cl  0  0  0  0  0  0  0  0  0  0  0  0
   -0.5439   -0.4725   -4.4136 C   0  0  0  0  0  0  0  0  0  0  0  0
   -0.0172   -1.7313   -4.7681 C   0  0  0  0  0  0  0  0  0  0  0  0
   -0.2034   -2.2564   -6.0498 C   0  0  0  0  0  0  0  0  0  0  0  0
   -0.9200   -1.5321   -6.9970 C   0  0  0  0  0  0  0  0  0  0  0  0
   -1.1455   -2.1797   -8.5730 Cl  0  0  0  0  0  0  0  0  0  0  0  0
   -1.4542   -0.2889   -6.6720 C   0  0  0  0  0  0  0  0  0  0  0  0
   -1.2686    0.2390   -5.3899 C   0  0  0  0  0  0  0  0  0  0  0  0
   -1.9743    1.7866   -5.0794 Cl  0  0  0  0  0  0  0  0  0  0  0  0
   -0.8951   -0.2362    0.2559 C   0  0  0  0  0  0  0  0  0  0  0  0
    1.3012   -1.8861    2.7188 C   0  0  0  0  0  0  0  0  0  0  0  0
    1.4845   -3.2678    2.8176 C   0  0  0  0  0  0  0  0  0  0  0  0
   -1.7696   -4.2332    3.0754 H   0  0  0  0  0  0  0  0  0  0  0  0
   -2.1134   -1.8083    2.9033 H   0  0  0  0  0  0  0  0  0  0  0  0
    0.8452    0.6477    2.6371 H   0  0  0  0  0  0  0  0  0  0  0  0
   -2.9301    0.5513    2.9018 H   0  0  0  0  0  0  0  0  0  0  0  0
   -4.1307    1.5683    4.7868 H   0  0  0  0  0  0  0  0  0  0  0  0
   -0.4032    2.2220    6.8487 H   0  0  0  0  0  0  0  0  0  0  0  0
    0.8258    1.1963    4.9780 H   0  0  0  0  0  0  0  0  0  0  0  0
   -0.8590    2.6938    1.6185 H   0  0  0  0  0  0  0  0  0  0  0  0
   -1.7243    2.5822   -1.0916 H   0  0  0  0  0  0  0  0  0  0  0  0
   -2.3700    0.6550   -2.5610 H   0  0  0  0  0  0  0  0  0  0  0  0
   -1.9867   -0.9957   -2.0676 H   0  0  0  0  0  0  0  0  0  0  0  0
    0.4216   -0.6229   -2.4966 H   0  0  0  0  0  0  0  0  0  0  0  0
    2.0175    0.6451   -3.8737 H   0  0  0  0  0  0  0  0  0  0  0  0
    1.9072    2.3821   -3.6770 H   0  0  0  0  0  0  0  0  0  0  0  0
    3.1469   -0.6330   -2.1997 H   0  0  0  0  0  0  0  0  0  0  0  0
    4.2212   -0.8225    0.0063 H   0  0  0  0  0  0  0  0  0  0  0  0
    2.8657    3.1278    1.0375 H   0  0  0  0  0  0  0  0  0  0  0  0
    0.5552   -2.3202   -4.0531 H   0  0  0  0  0  0  0  0  0  0  0  0
    0.2164   -3.2279   -6.3068 H   0  0  0  0  0  0  0  0  0  0  0  0
   -2.0139    0.2746   -7.4158 H   0  0  0  0  0  0  0  0  0  0  0  0
   -0.7124   -1.3042    0.2106 H   0  0  0  0  0  0  0  0  0  0  0  0
    2.1895   -1.2599    2.6429 H   0  0  0  0  0  0  0  0  0  0  0  0
    2.4939   -3.6805    2.8149 H   0  0  0  0  0  0  0  0  0  0  0  0
  1  2  1  0
  2  3  2  0
  3  4  1  0
  4  5  2  0
  5  6  1  0
  6  7  1  0
  7  8  2  0
  8  9  1  0
  9 10  2  0
 10 11  1  0
 10 12  1  0
 12 13  2  0
  6 14  1  0
 14 15  1  0
 15 16  2  0
 16 17  1  0
 17 18  1  0
 18 19  1  0
 19 20  1  0
 20 21  1  0
 21 22  1  0
 22 23  2  0
 23 24  1  0
 24 25  2  0
 25 26  1  0
 25 27  1  0
 27 28  2  0
 28 29  1  0
 19 30  1  0
 30 31  2  0
 31 32  1  0
 32 33  2  0
 33 34  1  0
 33 35  1  0
 35 36  2  0
 36 37  1  0
 17 38  2  0
  5 39  1  0
 39 40  2  0
 40  2  1  0
 13  7  1  0
 38 14  1  0
 28 22  1  0
 36 30  1  0
  3 41  1  0
  4 42  1  0
  6 43  1  0
  8 44  1  0
  9 45  1  0
 12 46  1  0
 13 47  1  0
 15 48  1  0
 16 49  1  0
 18 50  1  0
 18 51  1  0
 19 52  1  0
 21 53  1  0
 21 54  1  0
 23 55  1  0
 24 56  1  0
 27 57  1  0
 31 58  1  0
 32 59  1  0
 35 60  1  0
 38 61  1  0
 39 62  1  0
 40 63  1  0
M  CHG  1  17   1
M  END
$$$$
