
     RDKit          3D

 39 41  0  0  0  0  0  0  0  0999 V2000
   -4.5901   -3.4771   -0.2917 C   0  0  0  0  0  0  0  0  0  0  0  0
   -3.5408   -2.3802   -0.2385 C   0  0  0  0  0  0  0  0  0  0  0  0
   -1.8807   -3.1045   -0.4385 S   0  0  0  0  0  0  0  0  0  0  0  0
   -0.8640   -1.6351   -0.3511 C   0  0  0  0  0  0  0  0  0  0  0  0
    0.5001   -1.7718   -0.4963 C   0  0  0  0  0  0  0  0  0  0  0  0
    1.2675   -0.6288   -0.4209 C   0  0  0  0  0  0  0  0  0  0  0  0
    2.6340   -0.6627   -0.5668 N   0  0  0  0  0  0  0  0  0  0  0  0
    3.4113    0.5637   -0.4308 C   0  0  0  0  0  0  0  0  0  0  0  0
    4.8476    0.0828   -0.6114 C   0  0  0  0  0  0  0  0  0  0  0  0
    4.8236   -1.2890    0.0436 C   0  0  0  0  0  0  0  0  0  0  0  0
    3.4532   -1.8480   -0.3415 C   0  0  0  0  0  0  0  0  0  0  0  0
    0.6815    0.5659   -0.2323 N   0  0  0  0  0  0  0  0  0  0  0  0
   -0.6564    0.6148   -0.0997 C   0  0  0  0  0  0  0  0  0  0  0  0
   -1.2785    1.9392    0.1146 C   0  0  0  0  0  0  0  0  0  0  0  0
   -0.5029    3.1172    0.1589 C   0  0  0  0  0  0  0  0  0  0  0  0
   -1.0883    4.3713    0.3616 C   0  0  0  0  0  0  0  0  0  0  0  0
   -2.4627    4.4659    0.5236 C   0  0  0  0  0  0  0  0  0  0  0  0
   -3.0252    5.6657    0.7179 F   0  0  0  0  0  0  0  0  0  0  0  0
   -3.2615    3.3323    0.4866 C   0  0  0  0  0  0  0  0  0  0  0  0
   -2.6725    2.0799    0.2835 C   0  0  0  0  0  0  0  0  0  0  0  0
   -1.4631   -0.4548   -0.1471 N   0  0  0  0  0  0  0  0  0  0  0  0
   -5.5883   -3.0429   -0.1717 H   0  0  0  0  0  0  0  0  0  0  0  0
   -4.4491   -4.2085    0.5114 H   0  0  0  0  0  0  0  0  0  0  0  0
   -4.5725   -4.0047   -1.2515 H   0  0  0  0  0  0  0  0  0  0  0  0
   -3.7270   -1.6583   -1.0402 H   0  0  0  0  0  0  0  0  0  0  0  0
   -3.6035   -1.8622    0.7240 H   0  0  0  0  0  0  0  0  0  0  0  0
    0.9419   -2.7419   -0.6765 H   0  0  0  0  0  0  0  0  0  0  0  0
    3.1502    1.3104   -1.1882 H   0  0  0  0  0  0  0  0  0  0  0  0
    3.2811    0.9979    0.5681 H   0  0  0  0  0  0  0  0  0  0  0  0
    5.5771    0.7589   -0.1574 H   0  0  0  0  0  0  0  0  0  0  0  0
    5.0831   -0.0158   -1.6780 H   0  0  0  0  0  0  0  0  0  0  0  0
    5.6447   -1.9326   -0.2843 H   0  0  0  0  0  0  0  0  0  0  0  0
    4.8894   -1.1816    1.1332 H   0  0  0  0  0  0  0  0  0  0  0  0
    3.0726   -2.4884    0.4618 H   0  0  0  0  0  0  0  0  0  0  0  0
    3.5193   -2.4328   -1.2655 H   0  0  0  0  0  0  0  0  0  0  0  0
    0.5777    3.0611    0.0325 H   0  0  0  0  0  0  0  0  0  0  0  0
   -0.4784    5.2682    0.3928 H   0  0  0  0  0  0  0  0  0  0  0  0
   -4.3351    3.4250    0.6149 H   0  0  0  0  0  0  0  0  0  0  0  0
   -3.3154    1.2013    0.2574 H   0  0  0  0  0  0  0  0  0  0  0  0
  1  2  1  0
  2  3  1  0
  3  4  1  0
  4  5  2  0
  5  6  1  0
  6  7  1  0
  7  8  1  0
  8  9  1  0
  9 10  1  0
 10 11  1  0
  6 12  2  0
 12 13  1  0
 13 14  1  0
 14 15  2  0
 15 16  1  0
 16 17  2  0
 17 18  1  0
 17 19  1  0
 19 20  2  0
 13 21  2  0
 21  4  1  0
 11  7  1  0
 20 14  1  0
  1 22  1  0
  1 23  1  0
  1 24  1  0
  2 25  1  0
  2 26  1  0
  5 27  1  0
  8 28  1  0
  8 29  1  0
  9 30  1  0
  9 31  1  0
 10 32  1  0
 10 33  1  0
 11 34  1  0
 11 35  1  0
 15 36  1  0
 16 37  1  0
 19 38  1  0
 20 39  1  0
M  END
$$$$
