
     RDKit          3D

 34 35  0  0  0  0  0  0  0  0999 V2000
   -0.2452   -1.1391    1.8066 C   0  0  0  0  0  0  0  0  0  0  0  0
   -0.9951   -0.6865    0.6385 N   0  0  0  0  0  0  0  0  0  0  0  0
   -0.5629    0.3180   -0.2300 C   0  0  0  0  0  0  0  0  0  0  0  0
   -1.1743    0.5506   -1.2783 O   0  0  0  0  0  0  0  0  0  0  0  0
    0.6640    1.1404    0.1257 C   0  0  0  0  0  0  0  0  0  0  0  0
    2.1629    0.2245   -0.3377 S   0  0  0  0  0  0  0  0  0  0  0  0
    3.3859    1.4445    0.0601 C   0  0  0  0  0  0  0  0  0  0  0  0
    3.0454    2.4696    0.8611 N   0  0  0  0  0  0  0  0  0  0  0  0
    4.0180    3.3588    1.1385 C   0  0  0  0  0  0  0  0  0  0  0  0
    5.3005    3.2575    0.6565 C   0  0  0  0  0  0  0  0  0  0  0  0
    5.5449    2.1692   -0.1449 C   0  0  0  0  0  0  0  0  0  0  0  0
    4.6114    1.2511   -0.4540 N   0  0  0  0  0  0  0  0  0  0  0  0
   -2.1326   -1.5337    0.2334 C   0  0  0  0  0  0  0  0  0  0  0  0
   -3.4480   -0.7383    0.0172 C   0  0  0  0  0  0  0  0  0  0  0  0
   -3.9661   -0.9922   -1.3923 C   0  0  0  0  0  0  0  0  0  0  0  0
   -3.3827   -2.6147   -1.7994 S   0  0  0  0  0  6  0  0  0  0  0  0
   -3.1816   -2.7238   -3.2277 O   0  0  0  0  0  0  0  0  0  0  0  0
   -4.1642   -3.5841   -1.0565 O   0  0  0  0  0  0  0  0  0  0  0  0
   -1.8260   -2.4168   -0.9838 C   0  0  0  0  0  0  0  0  0  0  0  0
    0.5051   -0.4232    2.1389 H   0  0  0  0  0  0  0  0  0  0  0  0
    0.2504   -2.0814    1.5547 H   0  0  0  0  0  0  0  0  0  0  0  0
   -0.9436   -1.3035    2.6328 H   0  0  0  0  0  0  0  0  0  0  0  0
    0.6459    1.4138    1.1839 H   0  0  0  0  0  0  0  0  0  0  0  0
    0.6139    2.0727   -0.4489 H   0  0  0  0  0  0  0  0  0  0  0  0
    3.7245    4.1832    1.7822 H   0  0  0  0  0  0  0  0  0  0  0  0
    6.0657    3.9838    0.8918 H   0  0  0  0  0  0  0  0  0  0  0  0
    6.5267    1.9954   -0.5762 H   0  0  0  0  0  0  0  0  0  0  0  0
   -2.3331   -2.2079    1.0782 H   0  0  0  0  0  0  0  0  0  0  0  0
   -4.1925   -1.1138    0.7321 H   0  0  0  0  0  0  0  0  0  0  0  0
   -3.3528    0.3335    0.2196 H   0  0  0  0  0  0  0  0  0  0  0  0
   -3.5372   -0.2908   -2.1127 H   0  0  0  0  0  0  0  0  0  0  0  0
   -5.0559   -0.9647   -1.4547 H   0  0  0  0  0  0  0  0  0  0  0  0
   -1.4369   -3.3971   -0.6972 H   0  0  0  0  0  0  0  0  0  0  0  0
   -1.1345   -1.9552   -1.6931 H   0  0  0  0  0  0  0  0  0  0  0  0
  1  2  1  0
  2  3  1  0
  3  4  2  0
  3  5  1  0
  5  6  1  0
  6  7  1  0
  7  8  2  0
  8  9  1  0
  9 10  2  0
 10 11  1  0
 11 12  2  0
  2 13  1  0
 13 14  1  0
 14 15  1  0
 15 16  1  0
 16 17  2  0
 16 18  2  0
 16 19  1  0
 12  7  1  0
 19 13  1  0
  1 20  1  0
  1 21  1  0
  1 22  1  0
  5 23  1  0
  5 24  1  0
  9 25  1  0
 10 26  1  0
 11 27  1  0
 13 28  1  0
 14 29  1  0
 14 30  1  0
 15 31  1  0
 15 32  1  0
 19 33  1  0
 19 34  1  0
M  END
$$$$
