
     RDKit          3D

 43 45  0  0  0  0  0  0  0  0999 V2000
    1.8545    2.8933    0.8825 C   0  0  0  0  0  0  0  0  0  0  0  0
    2.3995    1.7941    1.6147 O   0  0  0  0  0  0  0  0  0  0  0  0
    2.0785    0.6068    1.0051 C   0  0  0  0  0  0  0  0  0  0  0  0
    1.0657   -0.1502    1.6038 C   0  0  0  0  0  0  0  0  0  0  0  0
    0.6688   -1.3787    1.0556 C   0  0  0  0  0  0  0  0  0  0  0  0
   -0.4738   -2.0740    1.6907 C   0  0  0  0  0  0  0  0  0  0  0  0
   -0.2355   -2.8216    2.8877 C   0  0  0  0  0  0  0  0  0  0  0  0
   -0.0536   -3.4035    3.8748 N   0  0  0  0  0  0  0  0  0  0  0  0
   -1.7303   -1.9829    1.2061 C   0  0  0  0  0  0  0  0  0  0  0  0
   -2.1230   -1.2168    0.0100 C   0  0  0  0  0  0  0  0  0  0  0  0
   -2.2213   -1.9256   -1.1961 C   0  0  0  0  0  0  0  0  0  0  0  0
   -2.5178   -1.2612   -2.3809 C   0  0  0  0  0  0  0  0  0  0  0  0
   -2.7259    0.1158   -2.3707 C   0  0  0  0  0  0  0  0  0  0  0  0
   -2.6572    0.8476   -1.1754 C   0  0  0  0  0  0  0  0  0  0  0  0
   -2.8810    2.2345   -1.1820 C   0  0  0  0  0  0  0  0  0  0  0  0
   -2.8307    2.9763   -0.0025 C   0  0  0  0  0  0  0  0  0  0  0  0
   -2.5614    2.3398    1.2016 C   0  0  0  0  0  0  0  0  0  0  0  0
   -2.3342    0.9622    1.2244 C   0  0  0  0  0  0  0  0  0  0  0  0
   -2.3639    0.1842    0.0423 C   0  0  0  0  0  0  0  0  0  0  0  0
    1.3554   -1.8306   -0.0868 C   0  0  0  0  0  0  0  0  0  0  0  0
    1.0222   -3.1071   -0.7126 N   0  0  0  0  0  4  0  0  0  0  0  0
    1.0201   -3.1475   -1.9513 O   0  0  0  0  0  0  0  0  0  0  0  0
    0.7843   -4.0695    0.0279 O   0  0  0  0  0  1  0  0  0  0  0  0
    2.3974   -1.0847   -0.6732 C   0  0  0  0  0  0  0  0  0  0  0  0
    2.7702    0.1411   -0.1229 C   0  0  0  0  0  0  0  0  0  0  0  0
    3.7745    0.9407   -0.5959 O   0  0  0  0  0  0  0  0  0  0  0  0
    4.5431    0.4607   -1.6917 C   0  0  0  0  0  0  0  0  0  0  0  0
    1.9930    3.7960    1.4852 H   0  0  0  0  0  0  0  0  0  0  0  0
    0.7798    2.7656    0.7092 H   0  0  0  0  0  0  0  0  0  0  0  0
    2.3770    3.0408   -0.0679 H   0  0  0  0  0  0  0  0  0  0  0  0
    0.5766    0.2490    2.4908 H   0  0  0  0  0  0  0  0  0  0  0  0
   -2.5552   -2.4967    1.6988 H   0  0  0  0  0  0  0  0  0  0  0  0
   -2.0572   -3.0018   -1.2247 H   0  0  0  0  0  0  0  0  0  0  0  0
   -2.5816   -1.8153   -3.3144 H   0  0  0  0  0  0  0  0  0  0  0  0
   -2.9530    0.6161   -3.3103 H   0  0  0  0  0  0  0  0  0  0  0  0
   -3.1038    2.7508   -2.1137 H   0  0  0  0  0  0  0  0  0  0  0  0
   -3.0108    4.0478   -0.0259 H   0  0  0  0  0  0  0  0  0  0  0  0
   -2.5329    2.9109    2.1262 H   0  0  0  0  0  0  0  0  0  0  0  0
   -2.1410    0.4970    2.1883 H   0  0  0  0  0  0  0  0  0  0  0  0
    2.8990   -1.4805   -1.5516 H   0  0  0  0  0  0  0  0  0  0  0  0
    5.0474   -0.4783   -1.4408 H   0  0  0  0  0  0  0  0  0  0  0  0
    3.9233    0.3507   -2.5876 H   0  0  0  0  0  0  0  0  0  0  0  0
    5.3147    1.2049   -1.9104 H   0  0  0  0  0  0  0  0  0  0  0  0
  1  2  1  0
  2  3  1  0
  3  4  2  0
  4  5  1  0
  5  6  1  0
  6  7  1  0
  7  8  3  0
  6  9  2  3
  9 10  1  0
 10 11  2  0
 11 12  1  0
 12 13  2  0
 13 14  1  0
 14 15  2  0
 15 16  1  0
 16 17  2  0
 17 18  1  0
 18 19  2  0
  5 20  2  0
 20 21  1  0
 21 22  2  0
 21 23  1  0
 20 24  1  0
 24 25  2  0
 25 26  1  0
 26 27  1  0
 25  3  1  0
 19 10  1  0
 19 14  1  0
  1 28  1  0
  1 29  1  0
  1 30  1  0
  4 31  1  0
  9 32  1  0
 11 33  1  0
 12 34  1  0
 13 35  1  0
 15 36  1  0
 16 37  1  0
 17 38  1  0
 18 39  1  0
 24 40  1  0
 27 41  1  0
 27 42  1  0
 27 43  1  0
M  CHG  2  21   1  23  -1
M  END
$$$$
