
     RDKit          3D

 36 38  0  0  0  0  0  0  0  0999 V2000
    5.4709   -0.1561    3.6291 C   0  0  0  0  0  0  0  0  0  0  0  0
    5.0693    0.0452    2.2233 C   0  0  0  0  0  0  0  0  0  0  0  0
    5.7540    0.3499    1.0729 C   0  0  0  0  0  0  0  0  0  0  0  0
    4.7812    0.4032    0.0463 C   0  0  0  0  0  0  0  0  0  0  0  0
    3.5401    0.1285    0.6115 C   0  0  0  0  0  0  0  0  0  0  0  0
    2.2737    0.0723   -0.0370 C   0  0  0  0  0  0  0  0  0  0  0  0
    1.1067   -0.2074    0.5760 C   0  0  0  0  0  0  0  0  0  0  0  0
    0.9733   -0.4857    1.9633 C   0  0  0  0  0  0  0  0  0  0  0  0
    0.7459   -0.7492    3.0709 N   0  0  0  0  0  0  0  0  0  0  0  0
   -0.1232   -0.2135   -0.2980 C   0  0  0  0  0  0  0  0  0  0  0  0
   -0.0231    0.0279   -1.4983 O   0  0  0  0  0  0  0  0  0  0  0  0
   -1.3020   -0.5615    0.3425 N   0  0  0  0  0  0  0  0  0  0  0  0
   -2.5863   -0.6585   -0.2594 C   0  0  0  0  0  0  0  0  0  0  0  0
   -3.3735   -1.7192    0.2140 C   0  0  0  0  0  0  0  0  0  0  0  0
   -4.6239   -1.9690   -0.3344 C   0  0  0  0  0  0  0  0  0  0  0  0
   -5.1058   -1.1436   -1.3456 C   0  0  0  0  0  0  0  0  0  0  0  0
   -4.3908   -0.0474   -1.7997 C   0  0  0  0  0  0  0  0  0  0  0  0
   -4.9783    0.7148   -2.7387 N   0  0  0  0  0  0  0  0  0  0  0  0
   -4.3396    1.8274   -3.1502 C   0  0  0  0  0  0  0  0  0  0  0  0
   -3.1275    2.2380   -2.6446 C   0  0  0  0  0  0  0  0  0  0  0  0
   -2.5247    1.4405   -1.6770 C   0  0  0  0  0  0  0  0  0  0  0  0
   -3.1189    0.2329   -1.2412 C   0  0  0  0  0  0  0  0  0  0  0  0
    3.7455   -0.0884    1.9535 O   0  0  0  0  0  0  0  0  0  0  0  0
    6.5511   -0.0295    3.7510 H   0  0  0  0  0  0  0  0  0  0  0  0
    5.2059   -1.1642    3.9623 H   0  0  0  0  0  0  0  0  0  0  0  0
    4.9673    0.5667    4.2783 H   0  0  0  0  0  0  0  0  0  0  0  0
    6.8189    0.5133    0.9833 H   0  0  0  0  0  0  0  0  0  0  0  0
    4.9602    0.6186   -0.9987 H   0  0  0  0  0  0  0  0  0  0  0  0
    2.2838    0.2737   -1.1068 H   0  0  0  0  0  0  0  0  0  0  0  0
   -1.2194   -1.0559    1.2252 H   0  0  0  0  0  0  0  0  0  0  0  0
   -3.0053   -2.3918    0.9854 H   0  0  0  0  0  0  0  0  0  0  0  0
   -5.2208   -2.8082    0.0129 H   0  0  0  0  0  0  0  0  0  0  0  0
   -6.0837   -1.3457   -1.7779 H   0  0  0  0  0  0  0  0  0  0  0  0
   -4.8553    2.4035   -3.9126 H   0  0  0  0  0  0  0  0  0  0  0  0
   -2.6590    3.1527   -2.9879 H   0  0  0  0  0  0  0  0  0  0  0  0
   -1.5867    1.7857   -1.2557 H   0  0  0  0  0  0  0  0  0  0  0  0
  1  2  1  0
  2  3  2  0
  3  4  1  0
  4  5  2  0
  5  6  1  0
  6  7  2  3
  7  8  1  0
  8  9  3  0
  7 10  1  0
 10 11  2  0
 10 12  1  0
 12 13  1  0
 13 14  2  0
 14 15  1  0
 15 16  2  0
 16 17  1  0
 17 18  2  0
 18 19  1  0
 19 20  2  0
 20 21  1  0
 21 22  2  0
  5 23  1  0
 23  2  1  0
 22 13  1  0
 22 17  1  0
  1 24  1  0
  1 25  1  0
  1 26  1  0
  3 27  1  0
  4 28  1  0
  6 29  1  0
 12 30  1  0
 14 31  1  0
 15 32  1  0
 16 33  1  0
 19 34  1  0
 20 35  1  0
 21 36  1  0
M  END
$$$$
