
     RDKit          3D

 52 55  0  0  0  0  0  0  0  0999 V2000
    7.4593   -3.2496    0.5895 C   0  0  0  0  0  0  0  0  0  0  0  0
    6.8713   -2.0764    1.1368 O   0  0  0  0  0  0  0  0  0  0  0  0
    5.6696   -1.6857    0.6160 C   0  0  0  0  0  0  0  0  0  0  0  0
    4.9655   -2.3285   -0.3993 C   0  0  0  0  0  0  0  0  0  0  0  0
    3.7385   -1.8138   -0.8382 C   0  0  0  0  0  0  0  0  0  0  0  0
    3.1989   -0.6544   -0.2684 C   0  0  0  0  0  0  0  0  0  0  0  0
    1.9641   -0.2056   -0.7715 N   0  0  0  0  0  0  0  0  0  0  0  0
    1.1955    0.8563   -0.3207 C   0  0  0  0  0  0  0  0  0  0  0  0
    1.4393    1.5867    0.6327 O   0  0  0  0  0  0  0  0  0  0  0  0
   -0.0786    1.0236   -1.1708 C   0  0  0  0  0  0  0  0  0  0  0  0
   -0.7170   -0.2571   -1.3514 O   0  0  0  0  0  0  0  0  0  0  0  0
   -1.4104   -0.6384   -0.1741 C   0  0  0  0  0  0  0  0  0  0  0  0
   -2.0691   -1.8977   -0.2550 O   0  0  0  0  0  0  0  0  0  0  0  0
   -3.1419   -1.7720    0.7067 C   0  0  0  0  0  0  0  0  0  0  0  0
   -4.4333   -2.2629    0.0633 C   0  0  0  0  0  0  0  0  0  0  0  0
   -2.8014   -2.5826    1.9514 C   0  0  0  0  0  0  0  0  0  0  0  0
   -3.2892   -0.3847    1.0890 O   0  0  0  0  0  0  0  0  0  0  0  0
   -2.5588    0.3004    0.0721 C   0  0  0  0  0  0  0  0  0  0  0  0
   -2.0049    1.6684    0.4373 C   0  0  0  0  0  0  0  0  0  0  0  0
   -3.0421    2.6629    0.3777 O   0  0  0  0  0  0  0  0  0  0  0  0
   -2.9383    3.2669   -0.9203 C   0  0  0  0  0  0  0  0  0  0  0  0
   -2.6663    4.7592   -0.7424 C   0  0  0  0  0  0  0  0  0  0  0  0
   -4.2309    3.0503   -1.6964 C   0  0  0  0  0  0  0  0  0  0  0  0
   -1.8515    2.6587   -1.6369 O   0  0  0  0  0  0  0  0  0  0  0  0
   -0.9968    2.1262   -0.6053 C   0  0  0  0  0  0  0  0  0  0  0  0
    3.9079   -0.0131    0.7451 C   0  0  0  0  0  0  0  0  0  0  0  0
    5.1338   -0.5284    1.1825 C   0  0  0  0  0  0  0  0  0  0  0  0
    7.6821   -3.1201   -0.4748 H   0  0  0  0  0  0  0  0  0  0  0  0
    6.8231   -4.1250    0.7570 H   0  0  0  0  0  0  0  0  0  0  0  0
    8.4068   -3.4224    1.1090 H   0  0  0  0  0  0  0  0  0  0  0  0
    5.3390   -3.2303   -0.8725 H   0  0  0  0  0  0  0  0  0  0  0  0
    3.2126   -2.3388   -1.6320 H   0  0  0  0  0  0  0  0  0  0  0  0
    1.5386   -0.7681   -1.5043 H   0  0  0  0  0  0  0  0  0  0  0  0
    0.2575    1.3339   -2.1684 H   0  0  0  0  0  0  0  0  0  0  0  0
   -0.7185   -0.6980    0.6769 H   0  0  0  0  0  0  0  0  0  0  0  0
   -4.3502   -3.3106   -0.2443 H   0  0  0  0  0  0  0  0  0  0  0  0
   -4.6628   -1.6809   -0.8364 H   0  0  0  0  0  0  0  0  0  0  0  0
   -5.2831   -2.1532    0.7449 H   0  0  0  0  0  0  0  0  0  0  0  0
   -1.8753   -2.2161    2.4087 H   0  0  0  0  0  0  0  0  0  0  0  0
   -3.5890   -2.4991    2.7075 H   0  0  0  0  0  0  0  0  0  0  0  0
   -2.6456   -3.6387    1.7076 H   0  0  0  0  0  0  0  0  0  0  0  0
   -3.2124    0.3695   -0.8060 H   0  0  0  0  0  0  0  0  0  0  0  0
   -1.5880    1.6585    1.4499 H   0  0  0  0  0  0  0  0  0  0  0  0
   -1.7547    4.9261   -0.1581 H   0  0  0  0  0  0  0  0  0  0  0  0
   -2.5258    5.2542   -1.7090 H   0  0  0  0  0  0  0  0  0  0  0  0
   -3.4838    5.2486   -0.2024 H   0  0  0  0  0  0  0  0  0  0  0  0
   -5.0906    3.4653   -1.1599 H   0  0  0  0  0  0  0  0  0  0  0  0
   -4.4276    1.9833   -1.8421 H   0  0  0  0  0  0  0  0  0  0  0  0
   -4.1755    3.5028   -2.6922 H   0  0  0  0  0  0  0  0  0  0  0  0
   -0.4087    2.9740   -0.2337 H   0  0  0  0  0  0  0  0  0  0  0  0
    3.5431    0.8929    1.2179 H   0  0  0  0  0  0  0  0  0  0  0  0
    5.6755   -0.0166    1.9748 H   0  0  0  0  0  0  0  0  0  0  0  0
  1  2  1  0
  2  3  1  0
  3  4  2  0
  4  5  1  0
  5  6  2  0
  6  7  1  0
  7  8  1  0
  8  9  2  0
  8 10  1  0
 10 11  1  0
 11 12  1  0
 12 13  1  0
 13 14  1  0
 14 15  1  0
 14 16  1  0
 14 17  1  0
 17 18  1  0
 18 19  1  0
 19 20  1  0
 20 21  1  0
 21 22  1  0
 21 23  1  0
 21 24  1  0
 24 25  1  0
  6 26  1  0
 26 27  2  0
 27  3  1  0
 25 10  1  0
 18 12  1  0
 25 19  1  0
  1 28  1  0
  1 29  1  0
  1 30  1  0
  4 31  1  0
  5 32  1  0
  7 33  1  0
 10 34  1  0
 12 35  1  0
 15 36  1  0
 15 37  1  0
 15 38  1  0
 16 39  1  0
 16 40  1  0
 16 41  1  0
 18 42  1  0
 19 43  1  0
 22 44  1  0
 22 45  1  0
 22 46  1  0
 23 47  1  0
 23 48  1  0
 23 49  1  0
 25 50  1  0
 26 51  1  0
 27 52  1  0
M  END
$$$$
