
     RDKit          3D

 50 53  0  0  0  0  0  0  0  0999 V2000
    2.9810   -1.9561    3.6592 C   0  0  0  0  0  0  0  0  0  0  0  0
    2.4599   -0.6774    3.1368 C   0  0  0  0  0  0  0  0  0  0  0  0
    1.9296    0.4476    3.7304 C   0  0  0  0  0  0  0  0  0  0  0  0
    1.6198    1.3445    2.6795 C   0  0  0  0  0  0  0  0  0  0  0  0
    1.9664    0.7068    1.5052 C   0  0  0  0  0  0  0  0  0  0  0  0
    1.8969    1.1042    0.0720 C   0  0  0  0  0  0  0  0  0  0  0  0
    1.1247    0.1265   -0.6969 N   0  0  0  0  0  0  0  0  0  0  0  0
    1.8743   -0.9419   -1.3588 C   0  0  0  0  0  0  0  0  0  0  0  0
    2.5461   -0.4700   -2.6201 C   0  0  0  0  0  0  0  0  0  0  0  0
    1.8085   -0.0896   -3.7450 C   0  0  0  0  0  0  0  0  0  0  0  0
    2.4687    0.3474   -4.8892 C   0  0  0  0  0  0  0  0  0  0  0  0
    3.8527    0.3894   -4.8718 C   0  0  0  0  0  0  0  0  0  0  0  0
    4.6016    0.0290   -3.8075 N   0  0  0  0  0  0  0  0  0  0  0  0
    3.9326   -0.3958   -2.7116 C   0  0  0  0  0  0  0  0  0  0  0  0
   -0.2610    0.1497   -0.8377 C   0  0  0  0  0  0  0  0  0  0  0  0
   -0.8492   -0.6760   -1.5412 O   0  0  0  0  0  0  0  0  0  0  0  0
   -1.0273    1.2618   -0.0990 C   0  0  0  0  0  0  0  0  0  0  0  0
   -2.4737    1.0643   -0.1275 N   0  0  0  0  0  0  0  0  0  0  0  0
   -3.2023    1.7367   -1.0952 C   0  0  0  0  0  0  0  0  0  0  0  0
   -2.6997    2.5205   -1.9034 O   0  0  0  0  0  0  0  0  0  0  0  0
   -4.7112    1.5323   -1.0346 C   0  0  0  0  0  0  0  0  0  0  0  0
   -5.2546    0.3730   -0.4446 O   0  0  0  0  0  0  0  0  0  0  0  0
   -4.4679   -0.1910    0.5199 C   0  0  0  0  0  0  0  0  0  0  0  0
   -5.1089   -1.1536    1.3071 C   0  0  0  0  0  0  0  0  0  0  0  0
   -4.4089   -1.8299    2.3020 C   0  0  0  0  0  0  0  0  0  0  0  0
   -3.0614   -1.5516    2.5016 C   0  0  0  0  0  0  0  0  0  0  0  0
   -2.4148   -0.5969    1.7084 C   0  0  0  0  0  0  0  0  0  0  0  0
   -3.1097    0.1021    0.7075 C   0  0  0  0  0  0  0  0  0  0  0  0
    2.4895   -0.5233    1.7849 O   0  0  0  0  0  0  0  0  0  0  0  0
    2.9869   -1.9593    4.7534 H   0  0  0  0  0  0  0  0  0  0  0  0
    4.0059   -2.1231    3.3131 H   0  0  0  0  0  0  0  0  0  0  0  0
    2.3586   -2.7891    3.3181 H   0  0  0  0  0  0  0  0  0  0  0  0
    1.7916    0.6039    4.7916 H   0  0  0  0  0  0  0  0  0  0  0  0
    1.1948    2.3364    2.7688 H   0  0  0  0  0  0  0  0  0  0  0  0
    2.9070    1.1885   -0.3419 H   0  0  0  0  0  0  0  0  0  0  0  0
    1.4318    2.0902   -0.0210 H   0  0  0  0  0  0  0  0  0  0  0  0
    1.2175   -1.7837   -1.6076 H   0  0  0  0  0  0  0  0  0  0  0  0
    2.6115   -1.3394   -0.6522 H   0  0  0  0  0  0  0  0  0  0  0  0
    0.7209   -0.1362   -3.7336 H   0  0  0  0  0  0  0  0  0  0  0  0
    1.9153    0.6460   -5.7722 H   0  0  0  0  0  0  0  0  0  0  0  0
    4.4126    0.7229   -5.7406 H   0  0  0  0  0  0  0  0  0  0  0  0
    4.5705   -0.6805   -1.8787 H   0  0  0  0  0  0  0  0  0  0  0  0
   -0.7766    2.2082   -0.5913 H   0  0  0  0  0  0  0  0  0  0  0  0
   -0.7070    1.3511    0.9399 H   0  0  0  0  0  0  0  0  0  0  0  0
   -5.0768    1.5573   -2.0671 H   0  0  0  0  0  0  0  0  0  0  0  0
   -5.1337    2.4033   -0.5204 H   0  0  0  0  0  0  0  0  0  0  0  0
   -6.1587   -1.3785    1.1358 H   0  0  0  0  0  0  0  0  0  0  0  0
   -4.9106   -2.5784    2.9095 H   0  0  0  0  0  0  0  0  0  0  0  0
   -2.5047   -2.0854    3.2684 H   0  0  0  0  0  0  0  0  0  0  0  0
   -1.3583   -0.4369    1.8978 H   0  0  0  0  0  0  0  0  0  0  0  0
  1  2  1  0
  2  3  2  0
  3  4  1  0
  4  5  2  0
  5  6  1  0
  6  7  1  0
  7  8  1  0
  8  9  1  0
  9 10  2  0
 10 11  1  0
 11 12  2  0
 12 13  1  0
 13 14  2  0
  7 15  1  0
 15 16  2  0
 15 17  1  0
 17 18  1  0
 18 19  1  0
 19 20  2  0
 19 21  1  0
 21 22  1  0
 22 23  1  0
 23 24  2  0
 24 25  1  0
 25 26  2  0
 26 27  1  0
 27 28  2  0
  5 29  1  0
 29  2  1  0
 14  9  1  0
 28 18  1  0
 28 23  1  0
  1 30  1  0
  1 31  1  0
  1 32  1  0
  3 33  1  0
  4 34  1  0
  6 35  1  0
  6 36  1  0
  8 37  1  0
  8 38  1  0
 10 39  1  0
 11 40  1  0
 12 41  1  0
 14 42  1  0
 17 43  1  0
 17 44  1  0
 21 45  1  0
 21 46  1  0
 24 47  1  0
 25 48  1  0
 26 49  1  0
 27 50  1  0
M  END
$$$$
