
     RDKit          3D

 34 36  0  0  0  0  0  0  0  0999 V2000
    0.7518   -0.8253   -1.2591 O   0  0  0  0  0  0  0  0  0  0  0  0
    0.7190   -1.4255   -0.1931 C   0  0  0  0  0  0  0  0  0  0  0  0
    1.8696   -1.6403    0.7316 C   0  0  0  0  0  0  0  0  0  0  0  0
    3.1017   -1.1186    0.6603 C   0  0  0  0  0  0  0  0  0  0  0  0
    3.6353   -0.2035   -0.3472 C   0  0  0  0  0  0  0  0  0  0  0  0
    3.6608   -0.5021   -1.7047 C   0  0  0  0  0  0  0  0  0  0  0  0
    4.2488    0.4082   -2.5798 C   0  0  0  0  0  0  0  0  0  0  0  0
    4.8080    1.5749   -2.0744 C   0  0  0  0  0  0  0  0  0  0  0  0
    4.7616    1.7796   -0.7064 C   0  0  0  0  0  0  0  0  0  0  0  0
    4.2008    0.9129    0.1659 N   0  0  0  0  0  0  0  0  0  0  0  0
    1.3916   -2.6899    2.0338 S   0  0  0  0  0  0  0  0  0  0  0  0
   -0.2682   -2.8401    1.4576 C   0  0  0  0  0  0  0  0  0  0  0  0
   -1.4099   -3.7986    2.2071 S   0  0  0  0  0  0  0  0  0  0  0  0
   -0.3934   -2.0742    0.3185 N   0  0  0  0  0  0  0  0  0  0  0  0
   -1.6184   -1.9606   -0.3870 N   0  0  0  0  0  0  0  0  0  0  0  0
   -2.3714   -0.8219    0.0342 C   0  0  0  0  0  0  0  0  0  0  0  0
   -2.0197   -0.1733    1.1752 N   0  0  0  0  0  0  0  0  0  0  0  0
   -2.7775    0.8738    1.5796 C   0  0  0  0  0  0  0  0  0  0  0  0
   -3.9019    1.3236    0.9060 C   0  0  0  0  0  0  0  0  0  0  0  0
   -4.6649    2.5059    1.4172 C   0  0  0  0  0  0  0  0  0  0  0  0
   -5.9734    2.4967    1.0424 F   0  0  0  0  0  0  0  0  0  0  0  0
   -4.6663    2.5928    2.7752 F   0  0  0  0  0  0  0  0  0  0  0  0
   -4.1537    3.6825    0.9655 F   0  0  0  0  0  0  0  0  0  0  0  0
   -4.2578    0.6567   -0.2695 C   0  0  0  0  0  0  0  0  0  0  0  0
   -3.4953   -0.4265   -0.7067 C   0  0  0  0  0  0  0  0  0  0  0  0
   -3.9540   -1.2282   -2.1649 Cl  0  0  0  0  0  0  0  0  0  0  0  0
    3.8182   -1.3220    1.4538 H   0  0  0  0  0  0  0  0  0  0  0  0
    3.2296   -1.4201   -2.0888 H   0  0  0  0  0  0  0  0  0  0  0  0
    4.2682    0.2061   -3.6469 H   0  0  0  0  0  0  0  0  0  0  0  0
    5.2708    2.3046   -2.7290 H   0  0  0  0  0  0  0  0  0  0  0  0
    5.1896    2.6726   -0.2598 H   0  0  0  0  0  0  0  0  0  0  0  0
   -1.4361   -1.8490   -1.3889 H   0  0  0  0  0  0  0  0  0  0  0  0
   -2.4363    1.3506    2.4975 H   0  0  0  0  0  0  0  0  0  0  0  0
   -5.1274    0.9784   -0.8397 H   0  0  0  0  0  0  0  0  0  0  0  0
  1  2  2  0
  2  3  1  0
  3  4  2  3
  4  5  1  0
  5  6  2  0
  6  7  1  0
  7  8  2  0
  8  9  1  0
  9 10  2  0
  3 11  1  0
 11 12  1  0
 12 13  2  0
 12 14  1  0
 14 15  1  0
 15 16  1  0
 16 17  2  0
 17 18  1  0
 18 19  2  0
 19 20  1  0
 20 21  1  0
 20 22  1  0
 20 23  1  0
 19 24  1  0
 24 25  2  0
 25 26  1  0
 14  2  1  0
 25 16  1  0
 10  5  1  0
  4 27  1  0
  6 28  1  0
  7 29  1  0
  8 30  1  0
  9 31  1  0
 15 32  1  0
 18 33  1  0
 24 34  1  0
M  END
$$$$
