
     RDKit          3D

 49 52  0  0  0  0  0  0  0  0999 V2000
    0.8529    4.5838   -0.1319 N   0  0  0  0  0  0  0  0  0  0  0  0
    0.1788    3.5513    0.4047 C   0  0  0  0  0  0  0  0  0  0  0  0
   -0.4742    3.6454    1.5252 N   0  0  0  0  0  0  0  0  0  0  0  0
   -1.0112    2.2683    1.7428 C   0  0  0  0  0  0  0  0  0  0  0  0
   -0.7859    1.4829    0.4285 C   0  0  0  0  0  0  0  0  0  0  0  0
   -2.0804    1.3264   -0.3870 C   0  0  0  0  0  0  0  0  0  0  0  0
   -3.0126    0.2796    0.1793 C   0  0  0  0  0  0  0  0  0  0  0  0
   -2.6741   -1.0813    0.1227 C   0  0  0  0  0  0  0  0  0  0  0  0
   -3.5289   -2.0487    0.6555 C   0  0  0  0  0  0  0  0  0  0  0  0
   -4.7259   -1.6543    1.2431 C   0  0  0  0  0  0  0  0  0  0  0  0
   -5.5880   -2.5642    1.7788 O   0  0  0  0  0  0  0  0  0  0  0  0
   -5.0805   -0.3126    1.3037 C   0  0  0  0  0  0  0  0  0  0  0  0
   -4.2261    0.6543    0.7722 C   0  0  0  0  0  0  0  0  0  0  0  0
    0.1596    2.3644   -0.2479 N   0  0  0  0  0  0  0  0  0  0  0  0
    0.8520    2.0152   -1.4765 C   0  0  0  0  0  0  0  0  0  0  0  0
    1.2375    0.5317   -1.6081 C   0  0  0  0  0  0  0  0  0  0  0  0
    2.2322   -0.0763   -0.6287 C   0  0  0  0  0  0  0  0  0  0  0  0
    2.8812    0.7193    0.3311 C   0  0  0  0  0  0  0  0  0  0  0  0
    3.7823    0.1648    1.2350 C   0  0  0  0  0  0  0  0  0  0  0  0
    4.0607   -1.1963    1.1941 C   0  0  0  0  0  0  0  0  0  0  0  0
    3.4465   -2.0239    0.2464 C   0  0  0  0  0  0  0  0  0  0  0  0
    3.7477   -3.3960    0.2196 C   0  0  0  0  0  0  0  0  0  0  0  0
    3.1577   -4.2432   -0.7153 C   0  0  0  0  0  0  0  0  0  0  0  0
    2.2586   -3.7272   -1.6372 C   0  0  0  0  0  0  0  0  0  0  0  0
    1.9479   -2.3645   -1.6211 C   0  0  0  0  0  0  0  0  0  0  0  0
    2.5251   -1.4749   -0.6832 C   0  0  0  0  0  0  0  0  0  0  0  0
    0.6643    4.7185   -1.1151 H   0  0  0  0  0  0  0  0  0  0  0  0
    0.6567    5.4309    0.3920 H   0  0  0  0  0  0  0  0  0  0  0  0
   -2.0629    2.3235    2.0371 H   0  0  0  0  0  0  0  0  0  0  0  0
   -0.4507    1.8082    2.5650 H   0  0  0  0  0  0  0  0  0  0  0  0
   -0.3392    0.5110    0.6629 H   0  0  0  0  0  0  0  0  0  0  0  0
   -1.8493    1.0361   -1.4198 H   0  0  0  0  0  0  0  0  0  0  0  0
   -2.5974    2.2917   -0.4698 H   0  0  0  0  0  0  0  0  0  0  0  0
   -1.7394   -1.3989   -0.3354 H   0  0  0  0  0  0  0  0  0  0  0  0
   -3.2439   -3.0945    0.6046 H   0  0  0  0  0  0  0  0  0  0  0  0
   -5.2072   -3.4511    1.6712 H   0  0  0  0  0  0  0  0  0  0  0  0
   -6.0182   -0.0188    1.7670 H   0  0  0  0  0  0  0  0  0  0  0  0
   -4.5132    1.7025    0.8321 H   0  0  0  0  0  0  0  0  0  0  0  0
    0.2030    2.2803   -2.3198 H   0  0  0  0  0  0  0  0  0  0  0  0
    1.7599    2.6208   -1.5892 H   0  0  0  0  0  0  0  0  0  0  0  0
    1.6641    0.4060   -2.6124 H   0  0  0  0  0  0  0  0  0  0  0  0
    0.3175   -0.0633   -1.5751 H   0  0  0  0  0  0  0  0  0  0  0  0
    2.6914    1.7878    0.4058 H   0  0  0  0  0  0  0  0  0  0  0  0
    4.2648    0.7979    1.9754 H   0  0  0  0  0  0  0  0  0  0  0  0
    4.7676   -1.6064    1.9120 H   0  0  0  0  0  0  0  0  0  0  0  0
    4.4531   -3.8177    0.9329 H   0  0  0  0  0  0  0  0  0  0  0  0
    3.4046   -5.3014   -0.7231 H   0  0  0  0  0  0  0  0  0  0  0  0
    1.7983   -4.3806   -2.3736 H   0  0  0  0  0  0  0  0  0  0  0  0
    1.2435   -2.0064   -2.3672 H   0  0  0  0  0  0  0  0  0  0  0  0
  1  2  1  0
  2  3  2  0
  3  4  1  0
  4  5  1  0
  5  6  1  0
  6  7  1  0
  7  8  2  0
  8  9  1  0
  9 10  2  0
 10 11  1  0
 10 12  1  0
 12 13  2  0
  5 14  1  0
 14 15  1  0
 15 16  1  0
 16 17  1  0
 17 18  2  0
 18 19  1  0
 19 20  2  0
 20 21  1  0
 21 22  2  0
 22 23  1  0
 23 24  2  0
 24 25  1  0
 25 26  2  0
 14  2  1  0
 26 17  1  0
 13  7  1  0
 26 21  1  0
  1 27  1  0
  1 28  1  0
  4 29  1  0
  4 30  1  0
  5 31  1  0
  6 32  1  0
  6 33  1  0
  8 34  1  0
  9 35  1  0
 11 36  1  0
 12 37  1  0
 13 38  1  0
 15 39  1  0
 15 40  1  0
 16 41  1  0
 16 42  1  0
 18 43  1  0
 19 44  1  0
 20 45  1  0
 22 46  1  0
 23 47  1  0
 24 48  1  0
 25 49  1  0
M  END
$$$$
