
     RDKit          3D

 39 41  0  0  0  0  0  0  0  0999 V2000
   -5.2428    2.6627   -0.7701 C   0  0  0  0  0  0  0  0  0  0  0  0
   -4.3772    1.4699   -0.4955 C   0  0  0  0  0  0  0  0  0  0  0  0
   -3.0689    1.4420   -0.9360 C   0  0  0  0  0  0  0  0  0  0  0  0
   -2.3059    0.3112   -0.6483 C   0  0  0  0  0  0  0  0  0  0  0  0
   -0.8894    0.3545   -1.0711 C   0  0  0  0  0  0  0  0  0  0  0  0
   -0.6258    0.5521   -2.2507 O   0  0  0  0  0  0  0  0  0  0  0  0
    0.0151    0.2191   -0.0298 N   0  0  0  0  0  0  0  0  0  0  0  0
    1.3518    0.2546   -0.2851 N   0  0  0  0  0  0  0  0  0  0  0  0
    2.1231    0.1593    0.7484 C   0  0  0  0  0  0  0  0  0  0  0  0
    3.5936    0.1845    0.6163 C   0  0  0  0  0  0  0  0  0  0  0  0
    4.3722    0.0795    1.7748 C   0  0  0  0  0  0  0  0  0  0  0  0
    5.7654    0.1005    1.6834 C   0  0  0  0  0  0  0  0  0  0  0  0
    6.3821    0.2261    0.4372 C   0  0  0  0  0  0  0  0  0  0  0  0
    5.5959    0.3308   -0.7205 C   0  0  0  0  0  0  0  0  0  0  0  0
    6.2502    0.4623   -2.0288 N   0  0  0  0  0  4  0  0  0  0  0  0
    5.5296    0.5305   -3.0329 O   0  0  0  0  0  0  0  0  0  0  0  0
    7.4893    0.4961   -2.0493 O   0  0  0  0  0  1  0  0  0  0  0  0
    4.1983    0.3108   -0.6390 C   0  0  0  0  0  0  0  0  0  0  0  0
   -2.8631   -0.7978    0.0259 C   0  0  0  0  0  0  0  0  0  0  0  0
   -2.1876   -2.0189    0.2855 C   0  0  0  0  0  0  0  0  0  0  0  0
   -2.8165   -3.0568    0.9702 C   0  0  0  0  0  0  0  0  0  0  0  0
   -4.1264   -2.8965    1.3973 C   0  0  0  0  0  0  0  0  0  0  0  0
   -4.8021   -1.7048    1.1246 C   0  0  0  0  0  0  0  0  0  0  0  0
   -4.2011   -0.6569    0.4399 C   0  0  0  0  0  0  0  0  0  0  0  0
   -4.9281    0.4484    0.1994 N   0  0  0  0  0  0  0  0  0  0  0  0
   -4.8138    3.5560   -0.3057 H   0  0  0  0  0  0  0  0  0  0  0  0
   -5.3322    2.8251   -1.8487 H   0  0  0  0  0  0  0  0  0  0  0  0
   -6.2485    2.5162   -0.3632 H   0  0  0  0  0  0  0  0  0  0  0  0
   -2.6412    2.2767   -1.4836 H   0  0  0  0  0  0  0  0  0  0  0  0
   -0.3126    0.1351    0.9266 H   0  0  0  0  0  0  0  0  0  0  0  0
    1.7161    0.0559    1.7706 H   0  0  0  0  0  0  0  0  0  0  0  0
    3.9073   -0.0184    2.7532 H   0  0  0  0  0  0  0  0  0  0  0  0
    6.3723    0.0194    2.5831 H   0  0  0  0  0  0  0  0  0  0  0  0
    7.4696    0.2408    0.3839 H   0  0  0  0  0  0  0  0  0  0  0  0
    3.5811    0.3924   -1.5331 H   0  0  0  0  0  0  0  0  0  0  0  0
   -1.1711   -2.1816   -0.0696 H   0  0  0  0  0  0  0  0  0  0  0  0
   -2.2896   -3.9895    1.1561 H   0  0  0  0  0  0  0  0  0  0  0  0
   -4.6338   -3.6982    1.9278 H   0  0  0  0  0  0  0  0  0  0  0  0
   -5.8352   -1.5932    1.4478 H   0  0  0  0  0  0  0  0  0  0  0  0
  1  2  1  0
  2  3  2  0
  3  4  1  0
  4  5  1  0
  5  6  2  0
  5  7  1  0
  7  8  1  0
  8  9  2  3
  9 10  1  0
 10 11  2  0
 11 12  1  0
 12 13  2  0
 13 14  1  0
 14 15  1  0
 15 16  2  0
 15 17  1  0
 14 18  2  0
  4 19  2  0
 19 20  1  0
 20 21  2  0
 21 22  1  0
 22 23  2  0
 23 24  1  0
 24 25  2  0
 25  2  1  0
 18 10  1  0
 24 19  1  0
  1 26  1  0
  1 27  1  0
  1 28  1  0
  3 29  1  0
  7 30  1  0
  9 31  1  0
 11 32  1  0
 12 33  1  0
 13 34  1  0
 18 35  1  0
 20 36  1  0
 21 37  1  0
 22 38  1  0
 23 39  1  0
M  CHG  2  15   1  17  -1
M  END
$$$$
