
     RDKit          3D

 37 38  0  0  0  0  0  0  0  0999 V2000
    5.3891    1.3491   -1.1933 C   0  0  0  0  0  0  0  0  0  0  0  0
    4.0252    1.2452   -0.8068 O   0  0  0  0  0  0  0  0  0  0  0  0
    3.6248    0.0804   -0.2029 C   0  0  0  0  0  0  0  0  0  0  0  0
    4.4801   -0.9703    0.1421 C   0  0  0  0  0  0  0  0  0  0  0  0
    3.9758   -2.1206    0.7516 C   0  0  0  0  0  0  0  0  0  0  0  0
    2.6107   -2.2356    1.0097 C   0  0  0  0  0  0  0  0  0  0  0  0
    1.7305   -1.1993    0.6635 C   0  0  0  0  0  0  0  0  0  0  0  0
    0.2909   -1.4189    0.9650 C   0  0  0  0  0  0  0  0  0  0  0  0
   -0.0843   -2.2113    1.8188 O   0  0  0  0  0  0  0  0  0  0  0  0
   -0.4735   -0.6611    0.1327 O   0  0  0  0  0  0  0  0  0  0  0  0
   -1.8421   -0.8444    0.4002 N   0  0  0  0  0  0  0  0  0  0  0  0
   -2.5545    0.0329   -0.2441 C   0  0  0  0  0  0  0  0  0  0  0  0
   -1.9982    1.0070   -1.0457 N   0  0  0  0  0  0  0  0  0  0  0  0
   -4.0431   -0.0310   -0.1028 C   0  0  0  0  0  0  0  0  0  0  0  0
   -4.8415    1.0490   -0.4791 C   0  0  0  0  0  0  0  0  0  0  0  0
   -6.2115    0.9270   -0.3268 C   0  0  0  0  0  0  0  0  0  0  0  0
   -6.8183   -0.1750    0.1624 N   0  0  0  0  0  0  0  0  0  0  0  0
   -6.0193   -1.1997    0.5316 C   0  0  0  0  0  0  0  0  0  0  0  0
   -4.6413   -1.1771    0.4217 C   0  0  0  0  0  0  0  0  0  0  0  0
    2.2487   -0.0279    0.0841 C   0  0  0  0  0  0  0  0  0  0  0  0
    1.4191    1.0145   -0.2648 O   0  0  0  0  0  0  0  0  0  0  0  0
    1.3797    1.9846    0.7853 C   0  0  0  0  0  0  0  0  0  0  0  0
    5.5211    2.3116   -1.6970 H   0  0  0  0  0  0  0  0  0  0  0  0
    6.0473    1.3391   -0.3185 H   0  0  0  0  0  0  0  0  0  0  0  0
    5.6611    0.5617   -1.9040 H   0  0  0  0  0  0  0  0  0  0  0  0
    5.5480   -0.9254   -0.0468 H   0  0  0  0  0  0  0  0  0  0  0  0
    4.6476   -2.9326    1.0215 H   0  0  0  0  0  0  0  0  0  0  0  0
    2.2310   -3.1428    1.4787 H   0  0  0  0  0  0  0  0  0  0  0  0
   -1.0012    0.8475   -1.1836 H   0  0  0  0  0  0  0  0  0  0  0  0
   -2.4687    1.1530   -1.9316 H   0  0  0  0  0  0  0  0  0  0  0  0
   -4.4203    1.9719   -0.8584 H   0  0  0  0  0  0  0  0  0  0  0  0
   -6.8799    1.7395   -0.5982 H   0  0  0  0  0  0  0  0  0  0  0  0
   -6.5335   -2.0687    0.9326 H   0  0  0  0  0  0  0  0  0  0  0  0
   -4.0529   -2.0321    0.7380 H   0  0  0  0  0  0  0  0  0  0  0  0
    0.6698    2.7636    0.4918 H   0  0  0  0  0  0  0  0  0  0  0  0
    1.0266    1.5408    1.7226 H   0  0  0  0  0  0  0  0  0  0  0  0
    2.3573    2.4552    0.9327 H   0  0  0  0  0  0  0  0  0  0  0  0
  1  2  1  0
  2  3  1  0
  3  4  2  0
  4  5  1  0
  5  6  2  0
  6  7  1  0
  7  8  1  0
  8  9  2  0
  8 10  1  0
 10 11  1  0
 11 12  2  3
 12 13  1  0
 12 14  1  0
 14 15  2  0
 15 16  1  0
 16 17  2  0
 17 18  1  0
 18 19  2  0
  7 20  2  0
 20 21  1  0
 21 22  1  0
 20  3  1  0
 19 14  1  0
  1 23  1  0
  1 24  1  0
  1 25  1  0
  4 26  1  0
  5 27  1  0
  6 28  1  0
 13 29  1  0
 13 30  1  0
 15 31  1  0
 16 32  1  0
 18 33  1  0
 19 34  1  0
 22 35  1  0
 22 36  1  0
 22 37  1  0
M  END
$$$$
