
     RDKit          3D

 47 50  0  0  0  0  0  0  0  0999 V2000
   -2.3388   -3.2834   -0.4127 O   0  0  0  0  0  0  0  0  0  0  0  0
   -2.3425   -2.0705   -0.3269 C   0  0  0  0  0  0  0  0  0  0  0  0
   -3.5154   -1.2406   -0.5908 C   0  0  0  0  0  0  0  0  0  0  0  0
   -4.7636   -1.5775   -1.0755 C   0  0  0  0  0  0  0  0  0  0  0  0
   -5.6997   -0.5457   -1.1981 C   0  0  0  0  0  0  0  0  0  0  0  0
   -5.3717    0.7765   -0.8311 C   0  0  0  0  0  0  0  0  0  0  0  0
   -4.1022    1.0897   -0.3349 C   0  0  0  0  0  0  0  0  0  0  0  0
   -3.1943    0.0546   -0.2313 C   0  0  0  0  0  0  0  0  0  0  0  0
   -1.8187    0.0422    0.2592 C   0  0  0  0  0  0  0  0  0  0  0  0
   -1.2733    0.9958    0.7801 O   0  0  0  0  0  0  0  0  0  0  0  0
   -1.3464   -1.2265    0.0788 N   0  0  0  0  0  0  0  0  0  0  0  0
   -0.0400   -1.6666    0.5150 C   0  0  0  0  0  0  0  0  0  0  0  0
    1.0572   -1.3012   -0.3941 N   0  0  0  0  0  0  0  0  0  0  0  0
    2.1127   -0.4661    0.0318 C   0  0  0  0  0  0  0  0  0  0  0  0
    3.2620   -0.5778   -0.4076 O   0  0  0  0  0  0  0  0  0  0  0  0
    1.7747    0.6491    1.0363 C   0  0  0  0  0  0  0  0  0  0  0  0
    2.9449    1.3768    1.4021 O   0  0  0  0  0  0  0  0  0  0  0  0
    2.7754    2.4264    2.2630 C   0  0  0  0  0  0  0  0  0  0  0  0
    3.9616    3.0422    2.6706 C   0  0  0  0  0  0  0  0  0  0  0  0
    3.9356    4.1269    3.5486 C   0  0  0  0  0  0  0  0  0  0  0  0
    2.7171    4.6053    4.0234 C   0  0  0  0  0  0  0  0  0  0  0  0
    1.5291    3.9992    3.6180 C   0  0  0  0  0  0  0  0  0  0  0  0
    1.5558    2.9117    2.7388 C   0  0  0  0  0  0  0  0  0  0  0  0
    1.1529   -1.9659   -1.6756 C   0  0  0  0  0  0  0  0  0  0  0  0
    1.8695   -1.3695   -2.7318 C   0  0  0  0  0  0  0  0  0  0  0  0
    1.9472   -1.9666   -3.9952 C   0  0  0  0  0  0  0  0  0  0  0  0
    1.3016   -3.1700   -4.2224 C   0  0  0  0  0  0  0  0  0  0  0  0
    1.3676   -3.7425   -5.4307 F   0  0  0  0  0  0  0  0  0  0  0  0
    0.5847   -3.7849   -3.2085 C   0  0  0  0  0  0  0  0  0  0  0  0
    0.5108   -3.1856   -1.9443 C   0  0  0  0  0  0  0  0  0  0  0  0
   -5.0054   -2.5998   -1.3479 H   0  0  0  0  0  0  0  0  0  0  0  0
   -6.6964   -0.7638   -1.5788 H   0  0  0  0  0  0  0  0  0  0  0  0
   -6.1198    1.5612   -0.9336 H   0  0  0  0  0  0  0  0  0  0  0  0
   -3.8401    2.1015   -0.0433 H   0  0  0  0  0  0  0  0  0  0  0  0
    0.1268   -1.2494    1.5088 H   0  0  0  0  0  0  0  0  0  0  0  0
   -0.0321   -2.7510    0.6687 H   0  0  0  0  0  0  0  0  0  0  0  0
    1.0847    1.3231    0.5225 H   0  0  0  0  0  0  0  0  0  0  0  0
    1.3452    0.2222    1.9435 H   0  0  0  0  0  0  0  0  0  0  0  0
    4.9140    2.6712    2.2995 H   0  0  0  0  0  0  0  0  0  0  0  0
    4.8655    4.5963    3.8579 H   0  0  0  0  0  0  0  0  0  0  0  0
    2.6928    5.4510    4.7055 H   0  0  0  0  0  0  0  0  0  0  0  0
    0.5769    4.3750    3.9837 H   0  0  0  0  0  0  0  0  0  0  0  0
    0.6070    2.4757    2.4417 H   0  0  0  0  0  0  0  0  0  0  0  0
    2.3713   -0.4125   -2.6025 H   0  0  0  0  0  0  0  0  0  0  0  0
    2.5063   -1.4924   -4.7953 H   0  0  0  0  0  0  0  0  0  0  0  0
    0.0874   -4.7310   -3.3992 H   0  0  0  0  0  0  0  0  0  0  0  0
   -0.0376   -3.7331   -1.1856 H   0  0  0  0  0  0  0  0  0  0  0  0
  1  2  2  0
  2  3  1  0
  3  4  2  0
  4  5  1  0
  5  6  2  0
  6  7  1  0
  7  8  2  0
  8  9  1  0
  9 10  2  0
  9 11  1  0
 11 12  1  0
 12 13  1  0
 13 14  1  0
 14 15  2  0
 14 16  1  0
 16 17  1  0
 17 18  1  0
 18 19  2  0
 19 20  1  0
 20 21  2  0
 21 22  1  0
 22 23  2  0
 13 24  1  0
 24 25  2  0
 25 26  1  0
 26 27  2  0
 27 28  1  0
 27 29  1  0
 29 30  2  0
 11  2  1  0
 23 18  1  0
 30 24  1  0
  8  3  1  0
  4 31  1  0
  5 32  1  0
  6 33  1  0
  7 34  1  0
 12 35  1  0
 12 36  1  0
 16 37  1  0
 16 38  1  0
 19 39  1  0
 20 40  1  0
 21 41  1  0
 22 42  1  0
 23 43  1  0
 25 44  1  0
 26 45  1  0
 29 46  1  0
 30 47  1  0
M  END
$$$$
