
     RDKit          3D

 67 72  0  0  0  0  0  0  0  0999 V2000
    5.2410    2.0537    2.1876 C   0  0  0  0  0  0  0  0  0  0  0  0
    5.5861    1.0427    1.0815 C   0  0  0  0  0  0  0  0  0  0  0  0
    6.3776   -0.1127    1.7050 C   0  0  0  0  0  0  0  0  0  0  0  0
    6.3886    1.7685   -0.0060 C   0  0  0  0  0  0  0  0  0  0  0  0
    4.3000    0.5939    0.5815 O   0  0  0  0  0  0  0  0  0  0  0  0
    4.2177   -0.3041   -0.4345 C   0  0  0  0  0  0  0  0  0  0  0  0
    5.1810   -0.8146   -0.9915 O   0  0  0  0  0  0  0  0  0  0  0  0
    2.9097   -0.5789   -0.7746 N   0  0  0  0  0  0  0  0  0  0  0  0
    2.6324   -1.5435   -1.8409 C   0  0  0  0  0  0  0  0  0  0  0  0
    1.2305   -2.1665   -1.7085 C   0  0  0  0  0  0  0  0  0  0  0  0
    0.1797   -1.1509   -1.7360 N   0  0  0  0  0  0  0  0  0  0  0  0
    0.5175    0.1181   -1.0056 C   0  0  2  0  0  0  0  0  0  0  0  0
    1.7529    0.0098   -0.0907 C   0  0  0  0  0  0  0  0  0  0  0  0
   -0.7346    0.4252   -0.2808 C   0  0  0  0  0  0  0  0  0  0  0  0
   -1.7249   -0.5353   -0.5327 C   0  0  0  0  0  0  0  0  0  0  0  0
   -2.8475   -0.1968    0.1803 C   0  0  0  0  0  0  0  0  0  0  0  0
   -4.0304   -0.7853    0.3150 O   0  0  0  0  0  0  0  0  0  0  0  0
   -2.5506    0.9861    0.8406 N   0  0  0  0  0  0  0  0  0  0  0  0
   -3.4554    1.6862    1.7446 C   0  0  0  0  0  0  0  0  0  0  0  0
   -4.2369    2.7702    1.0435 C   0  0  0  0  0  0  0  0  0  0  0  0
   -5.3983    2.4592    0.3214 C   0  0  0  0  0  0  0  0  0  0  0  0
   -6.1218    3.4625   -0.3243 C   0  0  0  0  0  0  0  0  0  0  0  0
   -5.6930    4.7871   -0.2561 C   0  0  0  0  0  0  0  0  0  0  0  0
   -4.5363    5.1092    0.4520 C   0  0  0  0  0  0  0  0  0  0  0  0
   -3.8097    4.1057    1.0958 C   0  0  0  0  0  0  0  0  0  0  0  0
   -1.2450    1.3674    0.5724 C   0  0  0  0  0  0  0  0  0  0  0  0
   -0.7232    2.4634    1.1074 O   0  0  0  0  0  0  0  0  0  0  0  0
   -1.2206   -1.5849   -1.4450 C   0  0  1  0  0  0  0  0  0  0  0  0
   -2.0384   -1.7113   -2.7680 C   0  0  0  0  0  0  0  0  0  0  0  0
   -2.1837   -0.8932   -3.6657 O   0  0  0  0  0  0  0  0  0  0  0  0
   -2.6103   -2.9873   -2.7663 N   0  0  0  0  0  0  0  0  0  0  0  0
   -2.2853   -3.6901   -1.6148 C   0  0  0  0  0  0  0  0  0  0  0  0
   -2.6970   -4.9647   -1.2821 C   0  0  0  0  0  0  0  0  0  0  0  0
   -2.2767   -5.4757   -0.0519 C   0  0  0  0  0  0  0  0  0  0  0  0
   -1.4722   -4.7077    0.8078 C   0  0  0  0  0  0  0  0  0  0  0  0
   -1.0707   -3.4163    0.4515 C   0  0  0  0  0  0  0  0  0  0  0  0
   -1.4743   -2.9152   -0.7790 C   0  0  0  0  0  0  0  0  0  0  0  0
    4.6535    1.5786    2.9835 H   0  0  0  0  0  0  0  0  0  0  0  0
    6.1419    2.4910    2.6349 H   0  0  0  0  0  0  0  0  0  0  0  0
    4.6227    2.8668    1.7896 H   0  0  0  0  0  0  0  0  0  0  0  0
    7.2583    0.2541    2.2455 H   0  0  0  0  0  0  0  0  0  0  0  0
    6.7291   -0.8216    0.9481 H   0  0  0  0  0  0  0  0  0  0  0  0
    5.7512   -0.6823    2.4017 H   0  0  0  0  0  0  0  0  0  0  0  0
    6.7206    1.0842   -0.7921 H   0  0  0  0  0  0  0  0  0  0  0  0
    7.2828    2.2477    0.4092 H   0  0  0  0  0  0  0  0  0  0  0  0
    5.7784    2.5369   -0.4941 H   0  0  0  0  0  0  0  0  0  0  0  0
    2.7228   -1.0070   -2.7932 H   0  0  0  0  0  0  0  0  0  0  0  0
    3.3920   -2.3334   -1.8290 H   0  0  0  0  0  0  0  0  0  0  0  0
    1.0766   -2.8819   -2.5252 H   0  0  0  0  0  0  0  0  0  0  0  0
    1.2194   -2.7236   -0.7637 H   0  0  0  0  0  0  0  0  0  0  0  0
    0.7023    0.8861   -1.7672 H   0  0  0  0  0  0  0  0  0  0  0  0
    2.0075    0.9991    0.3058 H   0  0  0  0  0  0  0  0  0  0  0  0
    1.5415   -0.6331    0.7744 H   0  0  0  0  0  0  0  0  0  0  0  0
   -4.0134   -1.6085   -0.2051 H   0  0  0  0  0  0  0  0  0  0  0  0
   -2.8590    2.0988    2.5664 H   0  0  0  0  0  0  0  0  0  0  0  0
   -4.1321    0.9525    2.1967 H   0  0  0  0  0  0  0  0  0  0  0  0
   -5.7415    1.4286    0.2549 H   0  0  0  0  0  0  0  0  0  0  0  0
   -7.0177    3.2077   -0.8838 H   0  0  0  0  0  0  0  0  0  0  0  0
   -6.2573    5.5665   -0.7609 H   0  0  0  0  0  0  0  0  0  0  0  0
   -4.1970    6.1410    0.4974 H   0  0  0  0  0  0  0  0  0  0  0  0
   -2.9016    4.3669    1.6350 H   0  0  0  0  0  0  0  0  0  0  0  0
    0.1500    2.6068    0.7032 H   0  0  0  0  0  0  0  0  0  0  0  0
   -3.1849   -3.3213   -3.5259 H   0  0  0  0  0  0  0  0  0  0  0  0
   -3.3260   -5.5533   -1.9405 H   0  0  0  0  0  0  0  0  0  0  0  0
   -2.5786   -6.4782    0.2487 H   0  0  0  0  0  0  0  0  0  0  0  0
   -1.1601   -5.1212    1.7636 H   0  0  0  0  0  0  0  0  0  0  0  0
   -0.4592   -2.8218    1.1243 H   0  0  0  0  0  0  0  0  0  0  0  0
  1  2  1  0
  2  3  1  0
  2  4  1  0
  2  5  1  0
  5  6  1  0
  6  7  2  0
  6  8  1  0
  8  9  1  0
  9 10  1  0
 10 11  1  0
 11 12  1  0
 12 13  1  0
 12 14  1  0
 14 15  1  0
 15 16  2  0
 16 17  1  0
 16 18  1  0
 18 19  1  0
 19 20  1  0
 20 21  2  0
 21 22  1  0
 22 23  2  0
 23 24  1  0
 24 25  2  0
 18 26  1  0
 26 27  1  0
 15 28  1  0
 28 29  1  0
 29 30  2  0
 29 31  1  0
 31 32  1  0
 32 33  2  0
 33 34  1  0
 34 35  2  0
 35 36  1  0
 36 37  2  0
 13  8  1  0
 26 14  2  0
 37 28  1  0
 28 11  1  6
 37 32  1  0
 25 20  1  0
  1 38  1  0
  1 39  1  0
  1 40  1  0
  3 41  1  0
  3 42  1  0
  3 43  1  0
  4 44  1  0
  4 45  1  0
  4 46  1  0
  9 47  1  0
  9 48  1  0
 10 49  1  0
 10 50  1  0
 12 51  1  6
 13 52  1  0
 13 53  1  0
 17 54  1  0
 19 55  1  0
 19 56  1  0
 21 57  1  0
 22 58  1  0
 23 59  1  0
 24 60  1  0
 25 61  1  0
 27 62  1  0
 31 63  1  0
 33 64  1  0
 34 65  1  0
 35 66  1  0
 36 67  1  0
M  END
$$$$
