
     RDKit          3D

 52 53  0  0  0  0  0  0  0  0999 V2000
   -2.6011    0.5571   -2.9572 C   0  0  0  0  0  0  0  0  0  0  0  0
   -3.1812   -0.7895   -2.5413 C   0  0  0  0  0  0  0  0  0  0  0  0
   -3.8414   -0.8239   -1.1456 C   0  0  0  0  0  0  0  0  0  0  0  0
   -5.0769    0.0817   -1.0701 C   0  0  0  0  0  0  0  0  0  0  0  0
   -2.8259   -0.6063   -0.0332 C   0  0  0  0  0  0  0  0  0  0  0  0
   -2.6319    0.6342    0.5876 C   0  0  0  0  0  0  0  0  0  0  0  0
   -1.6647    0.7946    1.5846 C   0  0  0  0  0  0  0  0  0  0  0  0
   -0.8550   -0.2783    1.9790 C   0  0  0  0  0  0  0  0  0  0  0  0
    0.2223   -0.1218    3.0379 C   0  0  0  0  0  0  0  0  0  0  0  0
   -0.3797   -0.3072    4.4308 C   0  0  0  0  0  0  0  0  0  0  0  0
    0.9229    1.1601    2.9537 N   0  0  0  0  0  0  0  0  0  0  0  0
    1.7947    1.6128    2.0106 C   0  0  0  0  0  0  0  0  0  0  0  0
    2.6149    3.0272    2.3451 S   0  0  0  0  0  0  0  0  0  0  0  0
    1.8994    0.8685    0.8751 N   0  0  0  0  0  0  0  0  0  0  0  0
    2.7871    1.0920   -0.2716 C   0  0  0  0  0  0  0  0  0  0  0  0
    2.0825    0.6323   -1.5622 C   0  0  0  0  0  0  0  0  0  0  0  0
    3.0809    0.2160   -2.6338 C   0  0  0  0  0  0  0  0  0  0  0  0
    3.9377   -0.9655   -2.1753 C   0  0  0  0  0  0  0  0  0  0  0  0
    4.1663   -1.0028   -0.6626 C   0  0  0  0  0  0  0  0  0  0  0  0
    4.1421    0.3940   -0.0515 C   0  0  0  0  0  0  0  0  0  0  0  0
   -1.0555   -1.5244    1.3696 C   0  0  0  0  0  0  0  0  0  0  0  0
   -2.0240   -1.6834    0.3752 C   0  0  0  0  0  0  0  0  0  0  0  0
   -3.3692    1.3346   -2.9919 H   0  0  0  0  0  0  0  0  0  0  0  0
   -2.1664    0.4788   -3.9594 H   0  0  0  0  0  0  0  0  0  0  0  0
   -1.8061    0.8810   -2.2794 H   0  0  0  0  0  0  0  0  0  0  0  0
   -2.3803   -1.5385   -2.5878 H   0  0  0  0  0  0  0  0  0  0  0  0
   -3.9246   -1.0900   -3.2906 H   0  0  0  0  0  0  0  0  0  0  0  0
   -4.2300   -1.8442   -1.0101 H   0  0  0  0  0  0  0  0  0  0  0  0
   -4.8379    1.1377   -1.2270 H   0  0  0  0  0  0  0  0  0  0  0  0
   -5.5643   -0.0071   -0.0926 H   0  0  0  0  0  0  0  0  0  0  0  0
   -5.8086   -0.2065   -1.8330 H   0  0  0  0  0  0  0  0  0  0  0  0
   -3.2158    1.5039    0.2980 H   0  0  0  0  0  0  0  0  0  0  0  0
   -1.5339    1.7758    2.0369 H   0  0  0  0  0  0  0  0  0  0  0  0
    0.9885   -0.8923    2.8822 H   0  0  0  0  0  0  0  0  0  0  0  0
   -0.8666   -1.2838    4.5271 H   0  0  0  0  0  0  0  0  0  0  0  0
   -1.1271    0.4640    4.6514 H   0  0  0  0  0  0  0  0  0  0  0  0
    0.3979   -0.2400    5.1998 H   0  0  0  0  0  0  0  0  0  0  0  0
    0.8885    1.7528    3.7748 H   0  0  0  0  0  0  0  0  0  0  0  0
    1.3215    0.0440    0.8201 H   0  0  0  0  0  0  0  0  0  0  0  0
    2.9765    2.1680   -0.3536 H   0  0  0  0  0  0  0  0  0  0  0  0
    1.4108   -0.2132   -1.3619 H   0  0  0  0  0  0  0  0  0  0  0  0
    1.4437    1.4422   -1.9349 H   0  0  0  0  0  0  0  0  0  0  0  0
    3.7303    1.0677   -2.8725 H   0  0  0  0  0  0  0  0  0  0  0  0
    2.5580   -0.0466   -3.5603 H   0  0  0  0  0  0  0  0  0  0  0  0
    3.4670   -1.9075   -2.4821 H   0  0  0  0  0  0  0  0  0  0  0  0
    4.9019   -0.9227   -2.6962 H   0  0  0  0  0  0  0  0  0  0  0  0
    5.1226   -1.4938   -0.4491 H   0  0  0  0  0  0  0  0  0  0  0  0
    3.3887   -1.6169   -0.1909 H   0  0  0  0  0  0  0  0  0  0  0  0
    4.9322    0.9922   -0.5240 H   0  0  0  0  0  0  0  0  0  0  0  0
    4.3905    0.3375    1.0147 H   0  0  0  0  0  0  0  0  0  0  0  0
   -0.4536   -2.3835    1.6584 H   0  0  0  0  0  0  0  0  0  0  0  0
   -2.1474   -2.6612   -0.0870 H   0  0  0  0  0  0  0  0  0  0  0  0
  1  2  1  0
  2  3  1  0
  3  4  1  0
  3  5  1  0
  5  6  2  0
  6  7  1  0
  7  8  2  0
  8  9  1  0
  9 10  1  0
  9 11  1  0
 11 12  1  0
 12 13  2  0
 12 14  1  0
 14 15  1  0
 15 16  1  0
 16 17  1  0
 17 18  1  0
 18 19  1  0
 19 20  1  0
  8 21  1  0
 21 22  2  0
 22  5  1  0
 20 15  1  0
  1 23  1  0
  1 24  1  0
  1 25  1  0
  2 26  1  0
  2 27  1  0
  3 28  1  0
  4 29  1  0
  4 30  1  0
  4 31  1  0
  6 32  1  0
  7 33  1  0
  9 34  1  0
 10 35  1  0
 10 36  1  0
 10 37  1  0
 11 38  1  0
 14 39  1  0
 15 40  1  0
 16 41  1  0
 16 42  1  0
 17 43  1  0
 17 44  1  0
 18 45  1  0
 18 46  1  0
 19 47  1  0
 19 48  1  0
 20 49  1  0
 20 50  1  0
 21 51  1  0
 22 52  1  0
M  END
$$$$
