
     RDKit          3D

 41 44  0  0  0  0  0  0  0  0999 V2000
    6.1058   -0.8662    1.0446 Cl  0  0  0  0  0  0  0  0  0  0  0  0
    4.6314   -0.7687    0.1637 C   0  0  0  0  0  0  0  0  0  0  0  0
    4.3719    0.3466   -0.6294 C   0  0  0  0  0  0  0  0  0  0  0  0
    3.1746    0.4286   -1.3445 C   0  0  0  0  0  0  0  0  0  0  0  0
    2.2276   -0.6043   -1.2672 C   0  0  0  0  0  0  0  0  0  0  0  0
    0.9261   -0.5135   -2.0280 C   0  0  0  0  0  0  0  0  0  0  0  0
   -0.2130   -0.3653   -1.1380 N   0  0  0  0  0  0  0  0  0  0  0  0
   -1.0285   -1.4154   -0.9063 N   0  0  0  0  0  0  0  0  0  0  0  0
   -1.8916   -0.9089   -0.0117 C   0  0  0  0  0  0  0  0  0  0  0  0
   -2.9878   -1.6645    0.5878 C   0  0  0  0  0  0  0  0  0  0  0  0
   -3.2099   -3.0079    0.2500 C   0  0  0  0  0  0  0  0  0  0  0  0
   -4.2612   -3.7238    0.8292 C   0  0  0  0  0  0  0  0  0  0  0  0
   -5.1016   -3.1043    1.7524 C   0  0  0  0  0  0  0  0  0  0  0  0
   -4.8931   -1.7703    2.0974 C   0  0  0  0  0  0  0  0  0  0  0  0
   -3.8419   -1.0544    1.5182 C   0  0  0  0  0  0  0  0  0  0  0  0
   -1.6524    0.4110    0.3015 N   0  0  0  0  0  0  0  0  0  0  0  0
   -0.6103    0.7427   -0.4333 C   0  0  0  0  0  0  0  0  0  0  0  0
    0.0453    2.0425   -0.4593 C   0  0  0  0  0  0  0  0  0  0  0  0
    0.7260    2.4994    0.6753 C   0  0  0  0  0  0  0  0  0  0  0  0
    1.3794    3.7327    0.6567 C   0  0  0  0  0  0  0  0  0  0  0  0
    1.3461    4.5220   -0.4921 C   0  0  0  0  0  0  0  0  0  0  0  0
    0.6539    4.0836   -1.6203 C   0  0  0  0  0  0  0  0  0  0  0  0
    0.0018    2.8489   -1.6038 C   0  0  0  0  0  0  0  0  0  0  0  0
    2.5060   -1.7227   -0.4649 C   0  0  0  0  0  0  0  0  0  0  0  0
    3.7038   -1.8040    0.2485 C   0  0  0  0  0  0  0  0  0  0  0  0
    5.0939    1.1565   -0.6925 H   0  0  0  0  0  0  0  0  0  0  0  0
    2.9862    1.3122   -1.9516 H   0  0  0  0  0  0  0  0  0  0  0  0
    0.9185    0.3298   -2.7263 H   0  0  0  0  0  0  0  0  0  0  0  0
    0.7801   -1.4216   -2.6255 H   0  0  0  0  0  0  0  0  0  0  0  0
   -2.5625   -3.5052   -0.4693 H   0  0  0  0  0  0  0  0  0  0  0  0
   -4.4219   -4.7640    0.5584 H   0  0  0  0  0  0  0  0  0  0  0  0
   -5.9192   -3.6610    2.2029 H   0  0  0  0  0  0  0  0  0  0  0  0
   -5.5468   -1.2844    2.8169 H   0  0  0  0  0  0  0  0  0  0  0  0
   -3.6909   -0.0131    1.7971 H   0  0  0  0  0  0  0  0  0  0  0  0
    0.7512    1.8916    1.5780 H   0  0  0  0  0  0  0  0  0  0  0  0
    1.9081    4.0789    1.5413 H   0  0  0  0  0  0  0  0  0  0  0  0
    1.8489    5.4860   -0.5025 H   0  0  0  0  0  0  0  0  0  0  0  0
    0.6124    4.7093   -2.5084 H   0  0  0  0  0  0  0  0  0  0  0  0
   -0.5535    2.5299   -2.4829 H   0  0  0  0  0  0  0  0  0  0  0  0
    1.7841   -2.5352   -0.3837 H   0  0  0  0  0  0  0  0  0  0  0  0
    3.9031   -2.6735    0.8695 H   0  0  0  0  0  0  0  0  0  0  0  0
  1  2  1  0
  2  3  2  0
  3  4  1  0
  4  5  2  0
  5  6  1  0
  6  7  1  0
  7  8  1  0
  8  9  2  0
  9 10  1  0
 10 11  2  0
 11 12  1  0
 12 13  2  0
 13 14  1  0
 14 15  2  0
  9 16  1  0
 16 17  2  0
 17 18  1  0
 18 19  2  0
 19 20  1  0
 20 21  2  0
 21 22  1  0
 22 23  2  0
  5 24  1  0
 24 25  2  0
 25  2  1  0
 17  7  1  0
 23 18  1  0
 15 10  1  0
  3 26  1  0
  4 27  1  0
  6 28  1  0
  6 29  1  0
 11 30  1  0
 12 31  1  0
 13 32  1  0
 14 33  1  0
 15 34  1  0
 19 35  1  0
 20 36  1  0
 21 37  1  0
 22 38  1  0
 23 39  1  0
 24 40  1  0
 25 41  1  0
M  END
$$$$
