
     RDKit          3D

 45 47  0  0  0  0  0  0  0  0999 V2000
    3.9243    1.0434   -4.5082 O   0  0  0  0  0  0  0  0  0  0  0  0
    2.8592    1.1292   -3.9073 C   0  0  0  0  0  0  0  0  0  0  0  0
    1.9874    2.3879   -3.8769 C   0  0  0  0  0  0  0  0  0  0  0  0
    0.8428    2.2519   -2.9795 N   0  0  0  0  0  0  0  0  0  0  0  0
    1.0362    2.4536   -1.6238 C   0  0  0  0  0  0  0  0  0  0  0  0
    2.0372    2.9874   -1.1626 O   0  0  0  0  0  0  0  0  0  0  0  0
   -0.0049    1.8886   -0.7228 C   0  0  0  0  0  0  0  0  0  0  0  0
    0.3822    1.4722    0.5538 C   0  0  0  0  0  0  0  0  0  0  0  0
   -0.5518    0.8904    1.4161 C   0  0  0  0  0  0  0  0  0  0  0  0
   -1.8931    0.7189    1.0293 C   0  0  0  0  0  0  0  0  0  0  0  0
   -2.8703    0.0956    1.9414 C   0  0  0  0  0  0  0  0  0  0  0  0
   -4.1227    0.6853    2.1889 C   0  0  0  0  0  0  0  0  0  0  0  0
   -5.0378    0.1024    3.0761 C   0  0  0  0  0  0  0  0  0  0  0  0
   -4.7168   -1.0824    3.7301 C   0  0  0  0  0  0  0  0  0  0  0  0
   -3.4844   -1.6878    3.4950 C   0  0  0  0  0  0  0  0  0  0  0  0
   -2.5732   -1.1051    2.6061 C   0  0  0  0  0  0  0  0  0  0  0  0
   -2.2697    1.1647   -0.2501 C   0  0  0  0  0  0  0  0  0  0  0  0
   -1.3388    1.7474   -1.1194 C   0  0  0  0  0  0  0  0  0  0  0  0
    2.2644    0.1101   -3.2235 O   0  0  0  0  0  0  0  0  0  0  0  0
    3.0604   -1.0539   -2.9955 C   0  0  0  0  0  0  0  0  0  0  0  0
    2.6519   -1.5660   -1.6369 C   0  0  0  0  0  0  0  0  0  0  0  0
    1.5070   -2.3640   -1.4885 C   0  0  0  0  0  0  0  0  0  0  0  0
    1.0908   -2.7762   -0.2211 C   0  0  0  0  0  0  0  0  0  0  0  0
    1.8149   -2.3915    0.9026 C   0  0  0  0  0  0  0  0  0  0  0  0
    1.2944   -2.8966    2.4640 Cl  0  0  0  0  0  0  0  0  0  0  0  0
    2.9521   -1.5961    0.7718 C   0  0  0  0  0  0  0  0  0  0  0  0
    3.3664   -1.1789   -0.4946 C   0  0  0  0  0  0  0  0  0  0  0  0
    1.5859    2.5511   -4.8830 H   0  0  0  0  0  0  0  0  0  0  0  0
    2.6046    3.2381   -3.5689 H   0  0  0  0  0  0  0  0  0  0  0  0
    0.1795    1.5310   -3.2316 H   0  0  0  0  0  0  0  0  0  0  0  0
    1.4152    1.5858    0.8786 H   0  0  0  0  0  0  0  0  0  0  0  0
   -0.2200    0.5758    2.4057 H   0  0  0  0  0  0  0  0  0  0  0  0
   -4.3913    1.6213    1.7066 H   0  0  0  0  0  0  0  0  0  0  0  0
   -5.9979    0.5805    3.2605 H   0  0  0  0  0  0  0  0  0  0  0  0
   -5.4228   -1.5313    4.4245 H   0  0  0  0  0  0  0  0  0  0  0  0
   -3.2265   -2.6113    4.0039 H   0  0  0  0  0  0  0  0  0  0  0  0
   -1.6199   -1.6021    2.4366 H   0  0  0  0  0  0  0  0  0  0  0  0
   -3.3000    1.0506   -0.5850 H   0  0  0  0  0  0  0  0  0  0  0  0
   -1.6753    2.0963   -2.0910 H   0  0  0  0  0  0  0  0  0  0  0  0
    2.8366   -1.7967   -3.7667 H   0  0  0  0  0  0  0  0  0  0  0  0
    4.1393   -0.8468   -3.0126 H   0  0  0  0  0  0  0  0  0  0  0  0
    0.9263   -2.6583   -2.3620 H   0  0  0  0  0  0  0  0  0  0  0  0
    0.1986   -3.3909   -0.1170 H   0  0  0  0  0  0  0  0  0  0  0  0
    3.5157   -1.2880    1.6491 H   0  0  0  0  0  0  0  0  0  0  0  0
    4.2441   -0.5353   -0.5854 H   0  0  0  0  0  0  0  0  0  0  0  0
  1  2  2  0
  2  3  1  0
  3  4  1  0
  4  5  1  0
  5  6  2  0
  5  7  1  0
  7  8  2  0
  8  9  1  0
  9 10  2  0
 10 11  1  0
 11 12  2  0
 12 13  1  0
 13 14  2  0
 14 15  1  0
 15 16  2  0
 10 17  1  0
 17 18  2  0
  2 19  1  0
 19 20  1  0
 20 21  1  0
 21 22  2  0
 22 23  1  0
 23 24  2  0
 24 25  1  0
 24 26  1  0
 26 27  2  0
 18  7  1  0
 27 21  1  0
 16 11  1  0
  3 28  1  0
  3 29  1  0
  4 30  1  0
  8 31  1  0
  9 32  1  0
 12 33  1  0
 13 34  1  0
 14 35  1  0
 15 36  1  0
 16 37  1  0
 17 38  1  0
 18 39  1  0
 20 40  1  0
 20 41  1  0
 22 42  1  0
 23 43  1  0
 26 44  1  0
 27 45  1  0
M  END
$$$$
