
     RDKit          3D

 51 55  0  0  0  0  0  0  0  0999 V2000
    2.9989   -2.8081    0.8964 C   0  0  0  0  0  0  0  0  0  0  0  0
    2.9828   -1.4871    1.6505 C   0  0  0  0  0  0  0  0  0  0  0  0
    2.5741   -0.3966    0.7731 N   0  0  0  0  0  0  0  0  0  0  0  0
    1.2712    0.0869    0.6085 C   0  0  0  0  0  0  0  0  0  0  0  0
    0.1465   -0.4900    1.0771 C   0  0  0  0  0  0  0  0  0  0  0  0
   -1.2233    0.0162    0.9050 C   0  0  0  0  0  0  0  0  0  0  0  0
   -1.6356    1.0662    1.7270 C   0  0  0  0  0  0  0  0  0  0  0  0
   -2.9141    1.5763    1.6135 C   0  0  0  0  0  0  0  0  0  0  0  0
   -3.7832    1.0354    0.6751 C   0  0  0  0  0  0  0  0  0  0  0  0
   -5.0805    1.5585    0.5543 C   0  0  0  0  0  0  0  0  0  0  0  0
   -5.9852    1.0381   -0.3745 C   0  0  0  0  0  0  0  0  0  0  0  0
   -7.3581    1.6311   -0.5160 C   0  0  0  0  0  0  0  0  0  0  0  0
   -5.5717    0.0016   -1.2082 C   0  0  0  0  0  0  0  0  0  0  0  0
   -4.2809   -0.5297   -1.0974 C   0  0  0  0  0  0  0  0  0  0  0  0
   -3.3566   -0.0369   -0.1554 C   0  0  0  0  0  0  0  0  0  0  0  0
   -2.0794   -0.5349   -0.0093 N   0  0  0  0  0  4  0  0  0  0  0  0
   -1.6223   -1.6906   -0.8405 C   0  0  0  0  0  0  0  0  0  0  0  0
   -1.1172   -1.2129   -2.1884 C   0  0  0  0  0  0  0  0  0  0  0  0
    1.1687    1.5792   -0.3483 S   0  0  0  0  0  0  0  0  0  0  0  0
    2.9443    1.5217   -0.5677 C   0  0  0  0  0  0  0  0  0  0  0  0
    3.6457    2.4669   -1.2895 C   0  0  0  0  0  0  0  0  0  0  0  0
    5.0205    2.3254   -1.4070 C   0  0  0  0  0  0  0  0  0  0  0  0
    5.6586    1.2183   -0.8057 C   0  0  0  0  0  0  0  0  0  0  0  0
    7.3535    0.9019   -0.8813 S   0  0  0  0  0  0  0  0  0  0  0  0
    7.1989   -0.5305    0.0118 C   0  0  0  0  0  0  0  0  0  0  0  0
    5.8938   -0.7700    0.3727 C   0  0  0  0  0  0  0  0  0  0  0  0
    4.9626    0.2413   -0.0703 C   0  0  0  0  0  0  0  0  0  0  0  0
    3.5494    0.4005    0.0783 C   0  0  0  0  0  0  0  0  0  0  0  0
    1.9986   -3.0633    0.5309 H   0  0  0  0  0  0  0  0  0  0  0  0
    3.6650   -2.7734    0.0292 H   0  0  0  0  0  0  0  0  0  0  0  0
    3.3341   -3.6158    1.5544 H   0  0  0  0  0  0  0  0  0  0  0  0
    2.2846   -1.5756    2.4921 H   0  0  0  0  0  0  0  0  0  0  0  0
    3.9424   -1.2838    2.1326 H   0  0  0  0  0  0  0  0  0  0  0  0
    0.2047   -1.4097    1.6510 H   0  0  0  0  0  0  0  0  0  0  0  0
   -0.9534    1.4994    2.4580 H   0  0  0  0  0  0  0  0  0  0  0  0
   -3.2188    2.4006    2.2579 H   0  0  0  0  0  0  0  0  0  0  0  0
   -5.3995    2.3860    1.1898 H   0  0  0  0  0  0  0  0  0  0  0  0
   -8.0731    0.8811   -0.8702 H   0  0  0  0  0  0  0  0  0  0  0  0
   -7.7247    1.9993    0.4479 H   0  0  0  0  0  0  0  0  0  0  0  0
   -7.3347    2.4619   -1.2279 H   0  0  0  0  0  0  0  0  0  0  0  0
   -6.2550   -0.4011   -1.9563 H   0  0  0  0  0  0  0  0  0  0  0  0
   -4.0404   -1.3302   -1.7900 H   0  0  0  0  0  0  0  0  0  0  0  0
   -0.8449   -2.2459   -0.3095 H   0  0  0  0  0  0  0  0  0  0  0  0
   -2.4510   -2.3979   -0.9381 H   0  0  0  0  0  0  0  0  0  0  0  0
   -0.2414   -0.5693   -2.0802 H   0  0  0  0  0  0  0  0  0  0  0  0
   -1.8767   -0.6440   -2.7320 H   0  0  0  0  0  0  0  0  0  0  0  0
   -0.8287   -2.0690   -2.8060 H   0  0  0  0  0  0  0  0  0  0  0  0
    3.1433    3.3085   -1.7567 H   0  0  0  0  0  0  0  0  0  0  0  0
    5.6005    3.0565   -1.9660 H   0  0  0  0  0  0  0  0  0  0  0  0
    8.0683   -1.1364    0.2300 H   0  0  0  0  0  0  0  0  0  0  0  0
    5.6393   -1.6559    0.9342 H   0  0  0  0  0  0  0  0  0  0  0  0
  1  2  1  0
  2  3  1  0
  3  4  1  0
  4  5  2  3
  5  6  1  0
  6  7  2  0
  7  8  1  0
  8  9  2  0
  9 10  1  0
 10 11  2  0
 11 12  1  0
 11 13  1  0
 13 14  2  0
 14 15  1  0
 15 16  2  0
 16 17  1  0
 17 18  1  0
  4 19  1  0
 19 20  1  0
 20 21  2  0
 21 22  1  0
 22 23  2  0
 23 24  1  0
 24 25  1  0
 25 26  2  0
 26 27  1  0
 27 28  2  0
 28  3  1  0
 16  6  1  0
 28 20  1  0
 15  9  1  0
 27 23  1  0
  1 29  1  0
  1 30  1  0
  1 31  1  0
  2 32  1  0
  2 33  1  0
  5 34  1  0
  7 35  1  0
  8 36  1  0
 10 37  1  0
 12 38  1  0
 12 39  1  0
 12 40  1  0
 13 41  1  0
 14 42  1  0
 17 43  1  0
 17 44  1  0
 18 45  1  0
 18 46  1  0
 18 47  1  0
 21 48  1  0
 22 49  1  0
 25 50  1  0
 26 51  1  0
M  CHG  1  16   1
M  END
$$$$
