
     RDKit          3D

 58 61  0  0  0  0  0  0  0  0999 V2000
    1.8377    2.0641   -0.8150 O   0  0  0  0  0  0  0  0  0  0  0  0
    1.8876    1.3669    0.1957 C   0  0  0  0  0  0  0  0  0  0  0  0
    3.0867    0.5377    0.6113 C   0  0  0  0  0  0  0  0  0  0  0  0
    4.2754    0.7358   -0.3301 C   0  0  0  0  0  0  0  0  0  0  0  0
    5.5545    0.0149    0.1352 C   0  0  0  0  0  0  0  0  0  0  0  0
    6.7496    0.4593   -0.7350 C   0  0  0  0  0  0  0  0  0  0  0  0
    7.9089   -0.5400   -0.7588 C   0  0  0  0  0  0  0  0  0  0  0  0
    7.9550   -1.3928    0.4995 C   0  0  0  0  0  0  0  0  0  0  0  0
    6.6711   -2.2022    0.6793 C   0  0  0  0  0  0  0  0  0  0  0  0
    5.4228   -1.5127    0.1188 C   0  0  0  0  0  0  0  0  0  0  0  0
    0.8268    1.2598    1.0796 N   0  0  0  0  0  0  0  0  0  0  0  0
   -0.4188    1.7590    0.6199 N   0  0  0  0  0  0  0  0  0  0  0  0
   -1.4735    0.8647    0.6764 C   0  0  0  0  0  0  0  0  0  0  0  0
   -1.3920   -0.2155    1.2496 O   0  0  0  0  0  0  0  0  0  0  0  0
   -2.5805    1.3530    0.0283 N   0  0  0  0  0  0  0  0  0  0  0  0
   -3.8772    0.6683   -0.0152 C   0  0  0  0  0  0  0  0  0  0  0  0
   -4.8422    1.5142   -0.8896 C   0  0  0  0  0  0  0  0  0  0  0  0
   -6.2301    0.8591   -0.9722 C   0  0  0  0  0  0  0  0  0  0  0  0
   -6.0912   -0.5387   -1.5948 C   0  0  0  0  0  0  0  0  0  0  0  0
   -5.1582   -1.4045   -0.7344 C   0  0  0  0  0  0  0  0  0  0  0  0
   -5.7410   -1.5243    0.6843 C   0  0  0  0  0  0  0  0  0  0  0  0
   -5.8840   -0.1297    1.3175 C   0  0  0  0  0  0  0  0  0  0  0  0
   -6.8121    0.7300    0.4445 C   0  0  0  0  0  0  0  0  0  0  0  0
   -4.4987    0.5359    1.3968 C   0  0  0  0  0  0  0  0  0  0  0  0
   -3.7724   -0.7390   -0.6576 C   0  0  0  0  0  0  0  0  0  0  0  0
    2.7742   -0.5119    0.6202 H   0  0  0  0  0  0  0  0  0  0  0  0
    3.3655    0.8256    1.6320 H   0  0  0  0  0  0  0  0  0  0  0  0
    4.0030    0.3987   -1.3384 H   0  0  0  0  0  0  0  0  0  0  0  0
    4.4853    1.8105   -0.4112 H   0  0  0  0  0  0  0  0  0  0  0  0
    5.7585    0.3262    1.1696 H   0  0  0  0  0  0  0  0  0  0  0  0
    7.1112    1.4246   -0.3565 H   0  0  0  0  0  0  0  0  0  0  0  0
    6.4327    0.6413   -1.7703 H   0  0  0  0  0  0  0  0  0  0  0  0
    7.8030   -1.1957   -1.6330 H   0  0  0  0  0  0  0  0  0  0  0  0
    8.8551   -0.0015   -0.8877 H   0  0  0  0  0  0  0  0  0  0  0  0
    8.1016   -0.7416    1.3709 H   0  0  0  0  0  0  0  0  0  0  0  0
    8.8158   -2.0705    0.4691 H   0  0  0  0  0  0  0  0  0  0  0  0
    6.7777   -3.1809    0.1958 H   0  0  0  0  0  0  0  0  0  0  0  0
    6.5335   -2.4048    1.7486 H   0  0  0  0  0  0  0  0  0  0  0  0
    4.5551   -1.8484    0.6959 H   0  0  0  0  0  0  0  0  0  0  0  0
    5.2574   -1.8502   -0.9127 H   0  0  0  0  0  0  0  0  0  0  0  0
    0.7452    0.4206    1.6562 H   0  0  0  0  0  0  0  0  0  0  0  0
   -0.3349    2.2850   -0.2501 H   0  0  0  0  0  0  0  0  0  0  0  0
   -2.6121    2.3628    0.0036 H   0  0  0  0  0  0  0  0  0  0  0  0
   -4.4277    1.6358   -1.8993 H   0  0  0  0  0  0  0  0  0  0  0  0
   -4.9386    2.5269   -0.4751 H   0  0  0  0  0  0  0  0  0  0  0  0
   -6.8935    1.4745   -1.5900 H   0  0  0  0  0  0  0  0  0  0  0  0
   -5.6940   -0.4577   -2.6142 H   0  0  0  0  0  0  0  0  0  0  0  0
   -7.0768   -1.0138   -1.6737 H   0  0  0  0  0  0  0  0  0  0  0  0
   -5.0640   -2.4012   -1.1802 H   0  0  0  0  0  0  0  0  0  0  0  0
   -5.0907   -2.1528    1.3051 H   0  0  0  0  0  0  0  0  0  0  0  0
   -6.7192   -2.0195    0.6457 H   0  0  0  0  0  0  0  0  0  0  0  0
   -6.3061   -0.2225    2.3244 H   0  0  0  0  0  0  0  0  0  0  0  0
   -6.9335    1.7240    0.8926 H   0  0  0  0  0  0  0  0  0  0  0  0
   -7.8100    0.2768    0.3996 H   0  0  0  0  0  0  0  0  0  0  0  0
   -4.5864    1.5254    1.8645 H   0  0  0  0  0  0  0  0  0  0  0  0
   -3.8513   -0.0575    2.0536 H   0  0  0  0  0  0  0  0  0  0  0  0
   -3.3375   -0.6633   -1.6629 H   0  0  0  0  0  0  0  0  0  0  0  0
   -3.1027   -1.3878   -0.0819 H   0  0  0  0  0  0  0  0  0  0  0  0
  1  2  2  0
  2  3  1  0
  3  4  1  0
  4  5  1  0
  5  6  1  0
  6  7  1  0
  7  8  1  0
  8  9  1  0
  9 10  1  0
  2 11  1  0
 11 12  1  0
 12 13  1  0
 13 14  2  0
 13 15  1  0
 15 16  1  0
 16 17  1  0
 17 18  1  0
 18 19  1  0
 19 20  1  0
 20 21  1  0
 21 22  1  0
 22 23  1  0
 22 24  1  0
 20 25  1  0
 10  5  1  0
 24 16  1  0
 25 16  1  0
 23 18  1  0
  3 26  1  0
  3 27  1  0
  4 28  1  0
  4 29  1  0
  5 30  1  0
  6 31  1  0
  6 32  1  0
  7 33  1  0
  7 34  1  0
  8 35  1  0
  8 36  1  0
  9 37  1  0
  9 38  1  0
 10 39  1  0
 10 40  1  0
 11 41  1  0
 12 42  1  0
 15 43  1  0
 17 44  1  0
 17 45  1  0
 18 46  1  0
 19 47  1  0
 19 48  1  0
 20 49  1  0
 21 50  1  0
 21 51  1  0
 22 52  1  0
 23 53  1  0
 23 54  1  0
 24 55  1  0
 24 56  1  0
 25 57  1  0
 25 58  1  0
M  END
$$$$
