
     RDKit          3D

 52 55  0  0  0  0  0  0  0  0999 V2000
   -2.2890   -0.2881   -1.9992 O   0  0  0  0  0  0  0  0  0  0  0  0
   -1.4754   -0.0480   -1.1070 C   0  0  0  0  0  0  0  0  0  0  0  0
   -1.0559   -1.0334   -0.2299 N   0  0  0  0  0  0  0  0  0  0  0  0
   -1.5862   -2.3764   -0.2627 C   0  0  0  0  0  0  0  0  0  0  0  0
   -0.7349   -3.3593    0.5317 C   0  0  0  0  0  0  0  0  0  0  0  0
   -1.6633   -4.5489    0.7281 C   0  0  0  0  0  0  0  0  0  0  0  0
   -3.0735   -3.9629    0.8024 C   0  0  0  0  0  0  0  0  0  0  0  0
   -2.9492   -2.4906    0.4158 C   0  0  0  0  0  0  0  0  0  0  0  0
   -0.9028    1.3771   -0.8418 C   0  0  0  0  0  0  0  0  0  0  0  0
   -0.5497    2.2315   -2.0585 C   0  0  0  0  0  0  0  0  0  0  0  0
   -0.4657    1.7333   -3.3629 C   0  0  0  0  0  0  0  0  0  0  0  0
   -0.1335    2.6001   -4.3946 C   0  0  0  0  0  0  0  0  0  0  0  0
    0.1218    3.9138   -4.2249 N   0  0  0  0  0  0  0  0  0  0  0  0
    0.0335    4.3849   -2.9651 C   0  0  0  0  0  0  0  0  0  0  0  0
   -0.2950    3.5999   -1.8709 C   0  0  0  0  0  0  0  0  0  0  0  0
    0.1518    1.3712    0.1995 N   0  0  0  0  0  0  0  0  0  0  0  0
   -0.2527    1.7934    1.4799 C   0  0  0  0  0  0  0  0  0  0  0  0
   -1.1065    2.6694    1.6258 O   0  0  0  0  0  0  0  0  0  0  0  0
    0.2806    1.0663    2.6226 C   0  0  0  0  0  0  0  0  0  0  0  0
    0.3042    1.3866    3.9678 C   0  0  0  0  0  0  0  0  0  0  0  0
    0.8876    0.2868    4.6406 C   0  0  0  0  0  0  0  0  0  0  0  0
    1.1668   -0.6485    3.6733 C   0  0  0  0  0  0  0  0  0  0  0  0
    0.7873   -0.1970    2.4513 O   0  0  0  0  0  0  0  0  0  0  0  0
    1.5208    1.0658   -0.1308 C   0  0  0  0  0  0  0  0  0  0  0  0
    2.5743    1.6288    0.6104 C   0  0  0  0  0  0  0  0  0  0  0  0
    3.9106    1.3623    0.2934 C   0  0  0  0  0  0  0  0  0  0  0  0
    4.2211    0.5322   -0.7772 C   0  0  0  0  0  0  0  0  0  0  0  0
    3.1954   -0.0260   -1.5320 C   0  0  0  0  0  0  0  0  0  0  0  0
    1.8587    0.2425   -1.2146 C   0  0  0  0  0  0  0  0  0  0  0  0
   -0.4412   -0.7709    0.5352 H   0  0  0  0  0  0  0  0  0  0  0  0
   -1.6634   -2.7023   -1.3083 H   0  0  0  0  0  0  0  0  0  0  0  0
    0.1873   -3.6318    0.0084 H   0  0  0  0  0  0  0  0  0  0  0  0
   -0.4530   -2.9393    1.5058 H   0  0  0  0  0  0  0  0  0  0  0  0
   -1.4086   -5.1236    1.6234 H   0  0  0  0  0  0  0  0  0  0  0  0
   -1.5912   -5.2260   -0.1312 H   0  0  0  0  0  0  0  0  0  0  0  0
   -3.4959   -4.0637    1.8083 H   0  0  0  0  0  0  0  0  0  0  0  0
   -3.7402   -4.4937    0.1132 H   0  0  0  0  0  0  0  0  0  0  0  0
   -2.9875   -1.8682    1.3192 H   0  0  0  0  0  0  0  0  0  0  0  0
   -3.7671   -2.1661   -0.2359 H   0  0  0  0  0  0  0  0  0  0  0  0
   -1.7890    1.8745   -0.4191 H   0  0  0  0  0  0  0  0  0  0  0  0
   -0.6571    0.6919   -3.6003 H   0  0  0  0  0  0  0  0  0  0  0  0
   -0.0639    2.2446   -5.4192 H   0  0  0  0  0  0  0  0  0  0  0  0
    0.2374    5.4458   -2.8508 H   0  0  0  0  0  0  0  0  0  0  0  0
   -0.3500    4.0521   -0.8846 H   0  0  0  0  0  0  0  0  0  0  0  0
   -0.0638    2.3077    4.3999 H   0  0  0  0  0  0  0  0  0  0  0  0
    1.0726    0.1833    5.7008 H   0  0  0  0  0  0  0  0  0  0  0  0
    1.6056   -1.6368    3.6915 H   0  0  0  0  0  0  0  0  0  0  0  0
    2.3858    2.3183    1.4293 H   0  0  0  0  0  0  0  0  0  0  0  0
    4.7073    1.8166    0.8776 H   0  0  0  0  0  0  0  0  0  0  0  0
    5.2587    0.3278   -1.0284 H   0  0  0  0  0  0  0  0  0  0  0  0
    3.4317   -0.6713   -2.3743 H   0  0  0  0  0  0  0  0  0  0  0  0
    1.1044   -0.2355   -1.8305 H   0  0  0  0  0  0  0  0  0  0  0  0
  1  2  2  0
  2  3  1  0
  3  4  1  0
  4  5  1  0
  5  6  1  0
  6  7  1  0
  7  8  1  0
  2  9  1  0
  9 10  1  0
 10 11  2  0
 11 12  1  0
 12 13  2  0
 13 14  1  0
 14 15  2  0
  9 16  1  0
 16 17  1  0
 17 18  2  0
 17 19  1  0
 19 20  2  0
 20 21  1  0
 21 22  2  0
 22 23  1  0
 16 24  1  0
 24 25  2  0
 25 26  1  0
 26 27  2  0
 27 28  1  0
 28 29  2  0
  8  4  1  0
 15 10  1  0
 23 19  1  0
 29 24  1  0
  3 30  1  0
  4 31  1  0
  5 32  1  0
  5 33  1  0
  6 34  1  0
  6 35  1  0
  7 36  1  0
  7 37  1  0
  8 38  1  0
  8 39  1  0
  9 40  1  0
 11 41  1  0
 12 42  1  0
 14 43  1  0
 15 44  1  0
 20 45  1  0
 21 46  1  0
 22 47  1  0
 25 48  1  0
 26 49  1  0
 27 50  1  0
 28 51  1  0
 29 52  1  0
M  END
$$$$
