
     RDKit          3D

 40 41  0  0  0  0  0  0  0  0999 V2000
   -5.0804    1.8429   -0.2162 C   0  0  0  0  0  0  0  0  0  0  0  0
   -3.7414    1.6576    0.4987 C   0  0  0  0  0  0  0  0  0  0  0  0
   -3.8214    0.5496    1.5641 C   0  0  0  0  0  0  0  0  0  0  0  0
   -3.2146   -0.7641    1.0837 C   0  0  0  0  0  0  0  0  0  0  0  0
   -1.8174   -0.6010    0.6899 N   0  0  0  0  0  0  0  0  0  0  0  0
   -1.0079   -1.7356    0.6860 C   0  0  0  0  0  0  0  0  0  0  0  0
   -1.4233   -2.8691    0.9147 O   0  0  0  0  0  0  0  0  0  0  0  0
    0.4353   -1.5806    0.3987 C   0  0  0  0  0  0  0  0  0  0  0  0
    1.2295   -0.7261    1.1713 C   0  0  0  0  0  0  0  0  0  0  0  0
    2.5910   -0.6031    0.8873 C   0  0  0  0  0  0  0  0  0  0  0  0
    3.1549   -1.3490   -0.1497 C   0  0  0  0  0  0  0  0  0  0  0  0
    4.5329   -1.1848   -0.4786 N   0  0  0  0  0  0  0  0  0  0  0  0
    4.9464    0.1910   -1.3800 S   0  0  0  0  0  6  0  0  0  0  0  0
    5.8726    1.1096   -0.1712 C   0  0  0  0  0  0  0  0  0  0  0  0
    5.8777   -0.2733   -2.3861 O   0  0  0  0  0  0  0  0  0  0  0  0
    3.7640    0.9455   -1.7296 O   0  0  0  0  0  0  0  0  0  0  0  0
    2.3647   -2.2118   -0.9126 C   0  0  0  0  0  0  0  0  0  0  0  0
    1.0035   -2.3393   -0.6292 C   0  0  0  0  0  0  0  0  0  0  0  0
   -1.4308    0.6872    0.1046 C   0  0  0  0  0  0  0  0  0  0  0  0
   -2.6233    1.4005   -0.5250 C   0  0  0  0  0  0  0  0  0  0  0  0
   -5.3880    0.9255   -0.7293 H   0  0  0  0  0  0  0  0  0  0  0  0
   -5.0158    2.6442   -0.9599 H   0  0  0  0  0  0  0  0  0  0  0  0
   -5.8671    2.1117    0.4967 H   0  0  0  0  0  0  0  0  0  0  0  0
   -3.5211    2.5986    1.0204 H   0  0  0  0  0  0  0  0  0  0  0  0
   -4.8545    0.3898    1.8932 H   0  0  0  0  0  0  0  0  0  0  0  0
   -3.2637    0.8822    2.4500 H   0  0  0  0  0  0  0  0  0  0  0  0
   -3.7622   -1.1509    0.2159 H   0  0  0  0  0  0  0  0  0  0  0  0
   -3.2837   -1.5178    1.8764 H   0  0  0  0  0  0  0  0  0  0  0  0
    0.7937   -0.1641    1.9930 H   0  0  0  0  0  0  0  0  0  0  0  0
    3.2029    0.0665    1.4834 H   0  0  0  0  0  0  0  0  0  0  0  0
    4.9678   -2.0005   -0.9161 H   0  0  0  0  0  0  0  0  0  0  0  0
    6.2564    2.0101   -0.6557 H   0  0  0  0  0  0  0  0  0  0  0  0
    5.2117    1.3864    0.6516 H   0  0  0  0  0  0  0  0  0  0  0  0
    6.7041    0.4964    0.1812 H   0  0  0  0  0  0  0  0  0  0  0  0
    2.7923   -2.7830   -1.7318 H   0  0  0  0  0  0  0  0  0  0  0  0
    0.3845   -3.0182   -1.2114 H   0  0  0  0  0  0  0  0  0  0  0  0
   -1.0085    1.2989    0.9100 H   0  0  0  0  0  0  0  0  0  0  0  0
   -0.6563    0.5399   -0.6542 H   0  0  0  0  0  0  0  0  0  0  0  0
   -2.3009    2.3519   -0.9642 H   0  0  0  0  0  0  0  0  0  0  0  0
   -3.0034    0.7865   -1.3523 H   0  0  0  0  0  0  0  0  0  0  0  0
  1  2  1  0
  2  3  1  0
  3  4  1  0
  4  5  1  0
  5  6  1  0
  6  7  2  0
  6  8  1  0
  8  9  2  0
  9 10  1  0
 10 11  2  0
 11 12  1  0
 12 13  1  0
 13 14  1  0
 13 15  2  0
 13 16  2  0
 11 17  1  0
 17 18  2  0
  5 19  1  0
 19 20  1  0
 20  2  1  0
 18  8  1  0
  1 21  1  0
  1 22  1  0
  1 23  1  0
  2 24  1  0
  3 25  1  0
  3 26  1  0
  4 27  1  0
  4 28  1  0
  9 29  1  0
 10 30  1  0
 12 31  1  0
 14 32  1  0
 14 33  1  0
 14 34  1  0
 17 35  1  0
 18 36  1  0
 19 37  1  0
 19 38  1  0
 20 39  1  0
 20 40  1  0
M  END
$$$$
