
     RDKit          3D

 43 45  0  0  0  0  0  0  0  0999 V2000
   -2.9823   -1.4505    2.3241 C   0  0  0  0  0  0  0  0  0  0  0  0
   -4.0703   -0.8954    1.4496 C   0  0  0  0  0  0  0  0  0  0  0  0
   -5.3836   -0.8268    1.9326 C   0  0  0  0  0  0  0  0  0  0  0  0
   -6.4033   -0.3065    1.1363 C   0  0  0  0  0  0  0  0  0  0  0  0
   -6.1243    0.1450   -0.1544 C   0  0  0  0  0  0  0  0  0  0  0  0
   -4.8201    0.0821   -0.6674 C   0  0  0  0  0  0  0  0  0  0  0  0
   -4.5617    0.5661   -2.0667 C   0  0  0  0  0  0  0  0  0  0  0  0
   -3.7951   -0.4012    0.1621 C   0  0  0  0  0  0  0  0  0  0  0  0
   -2.5054   -0.4750   -0.3039 O   0  0  0  0  0  0  0  0  0  0  0  0
   -1.8261    0.7707   -0.1146 C   0  0  0  0  0  0  0  0  0  0  0  0
   -0.3824    0.4717   -0.2390 C   0  0  0  0  0  0  0  0  0  0  0  0
    0.5698   -0.0163    0.6211 C   0  0  0  0  0  0  0  0  0  0  0  0
    1.7606   -0.0840   -0.1513 C   0  0  0  0  0  0  0  0  0  0  0  0
    3.0586   -0.6042    0.3083 C   0  0  0  0  0  0  0  0  0  0  0  0
    3.1237   -1.2661    1.3481 O   0  0  0  0  0  0  0  0  0  0  0  0
    4.2014   -0.3752   -0.4682 N   0  0  0  0  0  0  0  0  0  0  0  0
    5.4157   -1.1070   -0.1237 C   0  0  0  0  0  0  0  0  0  0  0  0
    6.2754   -0.2500    0.7995 C   0  0  0  0  0  0  0  0  0  0  0  0
    6.5429    1.0473    0.2075 N   0  0  0  0  0  0  0  0  0  0  0  0
    5.6219    1.7148   -0.5654 C   0  0  0  0  0  0  0  0  0  0  0  0
    5.8142    2.8958   -0.8534 O   0  0  0  0  0  0  0  0  0  0  0  0
    4.4435    0.9058   -1.1512 C   0  0  0  0  0  0  0  0  0  0  0  0
    1.5221    0.3300   -1.4102 N   0  0  0  0  0  0  0  0  0  0  0  0
    0.1863    0.6846   -1.4536 O   0  0  0  0  0  0  0  0  0  0  0  0
   -2.3295   -2.1230    1.7568 H   0  0  0  0  0  0  0  0  0  0  0  0
   -3.3965   -2.0318    3.1545 H   0  0  0  0  0  0  0  0  0  0  0  0
   -2.3861   -0.6327    2.7414 H   0  0  0  0  0  0  0  0  0  0  0  0
   -5.6223   -1.1861    2.9320 H   0  0  0  0  0  0  0  0  0  0  0  0
   -7.4207   -0.2613    1.5182 H   0  0  0  0  0  0  0  0  0  0  0  0
   -6.9363    0.5339   -0.7680 H   0  0  0  0  0  0  0  0  0  0  0  0
   -5.4253    0.3734   -2.7115 H   0  0  0  0  0  0  0  0  0  0  0  0
   -3.7109    0.0485   -2.5186 H   0  0  0  0  0  0  0  0  0  0  0  0
   -4.3639    1.6426   -2.0599 H   0  0  0  0  0  0  0  0  0  0  0  0
   -2.1351    1.4903   -0.8811 H   0  0  0  0  0  0  0  0  0  0  0  0
   -2.0287    1.1983    0.8767 H   0  0  0  0  0  0  0  0  0  0  0  0
    0.4376   -0.3096    1.6532 H   0  0  0  0  0  0  0  0  0  0  0  0
    5.1756   -2.0663    0.3500 H   0  0  0  0  0  0  0  0  0  0  0  0
    5.9475   -1.3198   -1.0598 H   0  0  0  0  0  0  0  0  0  0  0  0
    5.7661   -0.0681    1.7519 H   0  0  0  0  0  0  0  0  0  0  0  0
    7.2358   -0.7322    1.0034 H   0  0  0  0  0  0  0  0  0  0  0  0
    7.2622    1.6397    0.6069 H   0  0  0  0  0  0  0  0  0  0  0  0
    3.5739    1.5645   -1.0914 H   0  0  0  0  0  0  0  0  0  0  0  0
    4.6750    0.6843   -2.1979 H   0  0  0  0  0  0  0  0  0  0  0  0
  1  2  1  0
  2  3  2  0
  3  4  1  0
  4  5  2  0
  5  6  1  0
  6  7  1  0
  6  8  2  0
  8  9  1  0
  9 10  1  0
 10 11  1  0
 11 12  2  0
 12 13  1  0
 13 14  1  0
 14 15  2  0
 14 16  1  0
 16 17  1  0
 17 18  1  0
 18 19  1  0
 19 20  1  0
 20 21  2  0
 20 22  1  0
 13 23  2  0
 23 24  1  0
  8  2  1  0
 24 11  1  0
 22 16  1  0
  1 25  1  0
  1 26  1  0
  1 27  1  0
  3 28  1  0
  4 29  1  0
  5 30  1  0
  7 31  1  0
  7 32  1  0
  7 33  1  0
 10 34  1  0
 10 35  1  0
 12 36  1  0
 17 37  1  0
 17 38  1  0
 18 39  1  0
 18 40  1  0
 19 41  1  0
 22 42  1  0
 22 43  1  0
M  END
$$$$
