
     RDKit          3D

 49 52  0  0  0  0  0  0  0  0999 V2000
   -7.5845   -1.1838   -0.8299 C   0  0  0  0  0  0  0  0  0  0  0  0
   -6.4755   -0.3524   -0.2536 C   0  0  0  0  0  0  0  0  0  0  0  0
   -6.6262    1.0352   -0.1223 C   0  0  0  0  0  0  0  0  0  0  0  0
   -5.6114    1.8079    0.4444 C   0  0  0  0  0  0  0  0  0  0  0  0
   -4.4417    1.1855    0.8841 C   0  0  0  0  0  0  0  0  0  0  0  0
   -3.1381    2.1465    1.5974 S   0  0  0  0  0  6  0  0  0  0  0  0
   -3.4876    3.5525    1.5428 O   0  0  0  0  0  0  0  0  0  0  0  0
   -2.7357    1.5035    2.8328 O   0  0  0  0  0  0  0  0  0  0  0  0
   -1.8027    1.9715    0.5003 C   0  0  0  0  0  0  0  0  0  0  0  0
   -0.6772    1.2220    0.8445 N   0  0  0  0  0  0  0  0  0  0  0  0
    0.1967    1.2096   -0.1366 C   0  0  0  0  0  0  0  0  0  0  0  0
    1.3934    0.5943   -0.1568 N   0  0  0  0  0  0  0  0  0  0  0  0
    2.0176   -0.2339    0.8034 C   0  0  0  0  0  0  0  0  0  0  0  0
    1.4836   -0.5269    2.0617 C   0  0  0  0  0  0  0  0  0  0  0  0
    2.1650   -1.3663    2.9464 C   0  0  0  0  0  0  0  0  0  0  0  0
    3.3902   -1.9198    2.5861 C   0  0  0  0  0  0  0  0  0  0  0  0
    3.9454   -1.6328    1.3393 C   0  0  0  0  0  0  0  0  0  0  0  0
    3.2753   -0.7922    0.4386 C   0  0  0  0  0  0  0  0  0  0  0  0
    3.8119   -0.4441   -0.8316 N   0  0  0  0  0  0  0  0  0  0  0  0
    4.8675    0.5916   -0.6963 C   0  0  0  0  0  0  0  0  0  0  0  0
    5.6276    0.7232   -2.0247 C   0  0  0  0  0  0  0  0  0  0  0  0
    6.3118   -0.4782   -2.4163 O   0  0  0  0  0  0  0  0  0  0  0  0
    5.7411   -1.6696   -1.8541 C   0  0  0  0  0  0  0  0  0  0  0  0
    4.2165   -1.5957   -1.6762 C   0  0  0  0  0  0  0  0  0  0  0  0
   -0.3057    2.0892   -1.5404 S   0  0  0  0  0  0  0  0  0  0  0  0
   -1.7627    2.4917   -0.7684 C   0  0  0  0  0  0  0  0  0  0  0  0
   -2.9231    3.4157   -1.6301 Cl  0  0  0  0  0  0  0  0  0  0  0  0
   -4.2863   -0.2001    0.7839 C   0  0  0  0  0  0  0  0  0  0  0  0
   -5.3057   -0.9652    0.2169 C   0  0  0  0  0  0  0  0  0  0  0  0
   -7.1834   -2.0556   -1.3579 H   0  0  0  0  0  0  0  0  0  0  0  0
   -8.2484   -1.5270   -0.0306 H   0  0  0  0  0  0  0  0  0  0  0  0
   -8.1705   -0.6075   -1.5536 H   0  0  0  0  0  0  0  0  0  0  0  0
   -7.5393    1.5225   -0.4600 H   0  0  0  0  0  0  0  0  0  0  0  0
   -5.7444    2.8840    0.5371 H   0  0  0  0  0  0  0  0  0  0  0  0
    1.9609    0.6171   -1.0028 H   0  0  0  0  0  0  0  0  0  0  0  0
    0.5330   -0.1107    2.3811 H   0  0  0  0  0  0  0  0  0  0  0  0
    1.7338   -1.5822    3.9211 H   0  0  0  0  0  0  0  0  0  0  0  0
    3.9168   -2.5692    3.2804 H   0  0  0  0  0  0  0  0  0  0  0  0
    4.9100   -2.0605    1.0877 H   0  0  0  0  0  0  0  0  0  0  0  0
    5.5795    0.3270    0.0960 H   0  0  0  0  0  0  0  0  0  0  0  0
    4.4072    1.5529   -0.4407 H   0  0  0  0  0  0  0  0  0  0  0  0
    6.3763    1.5186   -1.9555 H   0  0  0  0  0  0  0  0  0  0  0  0
    4.9384    0.9894   -2.8346 H   0  0  0  0  0  0  0  0  0  0  0  0
    5.9994   -2.4999   -2.5194 H   0  0  0  0  0  0  0  0  0  0  0  0
    6.2382   -1.8576   -0.8963 H   0  0  0  0  0  0  0  0  0  0  0  0
    3.7587   -1.4372   -2.6604 H   0  0  0  0  0  0  0  0  0  0  0  0
    3.8270   -2.5482   -1.2980 H   0  0  0  0  0  0  0  0  0  0  0  0
   -3.3868   -0.6899    1.1532 H   0  0  0  0  0  0  0  0  0  0  0  0
   -5.1862   -2.0447    0.1480 H   0  0  0  0  0  0  0  0  0  0  0  0
  1  2  1  0
  2  3  2  0
  3  4  1  0
  4  5  2  0
  5  6  1  0
  6  7  2  0
  6  8  2  0
  6  9  1  0
  9 10  1  0
 10 11  2  0
 11 12  1  0
 12 13  1  0
 13 14  2  0
 14 15  1  0
 15 16  2  0
 16 17  1  0
 17 18  2  0
 18 19  1  0
 19 20  1  0
 20 21  1  0
 21 22  1  0
 22 23  1  0
 23 24  1  0
 11 25  1  0
 25 26  1  0
 26 27  1  0
  5 28  1  0
 28 29  2  0
 29  2  1  0
 26  9  2  0
 18 13  1  0
 24 19  1  0
  1 30  1  0
  1 31  1  0
  1 32  1  0
  3 33  1  0
  4 34  1  0
 12 35  1  0
 14 36  1  0
 15 37  1  0
 16 38  1  0
 17 39  1  0
 20 40  1  0
 20 41  1  0
 21 42  1  0
 21 43  1  0
 23 44  1  0
 23 45  1  0
 24 46  1  0
 24 47  1  0
 28 48  1  0
 29 49  1  0
M  END
$$$$
