
     RDKit          3D

 93 99  0  0  0  0  0  0  0  0999 V2000
   -4.4283    1.2455   -1.2535 C   0  0  0  0  0  0  0  0  0  0  0  0
   -3.2833    1.0771   -2.2468 C   0  0  0  0  0  0  0  0  0  0  0  0
   -2.0189    0.5396   -1.5904 C   0  0  0  0  0  0  0  0  0  0  0  0
   -1.1248    1.4041   -1.0640 C   0  0  0  0  0  0  0  0  0  0  0  0
   -1.3491    2.7913   -1.1080 O   0  0  0  0  0  0  0  0  0  0  0  0
   -0.8005    3.4088   -2.2093 C   0  0  0  0  0  0  0  0  0  0  0  0
   -0.1374    2.8301   -3.0672 O   0  0  0  0  0  0  0  0  0  0  0  0
   -1.1030    4.7667   -2.2656 N   0  0  0  0  0  0  0  0  0  0  0  0
   -0.5446    5.5725   -3.3460 C   0  0  0  0  0  0  0  0  0  0  0  0
   -1.4800    5.6326   -4.5446 C   0  0  0  0  0  0  0  0  0  0  0  0
   -1.9428    5.4312   -1.2718 C   0  0  0  0  0  0  0  0  0  0  0  0
   -1.1276    5.9893   -0.1174 C   0  0  0  0  0  0  0  0  0  0  0  0
    0.0118    0.9792   -0.4179 N   0  0  0  0  0  0  0  0  0  0  0  0
    1.0370    1.7947   -0.0042 C   0  0  0  0  0  0  0  0  0  0  0  0
    1.0455    3.0034    0.1514 O   0  0  0  0  0  0  0  0  0  0  0  0
    2.1335    1.0244    0.1446 O   0  0  0  0  0  0  0  0  0  0  0  0
    1.7988   -0.2348   -0.2254 C   0  0  0  0  0  0  0  0  0  0  0  0
    2.6686   -1.1297   -0.5499 N   0  0  0  0  0  0  0  0  0  0  0  0
    4.0894   -0.7358   -0.4741 C   0  0  0  0  0  0  0  0  0  0  0  0
    4.7608   -1.3751    0.7488 C   0  0  0  0  0  0  0  0  0  0  0  0
    4.1224   -0.9964    2.0516 C   0  0  0  0  0  0  0  0  0  0  0  0
    3.3295   -1.8164    2.8323 C   0  0  0  0  0  0  0  0  0  0  0  0
    2.9164   -1.1058    3.9253 N   0  0  0  0  0  0  0  0  0  0  0  0
    3.4210    0.1727    3.8778 C   0  0  0  0  0  0  0  0  0  0  0  0
    3.2510    1.2412    4.7664 C   0  0  0  0  0  0  0  0  0  0  0  0
    3.8885    2.4470    4.4607 C   0  0  0  0  0  0  0  0  0  0  0  0
    4.6680    2.5735    3.3140 C   0  0  0  0  0  0  0  0  0  0  0  0
    4.8288    1.4948    2.4363 C   0  0  0  0  0  0  0  0  0  0  0  0
    4.1924    0.2688    2.7190 C   0  0  0  0  0  0  0  0  0  0  0  0
    0.2892   -0.4338   -0.1539 C   0  0  0  0  0  0  0  0  0  0  0  0
   -0.0279   -0.8185    1.3247 C   0  0  0  0  0  0  0  0  0  0  0  0
   -1.4734   -0.7436    1.7613 C   0  0  0  0  0  0  0  0  0  0  0  0
   -2.0479    0.4814    2.1302 C   0  0  0  0  0  0  0  0  0  0  0  0
   -3.3872    0.5503    2.5169 C   0  0  0  0  0  0  0  0  0  0  0  0
   -4.1642   -0.6056    2.5491 C   0  0  0  0  0  0  0  0  0  0  0  0
   -3.5996   -1.8323    2.2075 C   0  0  0  0  0  0  0  0  0  0  0  0
   -2.2596   -1.9020    1.8229 C   0  0  0  0  0  0  0  0  0  0  0  0
   -0.3010   -1.3694   -1.2463 C   0  0  0  0  0  0  0  0  0  0  0  0
   -1.7651   -0.9173   -1.5805 C   0  0  0  0  0  0  0  0  0  0  0  0
   -2.7590   -1.7955   -1.8436 C   0  0  0  0  0  0  0  0  0  0  0  0
   -2.6501   -3.2863   -1.8324 C   0  0  0  0  0  0  0  0  0  0  0  0
   -1.3643   -3.7519   -1.2631 C   0  0  0  0  0  0  0  0  0  0  0  0
   -0.2465   -2.8889   -0.9743 C   0  0  0  0  0  0  0  0  0  0  0  0
    0.7486   -3.7316   -0.4923 C   0  0  0  0  0  0  0  0  0  0  0  0
    2.0058   -3.5407   -0.1201 O   0  0  0  0  0  0  0  0  0  0  0  0
    0.2440   -5.0099   -0.4168 N   0  0  0  0  0  0  0  0  0  0  0  0
    0.9699   -6.1672    0.0848 C   0  0  0  0  0  0  0  0  0  0  0  0
    1.7507   -6.8774   -1.0081 C   0  0  0  0  0  0  0  0  0  0  0  0
   -1.0310   -5.0415   -0.9081 C   0  0  0  0  0  0  0  0  0  0  0  0
   -1.7087   -6.1822   -0.9770 O   0  0  0  0  0  0  0  0  0  0  0  0
   -5.3275    1.5829   -1.7780 H   0  0  0  0  0  0  0  0  0  0  0  0
   -4.6701    0.3093   -0.7400 H   0  0  0  0  0  0  0  0  0  0  0  0
   -4.1802    1.9946   -0.4937 H   0  0  0  0  0  0  0  0  0  0  0  0
   -3.5954    0.4421   -3.0842 H   0  0  0  0  0  0  0  0  0  0  0  0
   -3.0963    2.0503   -2.7168 H   0  0  0  0  0  0  0  0  0  0  0  0
    0.4147    5.1441   -3.6608 H   0  0  0  0  0  0  0  0  0  0  0  0
   -0.3404    6.5811   -2.9691 H   0  0  0  0  0  0  0  0  0  0  0  0
   -1.6637    4.6320   -4.9492 H   0  0  0  0  0  0  0  0  0  0  0  0
   -2.4480    6.0647   -4.2695 H   0  0  0  0  0  0  0  0  0  0  0  0
   -1.0429    6.2477   -5.3383 H   0  0  0  0  0  0  0  0  0  0  0  0
   -2.6848    4.7255   -0.8822 H   0  0  0  0  0  0  0  0  0  0  0  0
   -2.5016    6.2344   -1.7638 H   0  0  0  0  0  0  0  0  0  0  0  0
   -0.5827    5.1959    0.4033 H   0  0  0  0  0  0  0  0  0  0  0  0
   -0.3950    6.7236   -0.4679 H   0  0  0  0  0  0  0  0  0  0  0  0
   -1.7833    6.4821    0.6063 H   0  0  0  0  0  0  0  0  0  0  0  0
    4.2449    0.3478   -0.4775 H   0  0  0  0  0  0  0  0  0  0  0  0
    4.5852   -1.1059   -1.3790 H   0  0  0  0  0  0  0  0  0  0  0  0
    4.7374   -2.4673    0.6418 H   0  0  0  0  0  0  0  0  0  0  0  0
    5.8190   -1.0887    0.7690 H   0  0  0  0  0  0  0  0  0  0  0  0
    3.0172   -2.8440    2.6902 H   0  0  0  0  0  0  0  0  0  0  0  0
    2.3194   -1.4613    4.6598 H   0  0  0  0  0  0  0  0  0  0  0  0
    2.6454    1.1453    5.6609 H   0  0  0  0  0  0  0  0  0  0  0  0
    3.7733    3.2981    5.1281 H   0  0  0  0  0  0  0  0  0  0  0  0
    5.1525    3.5212    3.0918 H   0  0  0  0  0  0  0  0  0  0  0  0
    5.4337    1.6110    1.5428 H   0  0  0  0  0  0  0  0  0  0  0  0
    0.3591   -1.8213    1.5435 H   0  0  0  0  0  0  0  0  0  0  0  0
    0.5402   -0.1728    2.0121 H   0  0  0  0  0  0  0  0  0  0  0  0
   -1.4586    1.3963    2.1135 H   0  0  0  0  0  0  0  0  0  0  0  0
   -3.8233    1.5067    2.7931 H   0  0  0  0  0  0  0  0  0  0  0  0
   -5.2068   -0.5519    2.8512 H   0  0  0  0  0  0  0  0  0  0  0  0
   -4.2006   -2.7376    2.2407 H   0  0  0  0  0  0  0  0  0  0  0  0
   -1.8358   -2.8714    1.5681 H   0  0  0  0  0  0  0  0  0  0  0  0
    0.2732   -1.2200   -2.1743 H   0  0  0  0  0  0  0  0  0  0  0  0
   -3.7666   -1.4594   -2.0629 H   0  0  0  0  0  0  0  0  0  0  0  0
   -3.4769   -3.6919   -1.2337 H   0  0  0  0  0  0  0  0  0  0  0  0
   -2.7637   -3.6650   -2.8544 H   0  0  0  0  0  0  0  0  0  0  0  0
    2.2916   -2.6483   -0.4100 H   0  0  0  0  0  0  0  0  0  0  0  0
    0.2451   -6.8489    0.5447 H   0  0  0  0  0  0  0  0  0  0  0  0
    1.6398   -5.8282    0.8835 H   0  0  0  0  0  0  0  0  0  0  0  0
    1.0857   -7.2303   -1.8041 H   0  0  0  0  0  0  0  0  0  0  0  0
    2.2770   -7.7440   -0.5960 H   0  0  0  0  0  0  0  0  0  0  0  0
    2.4924   -6.2117   -1.4616 H   0  0  0  0  0  0  0  0  0  0  0  0
   -2.5484   -5.9977   -1.4305 H   0  0  0  0  0  0  0  0  0  0  0  0
  1  2  1  0
  2  3  1  0
  3  4  2  0
  4  5  1  0
  5  6  1  0
  6  7  2  0
  6  8  1  0
  8  9  1  0
  9 10  1  0
  8 11  1  0
 11 12  1  0
  4 13  1  0
 13 14  1  0
 14 15  2  0
 14 16  1  0
 16 17  1  0
 17 18  2  3
 18 19  1  0
 19 20  1  0
 20 21  1  0
 21 22  2  0
 22 23  1  0
 23 24  1  0
 24 25  2  0
 25 26  1  0
 26 27  2  0
 27 28  1  0
 28 29  2  0
 17 30  1  0
 30 31  1  0
 31 32  1  0
 32 33  2  0
 33 34  1  0
 34 35  2  0
 35 36  1  0
 36 37  2  0
 30 38  1  0
 38 39  1  0
 39 40  2  0
 40 41  1  0
 41 42  1  0
 42 43  1  0
 43 44  2  0
 44 45  1  0
 44 46  1  0
 46 47  1  0
 47 48  1  0
 46 49  1  0
 49 50  1  0
 39  3  1  0
 49 42  2  0
 30 13  1  0
 37 32  1  0
 43 38  1  0
 29 21  1  0
 29 24  1  0
  1 51  1  0
  1 52  1  0
  1 53  1  0
  2 54  1  0
  2 55  1  0
  9 56  1  0
  9 57  1  0
 10 58  1  0
 10 59  1  0
 10 60  1  0
 11 61  1  0
 11 62  1  0
 12 63  1  0
 12 64  1  0
 12 65  1  0
 19 66  1  0
 19 67  1  0
 20 68  1  0
 20 69  1  0
 22 70  1  0
 23 71  1  0
 25 72  1  0
 26 73  1  0
 27 74  1  0
 28 75  1  0
 31 76  1  0
 31 77  1  0
 33 78  1  0
 34 79  1  0
 35 80  1  0
 36 81  1  0
 37 82  1  0
 38 83  1  0
 40 84  1  0
 41 85  1  0
 41 86  1  0
 45 87  1  0
 47 88  1  0
 47 89  1  0
 48 90  1  0
 48 91  1  0
 48 92  1  0
 50 93  1  0
M  END
$$$$
