
     RDKit          3D

 38 40  0  0  0  0  0  0  0  0999 V2000
    3.4956   -3.2096    0.1298 N   0  0  0  0  0  0  0  0  0  0  0  0
    3.2260   -2.1059   -0.1086 C   0  0  0  0  0  0  0  0  0  0  0  0
    2.8329   -0.7744   -0.4032 C   0  0  0  0  0  0  0  0  0  0  0  0
    3.6964    0.2303   -0.6529 C   0  0  0  0  0  0  0  0  0  0  0  0
    5.1191    0.1073   -0.6803 C   0  0  0  0  0  0  0  0  0  0  0  0
    5.9511   -0.9086   -1.1292 C   0  0  0  0  0  0  0  0  0  0  0  0
    7.3394   -0.6102   -0.9704 C   0  0  0  0  0  0  0  0  0  0  0  0
    7.5179    0.6313   -0.4226 C   0  0  0  0  0  0  0  0  0  0  0  0
    9.2350    1.3873   -0.0606 Br  0  0  0  0  0  0  0  0  0  0  0  0
    6.0667    1.4372   -0.1068 S   0  0  0  0  0  0  0  0  0  0  0  0
    1.3732   -0.4217   -0.4141 C   0  0  0  0  0  0  0  0  0  0  0  0
    0.9888    0.7167   -0.6709 O   0  0  0  0  0  0  0  0  0  0  0  0
    0.4933   -1.4402   -0.1175 N   0  0  0  0  0  0  0  0  0  0  0  0
   -0.9430   -1.2105   -0.0790 C   0  0  0  0  0  0  0  0  0  0  0  0
   -1.3931   -0.5528    1.2283 C   0  0  0  0  0  0  0  0  0  0  0  0
   -2.8723   -0.3418    1.2740 C   0  0  0  0  0  0  0  0  0  0  0  0
   -3.7981   -1.1280    1.9315 C   0  0  0  0  0  0  0  0  0  0  0  0
   -5.0409   -0.5916    1.7252 N   0  0  0  0  0  0  0  0  0  0  0  0
   -4.9505    0.5330    0.9395 C   0  0  0  0  0  0  0  0  0  0  0  0
   -5.9527    1.3940    0.4762 C   0  0  0  0  0  0  0  0  0  0  0  0
   -5.5606    2.4775   -0.3155 C   0  0  0  0  0  0  0  0  0  0  0  0
   -4.2203    2.6890   -0.6295 C   0  0  0  0  0  0  0  0  0  0  0  0
   -3.2311    1.8186   -0.1576 C   0  0  0  0  0  0  0  0  0  0  0  0
   -3.6003    0.7177    0.6427 C   0  0  0  0  0  0  0  0  0  0  0  0
    3.3018    1.2334   -0.8211 H   0  0  0  0  0  0  0  0  0  0  0  0
    5.5977   -1.8362   -1.5648 H   0  0  0  0  0  0  0  0  0  0  0  0
    8.1465   -1.2755   -1.2519 H   0  0  0  0  0  0  0  0  0  0  0  0
    0.8138   -2.3686    0.1318 H   0  0  0  0  0  0  0  0  0  0  0  0
   -1.4256   -2.1864   -0.2044 H   0  0  0  0  0  0  0  0  0  0  0  0
   -1.2198   -0.5918   -0.9406 H   0  0  0  0  0  0  0  0  0  0  0  0
   -0.8845    0.4096    1.3645 H   0  0  0  0  0  0  0  0  0  0  0  0
   -1.0832   -1.1781    2.0757 H   0  0  0  0  0  0  0  0  0  0  0  0
   -3.6784   -2.0206    2.5312 H   0  0  0  0  0  0  0  0  0  0  0  0
   -5.9051   -0.9621    2.0952 H   0  0  0  0  0  0  0  0  0  0  0  0
   -6.9976    1.2335    0.7200 H   0  0  0  0  0  0  0  0  0  0  0  0
   -6.3144    3.1664   -0.6902 H   0  0  0  0  0  0  0  0  0  0  0  0
   -3.9358    3.5380   -1.2460 H   0  0  0  0  0  0  0  0  0  0  0  0
   -2.1879    1.9939   -0.4075 H   0  0  0  0  0  0  0  0  0  0  0  0
  1  2  3  0
  2  3  1  0
  3  4  2  3
  4  5  1  0
  5  6  2  0
  6  7  1  0
  7  8  2  0
  8  9  1  0
  8 10  1  0
  3 11  1  0
 11 12  2  0
 11 13  1  0
 13 14  1  0
 14 15  1  0
 15 16  1  0
 16 17  2  0
 17 18  1  0
 18 19  1  0
 19 20  2  0
 20 21  1  0
 21 22  2  0
 22 23  1  0
 23 24  2  0
 10  5  1  0
 24 16  1  0
 24 19  1  0
  4 25  1  0
  6 26  1  0
  7 27  1  0
 13 28  1  0
 14 29  1  0
 14 30  1  0
 15 31  1  0
 15 32  1  0
 17 33  1  0
 18 34  1  0
 20 35  1  0
 21 36  1  0
 22 37  1  0
 23 38  1  0
M  END
$$$$
