
     RDKit          3D

 41 41  0  0  0  0  0  0  0  0999 V2000
    4.3168   -1.5594    1.9370 C   0  0  0  0  0  0  0  0  0  0  0  0
    2.9029   -2.0645    1.6942 C   0  0  0  0  0  0  0  0  0  0  0  0
    1.8514   -0.9521    1.6576 C   0  0  0  0  0  0  0  0  0  0  0  0
    2.0020   -0.0171    0.4554 C   0  0  0  0  0  0  0  0  0  0  0  0
    0.9828    1.1307    0.4332 C   0  0  0  0  0  0  0  0  0  0  0  0
   -0.5124    0.7260    0.4612 C   0  0  0  0  0  0  0  0  0  0  0  0
   -1.3970    1.9817    0.5176 C   0  0  0  0  0  0  0  0  0  0  0  0
   -1.3981    2.7462   -0.7954 C   0  0  0  0  0  0  0  0  0  0  0  0
   -1.4970    4.0388   -0.7207 N   0  0  0  0  0  0  0  0  0  0  0  0
   -1.4945    4.6439   -1.9826 O   0  0  0  0  0  0  0  0  0  0  0  0
   -1.3183    1.9457   -2.0523 C   0  0  0  0  0  0  0  0  0  0  0  0
   -1.1234    0.6157   -2.0190 C   0  0  0  0  0  0  0  0  0  0  0  0
   -1.0706   -0.1873   -3.2900 C   0  0  0  0  0  0  0  0  0  0  0  0
   -0.9335   -0.1663   -0.7297 C   0  0  0  0  0  0  0  0  0  0  0  0
   -2.2114   -0.9368   -0.3691 C   0  0  0  0  0  0  0  0  0  0  0  0
   -3.3432   -0.6626   -0.7443 O   0  0  0  0  0  0  0  0  0  0  0  0
   -1.9001   -1.9774    0.4601 O   0  0  0  0  0  0  0  0  0  0  0  0
   -3.0289   -2.7511    0.8687 C   0  0  0  0  0  0  0  0  0  0  0  0
    4.3663   -0.9502    2.8450 H   0  0  0  0  0  0  0  0  0  0  0  0
    5.0014   -2.4051    2.0590 H   0  0  0  0  0  0  0  0  0  0  0  0
    4.6798   -0.9604    1.0970 H   0  0  0  0  0  0  0  0  0  0  0  0
    2.6415   -2.7607    2.5002 H   0  0  0  0  0  0  0  0  0  0  0  0
    2.8741   -2.6370    0.7598 H   0  0  0  0  0  0  0  0  0  0  0  0
    0.8669   -1.4320    1.6265 H   0  0  0  0  0  0  0  0  0  0  0  0
    1.8954   -0.3727    2.5876 H   0  0  0  0  0  0  0  0  0  0  0  0
    2.9997    0.4372    0.4674 H   0  0  0  0  0  0  0  0  0  0  0  0
    1.9442   -0.5935   -0.4742 H   0  0  0  0  0  0  0  0  0  0  0  0
    1.1832    1.7760    1.2989 H   0  0  0  0  0  0  0  0  0  0  0  0
    1.1916    1.7436   -0.4521 H   0  0  0  0  0  0  0  0  0  0  0  0
   -0.6871    0.1858    1.4002 H   0  0  0  0  0  0  0  0  0  0  0  0
   -1.0599    2.6454    1.3230 H   0  0  0  0  0  0  0  0  0  0  0  0
   -2.4362    1.7118    0.7419 H   0  0  0  0  0  0  0  0  0  0  0  0
   -1.5952    5.5878   -1.7592 H   0  0  0  0  0  0  0  0  0  0  0  0
   -1.4393    2.4835   -2.9855 H   0  0  0  0  0  0  0  0  0  0  0  0
   -0.0983   -0.6814   -3.3854 H   0  0  0  0  0  0  0  0  0  0  0  0
   -1.2142    0.4369   -4.1785 H   0  0  0  0  0  0  0  0  0  0  0  0
   -1.8522   -0.9535   -3.2942 H   0  0  0  0  0  0  0  0  0  0  0  0
   -0.1665   -0.9272   -0.9155 H   0  0  0  0  0  0  0  0  0  0  0  0
   -3.5261   -3.1940    0.0000 H   0  0  0  0  0  0  0  0  0  0  0  0
   -2.6700   -3.5598    1.5115 H   0  0  0  0  0  0  0  0  0  0  0  0
   -3.7264   -2.1346    1.4446 H   0  0  0  0  0  0  0  0  0  0  0  0
  1  2  1  0
  2  3  1  0
  3  4  1  0
  4  5  1  0
  5  6  1  0
  6  7  1  0
  7  8  1  0
  8  9  2  3
  9 10  1  0
  8 11  1  0
 11 12  2  0
 12 13  1  0
 12 14  1  0
 14 15  1  0
 15 16  2  0
 15 17  1  0
 17 18  1  0
 14  6  1  0
  1 19  1  0
  1 20  1  0
  1 21  1  0
  2 22  1  0
  2 23  1  0
  3 24  1  0
  3 25  1  0
  4 26  1  0
  4 27  1  0
  5 28  1  0
  5 29  1  0
  6 30  1  0
  7 31  1  0
  7 32  1  0
 10 33  1  0
 11 34  1  0
 13 35  1  0
 13 36  1  0
 13 37  1  0
 14 38  1  0
 18 39  1  0
 18 40  1  0
 18 41  1  0
M  END
$$$$
