
     RDKit          3D

 40 43  0  0  0  0  0  0  0  0999 V2000
   -3.4260    3.4994   -2.3151 O   0  0  0  0  0  0  0  0  0  0  0  0
   -3.9870    2.4690   -1.9734 C   0  0  0  0  0  0  0  0  0  0  0  0
   -5.3356    2.2852   -1.8158 N   0  0  0  0  0  0  0  0  0  0  0  0
   -5.4682    1.0344   -1.5374 C   0  0  0  0  0  0  0  0  0  0  0  0
   -6.7306    0.3153   -1.2813 C   0  0  0  0  0  0  0  0  0  0  0  0
   -6.6783   -1.0021   -1.0289 C   0  0  0  0  0  0  0  0  0  0  0  0
   -5.4322   -1.7451   -1.0035 C   0  0  0  0  0  0  0  0  0  0  0  0
   -4.2481   -1.1469   -1.2163 C   0  0  0  0  0  0  0  0  0  0  0  0
   -4.2120    0.2673   -1.4739 C   0  0  0  0  0  0  0  0  0  0  0  0
   -3.2700    1.1886   -1.7106 C   0  0  0  0  0  0  0  0  0  0  0  0
   -1.8551    1.0476   -1.7662 C   0  0  0  0  0  0  0  0  0  0  0  0
   -1.0151   -0.1183   -0.7902 S   0  0  0  0  0  0  0  0  0  0  0  0
    0.4690    0.3824   -1.4372 C   0  0  0  0  0  0  0  0  0  0  0  0
    1.7712   -0.2179   -1.1833 N   0  0  0  0  0  0  0  0  0  0  0  0
    2.2607   -0.0425    0.4325 S   0  0  0  0  0  6  0  0  0  0  0  0
    2.5981    1.3540    0.6090 O   0  0  0  0  0  0  0  0  0  0  0  0
    1.3012   -0.7170    1.2826 O   0  0  0  0  0  0  0  0  0  0  0  0
    3.7713   -1.0125    0.3900 C   0  0  0  0  0  0  0  0  0  0  0  0
    4.4375   -0.9720    1.7393 C   0  0  0  0  0  0  0  0  0  0  0  0
    5.4212   -0.0127    2.0201 C   0  0  0  0  0  0  0  0  0  0  0  0
    6.0448    0.0169    3.2684 C   0  0  0  0  0  0  0  0  0  0  0  0
    5.6902   -0.9068    4.2487 C   0  0  0  0  0  0  0  0  0  0  0  0
    4.7052   -1.8571    3.9856 C   0  0  0  0  0  0  0  0  0  0  0  0
    4.0813   -1.8907    2.7379 C   0  0  0  0  0  0  0  0  0  0  0  0
    0.4173    1.3138   -2.3473 N   0  0  0  0  0  0  0  0  0  0  0  0
   -0.8822    1.7432   -2.4897 C   0  0  0  0  0  0  0  0  0  0  0  0
   -1.1492    2.7604   -3.3307 O   0  0  0  0  0  0  0  0  0  0  0  0
   -7.6548    0.8780   -1.3078 H   0  0  0  0  0  0  0  0  0  0  0  0
   -7.5929   -1.5573   -0.8369 H   0  0  0  0  0  0  0  0  0  0  0  0
   -5.4871   -2.8127   -0.8080 H   0  0  0  0  0  0  0  0  0  0  0  0
   -3.3373   -1.7332   -1.2050 H   0  0  0  0  0  0  0  0  0  0  0  0
    2.4128    0.2952   -1.7917 H   0  0  0  0  0  0  0  0  0  0  0  0
    4.4243   -0.5915   -0.3821 H   0  0  0  0  0  0  0  0  0  0  0  0
    3.5108   -2.0391    0.1140 H   0  0  0  0  0  0  0  0  0  0  0  0
    5.7070    0.7256    1.2730 H   0  0  0  0  0  0  0  0  0  0  0  0
    6.8066    0.7648    3.4778 H   0  0  0  0  0  0  0  0  0  0  0  0
    6.1747   -0.8802    5.2215 H   0  0  0  0  0  0  0  0  0  0  0  0
    4.4196   -2.5708    4.7546 H   0  0  0  0  0  0  0  0  0  0  0  0
    3.3067   -2.6347    2.5565 H   0  0  0  0  0  0  0  0  0  0  0  0
   -1.9699    3.2338   -3.0792 H   0  0  0  0  0  0  0  0  0  0  0  0
  1  2  2  0
  2  3  1  0
  3  4  2  0
  4  5  1  0
  5  6  2  0
  6  7  1  0
  7  8  2  0
  8  9  1  0
  9 10  2  0
 10 11  1  0
 11 12  1  0
 12 13  1  0
 13 14  1  0
 14 15  1  0
 15 16  2  0
 15 17  2  0
 15 18  1  0
 18 19  1  0
 19 20  2  0
 20 21  1  0
 21 22  2  0
 22 23  1  0
 23 24  2  0
 13 25  2  0
 25 26  1  0
 26 27  1  0
 10  2  1  0
 26 11  2  0
  9  4  1  0
 24 19  1  0
  5 28  1  0
  6 29  1  0
  7 30  1  0
  8 31  1  0
 14 32  1  0
 18 33  1  0
 18 34  1  0
 20 35  1  0
 21 36  1  0
 22 37  1  0
 23 38  1  0
 24 39  1  0
 27 40  1  0
M  END
$$$$
