
     RDKit          3D

 40 42  0  0  0  0  0  0  0  0999 V2000
   -1.8978   -2.4457   -2.3102 C   0  0  0  0  0  0  0  0  0  0  0  0
   -1.1581   -1.5613   -1.3035 C   0  0  0  0  0  0  0  0  0  0  0  0
   -1.8652   -1.6174    0.0509 C   0  0  0  0  0  0  0  0  0  0  0  0
   -1.0465   -0.1289   -1.8593 C   0  0  0  0  0  0  0  0  0  0  0  0
   -0.1842    0.7474   -1.0918 N   0  0  0  0  0  0  0  0  0  0  0  0
    1.1839    0.8086   -1.1549 C   0  0  0  0  0  0  0  0  0  0  0  0
    2.1740   -0.2086   -2.1387 S   0  0  0  0  0  0  0  0  0  0  0  0
    3.4879   -0.6104   -0.9434 C   0  0  0  0  0  0  0  0  0  0  0  0
    2.9379   -1.4721    0.1860 C   0  0  0  0  0  0  0  0  0  0  0  0
    2.4735   -2.5853   -0.0834 O   0  0  0  0  0  0  0  0  0  0  0  0
    2.9948   -0.9486    1.5506 C   0  0  0  0  0  0  0  0  0  0  0  0
    3.3468    0.3038    2.0301 C   0  0  0  0  0  0  0  0  0  0  0  0
    3.2557    0.3966    3.4537 C   0  0  0  0  0  0  0  0  0  0  0  0
    2.8405   -0.7878    3.9995 C   0  0  0  0  0  0  0  0  0  0  0  0
    2.5968   -1.1189    5.6663 Cl  0  0  0  0  0  0  0  0  0  0  0  0
    2.5568   -1.9932    2.8524 S   0  0  0  0  0  0  0  0  0  0  0  0
    1.6367    1.7271   -0.3379 N   0  0  0  0  0  0  0  0  0  0  0  0
    0.5544    2.2931    0.2819 N   0  0  0  0  0  0  0  0  0  0  0  0
   -0.5411    1.7111   -0.1742 C   0  0  0  0  0  0  0  0  0  0  0  0
   -1.8558    2.0687    0.2671 C   0  0  0  0  0  0  0  0  0  0  0  0
   -2.1954    3.0209    1.2173 C   0  0  0  0  0  0  0  0  0  0  0  0
   -3.6057    3.0286    1.3291 C   0  0  0  0  0  0  0  0  0  0  0  0
   -4.0566    2.0839    0.4422 C   0  0  0  0  0  0  0  0  0  0  0  0
   -3.0142    1.5018   -0.2006 O   0  0  0  0  0  0  0  0  0  0  0  0
   -2.9196   -2.0888   -2.4782 H   0  0  0  0  0  0  0  0  0  0  0  0
   -1.9549   -3.4790   -1.9511 H   0  0  0  0  0  0  0  0  0  0  0  0
   -1.3791   -2.4574   -3.2747 H   0  0  0  0  0  0  0  0  0  0  0  0
   -0.1540   -1.9807   -1.1695 H   0  0  0  0  0  0  0  0  0  0  0  0
   -1.9435   -2.6527    0.4012 H   0  0  0  0  0  0  0  0  0  0  0  0
   -1.3141   -1.0583    0.8132 H   0  0  0  0  0  0  0  0  0  0  0  0
   -2.8797   -1.2113   -0.0118 H   0  0  0  0  0  0  0  0  0  0  0  0
   -0.6417   -0.1529   -2.8790 H   0  0  0  0  0  0  0  0  0  0  0  0
   -2.0312    0.3326   -1.9610 H   0  0  0  0  0  0  0  0  0  0  0  0
    3.9792    0.2986   -0.5938 H   0  0  0  0  0  0  0  0  0  0  0  0
    4.2532   -1.2003   -1.4593 H   0  0  0  0  0  0  0  0  0  0  0  0
    3.6334    1.1430    1.4070 H   0  0  0  0  0  0  0  0  0  0  0  0
    3.4756    1.2878    4.0286 H   0  0  0  0  0  0  0  0  0  0  0  0
   -1.4906    3.6356    1.7622 H   0  0  0  0  0  0  0  0  0  0  0  0
   -4.2143    3.6456    1.9747 H   0  0  0  0  0  0  0  0  0  0  0  0
   -5.0378    1.7245    0.1646 H   0  0  0  0  0  0  0  0  0  0  0  0
  1  2  1  0
  2  3  1  0
  2  4  1  0
  4  5  1  0
  5  6  1  0
  6  7  1  0
  7  8  1  0
  8  9  1  0
  9 10  2  0
  9 11  1  0
 11 12  2  0
 12 13  1  0
 13 14  2  0
 14 15  1  0
 14 16  1  0
  6 17  2  0
 17 18  1  0
 18 19  2  0
 19 20  1  0
 20 21  2  0
 21 22  1  0
 22 23  2  0
 23 24  1  0
 19  5  1  0
 24 20  1  0
 16 11  1  0
  1 25  1  0
  1 26  1  0
  1 27  1  0
  2 28  1  0
  3 29  1  0
  3 30  1  0
  3 31  1  0
  4 32  1  0
  4 33  1  0
  8 34  1  0
  8 35  1  0
 12 36  1  0
 13 37  1  0
 21 38  1  0
 22 39  1  0
 23 40  1  0
M  END
$$$$
