
     RDKit          3D

 57 59  0  0  0  0  0  0  0  0999 V2000
    0.1849    1.8410    4.6214 C   0  0  0  0  0  0  0  0  0  0  0  0
    0.3279    1.5691    3.2321 O   0  0  0  0  0  0  0  0  0  0  0  0
   -0.7821    1.7649    2.4422 C   0  0  0  0  0  0  0  0  0  0  0  0
   -2.0299    2.1915    2.9078 C   0  0  0  0  0  0  0  0  0  0  0  0
   -3.0948    2.3453    2.0174 C   0  0  0  0  0  0  0  0  0  0  0  0
   -2.9091    2.0740    0.6593 C   0  0  0  0  0  0  0  0  0  0  0  0
   -4.2574    2.3180   -0.4823 S   0  0  0  0  0  6  0  0  0  0  0  0
   -3.7046    2.8670   -1.7009 O   0  0  0  0  0  0  0  0  0  0  0  0
   -5.3020    3.0151    0.2405 O   0  0  0  0  0  0  0  0  0  0  0  0
   -4.8051    0.7409   -0.7848 N   0  0  0  0  0  0  0  0  0  0  0  0
   -4.0075   -0.1247   -1.6886 C   0  0  0  0  0  0  0  0  0  0  0  0
   -3.5805   -1.4076   -0.9874 C   0  0  0  0  0  0  0  0  0  0  0  0
   -4.7823   -2.2142   -0.4981 C   0  0  0  0  0  0  0  0  0  0  0  0
   -5.9731   -1.3296   -0.1345 C   0  0  0  0  0  0  0  0  0  0  0  0
   -5.5267    0.0569    0.3126 C   0  0  0  0  0  0  0  0  0  0  0  0
   -1.6604    1.6729    0.1780 C   0  0  0  0  0  0  0  0  0  0  0  0
   -0.6000    1.4933    1.0670 C   0  0  0  0  0  0  0  0  0  0  0  0
    0.6834    1.0571    0.6662 N   0  0  0  0  0  0  0  0  0  0  0  0
    1.0731    0.6051   -0.5772 C   0  0  0  0  0  0  0  0  0  0  0  0
    0.3582    0.4766   -1.5641 O   0  0  0  0  0  0  0  0  0  0  0  0
    2.5145    0.2483   -0.6986 C   0  0  0  0  0  0  0  0  0  0  0  0
    3.2241   -0.3532    0.3461 C   0  0  0  0  0  0  0  0  0  0  0  0
    4.5769   -0.6696    0.1825 C   0  0  0  0  0  0  0  0  0  0  0  0
    5.2348   -0.4010   -1.0277 C   0  0  0  0  0  0  0  0  0  0  0  0
    6.6935   -0.7419   -1.1908 C   0  0  0  0  0  0  0  0  0  0  0  0
    6.9309   -2.1076   -2.3278 S   0  0  0  0  0  6  0  0  0  0  0  0
    5.7911   -3.3669   -1.7967 C   0  0  0  0  0  0  0  0  0  0  0  0
    8.2681   -2.6265   -2.0944 O   0  0  0  0  0  0  0  0  0  0  0  0
    6.5433   -1.6869   -3.6621 O   0  0  0  0  0  0  0  0  0  0  0  0
    4.5139    0.1991   -2.0696 C   0  0  0  0  0  0  0  0  0  0  0  0
    3.1615    0.5103   -1.9105 C   0  0  0  0  0  0  0  0  0  0  0  0
   -0.0611    2.8938    4.7946 H   0  0  0  0  0  0  0  0  0  0  0  0
    1.1483    1.6414    5.1001 H   0  0  0  0  0  0  0  0  0  0  0  0
   -0.5576    1.1785    5.0779 H   0  0  0  0  0  0  0  0  0  0  0  0
   -2.2088    2.4173    3.9542 H   0  0  0  0  0  0  0  0  0  0  0  0
   -4.0590    2.6871    2.3888 H   0  0  0  0  0  0  0  0  0  0  0  0
   -4.6259   -0.3593   -2.5638 H   0  0  0  0  0  0  0  0  0  0  0  0
   -3.1226    0.3920   -2.0691 H   0  0  0  0  0  0  0  0  0  0  0  0
   -2.9706   -2.0232   -1.6583 H   0  0  0  0  0  0  0  0  0  0  0  0
   -2.9448   -1.1589   -0.1282 H   0  0  0  0  0  0  0  0  0  0  0  0
   -5.0930   -2.9308   -1.2666 H   0  0  0  0  0  0  0  0  0  0  0  0
   -4.4773   -2.8070    0.3720 H   0  0  0  0  0  0  0  0  0  0  0  0
   -6.6292   -1.2333   -1.0086 H   0  0  0  0  0  0  0  0  0  0  0  0
   -6.5655   -1.8121    0.6514 H   0  0  0  0  0  0  0  0  0  0  0  0
   -4.8882   -0.0263    1.1980 H   0  0  0  0  0  0  0  0  0  0  0  0
   -6.4132    0.6405    0.5794 H   0  0  0  0  0  0  0  0  0  0  0  0
   -1.5292    1.5272   -0.8889 H   0  0  0  0  0  0  0  0  0  0  0  0
    1.3683    1.0955    1.4135 H   0  0  0  0  0  0  0  0  0  0  0  0
    2.7362   -0.6044    1.2836 H   0  0  0  0  0  0  0  0  0  0  0  0
    5.1101   -1.1292    1.0123 H   0  0  0  0  0  0  0  0  0  0  0  0
    7.2537    0.1172   -1.5756 H   0  0  0  0  0  0  0  0  0  0  0  0
    7.1404   -1.0390   -0.2351 H   0  0  0  0  0  0  0  0  0  0  0  0
    5.9628   -3.5730   -0.7387 H   0  0  0  0  0  0  0  0  0  0  0  0
    5.9866   -4.2666   -2.3859 H   0  0  0  0  0  0  0  0  0  0  0  0
    4.7676   -3.0323   -1.9717 H   0  0  0  0  0  0  0  0  0  0  0  0
    4.9936    0.4242   -3.0225 H   0  0  0  0  0  0  0  0  0  0  0  0
    2.6138    0.9641   -2.7351 H   0  0  0  0  0  0  0  0  0  0  0  0
  1  2  1  0
  2  3  1  0
  3  4  2  0
  4  5  1  0
  5  6  2  0
  6  7  1  0
  7  8  2  0
  7  9  2  0
  7 10  1  0
 10 11  1  0
 11 12  1  0
 12 13  1  0
 13 14  1  0
 14 15  1  0
  6 16  1  0
 16 17  2  0
 17 18  1  0
 18 19  1  0
 19 20  2  0
 19 21  1  0
 21 22  2  0
 22 23  1  0
 23 24  2  0
 24 25  1  0
 25 26  1  0
 26 27  1  0
 26 28  2  0
 26 29  2  0
 24 30  1  0
 30 31  2  0
 17  3  1  0
 31 21  1  0
 15 10  1  0
  1 32  1  0
  1 33  1  0
  1 34  1  0
  4 35  1  0
  5 36  1  0
 11 37  1  0
 11 38  1  0
 12 39  1  0
 12 40  1  0
 13 41  1  0
 13 42  1  0
 14 43  1  0
 14 44  1  0
 15 45  1  0
 15 46  1  0
 16 47  1  0
 18 48  1  0
 22 49  1  0
 23 50  1  0
 25 51  1  0
 25 52  1  0
 27 53  1  0
 27 54  1  0
 27 55  1  0
 30 56  1  0
 31 57  1  0
M  END
$$$$
