
     RDKit          3D

 35 36  0  0  0  0  0  0  0  0999 V2000
   -5.2559    0.7882    3.0641 C   0  0  0  0  0  0  0  0  0  0  0  0
   -5.4086    0.4081    1.6022 C   0  0  0  0  0  0  0  0  0  0  0  0
   -4.5996    1.2489    0.7789 O   0  0  0  0  0  0  0  0  0  0  0  0
   -3.3317    0.8528    0.4682 C   0  0  0  0  0  0  0  0  0  0  0  0
   -2.7044    1.6278   -0.5040 C   0  0  0  0  0  0  0  0  0  0  0  0
   -1.3970    1.3503   -0.9254 C   0  0  0  0  0  0  0  0  0  0  0  0
   -0.6707    0.2874   -0.3804 C   0  0  0  0  0  0  0  0  0  0  0  0
    0.6568    0.0028   -0.7959 N   0  0  0  0  0  0  0  0  0  0  0  0
    1.4208    0.6450   -1.7599 C   0  0  0  0  0  0  0  0  0  0  0  0
    1.0595    1.5846   -2.4623 O   0  0  0  0  0  0  0  0  0  0  0  0
    2.8027    0.0358   -1.9223 C   0  0  0  0  0  0  0  0  0  0  0  0
    3.8280    0.4547   -0.4896 S   0  0  0  0  0  0  0  0  0  0  0  0
    5.3040   -0.3396   -0.9490 C   0  0  0  0  0  0  0  0  0  0  0  0
    5.3994   -1.2205   -1.9920 N   0  0  0  0  0  0  0  0  0  0  0  0
    6.6667   -1.5622   -1.9746 C   0  0  0  0  0  0  0  0  0  0  0  0
    7.2974   -0.9130   -0.9617 N   0  0  0  0  0  0  0  0  0  0  0  0
    6.4458   -0.1254   -0.2891 N   0  0  0  0  0  0  0  0  0  0  0  0
   -1.3181   -0.4950    0.6038 C   0  0  0  0  0  0  0  0  0  0  0  0
   -0.6607   -1.6603    1.2139 N   0  0  0  0  0  4  0  0  0  0  0  0
    0.5730   -1.7540    1.1168 O   0  0  0  0  0  0  0  0  0  0  0  0
   -1.3786   -2.4957    1.7834 O   0  0  0  0  0  1  0  0  0  0  0  0
   -2.6349   -0.2107    1.0287 C   0  0  0  0  0  0  0  0  0  0  0  0
   -5.4991    1.8456    3.2119 H   0  0  0  0  0  0  0  0  0  0  0  0
   -5.9178    0.1850    3.6915 H   0  0  0  0  0  0  0  0  0  0  0  0
   -4.2263    0.6506    3.4081 H   0  0  0  0  0  0  0  0  0  0  0  0
   -6.4473    0.5877    1.3034 H   0  0  0  0  0  0  0  0  0  0  0  0
   -5.2252   -0.6576    1.4255 H   0  0  0  0  0  0  0  0  0  0  0  0
   -3.2363    2.4679   -0.9473 H   0  0  0  0  0  0  0  0  0  0  0  0
   -0.9777    2.0066   -1.6825 H   0  0  0  0  0  0  0  0  0  0  0  0
    1.1391   -0.7308   -0.2723 H   0  0  0  0  0  0  0  0  0  0  0  0
    2.7000   -1.0502   -2.0304 H   0  0  0  0  0  0  0  0  0  0  0  0
    3.2529    0.4330   -2.8392 H   0  0  0  0  0  0  0  0  0  0  0  0
    7.1657   -2.2456   -2.6457 H   0  0  0  0  0  0  0  0  0  0  0  0
    8.2695   -0.9529   -0.6771 H   0  0  0  0  0  0  0  0  0  0  0  0
   -3.0913   -0.8239    1.8003 H   0  0  0  0  0  0  0  0  0  0  0  0
  1  2  1  0
  2  3  1  0
  3  4  1  0
  4  5  2  0
  5  6  1  0
  6  7  2  0
  7  8  1  0
  8  9  1  0
  9 10  2  0
  9 11  1  0
 11 12  1  0
 12 13  1  0
 13 14  1  0
 14 15  2  0
 15 16  1  0
 16 17  1  0
  7 18  1  0
 18 19  1  0
 19 20  2  0
 19 21  1  0
 18 22  2  0
 22  4  1  0
 17 13  2  0
  1 23  1  0
  1 24  1  0
  1 25  1  0
  2 26  1  0
  2 27  1  0
  5 28  1  0
  6 29  1  0
  8 30  1  0
 11 31  1  0
 11 32  1  0
 15 33  1  0
 16 34  1  0
 22 35  1  0
M  CHG  2  19   1  21  -1
M  END
$$$$
