
     RDKit          3D

 50 53  0  0  0  0  0  0  0  0999 V2000
   -4.2961    2.2684    1.6243 C   0  0  0  0  0  0  0  0  0  0  0  0
   -3.8710    1.6334    0.2991 C   0  0  0  0  0  0  0  0  0  0  0  0
   -4.8787    0.5573   -0.1494 C   0  0  0  0  0  0  0  0  0  0  0  0
   -4.3163   -0.8576    0.0091 C   0  0  0  0  0  0  0  0  0  0  0  0
   -5.3408   -1.9075   -0.4171 C   0  0  0  0  0  0  0  0  0  0  0  0
   -3.0128   -1.0114   -0.7946 C   0  0  0  0  0  0  0  0  0  0  0  0
   -2.1601    0.1713   -0.6737 N   0  0  0  0  0  0  0  0  0  0  0  0
   -0.8390   -0.0139   -1.0547 C   0  0  0  0  0  0  0  0  0  0  0  0
   -0.5405   -1.0324   -1.8822 N   0  0  0  0  0  0  0  0  0  0  0  0
    0.7450   -1.1839   -2.2675 C   0  0  0  0  0  0  0  0  0  0  0  0
    1.7533   -0.3522   -1.8543 C   0  0  0  0  0  0  0  0  0  0  0  0
    1.3829    0.6630   -1.0042 C   0  0  0  0  0  0  0  0  0  0  0  0
    0.1019    0.8401   -0.6066 N   0  0  0  0  0  0  0  0  0  0  0  0
    2.3952    1.6434   -0.4754 C   0  0  0  0  0  0  0  0  0  0  0  0
    3.8209    1.0623   -0.4321 C   0  0  0  0  0  0  0  0  0  0  0  0
    4.1333    0.0890    0.7053 C   0  0  0  0  0  0  0  0  0  0  0  0
    5.4784   -0.2573    0.9405 C   0  0  0  0  0  0  0  0  0  0  0  0
    5.8326   -1.1406    1.9641 C   0  0  0  0  0  0  0  0  0  0  0  0
    4.8454   -1.6868    2.7755 C   0  0  0  0  0  0  0  0  0  0  0  0
    5.2752   -2.7726    4.0379 Cl  0  0  0  0  0  0  0  0  0  0  0  0
    3.5109   -1.3517    2.5726 C   0  0  0  0  0  0  0  0  0  0  0  0
    3.1573   -0.4666    1.5474 C   0  0  0  0  0  0  0  0  0  0  0  0
    4.1673    0.4729   -1.8100 C   0  0  0  0  0  0  0  0  0  0  0  0
    3.1442   -0.5332   -2.2883 C   0  0  0  0  0  0  0  0  0  0  0  0
    3.4307   -1.4361   -3.0682 O   0  0  0  0  0  0  0  0  0  0  0  0
   -2.4277    1.1041    0.4099 C   0  0  0  0  0  0  0  0  0  0  0  0
   -5.2863    2.7277    1.5353 H   0  0  0  0  0  0  0  0  0  0  0  0
   -3.5914    3.0511    1.9243 H   0  0  0  0  0  0  0  0  0  0  0  0
   -4.3387    1.5230    2.4258 H   0  0  0  0  0  0  0  0  0  0  0  0
   -3.8865    2.4272   -0.4604 H   0  0  0  0  0  0  0  0  0  0  0  0
   -5.1193    0.7262   -1.2080 H   0  0  0  0  0  0  0  0  0  0  0  0
   -5.8263    0.6557    0.3941 H   0  0  0  0  0  0  0  0  0  0  0  0
   -4.0952   -1.0224    1.0725 H   0  0  0  0  0  0  0  0  0  0  0  0
   -4.9378   -2.9174   -0.2866 H   0  0  0  0  0  0  0  0  0  0  0  0
   -6.2508   -1.8287    0.1869 H   0  0  0  0  0  0  0  0  0  0  0  0
   -5.6219   -1.7874   -1.4688 H   0  0  0  0  0  0  0  0  0  0  0  0
   -3.2484   -1.1684   -1.8552 H   0  0  0  0  0  0  0  0  0  0  0  0
   -2.4993   -1.9117   -0.4301 H   0  0  0  0  0  0  0  0  0  0  0  0
    0.9317   -2.0183   -2.9380 H   0  0  0  0  0  0  0  0  0  0  0  0
    2.3830    2.5133   -1.1451 H   0  0  0  0  0  0  0  0  0  0  0  0
    2.0925    2.0030    0.5155 H   0  0  0  0  0  0  0  0  0  0  0  0
    4.4880    1.9201   -0.2609 H   0  0  0  0  0  0  0  0  0  0  0  0
    6.2721    0.1636    0.3248 H   0  0  0  0  0  0  0  0  0  0  0  0
    6.8776   -1.3943    2.1208 H   0  0  0  0  0  0  0  0  0  0  0  0
    2.7365   -1.7721    3.2094 H   0  0  0  0  0  0  0  0  0  0  0  0
    2.1015   -0.2302    1.4415 H   0  0  0  0  0  0  0  0  0  0  0  0
    5.1480   -0.0152   -1.8014 H   0  0  0  0  0  0  0  0  0  0  0  0
    4.2057    1.2731   -2.5596 H   0  0  0  0  0  0  0  0  0  0  0  0
   -1.7631    1.9771    0.3863 H   0  0  0  0  0  0  0  0  0  0  0  0
   -2.2630    0.6040    1.3735 H   0  0  0  0  0  0  0  0  0  0  0  0
  1  2  1  0
  2  3  1  0
  3  4  1  0
  4  5  1  0
  4  6  1  0
  6  7  1  0
  7  8  1  0
  8  9  2  0
  9 10  1  0
 10 11  2  0
 11 12  1  0
 12 13  2  0
 12 14  1  0
 14 15  1  0
 15 16  1  0
 16 17  2  0
 17 18  1  0
 18 19  2  0
 19 20  1  0
 19 21  1  0
 21 22  2  0
 15 23  1  0
 23 24  1  0
 24 25  2  0
  7 26  1  0
 26  2  1  0
 13  8  1  0
 22 16  1  0
 24 11  1  0
  1 27  1  0
  1 28  1  0
  1 29  1  0
  2 30  1  0
  3 31  1  0
  3 32  1  0
  4 33  1  0
  5 34  1  0
  5 35  1  0
  5 36  1  0
  6 37  1  0
  6 38  1  0
 10 39  1  0
 14 40  1  0
 14 41  1  0
 15 42  1  0
 17 43  1  0
 18 44  1  0
 21 45  1  0
 22 46  1  0
 23 47  1  0
 23 48  1  0
 26 49  1  0
 26 50  1  0
M  END
$$$$
