
     RDKit          3D

 55 58  0  0  0  0  0  0  0  0999 V2000
   -8.5058    1.6994   -2.2282 C   0  0  0  0  0  0  0  0  0  0  0  0
   -7.7778    1.0664   -1.0525 C   0  0  0  0  0  0  0  0  0  0  0  0
   -7.1395    2.1279   -0.1537 C   0  0  0  0  0  0  0  0  0  0  0  0
   -6.4477    1.5226    1.0682 C   0  0  0  0  0  0  0  0  0  0  0  0
   -5.3095    0.6976    0.7172 N   0  0  0  0  0  0  0  0  0  0  0  0
   -4.0821    1.2553    0.4200 C   0  0  0  0  0  0  0  0  0  0  0  0
   -3.8539    2.4582    0.4770 O   0  0  0  0  0  0  0  0  0  0  0  0
   -3.0198    0.3127   -0.0285 C   0  0  0  0  0  0  0  0  0  0  0  0
   -2.9887   -1.0243    0.3811 C   0  0  0  0  0  0  0  0  0  0  0  0
   -1.9696   -1.8720   -0.0668 C   0  0  0  0  0  0  0  0  0  0  0  0
   -0.9585   -1.3969   -0.9158 C   0  0  0  0  0  0  0  0  0  0  0  0
    0.1512   -2.3181   -1.3919 C   0  0  0  0  0  0  0  0  0  0  0  0
    1.4493   -2.0228   -0.7726 N   0  0  0  0  0  0  0  0  0  0  0  0
    1.8275   -2.5936    0.4610 C   0  0  0  0  0  0  0  0  0  0  0  0
    0.9490   -3.6946    1.3784 S   0  0  0  0  0  0  0  0  0  0  0  0
    3.0524   -2.2307    0.9806 N   0  0  0  0  0  0  0  0  0  0  0  0
    3.8929   -1.3672    0.3329 C   0  0  0  0  0  0  0  0  0  0  0  0
    3.5168   -0.8515   -0.8699 C   0  0  0  0  0  0  0  0  0  0  0  0
    4.5193   -0.0320   -1.3077 N   0  0  0  0  0  0  0  0  0  0  0  0
    5.5449   -0.0199   -0.3831 C   0  0  0  0  0  0  0  0  0  0  0  0
    6.7642    0.6642   -0.3956 C   0  0  0  0  0  0  0  0  0  0  0  0
    7.6252    0.4835    0.6961 C   0  0  0  0  0  0  0  0  0  0  0  0
    7.2807   -0.3498    1.7608 C   0  0  0  0  0  0  0  0  0  0  0  0
    8.0477   -0.5934    2.8693 O   0  0  0  0  0  0  0  0  0  0  0  0
    9.3008    0.0744    2.9462 C   0  0  0  0  0  0  0  0  0  0  0  0
    6.0531   -1.0264    1.7525 C   0  0  0  0  0  0  0  0  0  0  0  0
    5.1692   -0.8624    0.6691 C   0  0  0  0  0  0  0  0  0  0  0  0
    2.2785   -1.1533   -1.5130 C   0  0  0  0  0  0  0  0  0  0  0  0
    1.9980   -0.6902   -2.6153 O   0  0  0  0  0  0  0  0  0  0  0  0
   -0.9963   -0.0526   -1.3154 C   0  0  0  0  0  0  0  0  0  0  0  0
   -2.0135    0.7965   -0.8704 C   0  0  0  0  0  0  0  0  0  0  0  0
   -8.9544    0.9244   -2.8576 H   0  0  0  0  0  0  0  0  0  0  0  0
   -7.8174    2.2838   -2.8471 H   0  0  0  0  0  0  0  0  0  0  0  0
   -9.3059    2.3623   -1.8836 H   0  0  0  0  0  0  0  0  0  0  0  0
   -8.4872    0.4652   -0.4722 H   0  0  0  0  0  0  0  0  0  0  0  0
   -7.0112    0.3841   -1.4367 H   0  0  0  0  0  0  0  0  0  0  0  0
   -6.4233    2.7191   -0.7371 H   0  0  0  0  0  0  0  0  0  0  0  0
   -7.9169    2.8187    0.1946 H   0  0  0  0  0  0  0  0  0  0  0  0
   -6.1051    2.3267    1.7289 H   0  0  0  0  0  0  0  0  0  0  0  0
   -7.1431    0.8944    1.6346 H   0  0  0  0  0  0  0  0  0  0  0  0
   -5.4899   -0.2602    0.4514 H   0  0  0  0  0  0  0  0  0  0  0  0
   -3.7291   -1.4182    1.0712 H   0  0  0  0  0  0  0  0  0  0  0  0
   -1.9690   -2.9084    0.2663 H   0  0  0  0  0  0  0  0  0  0  0  0
    0.2205   -2.2346   -2.4838 H   0  0  0  0  0  0  0  0  0  0  0  0
   -0.1211   -3.3631   -1.2080 H   0  0  0  0  0  0  0  0  0  0  0  0
    3.3374   -2.6219    1.8710 H   0  0  0  0  0  0  0  0  0  0  0  0
    4.5039    0.4845   -2.1778 H   0  0  0  0  0  0  0  0  0  0  0  0
    7.0422    1.3154   -1.2185 H   0  0  0  0  0  0  0  0  0  0  0  0
    8.5700    1.0181    0.6791 H   0  0  0  0  0  0  0  0  0  0  0  0
    9.1687    1.1611    2.9671 H   0  0  0  0  0  0  0  0  0  0  0  0
    9.9606   -0.2293    2.1268 H   0  0  0  0  0  0  0  0  0  0  0  0
    9.7794   -0.2204    3.8850 H   0  0  0  0  0  0  0  0  0  0  0  0
    5.7900   -1.6731    2.5842 H   0  0  0  0  0  0  0  0  0  0  0  0
   -0.2364    0.3510   -1.9817 H   0  0  0  0  0  0  0  0  0  0  0  0
   -2.0204    1.8382   -1.1863 H   0  0  0  0  0  0  0  0  0  0  0  0
  1  2  1  0
  2  3  1  0
  3  4  1  0
  4  5  1  0
  5  6  1  0
  6  7  2  0
  6  8  1  0
  8  9  2  0
  9 10  1  0
 10 11  2  0
 11 12  1  0
 12 13  1  0
 13 14  1  0
 14 15  2  0
 14 16  1  0
 16 17  1  0
 17 18  2  0
 18 19  1  0
 19 20  1  0
 20 21  2  0
 21 22  1  0
 22 23  2  0
 23 24  1  0
 24 25  1  0
 23 26  1  0
 26 27  2  0
 18 28  1  0
 28 29  2  0
 11 30  1  0
 30 31  2  0
 31  8  1  0
 28 13  1  0
 27 17  1  0
 27 20  1  0
  1 32  1  0
  1 33  1  0
  1 34  1  0
  2 35  1  0
  2 36  1  0
  3 37  1  0
  3 38  1  0
  4 39  1  0
  4 40  1  0
  5 41  1  0
  9 42  1  0
 10 43  1  0
 12 44  1  0
 12 45  1  0
 16 46  1  0
 19 47  1  0
 21 48  1  0
 22 49  1  0
 25 50  1  0
 25 51  1  0
 25 52  1  0
 26 53  1  0
 30 54  1  0
 31 55  1  0
M  END
$$$$
