
     RDKit          3D

 54 58  0  0  0  0  0  0  0  0999 V2000
    6.0343   -2.2282    1.5186 C   0  0  0  0  0  0  0  0  0  0  0  0
    4.5795   -1.8052    1.3899 C   0  0  0  0  0  0  0  0  0  0  0  0
    4.3302   -0.9468    0.1583 C   0  0  0  0  0  0  0  0  0  0  0  0
    5.2539   -0.6128   -0.5844 O   0  0  0  0  0  0  0  0  0  0  0  0
    3.0046   -0.5730   -0.0903 N   0  0  0  0  0  0  0  0  0  0  0  0
    2.7856    0.3616   -1.1884 C   0  0  0  0  0  0  0  0  0  0  0  0
    1.3831    0.2491   -1.7774 C   0  0  0  0  0  0  0  0  0  0  0  0
    0.2782    0.3956   -0.6972 C   0  0  0  0  0  0  0  0  0  0  0  0
    0.5649   -0.6945    0.3653 C   0  0  0  0  0  0  0  0  0  0  0  0
    1.9752   -0.5931    0.9441 C   0  0  0  0  0  0  0  0  0  0  0  0
    0.4092    1.6616   -0.0064 O   0  0  0  0  0  0  0  0  0  0  0  0
    0.0025    2.7656   -0.7018 C   0  0  0  0  0  0  0  0  0  0  0  0
    0.4762    3.9924   -0.2382 C   0  0  0  0  0  0  0  0  0  0  0  0
    0.1250    5.1716   -0.8996 C   0  0  0  0  0  0  0  0  0  0  0  0
   -0.7043    5.1202   -2.0205 C   0  0  0  0  0  0  0  0  0  0  0  0
   -1.1325    6.5755   -2.8300 Cl  0  0  0  0  0  0  0  0  0  0  0  0
   -1.1939    3.9011   -2.4819 C   0  0  0  0  0  0  0  0  0  0  0  0
   -0.8434    2.7257   -1.8099 C   0  0  0  0  0  0  0  0  0  0  0  0
   -1.3824    1.4243   -2.2503 C   0  0  0  0  0  0  0  0  0  0  0  0
   -2.0151    1.3537   -3.2984 O   0  0  0  0  0  0  0  0  0  0  0  0
   -1.1512    0.2585   -1.2950 C   0  0  0  0  0  0  0  0  0  0  0  0
   -2.2972    0.2634   -0.2884 C   0  0  0  0  0  0  0  0  0  0  0  0
   -2.6244   -1.1888   -0.2890 C   0  0  0  0  0  0  0  0  0  0  0  0
   -3.5341   -1.7914    0.7131 C   0  0  0  0  0  0  0  0  0  0  0  0
   -3.7082   -3.1822    0.7206 C   0  0  0  0  0  0  0  0  0  0  0  0
   -4.5551   -3.7825    1.6564 C   0  0  0  0  0  0  0  0  0  0  0  0
   -5.2303   -2.9929    2.5838 C   0  0  0  0  0  0  0  0  0  0  0  0
   -6.2718   -3.7283    3.7379 Cl  0  0  0  0  0  0  0  0  0  0  0  0
   -5.0677   -1.6081    2.5816 C   0  0  0  0  0  0  0  0  0  0  0  0
   -4.2204   -1.0046    1.6460 C   0  0  0  0  0  0  0  0  0  0  0  0
   -2.0534   -1.8731   -1.2265 N   0  0  0  0  0  0  0  0  0  0  0  0
   -1.2857   -0.9766   -2.0046 O   0  0  0  0  0  0  0  0  0  0  0  0
    6.1730   -2.8478    2.4100 H   0  0  0  0  0  0  0  0  0  0  0  0
    6.6917   -1.3565    1.6027 H   0  0  0  0  0  0  0  0  0  0  0  0
    6.3540   -2.8075    0.6461 H   0  0  0  0  0  0  0  0  0  0  0  0
    4.3014   -1.2338    2.2817 H   0  0  0  0  0  0  0  0  0  0  0  0
    3.9558   -2.7031    1.3254 H   0  0  0  0  0  0  0  0  0  0  0  0
    2.9702    1.3720   -0.8039 H   0  0  0  0  0  0  0  0  0  0  0  0
    3.5165    0.1842   -1.9853 H   0  0  0  0  0  0  0  0  0  0  0  0
    1.2893    1.0137   -2.5560 H   0  0  0  0  0  0  0  0  0  0  0  0
    1.2863   -0.7242   -2.2756 H   0  0  0  0  0  0  0  0  0  0  0  0
    0.4430   -1.6915   -0.0751 H   0  0  0  0  0  0  0  0  0  0  0  0
   -0.1357   -0.6142    1.2040 H   0  0  0  0  0  0  0  0  0  0  0  0
    2.0911    0.3216    1.5378 H   0  0  0  0  0  0  0  0  0  0  0  0
    2.1271   -1.4348    1.6246 H   0  0  0  0  0  0  0  0  0  0  0  0
    1.1304    4.0339    0.6299 H   0  0  0  0  0  0  0  0  0  0  0  0
    0.5043    6.1252   -0.5394 H   0  0  0  0  0  0  0  0  0  0  0  0
   -1.8475    3.8642   -3.3510 H   0  0  0  0  0  0  0  0  0  0  0  0
   -2.0111    0.6303    0.6999 H   0  0  0  0  0  0  0  0  0  0  0  0
   -3.1757    0.8179   -0.6371 H   0  0  0  0  0  0  0  0  0  0  0  0
   -3.1885   -3.8086   -0.0029 H   0  0  0  0  0  0  0  0  0  0  0  0
   -4.6831   -4.8621    1.6520 H   0  0  0  0  0  0  0  0  0  0  0  0
   -5.6009   -0.9934    3.3029 H   0  0  0  0  0  0  0  0  0  0  0  0
   -4.1226    0.0769    1.6623 H   0  0  0  0  0  0  0  0  0  0  0  0
  1  2  1  0
  2  3  1  0
  3  4  2  0
  3  5  1  0
  5  6  1  0
  6  7  1  0
  7  8  1  0
  8  9  1  0
  9 10  1  0
  8 11  1  0
 11 12  1  0
 12 13  2  0
 13 14  1  0
 14 15  2  0
 15 16  1  0
 15 17  1  0
 17 18  2  0
 18 19  1  0
 19 20  2  0
 19 21  1  0
 21 22  1  0
 22 23  1  0
 23 24  1  0
 24 25  2  0
 25 26  1  0
 26 27  2  0
 27 28  1  0
 27 29  1  0
 29 30  2  0
 23 31  2  0
 31 32  1  0
 10  5  1  0
 18 12  1  0
 32 21  1  0
 21  8  1  0
 30 24  1  0
  1 33  1  0
  1 34  1  0
  1 35  1  0
  2 36  1  0
  2 37  1  0
  6 38  1  0
  6 39  1  0
  7 40  1  0
  7 41  1  0
  9 42  1  0
  9 43  1  0
 10 44  1  0
 10 45  1  0
 13 46  1  0
 14 47  1  0
 17 48  1  0
 22 49  1  0
 22 50  1  0
 25 51  1  0
 26 52  1  0
 29 53  1  0
 30 54  1  0
M  END
$$$$
