
     RDKit          3D

 35 37  0  0  0  0  0  0  0  0999 V2000
    1.7179    1.6756   -3.3316 O   0  0  0  0  0  0  0  0  0  0  0  0
    2.0942    1.1511   -2.1694 C   0  0  0  0  0  0  0  0  0  0  0  0
    3.4034    0.8533   -1.8931 N   0  0  0  0  0  0  0  0  0  0  0  0
    3.5221    0.3188   -0.6320 C   0  0  0  0  0  0  0  0  0  0  0  0
    4.6595   -0.1258    0.0540 C   0  0  0  0  0  0  0  0  0  0  0  0
    4.4824   -0.6302    1.3452 C   0  0  0  0  0  0  0  0  0  0  0  0
    3.2180   -0.6863    1.9243 C   0  0  0  0  0  0  0  0  0  0  0  0
    2.0930   -0.2371    1.2233 C   0  0  0  0  0  0  0  0  0  0  0  0
    2.2396    0.2778   -0.0829 C   0  0  0  0  0  0  0  0  0  0  0  0
    1.3371    0.8089   -1.0626 C   0  0  0  0  0  0  0  0  0  0  0  0
   -0.0984    0.9867   -0.9971 C   0  0  0  0  0  0  0  0  0  0  0  0
   -0.7456    0.6481    0.0733 N   0  0  0  0  0  0  0  0  0  0  0  0
   -2.1169    0.8214    0.0280 N   0  0  0  0  0  0  0  0  0  0  0  0
   -2.8707   -0.0105   -0.9207 C   0  0  0  0  0  0  0  0  0  0  0  0
   -3.0734   -1.4221   -0.3725 C   0  0  0  0  0  0  0  0  0  0  0  0
   -3.7151   -1.3867    1.0162 C   0  0  0  0  0  0  0  0  0  0  0  0
   -2.9369   -0.4739    1.9660 C   0  0  0  0  0  0  0  0  0  0  0  0
   -2.7353    0.9104    1.3532 C   0  0  0  0  0  0  0  0  0  0  0  0
    2.4927    1.8145   -3.9022 H   0  0  0  0  0  0  0  0  0  0  0  0
    4.1839    0.9962   -2.5154 H   0  0  0  0  0  0  0  0  0  0  0  0
    5.6471   -0.0838   -0.3933 H   0  0  0  0  0  0  0  0  0  0  0  0
    5.3448   -0.9836    1.9056 H   0  0  0  0  0  0  0  0  0  0  0  0
    3.0978   -1.0812    2.9299 H   0  0  0  0  0  0  0  0  0  0  0  0
    1.1102   -0.2850    1.6855 H   0  0  0  0  0  0  0  0  0  0  0  0
   -0.6000    1.4247   -1.8778 H   0  0  0  0  0  0  0  0  0  0  0  0
   -3.8389    0.4781   -1.0817 H   0  0  0  0  0  0  0  0  0  0  0  0
   -2.3590   -0.0416   -1.8874 H   0  0  0  0  0  0  0  0  0  0  0  0
   -2.1053   -1.9340   -0.3076 H   0  0  0  0  0  0  0  0  0  0  0  0
   -3.7012   -2.0017   -1.0580 H   0  0  0  0  0  0  0  0  0  0  0  0
   -4.7473   -1.0256    0.9301 H   0  0  0  0  0  0  0  0  0  0  0  0
   -3.7626   -2.4001    1.4299 H   0  0  0  0  0  0  0  0  0  0  0  0
   -3.4692   -0.3862    2.9194 H   0  0  0  0  0  0  0  0  0  0  0  0
   -1.9614   -0.9278    2.1801 H   0  0  0  0  0  0  0  0  0  0  0  0
   -2.1080    1.5375    1.9966 H   0  0  0  0  0  0  0  0  0  0  0  0
   -3.6982    1.4204    1.2327 H   0  0  0  0  0  0  0  0  0  0  0  0
  1  2  1  0
  2  3  1  0
  3  4  1  0
  4  5  2  0
  5  6  1  0
  6  7  2  0
  7  8  1  0
  8  9  2  0
  9 10  1  0
 10 11  1  0
 11 12  2  3
 12 13  1  0
 13 14  1  0
 14 15  1  0
 15 16  1  0
 16 17  1  0
 17 18  1  0
 10  2  2  0
 18 13  1  0
  9  4  1  0
  1 19  1  0
  3 20  1  0
  5 21  1  0
  6 22  1  0
  7 23  1  0
  8 24  1  0
 11 25  1  0
 14 26  1  0
 14 27  1  0
 15 28  1  0
 15 29  1  0
 16 30  1  0
 16 31  1  0
 17 32  1  0
 17 33  1  0
 18 34  1  0
 18 35  1  0
M  END
$$$$
