
     RDKit          3D

 39 41  0  0  0  0  0  0  0  0999 V2000
   -2.7083   -1.8495    0.9248 C   0  0  0  0  0  0  0  0  0  0  0  0
   -2.7349   -0.8109   -0.1395 C   0  0  0  0  0  0  0  0  0  0  0  0
   -3.9136   -0.5443   -0.7975 N   0  0  0  0  0  0  0  0  0  0  0  0
   -3.7272    0.3912   -1.7823 C   0  0  0  0  0  0  0  0  0  0  0  0
   -4.6438    0.9394   -2.6880 C   0  0  0  0  0  0  0  0  0  0  0  0
   -4.1679    1.8845   -3.6005 C   0  0  0  0  0  0  0  0  0  0  0  0
   -2.8287    2.2628   -3.6045 C   0  0  0  0  0  0  0  0  0  0  0  0
   -1.9285    1.7034   -2.6905 C   0  0  0  0  0  0  0  0  0  0  0  0
   -2.3808    0.7448   -1.7571 C   0  0  0  0  0  0  0  0  0  0  0  0
   -1.7499    0.0004   -0.6978 C   0  0  0  0  0  0  0  0  0  0  0  0
   -0.3282    0.1011   -0.3312 C   0  0  0  0  0  0  0  0  0  0  0  0
    0.5155    0.4094   -1.1785 O   0  0  0  0  0  0  0  0  0  0  0  0
    0.1024   -0.1235    1.1317 C   0  0  0  0  0  0  0  0  0  0  0  0
   -0.3923    1.0301    1.9965 C   0  0  0  0  0  0  0  0  0  0  0  0
    1.5335   -0.1487    1.2637 O   0  0  0  0  0  0  0  0  0  0  0  0
    2.1269   -1.2605    0.7432 C   0  0  0  0  0  0  0  0  0  0  0  0
    1.5172   -2.2346    0.3166 O   0  0  0  0  0  0  0  0  0  0  0  0
    3.5652   -1.1321    0.7875 C   0  0  0  0  0  0  0  0  0  0  0  0
    4.5590   -1.9771    0.3155 C   0  0  0  0  0  0  0  0  0  0  0  0
    5.8044   -1.3690    0.6161 C   0  0  0  0  0  0  0  0  0  0  0  0
    5.4885   -0.1955    1.2570 C   0  0  0  0  0  0  0  0  0  0  0  0
    6.3089    0.8398    1.8027 N   0  0  0  0  0  4  0  0  0  0  0  0
    7.5321    0.6916    1.6753 O   0  0  0  0  0  0  0  0  0  0  0  0
    5.7483    1.7910    2.3611 O   0  0  0  0  0  1  0  0  0  0  0  0
    4.1446   -0.0326    1.3747 O   0  0  0  0  0  0  0  0  0  0  0  0
   -1.8792   -2.5454    0.7638 H   0  0  0  0  0  0  0  0  0  0  0  0
   -2.6015   -1.3865    1.9103 H   0  0  0  0  0  0  0  0  0  0  0  0
   -3.6311   -2.4396    0.9334 H   0  0  0  0  0  0  0  0  0  0  0  0
   -4.7999   -0.9915   -0.6066 H   0  0  0  0  0  0  0  0  0  0  0  0
   -5.6881    0.6445   -2.6893 H   0  0  0  0  0  0  0  0  0  0  0  0
   -4.8532    2.3285   -4.3189 H   0  0  0  0  0  0  0  0  0  0  0  0
   -2.4741    2.9973   -4.3234 H   0  0  0  0  0  0  0  0  0  0  0  0
   -0.8839    2.0044   -2.7071 H   0  0  0  0  0  0  0  0  0  0  0  0
   -0.2936   -1.0642    1.5191 H   0  0  0  0  0  0  0  0  0  0  0  0
   -0.0434    0.9127    3.0282 H   0  0  0  0  0  0  0  0  0  0  0  0
   -1.4842    1.0968    2.0047 H   0  0  0  0  0  0  0  0  0  0  0  0
    0.0037    1.9859    1.6343 H   0  0  0  0  0  0  0  0  0  0  0  0
    4.3886   -2.9181   -0.1927 H   0  0  0  0  0  0  0  0  0  0  0  0
    6.7976   -1.7361    0.3949 H   0  0  0  0  0  0  0  0  0  0  0  0
  1  2  1  0
  2  3  1  0
  3  4  1  0
  4  5  2  0
  5  6  1  0
  6  7  2  0
  7  8  1  0
  8  9  2  0
  9 10  1  0
 10 11  1  0
 11 12  2  0
 11 13  1  0
 13 14  1  0
 13 15  1  0
 15 16  1  0
 16 17  2  0
 16 18  1  0
 18 19  2  0
 19 20  1  0
 20 21  2  0
 21 22  1  0
 22 23  2  0
 22 24  1  0
 21 25  1  0
 10  2  2  0
 25 18  1  0
  9  4  1  0
  1 26  1  0
  1 27  1  0
  1 28  1  0
  3 29  1  0
  5 30  1  0
  6 31  1  0
  7 32  1  0
  8 33  1  0
 13 34  1  0
 14 35  1  0
 14 36  1  0
 14 37  1  0
 19 38  1  0
 20 39  1  0
M  CHG  2  22   1  24  -1
M  END
$$$$
