
     RDKit          3D

 39 40  0  0  0  0  0  0  0  0999 V2000
    7.7133    0.1166   -0.1821 C   0  0  0  0  0  0  0  0  0  0  0  0
    6.8530   -0.7582    0.5363 O   0  0  0  0  0  0  0  0  0  0  0  0
    5.5285   -0.7391    0.1965 C   0  0  0  0  0  0  0  0  0  0  0  0
    4.9456    0.0502   -0.7944 C   0  0  0  0  0  0  0  0  0  0  0  0
    3.5699   -0.0296   -1.0399 C   0  0  0  0  0  0  0  0  0  0  0  0
    2.7612   -0.9018   -0.3008 C   0  0  0  0  0  0  0  0  0  0  0  0
    1.2786   -0.9700   -0.5527 C   0  0  0  0  0  0  0  0  0  0  0  0
    0.5017    0.0425    0.2844 C   0  0  0  0  0  0  0  0  0  0  0  0
   -0.8946   -0.1010   -0.0221 O   0  0  0  0  0  0  0  0  0  0  0  0
   -1.7020    0.7559    0.6486 C   0  0  0  0  0  0  0  0  0  0  0  0
   -1.3421    1.6032    1.4490 O   0  0  0  0  0  0  0  0  0  0  0  0
   -3.1266    0.5357    0.2790 C   0  0  0  0  0  0  0  0  0  0  0  0
   -3.5189   -0.4137   -0.6715 C   0  0  0  0  0  0  0  0  0  0  0  0
   -4.8732   -0.5822   -0.9880 C   0  0  0  0  0  0  0  0  0  0  0  0
   -5.8669    0.2133   -0.3999 C   0  0  0  0  0  0  0  0  0  0  0  0
   -7.2079   -0.1110   -0.6637 N   0  0  0  0  0  0  0  0  0  0  0  0
   -5.4587    1.1264    0.5926 C   0  0  0  0  0  0  0  0  0  0  0  0
   -6.4418    1.9448    1.3028 N   0  0  0  0  0  4  0  0  0  0  0  0
   -6.1827    2.2647    2.4717 O   0  0  0  0  0  0  0  0  0  0  0  0
   -7.4645    2.2851    0.6869 O   0  0  0  0  0  1  0  0  0  0  0  0
   -4.1031    1.3048    0.9201 C   0  0  0  0  0  0  0  0  0  0  0  0
    3.3496   -1.6875    0.6957 C   0  0  0  0  0  0  0  0  0  0  0  0
    4.7229   -1.6057    0.9378 C   0  0  0  0  0  0  0  0  0  0  0  0
    8.7267   -0.0154    0.2091 H   0  0  0  0  0  0  0  0  0  0  0  0
    7.4307    1.1632   -0.0279 H   0  0  0  0  0  0  0  0  0  0  0  0
    7.7324   -0.1357   -1.2475 H   0  0  0  0  0  0  0  0  0  0  0  0
    5.5305    0.7392   -1.3942 H   0  0  0  0  0  0  0  0  0  0  0  0
    3.1353    0.5976   -1.8156 H   0  0  0  0  0  0  0  0  0  0  0  0
    0.9087   -1.9834   -0.3488 H   0  0  0  0  0  0  0  0  0  0  0  0
    1.0717   -0.8088   -1.6188 H   0  0  0  0  0  0  0  0  0  0  0  0
    0.6602   -0.1441    1.3536 H   0  0  0  0  0  0  0  0  0  0  0  0
    0.8249    1.0631    0.0453 H   0  0  0  0  0  0  0  0  0  0  0  0
   -2.7850   -1.0443   -1.1691 H   0  0  0  0  0  0  0  0  0  0  0  0
   -5.1477   -1.3545   -1.7049 H   0  0  0  0  0  0  0  0  0  0  0  0
   -7.8623    0.6523   -0.4660 H   0  0  0  0  0  0  0  0  0  0  0  0
   -7.3779   -0.5142   -1.5808 H   0  0  0  0  0  0  0  0  0  0  0  0
   -3.8068    2.0333    1.6747 H   0  0  0  0  0  0  0  0  0  0  0  0
    2.7474   -2.3691    1.2920 H   0  0  0  0  0  0  0  0  0  0  0  0
    5.1699   -2.2225    1.7137 H   0  0  0  0  0  0  0  0  0  0  0  0
  1  2  1  0
  2  3  1  0
  3  4  2  0
  4  5  1  0
  5  6  2  0
  6  7  1  0
  7  8  1  0
  8  9  1  0
  9 10  1  0
 10 11  2  0
 10 12  1  0
 12 13  2  0
 13 14  1  0
 14 15  2  0
 15 16  1  0
 15 17  1  0
 17 18  1  0
 18 19  2  0
 18 20  1  0
 17 21  2  0
  6 22  1  0
 22 23  2  0
 23  3  1  0
 21 12  1  0
  1 24  1  0
  1 25  1  0
  1 26  1  0
  4 27  1  0
  5 28  1  0
  7 29  1  0
  7 30  1  0
  8 31  1  0
  8 32  1  0
 13 33  1  0
 14 34  1  0
 16 35  1  0
 16 36  1  0
 21 37  1  0
 22 38  1  0
 23 39  1  0
M  CHG  2  18   1  20  -1
M  END
$$$$
