
     RDKit          3D

 37 38  0  0  0  0  0  0  0  0999 V2000
    3.4102   -2.7273    0.8192 C   0  0  0  0  0  0  0  0  0  0  0  0
    2.2076   -1.9451    0.9249 N   0  0  0  0  0  0  0  0  0  0  0  0
    1.7463   -1.2066   -0.1370 C   0  0  0  0  0  0  0  0  0  0  0  0
    2.2124   -1.2804   -1.2688 O   0  0  0  0  0  0  0  0  0  0  0  0
    0.6829   -0.3940    0.1898 N   0  0  0  0  0  0  0  0  0  0  0  0
    0.3989   -0.2238    1.5677 O   0  0  0  0  0  0  0  0  0  0  0  0
    0.2416    0.7058   -0.6857 C   0  0  0  0  0  0  0  0  0  0  0  0
   -1.1682    1.0940   -0.5028 N   0  0  0  0  0  0  0  0  0  0  0  0
   -2.1663    0.0955   -0.2775 C   0  0  0  0  0  0  0  0  0  0  0  0
   -3.2421    0.3522    0.5829 C   0  0  0  0  0  0  0  0  0  0  0  0
   -4.1954   -0.6336    0.8532 C   0  0  0  0  0  0  0  0  0  0  0  0
   -4.0805   -1.8936    0.2737 C   0  0  0  0  0  0  0  0  0  0  0  0
   -3.0108   -2.1695   -0.5728 C   0  0  0  0  0  0  0  0  0  0  0  0
   -2.0573   -1.1837   -0.8428 C   0  0  0  0  0  0  0  0  0  0  0  0
   -1.4553    2.3899   -0.9519 C   0  0  0  0  0  0  0  0  0  0  0  0
   -2.9262    3.1354   -1.2264 S   0  0  0  0  0  0  0  0  0  0  0  0
    0.0421    3.2510   -1.3229 S   0  0  0  0  0  0  0  0  0  0  0  0
    1.1175    1.9828   -0.5673 C   0  0  0  0  0  0  0  0  0  0  0  0
    1.4167    2.4382    0.8667 C   0  0  0  0  0  0  0  0  0  0  0  0
    2.4172    1.9039   -1.3717 C   0  0  0  0  0  0  0  0  0  0  0  0
    3.3906   -3.3239   -0.0968 H   0  0  0  0  0  0  0  0  0  0  0  0
    4.2694   -2.0516    0.7935 H   0  0  0  0  0  0  0  0  0  0  0  0
    3.4776   -3.3817    1.6911 H   0  0  0  0  0  0  0  0  0  0  0  0
    1.9608   -1.5415    1.8210 H   0  0  0  0  0  0  0  0  0  0  0  0
   -0.4508   -0.7037    1.6395 H   0  0  0  0  0  0  0  0  0  0  0  0
    0.3181    0.3383   -1.7202 H   0  0  0  0  0  0  0  0  0  0  0  0
   -3.3415    1.3122    1.0838 H   0  0  0  0  0  0  0  0  0  0  0  0
   -5.0263   -0.4143    1.5194 H   0  0  0  0  0  0  0  0  0  0  0  0
   -4.8251   -2.6585    0.4796 H   0  0  0  0  0  0  0  0  0  0  0  0
   -2.9207   -3.1510   -1.0322 H   0  0  0  0  0  0  0  0  0  0  0  0
   -1.2504   -1.4333   -1.5273 H   0  0  0  0  0  0  0  0  0  0  0  0
    0.5109    2.5023    1.4805 H   0  0  0  0  0  0  0  0  0  0  0  0
    2.1060    1.7455    1.3625 H   0  0  0  0  0  0  0  0  0  0  0  0
    1.9011    3.4224    0.8841 H   0  0  0  0  0  0  0  0  0  0  0  0
    2.9293    2.8730   -1.4088 H   0  0  0  0  0  0  0  0  0  0  0  0
    3.1179    1.1961   -0.9167 H   0  0  0  0  0  0  0  0  0  0  0  0
    2.2419    1.5782   -2.4035 H   0  0  0  0  0  0  0  0  0  0  0  0
  1  2  1  0
  2  3  1  0
  3  4  2  0
  3  5  1  0
  5  6  1  0
  5  7  1  0
  7  8  1  0
  8  9  1  0
  9 10  2  0
 10 11  1  0
 11 12  2  0
 12 13  1  0
 13 14  2  0
  8 15  1  0
 15 16  2  0
 15 17  1  0
 17 18  1  0
 18 19  1  0
 18 20  1  0
 18  7  1  0
 14  9  1  0
  1 21  1  0
  1 22  1  0
  1 23  1  0
  2 24  1  0
  6 25  1  0
  7 26  1  0
 10 27  1  0
 11 28  1  0
 12 29  1  0
 13 30  1  0
 14 31  1  0
 19 32  1  0
 19 33  1  0
 19 34  1  0
 20 35  1  0
 20 36  1  0
 20 37  1  0
M  END
$$$$
