
     RDKit          3D

 53 56  0  0  0  0  0  0  0  0999 V2000
    6.3836   -1.6409    1.6382 C   0  0  0  0  0  0  0  0  0  0  0  0
    5.4714   -0.6349    2.0591 O   0  0  0  0  0  0  0  0  0  0  0  0
    4.3003   -0.5692    1.2401 C   0  0  0  0  0  0  0  0  0  0  0  0
    4.5347    0.3130    0.0156 C   0  0  0  0  0  0  0  0  0  0  0  0
    3.3349    0.4386   -0.8046 N   0  0  0  0  0  0  0  0  0  0  0  0
    3.0491   -0.3597   -1.8928 C   0  0  0  0  0  0  0  0  0  0  0  0
    3.9579   -1.4199   -2.4126 C   0  0  0  0  0  0  0  0  0  0  0  0
    1.8116    0.0190   -2.3622 C   0  0  0  0  0  0  0  0  0  0  0  0
    1.3092    1.0686   -1.5390 C   0  0  0  0  0  0  0  0  0  0  0  0
   -0.0123    1.6940   -1.7207 C   0  0  0  0  0  0  0  0  0  0  0  0
   -0.5477    1.6739   -2.8316 O   0  0  0  0  0  0  0  0  0  0  0  0
   -0.6793    2.3770   -0.5376 C   0  0  0  0  0  0  0  0  0  0  0  0
   -2.4783    2.0851   -0.4840 S   0  0  0  0  0  0  0  0  0  0  0  0
   -2.5075    0.3885    0.0240 C   0  0  0  0  0  0  0  0  0  0  0  0
   -1.3635   -0.3257    0.0120 N   0  0  0  0  0  0  0  0  0  0  0  0
   -1.3914   -1.6125    0.4035 C   0  0  0  0  0  0  0  0  0  0  0  0
   -0.0874   -2.3464    0.3687 C   0  0  0  0  0  0  0  0  0  0  0  0
   -2.4664   -2.2800    0.8396 N   0  0  0  0  0  0  0  0  0  0  0  0
   -3.5841   -1.5344    0.8520 C   0  0  0  0  0  0  0  0  0  0  0  0
   -5.0662   -2.2121    1.4076 S   0  0  0  0  0  0  0  0  0  0  0  0
   -5.8495   -0.7630    1.1358 C   0  0  0  0  0  0  0  0  0  0  0  0
   -5.0489    0.2210    0.6216 C   0  0  0  0  0  0  0  0  0  0  0  0
   -3.6997   -0.2002    0.4583 C   0  0  0  0  0  0  0  0  0  0  0  0
   -5.8248    1.4703    0.4027 C   0  0  0  0  0  0  0  0  0  0  0  0
   -7.2997    0.9819    0.5562 C   0  0  0  0  0  0  0  0  0  0  0  0
   -7.2531   -0.3516    1.3606 C   0  0  0  0  0  0  0  0  0  0  0  0
    2.3120    1.3564   -0.6112 C   0  0  0  0  0  0  0  0  0  0  0  0
    2.3861    2.4220    0.4330 C   0  0  0  0  0  0  0  0  0  0  0  0
    5.9245   -2.6299    1.7224 H   0  0  0  0  0  0  0  0  0  0  0  0
    7.2593   -1.6066    2.2945 H   0  0  0  0  0  0  0  0  0  0  0  0
    6.7138   -1.4682    0.6095 H   0  0  0  0  0  0  0  0  0  0  0  0
    3.5068   -0.1370    1.8570 H   0  0  0  0  0  0  0  0  0  0  0  0
    3.9658   -1.5782    0.9620 H   0  0  0  0  0  0  0  0  0  0  0  0
    5.3431   -0.0839   -0.6084 H   0  0  0  0  0  0  0  0  0  0  0  0
    4.8728    1.3108    0.3103 H   0  0  0  0  0  0  0  0  0  0  0  0
    3.4814   -1.9756   -3.2311 H   0  0  0  0  0  0  0  0  0  0  0  0
    4.8831   -0.9770   -2.8005 H   0  0  0  0  0  0  0  0  0  0  0  0
    4.2132   -2.1371   -1.6249 H   0  0  0  0  0  0  0  0  0  0  0  0
    1.2917   -0.4225   -3.2070 H   0  0  0  0  0  0  0  0  0  0  0  0
   -0.2546    2.0467    0.4134 H   0  0  0  0  0  0  0  0  0  0  0  0
   -0.5084    3.4542   -0.6346 H   0  0  0  0  0  0  0  0  0  0  0  0
    0.2822   -2.4007   -0.6601 H   0  0  0  0  0  0  0  0  0  0  0  0
    0.6503   -1.8203    0.9836 H   0  0  0  0  0  0  0  0  0  0  0  0
   -0.1959   -3.3657    0.7518 H   0  0  0  0  0  0  0  0  0  0  0  0
   -5.6635    1.9054   -0.5877 H   0  0  0  0  0  0  0  0  0  0  0  0
   -5.5856    2.2128    1.1741 H   0  0  0  0  0  0  0  0  0  0  0  0
   -7.9378    1.7335    1.0340 H   0  0  0  0  0  0  0  0  0  0  0  0
   -7.7158    0.7832   -0.4385 H   0  0  0  0  0  0  0  0  0  0  0  0
   -7.4356   -0.1623    2.4257 H   0  0  0  0  0  0  0  0  0  0  0  0
   -7.9884   -1.0689    0.9856 H   0  0  0  0  0  0  0  0  0  0  0  0
    2.0094    2.0423    1.3877 H   0  0  0  0  0  0  0  0  0  0  0  0
    1.7935    3.2955    0.1447 H   0  0  0  0  0  0  0  0  0  0  0  0
    3.4036    2.7906    0.5834 H   0  0  0  0  0  0  0  0  0  0  0  0
  1  2  1  0
  2  3  1  0
  3  4  1  0
  4  5  1  0
  5  6  1  0
  6  7  1  0
  6  8  2  0
  8  9  1  0
  9 10  1  0
 10 11  2  0
 10 12  1  0
 12 13  1  0
 13 14  1  0
 14 15  2  0
 15 16  1  0
 16 17  1  0
 16 18  2  0
 18 19  1  0
 19 20  1  0
 20 21  1  0
 21 22  2  0
 22 23  1  0
 22 24  1  0
 24 25  1  0
 25 26  1  0
  9 27  2  0
 27 28  1  0
 27  5  1  0
 23 14  1  0
 23 19  2  0
 26 21  1  0
  1 29  1  0
  1 30  1  0
  1 31  1  0
  3 32  1  0
  3 33  1  0
  4 34  1  0
  4 35  1  0
  7 36  1  0
  7 37  1  0
  7 38  1  0
  8 39  1  0
 12 40  1  0
 12 41  1  0
 17 42  1  0
 17 43  1  0
 17 44  1  0
 24 45  1  0
 24 46  1  0
 25 47  1  0
 25 48  1  0
 26 49  1  0
 26 50  1  0
 28 51  1  0
 28 52  1  0
 28 53  1  0
M  END
$$$$
