
     RDKit          3D

 42 45  0  0  0  0  0  0  0  0999 V2000
    1.1507    2.8052   -0.1799 O   0  0  0  0  0  0  0  0  0  0  0  0
    0.3159    2.1308    0.4096 C   0  0  0  0  0  0  0  0  0  0  0  0
   -0.8920    2.6749    0.7311 N   0  0  0  0  0  0  0  0  0  0  0  0
   -2.0432    2.0021    1.0102 C   0  0  0  0  0  0  0  0  0  0  0  0
   -3.0989    2.6315    1.0529 O   0  0  0  0  0  0  0  0  0  0  0  0
   -1.9303    0.6448    1.2334 N   0  0  0  0  0  0  0  0  0  0  0  0
   -3.1572   -0.1150    1.4839 C   0  0  0  0  0  0  0  0  0  0  0  0
   -3.6179   -0.8832    0.2375 C   0  0  0  0  0  0  0  0  0  0  0  0
   -4.9092   -1.6547    0.4615 C   0  0  0  0  0  0  0  0  0  0  0  0
   -5.4622   -1.7369   -0.9392 C   0  0  0  0  0  0  0  0  0  0  0  0
   -5.0967   -0.3791   -1.4988 C   0  0  0  0  0  0  0  0  0  0  0  0
   -3.8784    0.0211   -0.8549 O   0  0  0  0  0  0  0  0  0  0  0  0
   -0.7425   -0.0669    1.1710 C   0  0  0  0  0  0  0  0  0  0  0  0
   -0.6855   -1.2734    1.4130 O   0  0  0  0  0  0  0  0  0  0  0  0
    0.4712    0.7108    0.7912 C   0  0  0  0  0  0  0  0  0  0  0  0
    1.6402    0.0371    0.8069 C   0  0  0  0  0  0  0  0  0  0  0  0
    2.9677    0.4965    0.5518 C   0  0  0  0  0  0  0  0  0  0  0  0
    3.5391    1.6451    1.0509 C   0  0  0  0  0  0  0  0  0  0  0  0
    4.8286    1.7077    0.5912 N   0  0  0  0  0  0  0  0  0  0  0  0
    5.1267    0.5878   -0.1508 C   0  0  0  0  0  0  0  0  0  0  0  0
    6.3189    0.2173   -0.7847 C   0  0  0  0  0  0  0  0  0  0  0  0
    6.3343   -0.9962   -1.4783 C   0  0  0  0  0  0  0  0  0  0  0  0
    5.2013   -1.8040   -1.5360 C   0  0  0  0  0  0  0  0  0  0  0  0
    4.0165   -1.4176   -0.8986 C   0  0  0  0  0  0  0  0  0  0  0  0
    3.9732   -0.1979   -0.1897 C   0  0  0  0  0  0  0  0  0  0  0  0
   -1.0219    3.6380    0.4555 H   0  0  0  0  0  0  0  0  0  0  0  0
   -3.9490    0.5677    1.8120 H   0  0  0  0  0  0  0  0  0  0  0  0
   -2.9736   -0.8196    2.3040 H   0  0  0  0  0  0  0  0  0  0  0  0
   -2.8339   -1.5681   -0.1072 H   0  0  0  0  0  0  0  0  0  0  0  0
   -4.7443   -2.6329    0.9216 H   0  0  0  0  0  0  0  0  0  0  0  0
   -5.6015   -1.0889    1.0966 H   0  0  0  0  0  0  0  0  0  0  0  0
   -4.9429   -2.5246   -1.4978 H   0  0  0  0  0  0  0  0  0  0  0  0
   -6.5355   -1.9398   -0.9777 H   0  0  0  0  0  0  0  0  0  0  0  0
   -5.8608    0.3677   -1.2585 H   0  0  0  0  0  0  0  0  0  0  0  0
   -4.9528   -0.3958   -2.5827 H   0  0  0  0  0  0  0  0  0  0  0  0
    1.6053   -1.0264    1.0477 H   0  0  0  0  0  0  0  0  0  0  0  0
    3.1448    2.4377    1.6721 H   0  0  0  0  0  0  0  0  0  0  0  0
    5.4760    2.4604    0.7781 H   0  0  0  0  0  0  0  0  0  0  0  0
    7.2028    0.8451   -0.7435 H   0  0  0  0  0  0  0  0  0  0  0  0
    7.2450   -1.3123   -1.9819 H   0  0  0  0  0  0  0  0  0  0  0  0
    5.2341   -2.7428   -2.0832 H   0  0  0  0  0  0  0  0  0  0  0  0
    3.1379   -2.0532   -0.9559 H   0  0  0  0  0  0  0  0  0  0  0  0
  1  2  2  0
  2  3  1  0
  3  4  1  0
  4  5  2  0
  4  6  1  0
  6  7  1  0
  7  8  1  0
  8  9  1  0
  9 10  1  0
 10 11  1  0
 11 12  1  0
  6 13  1  0
 13 14  2  0
 13 15  1  0
 15 16  2  3
 16 17  1  0
 17 18  2  0
 18 19  1  0
 19 20  1  0
 20 21  2  0
 21 22  1  0
 22 23  2  0
 23 24  1  0
 24 25  2  0
 15  2  1  0
 25 17  1  0
 12  8  1  0
 25 20  1  0
  3 26  1  0
  7 27  1  0
  7 28  1  0
  8 29  1  0
  9 30  1  0
  9 31  1  0
 10 32  1  0
 10 33  1  0
 11 34  1  0
 11 35  1  0
 16 36  1  0
 18 37  1  0
 19 38  1  0
 21 39  1  0
 22 40  1  0
 23 41  1  0
 24 42  1  0
M  END
$$$$
