
     RDKit          3D

 43 45  0  0  0  0  0  0  0  0999 V2000
    5.5785    2.1789   -0.7393 C   0  0  0  0  0  0  0  0  0  0  0  0
    4.8519    0.8498   -0.6011 C   0  0  0  0  0  0  0  0  0  0  0  0
    3.8237    0.6578   -1.7170 C   0  0  0  0  0  0  0  0  0  0  0  0
    3.1260   -0.7058   -1.6736 C   0  0  0  0  0  0  0  0  0  0  0  0
    2.3117   -0.9276   -0.4805 N   0  0  0  0  0  0  0  0  0  0  0  0
    1.1021   -0.1343   -0.3283 C   0  0  0  0  0  0  0  0  0  0  0  0
    0.2055   -0.6076    0.7644 C   0  0  0  0  0  0  0  0  0  0  0  0
   -1.1246   -0.1885    0.8820 C   0  0  0  0  0  0  0  0  0  0  0  0
   -1.8848   -0.6253    1.9685 C   0  0  0  0  0  0  0  0  0  0  0  0
   -3.2904   -0.2215    2.1923 C   0  0  0  0  0  0  0  0  0  0  0  0
   -3.7292   -0.1818    3.3395 O   0  0  0  0  0  0  0  0  0  0  0  0
   -4.1817    0.1811    1.0817 C   0  0  0  0  0  0  0  0  0  0  0  0
   -4.9520    1.3356    1.2591 C   0  0  0  0  0  0  0  0  0  0  0  0
   -5.8145    1.7409    0.2487 C   0  0  0  0  0  0  0  0  0  0  0  0
   -6.5385    2.8562    0.4070 F   0  0  0  0  0  0  0  0  0  0  0  0
   -5.9375    1.0084   -0.9284 C   0  0  0  0  0  0  0  0  0  0  0  0
   -5.1911   -0.1590   -1.1008 C   0  0  0  0  0  0  0  0  0  0  0  0
   -4.3185   -0.5740   -0.0922 C   0  0  0  0  0  0  0  0  0  0  0  0
   -3.6097   -1.7307   -0.2500 O   0  0  0  0  0  0  0  0  0  0  0  0
   -1.2612   -1.4301    2.9137 C   0  0  0  0  0  0  0  0  0  0  0  0
    0.0295   -1.8406    2.8271 N   0  0  0  0  0  0  0  0  0  0  0  0
    0.7253   -1.4259    1.7511 C   0  0  0  0  0  0  0  0  0  0  0  0
    2.0325   -1.8545    1.6431 N   0  0  0  0  0  0  0  0  0  0  0  0
    2.8343   -1.6670    0.5626 C   0  0  0  0  0  0  0  0  0  0  0  0
    3.9547   -2.1735    0.5407 O   0  0  0  0  0  0  0  0  0  0  0  0
    6.1181    2.2345   -1.6900 H   0  0  0  0  0  0  0  0  0  0  0  0
    6.3045    2.3006    0.0709 H   0  0  0  0  0  0  0  0  0  0  0  0
    4.8744    3.0164   -0.6940 H   0  0  0  0  0  0  0  0  0  0  0  0
    4.3598    0.8194    0.3771 H   0  0  0  0  0  0  0  0  0  0  0  0
    5.5860    0.0368   -0.6251 H   0  0  0  0  0  0  0  0  0  0  0  0
    3.0807    1.4624   -1.6733 H   0  0  0  0  0  0  0  0  0  0  0  0
    4.3272    0.7503   -2.6877 H   0  0  0  0  0  0  0  0  0  0  0  0
    3.8760   -1.5004   -1.7643 H   0  0  0  0  0  0  0  0  0  0  0  0
    2.4628   -0.8030   -2.5420 H   0  0  0  0  0  0  0  0  0  0  0  0
    1.3982    0.9006   -0.1226 H   0  0  0  0  0  0  0  0  0  0  0  0
    0.5614   -0.1667   -1.2825 H   0  0  0  0  0  0  0  0  0  0  0  0
   -1.5474    0.4778    0.1364 H   0  0  0  0  0  0  0  0  0  0  0  0
   -4.8860    1.9176    2.1744 H   0  0  0  0  0  0  0  0  0  0  0  0
   -6.6235    1.3481   -1.6990 H   0  0  0  0  0  0  0  0  0  0  0  0
   -5.3072   -0.7298   -2.0186 H   0  0  0  0  0  0  0  0  0  0  0  0
   -3.9140   -2.1974   -1.0471 H   0  0  0  0  0  0  0  0  0  0  0  0
   -1.7940   -1.7802    3.7952 H   0  0  0  0  0  0  0  0  0  0  0  0
    2.3808   -2.4478    2.3802 H   0  0  0  0  0  0  0  0  0  0  0  0
  1  2  1  0
  2  3  1  0
  3  4  1  0
  4  5  1  0
  5  6  1  0
  6  7  1  0
  7  8  2  0
  8  9  1  0
  9 10  1  0
 10 11  2  0
 10 12  1  0
 12 13  2  0
 13 14  1  0
 14 15  1  0
 14 16  2  0
 16 17  1  0
 17 18  2  0
 18 19  1  0
  9 20  2  0
 20 21  1  0
 21 22  2  0
 22 23  1  0
 23 24  1  0
 24 25  2  0
 24  5  1  0
 22  7  1  0
 18 12  1  0
  1 26  1  0
  1 27  1  0
  1 28  1  0
  2 29  1  0
  2 30  1  0
  3 31  1  0
  3 32  1  0
  4 33  1  0
  4 34  1  0
  6 35  1  0
  6 36  1  0
  8 37  1  0
 13 38  1  0
 16 39  1  0
 17 40  1  0
 19 41  1  0
 20 42  1  0
 23 43  1  0
M  END
$$$$
