
     RDKit          3D

 48 51  0  0  0  0  0  0  0  0999 V2000
    4.3384    2.7047   -2.4299 C   0  0  0  0  0  0  0  0  0  0  0  0
    4.8147    2.2292   -1.1077 C   0  0  0  0  0  0  0  0  0  0  0  0
    4.9302    2.9804   -0.0328 N   0  0  0  0  0  0  0  0  0  0  0  0
    5.3986    2.2619    1.0516 N   0  0  0  0  0  0  0  0  0  0  0  0
    5.6020    0.9963    0.7549 C   0  0  0  0  0  0  0  0  0  0  0  0
    6.1998   -0.1572    1.9221 S   0  0  0  0  0  0  0  0  0  0  0  0
    4.9946    0.1006    3.2591 C   0  0  0  0  0  0  0  0  0  0  0  0
    3.6866   -0.5941    2.9451 C   0  0  0  0  0  0  0  0  0  0  0  0
    3.3813   -1.7724    3.5082 C   0  0  0  0  0  0  0  0  0  0  0  0
    2.0949   -2.3901    3.1664 C   0  0  0  0  0  0  0  0  0  0  0  0
    1.7575   -3.4660    3.6449 O   0  0  0  0  0  0  0  0  0  0  0  0
    1.3316   -1.6773    2.2953 N   0  0  0  0  0  0  0  0  0  0  0  0
    1.7016   -0.4660    1.7788 C   0  0  0  0  0  0  0  0  0  0  0  0
    0.8740    0.1925    0.9287 N   0  0  0  0  0  0  0  0  0  0  0  0
   -0.3714   -0.1741    0.4523 C   0  0  0  0  0  0  0  0  0  0  0  0
   -0.9229   -1.3395    0.8269 N   0  0  0  0  0  0  0  0  0  0  0  0
   -2.1426   -1.6481    0.3314 C   0  0  0  0  0  0  0  0  0  0  0  0
   -2.7098   -2.9625    0.7868 C   0  0  0  0  0  0  0  0  0  0  0  0
   -2.8359   -0.8067   -0.5449 C   0  0  0  0  0  0  0  0  0  0  0  0
   -4.1137   -1.0686   -1.0991 C   0  0  0  0  0  0  0  0  0  0  0  0
   -4.7315   -0.1614   -1.9708 C   0  0  0  0  0  0  0  0  0  0  0  0
   -6.0885   -0.4792   -2.5360 C   0  0  0  0  0  0  0  0  0  0  0  0
   -4.0596    1.0263   -2.2944 C   0  0  0  0  0  0  0  0  0  0  0  0
   -4.6619    2.0463   -3.2215 C   0  0  0  0  0  0  0  0  0  0  0  0
   -2.7923    1.2685   -1.7339 C   0  0  0  0  0  0  0  0  0  0  0  0
   -2.1704    0.3769   -0.8687 C   0  0  0  0  0  0  0  0  0  0  0  0
   -0.9620    0.6886   -0.3826 N   0  0  0  0  0  0  0  0  0  0  0  0
    2.8430    0.0767    2.0877 N   0  0  0  0  0  0  0  0  0  0  0  0
    5.2737    0.5898   -0.8766 S   0  0  0  0  0  0  0  0  0  0  0  0
    5.1064    2.5605   -3.1964 H   0  0  0  0  0  0  0  0  0  0  0  0
    3.4336    2.1687   -2.7336 H   0  0  0  0  0  0  0  0  0  0  0  0
    4.0993    3.7722   -2.3899 H   0  0  0  0  0  0  0  0  0  0  0  0
    5.4346   -0.3103    4.1750 H   0  0  0  0  0  0  0  0  0  0  0  0
    4.8337    1.1678    3.4479 H   0  0  0  0  0  0  0  0  0  0  0  0
    4.0270   -2.3067    4.1907 H   0  0  0  0  0  0  0  0  0  0  0  0
    0.4314   -2.0588    2.0291 H   0  0  0  0  0  0  0  0  0  0  0  0
    1.1780    1.0913    0.5900 H   0  0  0  0  0  0  0  0  0  0  0  0
   -3.6505   -2.8074    1.3241 H   0  0  0  0  0  0  0  0  0  0  0  0
   -2.8800   -3.6228   -0.0692 H   0  0  0  0  0  0  0  0  0  0  0  0
   -2.0168   -3.4696    1.4667 H   0  0  0  0  0  0  0  0  0  0  0  0
   -4.6330   -1.9911   -0.8468 H   0  0  0  0  0  0  0  0  0  0  0  0
   -6.0404   -0.5417   -3.6277 H   0  0  0  0  0  0  0  0  0  0  0  0
   -6.8115    0.2894   -2.2450 H   0  0  0  0  0  0  0  0  0  0  0  0
   -6.4634   -1.4398   -2.1668 H   0  0  0  0  0  0  0  0  0  0  0  0
   -4.8496    1.6031   -4.2045 H   0  0  0  0  0  0  0  0  0  0  0  0
   -5.6003    2.4286   -2.8074 H   0  0  0  0  0  0  0  0  0  0  0  0
   -3.9935    2.9013   -3.3685 H   0  0  0  0  0  0  0  0  0  0  0  0
   -2.2653    2.1898   -1.9788 H   0  0  0  0  0  0  0  0  0  0  0  0
  1  2  1  0
  2  3  2  0
  3  4  1  0
  4  5  2  0
  5  6  1  0
  6  7  1  0
  7  8  1  0
  8  9  2  0
  9 10  1  0
 10 11  2  0
 10 12  1  0
 12 13  1  0
 13 14  1  0
 14 15  1  0
 15 16  2  0
 16 17  1  0
 17 18  1  0
 17 19  2  0
 19 20  1  0
 20 21  2  0
 21 22  1  0
 21 23  1  0
 23 24  1  0
 23 25  2  0
 25 26  1  0
 26 27  2  0
 13 28  2  0
  5 29  1  0
 29  2  1  0
 28  8  1  0
 27 15  1  0
 26 19  1  0
  1 30  1  0
  1 31  1  0
  1 32  1  0
  7 33  1  0
  7 34  1  0
  9 35  1  0
 12 36  1  0
 14 37  1  0
 18 38  1  0
 18 39  1  0
 18 40  1  0
 20 41  1  0
 22 42  1  0
 22 43  1  0
 22 44  1  0
 24 45  1  0
 24 46  1  0
 24 47  1  0
 25 48  1  0
M  END
$$$$
