
     RDKit          3D

 54 56  0  0  0  0  0  0  0  0999 V2000
   -3.7484   -2.3896    2.6814 C   0  0  0  0  0  0  0  0  0  0  0  0
   -3.4041   -2.3318    1.2055 C   0  0  0  0  0  0  0  0  0  0  0  0
   -2.3099   -1.4277    0.9971 O   0  0  0  0  0  0  0  0  0  0  0  0
   -2.6385   -0.1192    0.7809 C   0  0  0  0  0  0  0  0  0  0  0  0
   -3.7919    0.2865    0.7229 O   0  0  0  0  0  0  0  0  0  0  0  0
   -1.4531    0.7255    0.6280 C   0  0  0  0  0  0  0  0  0  0  0  0
   -1.4496    1.8649   -0.1686 C   0  0  0  0  0  0  0  0  0  0  0  0
   -2.4511    2.4222   -0.9002 N   0  0  0  0  0  0  0  0  0  0  0  0
   -2.4492    2.1216   -2.1581 C   0  0  0  0  0  0  0  0  0  0  0  0
   -3.3585    2.5587   -3.0968 N   0  0  0  0  0  0  0  0  0  0  0  0
   -3.0338    2.5022   -4.5137 C   0  0  0  0  0  0  0  0  0  0  0  0
   -4.3470    3.5568   -2.7091 C   0  0  0  0  0  0  0  0  0  0  0  0
    0.0748    2.6629   -0.1218 S   0  0  0  0  0  0  0  0  0  0  0  0
    0.7480    1.4910    0.9048 C   0  0  0  0  0  0  0  0  0  0  0  0
    2.1240    1.6464    1.3091 C   0  0  0  0  0  0  0  0  0  0  0  0
    3.1600    1.1456    0.7005 N   0  0  0  0  0  0  0  0  0  0  0  0
    2.9286    0.4377   -0.4402 N   0  0  0  0  0  0  0  0  0  0  0  0
    4.0364   -0.1249   -1.1120 C   0  0  0  0  0  0  0  0  0  0  0  0
    3.8552   -0.6719   -2.3903 C   0  0  0  0  0  0  0  0  0  0  0  0
    4.9099   -1.2985   -3.0621 C   0  0  0  0  0  0  0  0  0  0  0  0
    6.1567   -1.4085   -2.4518 C   0  0  0  0  0  0  0  0  0  0  0  0
    6.3459   -0.8983   -1.1702 C   0  0  0  0  0  0  0  0  0  0  0  0
    5.2882   -0.2727   -0.5022 C   0  0  0  0  0  0  0  0  0  0  0  0
   -0.1630    0.5165    1.2587 C   0  0  0  0  0  0  0  0  0  0  0  0
    0.1872   -0.5116    2.2322 C   0  0  0  0  0  0  0  0  0  0  0  0
    1.0309   -1.5717    1.8792 C   0  0  0  0  0  0  0  0  0  0  0  0
    1.3474   -2.5568    2.8180 C   0  0  0  0  0  0  0  0  0  0  0  0
    0.8211   -2.4812    4.1071 C   0  0  0  0  0  0  0  0  0  0  0  0
    1.2063   -3.6984    5.2603 Cl  0  0  0  0  0  0  0  0  0  0  0  0
   -0.0173   -1.4272    4.4681 C   0  0  0  0  0  0  0  0  0  0  0  0
   -0.3362   -0.4422    3.5303 C   0  0  0  0  0  0  0  0  0  0  0  0
   -4.5714   -3.0861    2.8623 H   0  0  0  0  0  0  0  0  0  0  0  0
   -4.0322   -1.4015    3.0586 H   0  0  0  0  0  0  0  0  0  0  0  0
   -2.8796   -2.7130    3.2650 H   0  0  0  0  0  0  0  0  0  0  0  0
   -3.0720   -3.3179    0.8667 H   0  0  0  0  0  0  0  0  0  0  0  0
   -4.2747   -2.0603    0.5996 H   0  0  0  0  0  0  0  0  0  0  0  0
   -1.6805    1.4568   -2.5990 H   0  0  0  0  0  0  0  0  0  0  0  0
   -2.4213    3.3643   -4.7966 H   0  0  0  0  0  0  0  0  0  0  0  0
   -2.4818    1.5878   -4.7585 H   0  0  0  0  0  0  0  0  0  0  0  0
   -3.9431    2.5033   -5.1238 H   0  0  0  0  0  0  0  0  0  0  0  0
   -3.8699    4.5295   -2.5596 H   0  0  0  0  0  0  0  0  0  0  0  0
   -5.1194    3.6666   -3.4778 H   0  0  0  0  0  0  0  0  0  0  0  0
   -4.8536    3.2641   -1.7832 H   0  0  0  0  0  0  0  0  0  0  0  0
    2.3060    2.2293    2.2263 H   0  0  0  0  0  0  0  0  0  0  0  0
    2.2186    0.7878   -1.0832 H   0  0  0  0  0  0  0  0  0  0  0  0
    2.8852   -0.6144   -2.8771 H   0  0  0  0  0  0  0  0  0  0  0  0
    4.7555   -1.7061   -4.0582 H   0  0  0  0  0  0  0  0  0  0  0  0
    6.9779   -1.8974   -2.9696 H   0  0  0  0  0  0  0  0  0  0  0  0
    7.3128   -0.9889   -0.6846 H   0  0  0  0  0  0  0  0  0  0  0  0
    5.4494    0.1085    0.5022 H   0  0  0  0  0  0  0  0  0  0  0  0
    1.4479   -1.6415    0.8761 H   0  0  0  0  0  0  0  0  0  0  0  0
    2.0013   -3.3793    2.5357 H   0  0  0  0  0  0  0  0  0  0  0  0
   -0.4288   -1.3712    5.4722 H   0  0  0  0  0  0  0  0  0  0  0  0
   -0.9953    0.3736    3.8198 H   0  0  0  0  0  0  0  0  0  0  0  0
  1  2  1  0
  2  3  1  0
  3  4  1  0
  4  5  2  0
  4  6  1  0
  6  7  2  0
  7  8  1  0
  8  9  2  3
  9 10  1  0
 10 11  1  0
 10 12  1  0
  7 13  1  0
 13 14  1  0
 14 15  1  0
 15 16  2  3
 16 17  1  0
 17 18  1  0
 18 19  2  0
 19 20  1  0
 20 21  2  0
 21 22  1  0
 22 23  2  0
 14 24  2  0
 24 25  1  0
 25 26  2  0
 26 27  1  0
 27 28  2  0
 28 29  1  0
 28 30  1  0
 30 31  2  0
 24  6  1  0
 31 25  1  0
 23 18  1  0
  1 32  1  0
  1 33  1  0
  1 34  1  0
  2 35  1  0
  2 36  1  0
  9 37  1  0
 11 38  1  0
 11 39  1  0
 11 40  1  0
 12 41  1  0
 12 42  1  0
 12 43  1  0
 15 44  1  0
 17 45  1  0
 19 46  1  0
 20 47  1  0
 21 48  1  0
 22 49  1  0
 23 50  1  0
 26 51  1  0
 27 52  1  0
 30 53  1  0
 31 54  1  0
M  END
$$$$
