
     RDKit          3D

 69 71  0  0  0  0  0  0  0  0999 V2000
    9.7743    2.5793   -0.1866 C   0  0  0  0  0  0  0  0  0  0  0  0
    8.8239    1.4203   -0.4335 C   0  0  0  0  0  0  0  0  0  0  0  0
    7.4423    1.6920    0.1603 C   0  0  0  0  0  0  0  0  0  0  0  0
    6.5312    0.4680    0.0322 C   0  0  0  0  0  0  0  0  0  0  0  0
    5.1440    0.7404    0.6198 C   0  0  0  0  0  0  0  0  0  0  0  0
    4.2559   -0.5073    0.6770 C   0  0  0  0  0  0  0  0  0  0  0  0
    3.9581   -1.1706   -0.6716 C   0  0  0  0  0  0  0  0  0  0  0  0
    3.2770   -0.2737   -1.7098 C   0  0  0  0  0  0  0  0  0  0  0  0
    1.9369    0.3271   -1.2831 C   0  0  0  0  0  0  0  0  0  0  0  0
    0.8768   -0.7219   -0.9510 C   0  0  0  0  0  0  0  0  0  0  0  0
   -0.3769   -0.0741   -0.6548 O   0  0  0  0  0  0  0  0  0  0  0  0
   -1.1736    0.1850   -1.7299 C   0  0  0  0  0  0  0  0  0  0  0  0
   -0.9256   -0.1196   -2.8889 O   0  0  0  0  0  0  0  0  0  0  0  0
   -2.4663    0.8526   -1.2876 C   0  0  0  0  0  0  0  0  0  0  0  0
   -3.5860   -0.1093   -1.2438 N   0  0  0  0  0  0  0  0  0  0  0  0
   -4.0828   -0.6741   -0.1201 C   0  0  0  0  0  0  0  0  0  0  0  0
   -3.5437   -0.5303    1.2947 C   0  0  0  0  0  0  0  0  0  0  0  0
   -4.0735    0.6572    1.8725 O   0  0  0  0  0  0  0  0  0  0  0  0
   -4.3344    0.5538    3.2111 C   0  0  0  0  0  0  0  0  0  0  0  0
   -5.5116    1.1569    3.6572 C   0  0  0  0  0  0  0  0  0  0  0  0
   -5.8593    1.1036    5.0088 C   0  0  0  0  0  0  0  0  0  0  0  0
   -5.0145    0.4638    5.9131 C   0  0  0  0  0  0  0  0  0  0  0  0
   -5.4420    0.3928    7.5770 Cl  0  0  0  0  0  0  0  0  0  0  0  0
   -3.8173   -0.1083    5.4787 C   0  0  0  0  0  0  0  0  0  0  0  0
   -3.4717   -0.0590    4.1233 C   0  0  0  0  0  0  0  0  0  0  0  0
   -5.1852   -1.3717   -0.4830 N   0  0  0  0  0  4  0  0  0  0  0  0
   -6.1067   -2.0231    0.4475 C   0  0  0  0  0  0  0  0  0  0  0  0
   -5.3053   -1.3858   -1.8683 C   0  0  0  0  0  0  0  0  0  0  0  0
   -6.2125   -2.0270   -2.7085 C   0  0  0  0  0  0  0  0  0  0  0  0
   -6.0393   -1.8124   -4.0820 C   0  0  0  0  0  0  0  0  0  0  0  0
   -5.0065   -0.9951   -4.5768 C   0  0  0  0  0  0  0  0  0  0  0  0
   -4.1010   -0.3520   -3.7218 C   0  0  0  0  0  0  0  0  0  0  0  0
   -4.2807   -0.5734   -2.3587 C   0  0  0  0  0  0  0  0  0  0  0  0
   10.7421    2.3834   -0.6589 H   0  0  0  0  0  0  0  0  0  0  0  0
    9.9441    2.7212    0.8860 H   0  0  0  0  0  0  0  0  0  0  0  0
    9.3783    3.5141   -0.5953 H   0  0  0  0  0  0  0  0  0  0  0  0
    8.7329    1.2487   -1.5104 H   0  0  0  0  0  0  0  0  0  0  0  0
    9.2494    0.5116    0.0039 H   0  0  0  0  0  0  0  0  0  0  0  0
    7.5417    1.9685    1.2186 H   0  0  0  0  0  0  0  0  0  0  0  0
    6.9886    2.5482   -0.3556 H   0  0  0  0  0  0  0  0  0  0  0  0
    6.4430    0.1929   -1.0259 H   0  0  0  0  0  0  0  0  0  0  0  0
    6.9888   -0.3814    0.5553 H   0  0  0  0  0  0  0  0  0  0  0  0
    5.2571    1.1198    1.6438 H   0  0  0  0  0  0  0  0  0  0  0  0
    4.6475    1.5341    0.0488 H   0  0  0  0  0  0  0  0  0  0  0  0
    3.3143   -0.2433    1.1716 H   0  0  0  0  0  0  0  0  0  0  0  0
    4.7360   -1.2515    1.3250 H   0  0  0  0  0  0  0  0  0  0  0  0
    3.3364   -2.0563   -0.4940 H   0  0  0  0  0  0  0  0  0  0  0  0
    4.8911   -1.5529   -1.1024 H   0  0  0  0  0  0  0  0  0  0  0  0
    3.9539    0.5415   -1.9905 H   0  0  0  0  0  0  0  0  0  0  0  0
    3.1237   -0.8632   -2.6225 H   0  0  0  0  0  0  0  0  0  0  0  0
    2.0668    0.9985   -0.4248 H   0  0  0  0  0  0  0  0  0  0  0  0
    1.5701    0.9688   -2.0951 H   0  0  0  0  0  0  0  0  0  0  0  0
    1.1538   -1.2817   -0.0509 H   0  0  0  0  0  0  0  0  0  0  0  0
    0.7592   -1.4518   -1.7634 H   0  0  0  0  0  0  0  0  0  0  0  0
   -2.7079    1.6549   -1.9941 H   0  0  0  0  0  0  0  0  0  0  0  0
   -2.3372    1.3305   -0.3118 H   0  0  0  0  0  0  0  0  0  0  0  0
   -2.4544   -0.4725    1.2147 H   0  0  0  0  0  0  0  0  0  0  0  0
   -3.8360   -1.4532    1.8115 H   0  0  0  0  0  0  0  0  0  0  0  0
   -6.1710    1.6661    2.9561 H   0  0  0  0  0  0  0  0  0  0  0  0
   -6.7860    1.5614    5.3485 H   0  0  0  0  0  0  0  0  0  0  0  0
   -3.1530   -0.5905    6.1910 H   0  0  0  0  0  0  0  0  0  0  0  0
   -2.5186   -0.4775    3.8138 H   0  0  0  0  0  0  0  0  0  0  0  0
   -5.7400   -3.0302    0.6629 H   0  0  0  0  0  0  0  0  0  0  0  0
   -7.1086   -2.0778    0.0135 H   0  0  0  0  0  0  0  0  0  0  0  0
   -6.1771   -1.4420    1.3714 H   0  0  0  0  0  0  0  0  0  0  0  0
   -7.0043   -2.6582   -2.3263 H   0  0  0  0  0  0  0  0  0  0  0  0
   -6.7179   -2.2893   -4.7899 H   0  0  0  0  0  0  0  0  0  0  0  0
   -4.9093   -0.8637   -5.6560 H   0  0  0  0  0  0  0  0  0  0  0  0
   -3.3015    0.2685   -4.1063 H   0  0  0  0  0  0  0  0  0  0  0  0
  1  2  1  0
  2  3  1  0
  3  4  1  0
  4  5  1  0
  5  6  1  0
  6  7  1  0
  7  8  1  0
  8  9  1  0
  9 10  1  0
 10 11  1  0
 11 12  1  0
 12 13  2  0
 12 14  1  0
 14 15  1  0
 15 16  1  0
 16 17  1  0
 17 18  1  0
 18 19  1  0
 19 20  2  0
 20 21  1  0
 21 22  2  0
 22 23  1  0
 22 24  1  0
 24 25  2  0
 16 26  2  0
 26 27  1  0
 26 28  1  0
 28 29  2  0
 29 30  1  0
 30 31  2  0
 31 32  1  0
 32 33  2  0
 33 15  1  0
 25 19  1  0
 33 28  1  0
  1 34  1  0
  1 35  1  0
  1 36  1  0
  2 37  1  0
  2 38  1  0
  3 39  1  0
  3 40  1  0
  4 41  1  0
  4 42  1  0
  5 43  1  0
  5 44  1  0
  6 45  1  0
  6 46  1  0
  7 47  1  0
  7 48  1  0
  8 49  1  0
  8 50  1  0
  9 51  1  0
  9 52  1  0
 10 53  1  0
 10 54  1  0
 14 55  1  0
 14 56  1  0
 17 57  1  0
 17 58  1  0
 20 59  1  0
 21 60  1  0
 24 61  1  0
 25 62  1  0
 27 63  1  0
 27 64  1  0
 27 65  1  0
 29 66  1  0
 30 67  1  0
 31 68  1  0
 32 69  1  0
M  CHG  1  26   1
M  END
$$$$
