
     RDKit          3D

 49 52  0  0  0  0  0  0  0  0999 V2000
   -5.8676    3.8906   -0.0316 C   0  0  0  0  0  0  0  0  0  0  0  0
   -4.8649    2.8945    0.5227 C   0  0  0  0  0  0  0  0  0  0  0  0
   -4.4238    2.0694   -0.5539 O   0  0  0  0  0  0  0  0  0  0  0  0
   -3.5062    1.0994   -0.2584 C   0  0  0  0  0  0  0  0  0  0  0  0
   -3.1028    0.3273   -1.3504 C   0  0  0  0  0  0  0  0  0  0  0  0
   -2.1691   -0.7000   -1.1928 C   0  0  0  0  0  0  0  0  0  0  0  0
   -1.6323   -0.9703    0.0691 C   0  0  0  0  0  0  0  0  0  0  0  0
   -0.6541   -2.0359    0.2397 C   0  0  0  0  0  0  0  0  0  0  0  0
    0.7333   -1.9860    0.2047 C   0  0  0  0  0  0  0  0  0  0  0  0
    1.6025   -0.8280   -0.0021 C   0  0  0  0  0  0  0  0  0  0  0  0
    1.1640    0.3114   -0.1205 O   0  0  0  0  0  0  0  0  0  0  0  0
    2.9491   -1.1841   -0.0249 N   0  0  0  0  0  0  0  0  0  0  0  0
    4.0244   -0.3318   -0.0355 N   0  0  0  0  0  0  0  0  0  0  0  0
    3.9088    0.8054   -0.6457 C   0  0  0  0  0  0  0  0  0  0  0  0
    5.0088    1.7930   -0.6581 C   0  0  0  0  0  0  0  0  0  0  0  0
    4.8161    3.0044   -1.3291 C   0  0  0  0  0  0  0  0  0  0  0  0
    5.8407    3.9522   -1.3554 C   0  0  0  0  0  0  0  0  0  0  0  0
    7.0519    3.6901   -0.7137 C   0  0  0  0  0  0  0  0  0  0  0  0
    7.2425    2.4812   -0.0433 C   0  0  0  0  0  0  0  0  0  0  0  0
    6.2213    1.5303   -0.0136 C   0  0  0  0  0  0  0  0  0  0  0  0
    1.2374   -3.2454    0.4022 N   0  0  0  0  0  0  0  0  0  0  0  0
    0.2257   -4.0772    0.5666 N   0  0  0  0  0  0  0  0  0  0  0  0
   -0.9476   -3.3799    0.4867 N   0  0  0  0  0  0  0  0  0  0  0  0
   -2.2012   -4.0264    0.6365 C   0  0  0  0  0  0  0  0  0  0  0  0
   -3.3470   -3.3539    0.5254 N   0  0  0  0  0  0  0  0  0  0  0  0
   -4.3309   -4.3211    0.7174 O   0  0  0  0  0  0  0  0  0  0  0  0
   -3.7698   -5.5737    0.9429 N   0  0  0  0  0  0  0  0  0  0  0  0
   -2.4514   -5.3864    0.9009 C   0  0  0  0  0  0  0  0  0  0  0  0
   -1.5415   -6.3612    1.0871 N   0  0  0  0  0  0  0  0  0  0  0  0
   -2.0291   -0.1930    1.1624 C   0  0  0  0  0  0  0  0  0  0  0  0
   -2.9640    0.8363    0.9995 C   0  0  0  0  0  0  0  0  0  0  0  0
   -6.2387    4.5505    0.7576 H   0  0  0  0  0  0  0  0  0  0  0  0
   -6.7172    3.3701   -0.4861 H   0  0  0  0  0  0  0  0  0  0  0  0
   -5.4105    4.5012   -0.8173 H   0  0  0  0  0  0  0  0  0  0  0  0
   -4.0189    3.4416    0.9544 H   0  0  0  0  0  0  0  0  0  0  0  0
   -5.3535    2.2864    1.2927 H   0  0  0  0  0  0  0  0  0  0  0  0
   -3.5187    0.5302   -2.3342 H   0  0  0  0  0  0  0  0  0  0  0  0
   -1.8712   -1.2799   -2.0624 H   0  0  0  0  0  0  0  0  0  0  0  0
    3.1738   -2.1301    0.2768 H   0  0  0  0  0  0  0  0  0  0  0  0
    3.0085    1.0927   -1.2138 H   0  0  0  0  0  0  0  0  0  0  0  0
    3.8754    3.2211   -1.8288 H   0  0  0  0  0  0  0  0  0  0  0  0
    5.6949    4.8963   -1.8747 H   0  0  0  0  0  0  0  0  0  0  0  0
    7.8486    4.4299   -0.7346 H   0  0  0  0  0  0  0  0  0  0  0  0
    8.1861    2.2792    0.4574 H   0  0  0  0  0  0  0  0  0  0  0  0
    6.3757    0.5910    0.5115 H   0  0  0  0  0  0  0  0  0  0  0  0
   -0.5575   -6.2204    0.8657 H   0  0  0  0  0  0  0  0  0  0  0  0
   -1.8447   -7.3294    1.0754 H   0  0  0  0  0  0  0  0  0  0  0  0
   -1.6133   -0.3751    2.1506 H   0  0  0  0  0  0  0  0  0  0  0  0
   -3.2422    1.4132    1.8748 H   0  0  0  0  0  0  0  0  0  0  0  0
  1  2  1  0
  2  3  1  0
  3  4  1  0
  4  5  2  0
  5  6  1  0
  6  7  2  0
  7  8  1  0
  8  9  2  0
  9 10  1  0
 10 11  2  0
 10 12  1  0
 12 13  1  0
 13 14  2  3
 14 15  1  0
 15 16  2  0
 16 17  1  0
 17 18  2  0
 18 19  1  0
 19 20  2  0
  9 21  1  0
 21 22  2  0
 22 23  1  0
 23 24  1  0
 24 25  2  0
 25 26  1  0
 26 27  1  0
 27 28  2  0
 28 29  1  0
  7 30  1  0
 30 31  2  0
 31  4  1  0
 23  8  1  0
 28 24  1  0
 20 15  1  0
  1 32  1  0
  1 33  1  0
  1 34  1  0
  2 35  1  0
  2 36  1  0
  5 37  1  0
  6 38  1  0
 12 39  1  0
 14 40  1  0
 16 41  1  0
 17 42  1  0
 18 43  1  0
 19 44  1  0
 20 45  1  0
 29 46  1  0
 29 47  1  0
 30 48  1  0
 31 49  1  0
M  END
$$$$
