
     RDKit          3D

 60 63  0  0  0  0  0  0  0  0999 V2000
   -7.1775   -2.0813   -1.2952 O   0  0  0  0  0  0  0  0  0  0  0  0
   -6.3725   -1.1676   -1.3012 C   0  0  0  0  0  0  0  0  0  0  0  0
   -5.3969   -1.1222   -2.2299 O   0  0  0  0  0  0  0  0  0  0  0  0
   -6.2968    0.0098   -0.3491 C   0  0  0  0  0  0  0  0  0  0  0  0
   -7.7063    0.4674    0.0642 C   0  0  0  0  0  0  0  0  0  0  0  0
   -8.2566   -0.2272    1.2770 C   0  0  0  0  0  0  0  0  0  0  0  0
   -7.5364   -1.0609    2.0400 C   0  0  0  0  0  0  0  0  0  0  0  0
   -6.0884   -1.3614    1.7852 C   0  0  0  0  0  0  0  0  0  0  0  0
   -5.4219   -0.3168    0.8733 C   0  0  0  0  0  0  0  0  0  0  0  0
   -4.0109   -0.7556    0.4738 C   0  0  0  0  0  0  0  0  0  0  0  0
   -3.6259   -1.9077    0.6413 O   0  0  0  0  0  0  0  0  0  0  0  0
   -3.2703    0.2813   -0.0718 N   0  0  0  0  0  0  0  0  0  0  0  0
   -1.9524    0.2262   -0.5699 C   0  0  0  0  0  0  0  0  0  0  0  0
   -1.1789   -0.9279   -0.6209 C   0  0  0  0  0  0  0  0  0  0  0  0
    0.1282   -0.8930   -1.1364 C   0  0  0  0  0  0  0  0  0  0  0  0
    0.7167    0.2907   -1.5991 C   0  0  0  0  0  0  0  0  0  0  0  0
    2.0076    0.3615   -2.1241 N   0  0  0  0  0  0  0  0  0  0  0  0
    2.7744   -0.8662   -2.4213 C   0  0  0  0  0  0  0  0  0  0  0  0
    3.5941   -1.3397   -1.1964 C   0  0  0  0  0  0  0  0  0  0  0  0
    4.4842   -0.2862   -0.6531 N   0  0  0  0  0  0  0  0  0  0  0  0
    5.1754   -0.7792    0.5496 C   0  0  0  0  0  0  0  0  0  0  0  0
    6.2732    0.1455    1.0323 C   0  0  0  0  0  0  0  0  0  0  0  0
    7.3434    0.4813    0.1892 C   0  0  0  0  0  0  0  0  0  0  0  0
    8.3617    1.3248    0.6355 C   0  0  0  0  0  0  0  0  0  0  0  0
    8.3237    1.8386    1.9301 C   0  0  0  0  0  0  0  0  0  0  0  0
    7.2677    1.5106    2.7787 C   0  0  0  0  0  0  0  0  0  0  0  0
    6.2475    0.6675    2.3337 C   0  0  0  0  0  0  0  0  0  0  0  0
    3.6801    0.9261   -0.3588 C   0  0  0  0  0  0  0  0  0  0  0  0
    2.8906    1.4274   -1.5923 C   0  0  0  0  0  0  0  0  0  0  0  0
   -0.0930    1.4366   -1.5617 C   0  0  0  0  0  0  0  0  0  0  0  0
   -1.3998    1.4118   -1.0540 C   0  0  0  0  0  0  0  0  0  0  0  0
   -5.5047   -1.9548   -2.7369 H   0  0  0  0  0  0  0  0  0  0  0  0
   -5.8551    0.8379   -0.9206 H   0  0  0  0  0  0  0  0  0  0  0  0
   -8.4089    0.3387   -0.7681 H   0  0  0  0  0  0  0  0  0  0  0  0
   -7.6778    1.5413    0.2893 H   0  0  0  0  0  0  0  0  0  0  0  0
   -9.3030   -0.0521    1.5174 H   0  0  0  0  0  0  0  0  0  0  0  0
   -8.0082   -1.5653    2.8805 H   0  0  0  0  0  0  0  0  0  0  0  0
   -6.0127   -2.3725    1.3665 H   0  0  0  0  0  0  0  0  0  0  0  0
   -5.5571   -1.3822    2.7453 H   0  0  0  0  0  0  0  0  0  0  0  0
   -5.3067    0.6043    1.4649 H   0  0  0  0  0  0  0  0  0  0  0  0
   -3.7126    1.1898   -0.1165 H   0  0  0  0  0  0  0  0  0  0  0  0
   -1.5560   -1.8846   -0.2742 H   0  0  0  0  0  0  0  0  0  0  0  0
    0.6702   -1.8329   -1.1465 H   0  0  0  0  0  0  0  0  0  0  0  0
    3.4699   -0.6384   -3.2401 H   0  0  0  0  0  0  0  0  0  0  0  0
    2.1335   -1.6701   -2.8006 H   0  0  0  0  0  0  0  0  0  0  0  0
    4.2018   -2.1975   -1.5097 H   0  0  0  0  0  0  0  0  0  0  0  0
    2.9123   -1.6934   -0.4132 H   0  0  0  0  0  0  0  0  0  0  0  0
    4.4569   -0.9724    1.3573 H   0  0  0  0  0  0  0  0  0  0  0  0
    5.6563   -1.7422    0.3308 H   0  0  0  0  0  0  0  0  0  0  0  0
    7.3769    0.0887   -0.8250 H   0  0  0  0  0  0  0  0  0  0  0  0
    9.1830    1.5809   -0.0285 H   0  0  0  0  0  0  0  0  0  0  0  0
    9.1171    2.4948    2.2773 H   0  0  0  0  0  0  0  0  0  0  0  0
    7.2386    1.9115    3.7884 H   0  0  0  0  0  0  0  0  0  0  0  0
    5.4312    0.4223    3.0091 H   0  0  0  0  0  0  0  0  0  0  0  0
    2.9775    0.7267    0.4614 H   0  0  0  0  0  0  0  0  0  0  0  0
    4.3376    1.7420   -0.0382 H   0  0  0  0  0  0  0  0  0  0  0  0
    3.5991    1.7114   -2.3814 H   0  0  0  0  0  0  0  0  0  0  0  0
    2.3517    2.3431   -1.3290 H   0  0  0  0  0  0  0  0  0  0  0  0
    0.2759    2.3751   -1.9679 H   0  0  0  0  0  0  0  0  0  0  0  0
   -1.9706    2.3361   -1.0584 H   0  0  0  0  0  0  0  0  0  0  0  0
  1  2  2  0
  2  3  1  0
  2  4  1  0
  4  5  1  0
  5  6  1  0
  6  7  2  0
  7  8  1  0
  8  9  1  0
  9 10  1  0
 10 11  2  0
 10 12  1  0
 12 13  1  0
 13 14  2  0
 14 15  1  0
 15 16  2  0
 16 17  1  0
 17 18  1  0
 18 19  1  0
 19 20  1  0
 20 21  1  0
 21 22  1  0
 22 23  2  0
 23 24  1  0
 24 25  2  0
 25 26  1  0
 26 27  2  0
 20 28  1  0
 28 29  1  0
 16 30  1  0
 30 31  2  0
  9  4  1  0
 31 13  1  0
 29 17  1  0
 27 22  1  0
  3 32  1  0
  4 33  1  0
  5 34  1  0
  5 35  1  0
  6 36  1  0
  7 37  1  0
  8 38  1  0
  8 39  1  0
  9 40  1  0
 12 41  1  0
 14 42  1  0
 15 43  1  0
 18 44  1  0
 18 45  1  0
 19 46  1  0
 19 47  1  0
 21 48  1  0
 21 49  1  0
 23 50  1  0
 24 51  1  0
 25 52  1  0
 26 53  1  0
 27 54  1  0
 28 55  1  0
 28 56  1  0
 29 57  1  0
 29 58  1  0
 30 59  1  0
 31 60  1  0
M  END
$$$$
