
     RDKit          3D

 23 24  0  0  0  0  0  0  0  0999 V2000
   -5.0940    0.1544    0.0479 C   0  0  0  0  0  0  0  0  0  0  0  0
   -4.2693    1.6727   -0.4767 S   0  0  0  0  0  0  0  0  0  0  0  0
   -2.5906    1.1788   -0.3962 C   0  0  0  0  0  0  0  0  0  0  0  0
   -2.2373   -0.0348   -0.0430 N   0  0  0  0  0  0  0  0  0  0  0  0
   -0.8583   -0.1454   -0.0661 C   0  0  0  0  0  0  0  0  0  0  0  0
   -0.1185   -1.3018    0.2589 C   0  0  0  0  0  0  0  0  0  0  0  0
    1.2789   -1.2783    0.1925 C   0  0  0  0  0  0  0  0  0  0  0  0
    1.9362   -0.1136   -0.2028 C   0  0  0  0  0  0  0  0  0  0  0  0
    3.7069   -0.0871   -0.2562 S   0  0  0  0  0  6  0  0  0  0  0  0
    4.0067   -0.4871   -1.8579 N   0  0  0  0  0  0  0  0  0  0  0  0
    4.2222   -1.1816    0.5318 O   0  0  0  0  0  0  0  0  0  0  0  0
    4.1629    1.2726   -0.0901 O   0  0  0  0  0  0  0  0  0  0  0  0
    1.2314    1.0556   -0.5193 C   0  0  0  0  0  0  0  0  0  0  0  0
   -0.1706    1.0097   -0.4469 C   0  0  0  0  0  0  0  0  0  0  0  0
   -1.3144    2.2542   -0.7761 S   0  0  0  0  0  0  0  0  0  0  0  0
   -4.8706   -0.6656   -0.6403 H   0  0  0  0  0  0  0  0  0  0  0  0
   -6.1753    0.3165    0.0494 H   0  0  0  0  0  0  0  0  0  0  0  0
   -4.7869   -0.1236    1.0600 H   0  0  0  0  0  0  0  0  0  0  0  0
   -0.6425   -2.2035    0.5623 H   0  0  0  0  0  0  0  0  0  0  0  0
    1.8396   -2.1744    0.4518 H   0  0  0  0  0  0  0  0  0  0  0  0
    4.5161   -1.3704   -1.9052 H   0  0  0  0  0  0  0  0  0  0  0  0
    4.4831    0.2851   -2.3253 H   0  0  0  0  0  0  0  0  0  0  0  0
    1.7446    1.9677   -0.8112 H   0  0  0  0  0  0  0  0  0  0  0  0
  1  2  1  0
  2  3  1  0
  3  4  2  0
  4  5  1  0
  5  6  2  0
  6  7  1  0
  7  8  2  0
  8  9  1  0
  9 10  1  0
  9 11  2  0
  9 12  2  0
  8 13  1  0
 13 14  2  0
 14 15  1  0
 15  3  1  0
 14  5  1  0
  1 16  1  0
  1 17  1  0
  1 18  1  0
  6 19  1  0
  7 20  1  0
 10 21  1  0
 10 22  1  0
 13 23  1  0
M  END
$$$$
