
     RDKit          3D

 55 59  0  0  0  0  0  0  0  0999 V2000
    4.0145   -2.3705   -1.0953 C   0  0  0  0  0  0  0  0  0  0  0  0
    4.0217   -1.1154   -0.3850 N   0  0  0  0  0  0  0  0  0  0  0  0
    3.0006   -0.1876   -0.3521 C   0  0  0  0  0  0  0  0  0  0  0  0
    1.7889   -0.4157   -0.9310 N   0  0  0  0  0  0  0  0  0  0  0  0
    0.9697   -1.5213   -0.3885 C   0  0  0  0  0  0  0  0  0  0  0  0
   -0.3723   -1.0144    0.1856 C   0  0  0  0  0  0  0  0  0  0  0  0
   -1.2406   -0.3336   -0.8124 N   0  0  0  0  0  0  0  0  0  0  0  0
   -2.2514    0.5412   -0.1452 C   0  0  0  0  0  0  0  0  0  0  0  0
   -3.2409    1.1917   -1.1249 C   0  0  0  0  0  0  0  0  0  0  0  0
   -3.7310    0.5094   -2.2524 C   0  0  0  0  0  0  0  0  0  0  0  0
   -4.6410    1.1193   -3.1176 C   0  0  0  0  0  0  0  0  0  0  0  0
   -5.0818    2.4163   -2.8650 C   0  0  0  0  0  0  0  0  0  0  0  0
   -4.6164    3.1037   -1.7462 C   0  0  0  0  0  0  0  0  0  0  0  0
   -3.7051    2.4961   -0.8801 C   0  0  0  0  0  0  0  0  0  0  0  0
   -3.0326   -0.1713    0.9682 C   0  0  0  0  0  0  0  0  0  0  0  0
   -3.7557   -1.3510    0.7221 C   0  0  0  0  0  0  0  0  0  0  0  0
   -4.4648   -1.9807    1.7464 C   0  0  0  0  0  0  0  0  0  0  0  0
   -4.4626   -1.4407    3.0304 C   0  0  0  0  0  0  0  0  0  0  0  0
   -3.7525   -0.2711    3.2921 C   0  0  0  0  0  0  0  0  0  0  0  0
   -3.0433    0.3611    2.2689 C   0  0  0  0  0  0  0  0  0  0  0  0
   -0.3935    0.4273   -1.7736 C   0  0  0  0  0  0  0  0  0  0  0  0
    1.0138    0.7990   -1.2591 C   0  0  0  0  0  0  0  0  0  0  0  0
    3.3952    0.9130    0.2487 N   0  0  0  0  0  0  0  0  0  0  0  0
    4.6707    0.6674    0.6866 C   0  0  0  0  0  0  0  0  0  0  0  0
    5.5378    1.4962    1.4144 C   0  0  0  0  0  0  0  0  0  0  0  0
    6.8088    1.0147    1.7503 C   0  0  0  0  0  0  0  0  0  0  0  0
    7.2097   -0.2659    1.3666 C   0  0  0  0  0  0  0  0  0  0  0  0
    6.3597   -1.1056    0.6367 C   0  0  0  0  0  0  0  0  0  0  0  0
    5.0921   -0.6044    0.3137 C   0  0  0  0  0  0  0  0  0  0  0  0
    3.3769   -2.2919   -1.9791 H   0  0  0  0  0  0  0  0  0  0  0  0
    3.6431   -3.1448   -0.4198 H   0  0  0  0  0  0  0  0  0  0  0  0
    5.0294   -2.6117   -1.4214 H   0  0  0  0  0  0  0  0  0  0  0  0
    1.4984   -2.0663    0.4037 H   0  0  0  0  0  0  0  0  0  0  0  0
    0.7770   -2.2381   -1.1962 H   0  0  0  0  0  0  0  0  0  0  0  0
   -0.9052   -1.8795    0.5953 H   0  0  0  0  0  0  0  0  0  0  0  0
   -0.1430   -0.3398    1.0221 H   0  0  0  0  0  0  0  0  0  0  0  0
   -1.6853    1.3615    0.3218 H   0  0  0  0  0  0  0  0  0  0  0  0
   -3.3973   -0.5046   -2.4626 H   0  0  0  0  0  0  0  0  0  0  0  0
   -5.0067    0.5795   -3.9870 H   0  0  0  0  0  0  0  0  0  0  0  0
   -5.7924    2.8893   -3.5375 H   0  0  0  0  0  0  0  0  0  0  0  0
   -4.9667    4.1125   -1.5445 H   0  0  0  0  0  0  0  0  0  0  0  0
   -3.3618    3.0456   -0.0065 H   0  0  0  0  0  0  0  0  0  0  0  0
   -3.7627   -1.7865   -0.2743 H   0  0  0  0  0  0  0  0  0  0  0  0
   -5.0200   -2.8915    1.5396 H   0  0  0  0  0  0  0  0  0  0  0  0
   -5.0167   -1.9303    3.8266 H   0  0  0  0  0  0  0  0  0  0  0  0
   -3.7528    0.1515    4.2933 H   0  0  0  0  0  0  0  0  0  0  0  0
   -2.4973    1.2742    2.4941 H   0  0  0  0  0  0  0  0  0  0  0  0
   -0.8816    1.3391   -2.1337 H   0  0  0  0  0  0  0  0  0  0  0  0
   -0.2760   -0.2109   -2.6594 H   0  0  0  0  0  0  0  0  0  0  0  0
    0.9151    1.4548   -0.3838 H   0  0  0  0  0  0  0  0  0  0  0  0
    1.5401    1.3606   -2.0407 H   0  0  0  0  0  0  0  0  0  0  0  0
    5.2182    2.4897    1.7075 H   0  0  0  0  0  0  0  0  0  0  0  0
    7.4882    1.6478    2.3157 H   0  0  0  0  0  0  0  0  0  0  0  0
    8.2028   -0.6184    1.6380 H   0  0  0  0  0  0  0  0  0  0  0  0
    6.6786   -2.0986    0.3399 H   0  0  0  0  0  0  0  0  0  0  0  0
  1  2  1  0
  2  3  1  0
  3  4  1  0
  4  5  1  0
  5  6  1  0
  6  7  1  0
  7  8  1  0
  8  9  1  0
  9 10  2  0
 10 11  1  0
 11 12  2  0
 12 13  1  0
 13 14  2  0
  8 15  1  0
 15 16  2  0
 16 17  1  0
 17 18  2  0
 18 19  1  0
 19 20  2  0
  7 21  1  0
 21 22  1  0
  3 23  2  0
 23 24  1  0
 24 25  2  0
 25 26  1  0
 26 27  2  0
 27 28  1  0
 28 29  2  0
 29  2  1  0
 22  4  1  0
 29 24  1  0
 14  9  1  0
 20 15  1  0
  1 30  1  0
  1 31  1  0
  1 32  1  0
  5 33  1  0
  5 34  1  0
  6 35  1  0
  6 36  1  0
  8 37  1  0
 10 38  1  0
 11 39  1  0
 12 40  1  0
 13 41  1  0
 14 42  1  0
 16 43  1  0
 17 44  1  0
 18 45  1  0
 19 46  1  0
 20 47  1  0
 21 48  1  0
 21 49  1  0
 22 50  1  0
 22 51  1  0
 25 52  1  0
 26 53  1  0
 27 54  1  0
 28 55  1  0
M  END
$$$$
