
     RDKit          3D

 48 50  0  0  0  0  0  0  0  0999 V2000
   -6.1261    1.5496   -0.4211 C   0  0  0  0  0  0  0  0  0  0  0  0
   -5.7726    0.4336   -1.3984 C   0  0  0  0  0  0  0  0  0  0  0  0
   -4.6797   -0.5437   -0.9232 C   0  0  0  0  0  0  0  0  0  0  0  0
   -3.4050    0.1271   -0.7569 N   0  0  0  0  0  0  0  0  0  0  0  0
   -2.2009   -0.4979   -1.0070 C   0  0  0  0  0  0  0  0  0  0  0  0
   -2.1020   -1.5933   -1.5507 O   0  0  0  0  0  0  0  0  0  0  0  0
   -1.0347    0.2683   -0.5612 C   0  0  0  0  0  0  0  0  0  0  0  0
    0.3307   -0.0803   -0.7006 C   0  0  0  0  0  0  0  0  0  0  0  0
    1.0186    0.9617   -0.1273 C   0  0  0  0  0  0  0  0  0  0  0  0
    2.4491    1.2893    0.0786 C   0  0  0  0  0  0  0  0  0  0  0  0
    3.2065    0.1610   -0.3478 O   0  0  0  0  0  0  0  0  0  0  0  0
    4.5702    0.2222   -0.2388 C   0  0  0  0  0  0  0  0  0  0  0  0
    5.2859    1.3427    0.1926 C   0  0  0  0  0  0  0  0  0  0  0  0
    6.6862    1.3111    0.2643 C   0  0  0  0  0  0  0  0  0  0  0  0
    7.3869    0.1604   -0.0951 C   0  0  0  0  0  0  0  0  0  0  0  0
    8.7445    0.0045   -0.0710 O   0  0  0  0  0  0  0  0  0  0  0  0
    9.5169    1.1176    0.3620 C   0  0  0  0  0  0  0  0  0  0  0  0
    6.6782   -0.9610   -0.5254 C   0  0  0  0  0  0  0  0  0  0  0  0
    5.2834   -0.9318   -0.5977 C   0  0  0  0  0  0  0  0  0  0  0  0
    4.4681   -2.3603   -1.1375 Cl  0  0  0  0  0  0  0  0  0  0  0  0
    0.1267    1.8794    0.3347 O   0  0  0  0  0  0  0  0  0  0  0  0
   -1.1614    1.4521    0.0692 N   0  0  0  0  0  0  0  0  0  0  0  0
   -5.0879   -1.3250    0.3140 C   0  0  0  0  0  0  0  0  0  0  0  0
   -4.7798   -0.9014    1.6126 C   0  0  0  0  0  0  0  0  0  0  0  0
   -5.2088   -1.6664    2.6875 C   0  0  0  0  0  0  0  0  0  0  0  0
   -5.9181   -2.8072    2.5645 N   0  0  0  0  0  0  0  0  0  0  0  0
   -6.2050   -3.2054    1.3083 C   0  0  0  0  0  0  0  0  0  0  0  0
   -5.8221   -2.5094    0.1717 C   0  0  0  0  0  0  0  0  0  0  0  0
   -6.8716    2.2132   -0.8716 H   0  0  0  0  0  0  0  0  0  0  0  0
   -6.5570    1.1538    0.5030 H   0  0  0  0  0  0  0  0  0  0  0  0
   -5.2531    2.1579   -0.1672 H   0  0  0  0  0  0  0  0  0  0  0  0
   -5.4455    0.8973   -2.3383 H   0  0  0  0  0  0  0  0  0  0  0  0
   -6.6882   -0.1261   -1.6280 H   0  0  0  0  0  0  0  0  0  0  0  0
   -4.5382   -1.2737   -1.7321 H   0  0  0  0  0  0  0  0  0  0  0  0
   -3.3511    0.9808   -0.2125 H   0  0  0  0  0  0  0  0  0  0  0  0
    0.7452   -0.9673   -1.1594 H   0  0  0  0  0  0  0  0  0  0  0  0
    2.6275    1.4875    1.1420 H   0  0  0  0  0  0  0  0  0  0  0  0
    2.7028    2.1694   -0.5231 H   0  0  0  0  0  0  0  0  0  0  0  0
    4.7922    2.2652    0.4795 H   0  0  0  0  0  0  0  0  0  0  0  0
    7.1982    2.2064    0.6042 H   0  0  0  0  0  0  0  0  0  0  0  0
    9.2821    1.3811    1.3988 H   0  0  0  0  0  0  0  0  0  0  0  0
    9.3812    1.9751   -0.3050 H   0  0  0  0  0  0  0  0  0  0  0  0
   10.5713    0.8286    0.3224 H   0  0  0  0  0  0  0  0  0  0  0  0
    7.2204   -1.8612   -0.8052 H   0  0  0  0  0  0  0  0  0  0  0  0
   -4.2183    0.0070    1.8004 H   0  0  0  0  0  0  0  0  0  0  0  0
   -4.9861   -1.3689    3.7082 H   0  0  0  0  0  0  0  0  0  0  0  0
   -6.7702   -4.1301    1.2334 H   0  0  0  0  0  0  0  0  0  0  0  0
   -6.0894   -2.8935   -0.8077 H   0  0  0  0  0  0  0  0  0  0  0  0
  1  2  1  0
  2  3  1  0
  3  4  1  0
  4  5  1  0
  5  6  2  0
  5  7  1  0
  7  8  1  0
  8  9  2  0
  9 10  1  0
 10 11  1  0
 11 12  1  0
 12 13  2  0
 13 14  1  0
 14 15  2  0
 15 16  1  0
 16 17  1  0
 15 18  1  0
 18 19  2  0
 19 20  1  0
  9 21  1  0
 21 22  1  0
  3 23  1  0
 23 24  2  0
 24 25  1  0
 25 26  2  0
 26 27  1  0
 27 28  2  0
 22  7  2  0
 28 23  1  0
 19 12  1  0
  1 29  1  0
  1 30  1  0
  1 31  1  0
  2 32  1  0
  2 33  1  0
  3 34  1  0
  4 35  1  0
  8 36  1  0
 10 37  1  0
 10 38  1  0
 13 39  1  0
 14 40  1  0
 17 41  1  0
 17 42  1  0
 17 43  1  0
 18 44  1  0
 24 45  1  0
 25 46  1  0
 27 47  1  0
 28 48  1  0
M  END
$$$$
