
     RDKit          3D

 47 50  0  0  0  0  0  0  0  0999 V2000
   -1.2271    0.0264    1.2958 O   0  0  0  0  0  0  0  0  0  0  0  0
   -0.4587    0.9012    0.8850 C   0  0  0  0  0  0  0  0  0  0  0  0
   -0.8717    2.3633    0.9820 C   0  0  0  0  0  0  0  0  0  0  0  0
   -1.2534    3.0619   -0.6478 S   0  0  0  0  0  0  0  0  0  0  0  0
   -2.6141    2.0945   -1.1258 C   0  0  0  0  0  0  0  0  0  0  0  0
   -3.0588    2.0258   -2.3638 N   0  0  0  0  0  0  0  0  0  0  0  0
   -4.1378    1.1635   -2.3488 N   0  0  0  0  0  0  0  0  0  0  0  0
   -4.2721    0.7602   -1.1011 C   0  0  0  0  0  0  0  0  0  0  0  0
   -5.2324   -0.1594   -0.5074 C   0  0  0  0  0  0  0  0  0  0  0  0
   -6.3401   -0.5883   -1.2551 C   0  0  0  0  0  0  0  0  0  0  0  0
   -7.2738   -1.4717   -0.7076 C   0  0  0  0  0  0  0  0  0  0  0  0
   -7.1095   -1.9398    0.5943 C   0  0  0  0  0  0  0  0  0  0  0  0
   -6.0123   -1.5278    1.3486 C   0  0  0  0  0  0  0  0  0  0  0  0
   -5.0782   -0.6440    0.8010 C   0  0  0  0  0  0  0  0  0  0  0  0
   -3.3523    1.3328   -0.2642 O   0  0  0  0  0  0  0  0  0  0  0  0
    0.7750    0.5863    0.3257 N   0  0  0  0  0  0  0  0  0  0  0  0
    1.1700   -0.8318    0.3217 C   0  0  0  0  0  0  0  0  0  0  0  0
    2.1910   -1.1716   -0.7809 C   0  0  0  0  0  0  0  0  0  0  0  0
    3.3322   -0.2319   -0.7752 N   0  0  0  0  0  0  0  0  0  0  0  0
    4.4599   -0.4767    0.0127 C   0  0  0  0  0  0  0  0  0  0  0  0
    5.6253    0.2927   -0.1565 C   0  0  0  0  0  0  0  0  0  0  0  0
    6.7836    0.0723    0.5994 C   0  0  0  0  0  0  0  0  0  0  0  0
    6.8129   -0.9436    1.5451 C   0  0  0  0  0  0  0  0  0  0  0  0
    5.6882   -1.7397    1.7221 C   0  0  0  0  0  0  0  0  0  0  0  0
    4.5340   -1.5113    0.9592 C   0  0  0  0  0  0  0  0  0  0  0  0
    2.8823    1.1721   -0.9095 C   0  0  0  0  0  0  0  0  0  0  0  0
    1.8961    1.5388    0.2177 C   0  0  0  0  0  0  0  0  0  0  0  0
   -0.0836    2.9443    1.4695 H   0  0  0  0  0  0  0  0  0  0  0  0
   -1.7526    2.4390    1.6295 H   0  0  0  0  0  0  0  0  0  0  0  0
   -6.4842   -0.2313   -2.2739 H   0  0  0  0  0  0  0  0  0  0  0  0
   -8.1275   -1.7941   -1.2994 H   0  0  0  0  0  0  0  0  0  0  0  0
   -7.8346   -2.6286    1.0201 H   0  0  0  0  0  0  0  0  0  0  0  0
   -5.8793   -1.8962    2.3634 H   0  0  0  0  0  0  0  0  0  0  0  0
   -4.2205   -0.3477    1.4042 H   0  0  0  0  0  0  0  0  0  0  0  0
    1.5835   -1.0443    1.3143 H   0  0  0  0  0  0  0  0  0  0  0  0
    0.2855   -1.4662    0.1946 H   0  0  0  0  0  0  0  0  0  0  0  0
    1.6917   -1.0781   -1.7546 H   0  0  0  0  0  0  0  0  0  0  0  0
    2.5127   -2.2173   -0.7174 H   0  0  0  0  0  0  0  0  0  0  0  0
    5.6657    1.0639   -0.9218 H   0  0  0  0  0  0  0  0  0  0  0  0
    7.6637    0.6879    0.4318 H   0  0  0  0  0  0  0  0  0  0  0  0
    7.7108   -1.1237    2.1295 H   0  0  0  0  0  0  0  0  0  0  0  0
    5.7036   -2.5477    2.4496 H   0  0  0  0  0  0  0  0  0  0  0  0
    3.6918   -2.1696    1.1417 H   0  0  0  0  0  0  0  0  0  0  0  0
    3.7024    1.8965   -0.9259 H   0  0  0  0  0  0  0  0  0  0  0  0
    2.3706    1.2721   -1.8759 H   0  0  0  0  0  0  0  0  0  0  0  0
    2.4073    1.5330    1.1879 H   0  0  0  0  0  0  0  0  0  0  0  0
    1.5349    2.5542    0.0505 H   0  0  0  0  0  0  0  0  0  0  0  0
  1  2  2  0
  2  3  1  0
  3  4  1  0
  4  5  1  0
  5  6  2  0
  6  7  1  0
  7  8  2  0
  8  9  1  0
  9 10  2  0
 10 11  1  0
 11 12  2  0
 12 13  1  0
 13 14  2  0
  8 15  1  0
  2 16  1  0
 16 17  1  0
 17 18  1  0
 18 19  1  0
 19 20  1  0
 20 21  2  0
 21 22  1  0
 22 23  2  0
 23 24  1  0
 24 25  2  0
 19 26  1  0
 26 27  1  0
 15  5  1  0
 27 16  1  0
 14  9  1  0
 25 20  1  0
  3 28  1  0
  3 29  1  0
 10 30  1  0
 11 31  1  0
 12 32  1  0
 13 33  1  0
 14 34  1  0
 17 35  1  0
 17 36  1  0
 18 37  1  0
 18 38  1  0
 21 39  1  0
 22 40  1  0
 23 41  1  0
 24 42  1  0
 25 43  1  0
 26 44  1  0
 26 45  1  0
 27 46  1  0
 27 47  1  0
M  END
$$$$
