
     RDKit          3D

 51 53  0  0  0  0  0  0  0  0999 V2000
   -6.5133    3.4175   -2.3020 C   0  0  0  0  0  0  0  0  0  0  0  0
   -5.4705    2.3871   -1.9518 C   0  0  0  0  0  0  0  0  0  0  0  0
   -5.2587    1.3330   -2.8521 C   0  0  0  0  0  0  0  0  0  0  0  0
   -4.3124    0.3522   -2.5840 C   0  0  0  0  0  0  0  0  0  0  0  0
   -3.5645    0.4052   -1.4094 C   0  0  0  0  0  0  0  0  0  0  0  0
   -3.7506    1.4370   -0.4833 C   0  0  0  0  0  0  0  0  0  0  0  0
   -2.9811    1.5198    0.7053 N   0  0  0  0  0  0  0  0  0  0  0  0
   -2.1118    0.5686    1.2322 C   0  0  0  0  0  0  0  0  0  0  0  0
   -1.8939   -0.5452    0.7635 O   0  0  0  0  0  0  0  0  0  0  0  0
   -1.4472    1.0800    2.5112 C   0  0  0  0  0  0  0  0  0  0  0  0
   -0.5175   -0.2130    3.3800 S   0  0  0  0  0  0  0  0  0  0  0  0
    0.7530   -0.4314    2.2008 C   0  0  0  0  0  0  0  0  0  0  0  0
    1.5682    0.5381    1.9755 N   0  0  0  0  0  0  0  0  0  0  0  0
    2.5529    0.3428    1.0287 C   0  0  0  0  0  0  0  0  0  0  0  0
    3.3226    1.2452    0.7159 O   0  0  0  0  0  0  0  0  0  0  0  0
    2.6603   -1.0009    0.3379 C   0  0  0  0  0  0  0  0  0  0  0  0
    3.7842   -1.1367   -0.6575 C   0  0  0  0  0  0  0  0  0  0  0  0
    5.0673   -1.6392   -0.0286 C   0  0  0  0  0  0  0  0  0  0  0  0
    5.9690   -0.7412    0.5591 C   0  0  0  0  0  0  0  0  0  0  0  0
    7.1339   -1.2031    1.1734 C   0  0  0  0  0  0  0  0  0  0  0  0
    7.4105   -2.5683    1.2096 C   0  0  0  0  0  0  0  0  0  0  0  0
    6.5252   -3.4711    0.6262 C   0  0  0  0  0  0  0  0  0  0  0  0
    5.3596   -3.0097    0.0101 C   0  0  0  0  0  0  0  0  0  0  0  0
    1.7283   -1.9324    0.6345 C   0  0  0  0  0  0  0  0  0  0  0  0
    1.6257   -3.2958    0.0092 C   0  0  0  0  0  0  0  0  0  0  0  0
    0.7911   -1.6428    1.5955 N   0  0  0  0  0  0  0  0  0  0  0  0
   -4.7221    2.4410   -0.7477 C   0  0  0  0  0  0  0  0  0  0  0  0
   -4.9471    3.5660    0.2360 C   0  0  0  0  0  0  0  0  0  0  0  0
   -7.3525    3.3595   -1.6004 H   0  0  0  0  0  0  0  0  0  0  0  0
   -6.9143    3.2607   -3.3096 H   0  0  0  0  0  0  0  0  0  0  0  0
   -6.0805    4.4229   -2.2850 H   0  0  0  0  0  0  0  0  0  0  0  0
   -5.8308    1.2710   -3.7760 H   0  0  0  0  0  0  0  0  0  0  0  0
   -4.1506   -0.4583   -3.2907 H   0  0  0  0  0  0  0  0  0  0  0  0
   -2.8274   -0.3774   -1.2576 H   0  0  0  0  0  0  0  0  0  0  0  0
   -3.1108    2.3555    1.2581 H   0  0  0  0  0  0  0  0  0  0  0  0
   -2.2283    1.4382    3.1916 H   0  0  0  0  0  0  0  0  0  0  0  0
   -0.7927    1.9243    2.2650 H   0  0  0  0  0  0  0  0  0  0  0  0
    3.5028   -1.8056   -1.4799 H   0  0  0  0  0  0  0  0  0  0  0  0
    3.9763   -0.1824   -1.1650 H   0  0  0  0  0  0  0  0  0  0  0  0
    5.7643    0.3315    0.5469 H   0  0  0  0  0  0  0  0  0  0  0  0
    7.8203   -0.4946    1.6318 H   0  0  0  0  0  0  0  0  0  0  0  0
    8.3147   -2.9266    1.6946 H   0  0  0  0  0  0  0  0  0  0  0  0
    6.7399   -4.5351    0.6584 H   0  0  0  0  0  0  0  0  0  0  0  0
    4.6832   -3.7300   -0.4410 H   0  0  0  0  0  0  0  0  0  0  0  0
    2.2546   -3.4217   -0.8745 H   0  0  0  0  0  0  0  0  0  0  0  0
    0.5928   -3.4933   -0.3044 H   0  0  0  0  0  0  0  0  0  0  0  0
    1.9129   -4.0621    0.7401 H   0  0  0  0  0  0  0  0  0  0  0  0
   -0.0169   -2.2485    1.6976 H   0  0  0  0  0  0  0  0  0  0  0  0
   -5.8458    4.1527    0.0262 H   0  0  0  0  0  0  0  0  0  0  0  0
   -4.0902    4.2482    0.2205 H   0  0  0  0  0  0  0  0  0  0  0  0
   -5.0819    3.1686    1.2485 H   0  0  0  0  0  0  0  0  0  0  0  0
  1  2  1  0
  2  3  2  0
  3  4  1  0
  4  5  2  0
  5  6  1  0
  6  7  1  0
  7  8  1  0
  8  9  2  0
  8 10  1  0
 10 11  1  0
 11 12  1  0
 12 13  2  0
 13 14  1  0
 14 15  2  0
 14 16  1  0
 16 17  1  0
 17 18  1  0
 18 19  2  0
 19 20  1  0
 20 21  2  0
 21 22  1  0
 22 23  2  0
 16 24  2  0
 24 25  1  0
 24 26  1  0
  6 27  2  0
 27 28  1  0
 27  2  1  0
 26 12  1  0
 23 18  1  0
  1 29  1  0
  1 30  1  0
  1 31  1  0
  3 32  1  0
  4 33  1  0
  5 34  1  0
  7 35  1  0
 10 36  1  0
 10 37  1  0
 17 38  1  0
 17 39  1  0
 19 40  1  0
 20 41  1  0
 21 42  1  0
 22 43  1  0
 23 44  1  0
 25 45  1  0
 25 46  1  0
 25 47  1  0
 26 48  1  0
 28 49  1  0
 28 50  1  0
 28 51  1  0
M  END
$$$$
