
     RDKit          3D

 63 66  0  0  0  0  0  0  0  0999 V2000
    5.9160   -1.4602    0.8270 C   0  0  0  0  0  0  0  0  0  0  0  0
    6.0974   -0.6712   -0.4765 C   0  0  0  0  0  0  0  0  0  0  0  0
    5.6812    0.8051   -0.3159 C   0  0  0  0  0  0  0  0  0  0  0  0
    4.2852    0.9739    0.0509 N   0  0  0  0  0  0  0  0  0  0  0  0
    3.2767    0.8162   -0.8777 C   0  0  0  0  0  0  0  0  0  0  0  0
    3.4796    0.5610   -2.0591 O   0  0  0  0  0  0  0  0  0  0  0  0
    1.8831    0.9244   -0.3646 C   0  0  0  0  0  0  0  0  0  0  0  0
    1.5567    1.7061    0.7473 C   0  0  0  0  0  0  0  0  0  0  0  0
    0.2309    1.7684    1.1869 C   0  0  0  0  0  0  0  0  0  0  0  0
   -0.7815    1.0669    0.5238 C   0  0  0  0  0  0  0  0  0  0  0  0
   -2.0220    1.2232    1.0719 O   0  0  0  0  0  0  0  0  0  0  0  0
   -3.1563    0.6034    0.4470 C   0  0  0  0  0  0  0  0  0  0  0  0
   -4.3968    1.4224    0.8340 C   0  0  0  0  0  0  0  0  0  0  0  0
   -5.0310    0.9009    2.1214 C   0  0  0  0  0  0  0  0  0  0  0  0
   -5.4203   -0.5123    2.0513 N   0  0  0  0  0  0  0  0  0  0  0  0
   -6.8773   -0.7302    2.0855 C   0  0  0  0  0  0  0  0  0  0  0  0
   -7.6703   -0.2649    0.8730 C   0  0  0  0  0  0  0  0  0  0  0  0
   -8.0529   -1.1793   -0.1086 C   0  0  0  0  0  0  0  0  0  0  0  0
   -8.7706   -0.7260   -1.2122 C   0  0  0  0  0  0  0  0  0  0  0  0
   -9.0898    0.6222   -1.3096 C   0  0  0  0  0  0  0  0  0  0  0  0
   -8.6766    1.4659   -0.2935 C   0  0  0  0  0  0  0  0  0  0  0  0
   -7.9790    1.0555    0.7879 N   0  0  0  0  0  0  0  0  0  0  0  0
   -4.7279   -1.2883    1.0245 C   0  0  0  0  0  0  0  0  0  0  0  0
   -3.2697   -0.8569    0.9085 C   0  0  0  0  0  0  0  0  0  0  0  0
   -0.4561    0.3002   -0.5935 C   0  0  0  0  0  0  0  0  0  0  0  0
    0.8698    0.2333   -1.0388 C   0  0  0  0  0  0  0  0  0  0  0  0
    7.5217   -0.7582   -1.0048 C   0  0  0  0  0  0  0  0  0  0  0  0
    7.7352   -1.0674   -2.3574 C   0  0  0  0  0  0  0  0  0  0  0  0
    9.0284   -1.1385   -2.8781 C   0  0  0  0  0  0  0  0  0  0  0  0
   10.1258   -0.8966   -2.0557 C   0  0  0  0  0  0  0  0  0  0  0  0
    9.9302   -0.5791   -0.7136 C   0  0  0  0  0  0  0  0  0  0  0  0
    8.6369   -0.5063   -0.1912 C   0  0  0  0  0  0  0  0  0  0  0  0
    6.2832   -2.4868    0.7175 H   0  0  0  0  0  0  0  0  0  0  0  0
    4.8575   -1.5166    1.1034 H   0  0  0  0  0  0  0  0  0  0  0  0
    6.4503   -0.9992    1.6647 H   0  0  0  0  0  0  0  0  0  0  0  0
    5.4330   -1.1443   -1.2121 H   0  0  0  0  0  0  0  0  0  0  0  0
    5.8504    1.3491   -1.2534 H   0  0  0  0  0  0  0  0  0  0  0  0
    6.2751    1.2991    0.4617 H   0  0  0  0  0  0  0  0  0  0  0  0
    4.0548    0.9770    1.0348 H   0  0  0  0  0  0  0  0  0  0  0  0
    2.3077    2.2937    1.2662 H   0  0  0  0  0  0  0  0  0  0  0  0
   -0.0209    2.3793    2.0513 H   0  0  0  0  0  0  0  0  0  0  0  0
   -3.0754    0.6707   -0.6447 H   0  0  0  0  0  0  0  0  0  0  0  0
   -4.1355    2.4800    0.9579 H   0  0  0  0  0  0  0  0  0  0  0  0
   -5.1348    1.3673    0.0241 H   0  0  0  0  0  0  0  0  0  0  0  0
   -4.2996    0.9998    2.9339 H   0  0  0  0  0  0  0  0  0  0  0  0
   -5.8673    1.5477    2.4117 H   0  0  0  0  0  0  0  0  0  0  0  0
   -7.0713   -1.7978    2.2542 H   0  0  0  0  0  0  0  0  0  0  0  0
   -7.2935   -0.2344    2.9728 H   0  0  0  0  0  0  0  0  0  0  0  0
   -7.7951   -2.2297   -0.0200 H   0  0  0  0  0  0  0  0  0  0  0  0
   -9.0780   -1.4203   -1.9891 H   0  0  0  0  0  0  0  0  0  0  0  0
   -9.6480    1.0070   -2.1554 H   0  0  0  0  0  0  0  0  0  0  0  0
   -8.9020    2.5282   -0.3216 H   0  0  0  0  0  0  0  0  0  0  0  0
   -5.1973   -1.1806    0.0397 H   0  0  0  0  0  0  0  0  0  0  0  0
   -4.7674   -2.3517    1.2876 H   0  0  0  0  0  0  0  0  0  0  0  0
   -2.7580   -1.0011    1.8694 H   0  0  0  0  0  0  0  0  0  0  0  0
   -2.7534   -1.5101    0.1957 H   0  0  0  0  0  0  0  0  0  0  0  0
   -1.2011   -0.2601   -1.1468 H   0  0  0  0  0  0  0  0  0  0  0  0
    1.1109   -0.3651   -1.9158 H   0  0  0  0  0  0  0  0  0  0  0  0
    6.8901   -1.2509   -3.0187 H   0  0  0  0  0  0  0  0  0  0  0  0
    9.1769   -1.3799   -3.9273 H   0  0  0  0  0  0  0  0  0  0  0  0
   11.1322   -0.9515   -2.4616 H   0  0  0  0  0  0  0  0  0  0  0  0
   10.7859   -0.3852   -0.0722 H   0  0  0  0  0  0  0  0  0  0  0  0
    8.5139   -0.2475    0.8573 H   0  0  0  0  0  0  0  0  0  0  0  0
  1  2  1  0
  2  3  1  0
  3  4  1  0
  4  5  1  0
  5  6  2  0
  5  7  1  0
  7  8  2  0
  8  9  1  0
  9 10  2  0
 10 11  1  0
 11 12  1  0
 12 13  1  0
 13 14  1  0
 14 15  1  0
 15 16  1  0
 16 17  1  0
 17 18  2  0
 18 19  1  0
 19 20  2  0
 20 21  1  0
 21 22  2  0
 15 23  1  0
 23 24  1  0
 10 25  1  0
 25 26  2  0
  2 27  1  0
 27 28  2  0
 28 29  1  0
 29 30  2  0
 30 31  1  0
 31 32  2  0
 26  7  1  0
 32 27  1  0
 24 12  1  0
 22 17  1  0
  1 33  1  0
  1 34  1  0
  1 35  1  0
  2 36  1  0
  3 37  1  0
  3 38  1  0
  4 39  1  0
  8 40  1  0
  9 41  1  0
 12 42  1  0
 13 43  1  0
 13 44  1  0
 14 45  1  0
 14 46  1  0
 16 47  1  0
 16 48  1  0
 18 49  1  0
 19 50  1  0
 20 51  1  0
 21 52  1  0
 23 53  1  0
 23 54  1  0
 24 55  1  0
 24 56  1  0
 25 57  1  0
 26 58  1  0
 28 59  1  0
 29 60  1  0
 30 61  1  0
 31 62  1  0
 32 63  1  0
M  END
$$$$
