
     RDKit          3D

 43 45  0  0  0  0  0  0  0  0999 V2000
   -3.7995    1.8702    1.8864 C   0  0  0  0  0  0  0  0  0  0  0  0
   -4.4611    0.7081    1.2016 C   0  0  0  0  0  0  0  0  0  0  0  0
   -5.8553    0.6878    1.0660 C   0  0  0  0  0  0  0  0  0  0  0  0
   -6.4911   -0.3856    0.4426 C   0  0  0  0  0  0  0  0  0  0  0  0
   -5.7426   -1.4574   -0.0434 C   0  0  0  0  0  0  0  0  0  0  0  0
   -4.3471   -1.4646    0.0779 C   0  0  0  0  0  0  0  0  0  0  0  0
   -3.5654   -2.6346   -0.4462 C   0  0  0  0  0  0  0  0  0  0  0  0
   -3.7160   -0.3518    0.6581 C   0  0  0  0  0  0  0  0  0  0  0  0
   -2.3469   -0.3337    0.7626 O   0  0  0  0  0  0  0  0  0  0  0  0
   -1.7713    0.2901   -0.3925 C   0  0  0  0  0  0  0  0  0  0  0  0
   -0.3007    0.2661   -0.2176 C   0  0  0  0  0  0  0  0  0  0  0  0
    0.5541   -0.0753    0.8006 C   0  0  0  0  0  0  0  0  0  0  0  0
    1.8579    0.1432    0.2783 C   0  0  0  0  0  0  0  0  0  0  0  0
    3.1195   -0.0308    1.0146 C   0  0  0  0  0  0  0  0  0  0  0  0
    3.1091    0.0222    2.2460 O   0  0  0  0  0  0  0  0  0  0  0  0
    4.3121   -0.2580    0.3259 N   0  0  0  0  0  0  0  0  0  0  0  0
    4.4656   -0.5317   -1.1023 C   0  0  0  0  0  0  0  0  0  0  0  0
    5.1022    0.6879   -1.7638 C   0  0  0  0  0  0  0  0  0  0  0  0
    6.3333    1.0704   -1.0900 N   0  0  0  0  0  0  0  0  0  0  0  0
    6.5200    0.9274    0.2668 C   0  0  0  0  0  0  0  0  0  0  0  0
    7.4923    1.4573    0.8024 O   0  0  0  0  0  0  0  0  0  0  0  0
    5.5792   -0.0309    1.0251 C   0  0  0  0  0  0  0  0  0  0  0  0
    1.7769    0.6298   -0.9728 N   0  0  0  0  0  0  0  0  0  0  0  0
    0.4329    0.6854   -1.2826 O   0  0  0  0  0  0  0  0  0  0  0  0
   -4.4934    2.3703    2.5712 H   0  0  0  0  0  0  0  0  0  0  0  0
   -2.9458    1.5377    2.4861 H   0  0  0  0  0  0  0  0  0  0  0  0
   -3.4584    2.6002    1.1461 H   0  0  0  0  0  0  0  0  0  0  0  0
   -6.4570    1.5065    1.4550 H   0  0  0  0  0  0  0  0  0  0  0  0
   -7.5738   -0.3932    0.3473 H   0  0  0  0  0  0  0  0  0  0  0  0
   -6.2579   -2.2936   -0.5112 H   0  0  0  0  0  0  0  0  0  0  0  0
   -3.2237   -2.4326   -1.4657 H   0  0  0  0  0  0  0  0  0  0  0  0
   -2.6993   -2.8464    0.1889 H   0  0  0  0  0  0  0  0  0  0  0  0
   -4.1784   -3.5417   -0.4593 H   0  0  0  0  0  0  0  0  0  0  0  0
   -2.0387   -0.2589   -1.3031 H   0  0  0  0  0  0  0  0  0  0  0  0
   -2.1089    1.3295   -0.4834 H   0  0  0  0  0  0  0  0  0  0  0  0
    0.2892   -0.4299    1.7868 H   0  0  0  0  0  0  0  0  0  0  0  0
    5.1372   -1.3957   -1.1892 H   0  0  0  0  0  0  0  0  0  0  0  0
    3.5316   -0.8235   -1.5828 H   0  0  0  0  0  0  0  0  0  0  0  0
    4.4332    1.5537   -1.7182 H   0  0  0  0  0  0  0  0  0  0  0  0
    5.3424    0.4859   -2.8118 H   0  0  0  0  0  0  0  0  0  0  0  0
    6.9459    1.7524   -1.5211 H   0  0  0  0  0  0  0  0  0  0  0  0
    6.0850   -0.9978    1.1204 H   0  0  0  0  0  0  0  0  0  0  0  0
    5.4129    0.3856    2.0232 H   0  0  0  0  0  0  0  0  0  0  0  0
  1  2  1  0
  2  3  2  0
  3  4  1  0
  4  5  2  0
  5  6  1  0
  6  7  1  0
  6  8  2  0
  8  9  1  0
  9 10  1  0
 10 11  1  0
 11 12  2  0
 12 13  1  0
 13 14  1  0
 14 15  2  0
 14 16  1  0
 16 17  1  0
 17 18  1  0
 18 19  1  0
 19 20  1  0
 20 21  2  0
 20 22  1  0
 13 23  2  0
 23 24  1  0
  8  2  1  0
 24 11  1  0
 22 16  1  0
  1 25  1  0
  1 26  1  0
  1 27  1  0
  3 28  1  0
  4 29  1  0
  5 30  1  0
  7 31  1  0
  7 32  1  0
  7 33  1  0
 10 34  1  0
 10 35  1  0
 12 36  1  0
 17 37  1  0
 17 38  1  0
 18 39  1  0
 18 40  1  0
 19 41  1  0
 22 42  1  0
 22 43  1  0
M  END
$$$$
