
     RDKit          3D

 67 69  0  0  0  0  0  0  0  0999 V2000
   -0.9222   -1.0870    2.1830 C   0  0  0  0  0  0  0  0  0  0  0  0
   -0.8769   -0.8675    0.6744 C   0  0  0  0  0  0  0  0  0  0  0  0
   -2.1710   -0.3778    0.2043 N   0  0  0  0  0  0  0  0  0  0  0  0
   -3.2328   -1.2123   -0.0443 C   0  0  0  0  0  0  0  0  0  0  0  0
   -3.1637   -2.4311    0.0785 O   0  0  0  0  0  0  0  0  0  0  0  0
   -4.4977   -0.5680   -0.4994 C   0  0  0  0  0  0  0  0  0  0  0  0
   -5.4269   -1.3432   -1.1973 C   0  0  0  0  0  0  0  0  0  0  0  0
   -6.6396   -0.7885   -1.6273 C   0  0  0  0  0  0  0  0  0  0  0  0
   -6.9630    0.5526   -1.3634 C   0  0  0  0  0  0  0  0  0  0  0  0
   -8.2897    1.1922   -1.8115 C   0  0  0  0  0  0  0  0  0  0  0  0
   -9.0377    1.7647   -0.5873 C   0  0  0  0  0  0  0  0  0  0  0  0
   -9.2525    0.2078   -2.5120 C   0  0  0  0  0  0  0  0  0  0  0  0
   -7.9971    2.3364   -2.8047 C   0  0  0  0  0  0  0  0  0  0  0  0
   -6.0151    1.3163   -0.6540 C   0  0  0  0  0  0  0  0  0  0  0  0
   -4.8017    0.7663   -0.2215 C   0  0  0  0  0  0  0  0  0  0  0  0
    0.1835    0.1933    0.3094 C   0  0  0  0  0  0  0  0  0  0  0  0
   -0.1762    1.3309   -0.0226 O   0  0  0  0  0  0  0  0  0  0  0  0
    1.5244   -0.1425    0.3985 N   0  0  0  0  0  0  0  0  0  0  0  0
    2.0661   -1.4927    0.5484 C   0  0  0  0  0  0  0  0  0  0  0  0
    3.2802   -1.5400    1.5071 C   0  0  0  0  0  0  0  0  0  0  0  0
    4.1030   -0.3126    1.5507 N   0  0  0  0  0  0  0  0  0  0  0  0
    5.4930   -0.6184    1.9044 C   0  0  0  0  0  0  0  0  0  0  0  0
    6.2438    0.6202    2.3057 C   0  0  0  0  0  0  0  0  0  0  0  0
    7.4560    1.0185    1.8870 C   0  0  0  0  0  0  0  0  0  0  0  0
    8.3037    0.2976    0.9368 C   0  0  0  0  0  0  0  0  0  0  0  0
    9.4708   -0.3254    1.3950 C   0  0  0  0  0  0  0  0  0  0  0  0
   10.3029   -1.0058    0.5031 C   0  0  0  0  0  0  0  0  0  0  0  0
    9.9728   -1.0629   -0.8503 C   0  0  0  0  0  0  0  0  0  0  0  0
    8.8114   -0.4428   -1.3144 C   0  0  0  0  0  0  0  0  0  0  0  0
    7.9799    0.2396   -0.4236 C   0  0  0  0  0  0  0  0  0  0  0  0
    3.9715    0.4518    0.3022 C   0  0  0  0  0  0  0  0  0  0  0  0
    2.5091    0.8967    0.0882 C   0  0  0  0  0  0  0  0  0  0  0  0
   -1.2361   -0.1744    2.7038 H   0  0  0  0  0  0  0  0  0  0  0  0
    0.0522   -1.3713    2.5912 H   0  0  0  0  0  0  0  0  0  0  0  0
   -1.6392   -1.8737    2.4415 H   0  0  0  0  0  0  0  0  0  0  0  0
   -0.6618   -1.7995    0.1429 H   0  0  0  0  0  0  0  0  0  0  0  0
   -2.1954    0.6012   -0.0638 H   0  0  0  0  0  0  0  0  0  0  0  0
   -5.2136   -2.3898   -1.4095 H   0  0  0  0  0  0  0  0  0  0  0  0
   -7.3198   -1.4411   -2.1675 H   0  0  0  0  0  0  0  0  0  0  0  0
   -8.4845    2.5782   -0.1061 H   0  0  0  0  0  0  0  0  0  0  0  0
  -10.0127    2.1755   -0.8771 H   0  0  0  0  0  0  0  0  0  0  0  0
   -9.2118    0.9893    0.1682 H   0  0  0  0  0  0  0  0  0  0  0  0
   -9.5206   -0.6283   -1.8555 H   0  0  0  0  0  0  0  0  0  0  0  0
   -8.8139   -0.2039   -3.4292 H   0  0  0  0  0  0  0  0  0  0  0  0
  -10.1865    0.7063   -2.7984 H   0  0  0  0  0  0  0  0  0  0  0  0
   -8.9261    2.7867   -3.1733 H   0  0  0  0  0  0  0  0  0  0  0  0
   -7.4093    3.1403   -2.3466 H   0  0  0  0  0  0  0  0  0  0  0  0
   -7.4345    1.9743   -3.6744 H   0  0  0  0  0  0  0  0  0  0  0  0
   -6.2138    2.3605   -0.4173 H   0  0  0  0  0  0  0  0  0  0  0  0
   -4.1259    1.3925    0.3539 H   0  0  0  0  0  0  0  0  0  0  0  0
    1.3115   -2.2090    0.8777 H   0  0  0  0  0  0  0  0  0  0  0  0
    2.3779   -1.8071   -0.4554 H   0  0  0  0  0  0  0  0  0  0  0  0
    2.9124   -1.7192    2.5251 H   0  0  0  0  0  0  0  0  0  0  0  0
    3.8801   -2.4163    1.2294 H   0  0  0  0  0  0  0  0  0  0  0  0
    5.4982   -1.2753    2.7841 H   0  0  0  0  0  0  0  0  0  0  0  0
    5.9876   -1.1699    1.0962 H   0  0  0  0  0  0  0  0  0  0  0  0
    5.7357    1.2431    3.0414 H   0  0  0  0  0  0  0  0  0  0  0  0
    7.8890    1.9319    2.2901 H   0  0  0  0  0  0  0  0  0  0  0  0
    9.7373   -0.2868    2.4491 H   0  0  0  0  0  0  0  0  0  0  0  0
   11.2060   -1.4920    0.8640 H   0  0  0  0  0  0  0  0  0  0  0  0
   10.6192   -1.5943   -1.5450 H   0  0  0  0  0  0  0  0  0  0  0  0
    8.5565   -0.4902   -2.3708 H   0  0  0  0  0  0  0  0  0  0  0  0
    7.0836    0.7292   -0.7968 H   0  0  0  0  0  0  0  0  0  0  0  0
    4.5931    1.3544    0.3135 H   0  0  0  0  0  0  0  0  0  0  0  0
    4.3048   -0.1556   -0.5512 H   0  0  0  0  0  0  0  0  0  0  0  0
    2.3663    1.2033   -0.9555 H   0  0  0  0  0  0  0  0  0  0  0  0
    2.2857    1.7650    0.7217 H   0  0  0  0  0  0  0  0  0  0  0  0
  1  2  1  0
  2  3  1  0
  3  4  1  0
  4  5  2  0
  4  6  1  0
  6  7  2  0
  7  8  1  0
  8  9  2  0
  9 10  1  0
 10 11  1  0
 10 12  1  0
 10 13  1  0
  9 14  1  0
 14 15  2  0
  2 16  1  0
 16 17  2  0
 16 18  1  0
 18 19  1  0
 19 20  1  0
 20 21  1  0
 21 22  1  0
 22 23  1  0
 23 24  2  3
 24 25  1  0
 25 26  2  0
 26 27  1  0
 27 28  2  0
 28 29  1  0
 29 30  2  0
 21 31  1  0
 31 32  1  0
 15  6  1  0
 32 18  1  0
 30 25  1  0
  1 33  1  0
  1 34  1  0
  1 35  1  0
  2 36  1  0
  3 37  1  0
  7 38  1  0
  8 39  1  0
 11 40  1  0
 11 41  1  0
 11 42  1  0
 12 43  1  0
 12 44  1  0
 12 45  1  0
 13 46  1  0
 13 47  1  0
 13 48  1  0
 14 49  1  0
 15 50  1  0
 19 51  1  0
 19 52  1  0
 20 53  1  0
 20 54  1  0
 22 55  1  0
 22 56  1  0
 23 57  1  0
 24 58  1  0
 26 59  1  0
 27 60  1  0
 28 61  1  0
 29 62  1  0
 30 63  1  0
 31 64  1  0
 31 65  1  0
 32 66  1  0
 32 67  1  0
M  END
$$$$
