
     RDKit          3D

 43 45  0  0  0  0  0  0  0  0999 V2000
   -5.6136   -2.0308    0.9149 C   0  0  0  0  0  0  0  0  0  0  0  0
   -4.5181   -1.0948    1.1562 N   0  0  0  0  0  0  0  0  0  0  0  0
   -4.5366   -0.0096    0.1477 C   0  0  0  0  0  0  0  0  0  0  0  0
   -3.1619    0.6666   -0.0401 C   0  0  0  0  0  0  0  0  0  0  0  0
   -2.1769   -0.3104   -0.5711 N   0  0  0  0  0  0  0  0  0  0  0  0
   -0.8664    0.1829   -0.5687 C   0  0  0  0  0  0  0  0  0  0  0  0
   -0.0639    0.1338    0.5825 C   0  0  0  0  0  0  0  0  0  0  0  0
    1.2457    0.6353    0.5830 C   0  0  0  0  0  0  0  0  0  0  0  0
    1.7893    1.1924   -0.5804 C   0  0  0  0  0  0  0  0  0  0  0  0
    3.1635    1.7503   -0.6112 C   0  0  0  0  0  0  0  0  0  0  0  0
    3.3828    2.7452   -1.2962 O   0  0  0  0  0  0  0  0  0  0  0  0
    4.2733    1.1408    0.1634 C   0  0  0  0  0  0  0  0  0  0  0  0
    5.2609    1.9843    0.6878 C   0  0  0  0  0  0  0  0  0  0  0  0
    6.3282    1.4488    1.4124 C   0  0  0  0  0  0  0  0  0  0  0  0
    6.4126    0.0699    1.5991 C   0  0  0  0  0  0  0  0  0  0  0  0
    7.8565   -0.6570    2.5785 Br  0  0  0  0  0  0  0  0  0  0  0  0
    5.4450   -0.7794    1.0619 C   0  0  0  0  0  0  0  0  0  0  0  0
    4.3759   -0.2453    0.3369 C   0  0  0  0  0  0  0  0  0  0  0  0
    1.0106    1.2819   -1.7343 C   0  0  0  0  0  0  0  0  0  0  0  0
   -0.2955    0.7779   -1.7078 C   0  0  0  0  0  0  0  0  0  0  0  0
   -1.0569    0.8545   -2.9346 N   0  0  0  0  0  4  0  0  0  0  0  0
   -1.8282    1.8161   -3.0636 O   0  0  0  0  0  0  0  0  0  0  0  0
   -0.8301   -0.0145   -3.7890 O   0  0  0  0  0  1  0  0  0  0  0  0
   -2.3742   -1.7026   -0.1009 C   0  0  0  0  0  0  0  0  0  0  0  0
   -3.2077   -1.7778    1.1986 C   0  0  0  0  0  0  0  0  0  0  0  0
   -5.5026   -2.5613   -0.0375 H   0  0  0  0  0  0  0  0  0  0  0  0
   -6.5750   -1.5051    0.9093 H   0  0  0  0  0  0  0  0  0  0  0  0
   -5.6672   -2.7733    1.7187 H   0  0  0  0  0  0  0  0  0  0  0  0
   -5.2698    0.7433    0.4586 H   0  0  0  0  0  0  0  0  0  0  0  0
   -4.8587   -0.3957   -0.8294 H   0  0  0  0  0  0  0  0  0  0  0  0
   -2.8269    1.0824    0.9197 H   0  0  0  0  0  0  0  0  0  0  0  0
   -3.2695    1.4999   -0.7435 H   0  0  0  0  0  0  0  0  0  0  0  0
   -0.4607   -0.2799    1.5070 H   0  0  0  0  0  0  0  0  0  0  0  0
    1.8166    0.6026    1.5086 H   0  0  0  0  0  0  0  0  0  0  0  0
    5.2017    3.0601    0.5309 H   0  0  0  0  0  0  0  0  0  0  0  0
    7.0873    2.1131    1.8180 H   0  0  0  0  0  0  0  0  0  0  0  0
    5.5210   -1.8562    1.1928 H   0  0  0  0  0  0  0  0  0  0  0  0
    3.6479   -0.9233   -0.1013 H   0  0  0  0  0  0  0  0  0  0  0  0
    1.4141    1.7345   -2.6383 H   0  0  0  0  0  0  0  0  0  0  0  0
   -1.4203   -2.2259    0.0403 H   0  0  0  0  0  0  0  0  0  0  0  0
   -2.9042   -2.2451   -0.8938 H   0  0  0  0  0  0  0  0  0  0  0  0
   -2.6310   -1.3021    2.0019 H   0  0  0  0  0  0  0  0  0  0  0  0
   -3.3172   -2.8264    1.5023 H   0  0  0  0  0  0  0  0  0  0  0  0
  1  2  1  0
  2  3  1  0
  3  4  1  0
  4  5  1  0
  5  6  1  0
  6  7  2  0
  7  8  1  0
  8  9  2  0
  9 10  1  0
 10 11  2  0
 10 12  1  0
 12 13  2  0
 13 14  1  0
 14 15  2  0
 15 16  1  0
 15 17  1  0
 17 18  2  0
  9 19  1  0
 19 20  2  0
 20 21  1  0
 21 22  2  0
 21 23  1  0
  5 24  1  0
 24 25  1  0
 25  2  1  0
 20  6  1  0
 18 12  1  0
  1 26  1  0
  1 27  1  0
  1 28  1  0
  3 29  1  0
  3 30  1  0
  4 31  1  0
  4 32  1  0
  7 33  1  0
  8 34  1  0
 13 35  1  0
 14 36  1  0
 17 37  1  0
 18 38  1  0
 19 39  1  0
 24 40  1  0
 24 41  1  0
 25 42  1  0
 25 43  1  0
M  CHG  2  21   1  23  -1
M  END
$$$$
