
     RDKit          3D

 45 47  0  0  0  0  0  0  0  0999 V2000
    4.3014    1.4371   -3.8370 O   0  0  0  0  0  0  0  0  0  0  0  0
    3.3399    1.6671   -3.1122 C   0  0  0  0  0  0  0  0  0  0  0  0
    2.1450    2.5303   -3.5250 C   0  0  0  0  0  0  0  0  0  0  0  0
    1.0264    2.4130   -2.5951 N   0  0  0  0  0  0  0  0  0  0  0  0
    0.1731    1.3304   -2.7209 C   0  0  0  0  0  0  0  0  0  0  0  0
    0.1601    0.5952   -3.7016 O   0  0  0  0  0  0  0  0  0  0  0  0
   -0.6841    1.0377   -1.5410 C   0  0  0  0  0  0  0  0  0  0  0  0
   -1.0316   -0.2923   -1.2814 C   0  0  0  0  0  0  0  0  0  0  0  0
   -1.7918   -0.6100   -0.1517 C   0  0  0  0  0  0  0  0  0  0  0  0
   -2.2321    0.3921    0.7332 C   0  0  0  0  0  0  0  0  0  0  0  0
   -3.0196    0.0551    1.9339 C   0  0  0  0  0  0  0  0  0  0  0  0
   -4.1630   -0.7586    1.8491 C   0  0  0  0  0  0  0  0  0  0  0  0
   -4.9089   -1.0790    2.9908 C   0  0  0  0  0  0  0  0  0  0  0  0
   -4.5243   -0.5893    4.2395 C   0  0  0  0  0  0  0  0  0  0  0  0
   -3.3944    0.2184    4.3474 C   0  0  0  0  0  0  0  0  0  0  0  0
   -2.6493    0.5372    3.2048 C   0  0  0  0  0  0  0  0  0  0  0  0
   -1.8976    1.7275    0.4395 C   0  0  0  0  0  0  0  0  0  0  0  0
   -1.1328    2.0515   -0.6862 C   0  0  0  0  0  0  0  0  0  0  0  0
    3.2165    1.2539   -1.8178 O   0  0  0  0  0  0  0  0  0  0  0  0
    4.1130    0.2279   -1.3802 C   0  0  0  0  0  0  0  0  0  0  0  0
    3.2494   -0.9426   -0.9814 C   0  0  0  0  0  0  0  0  0  0  0  0
    2.6625   -0.9985    0.2953 C   0  0  0  0  0  0  0  0  0  0  0  0
    1.7946   -2.0419    0.6342 C   0  0  0  0  0  0  0  0  0  0  0  0
    1.5063   -3.0282   -0.3040 C   0  0  0  0  0  0  0  0  0  0  0  0
    0.4142   -4.2919    0.0965 Cl  0  0  0  0  0  0  0  0  0  0  0  0
    2.0799   -2.9855   -1.5783 C   0  0  0  0  0  0  0  0  0  0  0  0
    2.9479   -1.9431   -1.9158 C   0  0  0  0  0  0  0  0  0  0  0  0
    1.8244    2.2358   -4.5296 H   0  0  0  0  0  0  0  0  0  0  0  0
    2.4607    3.5775   -3.5210 H   0  0  0  0  0  0  0  0  0  0  0  0
    1.2096    2.7271   -1.6532 H   0  0  0  0  0  0  0  0  0  0  0  0
   -0.6945   -1.0887   -1.9444 H   0  0  0  0  0  0  0  0  0  0  0  0
   -2.0240   -1.6574    0.0424 H   0  0  0  0  0  0  0  0  0  0  0  0
   -4.4910   -1.1448    0.8834 H   0  0  0  0  0  0  0  0  0  0  0  0
   -5.7912   -1.7093    2.9014 H   0  0  0  0  0  0  0  0  0  0  0  0
   -5.1041   -0.8370    5.1259 H   0  0  0  0  0  0  0  0  0  0  0  0
   -3.0893    0.6032    5.3192 H   0  0  0  0  0  0  0  0  0  0  0  0
   -1.7631    1.1604    3.3161 H   0  0  0  0  0  0  0  0  0  0  0  0
   -2.2480    2.5329    1.0864 H   0  0  0  0  0  0  0  0  0  0  0  0
   -0.9159    3.0976   -0.8907 H   0  0  0  0  0  0  0  0  0  0  0  0
    4.8462   -0.0736   -2.1344 H   0  0  0  0  0  0  0  0  0  0  0  0
    4.6692    0.6035   -0.5164 H   0  0  0  0  0  0  0  0  0  0  0  0
    2.8644   -0.2185    1.0269 H   0  0  0  0  0  0  0  0  0  0  0  0
    1.3362   -2.0689    1.6213 H   0  0  0  0  0  0  0  0  0  0  0  0
    1.8394   -3.7495   -2.3206 H   0  0  0  0  0  0  0  0  0  0  0  0
    3.3705   -1.9038   -2.9207 H   0  0  0  0  0  0  0  0  0  0  0  0
  1  2  2  0
  2  3  1  0
  3  4  1  0
  4  5  1  0
  5  6  2  0
  5  7  1  0
  7  8  2  0
  8  9  1  0
  9 10  2  0
 10 11  1  0
 11 12  2  0
 12 13  1  0
 13 14  2  0
 14 15  1  0
 15 16  2  0
 10 17  1  0
 17 18  2  0
  2 19  1  0
 19 20  1  0
 20 21  1  0
 21 22  2  0
 22 23  1  0
 23 24  2  0
 24 25  1  0
 24 26  1  0
 26 27  2  0
 18  7  1  0
 27 21  1  0
 16 11  1  0
  3 28  1  0
  3 29  1  0
  4 30  1  0
  8 31  1  0
  9 32  1  0
 12 33  1  0
 13 34  1  0
 14 35  1  0
 15 36  1  0
 16 37  1  0
 17 38  1  0
 18 39  1  0
 20 40  1  0
 20 41  1  0
 22 42  1  0
 23 43  1  0
 26 44  1  0
 27 45  1  0
M  END
$$$$
