
     RDKit          3D

 60 61  0  0  0  0  0  0  0  0999 V2000
    0.8223   -3.2234    1.7306 C   0  0  0  0  0  0  0  0  0  0  0  0
    0.5092   -2.4940    0.5524 O   0  0  0  0  0  0  0  0  0  0  0  0
    1.0030   -1.2208    0.4395 C   0  0  0  0  0  0  0  0  0  0  0  0
    1.9678   -0.6761    1.2950 C   0  0  0  0  0  0  0  0  0  0  0  0
    2.4393    0.6257    1.1012 C   0  0  0  0  0  0  0  0  0  0  0  0
    1.9608    1.3958    0.0373 C   0  0  0  0  0  0  0  0  0  0  0  0
    2.4543    2.7747   -0.1995 C   0  0  0  0  0  0  0  0  0  0  0  0
    1.6827    3.6094   -0.6716 O   0  0  0  0  0  0  0  0  0  0  0  0
    3.8574    3.1687    0.0861 C   0  0  0  0  0  0  0  0  0  0  0  0
    4.9136    2.3466   -0.0025 C   0  0  0  0  0  0  0  0  0  0  0  0
    6.2814    2.8157    0.2374 C   0  0  0  0  0  0  0  0  0  0  0  0
    6.8241    3.8809   -0.4946 C   0  0  0  0  0  0  0  0  0  0  0  0
    8.1345    4.3012   -0.2593 C   0  0  0  0  0  0  0  0  0  0  0  0
    8.9006    3.6601    0.7075 C   0  0  0  0  0  0  0  0  0  0  0  0
   10.1700    4.1113    0.9129 O   0  0  0  0  0  0  0  0  0  0  0  0
    8.3836    2.5925    1.4358 C   0  0  0  0  0  0  0  0  0  0  0  0
    7.0738    2.1668    1.1945 C   0  0  0  0  0  0  0  0  0  0  0  0
    0.9599    0.8683   -0.7952 C   0  0  0  0  0  0  0  0  0  0  0  0
    0.4021    1.6199   -1.8030 O   0  0  0  0  0  0  0  0  0  0  0  0
    0.4900   -0.4478   -0.6240 C   0  0  0  0  0  0  0  0  0  0  0  0
   -0.5858   -1.0049   -1.5382 C   0  0  0  0  0  0  0  0  0  0  0  0
   -1.9747   -0.7612   -1.0035 C   0  0  0  0  0  0  0  0  0  0  0  0
   -2.9050   -1.6649   -0.6305 C   0  0  0  0  0  0  0  0  0  0  0  0
   -2.7118   -3.1582   -0.6495 C   0  0  0  0  0  0  0  0  0  0  0  0
   -4.2516   -1.1971   -0.1065 C   0  0  0  0  0  0  0  0  0  0  0  0
   -5.3878   -1.4202   -1.1106 C   0  0  0  0  0  0  0  0  0  0  0  0
   -6.6941   -0.8803   -0.5896 C   0  0  0  0  0  0  0  0  0  0  0  0
   -7.7569   -1.5762   -0.1393 C   0  0  0  0  0  0  0  0  0  0  0  0
   -9.0053   -0.8602    0.3112 C   0  0  0  0  0  0  0  0  0  0  0  0
   -7.8281   -3.0749   -0.0271 C   0  0  0  0  0  0  0  0  0  0  0  0
    0.5165   -2.6791    2.6297 H   0  0  0  0  0  0  0  0  0  0  0  0
    1.8870   -3.4753    1.7621 H   0  0  0  0  0  0  0  0  0  0  0  0
    0.2597   -4.1615    1.7020 H   0  0  0  0  0  0  0  0  0  0  0  0
    2.3758   -1.2433    2.1258 H   0  0  0  0  0  0  0  0  0  0  0  0
    3.1702    1.0244    1.7996 H   0  0  0  0  0  0  0  0  0  0  0  0
    3.9804    4.2279    0.2970 H   0  0  0  0  0  0  0  0  0  0  0  0
    4.8180    1.2972   -0.2662 H   0  0  0  0  0  0  0  0  0  0  0  0
    6.2378    4.3855   -1.2599 H   0  0  0  0  0  0  0  0  0  0  0  0
    8.5544    5.1275   -0.8272 H   0  0  0  0  0  0  0  0  0  0  0  0
   10.5292    3.6789    1.7059 H   0  0  0  0  0  0  0  0  0  0  0  0
    8.9802    2.0804    2.1847 H   0  0  0  0  0  0  0  0  0  0  0  0
    6.6762    1.3303    1.7656 H   0  0  0  0  0  0  0  0  0  0  0  0
    0.6490    2.5611   -1.6582 H   0  0  0  0  0  0  0  0  0  0  0  0
   -0.5134   -0.5368   -2.5286 H   0  0  0  0  0  0  0  0  0  0  0  0
   -0.3864   -2.0620   -1.7372 H   0  0  0  0  0  0  0  0  0  0  0  0
   -2.2284    0.2980   -0.9400 H   0  0  0  0  0  0  0  0  0  0  0  0
   -3.3946   -3.6227   -1.3676 H   0  0  0  0  0  0  0  0  0  0  0  0
   -1.7006   -3.4649   -0.9259 H   0  0  0  0  0  0  0  0  0  0  0  0
   -2.9107   -3.5784    0.3431 H   0  0  0  0  0  0  0  0  0  0  0  0
   -4.4699   -1.7211    0.8336 H   0  0  0  0  0  0  0  0  0  0  0  0
   -4.2050   -0.1316    0.1547 H   0  0  0  0  0  0  0  0  0  0  0  0
   -5.1590   -0.9004   -2.0503 H   0  0  0  0  0  0  0  0  0  0  0  0
   -5.4688   -2.4794   -1.3716 H   0  0  0  0  0  0  0  0  0  0  0  0
   -6.7590    0.2088   -0.6108 H   0  0  0  0  0  0  0  0  0  0  0  0
   -8.9274    0.2267    0.1966 H   0  0  0  0  0  0  0  0  0  0  0  0
   -9.8649   -1.1933   -0.2780 H   0  0  0  0  0  0  0  0  0  0  0  0
   -9.2038   -1.0697    1.3677 H   0  0  0  0  0  0  0  0  0  0  0  0
   -8.5772   -3.4676   -0.7225 H   0  0  0  0  0  0  0  0  0  0  0  0
   -6.8785   -3.5735   -0.2389 H   0  0  0  0  0  0  0  0  0  0  0  0
   -8.1165   -3.3636    0.9896 H   0  0  0  0  0  0  0  0  0  0  0  0
  1  2  1  0
  2  3  1  0
  3  4  2  0
  4  5  1  0
  5  6  2  0
  6  7  1  0
  7  8  2  0
  7  9  1  0
  9 10  2  3
 10 11  1  0
 11 12  2  0
 12 13  1  0
 13 14  2  0
 14 15  1  0
 14 16  1  0
 16 17  2  0
  6 18  1  0
 18 19  1  0
 18 20  2  0
 20 21  1  0
 21 22  1  0
 22 23  2  3
 23 24  1  0
 23 25  1  0
 25 26  1  0
 26 27  1  0
 27 28  2  3
 28 29  1  0
 28 30  1  0
 20  3  1  0
 17 11  1  0
  1 31  1  0
  1 32  1  0
  1 33  1  0
  4 34  1  0
  5 35  1  0
  9 36  1  0
 10 37  1  0
 12 38  1  0
 13 39  1  0
 15 40  1  0
 16 41  1  0
 17 42  1  0
 19 43  1  0
 21 44  1  0
 21 45  1  0
 22 46  1  0
 24 47  1  0
 24 48  1  0
 24 49  1  0
 25 50  1  0
 25 51  1  0
 26 52  1  0
 26 53  1  0
 27 54  1  0
 29 55  1  0
 29 56  1  0
 29 57  1  0
 30 58  1  0
 30 59  1  0
 30 60  1  0
M  END
$$$$
