
     RDKit          3D

 59 62  0  0  0  0  0  0  0  0999 V2000
    4.0437    3.8854   -1.7506 C   0  0  0  0  0  0  0  0  0  0  0  0
    4.2834    4.0244   -0.2553 C   0  0  0  0  0  0  0  0  0  0  0  0
    5.0807    2.9415    0.2316 O   0  0  0  0  0  0  0  0  0  0  0  0
    4.4530    1.8298    0.7158 C   0  0  0  0  0  0  0  0  0  0  0  0
    5.2973    0.9293    1.3700 C   0  0  0  0  0  0  0  0  0  0  0  0
    4.7966   -0.2563    1.9131 C   0  0  0  0  0  0  0  0  0  0  0  0
    3.4365   -0.5668    1.7969 C   0  0  0  0  0  0  0  0  0  0  0  0
    2.8878   -1.8613    2.3567 C   0  0  0  0  0  0  0  0  0  0  0  0
    3.3411   -3.0962    1.5638 C   0  0  0  0  0  0  0  0  0  0  0  0
    2.9185   -3.0673    0.1743 N   0  0  0  0  0  0  0  0  0  0  0  0
    1.6177   -3.3676   -0.1801 C   0  0  0  0  0  0  0  0  0  0  0  0
    0.7774   -3.7620    0.6279 O   0  0  0  0  0  0  0  0  0  0  0  0
    1.3156   -3.1725   -1.6573 C   0  0  0  0  0  0  0  0  0  0  0  0
    0.1700   -2.2186   -1.8873 C   0  0  0  0  0  0  0  0  0  0  0  0
    0.3956   -0.8326   -1.9319 C   0  0  0  0  0  0  0  0  0  0  0  0
   -0.6729    0.0493   -2.1111 C   0  0  0  0  0  0  0  0  0  0  0  0
   -1.9772   -0.4386   -2.2395 C   0  0  0  0  0  0  0  0  0  0  0  0
   -3.0524    0.4430   -2.4060 N   0  0  0  0  0  0  0  0  0  0  0  0
   -3.6488    0.8713   -1.3517 C   0  0  0  0  0  0  0  0  0  0  0  0
   -3.4207    0.6183   -0.0249 N   0  0  0  0  0  0  0  0  0  0  0  0
   -4.5081    0.9476    0.8788 C   0  0  0  0  0  0  0  0  0  0  0  0
   -5.5026   -0.1971    0.9979 C   0  0  0  0  0  0  0  0  0  0  0  0
   -6.9992    0.6106    1.4968 S   0  0  0  0  0  6  0  0  0  0  0  0
   -8.1217   -0.0290    0.8458 O   0  0  0  0  0  0  0  0  0  0  0  0
   -6.9390    0.7924    2.9332 O   0  0  0  0  0  0  0  0  0  0  0  0
   -6.6814    2.1870    0.7322 C   0  0  0  0  0  0  0  0  0  0  0  0
   -5.2362    2.1544    0.2599 C   0  0  0  0  0  0  0  0  0  0  0  0
   -5.0475    1.9291   -1.5479 S   0  0  0  0  0  0  0  0  0  0  0  0
   -2.2017   -1.8204   -2.2164 C   0  0  0  0  0  0  0  0  0  0  0  0
   -1.1386   -2.7057   -2.0299 C   0  0  0  0  0  0  0  0  0  0  0  0
    2.5931    0.3356    1.1356 C   0  0  0  0  0  0  0  0  0  0  0  0
    3.0974    1.5265    0.5978 C   0  0  0  0  0  0  0  0  0  0  0  0
    4.9956    3.7850   -2.2838 H   0  0  0  0  0  0  0  0  0  0  0  0
    3.4581    2.9888   -1.9786 H   0  0  0  0  0  0  0  0  0  0  0  0
    3.5108    4.7605   -2.1388 H   0  0  0  0  0  0  0  0  0  0  0  0
    4.8647    4.9371   -0.0841 H   0  0  0  0  0  0  0  0  0  0  0  0
    3.3514    4.1519    0.3078 H   0  0  0  0  0  0  0  0  0  0  0  0
    6.3580    1.1569    1.4641 H   0  0  0  0  0  0  0  0  0  0  0  0
    5.4786   -0.9304    2.4264 H   0  0  0  0  0  0  0  0  0  0  0  0
    1.7910   -1.8161    2.3878 H   0  0  0  0  0  0  0  0  0  0  0  0
    3.2134   -1.9593    3.3995 H   0  0  0  0  0  0  0  0  0  0  0  0
    4.4336   -3.1851    1.5596 H   0  0  0  0  0  0  0  0  0  0  0  0
    2.9318   -3.9986    2.0343 H   0  0  0  0  0  0  0  0  0  0  0  0
    3.4675   -2.4925   -0.4551 H   0  0  0  0  0  0  0  0  0  0  0  0
    1.0880   -4.1554   -2.0843 H   0  0  0  0  0  0  0  0  0  0  0  0
    2.2006   -2.8123   -2.1924 H   0  0  0  0  0  0  0  0  0  0  0  0
    1.4030   -0.4302   -1.8296 H   0  0  0  0  0  0  0  0  0  0  0  0
   -0.4924    1.1230   -2.1513 H   0  0  0  0  0  0  0  0  0  0  0  0
   -2.8289   -0.1811    0.1858 H   0  0  0  0  0  0  0  0  0  0  0  0
   -4.1166    1.2129    1.8679 H   0  0  0  0  0  0  0  0  0  0  0  0
   -5.2079   -0.9329    1.7514 H   0  0  0  0  0  0  0  0  0  0  0  0
   -5.6877   -0.7098    0.0488 H   0  0  0  0  0  0  0  0  0  0  0  0
   -7.4076    2.3558   -0.0664 H   0  0  0  0  0  0  0  0  0  0  0  0
   -6.8203    2.9488    1.5053 H   0  0  0  0  0  0  0  0  0  0  0  0
   -4.7247    3.0924    0.5051 H   0  0  0  0  0  0  0  0  0  0  0  0
   -3.2111   -2.2080   -2.3437 H   0  0  0  0  0  0  0  0  0  0  0  0
   -1.3406   -3.7772   -1.9930 H   0  0  0  0  0  0  0  0  0  0  0  0
    1.5304    0.1169    1.0316 H   0  0  0  0  0  0  0  0  0  0  0  0
    2.4039    2.1860    0.0880 H   0  0  0  0  0  0  0  0  0  0  0  0
  1  2  1  0
  2  3  1  0
  3  4  1  0
  4  5  2  0
  5  6  1  0
  6  7  2  0
  7  8  1  0
  8  9  1  0
  9 10  1  0
 10 11  1  0
 11 12  2  0
 11 13  1  0
 13 14  1  0
 14 15  2  0
 15 16  1  0
 16 17  2  0
 17 18  1  0
 18 19  2  3
 19 20  1  0
 20 21  1  0
 21 22  1  0
 22 23  1  0
 23 24  2  0
 23 25  2  0
 23 26  1  0
 26 27  1  0
 27 28  1  0
 17 29  1  0
 29 30  2  0
  7 31  1  0
 31 32  2  0
 32  4  1  0
 30 14  1  0
 28 19  1  0
 27 21  1  0
  1 33  1  0
  1 34  1  0
  1 35  1  0
  2 36  1  0
  2 37  1  0
  5 38  1  0
  6 39  1  0
  8 40  1  0
  8 41  1  0
  9 42  1  0
  9 43  1  0
 10 44  1  0
 13 45  1  0
 13 46  1  0
 15 47  1  0
 16 48  1  0
 20 49  1  0
 21 50  1  0
 22 51  1  0
 22 52  1  0
 26 53  1  0
 26 54  1  0
 27 55  1  0
 29 56  1  0
 30 57  1  0
 31 58  1  0
 32 59  1  0
M  END
$$$$
