
     RDKit          3D

 32 32  0  0  0  0  0  0  0  0999 V2000
    5.1108   -2.0278   -0.0102 C   0  0  0  0  0  0  0  0  0  0  0  0
    5.0046   -1.1550   -1.2485 C   0  0  0  0  0  0  0  0  0  0  0  0
    3.3947   -1.3635   -2.0597 S   0  0  0  0  0  0  0  0  0  0  0  0
    2.3616   -0.3313   -1.0920 C   0  0  0  0  0  0  0  0  0  0  0  0
    2.8132    0.5025   -0.1885 N   0  0  0  0  0  0  0  0  0  0  0  0
    1.7995    1.2158    0.4158 N   0  0  0  0  0  0  0  0  0  0  0  0
    0.6115    0.9117   -0.0483 C   0  0  0  0  0  0  0  0  0  0  0  0
   -0.5007    1.5679    0.3706 N   0  0  0  0  0  0  0  0  0  0  0  0
   -1.7944    0.8807    0.7232 C   0  0  0  0  0  0  0  0  0  0  0  0
   -2.3417    0.5725   -0.6094 N   0  0  0  0  0  0  0  0  0  0  0  0
   -3.6104    0.1296   -0.8222 C   0  0  0  0  0  0  0  0  0  0  0  0
   -3.9125   -0.2373   -2.2486 C   0  0  0  0  0  0  0  0  0  0  0  0
   -4.4406    0.0659    0.0745 O   0  0  0  0  0  0  0  0  0  0  0  0
   -2.6524    1.8612    1.5922 C   0  0  0  0  0  0  0  0  0  0  0  0
   -3.0860    2.9133    0.8475 F   0  0  0  0  0  0  0  0  0  0  0  0
   -1.8710    2.4075    2.5804 F   0  0  0  0  0  0  0  0  0  0  0  0
   -3.7131    1.3180    2.1944 F   0  0  0  0  0  0  0  0  0  0  0  0
   -1.6258   -0.3379    1.6770 C   0  0  0  0  0  0  0  0  0  0  0  0
   -2.7894   -0.9196    2.0224 F   0  0  0  0  0  0  0  0  0  0  0  0
   -0.8823   -1.3071    1.0989 F   0  0  0  0  0  0  0  0  0  0  0  0
   -0.9840   -0.0010    2.8269 F   0  0  0  0  0  0  0  0  0  0  0  0
    0.6666   -0.2914   -1.2835 S   0  0  0  0  0  0  0  0  0  0  0  0
    4.3553   -1.7552    0.7328 H   0  0  0  0  0  0  0  0  0  0  0  0
    4.9853   -3.0856   -0.2561 H   0  0  0  0  0  0  0  0  0  0  0  0
    6.0990   -1.9160    0.4477 H   0  0  0  0  0  0  0  0  0  0  0  0
    5.1784   -0.1075   -1.0054 H   0  0  0  0  0  0  0  0  0  0  0  0
    5.7753   -1.4544   -1.9633 H   0  0  0  0  0  0  0  0  0  0  0  0
   -0.2565    2.2306    1.1132 H   0  0  0  0  0  0  0  0  0  0  0  0
   -1.7071    0.6759   -1.3864 H   0  0  0  0  0  0  0  0  0  0  0  0
   -4.4982    0.5817   -2.7080 H   0  0  0  0  0  0  0  0  0  0  0  0
   -4.4908   -1.1511   -2.2575 H   0  0  0  0  0  0  0  0  0  0  0  0
   -2.9988   -0.3936   -2.8406 H   0  0  0  0  0  0  0  0  0  0  0  0
  1  2  1  0
  2  3  1  0
  3  4  1  0
  4  5  2  0
  5  6  1  0
  6  7  2  0
  7  8  1  0
  8  9  1  0
  9 10  1  0
 10 11  1  0
 11 12  1  0
 11 13  2  0
  9 14  1  0
 14 15  1  0
 14 16  1  0
 14 17  1  0
  9 18  1  0
 18 19  1  0
 18 20  1  0
 18 21  1  0
  7 22  1  0
 22  4  1  0
  1 23  1  0
  1 24  1  0
  1 25  1  0
  2 26  1  0
  2 27  1  0
  8 28  1  0
 10 29  1  0
 12 30  1  0
 12 31  1  0
 12 32  1  0
M  END
$$$$
