
     RDKit          3D

 46 48  0  0  0  0  0  0  0  0999 V2000
   -0.0544    3.3385   -2.0231 O   0  0  0  0  0  0  0  0  0  0  0  0
    0.3804    2.2132   -1.7847 C   0  0  0  0  0  0  0  0  0  0  0  0
    1.8522    1.8865   -1.9745 C   0  0  0  0  0  0  0  0  0  0  0  0
    2.5396    1.6034   -0.6333 C   0  0  0  0  0  0  0  0  0  0  0  0
    2.0895    0.3330   -0.0130 N   0  0  0  0  0  0  0  0  0  0  0  0
    2.0541    0.4594    1.4566 C   0  0  0  0  0  0  0  0  0  0  0  0
    1.8796   -0.8519    2.2352 C   0  0  0  0  0  0  0  0  0  0  0  0
    3.0912   -1.8030    2.2373 C   0  0  0  0  0  0  0  0  0  0  0  0
    4.3310   -1.3004    1.4978 C   0  0  0  0  0  0  0  0  0  0  0  0
    4.1644   -1.1911   -0.0192 C   0  0  0  0  0  0  0  0  0  0  0  0
    2.7636   -0.8577   -0.5412 C   0  0  0  0  0  0  0  0  0  0  0  0
   -0.3426    1.1105   -1.3697 N   0  0  0  0  0  0  0  0  0  0  0  0
   -1.7135    1.0197   -1.0764 C   0  0  0  0  0  0  0  0  0  0  0  0
   -2.5890    2.1105   -1.0851 C   0  0  0  0  0  0  0  0  0  0  0  0
   -3.9342    1.9367   -0.7360 C   0  0  0  0  0  0  0  0  0  0  0  0
   -4.4156    0.6682   -0.4106 C   0  0  0  0  0  0  0  0  0  0  0  0
   -3.5551   -0.4343   -0.4503 C   0  0  0  0  0  0  0  0  0  0  0  0
   -2.2040   -0.2534   -0.7442 C   0  0  0  0  0  0  0  0  0  0  0  0
   -3.9688   -1.7224   -0.2035 O   0  0  0  0  0  0  0  0  0  0  0  0
   -5.3949   -1.8230   -0.3014 C   0  0  0  0  0  0  0  0  0  0  0  0
   -6.0554   -0.7076    0.4965 C   0  0  0  0  0  0  0  0  0  0  0  0
   -5.7398    0.5753   -0.0651 O   0  0  0  0  0  0  0  0  0  0  0  0
    2.3305    2.7541   -2.4559 H   0  0  0  0  0  0  0  0  0  0  0  0
    1.9454    1.0505   -2.6809 H   0  0  0  0  0  0  0  0  0  0  0  0
    3.6293    1.6029   -0.7658 H   0  0  0  0  0  0  0  0  0  0  0  0
    2.3119    2.4536    0.0292 H   0  0  0  0  0  0  0  0  0  0  0  0
    2.9392    0.9948    1.8271 H   0  0  0  0  0  0  0  0  0  0  0  0
    1.1976    1.1035    1.7115 H   0  0  0  0  0  0  0  0  0  0  0  0
    0.9940   -1.3914    1.8751 H   0  0  0  0  0  0  0  0  0  0  0  0
    1.6450   -0.5894    3.2795 H   0  0  0  0  0  0  0  0  0  0  0  0
    3.3767   -1.9828    3.2872 H   0  0  0  0  0  0  0  0  0  0  0  0
    2.7876   -2.7879    1.8509 H   0  0  0  0  0  0  0  0  0  0  0  0
    4.6488   -0.3330    1.9101 H   0  0  0  0  0  0  0  0  0  0  0  0
    5.1700   -1.9839    1.7028 H   0  0  0  0  0  0  0  0  0  0  0  0
    4.4393   -2.1658   -0.4498 H   0  0  0  0  0  0  0  0  0  0  0  0
    4.8963   -0.4715   -0.4181 H   0  0  0  0  0  0  0  0  0  0  0  0
    2.8307   -0.7814   -1.6358 H   0  0  0  0  0  0  0  0  0  0  0  0
    2.1058   -1.7264   -0.3849 H   0  0  0  0  0  0  0  0  0  0  0  0
    0.2214    0.2929   -1.1315 H   0  0  0  0  0  0  0  0  0  0  0  0
   -2.2531    3.1115   -1.3423 H   0  0  0  0  0  0  0  0  0  0  0  0
   -4.6018    2.7996   -0.7067 H   0  0  0  0  0  0  0  0  0  0  0  0
   -1.5481   -1.1220   -0.7370 H   0  0  0  0  0  0  0  0  0  0  0  0
   -5.6903   -2.8043    0.0908 H   0  0  0  0  0  0  0  0  0  0  0  0
   -5.6787   -1.7794   -1.3643 H   0  0  0  0  0  0  0  0  0  0  0  0
   -7.1434   -0.8178    0.4707 H   0  0  0  0  0  0  0  0  0  0  0  0
   -5.7326   -0.7175    1.5460 H   0  0  0  0  0  0  0  0  0  0  0  0
  1  2  2  0
  2  3  1  0
  3  4  1  0
  4  5  1  0
  5  6  1  0
  6  7  1  0
  7  8  1  0
  8  9  1  0
  9 10  1  0
 10 11  1  0
  2 12  1  0
 12 13  1  0
 13 14  2  0
 14 15  1  0
 15 16  2  0
 16 17  1  0
 17 18  2  0
 17 19  1  0
 19 20  1  0
 20 21  1  0
 21 22  1  0
 11  5  1  0
 18 13  1  0
 22 16  1  0
  3 23  1  0
  3 24  1  0
  4 25  1  0
  4 26  1  0
  6 27  1  0
  6 28  1  0
  7 29  1  0
  7 30  1  0
  8 31  1  0
  8 32  1  0
  9 33  1  0
  9 34  1  0
 10 35  1  0
 10 36  1  0
 11 37  1  0
 11 38  1  0
 12 39  1  0
 14 40  1  0
 15 41  1  0
 18 42  1  0
 20 43  1  0
 20 44  1  0
 21 45  1  0
 21 46  1  0
M  END
$$$$
