
     RDKit          3D

 37 39  0  0  0  0  0  0  0  0999 V2000
   -0.3151   -3.0392   -1.9921 C   0  0  0  0  0  0  0  0  0  0  0  0
   -0.8966   -2.2339   -3.0107 O   0  0  0  0  0  0  0  0  0  0  0  0
   -1.3110   -0.9709   -2.5962 C   0  0  0  0  0  0  0  0  0  0  0  0
   -2.2243   -0.3643   -3.4709 C   0  0  0  0  0  0  0  0  0  0  0  0
   -2.7345    0.9007   -3.2027 C   0  0  0  0  0  0  0  0  0  0  0  0
   -2.3536    1.5869   -2.0478 C   0  0  0  0  0  0  0  0  0  0  0  0
   -2.8454    2.8451   -1.7878 O   0  0  0  0  0  0  0  0  0  0  0  0
   -4.2428    2.7978   -1.5017 C   0  0  0  0  0  0  0  0  0  0  0  0
   -1.4020    1.0009   -1.1936 C   0  0  0  0  0  0  0  0  0  0  0  0
   -0.7273    1.6153    0.2607 S   0  0  0  0  0  0  0  0  0  0  0  0
    0.2869    0.2249    0.4213 C   0  0  0  0  0  0  0  0  0  0  0  0
    1.1886    0.0444    1.4471 N   0  0  0  0  0  0  0  0  0  0  0  0
    1.8320    1.2249    2.0419 C   0  0  0  0  0  0  0  0  0  0  0  0
    2.4552    0.8728    3.3921 C   0  0  0  0  0  0  0  0  0  0  0  0
    3.4157   -0.3027    3.2757 C   0  0  0  0  0  0  0  0  0  0  0  0
    2.7114   -1.4941    2.6414 C   0  0  0  0  0  0  0  0  0  0  0  0
    2.0703   -1.1268    1.3047 C   0  0  0  0  0  0  0  0  0  0  0  0
    0.0828   -0.6734   -0.5136 N   0  0  0  0  0  0  0  0  0  0  0  0
   -0.8624   -0.2610   -1.4469 C   0  0  0  0  0  0  0  0  0  0  0  0
   -0.9272   -3.0466   -1.0842 H   0  0  0  0  0  0  0  0  0  0  0  0
    0.7188   -2.7330   -1.8100 H   0  0  0  0  0  0  0  0  0  0  0  0
   -0.2718   -4.0704   -2.3663 H   0  0  0  0  0  0  0  0  0  0  0  0
   -2.5388   -0.8968   -4.3660 H   0  0  0  0  0  0  0  0  0  0  0  0
   -3.4271    1.3564   -3.9052 H   0  0  0  0  0  0  0  0  0  0  0  0
   -4.8219    2.6990   -2.4253 H   0  0  0  0  0  0  0  0  0  0  0  0
   -4.4898    1.9853   -0.8086 H   0  0  0  0  0  0  0  0  0  0  0  0
   -4.5199    3.7416   -1.0233 H   0  0  0  0  0  0  0  0  0  0  0  0
    1.1186    2.0357    2.2258 H   0  0  0  0  0  0  0  0  0  0  0  0
    2.6018    1.6099    1.3607 H   0  0  0  0  0  0  0  0  0  0  0  0
    1.6588    0.6196    4.1047 H   0  0  0  0  0  0  0  0  0  0  0  0
    2.9820    1.7426    3.7979 H   0  0  0  0  0  0  0  0  0  0  0  0
    4.2817   -0.0170    2.6690 H   0  0  0  0  0  0  0  0  0  0  0  0
    3.7904   -0.5769    4.2663 H   0  0  0  0  0  0  0  0  0  0  0  0
    3.4249   -2.3130    2.4978 H   0  0  0  0  0  0  0  0  0  0  0  0
    1.9364   -1.8605    3.3273 H   0  0  0  0  0  0  0  0  0  0  0  0
    1.5092   -2.0061    0.9622 H   0  0  0  0  0  0  0  0  0  0  0  0
    2.8460   -0.9175    0.5565 H   0  0  0  0  0  0  0  0  0  0  0  0
  1  2  1  0
  2  3  1  0
  3  4  2  0
  4  5  1  0
  5  6  2  0
  6  7  1  0
  7  8  1  0
  6  9  1  0
  9 10  1  0
 10 11  1  0
 11 12  1  0
 12 13  1  0
 13 14  1  0
 14 15  1  0
 15 16  1  0
 16 17  1  0
 11 18  2  0
 18 19  1  0
 19  3  1  0
 19  9  2  0
 17 12  1  0
  1 20  1  0
  1 21  1  0
  1 22  1  0
  4 23  1  0
  5 24  1  0
  8 25  1  0
  8 26  1  0
  8 27  1  0
 13 28  1  0
 13 29  1  0
 14 30  1  0
 14 31  1  0
 15 32  1  0
 15 33  1  0
 16 34  1  0
 16 35  1  0
 17 36  1  0
 17 37  1  0
M  END
$$$$
