
     RDKit          3D

 64 68  0  0  0  0  0  0  0  0999 V2000
   -2.4450   -2.3143    2.4103 C   0  0  0  0  0  0  0  0  0  0  0  0
   -2.7822   -0.8815    2.8466 C   0  0  0  0  0  0  0  0  0  0  0  0
   -4.1295   -0.8802    3.5851 C   0  0  0  0  0  0  0  0  0  0  0  0
   -1.6829   -0.3856    3.8010 C   0  0  0  0  0  0  0  0  0  0  0  0
   -2.8914    0.1192    1.6790 C   0  0  0  0  0  0  0  0  0  0  0  0
   -2.8859    1.3383    1.8619 O   0  0  0  0  0  0  0  0  0  0  0  0
   -3.1172   -0.3821    0.2930 C   0  0  0  0  0  0  0  0  0  0  0  0
   -4.4833   -0.5952   -0.0278 C   0  0  0  0  0  0  0  0  0  0  0  0
   -5.6075   -0.7861   -0.2414 N   0  0  0  0  0  0  0  0  0  0  0  0
   -2.0836   -0.4365   -0.5754 C   0  0  0  0  0  0  0  0  0  0  0  0
   -0.4830    0.1057   -0.1139 S   0  0  0  0  0  0  0  0  0  0  0  0
    0.0117    0.2297   -1.7552 C   0  0  0  0  0  0  0  0  0  0  0  0
    1.1604    0.7616   -2.2033 C   0  0  0  0  0  0  0  0  0  0  0  0
    2.2110    1.2677   -1.3824 C   0  0  0  0  0  0  0  0  0  0  0  0
    2.5704    2.5915   -1.2987 C   0  0  0  0  0  0  0  0  0  0  0  0
    3.5298    2.6777   -0.3167 N   0  0  0  0  0  0  0  0  0  0  0  0
    4.1636    3.8469    0.1905 C   0  0  0  0  0  0  0  0  0  0  0  0
    3.8719    5.1190   -0.3218 C   0  0  0  0  0  0  0  0  0  0  0  0
    4.5152    6.2467    0.1999 C   0  0  0  0  0  0  0  0  0  0  0  0
    5.4421    6.1161    1.2327 C   0  0  0  0  0  0  0  0  0  0  0  0
    5.7317    4.8562    1.7514 C   0  0  0  0  0  0  0  0  0  0  0  0
    5.0958    3.7248    1.2331 C   0  0  0  0  0  0  0  0  0  0  0  0
    3.8414    1.4521    0.1782 N   0  0  0  0  0  0  0  0  0  0  0  0
    3.0633    0.5807   -0.4770 C   0  0  0  0  0  0  0  0  0  0  0  0
    3.1546   -0.8503   -0.2004 C   0  0  0  0  0  0  0  0  0  0  0  0
    3.4099   -1.3227    1.0914 C   0  0  0  0  0  0  0  0  0  0  0  0
    3.5030   -2.6950    1.3214 C   0  0  0  0  0  0  0  0  0  0  0  0
    3.3369   -3.5560    0.2454 C   0  0  0  0  0  0  0  0  0  0  0  0
    3.0844   -3.1452   -1.0149 N   0  0  0  0  0  0  0  0  0  0  0  0
    3.0196   -1.8029   -1.2104 C   0  0  0  0  0  0  0  0  0  0  0  0
   -0.9930   -0.3658   -2.6747 C   0  0  0  0  0  0  0  0  0  0  0  0
   -0.7850   -0.4851   -3.8746 O   0  0  0  0  0  0  0  0  0  0  0  0
   -2.1124   -0.7911   -1.9306 N   0  0  0  0  0  0  0  0  0  0  0  0
   -3.0715   -1.6427   -2.5663 C   0  0  0  0  0  0  0  0  0  0  0  0
   -3.5408   -1.3661   -3.8602 C   0  0  0  0  0  0  0  0  0  0  0  0
   -4.4692   -2.2109   -4.4797 C   0  0  0  0  0  0  0  0  0  0  0  0
   -4.9179   -3.3438   -3.8137 C   0  0  0  0  0  0  0  0  0  0  0  0
   -5.8042   -4.1576   -4.4045 F   0  0  0  0  0  0  0  0  0  0  0  0
   -4.4484   -3.6528   -2.5446 C   0  0  0  0  0  0  0  0  0  0  0  0
   -3.5218   -2.8098   -1.9242 C   0  0  0  0  0  0  0  0  0  0  0  0
   -1.5083   -2.3542    1.8454 H   0  0  0  0  0  0  0  0  0  0  0  0
   -2.3333   -2.9742    3.2796 H   0  0  0  0  0  0  0  0  0  0  0  0
   -3.2341   -2.7432    1.7824 H   0  0  0  0  0  0  0  0  0  0  0  0
   -4.9333   -1.2518    2.9382 H   0  0  0  0  0  0  0  0  0  0  0  0
   -4.4091    0.1324    3.9027 H   0  0  0  0  0  0  0  0  0  0  0  0
   -4.0978   -1.5172    4.4773 H   0  0  0  0  0  0  0  0  0  0  0  0
   -1.6035   -1.0337    4.6833 H   0  0  0  0  0  0  0  0  0  0  0  0
   -0.7057   -0.3640    3.3068 H   0  0  0  0  0  0  0  0  0  0  0  0
   -1.8933    0.6303    4.1550 H   0  0  0  0  0  0  0  0  0  0  0  0
    1.3285    0.8079   -3.2789 H   0  0  0  0  0  0  0  0  0  0  0  0
    2.1905    3.4634   -1.8078 H   0  0  0  0  0  0  0  0  0  0  0  0
    3.1587    5.2720   -1.1239 H   0  0  0  0  0  0  0  0  0  0  0  0
    4.2939    7.2358   -0.1985 H   0  0  0  0  0  0  0  0  0  0  0  0
    5.9364    7.0010    1.6316 H   0  0  0  0  0  0  0  0  0  0  0  0
    6.4474    4.7490    2.5610 H   0  0  0  0  0  0  0  0  0  0  0  0
    5.3379    2.7520    1.6573 H   0  0  0  0  0  0  0  0  0  0  0  0
    3.5449   -0.6236    1.9178 H   0  0  0  0  0  0  0  0  0  0  0  0
    3.7257   -3.0769    2.3099 H   0  0  0  0  0  0  0  0  0  0  0  0
    3.4099   -4.6334    0.3734 H   0  0  0  0  0  0  0  0  0  0  0  0
    2.8739   -1.5144   -2.2513 H   0  0  0  0  0  0  0  0  0  0  0  0
   -3.2082   -0.4796   -4.3966 H   0  0  0  0  0  0  0  0  0  0  0  0
   -4.8433   -1.9927   -5.4761 H   0  0  0  0  0  0  0  0  0  0  0  0
   -4.7981   -4.5514   -2.0463 H   0  0  0  0  0  0  0  0  0  0  0  0
   -3.1406   -3.1081   -0.9510 H   0  0  0  0  0  0  0  0  0  0  0  0
  1  2  1  0
  2  3  1  0
  2  4  1  0
  2  5  1  0
  5  6  2  0
  5  7  1  0
  7  8  1  0
  8  9  3  0
  7 10  2  3
 10 11  1  0
 11 12  1  0
 12 13  2  3
 13 14  1  0
 14 15  2  0
 15 16  1  0
 16 17  1  0
 17 18  2  0
 18 19  1  0
 19 20  2  0
 20 21  1  0
 21 22  2  0
 16 23  1  0
 23 24  2  0
 24 25  1  0
 25 26  2  0
 26 27  1  0
 27 28  2  0
 28 29  1  0
 29 30  2  0
 12 31  1  0
 31 32  2  0
 31 33  1  0
 33 34  1  0
 34 35  2  0
 35 36  1  0
 36 37  2  0
 37 38  1  0
 37 39  1  0
 39 40  2  0
 33 10  1  0
 40 34  1  0
 24 14  1  0
 30 25  1  0
 22 17  1  0
  1 41  1  0
  1 42  1  0
  1 43  1  0
  3 44  1  0
  3 45  1  0
  3 46  1  0
  4 47  1  0
  4 48  1  0
  4 49  1  0
 13 50  1  0
 15 51  1  0
 18 52  1  0
 19 53  1  0
 20 54  1  0
 21 55  1  0
 22 56  1  0
 26 57  1  0
 27 58  1  0
 28 59  1  0
 30 60  1  0
 35 61  1  0
 36 62  1  0
 39 63  1  0
 40 64  1  0
M  END
$$$$
