
     RDKit          3D

 47 50  0  0  0  0  0  0  0  0999 V2000
   -4.9037    0.4863   -0.4618 C   0  0  0  0  0  0  0  0  0  0  0  0
   -4.4088    1.4189    0.5531 N   0  0  0  0  0  0  0  0  0  0  0  0
   -3.1253    2.0102    0.1377 C   0  0  0  0  0  0  0  0  0  0  0  0
   -1.9160    1.0360    0.1087 C   0  0  0  0  0  0  0  0  0  0  0  0
   -2.0357   -0.1231    1.0204 N   0  0  0  0  0  0  0  0  0  0  0  0
   -0.7282   -0.6820    1.3849 C   0  0  0  0  0  0  0  0  0  0  0  0
   -0.0299   -1.3317    0.2125 C   0  0  0  0  0  0  0  0  0  0  0  0
   -0.5919   -2.4603   -0.3893 C   0  0  0  0  0  0  0  0  0  0  0  0
    0.0374   -3.0718   -1.4767 C   0  0  0  0  0  0  0  0  0  0  0  0
   -0.7444   -4.4647   -2.1504 Cl  0  0  0  0  0  0  0  0  0  0  0  0
    1.2516   -2.5662   -2.0055 C   0  0  0  0  0  0  0  0  0  0  0  0
    1.9360   -3.1289   -3.1067 C   0  0  0  0  0  0  0  0  0  0  0  0
    3.1189   -2.5677   -3.5718 C   0  0  0  0  0  0  0  0  0  0  0  0
    3.5944   -1.4474   -2.9277 C   0  0  0  0  0  0  0  0  0  0  0  0
    2.9755   -0.8724   -1.8759 N   0  0  0  0  0  0  0  0  0  0  0  0
    1.8300   -1.4242   -1.4130 C   0  0  0  0  0  0  0  0  0  0  0  0
    1.1792   -0.8520   -0.3110 C   0  0  0  0  0  0  0  0  0  0  0  0
    1.7512    0.3037    0.2531 O   0  0  0  0  0  0  0  0  0  0  0  0
    2.8127    0.0075    1.1070 C   0  0  0  0  0  0  0  0  0  0  0  0
    3.0626   -1.1107    1.5477 O   0  0  0  0  0  0  0  0  0  0  0  0
    3.5130    1.2377    1.4353 C   0  0  0  0  0  0  0  0  0  0  0  0
    3.3269    2.5187    0.9434 C   0  0  0  0  0  0  0  0  0  0  0  0
    4.2217    3.4648    1.5238 C   0  0  0  0  0  0  0  0  0  0  0  0
    5.0652    2.8790    2.4395 C   0  0  0  0  0  0  0  0  0  0  0  0
    4.7787    1.2011    2.5934 S   0  0  0  0  0  0  0  0  0  0  0  0
   -2.8127    0.2531    2.2095 C   0  0  0  0  0  0  0  0  0  0  0  0
   -4.2448    0.7409    1.8581 C   0  0  0  0  0  0  0  0  0  0  0  0
   -5.9002    0.1227   -0.1862 H   0  0  0  0  0  0  0  0  0  0  0  0
   -4.2546   -0.3832   -0.6083 H   0  0  0  0  0  0  0  0  0  0  0  0
   -5.0176    0.9951   -1.4256 H   0  0  0  0  0  0  0  0  0  0  0  0
   -3.2275    2.5000   -0.8388 H   0  0  0  0  0  0  0  0  0  0  0  0
   -2.8959    2.8200    0.8440 H   0  0  0  0  0  0  0  0  0  0  0  0
   -1.8069    0.6521   -0.9127 H   0  0  0  0  0  0  0  0  0  0  0  0
   -1.0177    1.6255    0.3339 H   0  0  0  0  0  0  0  0  0  0  0  0
   -0.8596   -1.4685    2.1408 H   0  0  0  0  0  0  0  0  0  0  0  0
   -0.0995    0.0799    1.8613 H   0  0  0  0  0  0  0  0  0  0  0  0
   -1.5325   -2.8567   -0.0099 H   0  0  0  0  0  0  0  0  0  0  0  0
    1.5518   -4.0125   -3.6111 H   0  0  0  0  0  0  0  0  0  0  0  0
    3.6511   -2.9959   -4.4135 H   0  0  0  0  0  0  0  0  0  0  0  0
    4.5139   -0.9643   -3.2456 H   0  0  0  0  0  0  0  0  0  0  0  0
    2.5858    2.7696    0.1930 H   0  0  0  0  0  0  0  0  0  0  0  0
    4.2474    4.5198    1.2787 H   0  0  0  0  0  0  0  0  0  0  0  0
    5.8408    3.3533    3.0256 H   0  0  0  0  0  0  0  0  0  0  0  0
   -2.9067   -0.6030    2.8888 H   0  0  0  0  0  0  0  0  0  0  0  0
   -2.2891    1.0456    2.7614 H   0  0  0  0  0  0  0  0  0  0  0  0
   -4.5536    1.4483    2.6383 H   0  0  0  0  0  0  0  0  0  0  0  0
   -4.9431   -0.1026    1.9388 H   0  0  0  0  0  0  0  0  0  0  0  0
  1  2  1  0
  2  3  1  0
  3  4  1  0
  4  5  1  0
  5  6  1  0
  6  7  1  0
  7  8  2  0
  8  9  1  0
  9 10  1  0
  9 11  2  0
 11 12  1  0
 12 13  2  0
 13 14  1  0
 14 15  2  0
 15 16  1  0
 16 17  2  0
 17 18  1  0
 18 19  1  0
 19 20  2  0
 19 21  1  0
 21 22  2  0
 22 23  1  0
 23 24  2  0
 24 25  1  0
  5 26  1  0
 26 27  1  0
 27  2  1  0
 17  7  1  0
 25 21  1  0
 16 11  1  0
  1 28  1  0
  1 29  1  0
  1 30  1  0
  3 31  1  0
  3 32  1  0
  4 33  1  0
  4 34  1  0
  6 35  1  0
  6 36  1  0
  8 37  1  0
 12 38  1  0
 13 39  1  0
 14 40  1  0
 22 41  1  0
 23 42  1  0
 24 43  1  0
 26 44  1  0
 26 45  1  0
 27 46  1  0
 27 47  1  0
M  END
$$$$
