
     RDKit          3D

 32 33  0  0  0  0  0  0  0  0999 V2000
   -5.0497   -0.6573    1.8182 C   0  0  0  0  0  0  0  0  0  0  0  0
   -5.0169    0.3881    0.8528 O   0  0  0  0  0  0  0  0  0  0  0  0
   -3.8482    0.5418    0.1521 C   0  0  0  0  0  0  0  0  0  0  0  0
   -2.6846   -0.2138    0.3098 C   0  0  0  0  0  0  0  0  0  0  0  0
   -1.5469    0.0570   -0.4709 C   0  0  0  0  0  0  0  0  0  0  0  0
   -0.3513   -0.7765   -0.2857 C   0  0  0  0  0  0  0  0  0  0  0  0
    0.9012   -0.2926   -0.2944 C   0  0  0  0  0  0  0  0  0  0  0  0
    2.0645   -1.2081   -0.0739 C   0  0  0  0  0  0  0  0  0  0  0  0
    1.8620   -2.4044    0.1263 O   0  0  0  0  0  0  0  0  0  0  0  0
    3.3961   -0.6244   -0.1059 C   0  0  0  0  0  0  0  0  0  0  0  0
    3.8760    0.6627   -0.3115 C   0  0  0  0  0  0  0  0  0  0  0  0
    5.2923    0.6054   -0.2236 C   0  0  0  0  0  0  0  0  0  0  0  0
    5.5867   -0.7113    0.0298 C   0  0  0  0  0  0  0  0  0  0  0  0
    6.8322   -1.3863    0.2201 N   0  0  0  0  0  4  0  0  0  0  0  0
    7.8488   -0.6817    0.1471 O   0  0  0  0  0  0  0  0  0  0  0  0
    6.8081   -2.6028    0.4405 O   0  0  0  0  0  1  0  0  0  0  0  0
    4.4630   -1.4681    0.1044 O   0  0  0  0  0  0  0  0  0  0  0  0
   -1.5985    1.0763   -1.4332 C   0  0  0  0  0  0  0  0  0  0  0  0
   -2.7572    1.8353   -1.5955 C   0  0  0  0  0  0  0  0  0  0  0  0
   -3.8635    1.5638   -0.8026 C   0  0  0  0  0  0  0  0  0  0  0  0
   -4.9874    2.3234   -0.9815 O   0  0  0  0  0  0  0  0  0  0  0  0
   -4.9026   -1.6347    1.3469 H   0  0  0  0  0  0  0  0  0  0  0  0
   -6.0426   -0.6555    2.2782 H   0  0  0  0  0  0  0  0  0  0  0  0
   -4.3148   -0.4843    2.6113 H   0  0  0  0  0  0  0  0  0  0  0  0
   -2.6340   -1.0153    1.0403 H   0  0  0  0  0  0  0  0  0  0  0  0
   -0.5336   -1.8360   -0.1087 H   0  0  0  0  0  0  0  0  0  0  0  0
    1.0989    0.7601   -0.4416 H   0  0  0  0  0  0  0  0  0  0  0  0
    3.2852    1.5483   -0.5033 H   0  0  0  0  0  0  0  0  0  0  0  0
    6.0022    1.4148   -0.3304 H   0  0  0  0  0  0  0  0  0  0  0  0
   -0.7472    1.2825   -2.0767 H   0  0  0  0  0  0  0  0  0  0  0  0
   -2.8017    2.6261   -2.3384 H   0  0  0  0  0  0  0  0  0  0  0  0
   -5.6365    1.9673   -0.3438 H   0  0  0  0  0  0  0  0  0  0  0  0
  1  2  1  0
  2  3  1  0
  3  4  2  0
  4  5  1  0
  5  6  1  0
  6  7  2  3
  7  8  1  0
  8  9  2  0
  8 10  1  0
 10 11  2  0
 11 12  1  0
 12 13  2  0
 13 14  1  0
 14 15  2  0
 14 16  1  0
 13 17  1  0
  5 18  2  0
 18 19  1  0
 19 20  2  0
 20 21  1  0
 20  3  1  0
 17 10  1  0
  1 22  1  0
  1 23  1  0
  1 24  1  0
  4 25  1  0
  6 26  1  0
  7 27  1  0
 11 28  1  0
 12 29  1  0
 18 30  1  0
 19 31  1  0
 21 32  1  0
M  CHG  2  14   1  16  -1
M  END
$$$$
