
     RDKit          3D

 30 31  0  0  0  0  0  0  0  0999 V2000
    1.4084   -0.0984   -2.2672 C   0  0  0  0  0  0  0  0  0  0  0  0
    1.2541   -0.1294   -0.7592 C   0  0  0  0  0  0  0  0  0  0  0  0
    0.1054   -0.0501   -0.1519 N   0  0  0  0  0  0  0  0  0  0  0  0
   -1.0121    0.0692   -0.9219 N   0  0  0  0  0  0  0  0  0  0  0  0
   -2.2605    0.1038   -0.2703 C   0  0  0  0  0  0  0  0  0  0  0  0
   -3.2376    0.7581   -0.9263 N   0  0  0  0  0  0  0  0  0  0  0  0
   -4.4452    0.8129   -0.3536 C   0  0  0  0  0  0  0  0  0  0  0  0
   -5.4312    1.5197   -1.0403 N   0  0  0  0  0  0  0  0  0  0  0  0
   -4.7143    0.2537    0.8659 C   0  0  0  0  0  0  0  0  0  0  0  0
   -3.6561   -0.3897    1.4472 C   0  0  0  0  0  0  0  0  0  0  0  0
   -3.8327   -1.1514    2.9761 Cl  0  0  0  0  0  0  0  0  0  0  0  0
   -2.4352   -0.4924    0.9143 N   0  0  0  0  0  0  0  0  0  0  0  0
    2.4841   -0.2784    0.0799 C   0  0  0  0  0  0  0  0  0  0  0  0
    3.6242   -0.9399   -0.3969 C   0  0  0  0  0  0  0  0  0  0  0  0
    4.7526   -1.0638    0.4188 C   0  0  0  0  0  0  0  0  0  0  0  0
    4.7348   -0.5365    1.7055 C   0  0  0  0  0  0  0  0  0  0  0  0
    5.8186   -0.6589    2.4824 F   0  0  0  0  0  0  0  0  0  0  0  0
    3.6072    0.1082    2.1984 C   0  0  0  0  0  0  0  0  0  0  0  0
    2.4779    0.2342    1.3869 C   0  0  0  0  0  0  0  0  0  0  0  0
    1.0610   -1.0476   -2.6847 H   0  0  0  0  0  0  0  0  0  0  0  0
    2.4427    0.0725   -2.5735 H   0  0  0  0  0  0  0  0  0  0  0  0
    0.8195    0.7198   -2.6911 H   0  0  0  0  0  0  0  0  0  0  0  0
   -1.0462    0.7922   -1.6351 H   0  0  0  0  0  0  0  0  0  0  0  0
   -6.2828    0.9822   -1.1591 H   0  0  0  0  0  0  0  0  0  0  0  0
   -5.0442    1.8156   -1.9332 H   0  0  0  0  0  0  0  0  0  0  0  0
   -5.6823    0.3228    1.3381 H   0  0  0  0  0  0  0  0  0  0  0  0
    3.6477   -1.3861   -1.3867 H   0  0  0  0  0  0  0  0  0  0  0  0
    5.6412   -1.5760    0.0629 H   0  0  0  0  0  0  0  0  0  0  0  0
    3.6090    0.5029    3.2094 H   0  0  0  0  0  0  0  0  0  0  0  0
    1.5920    0.7307    1.7792 H   0  0  0  0  0  0  0  0  0  0  0  0
  1  2  1  0
  2  3  2  3
  3  4  1  0
  4  5  1  0
  5  6  2  0
  6  7  1  0
  7  8  1  0
  7  9  2  0
  9 10  1  0
 10 11  1  0
 10 12  2  0
  2 13  1  0
 13 14  2  0
 14 15  1  0
 15 16  2  0
 16 17  1  0
 16 18  1  0
 18 19  2  0
 12  5  1  0
 19 13  1  0
  1 20  1  0
  1 21  1  0
  1 22  1  0
  4 23  1  0
  8 24  1  0
  8 25  1  0
  9 26  1  0
 14 27  1  0
 15 28  1  0
 18 29  1  0
 19 30  1  0
M  END
$$$$
