
     RDKit          3D

 45 48  0  0  0  0  0  0  0  0999 V2000
    1.0486   -2.0913    1.3587 O   0  0  0  0  0  0  0  0  0  0  0  0
   -0.1105   -2.0314    0.9583 C   0  0  0  0  0  0  0  0  0  0  0  0
   -0.8097   -0.8608    0.9009 N   0  0  0  0  0  0  0  0  0  0  0  0
   -0.5519   -0.0362   -0.0513 C   0  0  0  0  0  0  0  0  0  0  0  0
    0.3670   -0.2152   -1.0388 N   0  0  0  0  0  0  0  0  0  0  0  0
    1.6092   -0.0292   -0.7400 C   0  0  0  0  0  0  0  0  0  0  0  0
    2.2052    0.2540    0.4775 N   0  0  0  0  0  0  0  0  0  0  0  0
    3.5678    0.1866    0.2386 C   0  0  0  0  0  0  0  0  0  0  0  0
    4.6357    0.3210    1.0951 C   0  0  0  0  0  0  0  0  0  0  0  0
    5.9203    0.2531    0.5436 C   0  0  0  0  0  0  0  0  0  0  0  0
    6.1035    0.0625   -0.8403 C   0  0  0  0  0  0  0  0  0  0  0  0
    5.0047   -0.0634   -1.6936 C   0  0  0  0  0  0  0  0  0  0  0  0
    3.7540    0.0070   -1.1205 C   0  0  0  0  0  0  0  0  0  0  0  0
    2.5441   -0.1193   -1.7849 O   0  0  0  0  0  0  0  0  0  0  0  0
   -1.2397    1.1388   -0.2052 N   0  0  0  0  0  0  0  0  0  0  0  0
   -2.3003    1.6079    0.5496 C   0  0  0  0  0  0  0  0  0  0  0  0
   -2.9393    0.9658    1.3740 O   0  0  0  0  0  0  0  0  0  0  0  0
   -2.7249    3.0013    0.2344 C   0  0  0  0  0  0  0  0  0  0  0  0
   -1.8045    3.9849   -0.1540 C   0  0  0  0  0  0  0  0  0  0  0  0
   -2.2469    5.2785   -0.4410 C   0  0  0  0  0  0  0  0  0  0  0  0
   -3.6011    5.5954   -0.3333 C   0  0  0  0  0  0  0  0  0  0  0  0
   -4.5171    4.6246    0.0706 C   0  0  0  0  0  0  0  0  0  0  0  0
   -4.0804    3.3309    0.3594 C   0  0  0  0  0  0  0  0  0  0  0  0
   -0.8391   -3.2699    0.5556 C   0  0  0  0  0  0  0  0  0  0  0  0
   -0.1296   -4.4725    0.4386 C   0  0  0  0  0  0  0  0  0  0  0  0
   -0.7907   -5.6425    0.0594 C   0  0  0  0  0  0  0  0  0  0  0  0
   -2.1607   -5.6164   -0.2009 C   0  0  0  0  0  0  0  0  0  0  0  0
   -2.8735   -4.4233   -0.0814 C   0  0  0  0  0  0  0  0  0  0  0  0
   -2.2163   -3.2505    0.2966 C   0  0  0  0  0  0  0  0  0  0  0  0
    1.8766   -0.3275    1.2506 H   0  0  0  0  0  0  0  0  0  0  0  0
    4.4928    0.4775    2.1584 H   0  0  0  0  0  0  0  0  0  0  0  0
    6.7896    0.3511    1.1906 H   0  0  0  0  0  0  0  0  0  0  0  0
    7.1115    0.0115   -1.2463 H   0  0  0  0  0  0  0  0  0  0  0  0
    5.1286   -0.2156   -2.7591 H   0  0  0  0  0  0  0  0  0  0  0  0
   -0.9329    1.6736   -1.0017 H   0  0  0  0  0  0  0  0  0  0  0  0
   -0.7401    3.7740   -0.2091 H   0  0  0  0  0  0  0  0  0  0  0  0
   -1.5343    6.0448   -0.7377 H   0  0  0  0  0  0  0  0  0  0  0  0
   -3.9425    6.6044   -0.5531 H   0  0  0  0  0  0  0  0  0  0  0  0
   -5.5708    4.8754    0.1664 H   0  0  0  0  0  0  0  0  0  0  0  0
   -4.7988    2.5793    0.6817 H   0  0  0  0  0  0  0  0  0  0  0  0
    0.9389   -4.5017    0.6405 H   0  0  0  0  0  0  0  0  0  0  0  0
   -0.2370   -6.5737   -0.0314 H   0  0  0  0  0  0  0  0  0  0  0  0
   -2.6750   -6.5284   -0.4943 H   0  0  0  0  0  0  0  0  0  0  0  0
   -3.9426   -4.4053   -0.2785 H   0  0  0  0  0  0  0  0  0  0  0  0
   -2.7879   -2.3299    0.3973 H   0  0  0  0  0  0  0  0  0  0  0  0
  1  2  2  0
  2  3  1  0
  3  4  2  3
  4  5  1  0
  5  6  2  3
  6  7  1  0
  7  8  1  0
  8  9  2  0
  9 10  1  0
 10 11  2  0
 11 12  1  0
 12 13  2  0
 13 14  1  0
  4 15  1  0
 15 16  1  0
 16 17  2  0
 16 18  1  0
 18 19  2  0
 19 20  1  0
 20 21  2  0
 21 22  1  0
 22 23  2  0
  2 24  1  0
 24 25  2  0
 25 26  1  0
 26 27  2  0
 27 28  1  0
 28 29  2  0
 14  6  1  0
 23 18  1  0
 29 24  1  0
 13  8  1  0
  7 30  1  0
  9 31  1  0
 10 32  1  0
 11 33  1  0
 12 34  1  0
 15 35  1  0
 19 36  1  0
 20 37  1  0
 21 38  1  0
 22 39  1  0
 23 40  1  0
 25 41  1  0
 26 42  1  0
 27 43  1  0
 28 44  1  0
 29 45  1  0
M  END
$$$$
