
     RDKit          3D

 50 53  0  0  0  0  0  0  0  0999 V2000
   -7.8952    1.1316    1.7661 C   0  0  0  0  0  0  0  0  0  0  0  0
   -6.4804    0.9549    1.2889 C   0  0  0  0  0  0  0  0  0  0  0  0
   -6.1773   -0.0023    0.3148 C   0  0  0  0  0  0  0  0  0  0  0  0
   -4.8608   -0.1844   -0.1182 C   0  0  0  0  0  0  0  0  0  0  0  0
   -3.8294    0.5827    0.4267 C   0  0  0  0  0  0  0  0  0  0  0  0
   -2.3486    0.3980   -0.0617 C   0  0  0  0  0  0  0  0  0  0  0  0
   -1.2520    1.1671    0.3128 C   0  0  0  0  0  0  0  0  0  0  0  0
   -0.1255    0.7162   -0.3785 N   0  0  0  0  0  4  0  0  0  0  0  0
    1.2453    1.2367   -0.2715 C   0  0  0  0  0  0  0  0  0  0  0  0
    2.2236    0.1834    0.2627 C   0  0  0  0  0  0  0  0  0  0  0  0
    1.8051   -0.8585    0.7660 O   0  0  0  0  0  0  0  0  0  0  0  0
    3.5518    0.5419    0.0770 N   0  0  0  0  0  0  0  0  0  0  0  0
    4.7038   -0.1613    0.5144 C   0  0  0  0  0  0  0  0  0  0  0  0
    4.6260   -1.2923    1.3442 C   0  0  0  0  0  0  0  0  0  0  0  0
    5.7824   -1.9418    1.7870 C   0  0  0  0  0  0  0  0  0  0  0  0
    7.0331   -1.4732    1.4042 C   0  0  0  0  0  0  0  0  0  0  0  0
    7.1306   -0.3537    0.5734 C   0  0  0  0  0  0  0  0  0  0  0  0
    5.9768    0.3125    0.1200 C   0  0  0  0  0  0  0  0  0  0  0  0
    6.1615    1.4982   -0.7907 C   0  0  0  0  0  0  0  0  0  0  0  0
   -0.4998   -0.3355   -1.1058 C   0  0  0  0  0  0  0  0  0  0  0  0
   -1.8069   -0.5225   -0.9419 N   0  0  0  0  0  0  0  0  0  0  0  0
   -2.2905   -1.6697   -1.6998 C   0  0  0  0  0  0  0  0  0  0  0  0
   -0.9908   -2.3717   -2.1785 C   0  0  0  0  0  0  0  0  0  0  0  0
    0.1163   -1.3067   -2.0414 C   0  0  0  0  0  0  0  0  0  0  0  0
   -4.1254    1.5327    1.4104 C   0  0  0  0  0  0  0  0  0  0  0  0
   -5.4422    1.7095    1.8433 C   0  0  0  0  0  0  0  0  0  0  0  0
   -8.0453    2.1276    2.2005 H   0  0  0  0  0  0  0  0  0  0  0  0
   -8.1340    0.3772    2.5255 H   0  0  0  0  0  0  0  0  0  0  0  0
   -8.5979    1.0330    0.9330 H   0  0  0  0  0  0  0  0  0  0  0  0
   -6.9733   -0.6068   -0.1190 H   0  0  0  0  0  0  0  0  0  0  0  0
   -4.6866   -0.9212   -0.8911 H   0  0  0  0  0  0  0  0  0  0  0  0
   -1.1349    2.0034    0.9825 H   0  0  0  0  0  0  0  0  0  0  0  0
    1.2568    2.0933    0.4067 H   0  0  0  0  0  0  0  0  0  0  0  0
    1.5549    1.5589   -1.2690 H   0  0  0  0  0  0  0  0  0  0  0  0
    3.7449    1.3935   -0.4432 H   0  0  0  0  0  0  0  0  0  0  0  0
    3.6786   -1.6844    1.6969 H   0  0  0  0  0  0  0  0  0  0  0  0
    5.7022   -2.8016    2.4507 H   0  0  0  0  0  0  0  0  0  0  0  0
    7.9337   -1.9739    1.7560 H   0  0  0  0  0  0  0  0  0  0  0  0
    8.1206   -0.0015    0.2860 H   0  0  0  0  0  0  0  0  0  0  0  0
    7.2202    1.7070   -0.9818 H   0  0  0  0  0  0  0  0  0  0  0  0
    5.6833    1.3015   -1.7567 H   0  0  0  0  0  0  0  0  0  0  0  0
    5.7291    2.3971   -0.3405 H   0  0  0  0  0  0  0  0  0  0  0  0
   -2.8737   -1.3085   -2.5515 H   0  0  0  0  0  0  0  0  0  0  0  0
   -2.8863   -2.3335   -1.0707 H   0  0  0  0  0  0  0  0  0  0  0  0
   -1.0750   -2.7624   -3.1991 H   0  0  0  0  0  0  0  0  0  0  0  0
   -0.7700   -3.2155   -1.5094 H   0  0  0  0  0  0  0  0  0  0  0  0
    1.0401   -1.6997   -1.6206 H   0  0  0  0  0  0  0  0  0  0  0  0
    0.2936   -0.7683   -2.9747 H   0  0  0  0  0  0  0  0  0  0  0  0
   -3.3570    2.1459    1.8733 H   0  0  0  0  0  0  0  0  0  0  0  0
   -5.6558    2.4470    2.6173 H   0  0  0  0  0  0  0  0  0  0  0  0
  1  2  1  0
  2  3  2  0
  3  4  1  0
  4  5  2  0
  5  6  1  0
  6  7  2  0
  7  8  1  0
  8  9  1  0
  9 10  1  0
 10 11  2  0
 10 12  1  0
 12 13  1  0
 13 14  2  0
 14 15  1  0
 15 16  2  0
 16 17  1  0
 17 18  2  0
 18 19  1  0
  8 20  2  0
 20 21  1  0
 21 22  1  0
 22 23  1  0
 23 24  1  0
  5 25  1  0
 25 26  2  0
 26  2  1  0
 21  6  1  0
 18 13  1  0
 24 20  1  0
  1 27  1  0
  1 28  1  0
  1 29  1  0
  3 30  1  0
  4 31  1  0
  7 32  1  0
  9 33  1  0
  9 34  1  0
 12 35  1  0
 14 36  1  0
 15 37  1  0
 16 38  1  0
 17 39  1  0
 19 40  1  0
 19 41  1  0
 19 42  1  0
 22 43  1  0
 22 44  1  0
 23 45  1  0
 23 46  1  0
 24 47  1  0
 24 48  1  0
 25 49  1  0
 26 50  1  0
M  CHG  1   8   1
M  END
$$$$
