
     RDKit          3D

 41 42  0  0  0  0  0  0  0  0999 V2000
   -3.9388    2.1714   -0.6223 C   0  0  0  0  0  0  0  0  0  0  0  0
   -3.7773    0.6762   -0.3891 C   0  0  0  0  0  0  0  0  0  0  0  0
   -2.6124    0.4061    0.4769 N   0  0  0  0  0  0  0  0  0  0  0  0
   -2.9426    0.4044    1.9171 C   0  0  0  0  0  0  0  0  0  0  0  0
   -3.0929   -1.0201    2.4290 C   0  0  0  0  0  0  0  0  0  0  0  0
   -1.2957    0.2468   -0.0166 C   0  0  0  0  0  0  0  0  0  0  0  0
   -0.2025    0.1447    0.7733 C   0  0  0  0  0  0  0  0  0  0  0  0
    1.1523    0.0102    0.2639 C   0  0  0  0  0  0  0  0  0  0  0  0
    2.1328   -0.5244    1.0130 C   0  0  0  0  0  0  0  0  0  0  0  0
    3.4600   -0.8313    0.4758 C   0  0  0  0  0  0  0  0  0  0  0  0
    4.5447   -1.0580    1.2575 C   0  0  0  0  0  0  0  0  0  0  0  0
    4.4845   -0.9698    2.6800 C   0  0  0  0  0  0  0  0  0  0  0  0
    4.4235   -0.9006    3.8371 N   0  0  0  0  0  0  0  0  0  0  0  0
    5.8116   -1.3924    0.6957 C   0  0  0  0  0  0  0  0  0  0  0  0
    6.8375   -1.6647    0.2263 N   0  0  0  0  0  0  0  0  0  0  0  0
    3.4762   -0.9245   -1.0446 C   0  0  0  0  0  0  0  0  0  0  0  0
    2.7815    0.2775   -1.6781 C   0  0  0  0  0  0  0  0  0  0  0  0
    1.3491    0.4753   -1.1614 C   0  0  0  0  0  0  0  0  0  0  0  0
    0.2976   -0.2260   -2.0176 C   0  0  0  0  0  0  0  0  0  0  0  0
   -1.1124    0.1558   -1.5365 C   0  0  0  0  0  0  0  0  0  0  0  0
   -4.0847    2.7059    0.3221 H   0  0  0  0  0  0  0  0  0  0  0  0
   -4.8086    2.3631   -1.2582 H   0  0  0  0  0  0  0  0  0  0  0  0
   -3.0586    2.5983   -1.1125 H   0  0  0  0  0  0  0  0  0  0  0  0
   -4.6903    0.2840    0.0765 H   0  0  0  0  0  0  0  0  0  0  0  0
   -3.7015    0.1549   -1.3477 H   0  0  0  0  0  0  0  0  0  0  0  0
   -2.1888    0.9478    2.4970 H   0  0  0  0  0  0  0  0  0  0  0  0
   -3.8820    0.9423    2.0968 H   0  0  0  0  0  0  0  0  0  0  0  0
   -3.8778   -1.5525    1.8816 H   0  0  0  0  0  0  0  0  0  0  0  0
   -3.3611   -1.0148    3.4900 H   0  0  0  0  0  0  0  0  0  0  0  0
   -2.1645   -1.5886    2.3170 H   0  0  0  0  0  0  0  0  0  0  0  0
   -0.3010    0.1350    1.8534 H   0  0  0  0  0  0  0  0  0  0  0  0
    1.9195   -0.7969    2.0460 H   0  0  0  0  0  0  0  0  0  0  0  0
    4.4922   -0.9806   -1.4484 H   0  0  0  0  0  0  0  0  0  0  0  0
    2.9692   -1.8493   -1.3501 H   0  0  0  0  0  0  0  0  0  0  0  0
    2.7920    0.1856   -2.7705 H   0  0  0  0  0  0  0  0  0  0  0  0
    3.3661    1.1778   -1.4421 H   0  0  0  0  0  0  0  0  0  0  0  0
    1.1503    1.5565   -1.2068 H   0  0  0  0  0  0  0  0  0  0  0  0
    0.4033    0.0521   -3.0730 H   0  0  0  0  0  0  0  0  0  0  0  0
    0.4226   -1.3159   -1.9638 H   0  0  0  0  0  0  0  0  0  0  0  0
   -1.8009   -0.5889   -1.9518 H   0  0  0  0  0  0  0  0  0  0  0  0
   -1.3723    1.1277   -1.9735 H   0  0  0  0  0  0  0  0  0  0  0  0
  1  2  1  0
  2  3  1  0
  3  4  1  0
  4  5  1  0
  3  6  1  0
  6  7  2  0
  7  8  1  0
  8  9  2  0
  9 10  1  0
 10 11  2  3
 11 12  1  0
 12 13  3  0
 11 14  1  0
 14 15  3  0
 10 16  1  0
 16 17  1  0
 17 18  1  0
 18 19  1  0
 19 20  1  0
 20  6  1  0
 18  8  1  0
  1 21  1  0
  1 22  1  0
  1 23  1  0
  2 24  1  0
  2 25  1  0
  4 26  1  0
  4 27  1  0
  5 28  1  0
  5 29  1  0
  5 30  1  0
  7 31  1  0
  9 32  1  0
 16 33  1  0
 16 34  1  0
 17 35  1  0
 17 36  1  0
 18 37  1  0
 19 38  1  0
 19 39  1  0
 20 40  1  0
 20 41  1  0
M  END
$$$$
