
     RDKit          3D

 45 47  0  0  0  0  0  0  0  0999 V2000
    3.8764    2.7347    4.1258 C   0  0  0  0  0  0  0  0  0  0  0  0
    3.4507    2.0836    2.8428 C   0  0  0  0  0  0  0  0  0  0  0  0
    2.1098    1.7431    2.6326 C   0  0  0  0  0  0  0  0  0  0  0  0
    1.7181    1.1074    1.4518 C   0  0  0  0  0  0  0  0  0  0  0  0
    2.6644    0.8003    0.4670 C   0  0  0  0  0  0  0  0  0  0  0  0
    2.2124    0.1196   -0.7818 C   0  0  0  0  0  0  0  0  0  0  0  0
    1.1340   -0.6051   -0.7542 N   0  0  0  0  0  0  0  0  0  0  0  0
    0.7222   -1.2260   -1.9123 N   0  0  0  0  0  0  0  0  0  0  0  0
   -0.3791   -2.1673   -1.7844 C   0  0  0  0  0  0  0  0  0  0  0  0
   -1.7322   -1.4610   -1.9068 C   0  0  0  0  0  0  0  0  0  0  0  0
   -1.8853   -0.3125   -2.3172 O   0  0  0  0  0  0  0  0  0  0  0  0
   -2.7995   -2.2638   -1.5424 N   0  0  0  0  0  0  0  0  0  0  0  0
   -4.1376   -1.7160   -1.4456 C   0  0  0  0  0  0  0  0  0  0  0  0
   -4.4055   -1.1748   -0.0604 C   0  0  0  0  0  0  0  0  0  0  0  0
   -4.1701    0.1678    0.2286 C   0  0  0  0  0  0  0  0  0  0  0  0
   -4.3899    0.6251    1.5244 C   0  0  0  0  0  0  0  0  0  0  0  0
   -4.8283   -0.2663    2.4956 C   0  0  0  0  0  0  0  0  0  0  0  0
   -5.0231   -1.5877    2.1307 C   0  0  0  0  0  0  0  0  0  0  0  0
   -4.8152   -2.0637    0.8830 N   0  0  0  0  0  0  0  0  0  0  0  0
    1.1921   -0.9086   -3.1815 C   0  0  0  0  0  0  0  0  0  0  0  0
    0.8452   -1.4889   -4.2098 O   0  0  0  0  0  0  0  0  0  0  0  0
    2.1294    0.2662   -3.2303 C   0  0  0  0  0  0  0  0  0  0  0  0
    3.0471    0.2560   -2.0317 C   0  0  0  0  0  0  0  0  0  0  0  0
    4.0093    1.1169    0.6835 C   0  0  0  0  0  0  0  0  0  0  0  0
    4.3984    1.7526    1.8669 C   0  0  0  0  0  0  0  0  0  0  0  0
    4.1282    1.9705    4.8674 H   0  0  0  0  0  0  0  0  0  0  0  0
    3.0775    3.3677    4.5263 H   0  0  0  0  0  0  0  0  0  0  0  0
    4.7497    3.3761    3.9670 H   0  0  0  0  0  0  0  0  0  0  0  0
    1.3591    1.9697    3.3867 H   0  0  0  0  0  0  0  0  0  0  0  0
    0.6692    0.8569    1.3055 H   0  0  0  0  0  0  0  0  0  0  0  0
   -0.3073   -2.6595   -0.8081 H   0  0  0  0  0  0  0  0  0  0  0  0
   -0.3162   -2.9293   -2.5684 H   0  0  0  0  0  0  0  0  0  0  0  0
   -2.6190   -3.0766   -0.9676 H   0  0  0  0  0  0  0  0  0  0  0  0
   -4.2945   -0.9425   -2.2054 H   0  0  0  0  0  0  0  0  0  0  0  0
   -4.8355   -2.5338   -1.6557 H   0  0  0  0  0  0  0  0  0  0  0  0
   -3.8081    0.8445   -0.5410 H   0  0  0  0  0  0  0  0  0  0  0  0
   -4.2142    1.6679    1.7724 H   0  0  0  0  0  0  0  0  0  0  0  0
   -5.0088    0.0593    3.5136 H   0  0  0  0  0  0  0  0  0  0  0  0
   -5.3604   -2.3228    2.8558 H   0  0  0  0  0  0  0  0  0  0  0  0
    2.7194    0.2172   -4.1515 H   0  0  0  0  0  0  0  0  0  0  0  0
    1.5230    1.1789   -3.2565 H   0  0  0  0  0  0  0  0  0  0  0  0
    3.7321   -0.5989   -2.0739 H   0  0  0  0  0  0  0  0  0  0  0  0
    3.6365    1.1773   -2.0213 H   0  0  0  0  0  0  0  0  0  0  0  0
    4.7755    0.8614   -0.0424 H   0  0  0  0  0  0  0  0  0  0  0  0
    5.4499    1.9843    2.0249 H   0  0  0  0  0  0  0  0  0  0  0  0
  1  2  1  0
  2  3  2  0
  3  4  1  0
  4  5  2  0
  5  6  1  0
  6  7  2  0
  7  8  1  0
  8  9  1  0
  9 10  1  0
 10 11  2  0
 10 12  1  0
 12 13  1  0
 13 14  1  0
 14 15  2  0
 15 16  1  0
 16 17  2  0
 17 18  1  0
 18 19  2  0
  8 20  1  0
 20 21  2  0
 20 22  1  0
 22 23  1  0
  5 24  1  0
 24 25  2  0
 25  2  1  0
 23  6  1  0
 19 14  1  0
  1 26  1  0
  1 27  1  0
  1 28  1  0
  3 29  1  0
  4 30  1  0
  9 31  1  0
  9 32  1  0
 12 33  1  0
 13 34  1  0
 13 35  1  0
 15 36  1  0
 16 37  1  0
 17 38  1  0
 18 39  1  0
 22 40  1  0
 22 41  1  0
 23 42  1  0
 23 43  1  0
 24 44  1  0
 25 45  1  0
M  END
$$$$
