
     RDKit          3D

 36 37  0  0  0  0  0  0  0  0999 V2000
   -4.4146   -0.4723    1.1137 C   0  0  0  0  0  0  0  0  0  0  0  0
   -2.9775   -0.6817    0.6428 C   0  0  0  0  0  0  0  0  0  0  0  0
   -2.9255   -0.9131   -0.8763 C   0  0  0  0  0  0  0  0  0  0  0  0
   -1.5866   -0.4749   -1.4918 C   0  0  0  0  0  0  0  0  0  0  0  0
   -1.3060   -1.2393   -2.7835 C   0  0  0  0  0  0  0  0  0  0  0  0
   -0.4434   -0.6402   -0.4894 C   0  0  0  0  0  0  0  0  0  0  0  0
   -0.6597    0.1933    0.7256 N   0  0  0  0  0  0  0  0  0  0  0  0
    0.3758    1.5335    0.9090 S   0  0  0  0  0  6  0  0  0  0  0  0
    0.3671    2.2719   -0.3364 O   0  0  0  0  0  0  0  0  0  0  0  0
    0.0863    2.1790    2.1706 O   0  0  0  0  0  0  0  0  0  0  0  0
    2.0425    0.9392    1.0692 C   0  0  0  0  0  0  0  0  0  0  0  0
    3.2199    1.2938    0.4394 C   0  0  0  0  0  0  0  0  0  0  0  0
    4.3596    0.5339    0.8900 C   0  0  0  0  0  0  0  0  0  0  0  0
    5.7205    0.6882    0.4078 C   0  0  0  0  0  0  0  0  0  0  0  0
    6.7025    0.0571    0.7661 O   0  0  0  0  0  0  0  0  0  0  0  0
    5.8560    1.6431   -0.5407 O   0  0  0  0  0  0  0  0  0  0  0  0
    3.9570   -0.3652    1.8540 C   0  0  0  0  0  0  0  0  0  0  0  0
    4.9050   -1.5149    2.7200 Cl  0  0  0  0  0  0  0  0  0  0  0  0
    2.2980   -0.3052    2.2083 S   0  0  0  0  0  0  0  0  0  0  0  0
   -2.0827    0.4934    1.0441 C   0  0  0  0  0  0  0  0  0  0  0  0
   -4.8496    0.4320    0.6748 H   0  0  0  0  0  0  0  0  0  0  0  0
   -4.4550   -0.3715    2.2034 H   0  0  0  0  0  0  0  0  0  0  0  0
   -5.0430   -1.3236    0.8319 H   0  0  0  0  0  0  0  0  0  0  0  0
   -2.5965   -1.5868    1.1362 H   0  0  0  0  0  0  0  0  0  0  0  0
   -3.1135   -1.9772   -1.0696 H   0  0  0  0  0  0  0  0  0  0  0  0
   -3.7324   -0.3671   -1.3820 H   0  0  0  0  0  0  0  0  0  0  0  0
   -1.6653    0.5900   -1.7506 H   0  0  0  0  0  0  0  0  0  0  0  0
   -2.1238   -1.1048   -3.4992 H   0  0  0  0  0  0  0  0  0  0  0  0
   -1.1920   -2.3121   -2.5945 H   0  0  0  0  0  0  0  0  0  0  0  0
   -0.3851   -0.8798   -3.2547 H   0  0  0  0  0  0  0  0  0  0  0  0
   -0.3582   -1.6857   -0.1673 H   0  0  0  0  0  0  0  0  0  0  0  0
    0.5114   -0.3923   -0.9662 H   0  0  0  0  0  0  0  0  0  0  0  0
    3.2624    2.0718   -0.3164 H   0  0  0  0  0  0  0  0  0  0  0  0
    6.8142    1.6192   -0.7450 H   0  0  0  0  0  0  0  0  0  0  0  0
   -2.4026    1.4083    0.5304 H   0  0  0  0  0  0  0  0  0  0  0  0
   -2.1650    0.6600    2.1244 H   0  0  0  0  0  0  0  0  0  0  0  0
  1  2  1  0
  2  3  1  0
  3  4  1  0
  4  5  1  0
  4  6  1  0
  6  7  1  0
  7  8  1  0
  8  9  2  0
  8 10  2  0
  8 11  1  0
 11 12  2  0
 12 13  1  0
 13 14  1  0
 14 15  2  0
 14 16  1  0
 13 17  2  0
 17 18  1  0
 17 19  1  0
  7 20  1  0
 20  2  1  0
 19 11  1  0
  1 21  1  0
  1 22  1  0
  1 23  1  0
  2 24  1  0
  3 25  1  0
  3 26  1  0
  4 27  1  0
  5 28  1  0
  5 29  1  0
  5 30  1  0
  6 31  1  0
  6 32  1  0
 12 33  1  0
 16 34  1  0
 20 35  1  0
 20 36  1  0
M  END
$$$$
