
     RDKit          3D

 52 54  0  0  0  0  0  0  0  0999 V2000
    0.9762   -2.7361   -0.5662 C   0  0  0  0  0  0  0  0  0  0  0  0
    1.7386   -1.5775    0.0736 C   0  0  0  0  0  0  0  0  0  0  0  0
    1.0990   -0.2470    0.0118 N   0  0  0  0  0  0  0  0  0  0  0  0
    0.9655    0.2417   -1.3760 C   0  0  0  0  0  0  0  0  0  0  0  0
    2.2917    0.4504   -2.0783 C   0  0  0  0  0  0  0  0  0  0  0  0
    2.6127   -0.2644   -3.2409 C   0  0  0  0  0  0  0  0  0  0  0  0
    3.8343   -0.0554   -3.8838 C   0  0  0  0  0  0  0  0  0  0  0  0
    4.7435    0.8703   -3.3742 C   0  0  0  0  0  0  0  0  0  0  0  0
    4.4335    1.5893   -2.2214 C   0  0  0  0  0  0  0  0  0  0  0  0
    3.2135    1.3821   -1.5772 C   0  0  0  0  0  0  0  0  0  0  0  0
   -0.1777   -0.1449    0.7807 C   0  0  0  0  0  0  0  0  0  0  0  0
   -0.0115   -0.6073    2.2349 C   0  0  0  0  0  0  0  0  0  0  0  0
    0.8340    0.0762    3.1214 C   0  0  0  0  0  0  0  0  0  0  0  0
    0.9573   -0.3814    4.4231 C   0  0  0  0  0  0  0  0  0  0  0  0
    0.3124   -1.4667    4.9007 N   0  0  0  0  0  0  0  0  0  0  0  0
   -0.4852   -2.1244    4.0356 C   0  0  0  0  0  0  0  0  0  0  0  0
   -0.6762   -1.7432    2.7154 C   0  0  0  0  0  0  0  0  0  0  0  0
   -0.7430    1.2632    0.7718 C   0  0  0  0  0  0  0  0  0  0  0  0
   -0.0567    2.3584    1.0640 N   0  0  0  0  0  0  0  0  0  0  0  0
   -0.9062    3.4122    0.9237 N   0  0  0  0  0  0  0  0  0  0  0  0
   -2.1004    3.0026    0.5418 N   0  0  0  0  0  0  0  0  0  0  0  0
   -2.0266    1.6569    0.4435 N   0  0  0  0  0  0  0  0  0  0  0  0
   -3.2067    0.9130   -0.0207 C   0  0  0  0  0  0  0  0  0  0  0  0
   -3.6124   -0.1789    0.9848 C   0  0  0  0  0  0  0  0  0  0  0  0
   -4.4416    1.8444   -0.1730 C   0  0  0  0  0  0  0  0  0  0  0  0
   -2.9412    0.2984   -1.4079 C   0  0  0  0  0  0  0  0  0  0  0  0
    1.5400   -3.6652   -0.4295 H   0  0  0  0  0  0  0  0  0  0  0  0
    0.8436   -2.5936   -1.6423 H   0  0  0  0  0  0  0  0  0  0  0  0
   -0.0076   -2.8827   -0.1129 H   0  0  0  0  0  0  0  0  0  0  0  0
    2.7330   -1.5270   -0.3864 H   0  0  0  0  0  0  0  0  0  0  0  0
    1.9590   -1.8394    1.1146 H   0  0  0  0  0  0  0  0  0  0  0  0
    0.4748    1.2215   -1.4107 H   0  0  0  0  0  0  0  0  0  0  0  0
    0.3210   -0.4232   -1.9635 H   0  0  0  0  0  0  0  0  0  0  0  0
    1.9158   -0.9897   -3.6529 H   0  0  0  0  0  0  0  0  0  0  0  0
    4.0776   -0.6143   -4.7836 H   0  0  0  0  0  0  0  0  0  0  0  0
    5.6941    1.0325   -3.8752 H   0  0  0  0  0  0  0  0  0  0  0  0
    5.1401    2.3118   -1.8220 H   0  0  0  0  0  0  0  0  0  0  0  0
    2.9780    1.9455   -0.6754 H   0  0  0  0  0  0  0  0  0  0  0  0
   -0.8943   -0.8125    0.2991 H   0  0  0  0  0  0  0  0  0  0  0  0
    1.3941    0.9508    2.8012 H   0  0  0  0  0  0  0  0  0  0  0  0
    1.6006    0.1287    5.1344 H   0  0  0  0  0  0  0  0  0  0  0  0
   -0.9826   -2.9999    4.4434 H   0  0  0  0  0  0  0  0  0  0  0  0
   -1.3226   -2.3393    2.0818 H   0  0  0  0  0  0  0  0  0  0  0  0
   -4.5929   -0.6022    0.7366 H   0  0  0  0  0  0  0  0  0  0  0  0
   -3.6687    0.2198    2.0041 H   0  0  0  0  0  0  0  0  0  0  0  0
   -2.9140   -1.0161    0.9899 H   0  0  0  0  0  0  0  0  0  0  0  0
   -5.3215    1.2849   -0.5123 H   0  0  0  0  0  0  0  0  0  0  0  0
   -4.2618    2.6377   -0.9084 H   0  0  0  0  0  0  0  0  0  0  0  0
   -4.7036    2.3203    0.7796 H   0  0  0  0  0  0  0  0  0  0  0  0
   -2.6335    1.0669   -2.1268 H   0  0  0  0  0  0  0  0  0  0  0  0
   -3.8407   -0.1880   -1.8028 H   0  0  0  0  0  0  0  0  0  0  0  0
   -2.1543   -0.4593   -1.3871 H   0  0  0  0  0  0  0  0  0  0  0  0
  1  2  1  0
  2  3  1  0
  3  4  1  0
  4  5  1  0
  5  6  2  0
  6  7  1  0
  7  8  2  0
  8  9  1  0
  9 10  2  0
  3 11  1  0
 11 12  1  0
 12 13  2  0
 13 14  1  0
 14 15  2  0
 15 16  1  0
 16 17  2  0
 11 18  1  0
 18 19  2  0
 19 20  1  0
 20 21  2  0
 21 22  1  0
 22 23  1  0
 23 24  1  0
 23 25  1  0
 23 26  1  0
 10  5  1  0
 17 12  1  0
 22 18  1  0
  1 27  1  0
  1 28  1  0
  1 29  1  0
  2 30  1  0
  2 31  1  0
  4 32  1  0
  4 33  1  0
  6 34  1  0
  7 35  1  0
  8 36  1  0
  9 37  1  0
 10 38  1  0
 11 39  1  0
 13 40  1  0
 14 41  1  0
 16 42  1  0
 17 43  1  0
 24 44  1  0
 24 45  1  0
 24 46  1  0
 25 47  1  0
 25 48  1  0
 25 49  1  0
 26 50  1  0
 26 51  1  0
 26 52  1  0
M  END
$$$$
