
     RDKit          3D

 67 72  0  0  0  0  0  0  0  0999 V2000
   -2.2761    6.0953    1.1667 C   0  0  0  0  0  0  0  0  0  0  0  0
   -2.5976    5.1012    0.2024 O   0  0  0  0  0  0  0  0  0  0  0  0
   -2.0511    3.8619    0.3864 C   0  0  0  0  0  0  0  0  0  0  0  0
   -1.2067    3.4820    1.4260 C   0  0  0  0  0  0  0  0  0  0  0  0
   -0.7206    2.1709    1.4944 C   0  0  0  0  0  0  0  0  0  0  0  0
   -1.0714    1.2119    0.5304 C   0  0  0  0  0  0  0  0  0  0  0  0
   -0.5041   -0.1917    0.6530 C   0  0  0  0  0  0  0  0  0  0  0  0
   -1.4520   -1.3660    0.2965 C   0  0  0  0  0  0  0  0  0  0  0  0
   -2.1285   -1.9270    1.5559 C   0  0  0  0  0  0  0  0  0  0  0  0
   -1.4560   -2.2406    2.5463 O   0  0  0  0  0  0  0  0  0  0  0  0
   -3.6618   -2.1015    1.5468 C   0  0  0  0  0  0  0  0  0  0  0  0
   -4.1104   -2.7478    2.8721 C   0  0  0  0  0  0  0  0  0  0  0  0
   -4.0870   -3.0222    0.3953 C   0  0  0  0  0  0  0  0  0  0  0  0
   -4.3363   -0.7300    1.4169 C   0  0  0  0  0  0  0  0  0  0  0  0
   -0.5745   -2.4104   -0.2534 N   0  0  0  0  0  0  0  0  0  0  0  0
   -1.0972   -3.1556   -1.2785 N   0  0  0  0  0  0  0  0  0  0  0  0
   -0.2769   -3.6982   -2.1257 C   0  0  0  0  0  0  0  0  0  0  0  0
    1.1782   -3.5351   -2.1090 C   0  0  0  0  0  0  0  0  0  0  0  0
    1.9723   -4.2021   -3.0437 C   0  0  0  0  0  0  0  0  0  0  0  0
    3.3563   -4.0410   -3.0022 C   0  0  0  0  0  0  0  0  0  0  0  0
    3.9340   -3.2228   -2.0307 C   0  0  0  0  0  0  0  0  0  0  0  0
    3.1294   -2.5577   -1.1023 C   0  0  0  0  0  0  0  0  0  0  0  0
    1.7362   -2.6993   -1.1437 C   0  0  0  0  0  0  0  0  0  0  0  0
    0.8324   -2.0145   -0.1603 C   0  0  0  0  0  0  0  0  0  0  0  0
    0.7658   -0.4798   -0.1805 C   0  0  0  0  0  0  0  0  0  0  0  0
    1.9593    0.1546    0.4533 N   0  0  0  0  0  0  0  0  0  0  0  0
    2.4048    0.9333   -0.4827 C   0  0  0  0  0  0  0  0  0  0  0  0
    3.5750    1.8221   -0.3832 C   0  0  0  0  0  0  0  0  0  0  0  0
    4.2909    1.8627    0.8199 C   0  0  0  0  0  0  0  0  0  0  0  0
    5.4046    2.6946    0.9449 C   0  0  0  0  0  0  0  0  0  0  0  0
    5.8075    3.4877   -0.1287 C   0  0  0  0  0  0  0  0  0  0  0  0
    5.0978    3.4520   -1.3285 C   0  0  0  0  0  0  0  0  0  0  0  0
    3.9821    2.6216   -1.4584 C   0  0  0  0  0  0  0  0  0  0  0  0
    1.7818    0.9543   -1.6736 O   0  0  0  0  0  0  0  0  0  0  0  0
    0.7395    0.0855   -1.5862 C   0  0  0  0  0  0  0  0  0  0  0  0
   -0.0411   -0.1420   -2.4936 O   0  0  0  0  0  0  0  0  0  0  0  0
   -1.9092    1.6106   -0.5177 C   0  0  0  0  0  0  0  0  0  0  0  0
   -2.3946    2.9204   -0.5835 C   0  0  0  0  0  0  0  0  0  0  0  0
   -2.7979    7.0153    0.8858 H   0  0  0  0  0  0  0  0  0  0  0  0
   -1.2027    6.3092    1.1684 H   0  0  0  0  0  0  0  0  0  0  0  0
   -2.6239    5.8064    2.1635 H   0  0  0  0  0  0  0  0  0  0  0  0
   -0.9047    4.1776    2.2015 H   0  0  0  0  0  0  0  0  0  0  0  0
   -0.0576    1.9034    2.3168 H   0  0  0  0  0  0  0  0  0  0  0  0
   -0.2185   -0.3050    1.7101 H   0  0  0  0  0  0  0  0  0  0  0  0
   -2.1872   -1.0990   -0.4641 H   0  0  0  0  0  0  0  0  0  0  0  0
   -3.8234   -2.1343    3.7347 H   0  0  0  0  0  0  0  0  0  0  0  0
   -3.6533   -3.7369    3.0045 H   0  0  0  0  0  0  0  0  0  0  0  0
   -5.1975   -2.8783    2.9034 H   0  0  0  0  0  0  0  0  0  0  0  0
   -3.9073   -2.5637   -0.5826 H   0  0  0  0  0  0  0  0  0  0  0  0
   -5.1554   -3.2588    0.4490 H   0  0  0  0  0  0  0  0  0  0  0  0
   -3.5327   -3.9677    0.4221 H   0  0  0  0  0  0  0  0  0  0  0  0
   -3.9770   -0.0378    2.1870 H   0  0  0  0  0  0  0  0  0  0  0  0
   -5.4242   -0.8106    1.5184 H   0  0  0  0  0  0  0  0  0  0  0  0
   -4.1352   -0.2670    0.4449 H   0  0  0  0  0  0  0  0  0  0  0  0
   -0.7089   -4.3152   -2.9305 H   0  0  0  0  0  0  0  0  0  0  0  0
    1.5268   -4.8471   -3.7960 H   0  0  0  0  0  0  0  0  0  0  0  0
    3.9872   -4.5597   -3.7205 H   0  0  0  0  0  0  0  0  0  0  0  0
    5.0149   -3.1098   -1.9910 H   0  0  0  0  0  0  0  0  0  0  0  0
    3.6008   -1.9435   -0.3381 H   0  0  0  0  0  0  0  0  0  0  0  0
    1.1472   -2.3447    0.8405 H   0  0  0  0  0  0  0  0  0  0  0  0
    3.9864    1.2496    1.6658 H   0  0  0  0  0  0  0  0  0  0  0  0
    5.9577    2.7250    1.8803 H   0  0  0  0  0  0  0  0  0  0  0  0
    6.6757    4.1354   -0.0291 H   0  0  0  0  0  0  0  0  0  0  0  0
    5.4128    4.0725   -2.1641 H   0  0  0  0  0  0  0  0  0  0  0  0
    3.4428    2.6123   -2.4027 H   0  0  0  0  0  0  0  0  0  0  0  0
   -2.1940    0.9249   -1.3135 H   0  0  0  0  0  0  0  0  0  0  0  0
   -3.0456    3.2098   -1.4056 H   0  0  0  0  0  0  0  0  0  0  0  0
  1  2  1  0
  2  3  1  0
  3  4  2  0
  4  5  1  0
  5  6  2  0
  6  7  1  0
  7  8  1  0
  8  9  1  0
  9 10  2  0
  9 11  1  0
 11 12  1  0
 11 13  1  0
 11 14  1  0
  8 15  1  0
 15 16  1  0
 16 17  2  0
 17 18  1  0
 18 19  2  0
 19 20  1  0
 20 21  2  0
 21 22  1  0
 22 23  2  0
 23 24  1  0
 24 25  1  0
 25 26  1  0
 26 27  2  0
 27 28  1  0
 28 29  2  0
 29 30  1  0
 30 31  2  0
 31 32  1  0
 32 33  2  0
 27 34  1  0
 34 35  1  0
 35 36  2  0
  6 37  1  0
 37 38  2  0
 38  3  1  0
 25  7  1  0
 33 28  1  0
 24 15  1  0
 35 25  1  0
 23 18  1  0
  1 39  1  0
  1 40  1  0
  1 41  1  0
  4 42  1  0
  5 43  1  0
  7 44  1  0
  8 45  1  0
 12 46  1  0
 12 47  1  0
 12 48  1  0
 13 49  1  0
 13 50  1  0
 13 51  1  0
 14 52  1  0
 14 53  1  0
 14 54  1  0
 17 55  1  0
 19 56  1  0
 20 57  1  0
 21 58  1  0
 22 59  1  0
 24 60  1  0
 29 61  1  0
 30 62  1  0
 31 63  1  0
 32 64  1  0
 33 65  1  0
 37 66  1  0
 38 67  1  0
M  END
$$$$
