
     RDKit          3D

 34 36  0  0  0  0  0  0  0  0999 V2000
    0.8571    0.0679    0.7388 O   0  0  0  0  0  0  0  0  0  0  0  0
    0.8159   -1.1439    0.8927 C   0  0  0  0  0  0  0  0  0  0  0  0
    1.8242   -2.1081    0.3595 C   0  0  0  0  0  0  0  0  0  0  0  0
    2.8869   -1.8535   -0.4163 C   0  0  0  0  0  0  0  0  0  0  0  0
    3.3247   -0.5687   -0.9609 C   0  0  0  0  0  0  0  0  0  0  0  0
    2.5010    0.2559   -1.7191 C   0  0  0  0  0  0  0  0  0  0  0  0
    3.0321    1.4302   -2.2475 C   0  0  0  0  0  0  0  0  0  0  0  0
    4.3679    1.7358   -2.0210 C   0  0  0  0  0  0  0  0  0  0  0  0
    5.1226    0.8450   -1.2778 C   0  0  0  0  0  0  0  0  0  0  0  0
    4.6350   -0.3026   -0.7564 N   0  0  0  0  0  0  0  0  0  0  0  0
    1.4753   -3.7088    0.9342 S   0  0  0  0  0  0  0  0  0  0  0  0
    0.0596   -3.1951    1.8441 C   0  0  0  0  0  0  0  0  0  0  0  0
   -0.8225   -4.2289    2.8123 S   0  0  0  0  0  0  0  0  0  0  0  0
   -0.1447   -1.8490    1.6094 N   0  0  0  0  0  0  0  0  0  0  0  0
   -1.1764   -1.1544    2.2901 N   0  0  0  0  0  0  0  0  0  0  0  0
   -2.0409   -0.3836    1.4871 C   0  0  0  0  0  0  0  0  0  0  0  0
   -2.2479    0.8670    1.9696 N   0  0  0  0  0  0  0  0  0  0  0  0
   -3.0670    1.7000    1.2858 C   0  0  0  0  0  0  0  0  0  0  0  0
   -3.7363    1.3455    0.1283 C   0  0  0  0  0  0  0  0  0  0  0  0
   -4.6054    2.3376   -0.5788 C   0  0  0  0  0  0  0  0  0  0  0  0
   -3.9093    3.0829   -1.4788 F   0  0  0  0  0  0  0  0  0  0  0  0
   -5.6169    1.7536   -1.2779 F   0  0  0  0  0  0  0  0  0  0  0  0
   -5.1993    3.2245    0.2654 F   0  0  0  0  0  0  0  0  0  0  0  0
   -3.5352    0.0502   -0.3546 C   0  0  0  0  0  0  0  0  0  0  0  0
   -2.6902   -0.8302    0.3281 C   0  0  0  0  0  0  0  0  0  0  0  0
   -2.5251   -2.4209   -0.3196 Cl  0  0  0  0  0  0  0  0  0  0  0  0
    3.5724   -2.6607   -0.6687 H   0  0  0  0  0  0  0  0  0  0  0  0
    1.4613    0.0054   -1.8983 H   0  0  0  0  0  0  0  0  0  0  0  0
    2.4058    2.1002   -2.8295 H   0  0  0  0  0  0  0  0  0  0  0  0
    4.8105    2.6433   -2.4154 H   0  0  0  0  0  0  0  0  0  0  0  0
    6.1732    1.0342   -1.0767 H   0  0  0  0  0  0  0  0  0  0  0  0
   -0.7974   -0.4886    2.9681 H   0  0  0  0  0  0  0  0  0  0  0  0
   -3.1678    2.6931    1.7210 H   0  0  0  0  0  0  0  0  0  0  0  0
   -4.0427   -0.2752   -1.2616 H   0  0  0  0  0  0  0  0  0  0  0  0
  1  2  2  0
  2  3  1  0
  3  4  2  3
  4  5  1  0
  5  6  2  0
  6  7  1  0
  7  8  2  0
  8  9  1  0
  9 10  2  0
  3 11  1  0
 11 12  1  0
 12 13  2  0
 12 14  1  0
 14 15  1  0
 15 16  1  0
 16 17  2  0
 17 18  1  0
 18 19  2  0
 19 20  1  0
 20 21  1  0
 20 22  1  0
 20 23  1  0
 19 24  1  0
 24 25  2  0
 25 26  1  0
 14  2  1  0
 25 16  1  0
 10  5  1  0
  4 27  1  0
  6 28  1  0
  7 29  1  0
  8 30  1  0
  9 31  1  0
 15 32  1  0
 18 33  1  0
 24 34  1  0
M  END
$$$$
