
     RDKit          3D

 62 65  0  0  0  0  0  0  0  0999 V2000
    8.9869   -3.1193   -0.9783 C   0  0  0  0  0  0  0  0  0  0  0  0
    8.1281   -1.8996   -1.1273 C   0  0  0  0  0  0  0  0  0  0  0  0
    7.7891   -1.1300   -0.0091 C   0  0  0  0  0  0  0  0  0  0  0  0
    7.0122    0.0213   -0.1522 C   0  0  0  0  0  0  0  0  0  0  0  0
    6.5756    0.4349   -1.4183 C   0  0  0  0  0  0  0  0  0  0  0  0
    5.7052    1.6566   -1.5588 C   0  0  0  0  0  0  0  0  0  0  0  0
    4.3168    1.3147   -1.3440 N   0  0  0  0  0  0  0  0  0  0  0  0
    3.7203    1.4643   -0.1100 C   0  0  0  0  0  0  0  0  0  0  0  0
    4.2526    2.0260    0.8411 O   0  0  0  0  0  0  0  0  0  0  0  0
    2.3308    0.8673   -0.0585 C   0  0  0  0  0  0  0  0  0  0  0  0
    1.7236    0.9732    1.3374 C   0  0  0  0  0  0  0  0  0  0  0  0
    0.3788    0.3222    1.4080 C   0  0  0  0  0  0  0  0  0  0  0  0
    0.0946   -1.0083    1.7997 C   0  0  0  0  0  0  0  0  0  0  0  0
    1.0514   -2.0562    2.2397 C   0  0  0  0  0  0  0  0  0  0  0  0
   -1.2089   -1.2805    1.7373 N   0  0  0  0  0  0  0  0  0  0  0  0
   -1.8026   -0.1268    1.3197 N   0  0  0  0  0  0  0  0  0  0  0  0
   -3.2203   -0.0713    1.1519 C   0  0  0  0  0  0  0  0  0  0  0  0
   -3.9936   -1.1910    1.4218 C   0  0  0  0  0  0  0  0  0  0  0  0
   -5.3757   -1.1156    1.2402 C   0  0  0  0  0  0  0  0  0  0  0  0
   -5.9624    0.0651    0.7943 C   0  0  0  0  0  0  0  0  0  0  0  0
   -7.3590    0.1264    0.6084 N   0  0  0  0  0  0  0  0  0  0  0  0
   -7.8255   -0.8553   -0.4017 C   0  0  0  0  0  0  0  0  0  0  0  0
   -9.1434   -0.3922   -1.0416 C   0  0  0  0  0  0  0  0  0  0  0  0
   -9.0247    0.8642   -1.7279 O   0  0  0  0  0  0  0  0  0  0  0  0
   -8.0879    1.7648   -1.1065 C   0  0  0  0  0  0  0  0  0  0  0  0
   -7.8880    1.4926    0.3905 C   0  0  0  0  0  0  0  0  0  0  0  0
   -5.1712    1.1335    0.5591 N   0  0  0  0  0  0  0  0  0  0  0  0
   -3.8002    1.0699    0.7295 N   0  0  0  0  0  0  0  0  0  0  0  0
   -0.8573    0.8711    1.0999 C   0  0  0  0  0  0  0  0  0  0  0  0
   -1.1931    2.2416    0.6252 C   0  0  0  0  0  0  0  0  0  0  0  0
    6.9236   -0.3318   -2.5378 C   0  0  0  0  0  0  0  0  0  0  0  0
    7.6994   -1.4855   -2.3933 C   0  0  0  0  0  0  0  0  0  0  0  0
    8.7256   -3.8724   -1.7284 H   0  0  0  0  0  0  0  0  0  0  0  0
   10.0411   -2.8516   -1.0971 H   0  0  0  0  0  0  0  0  0  0  0  0
    8.8472   -3.5795    0.0062 H   0  0  0  0  0  0  0  0  0  0  0  0
    8.1235   -1.4232    0.9837 H   0  0  0  0  0  0  0  0  0  0  0  0
    6.7423    0.5974    0.7320 H   0  0  0  0  0  0  0  0  0  0  0  0
    5.7874    2.0685   -2.5703 H   0  0  0  0  0  0  0  0  0  0  0  0
    6.0259    2.4384   -0.8619 H   0  0  0  0  0  0  0  0  0  0  0  0
    3.8928    0.6834   -2.0107 H   0  0  0  0  0  0  0  0  0  0  0  0
    1.7022    1.3908   -0.7887 H   0  0  0  0  0  0  0  0  0  0  0  0
    2.3957   -0.1847   -0.3628 H   0  0  0  0  0  0  0  0  0  0  0  0
    2.3933    0.5076    2.0716 H   0  0  0  0  0  0  0  0  0  0  0  0
    1.6429    2.0260    1.6356 H   0  0  0  0  0  0  0  0  0  0  0  0
    0.5590   -3.0264    2.3581 H   0  0  0  0  0  0  0  0  0  0  0  0
    1.4985   -1.7831    3.2010 H   0  0  0  0  0  0  0  0  0  0  0  0
    1.8548   -2.1745    1.5053 H   0  0  0  0  0  0  0  0  0  0  0  0
   -3.5488   -2.1180    1.7732 H   0  0  0  0  0  0  0  0  0  0  0  0
   -5.9892   -1.9807    1.4694 H   0  0  0  0  0  0  0  0  0  0  0  0
   -7.0806   -0.9673   -1.2014 H   0  0  0  0  0  0  0  0  0  0  0  0
   -7.9770   -1.8309    0.0740 H   0  0  0  0  0  0  0  0  0  0  0  0
   -9.9300   -0.2931   -0.2844 H   0  0  0  0  0  0  0  0  0  0  0  0
   -9.4864   -1.1312   -1.7722 H   0  0  0  0  0  0  0  0  0  0  0  0
   -8.4660    2.7798   -1.2579 H   0  0  0  0  0  0  0  0  0  0  0  0
   -7.1388    1.6818   -1.6479 H   0  0  0  0  0  0  0  0  0  0  0  0
   -7.2724    2.2715    0.8545 H   0  0  0  0  0  0  0  0  0  0  0  0
   -8.8619    1.5436    0.8926 H   0  0  0  0  0  0  0  0  0  0  0  0
   -1.8512    2.7533    1.3355 H   0  0  0  0  0  0  0  0  0  0  0  0
   -1.6735    2.2076   -0.3584 H   0  0  0  0  0  0  0  0  0  0  0  0
   -0.2927    2.8556    0.5203 H   0  0  0  0  0  0  0  0  0  0  0  0
    6.5959   -0.0362   -3.5321 H   0  0  0  0  0  0  0  0  0  0  0  0
    7.9655   -2.0617   -3.2769 H   0  0  0  0  0  0  0  0  0  0  0  0
  1  2  1  0
  2  3  2  0
  3  4  1  0
  4  5  2  0
  5  6  1  0
  6  7  1  0
  7  8  1  0
  8  9  2  0
  8 10  1  0
 10 11  1  0
 11 12  1  0
 12 13  1  0
 13 14  1  0
 13 15  2  0
 15 16  1  0
 16 17  1  0
 17 18  2  0
 18 19  1  0
 19 20  2  0
 20 21  1  0
 21 22  1  0
 22 23  1  0
 23 24  1  0
 24 25  1  0
 25 26  1  0
 20 27  1  0
 27 28  2  0
 16 29  1  0
 29 30  1  0
  5 31  1  0
 31 32  2  0
 32  2  1  0
 29 12  2  0
 28 17  1  0
 26 21  1  0
  1 33  1  0
  1 34  1  0
  1 35  1  0
  3 36  1  0
  4 37  1  0
  6 38  1  0
  6 39  1  0
  7 40  1  0
 10 41  1  0
 10 42  1  0
 11 43  1  0
 11 44  1  0
 14 45  1  0
 14 46  1  0
 14 47  1  0
 18 48  1  0
 19 49  1  0
 22 50  1  0
 22 51  1  0
 23 52  1  0
 23 53  1  0
 25 54  1  0
 25 55  1  0
 26 56  1  0
 26 57  1  0
 30 58  1  0
 30 59  1  0
 30 60  1  0
 31 61  1  0
 32 62  1  0
M  END
$$$$
