
     RDKit          3D

 40 43  0  0  0  0  0  0  0  0999 V2000
    0.3320    3.2512   -1.2686 C   0  0  0  0  0  0  0  0  0  0  0  0
    0.0839    2.8991    0.0002 C   0  0  0  0  0  0  0  0  0  0  0  0
   -1.2918    2.7006    0.5763 C   0  0  0  0  0  0  0  0  0  0  0  0
   -1.6285    1.2774    0.5623 N   0  0  0  0  0  0  0  0  0  0  0  0
   -1.2732    0.3883    1.5637 C   0  0  0  0  0  0  0  0  0  0  0  0
   -0.3643    0.9806    2.9408 S   0  0  0  0  0  0  0  0  0  0  0  0
    0.9078   -0.3152    3.0512 C   0  0  0  0  0  0  0  0  0  0  0  0
    1.7452   -0.3924    1.7899 C   0  0  0  0  0  0  0  0  0  0  0  0
    1.6649   -1.4643    0.9826 C   0  0  0  0  0  0  0  0  0  0  0  0
    2.4709   -1.5119   -0.2550 C   0  0  0  0  0  0  0  0  0  0  0  0
    2.4040   -2.4894   -0.9942 O   0  0  0  0  0  0  0  0  0  0  0  0
    3.2541   -0.4049   -0.4603 N   0  0  0  0  0  0  0  0  0  0  0  0
    4.0822   -0.2146   -1.5450 C   0  0  0  0  0  0  0  0  0  0  0  0
    4.7563    0.9408   -1.5157 C   0  0  0  0  0  0  0  0  0  0  0  0
    4.3775    1.8663   -0.0878 S   0  0  0  0  0  0  0  0  0  0  0  0
    3.2662    0.6198    0.4567 C   0  0  0  0  0  0  0  0  0  0  0  0
    2.5812    0.6793    1.5470 N   0  0  0  0  0  0  0  0  0  0  0  0
   -1.5708   -0.8708    1.5656 N   0  0  0  0  0  0  0  0  0  0  0  0
   -2.2851   -1.3898    0.4839 C   0  0  0  0  0  0  0  0  0  0  0  0
   -2.5979   -2.7513    0.4724 C   0  0  0  0  0  0  0  0  0  0  0  0
   -3.3031   -3.3105   -0.5966 C   0  0  0  0  0  0  0  0  0  0  0  0
   -3.7025   -2.5088   -1.6650 C   0  0  0  0  0  0  0  0  0  0  0  0
   -3.3968   -1.1485   -1.6625 C   0  0  0  0  0  0  0  0  0  0  0  0
   -2.6890   -0.5995   -0.5861 C   0  0  0  0  0  0  0  0  0  0  0  0
   -2.3486    0.8324   -0.5466 C   0  0  0  0  0  0  0  0  0  0  0  0
   -2.7156    1.5502   -1.4750 O   0  0  0  0  0  0  0  0  0  0  0  0
    1.3489    3.4007   -1.6173 H   0  0  0  0  0  0  0  0  0  0  0  0
   -0.4730    3.3891   -1.9861 H   0  0  0  0  0  0  0  0  0  0  0  0
    0.9210    2.7829    0.6848 H   0  0  0  0  0  0  0  0  0  0  0  0
   -1.3339    3.1070    1.5912 H   0  0  0  0  0  0  0  0  0  0  0  0
   -2.0304    3.2699   -0.0008 H   0  0  0  0  0  0  0  0  0  0  0  0
    1.5590   -0.0786    3.9002 H   0  0  0  0  0  0  0  0  0  0  0  0
    0.4323   -1.2742    3.2851 H   0  0  0  0  0  0  0  0  0  0  0  0
    1.0115   -2.3070    1.1712 H   0  0  0  0  0  0  0  0  0  0  0  0
    4.1375   -0.9706   -2.3185 H   0  0  0  0  0  0  0  0  0  0  0  0
    5.4553    1.2819   -2.2672 H   0  0  0  0  0  0  0  0  0  0  0  0
   -2.2898   -3.3804    1.3037 H   0  0  0  0  0  0  0  0  0  0  0  0
   -3.5394   -4.3720   -0.5942 H   0  0  0  0  0  0  0  0  0  0  0  0
   -4.2507   -2.9423   -2.4981 H   0  0  0  0  0  0  0  0  0  0  0  0
   -3.7074   -0.5204   -2.4945 H   0  0  0  0  0  0  0  0  0  0  0  0
  1  2  2  0
  2  3  1  0
  3  4  1  0
  4  5  1  0
  5  6  1  0
  6  7  1  0
  7  8  1  0
  8  9  2  0
  9 10  1  0
 10 11  2  0
 10 12  1  0
 12 13  1  0
 13 14  2  0
 14 15  1  0
 15 16  1  0
 16 17  2  0
  5 18  2  0
 18 19  1  0
 19 20  2  0
 20 21  1  0
 21 22  2  0
 22 23  1  0
 23 24  2  0
 24 25  1  0
 25 26  2  0
 25  4  1  0
 17  8  1  0
 24 19  1  0
 16 12  1  0
  1 27  1  0
  1 28  1  0
  2 29  1  0
  3 30  1  0
  3 31  1  0
  7 32  1  0
  7 33  1  0
  9 34  1  0
 13 35  1  0
 14 36  1  0
 20 37  1  0
 21 38  1  0
 22 39  1  0
 23 40  1  0
M  END
$$$$
