
     RDKit          3D

 53 56  0  0  0  0  0  0  0  0999 V2000
    3.8332   -4.7907   -0.8907 C   0  0  0  0  0  0  0  0  0  0  0  0
    2.9037   -3.8448   -0.3786 O   0  0  0  0  0  0  0  0  0  0  0  0
    3.0343   -2.5537   -0.8086 C   0  0  0  0  0  0  0  0  0  0  0  0
    3.9984   -2.0757   -1.6922 C   0  0  0  0  0  0  0  0  0  0  0  0
    4.0141   -0.7234   -2.0593 C   0  0  0  0  0  0  0  0  0  0  0  0
    3.0688    0.1679   -1.5439 C   0  0  0  0  0  0  0  0  0  0  0  0
    2.9979    1.4989   -1.8558 O   0  0  0  0  0  0  0  0  0  0  0  0
    3.8936    1.9928   -2.8428 C   0  0  0  0  0  0  0  0  0  0  0  0
    2.1047   -0.3012   -0.6363 C   0  0  0  0  0  0  0  0  0  0  0  0
    1.0463    0.6118   -0.0608 C   0  0  0  0  0  0  0  0  0  0  0  0
   -0.1310    0.6476   -0.9398 N   0  0  0  0  0  0  0  0  0  0  0  0
   -1.1910    1.4049   -0.3481 N   0  0  0  0  0  0  0  0  0  0  0  0
   -2.1185    0.8062    0.5133 C   0  0  0  0  0  0  0  0  0  0  0  0
   -2.0448   -0.6583    0.7733 C   0  0  0  0  0  0  0  0  0  0  0  0
   -2.0093   -1.5859   -0.2719 C   0  0  0  0  0  0  0  0  0  0  0  0
   -1.9358   -2.9493    0.0127 C   0  0  0  0  0  0  0  0  0  0  0  0
   -1.9205   -3.3885    1.3380 C   0  0  0  0  0  0  0  0  0  0  0  0
   -1.9986   -2.4710    2.3934 C   0  0  0  0  0  0  0  0  0  0  0  0
   -1.9622   -2.9433    3.8164 C   0  0  0  0  0  0  0  0  0  0  0  0
   -2.0557   -1.1017    2.1025 C   0  0  0  0  0  0  0  0  0  0  0  0
   -3.0433    1.4865    1.1227 N   0  0  0  0  0  0  0  0  0  0  0  0
   -3.1411    2.8629    0.8796 C   0  0  0  0  0  0  0  0  0  0  0  0
   -4.1362    3.5882    1.5395 C   0  0  0  0  0  0  0  0  0  0  0  0
   -4.2816    4.9617    1.3233 C   0  0  0  0  0  0  0  0  0  0  0  0
   -3.4299    5.6246    0.4402 C   0  0  0  0  0  0  0  0  0  0  0  0
   -2.4326    4.9138   -0.2258 C   0  0  0  0  0  0  0  0  0  0  0  0
   -2.2963    3.5383   -0.0005 C   0  0  0  0  0  0  0  0  0  0  0  0
   -1.2473    2.7616   -0.6809 C   0  0  0  0  0  0  0  0  0  0  0  0
   -0.4895    3.3048   -1.4843 O   0  0  0  0  0  0  0  0  0  0  0  0
    2.0924   -1.6650   -0.2890 C   0  0  0  0  0  0  0  0  0  0  0  0
    3.7479   -4.8792   -1.9788 H   0  0  0  0  0  0  0  0  0  0  0  0
    3.5907   -5.7659   -0.4577 H   0  0  0  0  0  0  0  0  0  0  0  0
    4.8566   -4.5395   -0.5929 H   0  0  0  0  0  0  0  0  0  0  0  0
    4.7528   -2.7268   -2.1208 H   0  0  0  0  0  0  0  0  0  0  0  0
    4.7820   -0.4000   -2.7544 H   0  0  0  0  0  0  0  0  0  0  0  0
    3.6685    3.0523   -2.9979 H   0  0  0  0  0  0  0  0  0  0  0  0
    4.9318    1.9195   -2.5033 H   0  0  0  0  0  0  0  0  0  0  0  0
    3.7518    1.4789   -3.7993 H   0  0  0  0  0  0  0  0  0  0  0  0
    0.7742    0.2451    0.9370 H   0  0  0  0  0  0  0  0  0  0  0  0
    1.4515    1.6195    0.0947 H   0  0  0  0  0  0  0  0  0  0  0  0
    0.1566    1.1625   -1.7819 H   0  0  0  0  0  0  0  0  0  0  0  0
   -2.0292   -1.2554   -1.3068 H   0  0  0  0  0  0  0  0  0  0  0  0
   -1.8863   -3.6702   -0.7994 H   0  0  0  0  0  0  0  0  0  0  0  0
   -1.8538   -4.4551    1.5420 H   0  0  0  0  0  0  0  0  0  0  0  0
   -0.9271   -2.9895    4.1686 H   0  0  0  0  0  0  0  0  0  0  0  0
   -2.4128   -3.9370    3.9101 H   0  0  0  0  0  0  0  0  0  0  0  0
   -2.5281   -2.2679    4.4665 H   0  0  0  0  0  0  0  0  0  0  0  0
   -2.1055   -0.3739    2.9099 H   0  0  0  0  0  0  0  0  0  0  0  0
   -4.8047    3.0738    2.2256 H   0  0  0  0  0  0  0  0  0  0  0  0
   -5.0620    5.5113    1.8442 H   0  0  0  0  0  0  0  0  0  0  0  0
   -3.5432    6.6927    0.2710 H   0  0  0  0  0  0  0  0  0  0  0  0
   -1.7655    5.4270   -0.9146 H   0  0  0  0  0  0  0  0  0  0  0  0
    1.3316   -2.0422    0.3928 H   0  0  0  0  0  0  0  0  0  0  0  0
  1  2  1  0
  2  3  1  0
  3  4  2  0
  4  5  1  0
  5  6  2  0
  6  7  1  0
  7  8  1  0
  6  9  1  0
  9 10  1  0
 10 11  1  0
 11 12  1  0
 12 13  1  0
 13 14  1  0
 14 15  2  0
 15 16  1  0
 16 17  2  0
 17 18  1  0
 18 19  1  0
 18 20  2  0
 13 21  2  0
 21 22  1  0
 22 23  2  0
 23 24  1  0
 24 25  2  0
 25 26  1  0
 26 27  2  0
 27 28  1  0
 28 29  2  0
  9 30  2  0
 30  3  1  0
 28 12  1  0
 20 14  1  0
 27 22  1  0
  1 31  1  0
  1 32  1  0
  1 33  1  0
  4 34  1  0
  5 35  1  0
  8 36  1  0
  8 37  1  0
  8 38  1  0
 10 39  1  0
 10 40  1  0
 11 41  1  0
 15 42  1  0
 16 43  1  0
 17 44  1  0
 19 45  1  0
 19 46  1  0
 19 47  1  0
 20 48  1  0
 23 49  1  0
 24 50  1  0
 25 51  1  0
 26 52  1  0
 30 53  1  0
M  END
$$$$
