
     RDKit          3D

 52 54  0  0  0  0  0  0  0  0999 V2000
    1.8479   -3.6512   -1.4562 C   0  0  0  0  0  0  0  0  0  0  0  0
    3.1015   -3.7280   -0.6076 C   0  0  0  0  0  0  0  0  0  0  0  0
    3.2135   -2.5069    0.1406 O   0  0  0  0  0  0  0  0  0  0  0  0
    4.3203   -2.4512    0.9299 C   0  0  0  0  0  0  0  0  0  0  0  0
    5.1613   -3.3345    1.0083 O   0  0  0  0  0  0  0  0  0  0  0  0
    4.4102   -1.1698    1.6951 C   0  0  0  0  0  0  0  0  0  0  0  0
    5.6186   -0.9812    2.3959 C   0  0  0  0  0  0  0  0  0  0  0  0
    5.8392    0.1658    3.1571 C   0  0  0  0  0  0  0  0  0  0  0  0
    4.8503    1.1354    3.2338 C   0  0  0  0  0  0  0  0  0  0  0  0
    3.6425    0.9598    2.5541 C   0  0  0  0  0  0  0  0  0  0  0  0
    3.3966   -0.1836    1.7778 C   0  0  0  0  0  0  0  0  0  0  0  0
    2.1781   -0.3413    1.0703 N   0  0  0  0  0  0  0  0  0  0  0  0
    1.0304    0.4289    1.1482 C   0  0  0  0  0  0  0  0  0  0  0  0
    0.8225    1.3414    1.9381 O   0  0  0  0  0  0  0  0  0  0  0  0
   -0.0116    0.0030    0.1313 C   0  0  0  0  0  0  0  0  0  0  0  0
    0.4450    0.2724   -1.3010 C   0  0  0  0  0  0  0  0  0  0  0  0
   -0.8368    0.5761   -2.0326 C   0  0  0  0  0  0  0  0  0  0  0  0
   -0.9478    0.6242   -3.2483 O   0  0  0  0  0  0  0  0  0  0  0  0
   -1.8308    0.8001   -1.0917 N   0  0  0  0  0  0  0  0  0  0  0  0
   -3.1975    1.2038   -1.4330 C   0  0  0  0  0  0  0  0  0  0  0  0
   -4.2301    0.1651   -0.9485 C   0  0  0  0  0  0  0  0  0  0  0  0
   -5.0595    0.6632    0.2335 C   0  0  0  0  0  0  0  0  0  0  0  0
   -5.7988    1.9622   -0.0955 C   0  0  0  0  0  0  0  0  0  0  0  0
   -5.0118    2.9110   -1.0070 C   0  0  0  0  0  0  0  0  0  0  0  0
   -3.5124    2.6375   -0.9666 C   0  0  0  0  0  0  0  0  0  0  0  0
   -1.3045    0.7957    0.2533 C   0  0  0  0  0  0  0  0  0  0  0  0
    1.6977   -4.5804   -2.0131 H   0  0  0  0  0  0  0  0  0  0  0  0
    0.9674   -3.4637   -0.8323 H   0  0  0  0  0  0  0  0  0  0  0  0
    1.9187   -2.8227   -2.1691 H   0  0  0  0  0  0  0  0  0  0  0  0
    3.9778   -3.8502   -1.2543 H   0  0  0  0  0  0  0  0  0  0  0  0
    3.0274   -4.5760    0.0832 H   0  0  0  0  0  0  0  0  0  0  0  0
    6.4061   -1.7319    2.3462 H   0  0  0  0  0  0  0  0  0  0  0  0
    6.7779    0.2976    3.6866 H   0  0  0  0  0  0  0  0  0  0  0  0
    5.0124    2.0338    3.8260 H   0  0  0  0  0  0  0  0  0  0  0  0
    2.9101    1.7551    2.6449 H   0  0  0  0  0  0  0  0  0  0  0  0
    2.1392   -1.1661    0.4753 H   0  0  0  0  0  0  0  0  0  0  0  0
   -0.2272   -1.0660    0.2623 H   0  0  0  0  0  0  0  0  0  0  0  0
    1.1160    1.1332   -1.3785 H   0  0  0  0  0  0  0  0  0  0  0  0
    0.9248   -0.6084   -1.7335 H   0  0  0  0  0  0  0  0  0  0  0  0
   -3.2563    1.2020   -2.5313 H   0  0  0  0  0  0  0  0  0  0  0  0
   -3.7480   -0.7887   -0.6908 H   0  0  0  0  0  0  0  0  0  0  0  0
   -4.9159   -0.0581   -1.7775 H   0  0  0  0  0  0  0  0  0  0  0  0
   -5.7835   -0.1062    0.5362 H   0  0  0  0  0  0  0  0  0  0  0  0
   -4.4046    0.8282    1.0990 H   0  0  0  0  0  0  0  0  0  0  0  0
   -6.7574    1.7295   -0.5746 H   0  0  0  0  0  0  0  0  0  0  0  0
   -6.0460    2.4720    0.8454 H   0  0  0  0  0  0  0  0  0  0  0  0
   -5.3682    2.8037   -2.0412 H   0  0  0  0  0  0  0  0  0  0  0  0
   -5.2167    3.9493   -0.7128 H   0  0  0  0  0  0  0  0  0  0  0  0
   -3.1542    2.8143    0.0558 H   0  0  0  0  0  0  0  0  0  0  0  0
   -2.9813    3.3569   -1.6031 H   0  0  0  0  0  0  0  0  0  0  0  0
   -1.1450    1.8336    0.5643 H   0  0  0  0  0  0  0  0  0  0  0  0
   -2.0072    0.3113    0.9385 H   0  0  0  0  0  0  0  0  0  0  0  0
  1  2  1  0
  2  3  1  0
  3  4  1  0
  4  5  2  0
  4  6  1  0
  6  7  2  0
  7  8  1  0
  8  9  2  0
  9 10  1  0
 10 11  2  0
 11 12  1  0
 12 13  1  0
 13 14  2  0
 13 15  1  0
 15 16  1  0
 16 17  1  0
 17 18  2  0
 17 19  1  0
 19 20  1  0
 20 21  1  0
 21 22  1  0
 22 23  1  0
 23 24  1  0
 24 25  1  0
 19 26  1  0
 11  6  1  0
 26 15  1  0
 25 20  1  0
  1 27  1  0
  1 28  1  0
  1 29  1  0
  2 30  1  0
  2 31  1  0
  7 32  1  0
  8 33  1  0
  9 34  1  0
 10 35  1  0
 12 36  1  0
 15 37  1  0
 16 38  1  0
 16 39  1  0
 20 40  1  0
 21 41  1  0
 21 42  1  0
 22 43  1  0
 22 44  1  0
 23 45  1  0
 23 46  1  0
 24 47  1  0
 24 48  1  0
 25 49  1  0
 25 50  1  0
 26 51  1  0
 26 52  1  0
M  END
$$$$
