
     RDKit          3D

 51 55  0  0  0  0  0  0  0  0999 V2000
    1.6067    0.3943    2.2562 C   0  0  0  0  0  0  0  0  0  0  0  0
    1.4343    0.6746    0.7709 C   0  0  0  0  0  0  0  0  0  0  0  0
    2.1048   -0.3268   -0.0454 N   0  0  0  0  0  0  0  0  0  0  0  0
    1.5829   -1.5316   -0.5332 C   0  0  0  0  0  0  0  0  0  0  0  0
    0.3271   -2.0195   -0.5701 C   0  0  0  0  0  0  0  0  0  0  0  0
   -0.9036   -1.3981   -0.0863 C   0  0  0  0  0  0  0  0  0  0  0  0
   -1.2970   -1.6767    1.2215 C   0  0  0  0  0  0  0  0  0  0  0  0
   -2.4649   -1.1355    1.7225 C   0  0  0  0  0  0  0  0  0  0  0  0
   -3.2520   -0.3340    0.9048 C   0  0  0  0  0  0  0  0  0  0  0  0
   -4.4451    0.2062    1.4103 C   0  0  0  0  0  0  0  0  0  0  0  0
   -5.2667    1.0101    0.6161 C   0  0  0  0  0  0  0  0  0  0  0  0
   -6.5579    1.5525    1.1599 C   0  0  0  0  0  0  0  0  0  0  0  0
   -4.9005    1.2469   -0.7069 C   0  0  0  0  0  0  0  0  0  0  0  0
   -3.7123    0.7160   -1.2235 C   0  0  0  0  0  0  0  0  0  0  0  0
   -2.8532   -0.0743   -0.4355 C   0  0  0  0  0  0  0  0  0  0  0  0
   -1.6702   -0.6076   -0.8984 N   0  0  0  0  0  4  0  0  0  0  0  0
   -1.2021   -0.3182   -2.2899 C   0  0  0  0  0  0  0  0  0  0  0  0
   -1.7859   -1.3355   -3.2519 C   0  0  0  0  0  0  0  0  0  0  0  0
    2.7921   -2.5900   -1.3017 S   0  0  0  0  0  0  0  0  0  0  0  0
    4.0464   -1.3738   -0.9365 C   0  0  0  0  0  0  0  0  0  0  0  0
    5.3720   -1.5463   -1.2830 C   0  0  0  0  0  0  0  0  0  0  0  0
    6.2791   -0.5539   -0.9493 C   0  0  0  0  0  0  0  0  0  0  0  0
    5.8288    0.5926   -0.2605 C   0  0  0  0  0  0  0  0  0  0  0  0
    6.8468    1.9002    0.2215 S   0  0  0  0  0  0  0  0  0  0  0  0
    5.5573    2.7348    0.9341 C   0  0  0  0  0  0  0  0  0  0  0  0
    4.3725    2.0475    0.8098 C   0  0  0  0  0  0  0  0  0  0  0  0
    4.4838    0.7880    0.1082 C   0  0  0  0  0  0  0  0  0  0  0  0
    3.5379   -0.2291   -0.2488 C   0  0  0  0  0  0  0  0  0  0  0  0
    1.2103   -0.5906    2.5220 H   0  0  0  0  0  0  0  0  0  0  0  0
    1.0722    1.1453    2.8462 H   0  0  0  0  0  0  0  0  0  0  0  0
    2.6578    0.4129    2.5578 H   0  0  0  0  0  0  0  0  0  0  0  0
    0.3656    0.7036    0.5465 H   0  0  0  0  0  0  0  0  0  0  0  0
    1.7564    1.6830    0.5050 H   0  0  0  0  0  0  0  0  0  0  0  0
    0.1472   -3.0016   -1.0098 H   0  0  0  0  0  0  0  0  0  0  0  0
   -0.6887   -2.3177    1.8593 H   0  0  0  0  0  0  0  0  0  0  0  0
   -2.7576   -1.3552    2.7493 H   0  0  0  0  0  0  0  0  0  0  0  0
   -4.7493   -0.0001    2.4377 H   0  0  0  0  0  0  0  0  0  0  0  0
   -7.3637    0.8297    0.9997 H   0  0  0  0  0  0  0  0  0  0  0  0
   -6.8237    2.4944    0.6685 H   0  0  0  0  0  0  0  0  0  0  0  0
   -6.4731    1.7584    2.2321 H   0  0  0  0  0  0  0  0  0  0  0  0
   -5.5433    1.8485   -1.3504 H   0  0  0  0  0  0  0  0  0  0  0  0
   -3.5101    0.9418   -2.2658 H   0  0  0  0  0  0  0  0  0  0  0  0
   -0.1107   -0.3270   -2.3248 H   0  0  0  0  0  0  0  0  0  0  0  0
   -1.4772    0.7064   -2.5534 H   0  0  0  0  0  0  0  0  0  0  0  0
   -1.4502   -1.1265   -4.2721 H   0  0  0  0  0  0  0  0  0  0  0  0
   -2.8797   -1.3161   -3.2436 H   0  0  0  0  0  0  0  0  0  0  0  0
   -1.4733   -2.3518   -2.9931 H   0  0  0  0  0  0  0  0  0  0  0  0
    5.7076   -2.4379   -1.8047 H   0  0  0  0  0  0  0  0  0  0  0  0
    7.3296   -0.6623   -1.2103 H   0  0  0  0  0  0  0  0  0  0  0  0
    5.7223    3.6893    1.4160 H   0  0  0  0  0  0  0  0  0  0  0  0
    3.4702    2.4606    1.2318 H   0  0  0  0  0  0  0  0  0  0  0  0
  1  2  1  0
  2  3  1  0
  3  4  1  0
  4  5  2  3
  5  6  1  0
  6  7  2  0
  7  8  1  0
  8  9  2  0
  9 10  1  0
 10 11  2  0
 11 12  1  0
 11 13  1  0
 13 14  2  0
 14 15  1  0
 15 16  2  0
 16 17  1  0
 17 18  1  0
  4 19  1  0
 19 20  1  0
 20 21  2  0
 21 22  1  0
 22 23  2  0
 23 24  1  0
 24 25  1  0
 25 26  2  0
 26 27  1  0
 27 28  2  0
 28  3  1  0
 16  6  1  0
 28 20  1  0
 15  9  1  0
 27 23  1  0
  1 29  1  0
  1 30  1  0
  1 31  1  0
  2 32  1  0
  2 33  1  0
  5 34  1  0
  7 35  1  0
  8 36  1  0
 10 37  1  0
 12 38  1  0
 12 39  1  0
 12 40  1  0
 13 41  1  0
 14 42  1  0
 17 43  1  0
 17 44  1  0
 18 45  1  0
 18 46  1  0
 18 47  1  0
 21 48  1  0
 22 49  1  0
 25 50  1  0
 26 51  1  0
M  CHG  1  16   1
M  END
$$$$
