
     RDKit          3D

 46 49  0  0  0  0  0  0  0  0999 V2000
    4.7471   -2.4263    0.6487 C   0  0  0  0  0  0  0  0  0  0  0  0
    3.6559   -1.8581    1.1781 C   0  0  0  0  0  0  0  0  0  0  0  0
    2.3989   -1.4126    0.4607 C   0  0  0  0  0  0  0  0  0  0  0  0
    1.9896    0.0262    0.8842 C   0  0  0  0  0  0  0  0  0  0  0  0
    1.5093    0.8368   -0.2617 N   0  0  0  0  0  0  0  0  0  0  0  0
    2.6592    1.0389   -1.1716 C   0  0  0  0  0  0  0  0  0  0  0  0
    3.2434   -0.2996   -1.6495 C   0  0  0  0  0  0  0  0  0  0  0  0
    2.4027   -1.4633   -1.0895 C   0  0  0  0  0  0  0  0  0  0  0  0
    0.9479   -1.2322   -1.5551 C   0  0  0  0  0  0  0  0  0  0  0  0
    0.4422    0.1248   -1.0102 C   0  0  0  0  0  0  0  0  0  0  0  0
   -0.8384    0.0732   -0.2105 C   0  0  0  0  0  0  0  0  0  0  0  0
   -1.2510   -1.0305    0.5002 N   0  0  0  0  0  0  0  0  0  0  0  0
   -2.4591   -0.8033    1.1127 C   0  0  0  0  0  0  0  0  0  0  0  0
   -3.2399   -1.6507    1.9082 C   0  0  0  0  0  0  0  0  0  0  0  0
   -4.4400   -1.1415    2.4122 C   0  0  0  0  0  0  0  0  0  0  0  0
   -4.8381    0.1631    2.1321 C   0  0  0  0  0  0  0  0  0  0  0  0
   -4.0423    0.9958    1.3368 C   0  0  0  0  0  0  0  0  0  0  0  0
   -2.8281    0.5044    0.8140 C   0  0  0  0  0  0  0  0  0  0  0  0
   -1.7979    1.0625   -0.0092 C   0  0  0  0  0  0  0  0  0  0  0  0
   -1.7675    2.4594   -0.5451 C   0  0  0  0  0  0  0  0  0  0  0  0
   -2.4792    2.5876   -1.8890 C   0  0  0  0  0  0  0  0  0  0  0  0
   -2.3987    3.9259   -2.3738 O   0  0  0  0  0  0  0  0  0  0  0  0
    5.5815   -2.7105    1.2842 H   0  0  0  0  0  0  0  0  0  0  0  0
    4.8496   -2.6313   -0.4110 H   0  0  0  0  0  0  0  0  0  0  0  0
    3.6447   -1.7140    2.2593 H   0  0  0  0  0  0  0  0  0  0  0  0
    1.6129   -2.0980    0.8084 H   0  0  0  0  0  0  0  0  0  0  0  0
    2.8245    0.5545    1.3650 H   0  0  0  0  0  0  0  0  0  0  0  0
    1.2141   -0.0255    1.6586 H   0  0  0  0  0  0  0  0  0  0  0  0
    3.4358    1.6265   -0.6658 H   0  0  0  0  0  0  0  0  0  0  0  0
    2.3530    1.6460   -2.0329 H   0  0  0  0  0  0  0  0  0  0  0  0
    4.2883   -0.3828   -1.3331 H   0  0  0  0  0  0  0  0  0  0  0  0
    3.2398   -0.3324   -2.7458 H   0  0  0  0  0  0  0  0  0  0  0  0
    2.7623   -2.4257   -1.4684 H   0  0  0  0  0  0  0  0  0  0  0  0
    0.3252   -2.0816   -1.2576 H   0  0  0  0  0  0  0  0  0  0  0  0
    0.9269   -1.2108   -2.6530 H   0  0  0  0  0  0  0  0  0  0  0  0
    0.1956    0.7374   -1.8904 H   0  0  0  0  0  0  0  0  0  0  0  0
   -0.7458   -1.9004    0.5765 H   0  0  0  0  0  0  0  0  0  0  0  0
   -2.9308   -2.6666    2.1301 H   0  0  0  0  0  0  0  0  0  0  0  0
   -5.0705   -1.7733    3.0334 H   0  0  0  0  0  0  0  0  0  0  0  0
   -5.7742    0.5418    2.5346 H   0  0  0  0  0  0  0  0  0  0  0  0
   -4.3616    2.0122    1.1263 H   0  0  0  0  0  0  0  0  0  0  0  0
   -0.7315    2.8057   -0.6455 H   0  0  0  0  0  0  0  0  0  0  0  0
   -2.2241    3.1504    0.1747 H   0  0  0  0  0  0  0  0  0  0  0  0
   -2.0379    1.9246   -2.6409 H   0  0  0  0  0  0  0  0  0  0  0  0
   -3.5389    2.3276   -1.7970 H   0  0  0  0  0  0  0  0  0  0  0  0
   -1.4549    4.1455   -2.4589 H   0  0  0  0  0  0  0  0  0  0  0  0
  1  2  2  0
  2  3  1  0
  3  4  1  0
  4  5  1  0
  5  6  1  0
  6  7  1  0
  7  8  1  0
  8  9  1  0
  9 10  1  0
 10 11  1  0
 11 12  1  0
 12 13  1  0
 13 14  2  0
 14 15  1  0
 15 16  2  0
 16 17  1  0
 17 18  2  0
 18 19  1  0
 19 20  1  0
 20 21  1  0
 21 22  1  0
  8  3  1  0
 19 11  2  0
 10  5  1  0
 18 13  1  0
  1 23  1  0
  1 24  1  0
  2 25  1  0
  3 26  1  0
  4 27  1  0
  4 28  1  0
  6 29  1  0
  6 30  1  0
  7 31  1  0
  7 32  1  0
  8 33  1  0
  9 34  1  0
  9 35  1  0
 10 36  1  0
 12 37  1  0
 14 38  1  0
 15 39  1  0
 16 40  1  0
 17 41  1  0
 20 42  1  0
 20 43  1  0
 21 44  1  0
 21 45  1  0
 22 46  1  0
M  END
$$$$
