
     RDKit          3D

 36 38  0  0  0  0  0  0  0  0999 V2000
   -6.8248   -0.1858   -0.2177 C   0  0  0  0  0  0  0  0  0  0  0  0
   -5.3426    0.0493   -0.1918 C   0  0  0  0  0  0  0  0  0  0  0  0
   -4.5789   -0.1278   -1.3535 C   0  0  0  0  0  0  0  0  0  0  0  0
   -3.2053    0.1208   -1.3433 C   0  0  0  0  0  0  0  0  0  0  0  0
   -2.5919    0.5455   -0.1633 C   0  0  0  0  0  0  0  0  0  0  0  0
   -0.8536    0.8898   -0.1441 S   0  0  0  0  0  6  0  0  0  0  0  0
   -0.3800    0.9936   -1.5087 O   0  0  0  0  0  0  0  0  0  0  0  0
   -0.6157    1.9326    0.8290 O   0  0  0  0  0  0  0  0  0  0  0  0
   -0.2305   -0.5568    0.5316 N   0  0  0  0  0  0  0  0  0  0  0  0
    0.9443   -1.1154   -0.2617 N   0  0  0  0  0  0  0  0  0  0  0  0
    2.2038   -0.5946   -0.0132 C   0  0  0  0  0  0  0  0  0  0  0  0
    2.4477    0.2015    0.8812 O   0  0  0  0  0  0  0  0  0  0  0  0
    3.1805   -1.1870   -0.9755 C   0  0  0  0  0  0  0  0  0  0  0  0
    4.4926   -0.9527   -1.1248 C   0  0  0  0  0  0  0  0  0  0  0  0
    5.2767   -0.0674   -0.3346 C   0  0  0  0  0  0  0  0  0  0  0  0
    5.3735    0.0907    1.0370 C   0  0  0  0  0  0  0  0  0  0  0  0
    6.3135    1.0914    1.4215 C   0  0  0  0  0  0  0  0  0  0  0  0
    6.9324    1.6592    0.3334 C   0  0  0  0  0  0  0  0  0  0  0  0
    6.3888    0.9822   -1.1360 S   0  0  0  0  0  0  0  0  0  0  0  0
    2.3504   -2.3068   -2.0240 S   0  0  0  0  0  0  0  0  0  0  0  0
    0.7853   -2.0361   -1.2712 C   0  0  0  0  0  0  0  0  0  0  0  0
   -0.6060   -2.8285   -1.7301 S   0  0  0  0  0  0  0  0  0  0  0  0
   -3.3456    0.7565    0.9946 C   0  0  0  0  0  0  0  0  0  0  0  0
   -4.7191    0.5080    0.9765 C   0  0  0  0  0  0  0  0  0  0  0  0
   -7.3443    0.7342   -0.5027 H   0  0  0  0  0  0  0  0  0  0  0  0
   -7.0825   -0.9746   -0.9322 H   0  0  0  0  0  0  0  0  0  0  0  0
   -7.1863   -0.5072    0.7648 H   0  0  0  0  0  0  0  0  0  0  0  0
   -5.0515   -0.4599   -2.2760 H   0  0  0  0  0  0  0  0  0  0  0  0
   -2.6296   -0.0196   -2.2554 H   0  0  0  0  0  0  0  0  0  0  0  0
    0.0659   -0.3164    1.4867 H   0  0  0  0  0  0  0  0  0  0  0  0
    5.0209   -1.4517   -1.9369 H   0  0  0  0  0  0  0  0  0  0  0  0
    4.7884   -0.4795    1.7486 H   0  0  0  0  0  0  0  0  0  0  0  0
    6.5222    1.3772    2.4450 H   0  0  0  0  0  0  0  0  0  0  0  0
    7.6832    2.4374    0.3298 H   0  0  0  0  0  0  0  0  0  0  0  0
   -2.8785    1.1197    1.9071 H   0  0  0  0  0  0  0  0  0  0  0  0
   -5.3035    0.6782    1.8787 H   0  0  0  0  0  0  0  0  0  0  0  0
  1  2  1  0
  2  3  2  0
  3  4  1  0
  4  5  2  0
  5  6  1  0
  6  7  2  0
  6  8  2  0
  6  9  1  0
  9 10  1  0
 10 11  1  0
 11 12  2  0
 11 13  1  0
 13 14  2  3
 14 15  1  0
 15 16  2  0
 16 17  1  0
 17 18  2  0
 18 19  1  0
 13 20  1  0
 20 21  1  0
 21 22  2  0
  5 23  1  0
 23 24  2  0
 24  2  1  0
 21 10  1  0
 19 15  1  0
  1 25  1  0
  1 26  1  0
  1 27  1  0
  3 28  1  0
  4 29  1  0
  9 30  1  0
 14 31  1  0
 16 32  1  0
 17 33  1  0
 18 34  1  0
 23 35  1  0
 24 36  1  0
M  END
$$$$
