
     RDKit          3D

 47 50  0  0  0  0  0  0  0  0999 V2000
   -4.6722    1.5271    0.7091 O   0  0  0  0  0  0  0  0  0  0  0  0
   -3.7176    0.7734    0.4549 C   0  0  0  0  0  0  0  0  0  0  0  0
   -3.5470   -0.5569    1.2148 C   0  0  0  0  0  0  0  0  0  0  0  0
   -4.5134   -0.8175    2.4168 C   0  0  0  0  0  0  0  0  0  0  0  0
   -3.3455   -1.5290    3.1167 C   0  0  0  0  0  0  0  0  0  0  0  0
   -2.4034   -0.6556    2.2686 C   0  0  0  0  0  0  0  0  0  0  0  0
   -2.7868    1.1611   -0.5073 N   0  0  0  0  0  0  0  0  0  0  0  0
   -2.9274    2.4839   -1.1342 C   0  0  0  0  0  0  0  0  0  0  0  0
   -1.6740    2.7352   -1.9629 C   0  0  0  0  0  0  0  0  0  0  0  0
   -1.0484    1.3763   -1.9784 C   0  0  0  0  0  0  0  0  0  0  0  0
    0.0600    0.9919   -2.7191 C   0  0  0  0  0  0  0  0  0  0  0  0
    0.5151   -0.3189   -2.5786 C   0  0  0  0  0  0  0  0  0  0  0  0
    1.9159   -0.8842   -3.5192 S   0  0  0  0  0  6  0  0  0  0  0  0
    2.3497    0.1975   -4.3775 O   0  0  0  0  0  0  0  0  0  0  0  0
    1.5749   -2.1873   -4.0427 O   0  0  0  0  0  0  0  0  0  0  0  0
    3.0878   -1.1017   -2.3438 N   0  0  0  0  0  0  0  0  0  0  0  0
    3.6267    0.1062   -1.6881 C   0  0  0  0  0  0  0  0  0  0  0  0
    3.9998   -0.1897   -0.2471 C   0  0  0  0  0  0  0  0  0  0  0  0
    4.9585    0.5788    0.4096 C   0  0  0  0  0  0  0  0  0  0  0  0
    5.2618    0.2761    1.7367 C   0  0  0  0  0  0  0  0  0  0  0  0
    4.5976   -0.7668    2.3730 C   0  0  0  0  0  0  0  0  0  0  0  0
    3.6473   -1.4706    1.6547 C   0  0  0  0  0  0  0  0  0  0  0  0
    3.3283   -1.2045    0.3660 N   0  0  0  0  0  0  0  0  0  0  0  0
   -0.1406   -1.2196   -1.7298 C   0  0  0  0  0  0  0  0  0  0  0  0
   -1.2559   -0.8083   -0.9884 C   0  0  0  0  0  0  0  0  0  0  0  0
   -1.7023    0.4972   -1.1070 C   0  0  0  0  0  0  0  0  0  0  0  0
   -3.6015   -1.4141    0.5312 H   0  0  0  0  0  0  0  0  0  0  0  0
   -4.8521    0.0824    2.9414 H   0  0  0  0  0  0  0  0  0  0  0  0
   -5.3811   -1.4422    2.1956 H   0  0  0  0  0  0  0  0  0  0  0  0
   -3.2788   -2.5968    2.8868 H   0  0  0  0  0  0  0  0  0  0  0  0
   -3.2813   -1.3902    4.1982 H   0  0  0  0  0  0  0  0  0  0  0  0
   -2.1448    0.3001    2.7385 H   0  0  0  0  0  0  0  0  0  0  0  0
   -1.4826   -1.1490    1.9500 H   0  0  0  0  0  0  0  0  0  0  0  0
   -3.8193    2.4640   -1.7673 H   0  0  0  0  0  0  0  0  0  0  0  0
   -3.0750    3.2534   -0.3728 H   0  0  0  0  0  0  0  0  0  0  0  0
   -1.0134    3.4485   -1.4668 H   0  0  0  0  0  0  0  0  0  0  0  0
   -1.9223    3.0949   -2.9631 H   0  0  0  0  0  0  0  0  0  0  0  0
    0.5485    1.6921   -3.3879 H   0  0  0  0  0  0  0  0  0  0  0  0
    2.8306   -1.8116   -1.6459 H   0  0  0  0  0  0  0  0  0  0  0  0
    2.8963    0.9245   -1.6756 H   0  0  0  0  0  0  0  0  0  0  0  0
    4.5106    0.4351   -2.2506 H   0  0  0  0  0  0  0  0  0  0  0  0
    5.4715    1.3873   -0.1008 H   0  0  0  0  0  0  0  0  0  0  0  0
    6.0145    0.8480    2.2682 H   0  0  0  0  0  0  0  0  0  0  0  0
    4.8171   -1.0296    3.4056 H   0  0  0  0  0  0  0  0  0  0  0  0
    3.1053   -2.2968    2.1076 H   0  0  0  0  0  0  0  0  0  0  0  0
    0.2054   -2.2486   -1.6515 H   0  0  0  0  0  0  0  0  0  0  0  0
   -1.7368   -1.5455   -0.3679 H   0  0  0  0  0  0  0  0  0  0  0  0
  1  2  2  0
  2  3  1  0
  3  4  1  0
  4  5  1  0
  5  6  1  0
  2  7  1  0
  7  8  1  0
  8  9  1  0
  9 10  1  0
 10 11  2  0
 11 12  1  0
 12 13  1  0
 13 14  2  0
 13 15  2  0
 13 16  1  0
 16 17  1  0
 17 18  1  0
 18 19  2  0
 19 20  1  0
 20 21  2  0
 21 22  1  0
 22 23  2  0
 12 24  2  0
 24 25  1  0
 25 26  2  0
  6  3  1  0
 26  7  1  0
 26 10  1  0
 23 18  1  0
  3 27  1  0
  4 28  1  0
  4 29  1  0
  5 30  1  0
  5 31  1  0
  6 32  1  0
  6 33  1  0
  8 34  1  0
  8 35  1  0
  9 36  1  0
  9 37  1  0
 11 38  1  0
 16 39  1  0
 17 40  1  0
 17 41  1  0
 19 42  1  0
 20 43  1  0
 21 44  1  0
 22 45  1  0
 24 46  1  0
 25 47  1  0
M  END
$$$$
