
     RDKit          3D

 45 47  0  0  0  0  0  0  0  0999 V2000
   -4.0076    2.5360    1.9510 C   0  0  0  0  0  0  0  0  0  0  0  0
   -3.4274    1.5321    1.1258 O   0  0  0  0  0  0  0  0  0  0  0  0
   -4.2855    0.5985    0.5871 C   0  0  0  0  0  0  0  0  0  0  0  0
   -5.6761    0.6119    0.7332 C   0  0  0  0  0  0  0  0  0  0  0  0
   -6.4513   -0.3889    0.1446 C   0  0  0  0  0  0  0  0  0  0  0  0
   -5.8431   -1.4026   -0.5908 C   0  0  0  0  0  0  0  0  0  0  0  0
   -4.4555   -1.4225   -0.7458 C   0  0  0  0  0  0  0  0  0  0  0  0
   -3.6690   -0.4268   -0.1639 C   0  0  0  0  0  0  0  0  0  0  0  0
   -2.2607   -0.3767   -0.2708 N   0  0  0  0  0  0  0  0  0  0  0  0
   -1.4213   -1.2258   -0.9651 C   0  0  0  0  0  0  0  0  0  0  0  0
   -1.7703   -2.1776   -1.6550 O   0  0  0  0  0  0  0  0  0  0  0  0
    0.0522   -0.8434   -0.8082 C   0  0  0  0  0  0  0  0  0  0  0  0
    0.5169   -1.0298    0.6423 C   0  0  0  0  0  0  0  0  0  0  0  0
    2.0023   -0.7153    0.7971 C   0  0  0  0  0  0  0  0  0  0  0  0
    2.7848   -1.5440   -0.1449 N   0  0  0  0  0  0  0  0  0  0  0  0
    4.4497   -1.6879    0.1947 S   0  0  0  0  0  6  0  0  0  0  0  0
    5.0710   -2.5085   -0.8214 O   0  0  0  0  0  0  0  0  0  0  0  0
    4.5852   -2.0029    1.6025 O   0  0  0  0  0  0  0  0  0  0  0  0
    5.1885   -0.0663    0.0535 C   0  0  0  0  0  0  0  0  0  0  0  0
    5.5562    0.8571    1.0159 C   0  0  0  0  0  0  0  0  0  0  0  0
    6.1111    2.0412    0.4516 C   0  0  0  0  0  0  0  0  0  0  0  0
    6.1510    1.9834   -0.9236 C   0  0  0  0  0  0  0  0  0  0  0  0
    5.5237    0.5088   -1.5226 S   0  0  0  0  0  0  0  0  0  0  0  0
    2.4131   -1.3272   -1.5611 C   0  0  0  0  0  0  0  0  0  0  0  0
    0.9397   -1.6700   -1.7494 C   0  0  0  0  0  0  0  0  0  0  0  0
   -3.1964    3.1653    2.3299 H   0  0  0  0  0  0  0  0  0  0  0  0
   -4.5157    2.0936    2.8142 H   0  0  0  0  0  0  0  0  0  0  0  0
   -4.6840    3.1760    1.3753 H   0  0  0  0  0  0  0  0  0  0  0  0
   -6.1893    1.3845    1.2950 H   0  0  0  0  0  0  0  0  0  0  0  0
   -7.5324   -0.3785    0.2598 H   0  0  0  0  0  0  0  0  0  0  0  0
   -6.4466   -2.1835   -1.0473 H   0  0  0  0  0  0  0  0  0  0  0  0
   -4.0189   -2.2304   -1.3234 H   0  0  0  0  0  0  0  0  0  0  0  0
   -1.8556    0.4162    0.2159 H   0  0  0  0  0  0  0  0  0  0  0  0
    0.1464    0.2153   -1.0865 H   0  0  0  0  0  0  0  0  0  0  0  0
   -0.0550   -0.3868    1.3212 H   0  0  0  0  0  0  0  0  0  0  0  0
    0.3246   -2.0638    0.9587 H   0  0  0  0  0  0  0  0  0  0  0  0
    2.1869    0.3475    0.6026 H   0  0  0  0  0  0  0  0  0  0  0  0
    2.2906   -0.9281    1.8312 H   0  0  0  0  0  0  0  0  0  0  0  0
    5.4359    0.6739    2.0777 H   0  0  0  0  0  0  0  0  0  0  0  0
    6.4708    2.8881    1.0241 H   0  0  0  0  0  0  0  0  0  0  0  0
    6.5254    2.7328   -1.6084 H   0  0  0  0  0  0  0  0  0  0  0  0
    2.5892   -0.2839   -1.8426 H   0  0  0  0  0  0  0  0  0  0  0  0
    3.0045   -1.9705   -2.2199 H   0  0  0  0  0  0  0  0  0  0  0  0
    0.7901   -2.7416   -1.5621 H   0  0  0  0  0  0  0  0  0  0  0  0
    0.6518   -1.4888   -2.7922 H   0  0  0  0  0  0  0  0  0  0  0  0
  1  2  1  0
  2  3  1  0
  3  4  2  0
  4  5  1  0
  5  6  2  0
  6  7  1  0
  7  8  2  0
  8  9  1  0
  9 10  1  0
 10 11  2  0
 10 12  1  0
 12 13  1  0
 13 14  1  0
 14 15  1  0
 15 16  1  0
 16 17  2  0
 16 18  2  0
 16 19  1  0
 19 20  2  0
 20 21  1  0
 21 22  2  0
 22 23  1  0
 15 24  1  0
 24 25  1  0
  8  3  1  0
 25 12  1  0
 23 19  1  0
  1 26  1  0
  1 27  1  0
  1 28  1  0
  4 29  1  0
  5 30  1  0
  6 31  1  0
  7 32  1  0
  9 33  1  0
 12 34  1  0
 13 35  1  0
 13 36  1  0
 14 37  1  0
 14 38  1  0
 20 39  1  0
 21 40  1  0
 22 41  1  0
 24 42  1  0
 24 43  1  0
 25 44  1  0
 25 45  1  0
M  END
$$$$
