
     RDKit          3D

 53 56  0  0  0  0  0  0  0  0999 V2000
    7.1396    0.0277   -2.9823 C   0  0  0  0  0  0  0  0  0  0  0  0
    6.5860   -0.8352   -1.9964 O   0  0  0  0  0  0  0  0  0  0  0  0
    5.6359   -0.2991   -1.1717 C   0  0  0  0  0  0  0  0  0  0  0  0
    5.1499   -1.1728   -0.1963 C   0  0  0  0  0  0  0  0  0  0  0  0
    4.1741   -0.7577    0.7135 C   0  0  0  0  0  0  0  0  0  0  0  0
    3.6724    0.5478    0.6623 C   0  0  0  0  0  0  0  0  0  0  0  0
    2.5979    1.0018    1.6145 C   0  0  0  0  0  0  0  0  0  0  0  0
    1.2946    0.8434    1.0110 N   0  0  0  0  0  0  0  0  0  0  0  0
    0.5961    1.9120    0.4695 C   0  0  0  0  0  0  0  0  0  0  0  0
    1.0484    3.0556    0.4969 O   0  0  0  0  0  0  0  0  0  0  0  0
   -0.7011    1.5327   -0.2381 C   0  0  0  0  0  0  0  0  0  0  0  0
   -1.3615    2.7085   -0.8242 C   0  0  0  0  0  0  0  0  0  0  0  0
   -1.9280    3.5832   -1.3400 N   0  0  0  0  0  0  0  0  0  0  0  0
   -1.6612    0.7899    0.6658 C   0  0  0  0  0  0  0  0  0  0  0  0
   -1.7718    1.2112    1.9577 N   0  0  0  0  0  0  0  0  0  0  0  0
   -2.6268    0.5473    2.7533 C   0  0  0  0  0  0  0  0  0  0  0  0
   -2.7816    0.9390    4.0775 C   0  0  0  0  0  0  0  0  0  0  0  0
   -3.6568    0.2699    4.9337 C   0  0  0  0  0  0  0  0  0  0  0  0
   -4.3888   -0.8094    4.4567 C   0  0  0  0  0  0  0  0  0  0  0  0
   -4.2392   -1.2085    3.1275 C   0  0  0  0  0  0  0  0  0  0  0  0
   -3.3709   -0.5480    2.2665 C   0  0  0  0  0  0  0  0  0  0  0  0
   -3.2561   -0.9612    0.9900 N   0  0  0  0  0  0  0  0  0  0  0  0
   -2.4110   -0.2906    0.1753 C   0  0  0  0  0  0  0  0  0  0  0  0
   -2.3082   -0.6744   -1.1789 N   0  0  0  0  0  0  0  0  0  0  0  0
   -2.4412   -2.1354   -1.3821 C   0  0  0  0  0  0  0  0  0  0  0  0
   -3.7902   -2.3377   -2.0589 C   0  0  0  0  0  0  0  0  0  0  0  0
   -3.9130   -1.0856   -2.9023 C   0  0  0  0  0  0  0  0  0  0  0  0
   -3.3788   -0.0076   -1.9656 C   0  0  0  0  0  0  0  0  0  0  0  0
    4.1556    1.4189   -0.3238 C   0  0  0  0  0  0  0  0  0  0  0  0
    5.1332    1.0001   -1.2330 C   0  0  0  0  0  0  0  0  0  0  0  0
    6.3743    0.3563   -3.6932 H   0  0  0  0  0  0  0  0  0  0  0  0
    7.8896   -0.5408   -3.5404 H   0  0  0  0  0  0  0  0  0  0  0  0
    7.6453    0.8826   -2.5210 H   0  0  0  0  0  0  0  0  0  0  0  0
    5.5366   -2.1878   -0.1455 H   0  0  0  0  0  0  0  0  0  0  0  0
    3.8137   -1.4613    1.4599 H   0  0  0  0  0  0  0  0  0  0  0  0
    2.7687    2.0408    1.9171 H   0  0  0  0  0  0  0  0  0  0  0  0
    2.6118    0.3936    2.5257 H   0  0  0  0  0  0  0  0  0  0  0  0
    0.9400   -0.0983    0.9118 H   0  0  0  0  0  0  0  0  0  0  0  0
   -0.3760    0.8816   -1.0604 H   0  0  0  0  0  0  0  0  0  0  0  0
   -2.2087    1.7862    4.4474 H   0  0  0  0  0  0  0  0  0  0  0  0
   -3.7645    0.5949    5.9656 H   0  0  0  0  0  0  0  0  0  0  0  0
   -5.0761   -1.3394    5.1112 H   0  0  0  0  0  0  0  0  0  0  0  0
   -4.8141   -2.0516    2.7518 H   0  0  0  0  0  0  0  0  0  0  0  0
   -2.3332   -2.7434   -0.4766 H   0  0  0  0  0  0  0  0  0  0  0  0
   -1.6407   -2.4447   -2.0655 H   0  0  0  0  0  0  0  0  0  0  0  0
   -4.5922   -2.3745   -1.3126 H   0  0  0  0  0  0  0  0  0  0  0  0
   -3.8272   -3.2550   -2.6526 H   0  0  0  0  0  0  0  0  0  0  0  0
   -3.2786   -1.1638   -3.7933 H   0  0  0  0  0  0  0  0  0  0  0  0
   -4.9384   -0.8882   -3.2263 H   0  0  0  0  0  0  0  0  0  0  0  0
   -4.1976    0.3647   -1.3352 H   0  0  0  0  0  0  0  0  0  0  0  0
   -2.9713    0.8337   -2.5345 H   0  0  0  0  0  0  0  0  0  0  0  0
    3.7661    2.4346   -0.3898 H   0  0  0  0  0  0  0  0  0  0  0  0
    5.4747    1.7137   -1.9754 H   0  0  0  0  0  0  0  0  0  0  0  0
  1  2  1  0
  2  3  1  0
  3  4  2  0
  4  5  1  0
  5  6  2  0
  6  7  1  0
  7  8  1  0
  8  9  1  0
  9 10  2  0
  9 11  1  0
 11 12  1  0
 12 13  3  0
 11 14  1  0
 14 15  2  0
 15 16  1  0
 16 17  2  0
 17 18  1  0
 18 19  2  0
 19 20  1  0
 20 21  2  0
 21 22  1  0
 22 23  2  0
 23 24  1  0
 24 25  1  0
 25 26  1  0
 26 27  1  0
 27 28  1  0
  6 29  1  0
 29 30  2  0
 30  3  1  0
 23 14  1  0
 28 24  1  0
 21 16  1  0
  1 31  1  0
  1 32  1  0
  1 33  1  0
  4 34  1  0
  5 35  1  0
  7 36  1  0
  7 37  1  0
  8 38  1  0
 11 39  1  0
 17 40  1  0
 18 41  1  0
 19 42  1  0
 20 43  1  0
 25 44  1  0
 25 45  1  0
 26 46  1  0
 26 47  1  0
 27 48  1  0
 27 49  1  0
 28 50  1  0
 28 51  1  0
 29 52  1  0
 30 53  1  0
M  END
$$$$
