
     RDKit          3D

 30 32  0  0  0  0  0  0  0  0999 V2000
    5.8826    0.3850   -1.4072 O   0  0  0  0  0  0  0  0  0  0  0  0
    4.6763    0.6029   -1.5869 N   0  0  0  0  0  4  0  0  0  0  0  0
    4.2086    1.2095   -2.5606 O   0  0  0  0  0  1  0  0  0  0  0  0
    3.7340    0.1093   -0.5737 C   0  0  0  0  0  0  0  0  0  0  0  0
    4.2272   -0.5045    0.5852 C   0  0  0  0  0  0  0  0  0  0  0  0
    3.3327   -0.9645    1.5496 C   0  0  0  0  0  0  0  0  0  0  0  0
    1.9573   -0.8162    1.3539 C   0  0  0  0  0  0  0  0  0  0  0  0
    1.4571   -0.2118    0.1889 C   0  0  0  0  0  0  0  0  0  0  0  0
   -0.0251   -0.0687    0.0290 C   0  0  0  0  0  0  0  0  0  0  0  0
   -0.7849   -0.1808    1.0861 N   0  0  0  0  0  0  0  0  0  0  0  0
   -2.1699    0.0462    0.9811 C   0  0  0  0  0  0  0  0  0  0  0  0
   -3.0108   -0.4883    1.9590 C   0  0  0  0  0  0  0  0  0  0  0  0
   -4.3843   -0.2359    1.9295 C   0  0  0  0  0  0  0  0  0  0  0  0
   -4.9261    0.5649    0.9245 C   0  0  0  0  0  0  0  0  0  0  0  0
   -4.0967    1.1125   -0.0545 C   0  0  0  0  0  0  0  0  0  0  0  0
   -2.7244    0.8516   -0.0263 C   0  0  0  0  0  0  0  0  0  0  0  0
   -1.6428    1.5083   -1.2777 S   0  0  0  0  0  0  0  0  0  0  0  0
   -0.5712    0.1540   -1.3634 C   0  0  0  0  0  0  0  0  0  0  0  0
   -0.2278   -0.5872   -2.3684 N   0  0  0  0  0  0  0  0  0  0  0  0
   -0.8579   -0.1750   -3.5511 O   0  0  0  0  0  0  0  0  0  0  0  0
    2.3534    0.2626   -0.7773 C   0  0  0  0  0  0  0  0  0  0  0  0
    5.2960   -0.6265    0.7517 H   0  0  0  0  0  0  0  0  0  0  0  0
    3.7029   -1.4386    2.4565 H   0  0  0  0  0  0  0  0  0  0  0  0
    1.2745   -1.1815    2.1203 H   0  0  0  0  0  0  0  0  0  0  0  0
   -2.5889   -1.0985    2.7531 H   0  0  0  0  0  0  0  0  0  0  0  0
   -5.0291   -0.6587    2.6961 H   0  0  0  0  0  0  0  0  0  0  0  0
   -5.9950    0.7638    0.9045 H   0  0  0  0  0  0  0  0  0  0  0  0
   -4.5261    1.7340   -0.8363 H   0  0  0  0  0  0  0  0  0  0  0  0
   -0.5342   -0.8211   -4.2068 H   0  0  0  0  0  0  0  0  0  0  0  0
    1.9922    0.7530   -1.6786 H   0  0  0  0  0  0  0  0  0  0  0  0
  1  2  2  0
  2  3  1  0
  2  4  1  0
  4  5  2  0
  5  6  1  0
  6  7  2  0
  7  8  1  0
  8  9  1  0
  9 10  2  0
 10 11  1  0
 11 12  2  0
 12 13  1  0
 13 14  2  0
 14 15  1  0
 15 16  2  0
 16 17  1  0
 17 18  1  0
 18 19  2  3
 19 20  1  0
  8 21  2  0
 21  4  1  0
 18  9  1  0
 16 11  1  0
  5 22  1  0
  6 23  1  0
  7 24  1  0
 12 25  1  0
 13 26  1  0
 14 27  1  0
 15 28  1  0
 20 29  1  0
 21 30  1  0
M  CHG  2   2   1   3  -1
M  END
$$$$
