
     RDKit          3D

 47 48  0  0  0  0  0  0  0  0999 V2000
    0.1442    2.1657    2.6063 C   0  0  0  0  0  0  0  0  0  0  0  0
   -1.3789    1.2478    2.2315 S   0  0  0  0  0  0  0  0  0  0  0  0
   -1.8668    2.0755    0.6732 C   0  0  0  0  0  0  0  0  0  0  0  0
   -0.8841    1.8905   -0.4802 C   0  0  0  0  0  0  0  0  0  0  0  0
   -0.7418    0.4424   -0.9694 C   0  0  0  0  0  0  0  0  0  0  0  0
    0.3359    0.4329   -1.9846 N   0  0  0  0  0  0  0  0  0  0  0  0
    1.4536   -0.8057   -1.9763 S   0  0  0  0  0  6  0  0  0  0  0  0
    2.1730   -0.7244   -3.2276 O   0  0  0  0  0  0  0  0  0  0  0  0
    0.7940   -2.0204   -1.5558 O   0  0  0  0  0  0  0  0  0  0  0  0
    2.5507   -0.2693   -0.6859 C   0  0  0  0  0  0  0  0  0  0  0  0
    2.4809   -0.8560    0.5823 C   0  0  0  0  0  0  0  0  0  0  0  0
    3.3381   -0.4142    1.5944 C   0  0  0  0  0  0  0  0  0  0  0  0
    4.2804    0.5929    1.3353 C   0  0  0  0  0  0  0  0  0  0  0  0
    5.1821    1.0897    2.4273 C   0  0  0  0  0  0  0  0  0  0  0  0
    4.3406    1.1699    0.0551 C   0  0  0  0  0  0  0  0  0  0  0  0
    3.4815    0.7380   -0.9573 C   0  0  0  0  0  0  0  0  0  0  0  0
   -2.0214   -0.0064   -1.7003 C   0  0  0  0  0  0  0  0  0  0  0  0
   -2.3995    0.6094   -2.7064 O   0  0  0  0  0  0  0  0  0  0  0  0
   -2.7206   -1.0855   -1.2111 N   0  0  0  0  0  0  0  0  0  0  0  0
   -2.3912   -1.9184   -0.0602 C   0  0  0  0  0  0  0  0  0  0  0  0
   -3.3667   -3.0880   -0.1398 C   0  0  0  0  0  0  0  0  0  0  0  0
   -4.5840   -2.4588   -0.8112 C   0  0  0  0  0  0  0  0  0  0  0  0
   -3.9547   -1.5285   -1.8393 C   0  0  0  0  0  0  0  0  0  0  0  0
    0.4751    1.9068    3.6167 H   0  0  0  0  0  0  0  0  0  0  0  0
   -0.0362    3.2451    2.5607 H   0  0  0  0  0  0  0  0  0  0  0  0
    0.9404    1.8907    1.9084 H   0  0  0  0  0  0  0  0  0  0  0  0
   -1.9906    3.1460    0.8784 H   0  0  0  0  0  0  0  0  0  0  0  0
   -2.8543    1.6951    0.3904 H   0  0  0  0  0  0  0  0  0  0  0  0
    0.1003    2.2878   -0.2014 H   0  0  0  0  0  0  0  0  0  0  0  0
   -1.2222    2.5241   -1.3107 H   0  0  0  0  0  0  0  0  0  0  0  0
   -0.4844   -0.2072   -0.1368 H   0  0  0  0  0  0  0  0  0  0  0  0
    0.0826    0.7619   -2.9193 H   0  0  0  0  0  0  0  0  0  0  0  0
    1.7666   -1.6474    0.7915 H   0  0  0  0  0  0  0  0  0  0  0  0
    3.2735   -0.8662    2.5825 H   0  0  0  0  0  0  0  0  0  0  0  0
    5.3411    0.3182    3.1888 H   0  0  0  0  0  0  0  0  0  0  0  0
    6.1661    1.3575    2.0263 H   0  0  0  0  0  0  0  0  0  0  0  0
    4.7379    1.9695    2.9039 H   0  0  0  0  0  0  0  0  0  0  0  0
    5.0669    1.9531   -0.1636 H   0  0  0  0  0  0  0  0  0  0  0  0
    3.5409    1.1851   -1.9470 H   0  0  0  0  0  0  0  0  0  0  0  0
   -1.3504   -2.2469   -0.0883 H   0  0  0  0  0  0  0  0  0  0  0  0
   -2.5625   -1.3228    0.8418 H   0  0  0  0  0  0  0  0  0  0  0  0
   -3.5912   -3.5075    0.8451 H   0  0  0  0  0  0  0  0  0  0  0  0
   -2.9591   -3.8811   -0.7798 H   0  0  0  0  0  0  0  0  0  0  0  0
   -5.1511   -1.8856   -0.0647 H   0  0  0  0  0  0  0  0  0  0  0  0
   -5.2541   -3.1970   -1.2646 H   0  0  0  0  0  0  0  0  0  0  0  0
   -3.6868   -2.0755   -2.7541 H   0  0  0  0  0  0  0  0  0  0  0  0
   -4.5940   -0.6831   -2.1042 H   0  0  0  0  0  0  0  0  0  0  0  0
  1  2  1  0
  2  3  1  0
  3  4  1  0
  4  5  1  0
  5  6  1  0
  6  7  1  0
  7  8  2  0
  7  9  2  0
  7 10  1  0
 10 11  2  0
 11 12  1  0
 12 13  2  0
 13 14  1  0
 13 15  1  0
 15 16  2  0
  5 17  1  0
 17 18  2  0
 17 19  1  0
 19 20  1  0
 20 21  1  0
 21 22  1  0
 22 23  1  0
 16 10  1  0
 23 19  1  0
  1 24  1  0
  1 25  1  0
  1 26  1  0
  3 27  1  0
  3 28  1  0
  4 29  1  0
  4 30  1  0
  5 31  1  0
  6 32  1  0
 11 33  1  0
 12 34  1  0
 14 35  1  0
 14 36  1  0
 14 37  1  0
 15 38  1  0
 16 39  1  0
 20 40  1  0
 20 41  1  0
 21 42  1  0
 21 43  1  0
 22 44  1  0
 22 45  1  0
 23 46  1  0
 23 47  1  0
M  END
$$$$
