
     RDKit          3D

 42 44  0  0  0  0  0  0  0  0999 V2000
   -6.1348   -0.0300   -1.3156 C   0  0  0  0  0  0  0  0  0  0  0  0
   -5.3217    0.4949   -0.2195 N   0  0  0  0  0  0  0  0  0  0  0  0
   -5.1879    1.9543   -0.2059 C   0  0  0  0  0  0  0  0  0  0  0  0
   -4.1780   -0.2221    0.1715 C   0  0  0  0  0  0  0  0  0  0  0  0
   -3.4133    0.1896    1.2780 C   0  0  0  0  0  0  0  0  0  0  0  0
   -2.2705   -0.5058    1.6963 C   0  0  0  0  0  0  0  0  0  0  0  0
   -1.8604   -1.6519    1.0203 C   0  0  0  0  0  0  0  0  0  0  0  0
   -0.6711   -2.3815    1.4554 C   0  0  0  0  0  0  0  0  0  0  0  0
    0.6039   -2.1217    1.1215 C   0  0  0  0  0  0  0  0  0  0  0  0
    1.0590   -1.0420    0.1970 C   0  0  0  0  0  0  0  0  0  0  0  0
    0.2690   -0.3583   -0.4557 O   0  0  0  0  0  0  0  0  0  0  0  0
    2.5182   -0.7326    0.1267 C   0  0  0  0  0  0  0  0  0  0  0  0
    2.8566    0.5511   -0.1149 C   0  0  0  0  0  0  0  0  0  0  0  0
    1.9516    1.5774   -0.3322 O   0  0  0  0  0  0  0  0  0  0  0  0
    4.2607    0.9608   -0.1417 C   0  0  0  0  0  0  0  0  0  0  0  0
    4.6747    2.2790   -0.3689 C   0  0  0  0  0  0  0  0  0  0  0  0
    6.0342    2.6090   -0.3679 C   0  0  0  0  0  0  0  0  0  0  0  0
    6.9953    1.6237   -0.1399 C   0  0  0  0  0  0  0  0  0  0  0  0
    6.5981    0.3084    0.0860 C   0  0  0  0  0  0  0  0  0  0  0  0
    5.2381   -0.0015    0.0814 C   0  0  0  0  0  0  0  0  0  0  0  0
    4.8883   -1.3423    0.3027 O   0  0  0  0  0  0  0  0  0  0  0  0
    3.5658   -1.7646    0.2751 C   0  0  0  0  0  0  0  0  0  0  0  0
    3.3012   -2.9587    0.3656 O   0  0  0  0  0  0  0  0  0  0  0  0
   -2.6106   -2.0998   -0.0637 C   0  0  0  0  0  0  0  0  0  0  0  0
   -3.7534   -1.3957   -0.4737 C   0  0  0  0  0  0  0  0  0  0  0  0
   -5.6014    0.0258   -2.2707 H   0  0  0  0  0  0  0  0  0  0  0  0
   -7.0610    0.5471   -1.4148 H   0  0  0  0  0  0  0  0  0  0  0  0
   -6.4425   -1.0642   -1.1234 H   0  0  0  0  0  0  0  0  0  0  0  0
   -5.0695    2.3423    0.8101 H   0  0  0  0  0  0  0  0  0  0  0  0
   -4.3420    2.2806   -0.8220 H   0  0  0  0  0  0  0  0  0  0  0  0
   -6.0907    2.4304   -0.6054 H   0  0  0  0  0  0  0  0  0  0  0  0
   -3.7070    1.0585    1.8586 H   0  0  0  0  0  0  0  0  0  0  0  0
   -1.7143   -0.1402    2.5549 H   0  0  0  0  0  0  0  0  0  0  0  0
   -0.8800   -3.2011    2.1412 H   0  0  0  0  0  0  0  0  0  0  0  0
    1.3651   -2.7409    1.5826 H   0  0  0  0  0  0  0  0  0  0  0  0
    1.0604    1.1871   -0.4877 H   0  0  0  0  0  0  0  0  0  0  0  0
    3.9421    3.0640   -0.5462 H   0  0  0  0  0  0  0  0  0  0  0  0
    6.3411    3.6373   -0.5457 H   0  0  0  0  0  0  0  0  0  0  0  0
    8.0510    1.8821   -0.1409 H   0  0  0  0  0  0  0  0  0  0  0  0
    7.3391   -0.4667    0.2603 H   0  0  0  0  0  0  0  0  0  0  0  0
   -2.3155   -2.9927   -0.6083 H   0  0  0  0  0  0  0  0  0  0  0  0
   -4.2883   -1.7894   -1.3323 H   0  0  0  0  0  0  0  0  0  0  0  0
  1  2  1  0
  2  3  1  0
  2  4  1  0
  4  5  2  0
  5  6  1  0
  6  7  2  0
  7  8  1  0
  8  9  2  3
  9 10  1  0
 10 11  2  0
 10 12  1  0
 12 13  2  0
 13 14  1  0
 13 15  1  0
 15 16  2  0
 16 17  1  0
 17 18  2  0
 18 19  1  0
 19 20  2  0
 20 21  1  0
 21 22  1  0
 22 23  2  0
  7 24  1  0
 24 25  2  0
 25  4  1  0
 22 12  1  0
 20 15  1  0
  1 26  1  0
  1 27  1  0
  1 28  1  0
  3 29  1  0
  3 30  1  0
  3 31  1  0
  5 32  1  0
  6 33  1  0
  8 34  1  0
  9 35  1  0
 14 36  1  0
 16 37  1  0
 17 38  1  0
 18 39  1  0
 19 40  1  0
 24 41  1  0
 25 42  1  0
M  END
$$$$
