
     RDKit          3D

 44 46  0  0  0  0  0  0  0  0999 V2000
    2.8595   -1.8857    2.3964 O   0  0  0  0  0  0  0  0  0  0  0  0
    1.9968   -1.2390    1.8033 C   0  0  0  0  0  0  0  0  0  0  0  0
    0.5368   -1.6667    1.7309 C   0  0  0  0  0  0  0  0  0  0  0  0
   -0.0917   -1.1148    0.5691 O   0  0  0  0  0  0  0  0  0  0  0  0
   -1.4061   -1.4538    0.4437 C   0  0  0  0  0  0  0  0  0  0  0  0
   -2.0057   -2.2029    1.2037 O   0  0  0  0  0  0  0  0  0  0  0  0
   -1.9927   -0.8280   -0.8117 C   0  0  0  0  0  0  0  0  0  0  0  0
   -3.4160   -0.5915   -0.6255 N   0  0  0  0  0  0  0  0  0  0  0  0
   -4.3343   -1.5302   -1.0267 C   0  0  0  0  0  0  0  0  0  0  0  0
   -5.6122   -1.4167   -0.8937 N   0  0  0  0  0  0  0  0  0  0  0  0
   -6.1010   -0.2559   -0.2754 C   0  0  0  0  0  0  0  0  0  0  0  0
   -7.4808   -0.0993   -0.1281 C   0  0  0  0  0  0  0  0  0  0  0  0
   -8.0064    1.0401    0.4889 C   0  0  0  0  0  0  0  0  0  0  0  0
   -7.1530    2.0355    0.9655 C   0  0  0  0  0  0  0  0  0  0  0  0
   -5.7731    1.8925    0.8256 C   0  0  0  0  0  0  0  0  0  0  0  0
   -5.2587    0.7482    0.2057 C   0  0  0  0  0  0  0  0  0  0  0  0
   -3.8055    0.5618    0.0376 C   0  0  0  0  0  0  0  0  0  0  0  0
   -3.0118    1.3889    0.4782 O   0  0  0  0  0  0  0  0  0  0  0  0
    2.2648   -0.0325    1.1811 N   0  0  0  0  0  0  0  0  0  0  0  0
    3.6224    0.2645    0.9386 N   0  0  0  0  0  0  0  0  0  0  0  0
    3.9639    0.5335   -0.3759 C   0  0  0  0  0  0  0  0  0  0  0  0
    3.1202    0.6908   -1.2559 O   0  0  0  0  0  0  0  0  0  0  0  0
    5.4189    0.5850   -0.6911 C   0  0  0  0  0  0  0  0  0  0  0  0
    5.8162    0.3985   -2.0228 C   0  0  0  0  0  0  0  0  0  0  0  0
    7.1695    0.4390   -2.3687 C   0  0  0  0  0  0  0  0  0  0  0  0
    8.1264    0.6743   -1.3835 C   0  0  0  0  0  0  0  0  0  0  0  0
    9.9573    0.7315   -1.8485 Br  0  0  0  0  0  0  0  0  0  0  0  0
    7.7429    0.8753   -0.0579 C   0  0  0  0  0  0  0  0  0  0  0  0
    6.3887    0.8345    0.2901 C   0  0  0  0  0  0  0  0  0  0  0  0
    0.0356   -1.3121    2.6381 H   0  0  0  0  0  0  0  0  0  0  0  0
    0.5112   -2.7606    1.6741 H   0  0  0  0  0  0  0  0  0  0  0  0
   -1.8256   -1.5138   -1.6484 H   0  0  0  0  0  0  0  0  0  0  0  0
   -1.4913    0.1237   -1.0165 H   0  0  0  0  0  0  0  0  0  0  0  0
   -3.9045   -2.4280   -1.4991 H   0  0  0  0  0  0  0  0  0  0  0  0
   -8.1489   -0.8743   -0.4952 H   0  0  0  0  0  0  0  0  0  0  0  0
   -9.0830    1.1474    0.5981 H   0  0  0  0  0  0  0  0  0  0  0  0
   -7.5630    2.9202    1.4469 H   0  0  0  0  0  0  0  0  0  0  0  0
   -5.1045    2.6653    1.1971 H   0  0  0  0  0  0  0  0  0  0  0  0
    1.6256    0.2727    0.4432 H   0  0  0  0  0  0  0  0  0  0  0  0
    4.2767   -0.2227    1.5507 H   0  0  0  0  0  0  0  0  0  0  0  0
    5.0717    0.2193   -2.7967 H   0  0  0  0  0  0  0  0  0  0  0  0
    7.4627    0.2896   -3.4048 H   0  0  0  0  0  0  0  0  0  0  0  0
    8.4884    1.0721    0.7091 H   0  0  0  0  0  0  0  0  0  0  0  0
    6.1138    1.0243    1.3241 H   0  0  0  0  0  0  0  0  0  0  0  0
  1  2  2  0
  2  3  1  0
  3  4  1  0
  4  5  1  0
  5  6  2  0
  5  7  1  0
  7  8  1  0
  8  9  1  0
  9 10  2  0
 10 11  1  0
 11 12  2  0
 12 13  1  0
 13 14  2  0
 14 15  1  0
 15 16  2  0
 16 17  1  0
 17 18  2  0
  2 19  1  0
 19 20  1  0
 20 21  1  0
 21 22  2  0
 21 23  1  0
 23 24  2  0
 24 25  1  0
 25 26  2  0
 26 27  1  0
 26 28  1  0
 28 29  2  0
 17  8  1  0
 29 23  1  0
 16 11  1  0
  3 30  1  0
  3 31  1  0
  7 32  1  0
  7 33  1  0
  9 34  1  0
 12 35  1  0
 13 36  1  0
 14 37  1  0
 15 38  1  0
 19 39  1  0
 20 40  1  0
 24 41  1  0
 25 42  1  0
 28 43  1  0
 29 44  1  0
M  END
$$$$
