
     RDKit          3D

 61 63  0  0  0  0  0  0  0  0999 V2000
   -6.0713   -3.6459    3.3110 C   0  0  0  0  0  0  0  0  0  0  0  0
   -5.3118   -2.5284    2.6075 C   0  0  0  0  0  0  0  0  0  0  0  0
   -5.1867   -2.8044    1.1014 C   0  0  0  0  0  0  0  0  0  0  0  0
   -4.5911   -1.6893    0.3309 N   0  0  0  0  0  0  0  0  0  0  0  0
   -4.7296   -1.9608   -1.1181 C   0  0  0  0  0  0  0  0  0  0  0  0
   -5.1821   -0.7238   -1.9057 C   0  0  0  0  0  0  0  0  0  0  0  0
   -6.5438   -0.2008   -1.4669 C   0  0  0  0  0  0  0  0  0  0  0  0
   -3.1768   -1.4717    0.7173 C   0  0  0  0  0  0  0  0  0  0  0  0
   -2.4891   -0.2702    0.0300 C   0  0  0  0  0  0  0  0  0  0  0  0
   -1.2156    0.1150    0.7001 N   0  0  0  0  0  0  0  0  0  0  0  0
    0.0055   -1.0538    0.7343 S   0  0  0  0  0  6  0  0  0  0  0  0
   -0.1561   -1.9333   -0.4012 O   0  0  0  0  0  0  0  0  0  0  0  0
    0.0453   -1.5477    2.0920 O   0  0  0  0  0  0  0  0  0  0  0  0
    1.4435   -0.0506    0.4631 C   0  0  0  0  0  0  0  0  0  0  0  0
    2.0476   -0.0267   -0.8038 C   0  0  0  0  0  0  0  0  0  0  0  0
    3.1922    0.7507   -1.0279 C   0  0  0  0  0  0  0  0  0  0  0  0
    3.7194    1.4870    0.0200 C   0  0  0  0  0  0  0  0  0  0  0  0
    3.0958    1.4616    1.2765 C   0  0  0  0  0  0  0  0  0  0  0  0
    1.9715    0.6864    1.5250 C   0  0  0  0  0  0  0  0  0  0  0  0
    3.8240    2.3198    2.2633 C   0  0  0  0  0  0  0  0  0  0  0  0
    4.7801    3.0834    1.3468 C   0  0  0  0  0  0  0  0  0  0  0  0
    4.8190    2.3623    0.0648 N   0  0  0  0  0  0  0  0  0  0  0  0
    5.7877    2.6948   -0.8761 C   0  0  0  0  0  0  0  0  0  0  0  0
    6.5085    3.6870   -0.6773 O   0  0  0  0  0  0  0  0  0  0  0  0
    6.0022    1.7915   -2.1153 C   0  0  0  0  0  0  0  0  0  0  0  0
    5.4507    2.2985   -3.4796 C   0  0  0  0  0  0  0  0  0  0  0  0
    6.6915    1.6758   -4.1443 C   0  0  0  0  0  0  0  0  0  0  0  0
    7.4081    1.8379   -2.7921 C   0  0  0  0  0  0  0  0  0  0  0  0
   -5.5612   -4.6065    3.1829 H   0  0  0  0  0  0  0  0  0  0  0  0
   -7.0882   -3.7393    2.9164 H   0  0  0  0  0  0  0  0  0  0  0  0
   -6.1410   -3.4389    4.3842 H   0  0  0  0  0  0  0  0  0  0  0  0
   -5.8375   -1.5796    2.7731 H   0  0  0  0  0  0  0  0  0  0  0  0
   -4.3248   -2.4464    3.0757 H   0  0  0  0  0  0  0  0  0  0  0  0
   -6.2056   -2.9767    0.7284 H   0  0  0  0  0  0  0  0  0  0  0  0
   -4.6225   -3.7313    0.9352 H   0  0  0  0  0  0  0  0  0  0  0  0
   -3.7972   -2.3557   -1.5431 H   0  0  0  0  0  0  0  0  0  0  0  0
   -5.4802   -2.7413   -1.3033 H   0  0  0  0  0  0  0  0  0  0  0  0
   -5.2382   -0.9928   -2.9682 H   0  0  0  0  0  0  0  0  0  0  0  0
   -4.4478    0.0834   -1.8321 H   0  0  0  0  0  0  0  0  0  0  0  0
   -6.8408    0.6466   -2.0932 H   0  0  0  0  0  0  0  0  0  0  0  0
   -6.5278    0.1418   -0.4277 H   0  0  0  0  0  0  0  0  0  0  0  0
   -7.3094   -0.9761   -1.5652 H   0  0  0  0  0  0  0  0  0  0  0  0
   -3.1258   -1.2747    1.7946 H   0  0  0  0  0  0  0  0  0  0  0  0
   -2.5980   -2.3880    0.5400 H   0  0  0  0  0  0  0  0  0  0  0  0
   -2.2965   -0.4569   -1.0330 H   0  0  0  0  0  0  0  0  0  0  0  0
   -3.1469    0.6067    0.0982 H   0  0  0  0  0  0  0  0  0  0  0  0
   -1.3933    0.4210    1.6601 H   0  0  0  0  0  0  0  0  0  0  0  0
    1.6278   -0.6048   -1.6258 H   0  0  0  0  0  0  0  0  0  0  0  0
    3.6060    0.7635   -2.0259 H   0  0  0  0  0  0  0  0  0  0  0  0
    1.5198    0.6579    2.5122 H   0  0  0  0  0  0  0  0  0  0  0  0
    3.1593    2.9962    2.8079 H   0  0  0  0  0  0  0  0  0  0  0  0
    4.3766    1.6909    2.9696 H   0  0  0  0  0  0  0  0  0  0  0  0
    4.4128    4.0982    1.1467 H   0  0  0  0  0  0  0  0  0  0  0  0
    5.7851    3.1638    1.7777 H   0  0  0  0  0  0  0  0  0  0  0  0
    5.7592    0.7413   -1.9081 H   0  0  0  0  0  0  0  0  0  0  0  0
    4.4956    1.8799   -3.8048 H   0  0  0  0  0  0  0  0  0  0  0  0
    5.4030    3.3901   -3.5673 H   0  0  0  0  0  0  0  0  0  0  0  0
    6.5533    0.6312   -4.4461 H   0  0  0  0  0  0  0  0  0  0  0  0
    7.1178    2.2360   -4.9796 H   0  0  0  0  0  0  0  0  0  0  0  0
    7.9395    2.7915   -2.6918 H   0  0  0  0  0  0  0  0  0  0  0  0
    8.0885    1.0245   -2.5237 H   0  0  0  0  0  0  0  0  0  0  0  0
  1  2  1  0
  2  3  1  0
  3  4  1  0
  4  5  1  0
  5  6  1  0
  6  7  1  0
  4  8  1  0
  8  9  1  0
  9 10  1  0
 10 11  1  0
 11 12  2  0
 11 13  2  0
 11 14  1  0
 14 15  2  0
 15 16  1  0
 16 17  2  0
 17 18  1  0
 18 19  2  0
 18 20  1  0
 20 21  1  0
 21 22  1  0
 22 23  1  0
 23 24  2  0
 23 25  1  0
 25 26  1  0
 26 27  1  0
 27 28  1  0
 19 14  1  0
 28 25  1  0
 22 17  1  0
  1 29  1  0
  1 30  1  0
  1 31  1  0
  2 32  1  0
  2 33  1  0
  3 34  1  0
  3 35  1  0
  5 36  1  0
  5 37  1  0
  6 38  1  0
  6 39  1  0
  7 40  1  0
  7 41  1  0
  7 42  1  0
  8 43  1  0
  8 44  1  0
  9 45  1  0
  9 46  1  0
 10 47  1  0
 15 48  1  0
 16 49  1  0
 19 50  1  0
 20 51  1  0
 20 52  1  0
 21 53  1  0
 21 54  1  0
 25 55  1  0
 26 56  1  0
 26 57  1  0
 27 58  1  0
 27 59  1  0
 28 60  1  0
 28 61  1  0
M  END
$$$$
