
     RDKit          3D

 48 50  0  0  0  0  0  0  0  0999 V2000
    6.9775   -1.8350   -0.1790 C   0  0  0  0  0  0  0  0  0  0  0  0
    7.1353   -0.5424    0.6063 C   0  0  0  0  0  0  0  0  0  0  0  0
    6.5590    0.6821   -0.1116 C   0  0  0  0  0  0  0  0  0  0  0  0
    5.0507    0.6226   -0.3556 C   0  0  0  0  0  0  0  0  0  0  0  0
    4.3847    0.4696    0.8968 O   0  0  0  0  0  0  0  0  0  0  0  0
    3.0232    0.3584    0.8676 C   0  0  0  0  0  0  0  0  0  0  0  0
    2.2138    0.4467   -0.2613 C   0  0  0  0  0  0  0  0  0  0  0  0
    0.8220    0.3144   -0.1459 C   0  0  0  0  0  0  0  0  0  0  0  0
    0.2109    0.0765    1.0896 C   0  0  0  0  0  0  0  0  0  0  0  0
   -1.1844   -0.0200    1.2618 N   0  0  0  0  0  0  0  0  0  0  0  0
   -2.1293   -0.3392    0.3225 C   0  0  0  0  0  0  0  0  0  0  0  0
   -1.9165   -0.7177   -0.8911 N   0  0  0  0  0  0  0  0  0  0  0  0
   -2.9838   -1.0640   -1.6543 C   0  0  0  0  0  0  0  0  0  0  0  0
   -2.7042   -1.7009   -2.8181 N   0  0  0  0  0  0  0  0  0  0  0  0
   -4.2172   -0.8627   -1.3474 N   0  0  0  0  0  0  0  0  0  0  0  0
   -4.4491   -0.1458   -0.1074 C   0  0  0  0  0  0  0  0  0  0  0  0
   -5.7482   -0.6572    0.5222 C   0  0  0  0  0  0  0  0  0  0  0  0
   -6.8682    0.0137   -0.2711 C   0  0  0  0  0  0  0  0  0  0  0  0
   -6.2578    1.2660   -0.8979 C   0  0  0  0  0  0  0  0  0  0  0  0
   -4.8066    1.3123   -0.4261 C   0  0  0  0  0  0  0  0  0  0  0  0
   -3.3776   -0.2243    0.8483 N   0  0  0  0  0  0  0  0  0  0  0  0
    1.0379    0.0180    2.2209 C   0  0  0  0  0  0  0  0  0  0  0  0
    2.4265    0.1491    2.1096 C   0  0  0  0  0  0  0  0  0  0  0  0
    7.4037   -1.7401   -1.1827 H   0  0  0  0  0  0  0  0  0  0  0  0
    7.4964   -2.6514    0.3336 H   0  0  0  0  0  0  0  0  0  0  0  0
    5.9257   -2.1203   -0.2739 H   0  0  0  0  0  0  0  0  0  0  0  0
    6.6719   -0.6572    1.5928 H   0  0  0  0  0  0  0  0  0  0  0  0
    8.2039   -0.3687    0.7812 H   0  0  0  0  0  0  0  0  0  0  0  0
    7.0739    0.8251   -1.0688 H   0  0  0  0  0  0  0  0  0  0  0  0
    6.7780    1.5611    0.5075 H   0  0  0  0  0  0  0  0  0  0  0  0
    4.8133   -0.2130   -1.0237 H   0  0  0  0  0  0  0  0  0  0  0  0
    4.7397    1.5622   -0.8282 H   0  0  0  0  0  0  0  0  0  0  0  0
    2.6227    0.6264   -1.2496 H   0  0  0  0  0  0  0  0  0  0  0  0
    0.2244    0.4144   -1.0482 H   0  0  0  0  0  0  0  0  0  0  0  0
   -1.4503   -0.2797    2.2011 H   0  0  0  0  0  0  0  0  0  0  0  0
   -1.8209   -2.1900   -2.7693 H   0  0  0  0  0  0  0  0  0  0  0  0
   -3.4801   -2.2703   -3.1262 H   0  0  0  0  0  0  0  0  0  0  0  0
   -5.8348   -1.7491    0.4955 H   0  0  0  0  0  0  0  0  0  0  0  0
   -5.8211   -0.3501    1.5740 H   0  0  0  0  0  0  0  0  0  0  0  0
   -7.2358   -0.6555   -1.0574 H   0  0  0  0  0  0  0  0  0  0  0  0
   -7.7187    0.2565    0.3742 H   0  0  0  0  0  0  0  0  0  0  0  0
   -6.8000    2.1720   -0.6089 H   0  0  0  0  0  0  0  0  0  0  0  0
   -6.3016    1.1937   -1.9909 H   0  0  0  0  0  0  0  0  0  0  0  0
   -4.7424    1.9390    0.4730 H   0  0  0  0  0  0  0  0  0  0  0  0
   -4.1522    1.7598   -1.1823 H   0  0  0  0  0  0  0  0  0  0  0  0
   -3.4541    0.4604    1.5887 H   0  0  0  0  0  0  0  0  0  0  0  0
    0.6130   -0.1372    3.2091 H   0  0  0  0  0  0  0  0  0  0  0  0
    3.0464    0.0894    3.0007 H   0  0  0  0  0  0  0  0  0  0  0  0
  1  2  1  0
  2  3  1  0
  3  4  1  0
  4  5  1  0
  5  6  1  0
  6  7  2  0
  7  8  1  0
  8  9  2  0
  9 10  1  0
 10 11  1  0
 11 12  2  0
 12 13  1  0
 13 14  1  0
 13 15  2  0
 15 16  1  0
 16 17  1  0
 17 18  1  0
 18 19  1  0
 19 20  1  0
 16 21  1  0
  9 22  1  0
 22 23  2  0
 23  6  1  0
 21 11  1  0
 20 16  1  0
  1 24  1  0
  1 25  1  0
  1 26  1  0
  2 27  1  0
  2 28  1  0
  3 29  1  0
  3 30  1  0
  4 31  1  0
  4 32  1  0
  7 33  1  0
  8 34  1  0
 10 35  1  0
 14 36  1  0
 14 37  1  0
 17 38  1  0
 17 39  1  0
 18 40  1  0
 18 41  1  0
 19 42  1  0
 19 43  1  0
 20 44  1  0
 20 45  1  0
 21 46  1  0
 22 47  1  0
 23 48  1  0
M  END
$$$$
