
     RDKit          3D

 50 52  0  0  0  0  0  0  0  0999 V2000
   -8.7895    0.2656    1.2154 C   0  0  0  0  0  0  0  0  0  0  0  0
   -8.0374    0.1293    0.0181 O   0  0  0  0  0  0  0  0  0  0  0  0
   -6.6687    0.1612    0.1160 C   0  0  0  0  0  0  0  0  0  0  0  0
   -5.9664    0.3252    1.3144 C   0  0  0  0  0  0  0  0  0  0  0  0
   -4.5702    0.3490    1.3145 C   0  0  0  0  0  0  0  0  0  0  0  0
   -3.8652    0.2208    0.1151 C   0  0  0  0  0  0  0  0  0  0  0  0
   -2.3800    0.2578    0.1656 C   0  0  0  0  0  0  0  0  0  0  0  0
   -1.7855   -0.1677    1.1518 O   0  0  0  0  0  0  0  0  0  0  0  0
   -1.7461    0.8339   -0.9277 N   0  0  0  0  0  0  0  0  0  0  0  0
   -0.3872    0.9498   -1.1950 C   0  0  0  0  0  0  0  0  0  0  0  0
   -0.0113    1.7292   -2.6228 S   0  0  0  0  0  0  0  0  0  0  0  0
    0.4303    0.4004   -0.2372 N   0  0  0  0  0  0  0  0  0  0  0  0
    1.8283    0.2561   -0.1077 C   0  0  0  0  0  0  0  0  0  0  0  0
    2.2803   -0.3264    1.0800 C   0  0  0  0  0  0  0  0  0  0  0  0
    3.6489   -0.5237    1.3209 C   0  0  0  0  0  0  0  0  0  0  0  0
    4.6268   -0.1535    0.3912 C   0  0  0  0  0  0  0  0  0  0  0  0
    5.9665   -0.3461    0.6248 N   0  0  0  0  0  0  0  0  0  0  0  0
    7.0171   -0.0958   -0.3588 C   0  0  0  0  0  0  0  0  0  0  0  0
    8.2600   -0.7270    0.2636 C   0  0  0  0  0  0  0  0  0  0  0  0
    8.0212   -0.5558    1.7533 C   0  0  0  0  0  0  0  0  0  0  0  0
    6.5223   -0.8097    1.8936 C   0  0  0  0  0  0  0  0  0  0  0  0
    4.1526    0.4234   -0.7943 C   0  0  0  0  0  0  0  0  0  0  0  0
    2.7826    0.6260   -1.0448 C   0  0  0  0  0  0  0  0  0  0  0  0
   -4.5583    0.0346   -1.0884 C   0  0  0  0  0  0  0  0  0  0  0  0
   -5.9583    0.0079   -1.0941 C   0  0  0  0  0  0  0  0  0  0  0  0
   -6.7242   -0.1619   -2.2211 O   0  0  0  0  0  0  0  0  0  0  0  0
   -6.0591   -0.3929   -3.4546 C   0  0  0  0  0  0  0  0  0  0  0  0
   -8.6099    1.2378    1.6861 H   0  0  0  0  0  0  0  0  0  0  0  0
   -8.5806   -0.5555    1.9089 H   0  0  0  0  0  0  0  0  0  0  0  0
   -9.8503    0.2155    0.9515 H   0  0  0  0  0  0  0  0  0  0  0  0
   -6.4751    0.4351    2.2666 H   0  0  0  0  0  0  0  0  0  0  0  0
   -4.0359    0.4727    2.2552 H   0  0  0  0  0  0  0  0  0  0  0  0
   -2.3180    1.2702   -1.6380 H   0  0  0  0  0  0  0  0  0  0  0  0
   -0.0931    0.0396    0.5629 H   0  0  0  0  0  0  0  0  0  0  0  0
    1.5752   -0.6404    1.8466 H   0  0  0  0  0  0  0  0  0  0  0  0
    3.9290   -0.9880    2.2618 H   0  0  0  0  0  0  0  0  0  0  0  0
    7.1597    0.9828   -0.4915 H   0  0  0  0  0  0  0  0  0  0  0  0
    6.8064   -0.5571   -1.3296 H   0  0  0  0  0  0  0  0  0  0  0  0
    8.3059   -1.7937    0.0130 H   0  0  0  0  0  0  0  0  0  0  0  0
    9.1852   -0.2545   -0.0776 H   0  0  0  0  0  0  0  0  0  0  0  0
    8.6203   -1.2379    2.3629 H   0  0  0  0  0  0  0  0  0  0  0  0
    8.2583    0.4720    2.0536 H   0  0  0  0  0  0  0  0  0  0  0  0
    6.1268   -0.2608    2.7550 H   0  0  0  0  0  0  0  0  0  0  0  0
    6.3242   -1.8800    2.0223 H   0  0  0  0  0  0  0  0  0  0  0  0
    4.8478    0.7433   -1.5658 H   0  0  0  0  0  0  0  0  0  0  0  0
    2.5261    1.0731   -1.9948 H   0  0  0  0  0  0  0  0  0  0  0  0
   -4.0016   -0.1165   -2.0059 H   0  0  0  0  0  0  0  0  0  0  0  0
   -5.4586   -1.3076   -3.4146 H   0  0  0  0  0  0  0  0  0  0  0  0
   -6.8227   -0.5297   -4.2263 H   0  0  0  0  0  0  0  0  0  0  0  0
   -5.4485    0.4698   -3.7402 H   0  0  0  0  0  0  0  0  0  0  0  0
  1  2  1  0
  2  3  1  0
  3  4  2  0
  4  5  1  0
  5  6  2  0
  6  7  1  0
  7  8  2  0
  7  9  1  0
  9 10  1  0
 10 11  2  0
 10 12  1  0
 12 13  1  0
 13 14  2  0
 14 15  1  0
 15 16  2  0
 16 17  1  0
 17 18  1  0
 18 19  1  0
 19 20  1  0
 20 21  1  0
 16 22  1  0
 22 23  2  0
  6 24  1  0
 24 25  2  0
 25 26  1  0
 26 27  1  0
 25  3  1  0
 23 13  1  0
 21 17  1  0
  1 28  1  0
  1 29  1  0
  1 30  1  0
  4 31  1  0
  5 32  1  0
  9 33  1  0
 12 34  1  0
 14 35  1  0
 15 36  1  0
 18 37  1  0
 18 38  1  0
 19 39  1  0
 19 40  1  0
 20 41  1  0
 20 42  1  0
 21 43  1  0
 21 44  1  0
 22 45  1  0
 23 46  1  0
 24 47  1  0
 27 48  1  0
 27 49  1  0
 27 50  1  0
M  END
$$$$
