
     RDKit          3D

 37 38  0  0  0  0  0  0  0  0999 V2000
   -2.7563    0.4345    1.6886 C   0  0  0  0  0  0  0  0  0  0  0  0
   -3.5726   -0.3064    0.6214 C   0  0  0  0  0  0  0  0  0  0  0  0
   -4.6143    0.6448    0.0409 C   0  0  0  0  0  0  0  0  0  0  0  0
   -2.6513   -1.0300   -0.4025 C   0  0  0  0  0  0  0  0  0  0  0  0
   -3.2920   -2.0843   -1.3094 C   0  0  0  0  0  0  0  0  0  0  0  0
   -2.7518   -2.6248   -2.2639 O   0  0  0  0  0  0  0  0  0  0  0  0
   -4.5321   -2.4594   -0.9444 O   0  0  0  0  0  0  0  0  0  0  0  0
   -1.6932   -0.1762   -1.1467 N   0  0  0  0  0  0  0  0  0  0  0  0
   -0.3871   -0.1197   -0.6721 C   0  0  0  0  0  0  0  0  0  0  0  0
    0.0311   -0.7219    0.3073 O   0  0  0  0  0  0  0  0  0  0  0  0
    0.4461    0.7961   -1.5007 C   0  0  0  0  0  0  0  0  0  0  0  0
    1.7467    1.1005   -1.3689 C   0  0  0  0  0  0  0  0  0  0  0  0
    2.6762    0.6017   -0.3745 C   0  0  0  0  0  0  0  0  0  0  0  0
    3.9645    0.9785   -0.3374 C   0  0  0  0  0  0  0  0  0  0  0  0
    4.8540    0.4721    0.6513 C   0  0  0  0  0  0  0  0  0  0  0  0
    6.2053    0.7532    0.8239 C   0  0  0  0  0  0  0  0  0  0  0  0
    6.6681    0.0148    1.9389 C   0  0  0  0  0  0  0  0  0  0  0  0
    5.5826   -0.6840    2.3991 C   0  0  0  0  0  0  0  0  0  0  0  0
    4.4936   -0.4193    1.6391 O   0  0  0  0  0  0  0  0  0  0  0  0
   -0.5273    1.4846   -2.7443 S   0  0  0  0  0  0  0  0  0  0  0  0
   -1.9623    0.5819   -2.2699 C   0  0  0  0  0  0  0  0  0  0  0  0
   -3.3592    0.6998   -3.1759 S   0  0  0  0  0  0  0  0  0  0  0  0
   -2.0480   -0.2408    2.1795 H   0  0  0  0  0  0  0  0  0  0  0  0
   -3.4140    0.8400    2.4653 H   0  0  0  0  0  0  0  0  0  0  0  0
   -2.1953    1.2707    1.2586 H   0  0  0  0  0  0  0  0  0  0  0  0
   -4.1350   -1.0872    1.1524 H   0  0  0  0  0  0  0  0  0  0  0  0
   -4.1536    1.5449   -0.3754 H   0  0  0  0  0  0  0  0  0  0  0  0
   -5.2231    0.1579   -0.7254 H   0  0  0  0  0  0  0  0  0  0  0  0
   -5.3014    0.9771    0.8280 H   0  0  0  0  0  0  0  0  0  0  0  0
   -2.0410   -1.6858    0.2376 H   0  0  0  0  0  0  0  0  0  0  0  0
   -4.7865   -3.1313   -1.6131 H   0  0  0  0  0  0  0  0  0  0  0  0
    2.1781    1.8028   -2.0832 H   0  0  0  0  0  0  0  0  0  0  0  0
    2.3073   -0.1057    0.3660 H   0  0  0  0  0  0  0  0  0  0  0  0
    4.3639    1.6811   -1.0623 H   0  0  0  0  0  0  0  0  0  0  0  0
    6.7885    1.4216    0.2054 H   0  0  0  0  0  0  0  0  0  0  0  0
    7.6659   -0.0048    2.3531 H   0  0  0  0  0  0  0  0  0  0  0  0
    5.4255   -1.3768    3.2139 H   0  0  0  0  0  0  0  0  0  0  0  0
  1  2  1  0
  2  3  1  0
  2  4  1  0
  4  5  1  0
  5  6  2  0
  5  7  1  0
  4  8  1  0
  8  9  1  0
  9 10  2  0
  9 11  1  0
 11 12  2  3
 12 13  1  0
 13 14  2  3
 14 15  1  0
 15 16  2  0
 16 17  1  0
 17 18  2  0
 18 19  1  0
 11 20  1  0
 20 21  1  0
 21 22  2  0
 21  8  1  0
 19 15  1  0
  1 23  1  0
  1 24  1  0
  1 25  1  0
  2 26  1  0
  3 27  1  0
  3 28  1  0
  3 29  1  0
  4 30  1  0
  7 31  1  0
 12 32  1  0
 13 33  1  0
 14 34  1  0
 16 35  1  0
 17 36  1  0
 18 37  1  0
M  END
$$$$
