
     RDKit          3D

 42 44  0  0  0  0  0  0  0  0999 V2000
   -2.4484   -2.6865    0.5619 C   0  0  0  0  0  0  0  0  0  0  0  0
   -3.2071   -1.5845   -0.1592 C   0  0  0  0  0  0  0  0  0  0  0  0
   -2.4209   -0.3877   -0.3735 N   0  0  0  0  0  0  0  0  0  0  0  0
   -1.5329   -0.1471   -1.3854 C   0  0  0  0  0  0  0  0  0  0  0  0
   -1.0620   -1.3103   -2.5741 S   0  0  0  0  0  0  0  0  0  0  0  0
    0.7166   -0.9335   -2.6630 C   0  0  0  0  0  0  0  0  0  0  0  0
    1.4231   -1.2195   -1.3455 C   0  0  0  0  0  0  0  0  0  0  0  0
    0.9943   -2.0120   -0.5054 O   0  0  0  0  0  0  0  0  0  0  0  0
    2.7217   -0.5307   -1.0789 C   0  0  0  0  0  0  0  0  0  0  0  0
    3.4703    0.0760   -2.0937 C   0  0  0  0  0  0  0  0  0  0  0  0
    4.6836    0.7031   -1.7914 C   0  0  0  0  0  0  0  0  0  0  0  0
    5.1605    0.7384   -0.4758 C   0  0  0  0  0  0  0  0  0  0  0  0
    6.4762    1.3881   -0.1626 C   0  0  0  0  0  0  0  0  0  0  0  0
    4.4215    0.1110    0.5326 C   0  0  0  0  0  0  0  0  0  0  0  0
    3.2097   -0.5163    0.2340 C   0  0  0  0  0  0  0  0  0  0  0  0
   -1.0854    1.0825   -1.3102 N   0  0  0  0  0  0  0  0  0  0  0  0
   -1.6950    1.6776   -0.2347 N   0  0  0  0  0  0  0  0  0  0  0  0
   -2.4826    0.7900    0.3463 C   0  0  0  0  0  0  0  0  0  0  0  0
   -3.3134    1.0497    1.5152 C   0  0  0  0  0  0  0  0  0  0  0  0
   -4.2813    2.0536    1.4622 C   0  0  0  0  0  0  0  0  0  0  0  0
   -5.0575    2.2802    2.5853 C   0  0  0  0  0  0  0  0  0  0  0  0
   -4.9289    1.5874    3.7367 N   0  0  0  0  0  0  0  0  0  0  0  0
   -3.9657    0.6431    3.7749 C   0  0  0  0  0  0  0  0  0  0  0  0
   -3.1406    0.3414    2.7045 C   0  0  0  0  0  0  0  0  0  0  0  0
   -3.1112   -3.5366    0.7513 H   0  0  0  0  0  0  0  0  0  0  0  0
   -2.0524   -2.3426    1.5215 H   0  0  0  0  0  0  0  0  0  0  0  0
   -1.6040   -3.0486   -0.0317 H   0  0  0  0  0  0  0  0  0  0  0  0
   -4.1022   -1.3135    0.4099 H   0  0  0  0  0  0  0  0  0  0  0  0
   -3.5614   -1.9369   -1.1341 H   0  0  0  0  0  0  0  0  0  0  0  0
    0.8327    0.1153   -2.9495 H   0  0  0  0  0  0  0  0  0  0  0  0
    1.1626   -1.5659   -3.4365 H   0  0  0  0  0  0  0  0  0  0  0  0
    3.1444    0.0680   -3.1293 H   0  0  0  0  0  0  0  0  0  0  0  0
    5.2569    1.1666   -2.5921 H   0  0  0  0  0  0  0  0  0  0  0  0
    6.6483    2.2514   -0.8142 H   0  0  0  0  0  0  0  0  0  0  0  0
    6.4974    1.7515    0.8699 H   0  0  0  0  0  0  0  0  0  0  0  0
    7.2903    0.6701   -0.3013 H   0  0  0  0  0  0  0  0  0  0  0  0
    4.7811    0.1084    1.5594 H   0  0  0  0  0  0  0  0  0  0  0  0
    2.6457   -0.9917    1.0344 H   0  0  0  0  0  0  0  0  0  0  0  0
   -4.4250    2.6502    0.5668 H   0  0  0  0  0  0  0  0  0  0  0  0
   -5.8242    3.0499    2.5896 H   0  0  0  0  0  0  0  0  0  0  0  0
   -3.8663    0.1218    4.7227 H   0  0  0  0  0  0  0  0  0  0  0  0
   -2.3685   -0.4116    2.8134 H   0  0  0  0  0  0  0  0  0  0  0  0
  1  2  1  0
  2  3  1  0
  3  4  1  0
  4  5  1  0
  5  6  1  0
  6  7  1  0
  7  8  2  0
  7  9  1  0
  9 10  2  0
 10 11  1  0
 11 12  2  0
 12 13  1  0
 12 14  1  0
 14 15  2  0
  4 16  2  0
 16 17  1  0
 17 18  2  0
 18 19  1  0
 19 20  2  0
 20 21  1  0
 21 22  2  0
 22 23  1  0
 23 24  2  0
 18  3  1  0
 24 19  1  0
 15  9  1  0
  1 25  1  0
  1 26  1  0
  1 27  1  0
  2 28  1  0
  2 29  1  0
  6 30  1  0
  6 31  1  0
 10 32  1  0
 11 33  1  0
 13 34  1  0
 13 35  1  0
 13 36  1  0
 14 37  1  0
 15 38  1  0
 20 39  1  0
 21 40  1  0
 23 41  1  0
 24 42  1  0
M  END
$$$$
