
     RDKit          3D

 45 47  0  0  0  0  0  0  0  0999 V2000
   -1.4440    3.3983    0.8852 C   0  0  0  0  0  0  0  0  0  0  0  0
   -0.4935    2.2801    0.6357 C   0  0  0  0  0  0  0  0  0  0  0  0
    1.2019    2.5573    0.7529 S   0  0  0  0  0  0  0  0  0  0  0  0
    1.4902    0.9439    0.2844 C   0  0  0  0  0  0  0  0  0  0  0  0
    2.8179    0.6261    0.1976 N   0  0  0  0  0  0  0  0  0  0  0  0
    3.3597   -0.5782   -0.1695 C   0  0  0  0  0  0  0  0  0  0  0  0
    2.5962   -1.9931   -0.6322 S   0  0  0  0  0  0  0  0  0  0  0  0
    4.7457   -0.6217   -0.1556 N   0  0  0  0  0  0  0  0  0  0  0  0
    5.6592    0.3729    0.1742 C   0  0  0  0  0  0  0  0  0  0  0  0
    5.2880    1.4984    0.5117 O   0  0  0  0  0  0  0  0  0  0  0  0
    7.0652   -0.0014    0.0921 C   0  0  0  0  0  0  0  0  0  0  0  0
    8.1527    0.8085    0.3676 C   0  0  0  0  0  0  0  0  0  0  0  0
    9.3972    0.1379    0.1906 C   0  0  0  0  0  0  0  0  0  0  0  0
    9.2240   -1.1656   -0.2152 C   0  0  0  0  0  0  0  0  0  0  0  0
    7.5720   -1.5709   -0.3795 S   0  0  0  0  0  0  0  0  0  0  0  0
    0.4347    0.2099    0.0637 N   0  0  0  0  0  0  0  0  0  0  0  0
   -0.7138    0.9538    0.2905 C   0  0  0  0  0  0  0  0  0  0  0  0
   -2.0216    0.3364    0.1127 C   0  0  0  0  0  0  0  0  0  0  0  0
   -2.2401   -0.4971   -0.9898 C   0  0  0  0  0  0  0  0  0  0  0  0
   -3.4820   -1.1084   -1.1872 C   0  0  0  0  0  0  0  0  0  0  0  0
   -4.5310   -0.9080   -0.2793 C   0  0  0  0  0  0  0  0  0  0  0  0
   -5.8693   -1.5865   -0.5115 C   0  0  0  0  0  0  0  0  0  0  0  0
   -6.1919   -2.5859    0.6020 C   0  0  0  0  0  0  0  0  0  0  0  0
   -6.9988   -0.5660   -0.6726 C   0  0  0  0  0  0  0  0  0  0  0  0
   -4.3018   -0.0893    0.8361 C   0  0  0  0  0  0  0  0  0  0  0  0
   -3.0586    0.5220    1.0332 C   0  0  0  0  0  0  0  0  0  0  0  0
   -2.3185    3.3239    0.2310 H   0  0  0  0  0  0  0  0  0  0  0  0
   -0.9838    4.3740    0.6955 H   0  0  0  0  0  0  0  0  0  0  0  0
   -1.7856    3.3821    1.9251 H   0  0  0  0  0  0  0  0  0  0  0  0
    3.4580    1.3807    0.4336 H   0  0  0  0  0  0  0  0  0  0  0  0
    5.1299   -1.5186   -0.4258 H   0  0  0  0  0  0  0  0  0  0  0  0
    8.0535    1.8416    0.6837 H   0  0  0  0  0  0  0  0  0  0  0  0
   10.3688    0.5892    0.3529 H   0  0  0  0  0  0  0  0  0  0  0  0
    9.9896   -1.9012   -0.4236 H   0  0  0  0  0  0  0  0  0  0  0  0
   -1.4361   -0.6797   -1.7008 H   0  0  0  0  0  0  0  0  0  0  0  0
   -3.6163   -1.7497   -2.0555 H   0  0  0  0  0  0  0  0  0  0  0  0
   -5.8144   -2.1547   -1.4496 H   0  0  0  0  0  0  0  0  0  0  0  0
   -5.3907   -3.3258    0.7082 H   0  0  0  0  0  0  0  0  0  0  0  0
   -7.1187   -3.1253    0.3784 H   0  0  0  0  0  0  0  0  0  0  0  0
   -6.3204   -2.0920    1.5713 H   0  0  0  0  0  0  0  0  0  0  0  0
   -7.9386   -1.0692   -0.9246 H   0  0  0  0  0  0  0  0  0  0  0  0
   -6.7730    0.1443   -1.4758 H   0  0  0  0  0  0  0  0  0  0  0  0
   -7.1661    0.0093    0.2445 H   0  0  0  0  0  0  0  0  0  0  0  0
   -5.0869    0.0728    1.5711 H   0  0  0  0  0  0  0  0  0  0  0  0
   -2.9088    1.1247    1.9246 H   0  0  0  0  0  0  0  0  0  0  0  0
  1  2  1  0
  2  3  1  0
  3  4  1  0
  4  5  1  0
  5  6  1  0
  6  7  2  0
  6  8  1  0
  8  9  1  0
  9 10  2  0
  9 11  1  0
 11 12  2  0
 12 13  1  0
 13 14  2  0
 14 15  1  0
  4 16  2  0
 16 17  1  0
 17 18  1  0
 18 19  2  0
 19 20  1  0
 20 21  2  0
 21 22  1  0
 22 23  1  0
 22 24  1  0
 21 25  1  0
 25 26  2  0
 17  2  2  0
 26 18  1  0
 15 11  1  0
  1 27  1  0
  1 28  1  0
  1 29  1  0
  5 30  1  0
  8 31  1  0
 12 32  1  0
 13 33  1  0
 14 34  1  0
 19 35  1  0
 20 36  1  0
 22 37  1  0
 23 38  1  0
 23 39  1  0
 23 40  1  0
 24 41  1  0
 24 42  1  0
 24 43  1  0
 25 44  1  0
 26 45  1  0
M  END
$$$$
