
     RDKit          3D

 66 68  0  0  0  0  0  0  0  0999 V2000
   -8.1381    0.6108   -0.2244 C   0  0  0  0  0  0  0  0  0  0  0  0
   -7.4177    0.3425    1.0851 C   0  0  0  0  0  0  0  0  0  0  0  0
   -6.0587    0.0368    0.7825 O   0  0  0  0  0  0  0  0  0  0  0  0
   -5.2160   -0.2576    1.8263 C   0  0  0  0  0  0  0  0  0  0  0  0
   -5.6012   -0.2489    3.1730 C   0  0  0  0  0  0  0  0  0  0  0  0
   -4.6804   -0.5566    4.1766 C   0  0  0  0  0  0  0  0  0  0  0  0
   -3.3669   -0.8697    3.8459 C   0  0  0  0  0  0  0  0  0  0  0  0
   -2.9706   -0.8812    2.5082 C   0  0  0  0  0  0  0  0  0  0  0  0
   -3.8863   -0.5908    1.4820 C   0  0  0  0  0  0  0  0  0  0  0  0
   -3.4542   -0.5740    0.0676 C   0  0  0  0  0  0  0  0  0  0  0  0
   -2.5329   -1.3977   -0.4576 C   0  0  0  0  0  0  0  0  0  0  0  0
   -2.1878   -1.3223   -1.8388 C   0  0  0  0  0  0  0  0  0  0  0  0
   -3.0271   -0.7677   -2.7826 O   0  0  0  0  0  0  0  0  0  0  0  0
   -2.4755   -0.8318   -4.0390 N   0  0  0  0  0  0  0  0  0  0  0  0
   -1.2888   -1.4252   -3.8916 C   0  0  0  0  0  0  0  0  0  0  0  0
   -0.4429   -1.6511   -5.0882 C   0  0  0  0  0  0  0  0  0  0  0  0
   -1.0549   -1.7313   -2.5301 C   0  0  0  0  0  0  0  0  0  0  0  0
    0.3768   -2.4091   -1.8766 S   0  0  0  0  0  6  0  0  0  0  0  0
    1.0565   -3.0108   -3.0028 O   0  0  0  0  0  0  0  0  0  0  0  0
   -0.0603   -3.2154   -0.7585 O   0  0  0  0  0  0  0  0  0  0  0  0
    1.3608   -1.1495   -1.2805 N   0  0  0  0  0  0  0  0  0  0  0  0
    0.8599   -0.4362   -0.0789 C   0  0  0  0  0  0  0  0  0  0  0  0
    2.0162    0.3042    0.5890 C   0  0  0  0  0  0  0  0  0  0  0  0
    2.7174    1.2263   -0.4122 C   0  0  0  0  0  0  0  0  0  0  0  0
    3.7959    2.0992    0.2295 C   0  0  0  0  0  0  0  0  0  0  0  0
    3.5309    3.3016    0.3650 O   0  0  0  0  0  0  0  0  0  0  0  0
    5.0027    1.5894    0.6848 N   0  0  0  0  0  0  0  0  0  0  0  0
    5.8982    2.5255    1.3773 C   0  0  0  0  0  0  0  0  0  0  0  0
    5.5659    2.6328    2.8584 C   0  0  0  0  0  0  0  0  0  0  0  0
    5.4709    0.2035    0.6027 C   0  0  0  0  0  0  0  0  0  0  0  0
    6.5291    0.0160   -0.4768 C   0  0  0  0  0  0  0  0  0  0  0  0
    3.1211    0.5057   -1.6981 C   0  0  0  0  0  0  0  0  0  0  0  0
    1.9240   -0.2275   -2.2994 C   0  0  0  0  0  0  0  0  0  0  0  0
   -7.6682    1.4432   -0.7592 H   0  0  0  0  0  0  0  0  0  0  0  0
   -8.0810   -0.2633   -0.8819 H   0  0  0  0  0  0  0  0  0  0  0  0
   -9.1900    0.8528   -0.0487 H   0  0  0  0  0  0  0  0  0  0  0  0
   -7.8963   -0.5053    1.5887 H   0  0  0  0  0  0  0  0  0  0  0  0
   -7.4751    1.2387    1.7136 H   0  0  0  0  0  0  0  0  0  0  0  0
   -6.6134   -0.0048    3.4775 H   0  0  0  0  0  0  0  0  0  0  0  0
   -4.9908   -0.5468    5.2186 H   0  0  0  0  0  0  0  0  0  0  0  0
   -2.6487   -1.1019    4.6283 H   0  0  0  0  0  0  0  0  0  0  0  0
   -1.9335   -1.1138    2.2813 H   0  0  0  0  0  0  0  0  0  0  0  0
   -3.9637    0.1586   -0.5571 H   0  0  0  0  0  0  0  0  0  0  0  0
   -2.0491   -2.1483    0.1593 H   0  0  0  0  0  0  0  0  0  0  0  0
    0.5424   -1.1934   -4.9617 H   0  0  0  0  0  0  0  0  0  0  0  0
   -0.8933   -1.2123   -5.9854 H   0  0  0  0  0  0  0  0  0  0  0  0
   -0.3171   -2.7221   -5.2743 H   0  0  0  0  0  0  0  0  0  0  0  0
    0.0731    0.2715   -0.3634 H   0  0  0  0  0  0  0  0  0  0  0  0
    0.4432   -1.1429    0.6453 H   0  0  0  0  0  0  0  0  0  0  0  0
    2.7059   -0.4282    1.0169 H   0  0  0  0  0  0  0  0  0  0  0  0
    1.6354    0.8912    1.4339 H   0  0  0  0  0  0  0  0  0  0  0  0
    1.9493    1.9532   -0.7263 H   0  0  0  0  0  0  0  0  0  0  0  0
    5.8228    3.5169    0.9167 H   0  0  0  0  0  0  0  0  0  0  0  0
    6.9357    2.2002    1.2514 H   0  0  0  0  0  0  0  0  0  0  0  0
    6.2431    3.3386    3.3490 H   0  0  0  0  0  0  0  0  0  0  0  0
    5.6653    1.6626    3.3552 H   0  0  0  0  0  0  0  0  0  0  0  0
    4.5395    2.9813    3.0114 H   0  0  0  0  0  0  0  0  0  0  0  0
    4.6472   -0.4787    0.4107 H   0  0  0  0  0  0  0  0  0  0  0  0
    5.8805   -0.0777    1.5795 H   0  0  0  0  0  0  0  0  0  0  0  0
    6.1719    0.3611   -1.4516 H   0  0  0  0  0  0  0  0  0  0  0  0
    7.4412    0.5746   -0.2458 H   0  0  0  0  0  0  0  0  0  0  0  0
    6.7984   -1.0413   -0.5624 H   0  0  0  0  0  0  0  0  0  0  0  0
    3.5210    1.2244   -2.4232 H   0  0  0  0  0  0  0  0  0  0  0  0
    3.9083   -0.2292   -1.5220 H   0  0  0  0  0  0  0  0  0  0  0  0
    2.2714   -0.7842   -3.1751 H   0  0  0  0  0  0  0  0  0  0  0  0
    1.1587    0.4853   -2.6268 H   0  0  0  0  0  0  0  0  0  0  0  0
  1  2  1  0
  2  3  1  0
  3  4  1  0
  4  5  2  0
  5  6  1  0
  6  7  2  0
  7  8  1  0
  8  9  2  0
  9 10  1  0
 10 11  2  3
 11 12  1  0
 12 13  1  0
 13 14  1  0
 14 15  2  0
 15 16  1  0
 15 17  1  0
 17 18  1  0
 18 19  2  0
 18 20  2  0
 18 21  1  0
 21 22  1  0
 22 23  1  0
 23 24  1  0
 24 25  1  0
 25 26  2  0
 25 27  1  0
 27 28  1  0
 28 29  1  0
 27 30  1  0
 30 31  1  0
 24 32  1  0
 32 33  1  0
  9  4  1  0
 17 12  2  0
 33 21  1  0
  1 34  1  0
  1 35  1  0
  1 36  1  0
  2 37  1  0
  2 38  1  0
  5 39  1  0
  6 40  1  0
  7 41  1  0
  8 42  1  0
 10 43  1  0
 11 44  1  0
 16 45  1  0
 16 46  1  0
 16 47  1  0
 22 48  1  0
 22 49  1  0
 23 50  1  0
 23 51  1  0
 24 52  1  0
 28 53  1  0
 28 54  1  0
 29 55  1  0
 29 56  1  0
 29 57  1  0
 30 58  1  0
 30 59  1  0
 31 60  1  0
 31 61  1  0
 31 62  1  0
 32 63  1  0
 32 64  1  0
 33 65  1  0
 33 66  1  0
M  END
$$$$
