
     RDKit          3D

 51 53  0  0  0  0  0  0  0  0999 V2000
   -2.9505    1.4075   -3.3534 C   0  0  0  0  0  0  0  0  0  0  0  0
   -2.0953    1.7883   -2.1740 C   0  0  0  0  0  0  0  0  0  0  0  0
   -0.9869    2.6155   -2.4036 C   0  0  0  0  0  0  0  0  0  0  0  0
   -0.1500    2.9827   -1.3581 C   0  0  0  0  0  0  0  0  0  0  0  0
   -0.4060    2.5303   -0.0658 C   0  0  0  0  0  0  0  0  0  0  0  0
   -1.5036    1.7048    0.2043 C   0  0  0  0  0  0  0  0  0  0  0  0
   -1.7793    1.2372    1.5142 N   0  0  0  0  0  0  0  0  0  0  0  0
   -0.9816    1.3352    2.6397 C   0  0  0  0  0  0  0  0  0  0  0  0
    0.1335    1.8483    2.7118 O   0  0  0  0  0  0  0  0  0  0  0  0
   -1.6163    0.7665    3.9006 C   0  0  0  0  0  0  0  0  0  0  0  0
   -2.2347   -0.9282    3.7390 S   0  0  0  0  0  0  0  0  0  0  0  0
   -1.0459   -1.6011    2.6531 C   0  0  0  0  0  0  0  0  0  0  0  0
   -1.4469   -1.9125    1.4715 N   0  0  0  0  0  0  0  0  0  0  0  0
   -0.5168   -2.4261    0.5935 C   0  0  0  0  0  0  0  0  0  0  0  0
   -0.8528   -2.9214   -0.4776 O   0  0  0  0  0  0  0  0  0  0  0  0
    0.9480   -2.3643    0.9676 C   0  0  0  0  0  0  0  0  0  0  0  0
    1.9154   -2.7192   -0.1322 C   0  0  0  0  0  0  0  0  0  0  0  0
    2.3331   -1.5185   -0.9530 C   0  0  0  0  0  0  0  0  0  0  0  0
    3.5267   -0.8372   -0.6743 C   0  0  0  0  0  0  0  0  0  0  0  0
    3.8907    0.2891   -1.4152 C   0  0  0  0  0  0  0  0  0  0  0  0
    3.0668    0.7474   -2.4405 C   0  0  0  0  0  0  0  0  0  0  0  0
    1.8799    0.0776   -2.7287 C   0  0  0  0  0  0  0  0  0  0  0  0
    1.5122   -1.0466   -1.9883 C   0  0  0  0  0  0  0  0  0  0  0  0
    1.2496   -2.0504    2.2469 C   0  0  0  0  0  0  0  0  0  0  0  0
    2.6389   -1.9843    2.8181 C   0  0  0  0  0  0  0  0  0  0  0  0
    0.2254   -1.7316    3.1107 N   0  0  0  0  0  0  0  0  0  0  0  0
   -2.3700    1.3327   -0.8587 C   0  0  0  0  0  0  0  0  0  0  0  0
   -3.5540    0.4305   -0.5982 C   0  0  0  0  0  0  0  0  0  0  0  0
   -3.9715    1.7792   -3.2205 H   0  0  0  0  0  0  0  0  0  0  0  0
   -2.5685    1.8369   -4.2857 H   0  0  0  0  0  0  0  0  0  0  0  0
   -2.9616    0.3209   -3.4797 H   0  0  0  0  0  0  0  0  0  0  0  0
   -0.7607    2.9726   -3.4060 H   0  0  0  0  0  0  0  0  0  0  0  0
    0.7155    3.6132   -1.5478 H   0  0  0  0  0  0  0  0  0  0  0  0
    0.2834    2.8424    0.7124 H   0  0  0  0  0  0  0  0  0  0  0  0
   -2.5814    0.6242    1.6065 H   0  0  0  0  0  0  0  0  0  0  0  0
   -2.4376    1.4221    4.2058 H   0  0  0  0  0  0  0  0  0  0  0  0
   -0.8667    0.7748    4.6988 H   0  0  0  0  0  0  0  0  0  0  0  0
    2.8093   -3.2082    0.2748 H   0  0  0  0  0  0  0  0  0  0  0  0
    1.4944   -3.4829   -0.8002 H   0  0  0  0  0  0  0  0  0  0  0  0
    4.1840   -1.1755    0.1222 H   0  0  0  0  0  0  0  0  0  0  0  0
    4.8155    0.8128   -1.1883 H   0  0  0  0  0  0  0  0  0  0  0  0
    3.3464    1.6271   -3.0133 H   0  0  0  0  0  0  0  0  0  0  0  0
    1.2292    0.4361   -3.5212 H   0  0  0  0  0  0  0  0  0  0  0  0
    0.5742   -1.5475   -2.2211 H   0  0  0  0  0  0  0  0  0  0  0  0
    3.4028   -2.3923    2.1535 H   0  0  0  0  0  0  0  0  0  0  0  0
    2.6898   -2.5580    3.7507 H   0  0  0  0  0  0  0  0  0  0  0  0
    2.9071   -0.9459    3.0406 H   0  0  0  0  0  0  0  0  0  0  0  0
    0.4650   -1.3956    4.0347 H   0  0  0  0  0  0  0  0  0  0  0  0
   -4.1916    0.2884   -1.4738 H   0  0  0  0  0  0  0  0  0  0  0  0
   -3.2102   -0.5587   -0.2852 H   0  0  0  0  0  0  0  0  0  0  0  0
   -4.1962    0.8615    0.1766 H   0  0  0  0  0  0  0  0  0  0  0  0
  1  2  1  0
  2  3  2  0
  3  4  1  0
  4  5  2  0
  5  6  1  0
  6  7  1  0
  7  8  1  0
  8  9  2  0
  8 10  1  0
 10 11  1  0
 11 12  1  0
 12 13  2  0
 13 14  1  0
 14 15  2  0
 14 16  1  0
 16 17  1  0
 17 18  1  0
 18 19  2  0
 19 20  1  0
 20 21  2  0
 21 22  1  0
 22 23  2  0
 16 24  2  0
 24 25  1  0
 24 26  1  0
  6 27  2  0
 27 28  1  0
 27  2  1  0
 26 12  1  0
 23 18  1  0
  1 29  1  0
  1 30  1  0
  1 31  1  0
  3 32  1  0
  4 33  1  0
  5 34  1  0
  7 35  1  0
 10 36  1  0
 10 37  1  0
 17 38  1  0
 17 39  1  0
 19 40  1  0
 20 41  1  0
 21 42  1  0
 22 43  1  0
 23 44  1  0
 25 45  1  0
 25 46  1  0
 25 47  1  0
 26 48  1  0
 28 49  1  0
 28 50  1  0
 28 51  1  0
M  END
$$$$
