
     RDKit          3D

 33 35  0  0  0  0  0  0  0  0999 V2000
   -5.3726   -1.9701    1.5601 C   0  0  0  0  0  0  0  0  0  0  0  0
   -4.8080   -0.9770    0.5898 C   0  0  0  0  0  0  0  0  0  0  0  0
   -5.6519   -0.2422   -0.2329 C   0  0  0  0  0  0  0  0  0  0  0  0
   -5.0864    0.6669   -1.1171 C   0  0  0  0  0  0  0  0  0  0  0  0
   -3.7019    0.8121   -1.1508 C   0  0  0  0  0  0  0  0  0  0  0  0
   -2.9197    0.0412   -0.2962 C   0  0  0  0  0  0  0  0  0  0  0  0
   -1.5341    0.2190   -0.3633 N   0  0  0  0  0  0  0  0  0  0  0  0
   -0.5884   -0.4442    0.3944 C   0  0  0  0  0  0  0  0  0  0  0  0
   -0.8252   -1.2945    1.2456 O   0  0  0  0  0  0  0  0  0  0  0  0
    0.7948   -0.0512    0.1067 C   0  0  0  0  0  0  0  0  0  0  0  0
    1.9294   -0.5532    0.7147 C   0  0  0  0  0  0  0  0  0  0  0  0
    3.1480    0.0225    0.2262 C   0  0  0  0  0  0  0  0  0  0  0  0
    4.4933   -0.2272    0.5932 C   0  0  0  0  0  0  0  0  0  0  0  0
    5.5295    0.4766   -0.0415 C   0  0  0  0  0  0  0  0  0  0  0  0
    6.9227    0.2132    0.3434 N   0  0  0  0  0  4  0  0  0  0  0  0
    7.8114    0.8524   -0.2375 O   0  0  0  0  0  0  0  0  0  0  0  0
    7.1275   -0.6320    1.2259 O   0  0  0  0  0  1  0  0  0  0  0  0
    5.2539    1.4205   -1.0308 C   0  0  0  0  0  0  0  0  0  0  0  0
    3.9313    1.6773   -1.4033 C   0  0  0  0  0  0  0  0  0  0  0  0
    2.8914    0.9709   -0.7660 C   0  0  0  0  0  0  0  0  0  0  0  0
    1.2032    1.1251   -1.0638 S   0  0  0  0  0  0  0  0  0  0  0  0
   -3.4619   -0.8392    0.5605 N   0  0  0  0  0  0  0  0  0  0  0  0
   -4.5738   -2.4589    2.1272 H   0  0  0  0  0  0  0  0  0  0  0  0
   -6.0371   -1.4687    2.2706 H   0  0  0  0  0  0  0  0  0  0  0  0
   -5.9336   -2.7433    1.0262 H   0  0  0  0  0  0  0  0  0  0  0  0
   -6.7279   -0.3736   -0.1877 H   0  0  0  0  0  0  0  0  0  0  0  0
   -5.7176    1.2577   -1.7746 H   0  0  0  0  0  0  0  0  0  0  0  0
   -3.2571    1.5211   -1.8400 H   0  0  0  0  0  0  0  0  0  0  0  0
   -1.1887    0.8950   -1.0269 H   0  0  0  0  0  0  0  0  0  0  0  0
    1.8821   -1.3129    1.4885 H   0  0  0  0  0  0  0  0  0  0  0  0
    4.7032   -0.9645    1.3655 H   0  0  0  0  0  0  0  0  0  0  0  0
    6.0532    1.9693   -1.5264 H   0  0  0  0  0  0  0  0  0  0  0  0
    3.7112    2.4122   -2.1738 H   0  0  0  0  0  0  0  0  0  0  0  0
  1  2  1  0
  2  3  2  0
  3  4  1  0
  4  5  2  0
  5  6  1  0
  6  7  1  0
  7  8  1  0
  8  9  2  0
  8 10  1  0
 10 11  2  0
 11 12  1  0
 12 13  2  0
 13 14  1  0
 14 15  1  0
 15 16  2  0
 15 17  1  0
 14 18  2  0
 18 19  1  0
 19 20  2  0
 20 21  1  0
  6 22  2  0
 22  2  1  0
 21 10  1  0
 20 12  1  0
  1 23  1  0
  1 24  1  0
  1 25  1  0
  3 26  1  0
  4 27  1  0
  5 28  1  0
  7 29  1  0
 11 30  1  0
 13 31  1  0
 18 32  1  0
 19 33  1  0
M  CHG  2  15   1  17  -1
M  END
$$$$
