
     RDKit          3D

 22 22  0  0  0  0  0  0  0  0999 V2000
    3.0293    1.1508   -0.0008 C   0  0  0  0  0  0  0  0  0  0  0  0
    1.5438    0.9278   -0.0557 C   0  0  0  0  0  0  0  0  0  0  0  0
    0.7907    2.0551   -0.1493 N   0  0  0  0  0  0  0  0  0  0  0  0
   -0.5530    1.9156   -0.1669 C   0  0  0  0  0  0  0  0  0  0  0  0
   -1.1961    0.6955   -0.0852 C   0  0  0  0  0  0  0  0  0  0  0  0
   -2.6584    0.7061   -0.1875 C   0  0  0  0  0  0  0  0  0  0  0  0
   -3.3982    1.5462    0.2868 O   0  0  0  0  0  0  0  0  0  0  0  0
   -3.1090   -0.2674   -0.9969 O   0  0  0  0  0  0  0  0  0  0  0  0
   -0.4117   -0.4511    0.0514 C   0  0  0  0  0  0  0  0  0  0  0  0
   -1.0330   -1.7692    0.2723 C   0  0  0  0  0  0  0  0  0  0  0  0
   -0.6777   -2.8182   -0.2345 O   0  0  0  0  0  0  0  0  0  0  0  0
   -1.9913   -1.7184    1.2146 O   0  0  0  0  0  0  0  0  0  0  0  0
    0.9963   -0.3673   -0.0064 C   0  0  0  0  0  0  0  0  0  0  0  0
    1.8138   -1.4976    0.2165 N   0  0  0  0  0  0  0  0  0  0  0  0
    3.5171    0.6773   -0.8584 H   0  0  0  0  0  0  0  0  0  0  0  0
    3.2635    2.2202   -0.0307 H   0  0  0  0  0  0  0  0  0  0  0  0
    3.4433    0.7439    0.9270 H   0  0  0  0  0  0  0  0  0  0  0  0
   -1.1083    2.8464   -0.2600 H   0  0  0  0  0  0  0  0  0  0  0  0
   -4.0807   -0.1350   -1.0210 H   0  0  0  0  0  0  0  0  0  0  0  0
   -2.2822   -2.6488    1.3174 H   0  0  0  0  0  0  0  0  0  0  0  0
    2.7446   -1.4351   -0.1844 H   0  0  0  0  0  0  0  0  0  0  0  0
    1.3573   -2.3768   -0.0480 H   0  0  0  0  0  0  0  0  0  0  0  0
  1  2  1  0
  2  3  2  0
  3  4  1  0
  4  5  2  0
  5  6  1  0
  6  7  2  0
  6  8  1  0
  5  9  1  0
  9 10  1  0
 10 11  2  0
 10 12  1  0
  9 13  2  0
 13 14  1  0
 13  2  1  0
  1 15  1  0
  1 16  1  0
  1 17  1  0
  4 18  1  0
  8 19  1  0
 12 20  1  0
 14 21  1  0
 14 22  1  0
M  END
$$$$
