
     RDKit          3D

 59 60  0  0  0  0  0  0  0  0999 V2000
    4.7990   -0.6112   -4.5206 C   0  0  0  0  0  0  0  0  0  0  0  0
    5.2179   -0.6276   -3.0487 C   0  0  0  0  0  0  0  0  0  0  0  0
    6.6444   -0.0924   -2.9080 C   0  0  0  0  0  0  0  0  0  0  0  0
    4.2063    0.1709   -2.2068 C   0  0  0  0  0  0  0  0  0  0  0  0
    4.4783    0.0967   -0.7036 C   0  0  0  0  0  0  0  0  0  0  0  0
    3.4487    0.7755    0.0544 N   0  0  0  0  0  0  0  0  0  0  0  0
    2.2631    0.1593    0.4072 C   0  0  0  0  0  0  0  0  0  0  0  0
    2.0290   -1.0100    0.1176 O   0  0  0  0  0  0  0  0  0  0  0  0
    1.3361    1.0087    1.1125 C   0  0  0  0  0  0  0  0  0  0  0  0
    1.6138    2.3386    1.2298 O   0  0  0  0  0  0  0  0  0  0  0  0
    0.5886    2.9757    1.9002 N   0  0  0  0  0  0  0  0  0  0  0  0
   -0.3099    2.0208    2.1877 C   0  0  0  0  0  0  0  0  0  0  0  0
   -1.5584    2.3811    2.9172 C   0  0  0  0  0  0  0  0  0  0  0  0
   -3.1054    2.0997    1.9939 S   0  0  0  0  0  0  0  0  0  0  0  0
   -2.6236    2.6748    0.3841 C   0  0  0  0  0  0  0  0  0  0  0  0
   -2.6234    4.0279    0.0765 C   0  0  0  0  0  0  0  0  0  0  0  0
   -2.2250    4.4170   -1.1989 C   0  0  0  0  0  0  0  0  0  0  0  0
   -1.8459    3.4479   -2.1212 C   0  0  0  0  0  0  0  0  0  0  0  0
   -1.8815    2.1216   -1.7290 C   0  0  0  0  0  0  0  0  0  0  0  0
   -2.2603    1.7112   -0.4979 N   0  0  0  0  0  0  0  0  0  0  0  0
    0.1261    0.7551    1.7201 C   0  0  0  0  0  0  0  0  0  0  0  0
   -0.5000   -0.5352    1.8268 C   0  0  0  0  0  0  0  0  0  0  0  0
   -0.2007   -1.3228    2.7155 O   0  0  0  0  0  0  0  0  0  0  0  0
   -1.4443   -0.7673    0.8585 N   0  0  0  0  0  0  0  0  0  0  0  0
   -2.2060   -1.9948    0.8048 C   0  0  0  0  0  0  0  0  0  0  0  0
   -3.4918   -1.8866    1.6223 C   0  0  0  0  0  0  0  0  0  0  0  0
   -4.3740   -3.1445    1.5395 C   0  0  0  0  0  0  0  0  0  0  0  0
   -5.7266   -2.8742    2.1998 C   0  0  0  0  0  0  0  0  0  0  0  0
   -3.7143   -4.3600    2.1916 C   0  0  0  0  0  0  0  0  0  0  0  0
    5.4853   -1.2131   -5.1260 H   0  0  0  0  0  0  0  0  0  0  0  0
    3.7925   -1.0294   -4.6436 H   0  0  0  0  0  0  0  0  0  0  0  0
    4.7953    0.4091   -4.9232 H   0  0  0  0  0  0  0  0  0  0  0  0
    5.2091   -1.6721   -2.7104 H   0  0  0  0  0  0  0  0  0  0  0  0
    6.6927    0.9799   -3.1263 H   0  0  0  0  0  0  0  0  0  0  0  0
    7.3231   -0.6100   -3.5938 H   0  0  0  0  0  0  0  0  0  0  0  0
    7.0278   -0.2509   -1.8954 H   0  0  0  0  0  0  0  0  0  0  0  0
    3.1962   -0.2117   -2.4074 H   0  0  0  0  0  0  0  0  0  0  0  0
    4.1994    1.2226   -2.5237 H   0  0  0  0  0  0  0  0  0  0  0  0
    4.5317   -0.9468   -0.3756 H   0  0  0  0  0  0  0  0  0  0  0  0
    5.4232    0.5859   -0.4508 H   0  0  0  0  0  0  0  0  0  0  0  0
    3.5614    1.7594    0.2687 H   0  0  0  0  0  0  0  0  0  0  0  0
   -1.5365    3.4371    3.2091 H   0  0  0  0  0  0  0  0  0  0  0  0
   -1.6147    1.8010    3.8444 H   0  0  0  0  0  0  0  0  0  0  0  0
   -2.9216    4.7712    0.8067 H   0  0  0  0  0  0  0  0  0  0  0  0
   -2.2105    5.4684   -1.4699 H   0  0  0  0  0  0  0  0  0  0  0  0
   -1.5328    3.7212   -3.1226 H   0  0  0  0  0  0  0  0  0  0  0  0
   -1.5978    1.3286   -2.4156 H   0  0  0  0  0  0  0  0  0  0  0  0
   -1.7286    0.0072    0.2558 H   0  0  0  0  0  0  0  0  0  0  0  0
   -2.4381   -2.1813   -0.2488 H   0  0  0  0  0  0  0  0  0  0  0  0
   -1.5756   -2.8125    1.1662 H   0  0  0  0  0  0  0  0  0  0  0  0
   -4.0642   -1.0256    1.2536 H   0  0  0  0  0  0  0  0  0  0  0  0
   -3.2493   -1.6653    2.6698 H   0  0  0  0  0  0  0  0  0  0  0  0
   -4.5583   -3.3796    0.4838 H   0  0  0  0  0  0  0  0  0  0  0  0
   -6.2401   -2.0442    1.7056 H   0  0  0  0  0  0  0  0  0  0  0  0
   -6.3762   -3.7532    2.1318 H   0  0  0  0  0  0  0  0  0  0  0  0
   -5.6091   -2.6175    3.2572 H   0  0  0  0  0  0  0  0  0  0  0  0
   -3.4559   -4.1586    3.2373 H   0  0  0  0  0  0  0  0  0  0  0  0
   -2.8006   -4.6513    1.6656 H   0  0  0  0  0  0  0  0  0  0  0  0
   -4.3875   -5.2243    2.1686 H   0  0  0  0  0  0  0  0  0  0  0  0
  1  2  1  0
  2  3  1  0
  2  4  1  0
  4  5  1  0
  5  6  1  0
  6  7  1  0
  7  8  2  0
  7  9  1  0
  9 10  1  0
 10 11  1  0
 11 12  2  0
 12 13  1  0
 13 14  1  0
 14 15  1  0
 15 16  2  0
 16 17  1  0
 17 18  2  0
 18 19  1  0
 19 20  2  0
 12 21  1  0
 21 22  1  0
 22 23  2  0
 22 24  1  0
 24 25  1  0
 25 26  1  0
 26 27  1  0
 27 28  1  0
 27 29  1  0
 21  9  2  0
 20 15  1  0
  1 30  1  0
  1 31  1  0
  1 32  1  0
  2 33  1  0
  3 34  1  0
  3 35  1  0
  3 36  1  0
  4 37  1  0
  4 38  1  0
  5 39  1  0
  5 40  1  0
  6 41  1  0
 13 42  1  0
 13 43  1  0
 16 44  1  0
 17 45  1  0
 18 46  1  0
 19 47  1  0
 24 48  1  0
 25 49  1  0
 25 50  1  0
 26 51  1  0
 26 52  1  0
 27 53  1  0
 28 54  1  0
 28 55  1  0
 28 56  1  0
 29 57  1  0
 29 58  1  0
 29 59  1  0
M  END
$$$$
