
     RDKit          3D

 40 44  0  0  0  0  0  0  0  0999 V2000
    8.1338    1.3428   -0.9631 O   0  0  0  0  0  0  0  0  0  0  0  0
    7.2946    0.4818   -0.7751 C   0  0  0  0  0  0  0  0  0  0  0  0
    7.6427   -0.8089   -0.6268 O   0  0  0  0  0  0  0  0  0  0  0  0
    5.8307    0.6990   -0.6834 C   0  0  0  0  0  0  0  0  0  0  0  0
    5.3468    2.0037   -0.8224 C   0  0  0  0  0  0  0  0  0  0  0  0
    3.9783    2.2494   -0.7424 C   0  0  0  0  0  0  0  0  0  0  0  0
    3.0914    1.1920   -0.5236 C   0  0  0  0  0  0  0  0  0  0  0  0
    3.5535   -0.1263   -0.3809 C   0  0  0  0  0  0  0  0  0  0  0  0
    2.6268   -1.2334   -0.1520 C   0  0  0  0  0  0  0  0  0  0  0  0
    2.7666   -2.5921    0.0230 C   0  0  0  0  0  0  0  0  0  0  0  0
    1.4606   -3.1086    0.2024 C   0  0  0  0  0  0  0  0  0  0  0  0
    0.5639   -2.0487    0.1313 C   0  0  0  0  0  0  0  0  0  0  0  0
   -0.8533   -2.0977    0.2557 C   0  0  0  0  0  0  0  0  0  0  0  0
   -1.6845   -1.0487    0.1807 C   0  0  0  0  0  0  0  0  0  0  0  0
   -1.3254    0.6401   -0.0810 S   0  0  0  0  0  0  0  0  0  0  0  0
   -3.0009    1.0164    0.0065 C   0  0  0  0  0  0  0  0  0  0  0  0
   -3.6680    2.1322   -0.0913 N   0  0  0  0  0  0  0  0  0  0  0  0
   -4.9808    1.7337    0.0725 C   0  0  0  0  0  0  0  0  0  0  0  0
   -6.1512    2.5067    0.0635 C   0  0  0  0  0  0  0  0  0  0  0  0
   -7.3835    1.8680    0.2536 C   0  0  0  0  0  0  0  0  0  0  0  0
   -7.4536    0.4864    0.4491 C   0  0  0  0  0  0  0  0  0  0  0  0
   -6.3011   -0.3069    0.4623 C   0  0  0  0  0  0  0  0  0  0  0  0
   -5.0818    0.3506    0.2707 C   0  0  0  0  0  0  0  0  0  0  0  0
   -3.7787   -0.0715    0.2205 N   0  0  0  0  0  0  0  0  0  0  0  0
   -3.1500   -1.2906    0.3357 C   0  0  0  0  0  0  0  0  0  0  0  0
   -3.7518   -2.3311    0.5285 O   0  0  0  0  0  0  0  0  0  0  0  0
    1.3039   -0.9116   -0.0863 O   0  0  0  0  0  0  0  0  0  0  0  0
    4.9353   -0.3590   -0.4638 C   0  0  0  0  0  0  0  0  0  0  0  0
    8.6196   -0.7961   -0.7097 H   0  0  0  0  0  0  0  0  0  0  0  0
    6.0332    2.8310   -0.9930 H   0  0  0  0  0  0  0  0  0  0  0  0
    3.5979    3.2625   -0.8500 H   0  0  0  0  0  0  0  0  0  0  0  0
    2.0264    1.4111   -0.4652 H   0  0  0  0  0  0  0  0  0  0  0  0
    3.6920   -3.1501    0.0227 H   0  0  0  0  0  0  0  0  0  0  0  0
    1.1963   -4.1447    0.3666 H   0  0  0  0  0  0  0  0  0  0  0  0
   -1.2796   -3.0854    0.4268 H   0  0  0  0  0  0  0  0  0  0  0  0
   -6.0945    3.5793   -0.0885 H   0  0  0  0  0  0  0  0  0  0  0  0
   -8.2972    2.4584    0.2484 H   0  0  0  0  0  0  0  0  0  0  0  0
   -8.4247    0.0162    0.5943 H   0  0  0  0  0  0  0  0  0  0  0  0
   -6.3564   -1.3810    0.6144 H   0  0  0  0  0  0  0  0  0  0  0  0
    5.3227   -1.3689   -0.3573 H   0  0  0  0  0  0  0  0  0  0  0  0
  1  2  2  0
  2  3  1  0
  2  4  1  0
  4  5  2  0
  5  6  1  0
  6  7  2  0
  7  8  1  0
  8  9  1  0
  9 10  2  0
 10 11  1  0
 11 12  2  0
 12 13  1  0
 13 14  2  3
 14 15  1  0
 15 16  1  0
 16 17  2  0
 17 18  1  0
 18 19  2  0
 19 20  1  0
 20 21  2  0
 21 22  1  0
 22 23  2  0
 23 24  1  0
 24 25  1  0
 25 26  2  0
 12 27  1  0
  8 28  2  0
 28  4  1  0
 27  9  1  0
 25 14  1  0
 24 16  1  0
 23 18  1  0
  3 29  1  0
  5 30  1  0
  6 31  1  0
  7 32  1  0
 10 33  1  0
 11 34  1  0
 13 35  1  0
 19 36  1  0
 20 37  1  0
 21 38  1  0
 22 39  1  0
 28 40  1  0
M  END
$$$$
