
     RDKit          3D

 53 56  0  0  0  0  0  0  0  0999 V2000
    7.0413    1.7556   -1.1084 C   0  0  0  0  0  0  0  0  0  0  0  0
    5.8087    2.1420   -1.7036 O   0  0  0  0  0  0  0  0  0  0  0  0
    4.8336    1.0945   -1.7078 C   0  0  0  0  0  0  0  0  0  0  0  0
    4.0788    1.0293   -0.3815 C   0  0  0  0  0  0  0  0  0  0  0  0
    3.0433    0.0037   -0.3834 N   0  0  0  0  0  0  0  0  0  0  0  0
    3.2149   -1.2841    0.0803 C   0  0  0  0  0  0  0  0  0  0  0  0
    4.5000   -1.8075    0.6224 C   0  0  0  0  0  0  0  0  0  0  0  0
    2.0057   -1.9346   -0.0554 C   0  0  0  0  0  0  0  0  0  0  0  0
    1.0626   -1.0322   -0.6223 C   0  0  0  0  0  0  0  0  0  0  0  0
   -0.3556   -1.2810   -0.9422 C   0  0  0  0  0  0  0  0  0  0  0  0
   -1.0091   -0.4699   -1.6018 O   0  0  0  0  0  0  0  0  0  0  0  0
   -0.9628   -2.6004   -0.4748 C   0  0  0  0  0  0  0  0  0  0  0  0
   -2.7589   -2.4723   -0.1817 S   0  0  0  0  0  0  0  0  0  0  0  0
   -2.7479   -1.1848    1.0335 C   0  0  0  0  0  0  0  0  0  0  0  0
   -1.7602   -1.1752    1.9545 N   0  0  0  0  0  0  0  0  0  0  0  0
   -1.7378   -0.1847    2.8640 C   0  0  0  0  0  0  0  0  0  0  0  0
   -0.6267   -0.2186    3.8700 C   0  0  0  0  0  0  0  0  0  0  0  0
   -2.6316    0.8057    2.9775 N   0  0  0  0  0  0  0  0  0  0  0  0
   -3.5946    0.7624    2.0414 C   0  0  0  0  0  0  0  0  0  0  0  0
   -4.8174    1.9745    2.0018 S   0  0  0  0  0  0  0  0  0  0  0  0
   -5.5056    1.2597    0.6586 C   0  0  0  0  0  0  0  0  0  0  0  0
   -4.8670    0.1248    0.2387 C   0  0  0  0  0  0  0  0  0  0  0  0
   -3.7308   -0.1921    1.0347 C   0  0  0  0  0  0  0  0  0  0  0  0
   -5.5347   -0.4413   -0.9625 C   0  0  0  0  0  0  0  0  0  0  0  0
   -6.8822    0.3468   -1.0023 C   0  0  0  0  0  0  0  0  0  0  0  0
   -6.6708    1.6456   -0.1681 C   0  0  0  0  0  0  0  0  0  0  0  0
    1.7452    0.1657   -0.8315 C   0  0  0  0  0  0  0  0  0  0  0  0
    1.2196    1.4391   -1.4153 C   0  0  0  0  0  0  0  0  0  0  0  0
    7.4788    0.9080   -1.6452 H   0  0  0  0  0  0  0  0  0  0  0  0
    6.9047    1.5044   -0.0514 H   0  0  0  0  0  0  0  0  0  0  0  0
    7.7331    2.6022   -1.1742 H   0  0  0  0  0  0  0  0  0  0  0  0
    5.3016    0.1349   -1.9582 H   0  0  0  0  0  0  0  0  0  0  0  0
    4.1335    1.3212   -2.5209 H   0  0  0  0  0  0  0  0  0  0  0  0
    4.7614    0.8271    0.4504 H   0  0  0  0  0  0  0  0  0  0  0  0
    3.6174    1.9927   -0.1387 H   0  0  0  0  0  0  0  0  0  0  0  0
    4.7460   -1.3163    1.5690 H   0  0  0  0  0  0  0  0  0  0  0  0
    5.3206   -1.6454   -0.0839 H   0  0  0  0  0  0  0  0  0  0  0  0
    4.4337   -2.8831    0.8130 H   0  0  0  0  0  0  0  0  0  0  0  0
    1.8334   -2.9650    0.2302 H   0  0  0  0  0  0  0  0  0  0  0  0
   -0.4922   -2.9478    0.4492 H   0  0  0  0  0  0  0  0  0  0  0  0
   -0.7863   -3.3504   -1.2522 H   0  0  0  0  0  0  0  0  0  0  0  0
   -0.9323   -0.8156    4.7331 H   0  0  0  0  0  0  0  0  0  0  0  0
    0.2737   -0.6621    3.4335 H   0  0  0  0  0  0  0  0  0  0  0  0
   -0.3806    0.7921    4.2086 H   0  0  0  0  0  0  0  0  0  0  0  0
   -4.9449   -0.2354   -1.8632 H   0  0  0  0  0  0  0  0  0  0  0  0
   -5.7196   -1.5162   -0.8829 H   0  0  0  0  0  0  0  0  0  0  0  0
   -7.2082    0.5582   -2.0251 H   0  0  0  0  0  0  0  0  0  0  0  0
   -7.6636   -0.2606   -0.5244 H   0  0  0  0  0  0  0  0  0  0  0  0
   -6.4211    2.4863   -0.8234 H   0  0  0  0  0  0  0  0  0  0  0  0
   -7.5597    1.8886    0.4194 H   0  0  0  0  0  0  0  0  0  0  0  0
    1.9938    2.1925   -1.5847 H   0  0  0  0  0  0  0  0  0  0  0  0
    0.7521    1.2454   -2.3876 H   0  0  0  0  0  0  0  0  0  0  0  0
    0.4648    1.8738   -0.7458 H   0  0  0  0  0  0  0  0  0  0  0  0
  1  2  1  0
  2  3  1  0
  3  4  1  0
  4  5  1  0
  5  6  1  0
  6  7  1  0
  6  8  2  0
  8  9  1  0
  9 10  1  0
 10 11  2  0
 10 12  1  0
 12 13  1  0
 13 14  1  0
 14 15  2  0
 15 16  1  0
 16 17  1  0
 16 18  2  0
 18 19  1  0
 19 20  1  0
 20 21  1  0
 21 22  2  0
 22 23  1  0
 22 24  1  0
 24 25  1  0
 25 26  1  0
  9 27  2  0
 27 28  1  0
 27  5  1  0
 23 14  1  0
 23 19  2  0
 26 21  1  0
  1 29  1  0
  1 30  1  0
  1 31  1  0
  3 32  1  0
  3 33  1  0
  4 34  1  0
  4 35  1  0
  7 36  1  0
  7 37  1  0
  7 38  1  0
  8 39  1  0
 12 40  1  0
 12 41  1  0
 17 42  1  0
 17 43  1  0
 17 44  1  0
 24 45  1  0
 24 46  1  0
 25 47  1  0
 25 48  1  0
 26 49  1  0
 26 50  1  0
 28 51  1  0
 28 52  1  0
 28 53  1  0
M  END
$$$$
