
     RDKit          3D

 73 78  0  0  0  0  0  0  0  0999 V2000
   -9.1367   -2.4586   -1.7347 C   0  0  0  0  0  0  0  0  0  0  0  0
   -8.6240   -1.1251   -1.2665 C   0  0  0  0  0  0  0  0  0  0  0  0
   -9.5035   -0.1336   -0.8269 C   0  0  0  0  0  0  0  0  0  0  0  0
   -9.0147    1.0836   -0.3448 C   0  0  0  0  0  0  0  0  0  0  0  0
   -7.6339    1.3330   -0.2960 C   0  0  0  0  0  0  0  0  0  0  0  0
   -7.1332    2.6590    0.2209 C   0  0  0  0  0  0  0  0  0  0  0  0
   -6.7315    0.3461   -0.7453 C   0  0  0  0  0  0  0  0  0  0  0  0
   -5.3492    0.6188   -0.7025 N   0  0  0  0  0  0  0  0  0  0  0  0
   -4.6483   -0.1333    0.3582 C   0  0  0  0  0  0  0  0  0  0  0  0
   -3.2037    0.3981    0.4937 C   0  0  0  0  0  0  0  0  0  0  0  0
   -2.4801    0.4241   -0.7938 N   0  0  0  0  0  0  0  0  0  0  0  0
   -1.1024    0.3144   -0.9493 C   0  0  0  0  0  0  0  0  0  0  0  0
   -0.5793    0.5376   -2.0455 O   0  0  0  0  0  0  0  0  0  0  0  0
   -0.2422   -0.0588    0.2617 C   0  0  0  0  0  0  0  0  0  0  0  0
   -0.0424    1.1589    1.1812 C   0  0  0  0  0  0  0  0  0  0  0  0
    1.1931    1.9593    0.7811 C   0  0  0  0  0  0  0  0  0  0  0  0
    2.4770    1.1231    0.8096 C   0  0  0  0  0  0  0  0  0  0  0  0
    2.1790   -0.3159    0.7299 N   0  0  0  0  0  0  0  0  0  0  0  0
    3.2939   -1.1740    0.6345 C   0  0  0  0  0  0  0  0  0  0  0  0
    3.0559   -2.5216    0.5291 N   0  0  0  0  0  0  0  0  0  0  0  0
    4.0892   -3.3797    0.4226 C   0  0  0  0  0  0  0  0  0  0  0  0
    5.4029   -3.0982    0.3904 N   0  0  0  0  0  0  0  0  0  0  0  0
    5.6134   -1.7769    0.5153 C   0  0  0  0  0  0  0  0  0  0  0  0
    4.6623   -0.7822    0.6597 C   0  0  0  0  0  0  0  0  0  0  0  0
    5.2899    0.4473    0.7693 N   0  0  0  0  0  0  0  0  0  0  0  0
    6.5879    0.2141    0.6857 C   0  0  0  0  0  0  0  0  0  0  0  0
    6.8262   -1.1312    0.5178 N   0  0  0  0  0  0  0  0  0  0  0  0
    8.0994   -1.8136    0.3962 C   0  0  0  0  0  0  0  0  0  0  0  0
    9.1867   -1.0166   -0.3169 C   0  0  0  0  0  0  0  0  0  0  0  0
    9.8587    0.0410    0.5634 C   0  0  0  0  0  0  0  0  0  0  0  0
    8.9145    0.8700    1.4357 C   0  0  0  0  0  0  0  0  0  0  0  0
    7.6363    1.2866    0.7186 C   0  0  0  0  0  0  0  0  0  0  0  0
    1.0985   -0.6700   -0.2058 C   0  0  0  0  0  0  0  0  0  0  0  0
   -3.2384    1.0157   -1.9095 C   0  0  0  0  0  0  0  0  0  0  0  0
   -4.6755    0.4792   -2.0128 C   0  0  0  0  0  0  0  0  0  0  0  0
   -7.2430   -0.8793   -1.2151 C   0  0  0  0  0  0  0  0  0  0  0  0
  -10.1899   -2.4000   -2.0314 H   0  0  0  0  0  0  0  0  0  0  0  0
   -9.0423   -3.1941   -0.9298 H   0  0  0  0  0  0  0  0  0  0  0  0
   -8.5665   -2.8019   -2.6045 H   0  0  0  0  0  0  0  0  0  0  0  0
  -10.5780   -0.3022   -0.8444 H   0  0  0  0  0  0  0  0  0  0  0  0
   -9.7194    1.8396   -0.0075 H   0  0  0  0  0  0  0  0  0  0  0  0
   -6.4826    2.5176    1.0910 H   0  0  0  0  0  0  0  0  0  0  0  0
   -6.5834    3.1860   -0.5680 H   0  0  0  0  0  0  0  0  0  0  0  0
   -7.9634    3.3007    0.5275 H   0  0  0  0  0  0  0  0  0  0  0  0
   -5.1628   -0.0215    1.3239 H   0  0  0  0  0  0  0  0  0  0  0  0
   -4.6170   -1.2036    0.1106 H   0  0  0  0  0  0  0  0  0  0  0  0
   -3.2281    1.4317    0.8578 H   0  0  0  0  0  0  0  0  0  0  0  0
   -2.6736   -0.2041    1.2337 H   0  0  0  0  0  0  0  0  0  0  0  0
   -0.7656   -0.8450    0.8230 H   0  0  0  0  0  0  0  0  0  0  0  0
   -0.9121    1.8252    1.1682 H   0  0  0  0  0  0  0  0  0  0  0  0
    0.0695    0.8131    2.2184 H   0  0  0  0  0  0  0  0  0  0  0  0
    1.0453    2.3563   -0.2311 H   0  0  0  0  0  0  0  0  0  0  0  0
    1.3094    2.8290    1.4378 H   0  0  0  0  0  0  0  0  0  0  0  0
    3.0152    1.3398    1.7446 H   0  0  0  0  0  0  0  0  0  0  0  0
    3.1010    1.4535   -0.0356 H   0  0  0  0  0  0  0  0  0  0  0  0
    3.8236   -4.4358    0.3656 H   0  0  0  0  0  0  0  0  0  0  0  0
    8.4098   -2.1072    1.4048 H   0  0  0  0  0  0  0  0  0  0  0  0
    7.9208   -2.7299   -0.1809 H   0  0  0  0  0  0  0  0  0  0  0  0
    9.9667   -1.7096   -0.6562 H   0  0  0  0  0  0  0  0  0  0  0  0
    8.7785   -0.5470   -1.2204 H   0  0  0  0  0  0  0  0  0  0  0  0
   10.5909   -0.4474    1.2174 H   0  0  0  0  0  0  0  0  0  0  0  0
   10.4352    0.7123   -0.0886 H   0  0  0  0  0  0  0  0  0  0  0  0
    8.6717    0.3153    2.3531 H   0  0  0  0  0  0  0  0  0  0  0  0
    9.4554    1.7686    1.7608 H   0  0  0  0  0  0  0  0  0  0  0  0
    7.8469    1.6189   -0.3083 H   0  0  0  0  0  0  0  0  0  0  0  0
    7.2131    2.1517    1.2476 H   0  0  0  0  0  0  0  0  0  0  0  0
    0.9467   -1.7575   -0.2702 H   0  0  0  0  0  0  0  0  0  0  0  0
    1.3927   -0.3396   -1.2124 H   0  0  0  0  0  0  0  0  0  0  0  0
   -3.2496    2.0978   -1.7346 H   0  0  0  0  0  0  0  0  0  0  0  0
   -2.7259    0.8400   -2.8609 H   0  0  0  0  0  0  0  0  0  0  0  0
   -4.6423   -0.5726   -2.3226 H   0  0  0  0  0  0  0  0  0  0  0  0
   -5.2125    1.0433   -2.7866 H   0  0  0  0  0  0  0  0  0  0  0  0
   -6.5603   -1.6629   -1.5388 H   0  0  0  0  0  0  0  0  0  0  0  0
  1  2  1  0
  2  3  2  0
  3  4  1  0
  4  5  2  0
  5  6  1  0
  5  7  1  0
  7  8  1  0
  8  9  1  0
  9 10  1  0
 10 11  1  0
 11 12  1  0
 12 13  2  0
 12 14  1  0
 14 15  1  0
 15 16  1  0
 16 17  1  0
 17 18  1  0
 18 19  1  0
 19 20  2  0
 20 21  1  0
 21 22  2  0
 22 23  1  0
 23 24  2  0
 24 25  1  0
 25 26  2  0
 26 27  1  0
 27 28  1  0
 28 29  1  0
 29 30  1  0
 30 31  1  0
 31 32  1  0
 18 33  1  0
 11 34  1  0
 34 35  1  0
  7 36  2  0
 36  2  1  0
 35  8  1  0
 33 14  1  0
 24 19  1  0
 32 26  1  0
 27 23  1  0
  1 37  1  0
  1 38  1  0
  1 39  1  0
  3 40  1  0
  4 41  1  0
  6 42  1  0
  6 43  1  0
  6 44  1  0
  9 45  1  0
  9 46  1  0
 10 47  1  0
 10 48  1  0
 14 49  1  0
 15 50  1  0
 15 51  1  0
 16 52  1  0
 16 53  1  0
 17 54  1  0
 17 55  1  0
 21 56  1  0
 28 57  1  0
 28 58  1  0
 29 59  1  0
 29 60  1  0
 30 61  1  0
 30 62  1  0
 31 63  1  0
 31 64  1  0
 32 65  1  0
 32 66  1  0
 33 67  1  0
 33 68  1  0
 34 69  1  0
 34 70  1  0
 35 71  1  0
 35 72  1  0
 36 73  1  0
M  END
$$$$
