
     RDKit          3D

 53 56  0  0  0  0  0  0  0  0999 V2000
    1.0311   -2.3472    3.0083 O   0  0  0  0  0  0  0  0  0  0  0  0
    0.9815   -2.2503    1.7814 C   0  0  0  0  0  0  0  0  0  0  0  0
   -0.0203   -3.0542    0.9692 C   0  0  0  0  0  0  0  0  0  0  0  0
   -1.1408   -3.5720    1.8661 C   0  0  0  0  0  0  0  0  0  0  0  0
   -2.4841   -4.3460    0.9003 S   0  0  0  0  0  0  0  0  0  0  0  0
   -3.4626   -2.9114    0.5323 C   0  0  0  0  0  0  0  0  0  0  0  0
   -2.8381   -1.7542    0.2966 N   0  0  0  0  0  0  0  0  0  0  0  0
   -3.6010   -0.6837    0.0085 C   0  0  0  0  0  0  0  0  0  0  0  0
   -2.8777    0.5603   -0.2448 C   0  0  0  0  0  0  0  0  0  0  0  0
   -3.2534    1.8665   -0.5040 C   0  0  0  0  0  0  0  0  0  0  0  0
   -2.0596    2.6121   -0.6735 C   0  0  0  0  0  0  0  0  0  0  0  0
   -1.0269    1.7216   -0.5094 C   0  0  0  0  0  0  0  0  0  0  0  0
   -1.5101    0.4808   -0.2474 O   0  0  0  0  0  0  0  0  0  0  0  0
   -4.9759   -0.7525   -0.0490 C   0  0  0  0  0  0  0  0  0  0  0  0
   -5.5461   -1.9909    0.1927 C   0  0  0  0  0  0  0  0  0  0  0  0
   -7.0597   -2.1228    0.1628 C   0  0  0  0  0  0  0  0  0  0  0  0
   -7.5089   -3.3912   -0.0416 F   0  0  0  0  0  0  0  0  0  0  0  0
   -7.6256   -1.3679   -0.8257 F   0  0  0  0  0  0  0  0  0  0  0  0
   -7.6392   -1.6952    1.3206 F   0  0  0  0  0  0  0  0  0  0  0  0
   -4.7907   -3.0775    0.4891 N   0  0  0  0  0  0  0  0  0  0  0  0
    1.8534   -1.4381    1.0726 N   0  0  0  0  0  0  0  0  0  0  0  0
    1.8080   -1.2544   -0.3822 C   0  0  0  0  0  0  0  0  0  0  0  0
    2.9193   -0.3389   -0.9319 C   0  0  0  0  0  0  0  0  0  0  0  0
    2.9542    0.9407   -0.2042 N   0  0  0  0  0  0  0  0  0  0  0  0
    3.4985    2.0878   -0.7682 C   0  0  0  0  0  0  0  0  0  0  0  0
    3.2888    3.3537   -0.1927 C   0  0  0  0  0  0  0  0  0  0  0  0
    3.8176    4.5233   -0.7525 C   0  0  0  0  0  0  0  0  0  0  0  0
    4.5748    4.4574   -1.9147 C   0  0  0  0  0  0  0  0  0  0  0  0
    4.7974    3.2235   -2.5127 C   0  0  0  0  0  0  0  0  0  0  0  0
    4.2627    2.0591   -1.9457 C   0  0  0  0  0  0  0  0  0  0  0  0
    2.7409    0.8813    1.2593 C   0  0  0  0  0  0  0  0  0  0  0  0
    2.7745   -0.5611    1.7970 C   0  0  0  0  0  0  0  0  0  0  0  0
    0.5143   -3.8912    0.5053 H   0  0  0  0  0  0  0  0  0  0  0  0
   -0.4273   -2.4242    0.1765 H   0  0  0  0  0  0  0  0  0  0  0  0
   -1.5507   -2.7810    2.5046 H   0  0  0  0  0  0  0  0  0  0  0  0
   -0.7428   -4.3404    2.5387 H   0  0  0  0  0  0  0  0  0  0  0  0
   -4.2636    2.2450   -0.5662 H   0  0  0  0  0  0  0  0  0  0  0  0
   -1.9617    3.6664   -0.8907 H   0  0  0  0  0  0  0  0  0  0  0  0
    0.0511    1.8073   -0.5474 H   0  0  0  0  0  0  0  0  0  0  0  0
   -5.5876    0.1119   -0.2781 H   0  0  0  0  0  0  0  0  0  0  0  0
    0.8356   -0.8123   -0.6222 H   0  0  0  0  0  0  0  0  0  0  0  0
    1.8562   -2.2378   -0.8620 H   0  0  0  0  0  0  0  0  0  0  0  0
    3.8930   -0.8353   -0.8412 H   0  0  0  0  0  0  0  0  0  0  0  0
    2.7123   -0.1834   -1.9971 H   0  0  0  0  0  0  0  0  0  0  0  0
    2.6832    3.4566    0.7036 H   0  0  0  0  0  0  0  0  0  0  0  0
    3.6307    5.4825   -0.2775 H   0  0  0  0  0  0  0  0  0  0  0  0
    4.9883    5.3616   -2.3523 H   0  0  0  0  0  0  0  0  0  0  0  0
    5.3913    3.1582   -3.4205 H   0  0  0  0  0  0  0  0  0  0  0  0
    4.4836    1.1196   -2.4430 H   0  0  0  0  0  0  0  0  0  0  0  0
    1.7652    1.3269    1.4875 H   0  0  0  0  0  0  0  0  0  0  0  0
    3.5124    1.4514    1.7909 H   0  0  0  0  0  0  0  0  0  0  0  0
    3.7783   -0.9846    1.6706 H   0  0  0  0  0  0  0  0  0  0  0  0
    2.5562   -0.5560    2.8696 H   0  0  0  0  0  0  0  0  0  0  0  0
  1  2  2  0
  2  3  1  0
  3  4  1  0
  4  5  1  0
  5  6  1  0
  6  7  2  0
  7  8  1  0
  8  9  1  0
  9 10  2  0
 10 11  1  0
 11 12  2  0
 12 13  1  0
  8 14  2  0
 14 15  1  0
 15 16  1  0
 16 17  1  0
 16 18  1  0
 16 19  1  0
 15 20  2  0
  2 21  1  0
 21 22  1  0
 22 23  1  0
 23 24  1  0
 24 25  1  0
 25 26  2  0
 26 27  1  0
 27 28  2  0
 28 29  1  0
 29 30  2  0
 24 31  1  0
 31 32  1  0
 20  6  1  0
 32 21  1  0
 13  9  1  0
 30 25  1  0
  3 33  1  0
  3 34  1  0
  4 35  1  0
  4 36  1  0
 10 37  1  0
 11 38  1  0
 12 39  1  0
 14 40  1  0
 22 41  1  0
 22 42  1  0
 23 43  1  0
 23 44  1  0
 26 45  1  0
 27 46  1  0
 28 47  1  0
 29 48  1  0
 30 49  1  0
 31 50  1  0
 31 51  1  0
 32 52  1  0
 32 53  1  0
M  END
$$$$
