
     RDKit          3D

 50 52  0  0  0  0  0  0  0  0999 V2000
    3.4204    1.5562   -2.0565 O   0  0  0  0  0  0  0  0  0  0  0  0
    3.7335    0.4228   -1.7133 C   0  0  0  0  0  0  0  0  0  0  0  0
    5.0693   -0.2188   -1.9958 C   0  0  0  0  0  0  0  0  0  0  0  0
    6.0412   -0.0520   -0.8556 C   0  0  0  0  0  0  0  0  0  0  0  0
    6.0921   -1.0016    0.1770 C   0  0  0  0  0  0  0  0  0  0  0  0
    6.9760   -0.8351    1.2438 C   0  0  0  0  0  0  0  0  0  0  0  0
    7.8028    0.2810    1.2815 C   0  0  0  0  0  0  0  0  0  0  0  0
    8.6500    0.4404    2.3067 F   0  0  0  0  0  0  0  0  0  0  0  0
    7.7602    1.2370    0.2739 C   0  0  0  0  0  0  0  0  0  0  0  0
    6.8770    1.0738   -0.7941 C   0  0  0  0  0  0  0  0  0  0  0  0
    2.9353   -0.4219   -1.0079 O   0  0  0  0  0  0  0  0  0  0  0  0
    1.6742    0.1409   -0.6476 C   0  0  0  0  0  0  0  0  0  0  0  0
    0.8280   -0.8660    0.1376 C   0  0  0  0  0  0  0  0  0  0  0  0
    1.2470   -1.9973    0.3911 O   0  0  0  0  0  0  0  0  0  0  0  0
   -0.4481   -0.4533    0.5282 N   0  0  0  0  0  0  0  0  0  0  0  0
   -0.8724    0.9550    0.5433 C   0  0  0  0  0  0  0  0  0  0  0  0
   -2.3988    1.1146    0.4489 C   0  0  0  0  0  0  0  0  0  0  0  0
   -3.0630    0.2810    1.4859 N   0  0  0  0  0  0  0  0  0  0  0  0
   -4.6795    0.6424    1.8487 S   0  0  0  0  0  6  0  0  0  0  0  0
   -5.1116   -0.2443    2.9074 O   0  0  0  0  0  0  0  0  0  0  0  0
   -4.7958    2.0792    1.9797 O   0  0  0  0  0  0  0  0  0  0  0  0
   -5.5525    0.1704    0.3677 C   0  0  0  0  0  0  0  0  0  0  0  0
   -6.0640   -1.1269    0.2499 C   0  0  0  0  0  0  0  0  0  0  0  0
   -6.7696   -1.4865   -0.9004 C   0  0  0  0  0  0  0  0  0  0  0  0
   -6.9729   -0.5475   -1.9126 C   0  0  0  0  0  0  0  0  0  0  0  0
   -7.8410   -0.9946   -3.3286 Cl  0  0  0  0  0  0  0  0  0  0  0  0
   -6.4843    0.7535   -1.7831 C   0  0  0  0  0  0  0  0  0  0  0  0
   -5.7776    1.1196   -0.6355 C   0  0  0  0  0  0  0  0  0  0  0  0
   -2.7059   -1.1586    1.3459 C   0  0  0  0  0  0  0  0  0  0  0  0
   -1.1845   -1.3326    1.4470 C   0  0  0  0  0  0  0  0  0  0  0  0
    4.9206   -1.2800   -2.2306 H   0  0  0  0  0  0  0  0  0  0  0  0
    5.4758    0.2234   -2.9137 H   0  0  0  0  0  0  0  0  0  0  0  0
    5.4395   -1.8732    0.1593 H   0  0  0  0  0  0  0  0  0  0  0  0
    7.0218   -1.5654    2.0452 H   0  0  0  0  0  0  0  0  0  0  0  0
    8.4114    2.1035    0.3283 H   0  0  0  0  0  0  0  0  0  0  0  0
    6.8422    1.8312   -1.5751 H   0  0  0  0  0  0  0  0  0  0  0  0
    1.1264    0.4097   -1.5578 H   0  0  0  0  0  0  0  0  0  0  0  0
    1.8445    1.0173   -0.0124 H   0  0  0  0  0  0  0  0  0  0  0  0
   -0.5033    1.3860    1.4819 H   0  0  0  0  0  0  0  0  0  0  0  0
   -0.4084    1.5064   -0.2783 H   0  0  0  0  0  0  0  0  0  0  0  0
   -2.6453    2.1721    0.5839 H   0  0  0  0  0  0  0  0  0  0  0  0
   -2.7380    0.8007   -0.5448 H   0  0  0  0  0  0  0  0  0  0  0  0
   -5.9256   -1.8555    1.0462 H   0  0  0  0  0  0  0  0  0  0  0  0
   -7.1665   -2.4943   -0.9977 H   0  0  0  0  0  0  0  0  0  0  0  0
   -6.6602    1.4868   -2.5666 H   0  0  0  0  0  0  0  0  0  0  0  0
   -5.4172    2.1407   -0.5284 H   0  0  0  0  0  0  0  0  0  0  0  0
   -3.0528   -1.5278    0.3741 H   0  0  0  0  0  0  0  0  0  0  0  0
   -3.1774   -1.7533    2.1343 H   0  0  0  0  0  0  0  0  0  0  0  0
   -0.9295   -2.3809    1.2583 H   0  0  0  0  0  0  0  0  0  0  0  0
   -0.8434   -1.0876    2.4606 H   0  0  0  0  0  0  0  0  0  0  0  0
  1  2  2  0
  2  3  1  0
  3  4  1  0
  4  5  2  0
  5  6  1  0
  6  7  2  0
  7  8  1  0
  7  9  1  0
  9 10  2  0
  2 11  1  0
 11 12  1  0
 12 13  1  0
 13 14  2  0
 13 15  1  0
 15 16  1  0
 16 17  1  0
 17 18  1  0
 18 19  1  0
 19 20  2  0
 19 21  2  0
 19 22  1  0
 22 23  2  0
 23 24  1  0
 24 25  2  0
 25 26  1  0
 25 27  1  0
 27 28  2  0
 18 29  1  0
 29 30  1  0
 10  4  1  0
 30 15  1  0
 28 22  1  0
  3 31  1  0
  3 32  1  0
  5 33  1  0
  6 34  1  0
  9 35  1  0
 10 36  1  0
 12 37  1  0
 12 38  1  0
 16 39  1  0
 16 40  1  0
 17 41  1  0
 17 42  1  0
 23 43  1  0
 24 44  1  0
 27 45  1  0
 28 46  1  0
 29 47  1  0
 29 48  1  0
 30 49  1  0
 30 50  1  0
M  END
$$$$
