
     RDKit          3D

 55 58  0  0  0  0  0  0  0  0999 V2000
   -0.7950   -3.8177    1.8261 C   0  0  0  0  0  0  0  0  0  0  0  0
   -1.3318   -3.2217    0.6058 N   0  0  0  0  0  0  0  0  0  0  0  0
   -1.2856   -4.0720   -0.5865 C   0  0  0  0  0  0  0  0  0  0  0  0
   -1.2723   -1.8375    0.4178 C   0  0  0  0  0  0  0  0  0  0  0  0
   -1.8208   -1.2291   -0.7250 C   0  0  0  0  0  0  0  0  0  0  0  0
   -1.7781    0.1570   -0.9276 C   0  0  0  0  0  0  0  0  0  0  0  0
   -1.1815    0.9954    0.0125 C   0  0  0  0  0  0  0  0  0  0  0  0
   -1.1504    2.3903   -0.2199 N   0  0  0  0  0  0  0  0  0  0  0  0
    0.0726    3.0735   -0.2614 C   0  0  0  0  0  0  0  0  0  0  0  0
    1.2377    2.8217   -0.7371 N   0  0  0  0  0  0  0  0  0  0  0  0
    1.3670    1.6927   -1.5015 C   0  0  0  0  0  0  0  0  0  0  0  0
    0.7639    1.5160   -2.5562 O   0  0  0  0  0  0  0  0  0  0  0  0
    2.3950    0.7155   -0.9705 C   0  0  0  0  0  0  0  0  0  0  0  0
    2.3603   -0.5990   -1.7427 C   0  0  0  0  0  0  0  0  0  0  0  0
    3.2864   -1.6257   -1.1419 C   0  0  0  0  0  0  0  0  0  0  0  0
    2.7844   -2.6232   -0.2968 C   0  0  0  0  0  0  0  0  0  0  0  0
    3.6415   -3.5689    0.2687 C   0  0  0  0  0  0  0  0  0  0  0  0
    5.0077   -3.5218   -0.0015 C   0  0  0  0  0  0  0  0  0  0  0  0
    5.5178   -2.5304   -0.8375 C   0  0  0  0  0  0  0  0  0  0  0  0
    4.6618   -1.5852   -1.4051 C   0  0  0  0  0  0  0  0  0  0  0  0
   -0.0984    4.6908    0.5191 S   0  0  0  0  0  0  0  0  0  0  0  0
   -1.8891    4.5839    0.3350 C   0  0  0  0  0  0  0  0  0  0  0  0
   -2.8254    5.3243    1.2567 C   0  0  0  0  0  0  0  0  0  0  0  0
   -4.3302    4.3414    1.1099 S   0  0  0  0  0  6  0  0  0  0  0  0
   -4.7516    3.9660    2.4416 O   0  0  0  0  0  0  0  0  0  0  0  0
   -5.2167    4.9868    0.1668 O   0  0  0  0  0  0  0  0  0  0  0  0
   -3.5987    2.9010    0.3149 C   0  0  0  0  0  0  0  0  0  0  0  0
   -2.1297    3.0993    0.6178 C   0  0  0  0  0  0  0  0  0  0  0  0
   -0.6389    0.4171    1.1625 C   0  0  0  0  0  0  0  0  0  0  0  0
   -0.6953   -0.9704    1.3606 C   0  0  0  0  0  0  0  0  0  0  0  0
    0.2968   -3.7416    1.8539 H   0  0  0  0  0  0  0  0  0  0  0  0
   -1.2176   -3.3456    2.7189 H   0  0  0  0  0  0  0  0  0  0  0  0
   -1.0624   -4.8796    1.8920 H   0  0  0  0  0  0  0  0  0  0  0  0
   -1.1789   -5.1276   -0.3187 H   0  0  0  0  0  0  0  0  0  0  0  0
   -0.4338   -3.8107   -1.2247 H   0  0  0  0  0  0  0  0  0  0  0  0
   -2.2123   -3.9956   -1.1644 H   0  0  0  0  0  0  0  0  0  0  0  0
   -2.3095   -1.8250   -1.4918 H   0  0  0  0  0  0  0  0  0  0  0  0
   -2.1947    0.5714   -1.8430 H   0  0  0  0  0  0  0  0  0  0  0  0
    2.1910    0.5363    0.0907 H   0  0  0  0  0  0  0  0  0  0  0  0
    3.3831    1.1841   -1.0483 H   0  0  0  0  0  0  0  0  0  0  0  0
    1.3389   -0.9995   -1.7716 H   0  0  0  0  0  0  0  0  0  0  0  0
    2.6402   -0.4334   -2.7903 H   0  0  0  0  0  0  0  0  0  0  0  0
    1.7207   -2.6693   -0.0764 H   0  0  0  0  0  0  0  0  0  0  0  0
    3.2433   -4.3414    0.9209 H   0  0  0  0  0  0  0  0  0  0  0  0
    5.6762   -4.2550    0.4416 H   0  0  0  0  0  0  0  0  0  0  0  0
    6.5833   -2.4928   -1.0482 H   0  0  0  0  0  0  0  0  0  0  0  0
    5.0740   -0.8159   -2.0547 H   0  0  0  0  0  0  0  0  0  0  0  0
   -2.1254    4.8265   -0.7102 H   0  0  0  0  0  0  0  0  0  0  0  0
   -2.5037    5.2998    2.3035 H   0  0  0  0  0  0  0  0  0  0  0  0
   -3.0220    6.3503    0.9372 H   0  0  0  0  0  0  0  0  0  0  0  0
   -3.8209    2.9420   -0.7556 H   0  0  0  0  0  0  0  0  0  0  0  0
   -4.0139    1.9916    0.7541 H   0  0  0  0  0  0  0  0  0  0  0  0
   -1.9499    2.8837    1.6848 H   0  0  0  0  0  0  0  0  0  0  0  0
   -0.1583    1.0322    1.9209 H   0  0  0  0  0  0  0  0  0  0  0  0
   -0.2511   -1.3553    2.2748 H   0  0  0  0  0  0  0  0  0  0  0  0
  1  2  1  0
  2  3  1  0
  2  4  1  0
  4  5  2  0
  5  6  1  0
  6  7  2  0
  7  8  1  0
  8  9  1  0
  9 10  2  3
 10 11  1  0
 11 12  2  0
 11 13  1  0
 13 14  1  0
 14 15  1  0
 15 16  2  0
 16 17  1  0
 17 18  2  0
 18 19  1  0
 19 20  2  0
  9 21  1  0
 21 22  1  0
 22 23  1  0
 23 24  1  0
 24 25  2  0
 24 26  2  0
 24 27  1  0
 27 28  1  0
  7 29  1  0
 29 30  2  0
 30  4  1  0
 28  8  1  0
 20 15  1  0
 28 22  1  0
  1 31  1  0
  1 32  1  0
  1 33  1  0
  3 34  1  0
  3 35  1  0
  3 36  1  0
  5 37  1  0
  6 38  1  0
 13 39  1  0
 13 40  1  0
 14 41  1  0
 14 42  1  0
 16 43  1  0
 17 44  1  0
 18 45  1  0
 19 46  1  0
 20 47  1  0
 22 48  1  0
 23 49  1  0
 23 50  1  0
 27 51  1  0
 27 52  1  0
 28 53  1  0
 29 54  1  0
 30 55  1  0
M  END
$$$$
