
     RDKit          3D

 41 44  0  0  0  0  0  0  0  0999 V2000
   -1.5010    0.6131    3.3052 C   0  0  0  0  0  0  0  0  0  0  0  0
   -2.4265    0.1643    2.1813 C   0  0  0  0  0  0  0  0  0  0  0  0
   -3.2420    1.3482    1.6133 C   0  0  0  0  0  0  0  0  0  0  0  0
   -3.2994    0.9741    0.1729 C   0  0  0  0  0  0  0  0  0  0  0  0
   -4.0982    1.5179   -0.8208 C   0  0  0  0  0  0  0  0  0  0  0  0
   -3.9603    1.0268   -2.1180 C   0  0  0  0  0  0  0  0  0  0  0  0
   -3.0272    0.0193   -2.3983 C   0  0  0  0  0  0  0  0  0  0  0  0
   -2.2222   -0.5113   -1.3841 C   0  0  0  0  0  0  0  0  0  0  0  0
   -2.3686   -0.0346   -0.0901 C   0  0  0  0  0  0  0  0  0  0  0  0
   -1.6342   -0.4087    1.0608 N   0  0  0  0  0  0  0  0  0  0  0  0
   -1.2548   -1.8409    1.1623 C   0  0  0  0  0  0  0  0  0  0  0  0
    0.1558   -2.1004    0.6059 C   0  0  0  0  0  0  0  0  0  0  0  0
    0.5867   -3.2436    0.4813 O   0  0  0  0  0  0  0  0  0  0  0  0
    0.8277   -0.9274    0.3162 N   0  0  0  0  0  0  0  0  0  0  0  0
    2.1241   -0.7526   -0.1905 C   0  0  0  0  0  0  0  0  0  0  0  0
    3.0107   -1.8167   -0.4425 C   0  0  0  0  0  0  0  0  0  0  0  0
    4.2957   -1.5794   -0.9482 C   0  0  0  0  0  0  0  0  0  0  0  0
    4.6612   -0.2746   -1.1889 C   0  0  0  0  0  0  0  0  0  0  0  0
    3.8021    0.7687   -0.9446 C   0  0  0  0  0  0  0  0  0  0  0  0
    2.5316    0.5643   -0.4470 C   0  0  0  0  0  0  0  0  0  0  0  0
    4.3523    1.9755   -1.2472 O   0  0  0  0  0  0  0  0  0  0  0  0
    5.6563    1.5691   -1.7126 C   0  0  0  0  0  0  0  0  0  0  0  0
    5.8599    0.1415   -1.6759 O   0  0  0  0  0  0  0  0  0  0  0  0
   -2.0727    1.0736    4.1174 H   0  0  0  0  0  0  0  0  0  0  0  0
   -0.9465   -0.2349    3.7204 H   0  0  0  0  0  0  0  0  0  0  0  0
   -0.7648    1.3416    2.9477 H   0  0  0  0  0  0  0  0  0  0  0  0
   -3.1229   -0.5968    2.5619 H   0  0  0  0  0  0  0  0  0  0  0  0
   -4.2332    1.4032    2.0729 H   0  0  0  0  0  0  0  0  0  0  0  0
   -2.7235    2.3060    1.7300 H   0  0  0  0  0  0  0  0  0  0  0  0
   -4.8103    2.3064   -0.6005 H   0  0  0  0  0  0  0  0  0  0  0  0
   -4.5730    1.4321   -2.9195 H   0  0  0  0  0  0  0  0  0  0  0  0
   -2.9208   -0.3481   -3.4164 H   0  0  0  0  0  0  0  0  0  0  0  0
   -1.4933   -1.2753   -1.6321 H   0  0  0  0  0  0  0  0  0  0  0  0
   -1.9737   -2.4886    0.6476 H   0  0  0  0  0  0  0  0  0  0  0  0
   -1.2250   -2.1417    2.2162 H   0  0  0  0  0  0  0  0  0  0  0  0
    0.2478   -0.0989    0.4586 H   0  0  0  0  0  0  0  0  0  0  0  0
    2.7243   -2.8467   -0.2508 H   0  0  0  0  0  0  0  0  0  0  0  0
    4.9789   -2.3983   -1.1428 H   0  0  0  0  0  0  0  0  0  0  0  0
    1.8784    1.4109   -0.2681 H   0  0  0  0  0  0  0  0  0  0  0  0
    5.7835    1.9150   -2.7449 H   0  0  0  0  0  0  0  0  0  0  0  0
    6.4170    2.0479   -1.0853 H   0  0  0  0  0  0  0  0  0  0  0  0
  1  2  1  0
  2  3  1  0
  3  4  1  0
  4  5  2  0
  5  6  1  0
  6  7  2  0
  7  8  1  0
  8  9  2  0
  9 10  1  0
 10 11  1  0
 11 12  1  0
 12 13  2  0
 12 14  1  0
 14 15  1  0
 15 16  2  0
 16 17  1  0
 17 18  2  0
 18 19  1  0
 19 20  2  0
 19 21  1  0
 21 22  1  0
 22 23  1  0
 10  2  1  0
 20 15  1  0
  9  4  1  0
 23 18  1  0
  1 24  1  0
  1 25  1  0
  1 26  1  0
  2 27  1  0
  3 28  1  0
  3 29  1  0
  5 30  1  0
  6 31  1  0
  7 32  1  0
  8 33  1  0
 11 34  1  0
 11 35  1  0
 14 36  1  0
 16 37  1  0
 17 38  1  0
 20 39  1  0
 22 40  1  0
 22 41  1  0
M  END
$$$$
