
     RDKit          3D

 47 49  0  0  0  0  0  0  0  0999 V2000
    4.6915    0.1711    2.9625 C   0  0  0  0  0  0  0  0  0  0  0  0
    3.9948    0.1985    1.7218 O   0  0  0  0  0  0  0  0  0  0  0  0
    4.7579    0.1688    0.5753 C   0  0  0  0  0  0  0  0  0  0  0  0
    6.1562    0.1531    0.5456 C   0  0  0  0  0  0  0  0  0  0  0  0
    6.8317    0.1196   -0.6768 C   0  0  0  0  0  0  0  0  0  0  0  0
    6.1161    0.1061   -1.8708 C   0  0  0  0  0  0  0  0  0  0  0  0
    4.7200    0.1256   -1.8524 C   0  0  0  0  0  0  0  0  0  0  0  0
    4.0321    0.1513   -0.6366 C   0  0  0  0  0  0  0  0  0  0  0  0
    2.6224    0.1826   -0.5384 N   0  0  0  0  0  0  0  0  0  0  0  0
    1.6915   -0.0014   -1.5313 C   0  0  0  0  0  0  0  0  0  0  0  0
    1.9534   -0.3396   -2.6837 O   0  0  0  0  0  0  0  0  0  0  0  0
    0.3732    0.2202   -1.1274 N   0  0  0  0  0  0  0  0  0  0  0  0
   -0.6922   -0.0949   -2.0717 C   0  0  0  0  0  0  0  0  0  0  0  0
   -1.9776   -0.4923   -1.3562 C   0  0  0  0  0  0  0  0  0  0  0  0
   -2.4869    0.6062   -0.4109 C   0  0  0  0  0  0  0  0  0  0  0  0
   -3.1248   -0.0324    0.8247 C   0  0  0  0  0  0  0  0  0  0  0  0
   -2.4990   -0.1484    1.8790 O   0  0  0  0  0  0  0  0  0  0  0  0
   -4.5304   -0.5520    0.7617 C   0  0  0  0  0  0  0  0  0  0  0  0
   -5.3116   -0.5041   -0.4019 C   0  0  0  0  0  0  0  0  0  0  0  0
   -6.6169   -1.0083   -0.3934 C   0  0  0  0  0  0  0  0  0  0  0  0
   -7.1397   -1.5570    0.7723 C   0  0  0  0  0  0  0  0  0  0  0  0
   -8.3895   -2.0375    0.7706 F   0  0  0  0  0  0  0  0  0  0  0  0
   -6.3830   -1.6135    1.9353 C   0  0  0  0  0  0  0  0  0  0  0  0
   -5.0790   -1.1120    1.9296 C   0  0  0  0  0  0  0  0  0  0  0  0
   -1.3684    1.5806    0.0041 C   0  0  0  0  0  0  0  0  0  0  0  0
   -0.0121    0.8897    0.1179 C   0  0  0  0  0  0  0  0  0  0  0  0
    5.3211    1.0597    3.0810 H   0  0  0  0  0  0  0  0  0  0  0  0
    5.2771   -0.7478    3.0664 H   0  0  0  0  0  0  0  0  0  0  0  0
    3.9461    0.1834    3.7637 H   0  0  0  0  0  0  0  0  0  0  0  0
    6.7520    0.1623    1.4521 H   0  0  0  0  0  0  0  0  0  0  0  0
    7.9187    0.1030   -0.6971 H   0  0  0  0  0  0  0  0  0  0  0  0
    6.6418    0.0760   -2.8212 H   0  0  0  0  0  0  0  0  0  0  0  0
    4.1943    0.1241   -2.8020 H   0  0  0  0  0  0  0  0  0  0  0  0
    2.2896    0.1599    0.4157 H   0  0  0  0  0  0  0  0  0  0  0  0
   -0.3791   -0.9072   -2.7367 H   0  0  0  0  0  0  0  0  0  0  0  0
   -0.8550    0.7917   -2.6961 H   0  0  0  0  0  0  0  0  0  0  0  0
   -2.7474   -0.7264   -2.1009 H   0  0  0  0  0  0  0  0  0  0  0  0
   -1.7983   -1.4218   -0.7994 H   0  0  0  0  0  0  0  0  0  0  0  0
   -3.2451    1.2193   -0.9109 H   0  0  0  0  0  0  0  0  0  0  0  0
   -4.9377   -0.0866   -1.3316 H   0  0  0  0  0  0  0  0  0  0  0  0
   -7.2284   -0.9783   -1.2907 H   0  0  0  0  0  0  0  0  0  0  0  0
   -6.8083   -2.0460    2.8364 H   0  0  0  0  0  0  0  0  0  0  0  0
   -4.4904   -1.1615    2.8449 H   0  0  0  0  0  0  0  0  0  0  0  0
   -1.2937    2.3693   -0.7573 H   0  0  0  0  0  0  0  0  0  0  0  0
   -1.6101    2.0863    0.9466 H   0  0  0  0  0  0  0  0  0  0  0  0
    0.7455    1.6354    0.3823 H   0  0  0  0  0  0  0  0  0  0  0  0
   -0.0223    0.1284    0.9056 H   0  0  0  0  0  0  0  0  0  0  0  0
  1  2  1  0
  2  3  1  0
  3  4  2  0
  4  5  1  0
  5  6  2  0
  6  7  1  0
  7  8  2  0
  8  9  1  0
  9 10  1  0
 10 11  2  0
 10 12  1  0
 12 13  1  0
 13 14  1  0
 14 15  1  0
 15 16  1  0
 16 17  2  0
 16 18  1  0
 18 19  2  0
 19 20  1  0
 20 21  2  0
 21 22  1  0
 21 23  1  0
 23 24  2  0
 15 25  1  0
 25 26  1  0
  8  3  1  0
 26 12  1  0
 24 18  1  0
  1 27  1  0
  1 28  1  0
  1 29  1  0
  4 30  1  0
  5 31  1  0
  6 32  1  0
  7 33  1  0
  9 34  1  0
 13 35  1  0
 13 36  1  0
 14 37  1  0
 14 38  1  0
 15 39  1  0
 19 40  1  0
 20 41  1  0
 23 42  1  0
 24 43  1  0
 25 44  1  0
 25 45  1  0
 26 46  1  0
 26 47  1  0
M  END
$$$$
