
     RDKit          3D

 36 38  0  0  0  0  0  0  0  0999 V2000
   -2.4103    1.0376    0.4575 C   0  0  0  0  0  0  0  0  0  0  0  0
   -1.9514   -0.3596    0.8202 C   0  0  0  0  0  0  0  0  0  0  0  0
   -0.7190   -0.7679    0.7152 N   0  0  0  0  0  0  0  0  0  0  0  0
    0.2209    0.0879    0.2343 N   0  0  0  0  0  0  0  0  0  0  0  0
    1.4788   -0.4523   -0.1165 C   0  0  0  0  0  0  0  0  0  0  0  0
    1.7589   -1.7527    0.1710 N   0  0  0  0  0  0  0  0  0  0  0  0
    2.9242   -2.2769   -0.2149 C   0  0  0  0  0  0  0  0  0  0  0  0
    3.9015   -1.6674   -0.8812 N   0  0  0  0  0  0  0  0  0  0  0  0
    3.6219   -0.3779   -1.1297 C   0  0  0  0  0  0  0  0  0  0  0  0
    4.7492    0.5766   -1.9652 S   0  0  0  0  0  0  0  0  0  0  0  0
    3.7597    1.9646   -1.8622 C   0  0  0  0  0  0  0  0  0  0  0  0
    4.2499    3.2482   -2.4511 C   0  0  0  0  0  0  0  0  0  0  0  0
    2.5707    1.7130   -1.1899 C   0  0  0  0  0  0  0  0  0  0  0  0
    1.5371    2.7591   -0.9109 C   0  0  0  0  0  0  0  0  0  0  0  0
    2.4700    0.3135   -0.7839 C   0  0  0  0  0  0  0  0  0  0  0  0
   -2.9905   -1.3247    1.3010 C   0  0  0  0  0  0  0  0  0  0  0  0
   -2.6088   -2.5579    1.8198 C   0  0  0  0  0  0  0  0  0  0  0  0
   -3.6035   -3.4363    2.2396 C   0  0  0  0  0  0  0  0  0  0  0  0
   -4.9374   -3.0631    2.1219 C   0  0  0  0  0  0  0  0  0  0  0  0
   -5.2262   -1.8177    1.5886 C   0  0  0  0  0  0  0  0  0  0  0  0
   -4.2869   -0.9381    1.1773 N   0  0  0  0  0  0  0  0  0  0  0  0
   -2.5247    1.1007   -0.6271 H   0  0  0  0  0  0  0  0  0  0  0  0
   -3.3612    1.2930    0.9295 H   0  0  0  0  0  0  0  0  0  0  0  0
   -1.6833    1.7821    0.7917 H   0  0  0  0  0  0  0  0  0  0  0  0
   -0.0622    0.8283   -0.3965 H   0  0  0  0  0  0  0  0  0  0  0  0
    3.0869   -3.3188    0.0393 H   0  0  0  0  0  0  0  0  0  0  0  0
    3.4374    3.7711   -2.9672 H   0  0  0  0  0  0  0  0  0  0  0  0
    4.6333    3.9000   -1.6598 H   0  0  0  0  0  0  0  0  0  0  0  0
    5.0510    3.0908   -3.1807 H   0  0  0  0  0  0  0  0  0  0  0  0
    0.6713    2.6169   -1.5661 H   0  0  0  0  0  0  0  0  0  0  0  0
    1.2084    2.7149    0.1314 H   0  0  0  0  0  0  0  0  0  0  0  0
    1.9216    3.7695   -1.0791 H   0  0  0  0  0  0  0  0  0  0  0  0
   -1.5610   -2.8333    1.8922 H   0  0  0  0  0  0  0  0  0  0  0  0
   -3.3363   -4.4062    2.6480 H   0  0  0  0  0  0  0  0  0  0  0  0
   -5.7351   -3.7286    2.4342 H   0  0  0  0  0  0  0  0  0  0  0  0
   -6.2549   -1.4884    1.4693 H   0  0  0  0  0  0  0  0  0  0  0  0
  1  2  1  0
  2  3  2  3
  3  4  1  0
  4  5  1  0
  5  6  2  0
  6  7  1  0
  7  8  2  0
  8  9  1  0
  9 10  1  0
 10 11  1  0
 11 12  1  0
 11 13  2  0
 13 14  1  0
 13 15  1  0
  2 16  1  0
 16 17  2  0
 17 18  1  0
 18 19  2  0
 19 20  1  0
 20 21  2  0
 15  5  1  0
 21 16  1  0
 15  9  2  0
  1 22  1  0
  1 23  1  0
  1 24  1  0
  4 25  1  0
  7 26  1  0
 12 27  1  0
 12 28  1  0
 12 29  1  0
 14 30  1  0
 14 31  1  0
 14 32  1  0
 17 33  1  0
 18 34  1  0
 19 35  1  0
 20 36  1  0
M  END
$$$$
