
     RDKit          3D

 44 46  0  0  0  0  0  0  0  0999 V2000
    6.6014    1.6565   -0.4412 C   0  0  0  0  0  0  0  0  0  0  0  0
    5.3629    1.4540    0.2256 O   0  0  0  0  0  0  0  0  0  0  0  0
    4.7281    0.2226   -0.1234 C   0  0  0  0  0  0  0  0  0  0  0  0
    3.9379    0.3612   -1.4213 C   0  0  0  0  0  0  0  0  0  0  0  0
    3.2051   -0.9227   -1.8289 C   0  0  0  0  0  0  0  0  0  0  0  0
    2.1108   -1.2932   -0.9160 N   0  0  0  0  0  0  0  0  0  0  0  0
    2.2215   -2.3474   -0.0093 C   0  0  0  0  0  0  0  0  0  0  0  0
    3.5380   -3.3649    0.2130 S   0  0  0  0  0  0  0  0  0  0  0  0
    1.1415   -2.5878    0.7962 N   0  0  0  0  0  0  0  0  0  0  0  0
   -0.0412   -1.8569    0.7549 C   0  0  0  0  0  0  0  0  0  0  0  0
   -1.0844   -2.1633    1.6185 C   0  0  0  0  0  0  0  0  0  0  0  0
   -2.2701   -1.4181    1.5623 C   0  0  0  0  0  0  0  0  0  0  0  0
   -2.4487   -0.3580    0.6553 C   0  0  0  0  0  0  0  0  0  0  0  0
   -3.6257    0.3656    0.6080 N   0  0  0  0  0  0  0  0  0  0  0  0
   -4.5520    0.4289    1.7520 C   0  0  0  0  0  0  0  0  0  0  0  0
   -5.2987    1.7738    1.7597 C   0  0  0  0  0  0  0  0  0  0  0  0
   -6.0628    2.0234    0.5727 O   0  0  0  0  0  0  0  0  0  0  0  0
   -5.4995    1.4216   -0.6013 C   0  0  0  0  0  0  0  0  0  0  0  0
   -3.9753    1.2227   -0.5386 C   0  0  0  0  0  0  0  0  0  0  0  0
   -1.3729   -0.0835   -0.2037 C   0  0  0  0  0  0  0  0  0  0  0  0
   -0.1823   -0.8247   -0.1524 C   0  0  0  0  0  0  0  0  0  0  0  0
    0.9405   -0.5252   -1.0583 C   0  0  0  0  0  0  0  0  0  0  0  0
    0.8032    0.3660   -1.8949 O   0  0  0  0  0  0  0  0  0  0  0  0
    7.3007    0.8484   -0.2060 H   0  0  0  0  0  0  0  0  0  0  0  0
    6.4592    1.7296   -1.5224 H   0  0  0  0  0  0  0  0  0  0  0  0
    7.0297    2.5981   -0.0868 H   0  0  0  0  0  0  0  0  0  0  0  0
    4.0458   -0.0122    0.6996 H   0  0  0  0  0  0  0  0  0  0  0  0
    5.4678   -0.5838   -0.1824 H   0  0  0  0  0  0  0  0  0  0  0  0
    3.2386    1.2002   -1.3255 H   0  0  0  0  0  0  0  0  0  0  0  0
    4.6181    0.6395   -2.2345 H   0  0  0  0  0  0  0  0  0  0  0  0
    3.9254   -1.7367   -1.9449 H   0  0  0  0  0  0  0  0  0  0  0  0
    2.7710   -0.7689   -2.8253 H   0  0  0  0  0  0  0  0  0  0  0  0
    1.2345   -3.3504    1.4582 H   0  0  0  0  0  0  0  0  0  0  0  0
   -1.0020   -2.9751    2.3354 H   0  0  0  0  0  0  0  0  0  0  0  0
   -3.0735   -1.7045    2.2367 H   0  0  0  0  0  0  0  0  0  0  0  0
   -4.0176    0.3387    2.7046 H   0  0  0  0  0  0  0  0  0  0  0  0
   -5.2695   -0.3957    1.6699 H   0  0  0  0  0  0  0  0  0  0  0  0
   -5.9885    1.8152    2.6087 H   0  0  0  0  0  0  0  0  0  0  0  0
   -4.5886    2.6012    1.8769 H   0  0  0  0  0  0  0  0  0  0  0  0
   -6.0000    0.4571   -0.7478 H   0  0  0  0  0  0  0  0  0  0  0  0
   -5.7612    2.0567   -1.4536 H   0  0  0  0  0  0  0  0  0  0  0  0
   -3.6576    0.7668   -1.4833 H   0  0  0  0  0  0  0  0  0  0  0  0
   -3.4762    2.1922   -0.4262 H   0  0  0  0  0  0  0  0  0  0  0  0
   -1.4334    0.7328   -0.9190 H   0  0  0  0  0  0  0  0  0  0  0  0
  1  2  1  0
  2  3  1  0
  3  4  1  0
  4  5  1  0
  5  6  1  0
  6  7  1  0
  7  8  2  0
  7  9  1  0
  9 10  1  0
 10 11  2  0
 11 12  1  0
 12 13  2  0
 13 14  1  0
 14 15  1  0
 15 16  1  0
 16 17  1  0
 17 18  1  0
 18 19  1  0
 13 20  1  0
 20 21  2  0
 21 22  1  0
 22 23  2  0
 22  6  1  0
 21 10  1  0
 19 14  1  0
  1 24  1  0
  1 25  1  0
  1 26  1  0
  3 27  1  0
  3 28  1  0
  4 29  1  0
  4 30  1  0
  5 31  1  0
  5 32  1  0
  9 33  1  0
 11 34  1  0
 12 35  1  0
 15 36  1  0
 15 37  1  0
 16 38  1  0
 16 39  1  0
 18 40  1  0
 18 41  1  0
 19 42  1  0
 19 43  1  0
 20 44  1  0
M  END
$$$$
