
     RDKit          3D

 59 62  0  0  0  0  0  0  0  0999 V2000
   -5.9297    1.2669   -2.9564 C   0  0  0  0  0  0  0  0  0  0  0  0
   -5.9552    0.1302   -1.9296 C   0  0  0  0  0  0  0  0  0  0  0  0
   -6.9706    0.4018   -0.8111 C   0  0  0  0  0  0  0  0  0  0  0  0
   -6.4739    1.4674    0.1632 C   0  0  0  0  0  0  0  0  0  0  0  0
   -5.0623    1.1570    0.6648 C   0  0  0  0  0  0  0  0  0  0  0  0
   -4.1353    0.9750   -0.4574 N   0  0  0  0  0  0  0  0  0  0  0  0
   -2.7340    0.8744   -0.0323 C   0  0  0  0  0  0  0  0  0  0  0  0
   -2.3456   -0.3605    0.7915 C   0  0  0  0  0  0  0  0  0  0  0  0
   -0.8679   -0.3028    1.1762 C   0  0  0  0  0  0  0  0  0  0  0  0
   -0.5178   -1.5138    1.9174 N   0  0  0  0  0  0  0  0  0  0  0  0
    0.7175   -1.4824    3.0500 S   0  0  0  0  0  6  0  0  0  0  0  0
    0.9450   -2.8543    3.4459 O   0  0  0  0  0  0  0  0  0  0  0  0
    0.4196   -0.4456    4.0127 O   0  0  0  0  0  0  0  0  0  0  0  0
    2.1135   -0.9576    2.0825 C   0  0  0  0  0  0  0  0  0  0  0  0
    2.8152   -1.9029    1.3183 C   0  0  0  0  0  0  0  0  0  0  0  0
    3.9255   -1.5126    0.5565 C   0  0  0  0  0  0  0  0  0  0  0  0
    4.3208   -0.1840    0.5722 C   0  0  0  0  0  0  0  0  0  0  0  0
    3.6220    0.7412    1.3583 C   0  0  0  0  0  0  0  0  0  0  0  0
    2.5215    0.3766    2.1224 C   0  0  0  0  0  0  0  0  0  0  0  0
    4.2138    2.1110    1.2610 C   0  0  0  0  0  0  0  0  0  0  0  0
    5.3864    1.8817    0.3075 C   0  0  0  0  0  0  0  0  0  0  0  0
    5.3767    0.4678   -0.0876 N   0  0  0  0  0  0  0  0  0  0  0  0
    6.3438    0.0228   -0.9724 C   0  0  0  0  0  0  0  0  0  0  0  0
    7.2168    0.7691   -1.4115 O   0  0  0  0  0  0  0  0  0  0  0  0
    6.3388   -1.3964   -1.4168 C   0  0  0  0  0  0  0  0  0  0  0  0
    5.4093   -1.8536   -2.5212 C   0  0  0  0  0  0  0  0  0  0  0  0
    6.8779   -1.7516   -2.7891 C   0  0  0  0  0  0  0  0  0  0  0  0
   -4.5602   -0.1251   -1.3305 C   0  0  0  0  0  0  0  0  0  0  0  0
   -6.9236    1.4133   -3.3921 H   0  0  0  0  0  0  0  0  0  0  0  0
   -5.6113    2.2179   -2.5186 H   0  0  0  0  0  0  0  0  0  0  0  0
   -5.2408    1.0289   -3.7746 H   0  0  0  0  0  0  0  0  0  0  0  0
   -6.2703   -0.7777   -2.4601 H   0  0  0  0  0  0  0  0  0  0  0  0
   -7.9389    0.6988   -1.2301 H   0  0  0  0  0  0  0  0  0  0  0  0
   -7.1417   -0.5290   -0.2554 H   0  0  0  0  0  0  0  0  0  0  0  0
   -6.4856    2.4503   -0.3223 H   0  0  0  0  0  0  0  0  0  0  0  0
   -7.1600    1.5311    1.0149 H   0  0  0  0  0  0  0  0  0  0  0  0
   -4.7322    1.9936    1.2918 H   0  0  0  0  0  0  0  0  0  0  0  0
   -5.0950    0.2653    1.3011 H   0  0  0  0  0  0  0  0  0  0  0  0
   -2.4780    1.7795    0.5347 H   0  0  0  0  0  0  0  0  0  0  0  0
   -2.1020    0.9155   -0.9296 H   0  0  0  0  0  0  0  0  0  0  0  0
   -2.9501   -0.4224    1.7037 H   0  0  0  0  0  0  0  0  0  0  0  0
   -2.5333   -1.2773    0.2201 H   0  0  0  0  0  0  0  0  0  0  0  0
   -0.2485   -0.2485    0.2747 H   0  0  0  0  0  0  0  0  0  0  0  0
   -0.6827    0.5913    1.7805 H   0  0  0  0  0  0  0  0  0  0  0  0
   -0.6685   -2.4253    1.4889 H   0  0  0  0  0  0  0  0  0  0  0  0
    2.5080   -2.9477    1.3183 H   0  0  0  0  0  0  0  0  0  0  0  0
    4.4415   -2.2748   -0.0098 H   0  0  0  0  0  0  0  0  0  0  0  0
    2.0005    1.1095    2.7328 H   0  0  0  0  0  0  0  0  0  0  0  0
    3.4959    2.8233    0.8420 H   0  0  0  0  0  0  0  0  0  0  0  0
    4.5594    2.4667    2.2368 H   0  0  0  0  0  0  0  0  0  0  0  0
    5.3027    2.5060   -0.5895 H   0  0  0  0  0  0  0  0  0  0  0  0
    6.3452    2.1112    0.7871 H   0  0  0  0  0  0  0  0  0  0  0  0
    6.6111   -2.0972   -0.6350 H   0  0  0  0  0  0  0  0  0  0  0  0
    4.9782   -2.8453   -2.4504 H   0  0  0  0  0  0  0  0  0  0  0  0
    4.7601   -1.1182   -2.9830 H   0  0  0  0  0  0  0  0  0  0  0  0
    7.4491   -2.6676   -2.8847 H   0  0  0  0  0  0  0  0  0  0  0  0
    7.2266   -0.9474   -3.4285 H   0  0  0  0  0  0  0  0  0  0  0  0
   -3.8428   -0.2511   -2.1504 H   0  0  0  0  0  0  0  0  0  0  0  0
   -4.5844   -1.0723   -0.7769 H   0  0  0  0  0  0  0  0  0  0  0  0
  1  2  1  0
  2  3  1  0
  3  4  1  0
  4  5  1  0
  5  6  1  0
  6  7  1  0
  7  8  1  0
  8  9  1  0
  9 10  1  0
 10 11  1  0
 11 12  2  0
 11 13  2  0
 11 14  1  0
 14 15  2  0
 15 16  1  0
 16 17  2  0
 17 18  1  0
 18 19  2  0
 18 20  1  0
 20 21  1  0
 21 22  1  0
 22 23  1  0
 23 24  2  0
 23 25  1  0
 25 26  1  0
 26 27  1  0
  6 28  1  0
 28  2  1  0
 19 14  1  0
 27 25  1  0
 22 17  1  0
  1 29  1  0
  1 30  1  0
  1 31  1  0
  2 32  1  0
  3 33  1  0
  3 34  1  0
  4 35  1  0
  4 36  1  0
  5 37  1  0
  5 38  1  0
  7 39  1  0
  7 40  1  0
  8 41  1  0
  8 42  1  0
  9 43  1  0
  9 44  1  0
 10 45  1  0
 15 46  1  0
 16 47  1  0
 19 48  1  0
 20 49  1  0
 20 50  1  0
 21 51  1  0
 21 52  1  0
 25 53  1  0
 26 54  1  0
 26 55  1  0
 27 56  1  0
 27 57  1  0
 28 58  1  0
 28 59  1  0
M  END
$$$$
