
     RDKit          3D

 40 41  0  0  0  0  0  0  0  0999 V2000
    0.8915   -1.2856   -2.4819 C   0  0  0  0  0  0  0  0  0  0  0  0
    0.8353   -1.7080   -1.0192 C   0  0  0  0  0  0  0  0  0  0  0  0
    0.5763   -0.5562   -0.0319 C   0  0  0  0  0  0  0  0  0  0  0  0
    1.6685    0.5281   -0.0196 C   0  0  0  0  0  0  0  0  0  0  0  0
    3.0152    0.0463    0.4591 C   0  0  0  0  0  0  0  0  0  0  0  0
    3.2142   -0.2771    1.8085 C   0  0  0  0  0  0  0  0  0  0  0  0
    4.4569   -0.7318    2.2520 C   0  0  0  0  0  0  0  0  0  0  0  0
    5.5127   -0.8657    1.3527 C   0  0  0  0  0  0  0  0  0  0  0  0
    5.3272   -0.5434    0.0097 C   0  0  0  0  0  0  0  0  0  0  0  0
    4.0849   -0.0885   -0.4357 C   0  0  0  0  0  0  0  0  0  0  0  0
   -0.6610    0.1055   -0.3813 O   0  0  0  0  0  0  0  0  0  0  0  0
   -1.7843   -0.4243    0.1552 C   0  0  0  0  0  0  0  0  0  0  0  0
   -1.8923   -1.4214    0.8459 O   0  0  0  0  0  0  0  0  0  0  0  0
   -2.9230    0.4115   -0.2485 C   0  0  0  0  0  0  0  0  0  0  0  0
   -3.2683    0.4661   -1.6065 C   0  0  0  0  0  0  0  0  0  0  0  0
   -4.3961    1.1831   -2.0076 C   0  0  0  0  0  0  0  0  0  0  0  0
   -5.1816    1.8371   -1.0579 C   0  0  0  0  0  0  0  0  0  0  0  0
   -4.8371    1.7844    0.2955 C   0  0  0  0  0  0  0  0  0  0  0  0
   -3.7015    1.0710    0.7070 C   0  0  0  0  0  0  0  0  0  0  0  0
   -3.2962    1.0845    2.1270 C   0  0  0  0  0  0  0  0  0  0  0  0
   -2.1579    1.1076    2.5522 O   0  0  0  0  0  0  0  0  0  0  0  0
   -4.3612    1.0830    2.9480 O   0  0  0  0  0  0  0  0  0  0  0  0
   -0.0293   -0.7805   -2.7885 H   0  0  0  0  0  0  0  0  0  0  0  0
    1.0164   -2.1672   -3.1192 H   0  0  0  0  0  0  0  0  0  0  0  0
    1.7343   -0.6170   -2.6765 H   0  0  0  0  0  0  0  0  0  0  0  0
    0.0256   -2.4417   -0.9228 H   0  0  0  0  0  0  0  0  0  0  0  0
    1.7619   -2.2301   -0.7562 H   0  0  0  0  0  0  0  0  0  0  0  0
    0.4947   -0.9737    0.9805 H   0  0  0  0  0  0  0  0  0  0  0  0
    1.7543    0.9958   -1.0085 H   0  0  0  0  0  0  0  0  0  0  0  0
    1.3467    1.3511    0.6341 H   0  0  0  0  0  0  0  0  0  0  0  0
    2.4007   -0.1747    2.5243 H   0  0  0  0  0  0  0  0  0  0  0  0
    4.6003   -0.9806    3.3002 H   0  0  0  0  0  0  0  0  0  0  0  0
    6.4800   -1.2196    1.6988 H   0  0  0  0  0  0  0  0  0  0  0  0
    6.1509   -0.6459   -0.6917 H   0  0  0  0  0  0  0  0  0  0  0  0
    3.9589    0.1589   -1.4872 H   0  0  0  0  0  0  0  0  0  0  0  0
   -2.6695   -0.0592   -2.3473 H   0  0  0  0  0  0  0  0  0  0  0  0
   -4.6681    1.2252   -3.0600 H   0  0  0  0  0  0  0  0  0  0  0  0
   -6.0626    2.3930   -1.3715 H   0  0  0  0  0  0  0  0  0  0  0  0
   -5.4509    2.3107    1.0236 H   0  0  0  0  0  0  0  0  0  0  0  0
   -3.9667    1.0492    3.8452 H   0  0  0  0  0  0  0  0  0  0  0  0
  1  2  1  0
  2  3  1  0
  3  4  1  0
  4  5  1  0
  5  6  2  0
  6  7  1  0
  7  8  2  0
  8  9  1  0
  9 10  2  0
  3 11  1  0
 11 12  1  0
 12 13  2  0
 12 14  1  0
 14 15  2  0
 15 16  1  0
 16 17  2  0
 17 18  1  0
 18 19  2  0
 19 20  1  0
 20 21  2  0
 20 22  1  0
 10  5  1  0
 19 14  1  0
  1 23  1  0
  1 24  1  0
  1 25  1  0
  2 26  1  0
  2 27  1  0
  3 28  1  0
  4 29  1  0
  4 30  1  0
  6 31  1  0
  7 32  1  0
  8 33  1  0
  9 34  1  0
 10 35  1  0
 15 36  1  0
 16 37  1  0
 17 38  1  0
 18 39  1  0
 22 40  1  0
M  END
$$$$
