
     RDKit          3D

 45 47  0  0  0  0  0  0  0  0999 V2000
    2.4326    2.1842   -2.1812 O   0  0  0  0  0  0  0  0  0  0  0  0
    1.7303    2.1816   -1.1650 C   0  0  0  0  0  0  0  0  0  0  0  0
    2.0362    3.1665   -0.0450 C   0  0  0  0  0  0  0  0  0  0  0  0
    2.6076    2.3619    1.4893 S   0  0  0  0  0  0  0  0  0  0  0  0
    3.8618    1.2574    0.8671 C   0  0  0  0  0  0  0  0  0  0  0  0
    4.9255    1.7094    0.0800 C   0  0  0  0  0  0  0  0  0  0  0  0
    5.8889    0.8110   -0.3878 C   0  0  0  0  0  0  0  0  0  0  0  0
    5.7940   -0.5394   -0.0586 C   0  0  0  0  0  0  0  0  0  0  0  0
    7.0955   -1.7543   -0.6923 Br  0  0  0  0  0  0  0  0  0  0  0  0
    4.7477   -0.9994    0.7375 C   0  0  0  0  0  0  0  0  0  0  0  0
    3.7853   -0.0995    1.2027 C   0  0  0  0  0  0  0  0  0  0  0  0
    0.6489    1.3228   -1.0411 N   0  0  0  0  0  0  0  0  0  0  0  0
   -0.2980    1.3006    0.0804 C   0  0  0  0  0  0  0  0  0  0  0  0
   -1.6414    0.6665   -0.3058 C   0  0  0  0  0  0  0  0  0  0  0  0
   -1.4829   -0.7320   -0.8212 N   0  0  0  0  0  0  0  0  0  0  0  0
   -1.8898   -1.9729    0.2802 S   0  0  0  0  0  6  0  0  0  0  0  0
   -1.2265   -1.6579    1.5286 O   0  0  0  0  0  0  0  0  0  0  0  0
   -1.6930   -3.2444   -0.3811 O   0  0  0  0  0  0  0  0  0  0  0  0
   -3.6370   -1.7500    0.4901 C   0  0  0  0  0  0  0  0  0  0  0  0
   -4.4726   -1.8703   -0.6246 C   0  0  0  0  0  0  0  0  0  0  0  0
   -5.8469   -1.6907   -0.4725 C   0  0  0  0  0  0  0  0  0  0  0  0
   -6.3773   -1.3972    0.7853 C   0  0  0  0  0  0  0  0  0  0  0  0
   -5.5380   -1.2852    1.8960 C   0  0  0  0  0  0  0  0  0  0  0  0
   -4.1620   -1.4631    1.7529 C   0  0  0  0  0  0  0  0  0  0  0  0
   -0.1694   -0.9775   -1.5077 C   0  0  0  0  0  0  0  0  0  0  0  0
    0.4335    0.3097   -2.0794 C   0  0  0  0  0  0  0  0  0  0  0  0
    1.1523    3.7754    0.1642 H   0  0  0  0  0  0  0  0  0  0  0  0
    2.8131    3.8570   -0.3906 H   0  0  0  0  0  0  0  0  0  0  0  0
    5.0182    2.7600   -0.1826 H   0  0  0  0  0  0  0  0  0  0  0  0
    6.7041    1.1757   -1.0071 H   0  0  0  0  0  0  0  0  0  0  0  0
    4.6706   -2.0506    1.0022 H   0  0  0  0  0  0  0  0  0  0  0  0
    2.9731   -0.4700    1.8249 H   0  0  0  0  0  0  0  0  0  0  0  0
    0.1664    0.7202    0.8845 H   0  0  0  0  0  0  0  0  0  0  0  0
   -0.4648    2.3181    0.4435 H   0  0  0  0  0  0  0  0  0  0  0  0
   -2.1187    1.2524   -1.1011 H   0  0  0  0  0  0  0  0  0  0  0  0
   -2.3206    0.7018    0.5512 H   0  0  0  0  0  0  0  0  0  0  0  0
   -4.0583   -2.1062   -1.6023 H   0  0  0  0  0  0  0  0  0  0  0  0
   -6.5065   -1.7849   -1.3319 H   0  0  0  0  0  0  0  0  0  0  0  0
   -7.4503   -1.2622    0.9019 H   0  0  0  0  0  0  0  0  0  0  0  0
   -5.9592   -1.0648    2.8741 H   0  0  0  0  0  0  0  0  0  0  0  0
   -3.5142   -1.3821    2.6227 H   0  0  0  0  0  0  0  0  0  0  0  0
    0.5434   -1.4151   -0.7977 H   0  0  0  0  0  0  0  0  0  0  0  0
   -0.3341   -1.6931   -2.3204 H   0  0  0  0  0  0  0  0  0  0  0  0
    1.3758    0.0785   -2.5873 H   0  0  0  0  0  0  0  0  0  0  0  0
   -0.2434    0.7519   -2.8202 H   0  0  0  0  0  0  0  0  0  0  0  0
  1  2  2  0
  2  3  1  0
  3  4  1  0
  4  5  1  0
  5  6  2  0
  6  7  1  0
  7  8  2  0
  8  9  1  0
  8 10  1  0
 10 11  2  0
  2 12  1  0
 12 13  1  0
 13 14  1  0
 14 15  1  0
 15 16  1  0
 16 17  2  0
 16 18  2  0
 16 19  1  0
 19 20  2  0
 20 21  1  0
 21 22  2  0
 22 23  1  0
 23 24  2  0
 15 25  1  0
 25 26  1  0
 11  5  1  0
 26 12  1  0
 24 19  1  0
  3 27  1  0
  3 28  1  0
  6 29  1  0
  7 30  1  0
 10 31  1  0
 11 32  1  0
 13 33  1  0
 13 34  1  0
 14 35  1  0
 14 36  1  0
 20 37  1  0
 21 38  1  0
 22 39  1  0
 23 40  1  0
 24 41  1  0
 25 42  1  0
 25 43  1  0
 26 44  1  0
 26 45  1  0
M  END
$$$$
