
     RDKit          3D

 61 66  0  0  0  0  0  0  0  0999 V2000
   -2.3356   -0.8444    1.7299 O   0  0  0  0  0  0  0  0  0  0  0  0
   -2.7622   -0.2612    0.7289 C   0  0  0  0  0  0  0  0  0  0  0  0
   -1.8401    0.6543   -0.0539 C   0  0  0  0  0  0  0  0  0  0  0  0
   -0.5520    0.0390   -0.2677 N   0  0  0  0  0  0  0  0  0  0  0  0
   -0.3976   -0.9862   -1.1244 N   0  0  0  0  0  0  0  0  0  0  0  0
    0.9118   -1.1724   -1.1946 N   0  0  0  0  0  0  0  0  0  0  0  0
    1.4982   -0.2072   -0.4059 C   0  0  0  0  0  0  0  0  0  0  0  0
    2.9405   -0.0876   -0.2426 C   0  0  0  0  0  0  0  0  0  0  0  0
    3.8099   -0.9413   -0.9282 C   0  0  0  0  0  0  0  0  0  0  0  0
    5.2003   -0.8284   -0.7724 C   0  0  0  0  0  0  0  0  0  0  0  0
    5.7706    0.1429    0.0620 C   0  0  0  0  0  0  0  0  0  0  0  0
    7.1532    0.2831    0.2586 N   0  0  0  0  0  0  0  0  0  0  0  0
    7.6797    1.6283   -0.0842 C   0  0  0  0  0  0  0  0  0  0  0  0
    9.1347    1.7636    0.3958 C   0  0  0  0  0  0  0  0  0  0  0  0
    9.9715    0.7235   -0.1347 O   0  0  0  0  0  0  0  0  0  0  0  0
    9.4739   -0.5601    0.2761 C   0  0  0  0  0  0  0  0  0  0  0  0
    8.0420   -0.7928   -0.2312 C   0  0  0  0  0  0  0  0  0  0  0  0
    4.8823    0.9807    0.7563 C   0  0  0  0  0  0  0  0  0  0  0  0
    3.4929    0.8749    0.6067 C   0  0  0  0  0  0  0  0  0  0  0  0
    0.5921    0.6115    0.1591 N   0  0  0  0  0  0  0  0  0  0  0  0
   -4.1220   -0.2177    0.3559 N   0  0  0  0  0  0  0  0  0  0  0  0
   -5.1205   -0.6997    1.2593 C   0  0  0  0  0  0  0  0  0  0  0  0
   -4.9835   -1.9336    1.9089 C   0  0  0  0  0  0  0  0  0  0  0  0
   -5.9600   -2.3781    2.8022 C   0  0  0  0  0  0  0  0  0  0  0  0
   -7.0770   -1.5894    3.0628 C   0  0  0  0  0  0  0  0  0  0  0  0
   -7.2165   -0.3515    2.4372 C   0  0  0  0  0  0  0  0  0  0  0  0
   -6.2385    0.1021    1.5404 C   0  0  0  0  0  0  0  0  0  0  0  0
   -6.3542    1.4540    0.8965 C   0  0  0  0  0  0  0  0  0  0  0  0
   -6.6677    1.3164   -0.5852 C   0  0  0  0  0  0  0  0  0  0  0  0
   -5.7048    0.5317   -1.4524 C   0  0  0  0  0  0  0  0  0  0  0  0
   -6.0265    0.5155   -2.8300 C   0  0  0  0  0  0  0  0  0  0  0  0
   -5.2475   -0.1704   -3.7583 C   0  0  0  0  0  0  0  0  0  0  0  0
   -4.1357   -0.8741   -3.3273 C   0  0  0  0  0  0  0  0  0  0  0  0
   -3.8009   -0.8737   -1.9729 C   0  0  0  0  0  0  0  0  0  0  0  0
   -4.5521   -0.1558   -1.0161 C   0  0  0  0  0  0  0  0  0  0  0  0
   -1.6913    1.5599    0.5458 H   0  0  0  0  0  0  0  0  0  0  0  0
   -2.2184    0.9727   -1.0254 H   0  0  0  0  0  0  0  0  0  0  0  0
    3.4194   -1.7085   -1.5942 H   0  0  0  0  0  0  0  0  0  0  0  0
    5.8203   -1.5166   -1.3383 H   0  0  0  0  0  0  0  0  0  0  0  0
    7.6419    1.7578   -1.1734 H   0  0  0  0  0  0  0  0  0  0  0  0
    7.0956    2.4317    0.3759 H   0  0  0  0  0  0  0  0  0  0  0  0
    9.1897    1.7398    1.4909 H   0  0  0  0  0  0  0  0  0  0  0  0
    9.5465    2.7213    0.0625 H   0  0  0  0  0  0  0  0  0  0  0  0
    9.5217   -0.6291    1.3698 H   0  0  0  0  0  0  0  0  0  0  0  0
   10.1426   -1.3218   -0.1368 H   0  0  0  0  0  0  0  0  0  0  0  0
    8.0497   -0.7944   -1.3285 H   0  0  0  0  0  0  0  0  0  0  0  0
    7.7018   -1.7710    0.1279 H   0  0  0  0  0  0  0  0  0  0  0  0
    5.2665    1.7176    1.4575 H   0  0  0  0  0  0  0  0  0  0  0  0
    2.8495    1.5460    1.1723 H   0  0  0  0  0  0  0  0  0  0  0  0
   -4.1226   -2.5696    1.7175 H   0  0  0  0  0  0  0  0  0  0  0  0
   -5.8431   -3.3396    3.2956 H   0  0  0  0  0  0  0  0  0  0  0  0
   -7.8350   -1.9353    3.7610 H   0  0  0  0  0  0  0  0  0  0  0  0
   -8.0870    0.2603    2.6619 H   0  0  0  0  0  0  0  0  0  0  0  0
   -7.1477    2.0376    1.3795 H   0  0  0  0  0  0  0  0  0  0  0  0
   -5.4286    2.0224    1.0542 H   0  0  0  0  0  0  0  0  0  0  0  0
   -7.6578    0.8502   -0.6893 H   0  0  0  0  0  0  0  0  0  0  0  0
   -6.7465    2.3303   -1.0002 H   0  0  0  0  0  0  0  0  0  0  0  0
   -6.9092    1.0456   -3.1868 H   0  0  0  0  0  0  0  0  0  0  0  0
   -5.5218   -0.1694   -4.8100 H   0  0  0  0  0  0  0  0  0  0  0  0
   -3.5356   -1.4398   -4.0359 H   0  0  0  0  0  0  0  0  0  0  0  0
   -2.9595   -1.4942   -1.6712 H   0  0  0  0  0  0  0  0  0  0  0  0
  1  2  2  0
  2  3  1  0
  3  4  1  0
  4  5  1  0
  5  6  2  0
  6  7  1  0
  7  8  1  0
  8  9  2  0
  9 10  1  0
 10 11  2  0
 11 12  1  0
 12 13  1  0
 13 14  1  0
 14 15  1  0
 15 16  1  0
 16 17  1  0
 11 18  1  0
 18 19  2  0
  7 20  2  0
  2 21  1  0
 21 22  1  0
 22 23  2  0
 23 24  1  0
 24 25  2  0
 25 26  1  0
 26 27  2  0
 27 28  1  0
 28 29  1  0
 29 30  1  0
 30 31  2  0
 31 32  1  0
 32 33  2  0
 33 34  1  0
 34 35  2  0
 20  4  1  0
 35 21  1  0
 19  8  1  0
 27 22  1  0
 35 30  1  0
 17 12  1  0
  3 36  1  0
  3 37  1  0
  9 38  1  0
 10 39  1  0
 13 40  1  0
 13 41  1  0
 14 42  1  0
 14 43  1  0
 16 44  1  0
 16 45  1  0
 17 46  1  0
 17 47  1  0
 18 48  1  0
 19 49  1  0
 23 50  1  0
 24 51  1  0
 25 52  1  0
 26 53  1  0
 28 54  1  0
 28 55  1  0
 29 56  1  0
 29 57  1  0
 31 58  1  0
 32 59  1  0
 33 60  1  0
 34 61  1  0
M  END
$$$$
