
     RDKit          3D

 36 38  0  0  0  0  0  0  0  0999 V2000
    4.0255   -0.8856    2.3469 C   0  0  0  0  0  0  0  0  0  0  0  0
    3.1819   -0.4253    1.1937 C   0  0  0  0  0  0  0  0  0  0  0  0
    2.7243    0.8979    1.1364 C   0  0  0  0  0  0  0  0  0  0  0  0
    1.9709    1.3392    0.0476 C   0  0  0  0  0  0  0  0  0  0  0  0
    1.6655    0.4498   -0.9866 C   0  0  0  0  0  0  0  0  0  0  0  0
    0.7124    1.0164   -2.3807 S   0  0  0  0  0  6  0  0  0  0  0  0
    0.8643    2.4537   -2.4506 O   0  0  0  0  0  0  0  0  0  0  0  0
    1.0389    0.1692   -3.5073 O   0  0  0  0  0  0  0  0  0  0  0  0
   -0.8773    0.6822   -1.9238 N   0  0  0  0  0  0  0  0  0  0  0  0
   -1.3330   -0.7325   -2.0300 C   0  0  0  0  0  0  0  0  0  0  0  0
   -2.4364   -1.1875   -1.0802 C   0  0  0  0  0  0  0  0  0  0  0  0
   -3.1954   -2.1136   -1.3610 O   0  0  0  0  0  0  0  0  0  0  0  0
   -2.5047   -0.5310    0.1228 N   0  0  0  0  0  0  0  0  0  0  0  0
   -3.5912   -0.6552    1.0530 C   0  0  0  0  0  0  0  0  0  0  0  0
   -3.1924    0.3205    2.1374 C   0  0  0  0  0  0  0  0  0  0  0  0
   -2.4149    1.3220    1.4477 O   0  0  0  0  0  0  0  0  0  0  0  0
   -1.7012    0.6204    0.4200 C   0  0  0  0  0  0  0  0  0  0  0  0
   -1.4822    1.4827   -0.8249 C   0  0  0  0  0  0  0  0  0  0  0  0
    2.1547   -0.8584   -0.9638 C   0  0  0  0  0  0  0  0  0  0  0  0
    2.9075   -1.2934    0.1282 C   0  0  0  0  0  0  0  0  0  0  0  0
    5.0828   -0.6998    2.1346 H   0  0  0  0  0  0  0  0  0  0  0  0
    3.8834   -1.9556    2.5316 H   0  0  0  0  0  0  0  0  0  0  0  0
    3.7503   -0.3582    3.2664 H   0  0  0  0  0  0  0  0  0  0  0  0
    2.9634    1.5958    1.9369 H   0  0  0  0  0  0  0  0  0  0  0  0
    1.6388    2.3747    0.0110 H   0  0  0  0  0  0  0  0  0  0  0  0
   -0.4995   -1.4231   -1.8736 H   0  0  0  0  0  0  0  0  0  0  0  0
   -1.7072   -0.8726   -3.0509 H   0  0  0  0  0  0  0  0  0  0  0  0
   -3.7126   -1.6844    1.4005 H   0  0  0  0  0  0  0  0  0  0  0  0
   -4.5074   -0.3355    0.5449 H   0  0  0  0  0  0  0  0  0  0  0  0
   -2.5478   -0.1508    2.8879 H   0  0  0  0  0  0  0  0  0  0  0  0
   -4.0473    0.7833    2.6370 H   0  0  0  0  0  0  0  0  0  0  0  0
   -0.7504    0.2669    0.8341 H   0  0  0  0  0  0  0  0  0  0  0  0
   -0.8819    2.3615   -0.5704 H   0  0  0  0  0  0  0  0  0  0  0  0
   -2.4401    1.8792   -1.1854 H   0  0  0  0  0  0  0  0  0  0  0  0
    1.9679   -1.5401   -1.7908 H   0  0  0  0  0  0  0  0  0  0  0  0
    3.2901   -2.3125    0.1389 H   0  0  0  0  0  0  0  0  0  0  0  0
  1  2  1  0
  2  3  2  0
  3  4  1  0
  4  5  2  0
  5  6  1  0
  6  7  2  0
  6  8  2  0
  6  9  1  0
  9 10  1  0
 10 11  1  0
 11 12  2  0
 11 13  1  0
 13 14  1  0
 14 15  1  0
 15 16  1  0
 16 17  1  0
 17 18  1  0
  5 19  1  0
 19 20  2  0
 20  2  1  0
 18  9  1  0
 17 13  1  0
  1 21  1  0
  1 22  1  0
  1 23  1  0
  3 24  1  0
  4 25  1  0
 10 26  1  0
 10 27  1  0
 14 28  1  0
 14 29  1  0
 15 30  1  0
 15 31  1  0
 17 32  1  0
 18 33  1  0
 18 34  1  0
 19 35  1  0
 20 36  1  0
M  END
$$$$
