
     RDKit          3D

 43 46  0  0  0  0  0  0  0  0999 V2000
    4.9007    2.4050    0.3958 C   0  0  0  0  0  0  0  0  0  0  0  0
    3.9437    1.4186    0.7831 O   0  0  0  0  0  0  0  0  0  0  0  0
    2.6716    1.8809    0.8433 C   0  0  0  0  0  0  0  0  0  0  0  0
    2.3021    3.0194    0.6013 O   0  0  0  0  0  0  0  0  0  0  0  0
    1.7380    0.7859    1.1658 C   0  0  0  0  0  0  0  0  0  0  0  0
    1.9001   -0.0708    2.1945 C   0  0  0  0  0  0  0  0  0  0  0  0
    3.0318   -0.0067    3.1879 C   0  0  0  0  0  0  0  0  0  0  0  0
    0.9863   -1.0716    2.4603 N   0  0  0  0  0  0  0  0  0  0  0  0
   -0.1212   -1.0518    1.8012 C   0  0  0  0  0  0  0  0  0  0  0  0
   -1.4226   -2.1543    2.1201 S   0  0  0  0  0  0  0  0  0  0  0  0
   -2.4879   -1.3400    1.0089 C   0  0  0  0  0  0  0  0  0  0  0  0
   -3.7558   -1.7475    0.8401 C   0  0  0  0  0  0  0  0  0  0  0  0
   -4.7917   -1.2308    0.0086 C   0  0  0  0  0  0  0  0  0  0  0  0
   -5.8243   -1.9947   -0.5991 C   0  0  0  0  0  0  0  0  0  0  0  0
   -6.6281   -1.0989   -1.2647 C   0  0  0  0  0  0  0  0  0  0  0  0
   -6.1716    0.1665   -1.0892 O   0  0  0  0  0  0  0  0  0  0  0  0
   -5.0590    0.0813   -0.3111 C   0  0  0  0  0  0  0  0  0  0  0  0
   -1.7384   -0.2325    0.3355 C   0  0  0  0  0  0  0  0  0  0  0  0
   -2.1999    0.5206   -0.5075 O   0  0  0  0  0  0  0  0  0  0  0  0
   -0.4488   -0.1818    0.8120 N   0  0  0  0  0  0  0  0  0  0  0  0
    0.5517    0.7063    0.2462 C   0  0  0  0  0  0  0  0  0  0  0  0
    0.9593    0.2419   -1.1534 C   0  0  0  0  0  0  0  0  0  0  0  0
    1.5935   -0.9956   -1.3657 C   0  0  0  0  0  0  0  0  0  0  0  0
    1.9579   -1.3961   -2.6523 C   0  0  0  0  0  0  0  0  0  0  0  0
    1.6923   -0.5705   -3.7422 C   0  0  0  0  0  0  0  0  0  0  0  0
    1.0614    0.6562   -3.5484 C   0  0  0  0  0  0  0  0  0  0  0  0
    0.6968    1.0609   -2.2633 C   0  0  0  0  0  0  0  0  0  0  0  0
    4.6794    2.7799   -0.6084 H   0  0  0  0  0  0  0  0  0  0  0  0
    4.9210    3.2247    1.1208 H   0  0  0  0  0  0  0  0  0  0  0  0
    5.8866    1.9324    0.3796 H   0  0  0  0  0  0  0  0  0  0  0  0
    2.6680   -0.2419    4.1947 H   0  0  0  0  0  0  0  0  0  0  0  0
    3.8044   -0.7365    2.9263 H   0  0  0  0  0  0  0  0  0  0  0  0
    3.4881    0.9854    3.2499 H   0  0  0  0  0  0  0  0  0  0  0  0
   -4.0600   -2.6269    1.4098 H   0  0  0  0  0  0  0  0  0  0  0  0
   -5.9679   -3.0655   -0.5646 H   0  0  0  0  0  0  0  0  0  0  0  0
   -7.5188   -1.1945   -1.8696 H   0  0  0  0  0  0  0  0  0  0  0  0
   -4.5950    1.0295   -0.0770 H   0  0  0  0  0  0  0  0  0  0  0  0
    0.0767    1.6941    0.1755 H   0  0  0  0  0  0  0  0  0  0  0  0
    1.8144   -1.6597   -0.5322 H   0  0  0  0  0  0  0  0  0  0  0  0
    2.4489   -2.3540   -2.8047 H   0  0  0  0  0  0  0  0  0  0  0  0
    1.9734   -0.8842   -4.7442 H   0  0  0  0  0  0  0  0  0  0  0  0
    0.8473    1.2980   -4.3994 H   0  0  0  0  0  0  0  0  0  0  0  0
    0.1957    2.0196   -2.1369 H   0  0  0  0  0  0  0  0  0  0  0  0
  1  2  1  0
  2  3  1  0
  3  4  2  0
  3  5  1  0
  5  6  2  0
  6  7  1  0
  6  8  1  0
  8  9  2  0
  9 10  1  0
 10 11  1  0
 11 12  2  3
 12 13  1  0
 13 14  1  0
 14 15  2  0
 15 16  1  0
 16 17  1  0
 11 18  1  0
 18 19  2  0
 18 20  1  0
 20 21  1  0
 21 22  1  0
 22 23  2  0
 23 24  1  0
 24 25  2  0
 25 26  1  0
 26 27  2  0
 21  5  1  0
 27 22  1  0
 20  9  1  0
 17 13  2  0
  1 28  1  0
  1 29  1  0
  1 30  1  0
  7 31  1  0
  7 32  1  0
  7 33  1  0
 12 34  1  0
 14 35  1  0
 15 36  1  0
 17 37  1  0
 21 38  1  0
 23 39  1  0
 24 40  1  0
 25 41  1  0
 26 42  1  0
 27 43  1  0
M  END
$$$$
