
     RDKit          3D

 43 44  0  0  0  0  0  0  0  0999 V2000
    0.6303   -2.6668   -4.0983 C   0  0  0  0  0  0  0  0  0  0  0  0
    1.6825   -1.7087   -4.1742 O   0  0  0  0  0  0  0  0  0  0  0  0
    2.1500   -1.1979   -2.9884 C   0  0  0  0  0  0  0  0  0  0  0  0
    3.3430   -0.4811   -3.0876 C   0  0  0  0  0  0  0  0  0  0  0  0
    3.9272    0.0683   -1.9505 C   0  0  0  0  0  0  0  0  0  0  0  0
    3.3156   -0.0882   -0.7100 C   0  0  0  0  0  0  0  0  0  0  0  0
    2.1199   -0.7985   -0.5892 C   0  0  0  0  0  0  0  0  0  0  0  0
    1.4408   -0.9758    0.6413 N   0  0  0  0  0  0  0  0  0  0  0  0
    1.8815   -0.5615    1.9014 C   0  0  0  0  0  0  0  0  0  0  0  0
    2.9972   -0.1067    2.1751 O   0  0  0  0  0  0  0  0  0  0  0  0
    0.8380   -0.7229    2.9859 C   0  0  0  0  0  0  0  0  0  0  0  0
    0.4121    0.6077    3.5674 C   0  0  0  0  0  0  0  0  0  0  0  0
    1.1884    1.1179    4.7584 C   0  0  0  0  0  0  0  0  0  0  0  0
   -0.5552    1.3605    3.1226 N   0  0  0  0  0  0  0  0  0  0  0  0
   -1.2091    1.0135    1.9823 N   0  0  0  0  0  0  0  0  0  0  0  0
   -2.3238    1.7353    1.5793 C   0  0  0  0  0  0  0  0  0  0  0  0
   -2.8593    2.6234    2.2559 O   0  0  0  0  0  0  0  0  0  0  0  0
   -2.8967    1.4013    0.2327 C   0  0  0  0  0  0  0  0  0  0  0  0
   -3.6304    2.4337   -0.3838 C   0  0  0  0  0  0  0  0  0  0  0  0
   -4.2536    2.2312   -1.6200 C   0  0  0  0  0  0  0  0  0  0  0  0
   -4.1595    1.0006   -2.2590 C   0  0  0  0  0  0  0  0  0  0  0  0
   -3.4505   -0.0328   -1.6572 C   0  0  0  0  0  0  0  0  0  0  0  0
   -2.8191    0.1525   -0.4142 C   0  0  0  0  0  0  0  0  0  0  0  0
   -2.0302   -1.2377    0.2632 Cl  0  0  0  0  0  0  0  0  0  0  0  0
    1.5389   -1.3499   -1.7411 C   0  0  0  0  0  0  0  0  0  0  0  0
   -0.3050   -2.2046   -3.7470 H   0  0  0  0  0  0  0  0  0  0  0  0
    0.9155   -3.5178   -3.4691 H   0  0  0  0  0  0  0  0  0  0  0  0
    0.4551   -3.0442   -5.1124 H   0  0  0  0  0  0  0  0  0  0  0  0
    3.8261   -0.3548   -4.0464 H   0  0  0  0  0  0  0  0  0  0  0  0
    4.8642    0.6143   -2.0201 H   0  0  0  0  0  0  0  0  0  0  0  0
    3.8090    0.3576    0.1495 H   0  0  0  0  0  0  0  0  0  0  0  0
    0.5786   -1.5143    0.5968 H   0  0  0  0  0  0  0  0  0  0  0  0
    1.2775   -1.3302    3.7770 H   0  0  0  0  0  0  0  0  0  0  0  0
   -0.0395   -1.2858    2.6435 H   0  0  0  0  0  0  0  0  0  0  0  0
    2.1809    1.4576    4.4153 H   0  0  0  0  0  0  0  0  0  0  0  0
    1.3128    0.3107    5.4967 H   0  0  0  0  0  0  0  0  0  0  0  0
    0.6521    1.9777    5.2305 H   0  0  0  0  0  0  0  0  0  0  0  0
   -0.7754    0.3494    1.3317 H   0  0  0  0  0  0  0  0  0  0  0  0
   -3.7446    3.3966    0.1214 H   0  0  0  0  0  0  0  0  0  0  0  0
   -4.8209    3.0358   -2.0734 H   0  0  0  0  0  0  0  0  0  0  0  0
   -4.6640    0.8420   -3.2127 H   0  0  0  0  0  0  0  0  0  0  0  0
   -3.4145   -1.0018   -2.1544 H   0  0  0  0  0  0  0  0  0  0  0  0
    0.6141   -1.9056   -1.6491 H   0  0  0  0  0  0  0  0  0  0  0  0
  1  2  1  0
  2  3  1  0
  3  4  2  0
  4  5  1  0
  5  6  2  0
  6  7  1  0
  7  8  1  0
  8  9  1  0
  9 10  2  0
  9 11  1  0
 11 12  1  0
 12 13  1  0
 12 14  2  3
 14 15  1  0
 15 16  1  0
 16 17  2  0
 16 18  1  0
 18 19  2  0
 19 20  1  0
 20 21  2  0
 21 22  1  0
 22 23  2  0
 23 24  1  0
  7 25  2  0
 25  3  1  0
 23 18  1  0
  1 26  1  0
  1 27  1  0
  1 28  1  0
  4 29  1  0
  5 30  1  0
  6 31  1  0
  8 32  1  0
 11 33  1  0
 11 34  1  0
 13 35  1  0
 13 36  1  0
 13 37  1  0
 15 38  1  0
 19 39  1  0
 20 40  1  0
 21 41  1  0
 22 42  1  0
 25 43  1  0
M  END
$$$$
