
     RDKit          3D

 48 50  0  0  0  0  0  0  0  0999 V2000
    8.1345   -1.4525    1.3539 C   0  0  0  0  0  0  0  0  0  0  0  0
    6.7373   -0.8531    1.3208 C   0  0  0  0  0  0  0  0  0  0  0  0
    6.5349    0.0246    0.0834 C   0  0  0  0  0  0  0  0  0  0  0  0
    5.1478    0.6658    0.0493 C   0  0  0  0  0  0  0  0  0  0  0  0
    4.1659   -0.3640   -0.0544 O   0  0  0  0  0  0  0  0  0  0  0  0
    2.8566    0.0235   -0.1003 C   0  0  0  0  0  0  0  0  0  0  0  0
    2.3831    1.3315   -0.0575 C   0  0  0  0  0  0  0  0  0  0  0  0
    1.0048    1.5828   -0.1134 C   0  0  0  0  0  0  0  0  0  0  0  0
    0.0714    0.5402   -0.2310 C   0  0  0  0  0  0  0  0  0  0  0  0
   -1.3020    0.8559   -0.2404 N   0  0  0  0  0  0  0  0  0  0  0  0
   -2.3408    0.0839   -0.6900 C   0  0  0  0  0  0  0  0  0  0  0  0
   -2.2562   -1.0534   -1.2897 N   0  0  0  0  0  0  0  0  0  0  0  0
   -3.3990   -1.6382   -1.7285 C   0  0  0  0  0  0  0  0  0  0  0  0
   -3.2453   -2.6928   -2.5665 N   0  0  0  0  0  0  0  0  0  0  0  0
   -4.5923   -1.2549   -1.4383 N   0  0  0  0  0  0  0  0  0  0  0  0
   -4.6942   -0.1499   -0.5099 C   0  0  0  0  0  0  0  0  0  0  0  0
   -5.0764   -0.6823    0.8786 C   0  0  0  0  0  0  0  0  0  0  0  0
   -5.8561    0.4469    1.5519 C   0  0  0  0  0  0  0  0  0  0  0  0
   -6.3364    1.3669    0.4316 C   0  0  0  0  0  0  0  0  0  0  0  0
   -5.9204    0.6938   -0.8728 C   0  0  0  0  0  0  0  0  0  0  0  0
   -3.5279    0.6957   -0.4354 N   0  0  0  0  0  0  0  0  0  0  0  0
    0.5635   -0.7672   -0.2477 C   0  0  0  0  0  0  0  0  0  0  0  0
    1.9392   -1.0219   -0.1918 C   0  0  0  0  0  0  0  0  0  0  0  0
    8.3132   -2.0793    0.4745 H   0  0  0  0  0  0  0  0  0  0  0  0
    8.8976   -0.6680    1.3781 H   0  0  0  0  0  0  0  0  0  0  0  0
    8.2588   -2.0747    2.2457 H   0  0  0  0  0  0  0  0  0  0  0  0
    6.0013   -1.6650    1.3340 H   0  0  0  0  0  0  0  0  0  0  0  0
    6.5802   -0.2579    2.2278 H   0  0  0  0  0  0  0  0  0  0  0  0
    7.2944    0.8149    0.0633 H   0  0  0  0  0  0  0  0  0  0  0  0
    6.6710   -0.5908   -0.8143 H   0  0  0  0  0  0  0  0  0  0  0  0
    5.0896    1.3243   -0.8256 H   0  0  0  0  0  0  0  0  0  0  0  0
    4.9930    1.2510    0.9638 H   0  0  0  0  0  0  0  0  0  0  0  0
    3.0531    2.1806    0.0219 H   0  0  0  0  0  0  0  0  0  0  0  0
    0.6690    2.6161   -0.0695 H   0  0  0  0  0  0  0  0  0  0  0  0
   -1.4814    1.8471   -0.3145 H   0  0  0  0  0  0  0  0  0  0  0  0
   -2.3646   -2.6483   -3.0610 H   0  0  0  0  0  0  0  0  0  0  0  0
   -4.0530   -2.8198   -3.1600 H   0  0  0  0  0  0  0  0  0  0  0  0
   -5.7292   -1.5607    0.7894 H   0  0  0  0  0  0  0  0  0  0  0  0
   -4.2102   -0.9851    1.4773 H   0  0  0  0  0  0  0  0  0  0  0  0
   -5.2127    1.0023    2.2437 H   0  0  0  0  0  0  0  0  0  0  0  0
   -6.6941    0.0501    2.1345 H   0  0  0  0  0  0  0  0  0  0  0  0
   -7.4179    1.5304    0.4722 H   0  0  0  0  0  0  0  0  0  0  0  0
   -5.8543    2.3472    0.5242 H   0  0  0  0  0  0  0  0  0  0  0  0
   -5.7187    1.4283   -1.6604 H   0  0  0  0  0  0  0  0  0  0  0  0
   -6.7411    0.0550   -1.2250 H   0  0  0  0  0  0  0  0  0  0  0  0
   -3.5160    1.2859    0.3857 H   0  0  0  0  0  0  0  0  0  0  0  0
   -0.1119   -1.6170   -0.2935 H   0  0  0  0  0  0  0  0  0  0  0  0
    2.2922   -2.0501   -0.2139 H   0  0  0  0  0  0  0  0  0  0  0  0
  1  2  1  0
  2  3  1  0
  3  4  1  0
  4  5  1  0
  5  6  1  0
  6  7  2  0
  7  8  1  0
  8  9  2  0
  9 10  1  0
 10 11  1  0
 11 12  2  0
 12 13  1  0
 13 14  1  0
 13 15  2  0
 15 16  1  0
 16 17  1  0
 17 18  1  0
 18 19  1  0
 19 20  1  0
 16 21  1  0
  9 22  1  0
 22 23  2  0
 23  6  1  0
 21 11  1  0
 20 16  1  0
  1 24  1  0
  1 25  1  0
  1 26  1  0
  2 27  1  0
  2 28  1  0
  3 29  1  0
  3 30  1  0
  4 31  1  0
  4 32  1  0
  7 33  1  0
  8 34  1  0
 10 35  1  0
 14 36  1  0
 14 37  1  0
 17 38  1  0
 17 39  1  0
 18 40  1  0
 18 41  1  0
 19 42  1  0
 19 43  1  0
 20 44  1  0
 20 45  1  0
 21 46  1  0
 22 47  1  0
 23 48  1  0
M  END
$$$$
