
     RDKit          3D

 44 47  0  0  0  0  0  0  0  0999 V2000
    1.2277   -0.3198   -0.8611 O   0  0  0  0  0  0  0  0  0  0  0  0
    0.6791    0.5228   -0.1408 C   0  0  0  0  0  0  0  0  0  0  0  0
    1.4842    1.7066    0.3800 C   0  0  0  0  0  0  0  0  0  0  0  0
    2.5370    1.1666    1.7546 S   0  0  0  0  0  0  0  0  0  0  0  0
    3.9391    0.5959    0.9237 C   0  0  0  0  0  0  0  0  0  0  0  0
    5.1725    0.9634    1.1697 N   0  0  0  0  0  0  0  0  0  0  0  0
    5.9398    0.2387    0.2895 C   0  0  0  0  0  0  0  0  0  0  0  0
    7.3293    0.2376    0.1078 C   0  0  0  0  0  0  0  0  0  0  0  0
    7.8632   -0.6023   -0.8739 C   0  0  0  0  0  0  0  0  0  0  0  0
    9.5685   -0.6264   -1.1243 Cl  0  0  0  0  0  0  0  0  0  0  0  0
    7.0461   -1.4220   -1.6579 C   0  0  0  0  0  0  0  0  0  0  0  0
    5.6567   -1.4330   -1.4878 C   0  0  0  0  0  0  0  0  0  0  0  0
    5.1457   -0.5879   -0.5017 C   0  0  0  0  0  0  0  0  0  0  0  0
    3.8680   -0.3436   -0.0651 N   0  0  0  0  0  0  0  0  0  0  0  0
   -0.6539    0.4105    0.2216 N   0  0  0  0  0  0  0  0  0  0  0  0
   -1.4461   -0.6982   -0.3191 C   0  0  0  0  0  0  0  0  0  0  0  0
   -2.9212   -0.3177   -0.5142 C   0  0  0  0  0  0  0  0  0  0  0  0
   -3.5365    0.2437    0.6952 N   0  0  0  0  0  0  0  0  0  0  0  0
   -4.8915    0.0880    1.0250 C   0  0  0  0  0  0  0  0  0  0  0  0
   -5.2577    0.2327    2.1926 O   0  0  0  0  0  0  0  0  0  0  0  0
   -5.8307   -0.2277   -0.0386 C   0  0  0  0  0  0  0  0  0  0  0  0
   -5.9293    0.1514   -1.3674 C   0  0  0  0  0  0  0  0  0  0  0  0
   -7.0905   -0.4686   -1.8907 C   0  0  0  0  0  0  0  0  0  0  0  0
   -7.6441   -1.1759   -0.8520 C   0  0  0  0  0  0  0  0  0  0  0  0
   -6.8984   -1.0310    0.2712 O   0  0  0  0  0  0  0  0  0  0  0  0
   -2.6227    0.6616    1.7598 C   0  0  0  0  0  0  0  0  0  0  0  0
   -1.3196    1.2629    1.2170 C   0  0  0  0  0  0  0  0  0  0  0  0
    0.8397    2.5216    0.7147 H   0  0  0  0  0  0  0  0  0  0  0  0
    2.0846    2.1107   -0.4426 H   0  0  0  0  0  0  0  0  0  0  0  0
    7.9577    0.8754    0.7180 H   0  0  0  0  0  0  0  0  0  0  0  0
    7.4910   -2.0652   -2.4144 H   0  0  0  0  0  0  0  0  0  0  0  0
    5.0168   -2.0672   -2.0919 H   0  0  0  0  0  0  0  0  0  0  0  0
    3.0148   -0.7546   -0.4271 H   0  0  0  0  0  0  0  0  0  0  0  0
   -1.3608   -1.5258    0.3957 H   0  0  0  0  0  0  0  0  0  0  0  0
   -1.0261   -1.0403   -1.2709 H   0  0  0  0  0  0  0  0  0  0  0  0
   -2.9908    0.4555   -1.2875 H   0  0  0  0  0  0  0  0  0  0  0  0
   -3.4810   -1.1974   -0.8467 H   0  0  0  0  0  0  0  0  0  0  0  0
   -5.2586    0.8161   -1.8924 H   0  0  0  0  0  0  0  0  0  0  0  0
   -7.4856   -0.3957   -2.8943 H   0  0  0  0  0  0  0  0  0  0  0  0
   -8.5255   -1.7940   -0.7497 H   0  0  0  0  0  0  0  0  0  0  0  0
   -2.4037   -0.2295    2.3612 H   0  0  0  0  0  0  0  0  0  0  0  0
   -3.1190    1.3868    2.4142 H   0  0  0  0  0  0  0  0  0  0  0  0
   -1.5328    2.2153    0.7174 H   0  0  0  0  0  0  0  0  0  0  0  0
   -0.6354    1.4598    2.0477 H   0  0  0  0  0  0  0  0  0  0  0  0
  1  2  2  0
  2  3  1  0
  3  4  1  0
  4  5  1  0
  5  6  2  0
  6  7  1  0
  7  8  2  0
  8  9  1  0
  9 10  1  0
  9 11  2  0
 11 12  1  0
 12 13  2  0
 13 14  1  0
  2 15  1  0
 15 16  1  0
 16 17  1  0
 17 18  1  0
 18 19  1  0
 19 20  2  0
 19 21  1  0
 21 22  2  0
 22 23  1  0
 23 24  2  0
 24 25  1  0
 18 26  1  0
 26 27  1  0
 14  5  1  0
 27 15  1  0
 13  7  1  0
 25 21  1  0
  3 28  1  0
  3 29  1  0
  8 30  1  0
 11 31  1  0
 12 32  1  0
 14 33  1  0
 16 34  1  0
 16 35  1  0
 17 36  1  0
 17 37  1  0
 22 38  1  0
 23 39  1  0
 24 40  1  0
 26 41  1  0
 26 42  1  0
 27 43  1  0
 27 44  1  0
M  END
$$$$
