
     RDKit          3D

 27 28  0  0  0  0  0  0  0  0999 V2000
    3.9901   -0.9453    1.4297 N   0  0  0  0  0  0  0  0  0  0  0  0
    4.5636   -1.4341    0.3021 C   0  0  0  0  0  0  0  0  0  0  0  0
    6.1971   -1.7112    0.2149 S   0  0  0  0  0  0  0  0  0  0  0  0
    3.7263   -1.6760   -0.7570 N   0  0  0  0  0  0  0  0  0  0  0  0
    2.3629   -1.7038   -0.6137 N   0  0  0  0  0  0  0  0  0  0  0  0
    1.8170   -0.5261   -0.6548 C   0  0  0  0  0  0  0  0  0  0  0  0
    0.3627   -0.3311   -0.5050 C   0  0  0  0  0  0  0  0  0  0  0  0
   -0.4921   -1.4200   -0.3325 C   0  0  0  0  0  0  0  0  0  0  0  0
   -1.8644   -1.2072   -0.1885 C   0  0  0  0  0  0  0  0  0  0  0  0
   -2.3953    0.0926   -0.2148 C   0  0  0  0  0  0  0  0  0  0  0  0
   -3.7730    0.3207   -0.0709 C   0  0  0  0  0  0  0  0  0  0  0  0
   -4.2880    1.6176   -0.0989 C   0  0  0  0  0  0  0  0  0  0  0  0
   -3.4333    2.7024   -0.2711 C   0  0  0  0  0  0  0  0  0  0  0  0
   -2.0608    2.4936   -0.4159 C   0  0  0  0  0  0  0  0  0  0  0  0
   -1.5257    1.1955   -0.3901 C   0  0  0  0  0  0  0  0  0  0  0  0
   -0.1469    0.9704   -0.5345 C   0  0  0  0  0  0  0  0  0  0  0  0
    3.0180   -1.2006    1.5565 H   0  0  0  0  0  0  0  0  0  0  0  0
    4.5640   -0.9297    2.2630 H   0  0  0  0  0  0  0  0  0  0  0  0
    4.1018   -2.3382   -1.4327 H   0  0  0  0  0  0  0  0  0  0  0  0
    2.4296    0.3829   -0.8048 H   0  0  0  0  0  0  0  0  0  0  0  0
   -0.1009   -2.4345   -0.3114 H   0  0  0  0  0  0  0  0  0  0  0  0
   -2.5183   -2.0667   -0.0562 H   0  0  0  0  0  0  0  0  0  0  0  0
   -4.4581   -0.5134    0.0643 H   0  0  0  0  0  0  0  0  0  0  0  0
   -5.3570    1.7796    0.0135 H   0  0  0  0  0  0  0  0  0  0  0  0
   -3.8344    3.7125   -0.2932 H   0  0  0  0  0  0  0  0  0  0  0  0
   -1.4114    3.3561   -0.5497 H   0  0  0  0  0  0  0  0  0  0  0  0
    0.5262    1.8140   -0.6691 H   0  0  0  0  0  0  0  0  0  0  0  0
  1  2  1  0
  2  3  2  0
  2  4  1  0
  4  5  1  0
  5  6  2  3
  6  7  1  0
  7  8  2  0
  8  9  1  0
  9 10  2  0
 10 11  1  0
 11 12  2  0
 12 13  1  0
 13 14  2  0
 14 15  1  0
 15 16  2  0
 16  7  1  0
 15 10  1  0
  1 17  1  0
  1 18  1  0
  4 19  1  0
  6 20  1  0
  8 21  1  0
  9 22  1  0
 11 23  1  0
 12 24  1  0
 13 25  1  0
 14 26  1  0
 16 27  1  0
M  END
$$$$
