
     RDKit          3D

 43 45  0  0  0  0  0  0  0  0999 V2000
    3.3611    0.9669    1.4634 O   0  0  0  0  0  0  0  0  0  0  0  0
    2.6624   -0.0417    1.4002 C   0  0  0  0  0  0  0  0  0  0  0  0
    1.8977   -0.5586    2.6150 C   0  0  0  0  0  0  0  0  0  0  0  0
    0.5368   -0.0633    2.5805 N   0  0  0  0  0  0  0  0  0  0  0  0
   -0.4389   -0.6499    1.8026 C   0  0  0  0  0  0  0  0  0  0  0  0
   -0.2102   -1.6468    1.1182 O   0  0  0  0  0  0  0  0  0  0  0  0
   -1.7670    0.1145    1.7911 C   0  0  0  0  0  0  0  0  0  0  0  0
   -2.9273   -0.7948    1.4146 C   0  0  0  0  0  0  0  0  0  0  0  0
   -4.1450   -0.0396    1.2995 O   0  0  0  0  0  0  0  0  0  0  0  0
   -4.2968    0.8387    2.3426 C   0  0  0  0  0  0  0  0  0  0  0  0
   -5.5547    1.4101    2.5114 C   0  0  0  0  0  0  0  0  0  0  0  0
   -5.7808    2.2950    3.5669 C   0  0  0  0  0  0  0  0  0  0  0  0
   -4.7489    2.6087    4.4530 C   0  0  0  0  0  0  0  0  0  0  0  0
   -3.4867    2.0482    4.2764 C   0  0  0  0  0  0  0  0  0  0  0  0
   -3.2561    1.1796    3.2118 C   0  0  0  0  0  0  0  0  0  0  0  0
   -1.9799    0.6941    3.0846 O   0  0  0  0  0  0  0  0  0  0  0  0
    2.4028   -0.7964    0.2527 N   0  0  0  0  0  0  0  0  0  0  0  0
    2.9265   -0.4015   -0.9370 N   0  0  0  0  0  0  0  0  0  0  0  0
    2.6055   -1.1439   -1.9457 C   0  0  0  0  0  0  0  0  0  0  0  0
    3.0859   -0.8398   -3.3084 C   0  0  0  0  0  0  0  0  0  0  0  0
    3.8466    0.3084   -3.5592 C   0  0  0  0  0  0  0  0  0  0  0  0
    4.2924    0.5720   -4.8594 C   0  0  0  0  0  0  0  0  0  0  0  0
    3.9873   -0.3043   -5.8953 C   0  0  0  0  0  0  0  0  0  0  0  0
    3.2321   -1.4433   -5.6339 C   0  0  0  0  0  0  0  0  0  0  0  0
    2.9714   -2.2740   -6.6813 O   0  0  0  0  0  0  0  0  0  0  0  0
    2.7712   -1.7241   -4.3483 C   0  0  0  0  0  0  0  0  0  0  0  0
    2.3786   -0.1891    3.5257 H   0  0  0  0  0  0  0  0  0  0  0  0
    1.9023   -1.6576    2.6351 H   0  0  0  0  0  0  0  0  0  0  0  0
    0.3314    0.8295    3.0123 H   0  0  0  0  0  0  0  0  0  0  0  0
   -1.6629    0.9311    1.0628 H   0  0  0  0  0  0  0  0  0  0  0  0
   -3.0803   -1.5876    2.1589 H   0  0  0  0  0  0  0  0  0  0  0  0
   -2.7531   -1.2777    0.4475 H   0  0  0  0  0  0  0  0  0  0  0  0
   -6.3615    1.1624    1.8296 H   0  0  0  0  0  0  0  0  0  0  0  0
   -6.7614    2.7379    3.7028 H   0  0  0  0  0  0  0  0  0  0  0  0
   -4.9292    3.2923    5.2788 H   0  0  0  0  0  0  0  0  0  0  0  0
   -2.6816    2.2953    4.9589 H   0  0  0  0  0  0  0  0  0  0  0  0
    1.6341   -1.4732    0.2703 H   0  0  0  0  0  0  0  0  0  0  0  0
    1.9665   -2.0439   -1.8307 H   0  0  0  0  0  0  0  0  0  0  0  0
    4.1012    0.9959   -2.7448 H   0  0  0  0  0  0  0  0  0  0  0  0
    4.8933    1.4551   -5.0572 H   0  0  0  0  0  0  0  0  0  0  0  0
    4.3400   -0.1054   -6.9076 H   0  0  0  0  0  0  0  0  0  0  0  0
    2.5116   -3.0608   -6.3477 H   0  0  0  0  0  0  0  0  0  0  0  0
    2.1838   -2.6184   -4.1539 H   0  0  0  0  0  0  0  0  0  0  0  0
  1  2  2  0
  2  3  1  0
  3  4  1  0
  4  5  1  0
  5  6  2  0
  5  7  1  0
  7  8  1  0
  8  9  1  0
  9 10  1  0
 10 11  2  0
 11 12  1  0
 12 13  2  0
 13 14  1  0
 14 15  2  0
 15 16  1  0
  2 17  1  0
 17 18  1  0
 18 19  2  3
 19 20  1  0
 20 21  2  0
 21 22  1  0
 22 23  2  0
 23 24  1  0
 24 25  1  0
 24 26  2  0
 16  7  1  0
 26 20  1  0
 15 10  1  0
  3 27  1  0
  3 28  1  0
  4 29  1  0
  7 30  1  0
  8 31  1  0
  8 32  1  0
 11 33  1  0
 12 34  1  0
 13 35  1  0
 14 36  1  0
 17 37  1  0
 19 38  1  0
 21 39  1  0
 22 40  1  0
 23 41  1  0
 25 42  1  0
 26 43  1  0
M  END
$$$$
