
     RDKit          3D

 37 37  0  0  0  0  0  0  0  0999 V2000
    4.8818   -0.5908   -1.1073 C   0  0  0  0  0  0  0  0  0  0  0  0
    3.5137   -0.2419   -0.5407 C   0  0  0  0  0  0  0  0  0  0  0  0
    3.5633    1.0447    0.2814 C   0  0  0  0  0  0  0  0  0  0  0  0
    2.2428    1.3986    0.9765 C   0  0  0  0  0  0  0  0  0  0  0  0
    1.0996    1.7329    0.0165 C   0  0  0  0  0  0  0  0  0  0  0  0
    0.2661    0.5325   -0.4063 C   0  0  0  0  0  0  0  0  0  0  0  0
    0.3744   -0.5774    0.1059 O   0  0  0  0  0  0  0  0  0  0  0  0
   -0.6485    0.8766   -1.4102 N   0  0  0  0  0  0  0  0  0  0  0  0
   -1.3452   -0.1008   -2.0749 N   0  0  0  0  0  0  0  0  0  0  0  0
   -2.2085   -0.8180   -1.4118 C   0  0  0  0  0  0  0  0  0  0  0  0
   -2.8240   -1.9965   -2.1318 C   0  0  0  0  0  0  0  0  0  0  0  0
   -2.6901   -0.5664   -0.0297 C   0  0  0  0  0  0  0  0  0  0  0  0
   -2.5996   -1.5740    0.9357 C   0  0  0  0  0  0  0  0  0  0  0  0
   -3.0700   -1.3360    2.2290 C   0  0  0  0  0  0  0  0  0  0  0  0
   -3.6332   -0.0991    2.5453 C   0  0  0  0  0  0  0  0  0  0  0  0
   -4.2127    0.1920    4.1391 Cl  0  0  0  0  0  0  0  0  0  0  0  0
   -3.7310    0.9049    1.5810 C   0  0  0  0  0  0  0  0  0  0  0  0
   -3.2592    0.6717    0.2877 C   0  0  0  0  0  0  0  0  0  0  0  0
    4.8244   -1.5119   -1.6959 H   0  0  0  0  0  0  0  0  0  0  0  0
    5.6112   -0.7454   -0.3058 H   0  0  0  0  0  0  0  0  0  0  0  0
    5.2512    0.2069   -1.7596 H   0  0  0  0  0  0  0  0  0  0  0  0
    2.8104   -0.1340   -1.3731 H   0  0  0  0  0  0  0  0  0  0  0  0
    3.1640   -1.0714    0.0842 H   0  0  0  0  0  0  0  0  0  0  0  0
    3.8716    1.8792   -0.3607 H   0  0  0  0  0  0  0  0  0  0  0  0
    4.3362    0.9453    1.0541 H   0  0  0  0  0  0  0  0  0  0  0  0
    2.4329    2.2871    1.5923 H   0  0  0  0  0  0  0  0  0  0  0  0
    1.9606    0.5983    1.6702 H   0  0  0  0  0  0  0  0  0  0  0  0
    0.4094    2.4178    0.5256 H   0  0  0  0  0  0  0  0  0  0  0  0
    1.4833    2.2484   -0.8711 H   0  0  0  0  0  0  0  0  0  0  0  0
   -0.3321    1.6140   -2.0335 H   0  0  0  0  0  0  0  0  0  0  0  0
   -3.1466   -1.6844   -3.1298 H   0  0  0  0  0  0  0  0  0  0  0  0
   -2.0733   -2.7857   -2.2320 H   0  0  0  0  0  0  0  0  0  0  0  0
   -3.6916   -2.3917   -1.5969 H   0  0  0  0  0  0  0  0  0  0  0  0
   -2.1361   -2.5278    0.6962 H   0  0  0  0  0  0  0  0  0  0  0  0
   -2.9853   -2.1130    2.9841 H   0  0  0  0  0  0  0  0  0  0  0  0
   -4.1720    1.8663    1.8302 H   0  0  0  0  0  0  0  0  0  0  0  0
   -3.3381    1.4492   -0.4677 H   0  0  0  0  0  0  0  0  0  0  0  0
  1  2  1  0
  2  3  1  0
  3  4  1  0
  4  5  1  0
  5  6  1  0
  6  7  2  0
  6  8  1  0
  8  9  1  0
  9 10  2  3
 10 11  1  0
 10 12  1  0
 12 13  2  0
 13 14  1  0
 14 15  2  0
 15 16  1  0
 15 17  1  0
 17 18  2  0
 18 12  1  0
  1 19  1  0
  1 20  1  0
  1 21  1  0
  2 22  1  0
  2 23  1  0
  3 24  1  0
  3 25  1  0
  4 26  1  0
  4 27  1  0
  5 28  1  0
  5 29  1  0
  8 30  1  0
 11 31  1  0
 11 32  1  0
 11 33  1  0
 13 34  1  0
 14 35  1  0
 17 36  1  0
 18 37  1  0
M  END
$$$$
