
     RDKit          3D

 45 47  0  0  0  0  0  0  0  0999 V2000
    0.9841    0.3543   -1.1206 O   0  0  0  0  0  0  0  0  0  0  0  0
    0.9169   -0.1063    0.0075 C   0  0  0  0  0  0  0  0  0  0  0  0
    1.6705   -1.1278    0.5278 N   0  0  0  0  0  0  0  0  0  0  0  0
    2.7558   -1.7223   -0.2172 C   0  0  0  0  0  0  0  0  0  0  0  0
    4.0356   -1.3591    0.4347 C   0  0  0  0  0  0  0  0  0  0  0  0
    4.8141   -0.2201    0.4246 C   0  0  0  0  0  0  0  0  0  0  0  0
    5.9206   -0.4850    1.2667 C   0  0  0  0  0  0  0  0  0  0  0  0
    5.7482   -1.7662    1.7348 C   0  0  0  0  0  0  0  0  0  0  0  0
    4.6061   -2.3061    1.2362 O   0  0  0  0  0  0  0  0  0  0  0  0
   -0.0983    0.4855    0.9802 C   0  0  0  0  0  0  0  0  0  0  0  0
   -1.4101   -0.2065    1.1308 C   0  0  0  0  0  0  0  0  0  0  0  0
   -1.7981   -1.2769    0.4207 C   0  0  0  0  0  0  0  0  0  0  0  0
   -3.1380   -1.9409    0.5895 C   0  0  0  0  0  0  0  0  0  0  0  0
   -3.9515   -1.9129   -0.6815 C   0  0  0  0  0  0  0  0  0  0  0  0
   -4.6570   -0.7573   -1.0479 C   0  0  0  0  0  0  0  0  0  0  0  0
   -5.3962   -0.7241   -2.2314 C   0  0  0  0  0  0  0  0  0  0  0  0
   -5.4345   -1.8423   -3.0619 C   0  0  0  0  0  0  0  0  0  0  0  0
   -4.7333   -2.9945   -2.7105 C   0  0  0  0  0  0  0  0  0  0  0  0
   -3.9923   -3.0297   -1.5281 C   0  0  0  0  0  0  0  0  0  0  0  0
    0.1213    1.5711    1.6644 N   0  0  0  0  0  0  0  0  0  0  0  0
    1.3590    2.1496    1.5132 C   0  0  0  0  0  0  0  0  0  0  0  0
    2.3993    1.5966    1.8476 O   0  0  0  0  0  0  0  0  0  0  0  0
    1.2637    3.4851    0.9600 C   0  0  0  0  0  0  0  0  0  0  0  0
    0.1883    4.2599    0.5562 C   0  0  0  0  0  0  0  0  0  0  0  0
    0.7172    5.4874    0.0874 C   0  0  0  0  0  0  0  0  0  0  0  0
    2.0815    5.3952    0.2327 C   0  0  0  0  0  0  0  0  0  0  0  0
    3.3296    6.7520   -0.2349 Br  0  0  0  0  0  0  0  0  0  0  0  0
    2.4222    4.1910    0.7604 O   0  0  0  0  0  0  0  0  0  0  0  0
    1.6631   -1.2737    1.5304 H   0  0  0  0  0  0  0  0  0  0  0  0
    2.6057   -2.8064   -0.1972 H   0  0  0  0  0  0  0  0  0  0  0  0
    2.7443   -1.3932   -1.2610 H   0  0  0  0  0  0  0  0  0  0  0  0
    4.5933    0.6953   -0.1081 H   0  0  0  0  0  0  0  0  0  0  0  0
    6.7361    0.1808    1.5105 H   0  0  0  0  0  0  0  0  0  0  0  0
    6.3159   -2.4030    2.3986 H   0  0  0  0  0  0  0  0  0  0  0  0
   -2.0689    0.2372    1.8719 H   0  0  0  0  0  0  0  0  0  0  0  0
   -1.1515   -1.7179   -0.3354 H   0  0  0  0  0  0  0  0  0  0  0  0
   -3.7187   -1.4725    1.3944 H   0  0  0  0  0  0  0  0  0  0  0  0
   -2.9777   -2.9794    0.9056 H   0  0  0  0  0  0  0  0  0  0  0  0
   -4.6314    0.1257   -0.4136 H   0  0  0  0  0  0  0  0  0  0  0  0
   -5.9387    0.1763   -2.5080 H   0  0  0  0  0  0  0  0  0  0  0  0
   -6.0090   -1.8152   -3.9840 H   0  0  0  0  0  0  0  0  0  0  0  0
   -4.7603   -3.8651   -3.3606 H   0  0  0  0  0  0  0  0  0  0  0  0
   -3.4459   -3.9348   -1.2732 H   0  0  0  0  0  0  0  0  0  0  0  0
   -0.8514    3.9643    0.5963 H   0  0  0  0  0  0  0  0  0  0  0  0
    0.1707    6.3319   -0.3082 H   0  0  0  0  0  0  0  0  0  0  0  0
  1  2  2  0
  2  3  1  0
  3  4  1  0
  4  5  1  0
  5  6  2  0
  6  7  1  0
  7  8  2  0
  8  9  1  0
  2 10  1  0
 10 11  1  0
 11 12  2  3
 12 13  1  0
 13 14  1  0
 14 15  2  0
 15 16  1  0
 16 17  2  0
 17 18  1  0
 18 19  2  0
 10 20  2  3
 20 21  1  0
 21 22  2  0
 21 23  1  0
 23 24  2  0
 24 25  1  0
 25 26  2  0
 26 27  1  0
 26 28  1  0
  9  5  1  0
 19 14  1  0
 28 23  1  0
  3 29  1  0
  4 30  1  0
  4 31  1  0
  6 32  1  0
  7 33  1  0
  8 34  1  0
 11 35  1  0
 12 36  1  0
 13 37  1  0
 13 38  1  0
 15 39  1  0
 16 40  1  0
 17 41  1  0
 18 42  1  0
 19 43  1  0
 24 44  1  0
 25 45  1  0
M  END
$$$$
