
     RDKit          3D

 39 41  0  0  0  0  0  0  0  0999 V2000
    3.9299    0.8015    2.6729 C   0  0  0  0  0  0  0  0  0  0  0  0
    4.2501    0.2753    1.3228 C   0  0  0  0  0  0  0  0  0  0  0  0
    5.5247    0.2068    0.9175 N   0  0  0  0  0  0  0  0  0  0  0  0
    5.4457   -0.3069   -0.3228 N   0  0  0  0  0  0  0  0  0  0  0  0
    6.6533   -0.5265   -1.0804 C   0  0  0  0  0  0  0  0  0  0  0  0
    4.1711   -0.5651   -0.7208 C   0  0  0  0  0  0  0  0  0  0  0  0
    3.3522   -0.1988    0.3282 C   0  0  0  0  0  0  0  0  0  0  0  0
    1.9134   -0.2878    0.3780 C   0  0  0  0  0  0  0  0  0  0  0  0
    1.2709   -0.7498   -0.6445 N   0  0  0  0  0  0  0  0  0  0  0  0
   -0.0893   -0.8026   -0.5203 N   0  0  0  0  0  0  0  0  0  0  0  0
   -0.8627   -1.3683   -1.5227 C   0  0  0  0  0  0  0  0  0  0  0  0
   -0.4265   -1.8762   -2.5505 O   0  0  0  0  0  0  0  0  0  0  0  0
   -2.2949   -1.3740   -1.2104 C   0  0  0  0  0  0  0  0  0  0  0  0
   -3.0629   -2.5041   -1.4387 C   0  0  0  0  0  0  0  0  0  0  0  0
   -4.6945   -2.3107   -0.9809 S   0  0  0  0  0  0  0  0  0  0  0  0
   -4.4303   -0.6912   -0.5426 C   0  0  0  0  0  0  0  0  0  0  0  0
   -3.1131   -0.2934   -0.7027 C   0  0  0  0  0  0  0  0  0  0  0  0
   -2.6990    1.1332   -0.4561 C   0  0  0  0  0  0  0  0  0  0  0  0
   -3.7470    1.9130    0.3541 C   0  0  0  0  0  0  0  0  0  0  0  0
   -5.1694    1.6562   -0.1568 C   0  0  0  0  0  0  0  0  0  0  0  0
   -5.5470    0.1735   -0.0416 C   0  0  0  0  0  0  0  0  0  0  0  0
    4.8326    1.1068    3.2124 H   0  0  0  0  0  0  0  0  0  0  0  0
    3.2720    1.6730    2.5957 H   0  0  0  0  0  0  0  0  0  0  0  0
    3.4224    0.0364    3.2689 H   0  0  0  0  0  0  0  0  0  0  0  0
    7.2844   -1.2268   -0.5275 H   0  0  0  0  0  0  0  0  0  0  0  0
    7.1611    0.4332   -1.2054 H   0  0  0  0  0  0  0  0  0  0  0  0
    6.3994   -0.9444   -2.0576 H   0  0  0  0  0  0  0  0  0  0  0  0
    3.9410   -0.9804   -1.6933 H   0  0  0  0  0  0  0  0  0  0  0  0
    1.4088    0.0479    1.3003 H   0  0  0  0  0  0  0  0  0  0  0  0
   -0.5241   -0.5638    0.3621 H   0  0  0  0  0  0  0  0  0  0  0  0
   -2.7260   -3.4496   -1.8448 H   0  0  0  0  0  0  0  0  0  0  0  0
   -1.7453    1.1850    0.0758 H   0  0  0  0  0  0  0  0  0  0  0  0
   -2.5575    1.6217   -1.4283 H   0  0  0  0  0  0  0  0  0  0  0  0
   -3.6866    1.6187    1.4098 H   0  0  0  0  0  0  0  0  0  0  0  0
   -3.5202    2.9841    0.3076 H   0  0  0  0  0  0  0  0  0  0  0  0
   -5.2379    1.9744   -1.2050 H   0  0  0  0  0  0  0  0  0  0  0  0
   -5.8864    2.2613    0.4094 H   0  0  0  0  0  0  0  0  0  0  0  0
   -5.7407   -0.0726    1.0098 H   0  0  0  0  0  0  0  0  0  0  0  0
   -6.4719   -0.0093   -0.6005 H   0  0  0  0  0  0  0  0  0  0  0  0
  1  2  1  0
  2  3  2  0
  3  4  1  0
  4  5  1  0
  4  6  1  0
  6  7  2  0
  7  8  1  0
  8  9  2  3
  9 10  1  0
 10 11  1  0
 11 12  2  0
 11 13  1  0
 13 14  2  0
 14 15  1  0
 15 16  1  0
 16 17  2  0
 17 18  1  0
 18 19  1  0
 19 20  1  0
 20 21  1  0
  7  2  1  0
 17 13  1  0
 21 16  1  0
  1 22  1  0
  1 23  1  0
  1 24  1  0
  5 25  1  0
  5 26  1  0
  5 27  1  0
  6 28  1  0
  8 29  1  0
 10 30  1  0
 14 31  1  0
 18 32  1  0
 18 33  1  0
 19 34  1  0
 19 35  1  0
 20 36  1  0
 20 37  1  0
 21 38  1  0
 21 39  1  0
M  END
$$$$
