
     RDKit          3D

 48 50  0  0  0  0  0  0  0  0999 V2000
    3.0453    1.5667    0.5794 C   0  0  0  0  0  0  0  0  0  0  0  0
    1.7353    1.2786    0.6131 C   0  0  0  0  0  0  0  0  0  0  0  0
    0.7314    1.9627    1.4401 C   0  0  0  0  0  0  0  0  0  0  0  0
    0.9684    3.1288    2.3200 C   0  0  0  0  0  0  0  0  0  0  0  0
    2.0250    3.7329    2.4227 O   0  0  0  0  0  0  0  0  0  0  0  0
   -0.1679    3.4440    3.0084 O   0  0  0  0  0  0  0  0  0  0  0  0
   -0.0194    4.5614    3.8887 C   0  0  0  0  0  0  0  0  0  0  0  0
   -0.4505    1.3391    1.2529 C   0  0  0  0  0  0  0  0  0  0  0  0
   -1.6631    1.6244    1.8122 O   0  0  0  0  0  0  0  0  0  0  0  0
   -0.3046    0.2434    0.2921 C   0  0  0  0  0  0  0  0  0  0  0  0
   -1.2750   -0.5645   -0.1787 C   0  0  0  0  0  0  0  0  0  0  0  0
   -2.6911   -0.5631    0.1940 C   0  0  0  0  0  0  0  0  0  0  0  0
   -3.6206    0.1299   -0.5907 C   0  0  0  0  0  0  0  0  0  0  0  0
   -4.9755    0.1216   -0.2497 C   0  0  0  0  0  0  0  0  0  0  0  0
   -5.3927   -0.5835    0.8754 C   0  0  0  0  0  0  0  0  0  0  0  0
   -6.7053   -0.6181    1.2443 O   0  0  0  0  0  0  0  0  0  0  0  0
   -4.4805   -1.2772    1.6622 C   0  0  0  0  0  0  0  0  0  0  0  0
   -3.1268   -1.2684    1.3216 C   0  0  0  0  0  0  0  0  0  0  0  0
    1.0555    0.2543   -0.0686 N   0  0  0  0  0  0  0  0  0  0  0  0
    1.6655   -0.6649   -0.9629 C   0  0  0  0  0  0  0  0  0  0  0  0
    2.2973   -0.2149   -2.1325 C   0  0  0  0  0  0  0  0  0  0  0  0
    2.8872   -1.1138   -3.0311 C   0  0  0  0  0  0  0  0  0  0  0  0
    3.5755   -0.6097   -4.2647 C   0  0  0  0  0  0  0  0  0  0  0  0
    2.8701   -2.4823   -2.7363 C   0  0  0  0  0  0  0  0  0  0  0  0
    2.2607   -2.9563   -1.5685 C   0  0  0  0  0  0  0  0  0  0  0  0
    2.2126   -4.4272   -1.2784 C   0  0  0  0  0  0  0  0  0  0  0  0
    1.6501   -2.0433   -0.6986 C   0  0  0  0  0  0  0  0  0  0  0  0
    3.4879    2.3677    1.1601 H   0  0  0  0  0  0  0  0  0  0  0  0
    3.7359    0.9909   -0.0268 H   0  0  0  0  0  0  0  0  0  0  0  0
    0.2353    5.4631    3.3233 H   0  0  0  0  0  0  0  0  0  0  0  0
    0.7379    4.3512    4.6504 H   0  0  0  0  0  0  0  0  0  0  0  0
   -0.9776    4.7257    4.3893 H   0  0  0  0  0  0  0  0  0  0  0  0
   -1.5406    2.3685    2.4310 H   0  0  0  0  0  0  0  0  0  0  0  0
   -1.0373   -1.3111   -0.9314 H   0  0  0  0  0  0  0  0  0  0  0  0
   -3.2913    0.6836   -1.4665 H   0  0  0  0  0  0  0  0  0  0  0  0
   -5.6805    0.6674   -0.8677 H   0  0  0  0  0  0  0  0  0  0  0  0
   -7.2156   -0.0861    0.6124 H   0  0  0  0  0  0  0  0  0  0  0  0
   -4.8200   -1.8204    2.5390 H   0  0  0  0  0  0  0  0  0  0  0  0
   -2.4154   -1.8063    1.9425 H   0  0  0  0  0  0  0  0  0  0  0  0
    2.3095    0.8509   -2.3515 H   0  0  0  0  0  0  0  0  0  0  0  0
    3.0952    0.3020   -4.6351 H   0  0  0  0  0  0  0  0  0  0  0  0
    3.5282   -1.3508   -5.0695 H   0  0  0  0  0  0  0  0  0  0  0  0
    4.6253   -0.3927   -4.0447 H   0  0  0  0  0  0  0  0  0  0  0  0
    3.3364   -3.1863   -3.4234 H   0  0  0  0  0  0  0  0  0  0  0  0
    3.0883   -4.9367   -1.6940 H   0  0  0  0  0  0  0  0  0  0  0  0
    1.3089   -4.8646   -1.7137 H   0  0  0  0  0  0  0  0  0  0  0  0
    2.2117   -4.6126   -0.1991 H   0  0  0  0  0  0  0  0  0  0  0  0
    1.1709   -2.4039    0.2093 H   0  0  0  0  0  0  0  0  0  0  0  0
  1  2  2  0
  2  3  1  0
  3  4  1  0
  4  5  2  0
  4  6  1  0
  6  7  1  0
  3  8  2  0
  8  9  1  0
  8 10  1  0
 10 11  2  3
 11 12  1  0
 12 13  2  0
 13 14  1  0
 14 15  2  0
 15 16  1  0
 15 17  1  0
 17 18  2  0
 10 19  1  0
 19 20  1  0
 20 21  2  0
 21 22  1  0
 22 23  1  0
 22 24  2  0
 24 25  1  0
 25 26  1  0
 25 27  2  0
 19  2  1  0
 27 20  1  0
 18 12  1  0
  1 28  1  0
  1 29  1  0
  7 30  1  0
  7 31  1  0
  7 32  1  0
  9 33  1  0
 11 34  1  0
 13 35  1  0
 14 36  1  0
 16 37  1  0
 17 38  1  0
 18 39  1  0
 21 40  1  0
 23 41  1  0
 23 42  1  0
 23 43  1  0
 24 44  1  0
 26 45  1  0
 26 46  1  0
 26 47  1  0
 27 48  1  0
M  END
$$$$
