
     RDKit          3D

 51 53  0  0  0  0  0  0  0  0999 V2000
   -4.3541   -0.5857   -0.5969 O   0  0  0  0  0  0  0  0  0  0  0  0
   -5.1981   -0.7973    0.2707 C   0  0  0  0  0  0  0  0  0  0  0  0
   -4.8860   -1.6721    1.4933 C   0  0  0  0  0  0  0  0  0  0  0  0
   -3.4850   -1.8935    1.6507 O   0  0  0  0  0  0  0  0  0  0  0  0
   -2.8034   -0.7933    2.0731 C   0  0  0  0  0  0  0  0  0  0  0  0
   -3.3190    0.2424    2.4685 O   0  0  0  0  0  0  0  0  0  0  0  0
   -1.3251   -1.0145    1.9476 C   0  0  0  0  0  0  0  0  0  0  0  0
   -0.9088   -0.7769    0.5023 C   0  0  0  0  0  0  0  0  0  0  0  0
    0.5215   -1.0256    0.3006 N   0  0  0  0  0  0  0  0  0  0  0  0
    1.4145    0.0036    0.5455 C   0  0  0  0  0  0  0  0  0  0  0  0
    1.1261    1.1256    0.9385 O   0  0  0  0  0  0  0  0  0  0  0  0
    2.8083   -0.4487    0.2903 C   0  0  0  0  0  0  0  0  0  0  0  0
    3.8541    0.3772    0.4346 C   0  0  0  0  0  0  0  0  0  0  0  0
    5.2500    0.0499    0.2173 C   0  0  0  0  0  0  0  0  0  0  0  0
    6.2363    0.9447    0.3889 C   0  0  0  0  0  0  0  0  0  0  0  0
    7.6597    0.6488    0.1697 C   0  0  0  0  0  0  0  0  0  0  0  0
    8.2370   -0.5720    0.5437 C   0  0  0  0  0  0  0  0  0  0  0  0
    9.6007   -0.8039    0.3454 C   0  0  0  0  0  0  0  0  0  0  0  0
   10.4027    0.1858   -0.2188 C   0  0  0  0  0  0  0  0  0  0  0  0
    9.8437    1.4095   -0.5801 C   0  0  0  0  0  0  0  0  0  0  0  0
    8.4803    1.6417   -0.3814 C   0  0  0  0  0  0  0  0  0  0  0  0
    2.8155   -2.1007   -0.1766 S   0  0  0  0  0  0  0  0  0  0  0  0
    1.0656   -2.2417   -0.0578 C   0  0  0  0  0  0  0  0  0  0  0  0
    0.2732   -3.6819   -0.3419 S   0  0  0  0  0  0  0  0  0  0  0  0
   -6.4979   -0.3229    0.2757 N   0  0  0  0  0  0  0  0  0  0  0  0
   -7.1176    0.4988   -0.6924 C   0  0  0  0  0  0  0  0  0  0  0  0
   -6.5002    0.9551   -1.8562 C   0  0  0  0  0  0  0  0  0  0  0  0
   -7.2130    1.7633   -2.7424 C   0  0  0  0  0  0  0  0  0  0  0  0
   -6.6154    2.1990   -3.8592 F   0  0  0  0  0  0  0  0  0  0  0  0
   -8.5335    2.1285   -2.4945 C   0  0  0  0  0  0  0  0  0  0  0  0
   -9.1597    1.6781   -1.3362 C   0  0  0  0  0  0  0  0  0  0  0  0
   -8.4494    0.8711   -0.4504 C   0  0  0  0  0  0  0  0  0  0  0  0
   -9.0607    0.4374    0.6639 F   0  0  0  0  0  0  0  0  0  0  0  0
   -5.3159   -1.2426    2.4059 H   0  0  0  0  0  0  0  0  0  0  0  0
   -5.3546   -2.6484    1.3300 H   0  0  0  0  0  0  0  0  0  0  0  0
   -1.0798   -2.0262    2.2890 H   0  0  0  0  0  0  0  0  0  0  0  0
   -0.8099   -0.3272    2.6282 H   0  0  0  0  0  0  0  0  0  0  0  0
   -1.1284    0.2612    0.2222 H   0  0  0  0  0  0  0  0  0  0  0  0
   -1.4895   -1.4077   -0.1790 H   0  0  0  0  0  0  0  0  0  0  0  0
    3.6533    1.4036    0.7459 H   0  0  0  0  0  0  0  0  0  0  0  0
    5.4884   -0.9597   -0.1102 H   0  0  0  0  0  0  0  0  0  0  0  0
    6.0133    1.9667    0.6880 H   0  0  0  0  0  0  0  0  0  0  0  0
    7.6358   -1.3525    1.0034 H   0  0  0  0  0  0  0  0  0  0  0  0
   10.0364   -1.7560    0.6369 H   0  0  0  0  0  0  0  0  0  0  0  0
   11.4634    0.0051   -0.3724 H   0  0  0  0  0  0  0  0  0  0  0  0
   10.4680    2.1850   -1.0160 H   0  0  0  0  0  0  0  0  0  0  0  0
    8.0631    2.6037   -0.6704 H   0  0  0  0  0  0  0  0  0  0  0  0
   -7.0837   -0.5501    1.0742 H   0  0  0  0  0  0  0  0  0  0  0  0
   -5.4754    0.7097   -2.1098 H   0  0  0  0  0  0  0  0  0  0  0  0
   -9.0591    2.7590   -3.2049 H   0  0  0  0  0  0  0  0  0  0  0  0
  -10.1880    1.9469   -1.1177 H   0  0  0  0  0  0  0  0  0  0  0  0
  1  2  2  0
  2  3  1  0
  3  4  1  0
  4  5  1  0
  5  6  2  0
  5  7  1  0
  7  8  1  0
  8  9  1  0
  9 10  1  0
 10 11  2  0
 10 12  1  0
 12 13  2  3
 13 14  1  0
 14 15  2  3
 15 16  1  0
 16 17  2  0
 17 18  1  0
 18 19  2  0
 19 20  1  0
 20 21  2  0
 12 22  1  0
 22 23  1  0
 23 24  2  0
  2 25  1  0
 25 26  1  0
 26 27  2  0
 27 28  1  0
 28 29  1  0
 28 30  2  0
 30 31  1  0
 31 32  2  0
 32 33  1  0
 23  9  1  0
 32 26  1  0
 21 16  1  0
  3 34  1  0
  3 35  1  0
  7 36  1  0
  7 37  1  0
  8 38  1  0
  8 39  1  0
 13 40  1  0
 14 41  1  0
 15 42  1  0
 17 43  1  0
 18 44  1  0
 19 45  1  0
 20 46  1  0
 21 47  1  0
 25 48  1  0
 27 49  1  0
 30 50  1  0
 31 51  1  0
M  END
$$$$
