
     RDKit          3D

 56 61  0  0  0  0  0  0  0  0999 V2000
    0.0588    3.3057    1.2455 C   0  0  0  0  0  0  0  0  0  0  0  0
    0.8343    2.1121    0.8298 C   0  0  0  0  0  0  0  0  0  0  0  0
    2.1201    2.2428    0.4901 N   0  0  0  0  0  0  0  0  0  0  0  0
    2.5480    0.9823    0.1643 N   0  0  0  0  0  0  0  0  0  0  0  0
    3.8995    0.7846   -0.2609 C   0  0  0  0  0  0  0  0  0  0  0  0
    4.3909   -0.4793   -0.6181 C   0  0  0  0  0  0  0  0  0  0  0  0
    5.7208   -0.6347   -1.0307 C   0  0  0  0  0  0  0  0  0  0  0  0
    6.5665    0.4788   -1.0884 C   0  0  0  0  0  0  0  0  0  0  0  0
    7.9599    0.3161   -1.5204 N   0  0  0  0  0  4  0  0  0  0  0  0
    8.3421   -0.8233   -1.8233 O   0  0  0  0  0  0  0  0  0  0  0  0
    8.6745    1.3284   -1.5571 O   0  0  0  0  0  1  0  0  0  0  0  0
    6.0918    1.7467   -0.7371 C   0  0  0  0  0  0  0  0  0  0  0  0
    4.7629    1.8950   -0.3260 C   0  0  0  0  0  0  0  0  0  0  0  0
    1.5165    0.0619    0.3275 C   0  0  0  0  0  0  0  0  0  0  0  0
    0.4101    0.7770    0.7235 C   0  0  0  0  0  0  0  0  0  0  0  0
   -0.8691    0.0614    0.9816 C   0  0  0  0  0  0  0  0  0  0  0  0
   -1.8184    0.5737   -0.1036 C   0  0  0  0  0  0  0  0  0  0  0  0
   -1.7168    0.1519   -1.4402 C   0  0  0  0  0  0  0  0  0  0  0  0
   -2.6008    0.6316   -2.4099 C   0  0  0  0  0  0  0  0  0  0  0  0
   -3.5958    1.5510   -2.0759 C   0  0  0  0  0  0  0  0  0  0  0  0
   -4.3955    1.9335   -3.1154 O   0  0  0  0  0  0  0  0  0  0  0  0
   -5.1384    3.1265   -2.9326 C   0  0  0  0  0  0  0  0  0  0  0  0
   -6.1700    2.8855   -2.0858 F   0  0  0  0  0  0  0  0  0  0  0  0
   -5.6883    3.4499   -4.1302 F   0  0  0  0  0  0  0  0  0  0  0  0
   -3.7146    1.9735   -0.7526 C   0  0  0  0  0  0  0  0  0  0  0  0
   -2.8327    1.4918    0.2227 C   0  0  0  0  0  0  0  0  0  0  0  0
   -0.7232   -1.4104    0.9366 N   0  0  0  0  0  0  0  0  0  0  0  0
    0.4896   -1.9440    0.4591 C   0  0  0  0  0  0  0  0  0  0  0  0
    1.5757   -1.2809    0.1466 N   0  0  0  0  0  0  0  0  0  0  0  0
    0.6041   -3.4754    0.2657 C   0  0  0  0  0  0  0  0  0  0  0  0
    1.5957   -3.9958   -0.2262 O   0  0  0  0  0  0  0  0  0  0  0  0
   -0.4721   -4.2120    0.6818 N   0  0  0  0  0  0  0  0  0  0  0  0
   -1.6306   -3.6575    1.2322 C   0  0  0  0  0  0  0  0  0  0  0  0
   -2.6405   -4.5395    1.6356 C   0  0  0  0  0  0  0  0  0  0  0  0
   -3.8140   -4.0444    2.1922 C   0  0  0  0  0  0  0  0  0  0  0  0
   -3.9731   -2.6730    2.3452 C   0  0  0  0  0  0  0  0  0  0  0  0
   -2.9609   -1.7941    1.9390 C   0  0  0  0  0  0  0  0  0  0  0  0
   -1.7649   -2.2583    1.3653 C   0  0  0  0  0  0  0  0  0  0  0  0
   -0.6462    3.0534    2.0437 H   0  0  0  0  0  0  0  0  0  0  0  0
   -0.5048    3.7064    0.3972 H   0  0  0  0  0  0  0  0  0  0  0  0
    0.7162    4.0963    1.6222 H   0  0  0  0  0  0  0  0  0  0  0  0
    3.7717   -1.3718   -0.5919 H   0  0  0  0  0  0  0  0  0  0  0  0
    6.0730   -1.6286   -1.3014 H   0  0  0  0  0  0  0  0  0  0  0  0
    6.7336    2.6244   -0.7762 H   0  0  0  0  0  0  0  0  0  0  0  0
    4.4127    2.8912   -0.0570 H   0  0  0  0  0  0  0  0  0  0  0  0
   -1.2158    0.3632    1.9785 H   0  0  0  0  0  0  0  0  0  0  0  0
   -0.9462   -0.5554   -1.7422 H   0  0  0  0  0  0  0  0  0  0  0  0
   -2.5058    0.2855   -3.4372 H   0  0  0  0  0  0  0  0  0  0  0  0
   -4.5325    3.9692   -2.5813 H   0  0  0  0  0  0  0  0  0  0  0  0
   -4.4967    2.6578   -0.4361 H   0  0  0  0  0  0  0  0  0  0  0  0
   -2.9543    1.8377    1.2478 H   0  0  0  0  0  0  0  0  0  0  0  0
   -0.3831   -5.2123    0.5677 H   0  0  0  0  0  0  0  0  0  0  0  0
   -2.5221   -5.6138    1.5209 H   0  0  0  0  0  0  0  0  0  0  0  0
   -4.6013   -4.7254    2.5058 H   0  0  0  0  0  0  0  0  0  0  0  0
   -4.8892   -2.2796    2.7807 H   0  0  0  0  0  0  0  0  0  0  0  0
   -3.1514   -0.7376    2.0918 H   0  0  0  0  0  0  0  0  0  0  0  0
  1  2  1  0
  2  3  2  0
  3  4  1  0
  4  5  1  0
  5  6  2  0
  6  7  1  0
  7  8  2  0
  8  9  1  0
  9 10  2  0
  9 11  1  0
  8 12  1  0
 12 13  2  0
  4 14  1  0
 14 15  2  0
 15 16  1  0
 16 17  1  0
 17 18  2  0
 18 19  1  0
 19 20  2  0
 20 21  1  0
 21 22  1  0
 22 23  1  0
 22 24  1  0
 20 25  1  0
 25 26  2  0
 16 27  1  0
 27 28  1  0
 28 29  2  0
 28 30  1  0
 30 31  2  0
 30 32  1  0
 32 33  1  0
 33 34  2  0
 34 35  1  0
 35 36  2  0
 36 37  1  0
 37 38  2  0
 15  2  1  0
 26 17  1  0
 38 27  1  0
 13  5  1  0
 29 14  1  0
 38 33  1  0
  1 39  1  0
  1 40  1  0
  1 41  1  0
  6 42  1  0
  7 43  1  0
 12 44  1  0
 13 45  1  0
 16 46  1  0
 18 47  1  0
 19 48  1  0
 22 49  1  0
 25 50  1  0
 26 51  1  0
 32 52  1  0
 34 53  1  0
 35 54  1  0
 36 55  1  0
 37 56  1  0
M  CHG  2   9   1  11  -1
M  END
$$$$
