
     RDKit          3D

 56 59  0  0  0  0  0  0  0  0999 V2000
    6.8884    0.9680    0.8345 C   0  0  0  0  0  0  0  0  0  0  0  0
    5.4823    0.3961    0.8902 C   0  0  0  0  0  0  0  0  0  0  0  0
    5.0966    0.0603   -0.4356 O   0  0  0  0  0  0  0  0  0  0  0  0
    3.9264   -0.6454   -0.5836 C   0  0  0  0  0  0  0  0  0  0  0  0
    2.9346   -0.7671    0.3942 C   0  0  0  0  0  0  0  0  0  0  0  0
    1.7670   -1.5016    0.1361 C   0  0  0  0  0  0  0  0  0  0  0  0
    0.7365   -1.6082    1.1716 C   0  0  0  0  0  0  0  0  0  0  0  0
   -0.4205   -0.9287    1.1973 C   0  0  0  0  0  0  0  0  0  0  0  0
   -1.5730   -1.1340    2.4556 S   0  0  0  0  0  0  0  0  0  0  0  0
   -2.7457   -0.0801    1.6830 C   0  0  0  0  0  0  0  0  0  0  0  0
   -3.9556    0.1133    2.0952 N   0  0  0  0  0  0  0  0  0  0  0  0
   -4.4429   -0.5174    3.2480 C   0  0  0  0  0  0  0  0  0  0  0  0
   -5.2132   -1.6802    3.1287 C   0  0  0  0  0  0  0  0  0  0  0  0
   -5.7417   -2.2959    4.2667 C   0  0  0  0  0  0  0  0  0  0  0  0
   -5.5105   -1.7473    5.5284 C   0  0  0  0  0  0  0  0  0  0  0  0
   -4.7628   -0.5773    5.6528 C   0  0  0  0  0  0  0  0  0  0  0  0
   -4.2426    0.0441    4.5148 C   0  0  0  0  0  0  0  0  0  0  0  0
   -2.2129    0.4765    0.5292 N   0  0  0  0  0  0  0  0  0  0  0  0
   -2.9298    1.4016   -0.3071 C   0  0  0  0  0  0  0  0  0  0  0  0
   -2.6960    1.4486   -1.6904 C   0  0  0  0  0  0  0  0  0  0  0  0
   -3.3888    2.3380   -2.5193 C   0  0  0  0  0  0  0  0  0  0  0  0
   -4.3243    3.2109   -1.9783 C   0  0  0  0  0  0  0  0  0  0  0  0
   -4.5723    3.1872   -0.6114 C   0  0  0  0  0  0  0  0  0  0  0  0
   -3.8845    2.2899    0.2145 C   0  0  0  0  0  0  0  0  0  0  0  0
   -0.9111    0.0856    0.2163 C   0  0  0  0  0  0  0  0  0  0  0  0
   -0.2001    0.5244   -0.6784 O   0  0  0  0  0  0  0  0  0  0  0  0
    1.5937   -2.1365   -1.1022 C   0  0  0  0  0  0  0  0  0  0  0  0
    2.5761   -2.0168   -2.0830 C   0  0  0  0  0  0  0  0  0  0  0  0
    3.7213   -1.2560   -1.8272 C   0  0  0  0  0  0  0  0  0  0  0  0
    4.6700   -1.1835   -2.8136 O   0  0  0  0  0  0  0  0  0  0  0  0
    4.5512    0.0268   -3.5572 C   0  0  0  0  0  0  0  0  0  0  0  0
    4.2527   -0.2947   -5.0063 C   0  0  0  0  0  0  0  0  0  0  0  0
    3.9098   -1.3648   -5.4759 O   0  0  0  0  0  0  0  0  0  0  0  0
    4.3775    0.7778   -5.8136 O   0  0  0  0  0  0  0  0  0  0  0  0
    7.5794    0.2513    0.3869 H   0  0  0  0  0  0  0  0  0  0  0  0
    7.2388    1.2205    1.8314 H   0  0  0  0  0  0  0  0  0  0  0  0
    6.9176    1.8657    0.2105 H   0  0  0  0  0  0  0  0  0  0  0  0
    5.4831   -0.4934    1.5261 H   0  0  0  0  0  0  0  0  0  0  0  0
    4.8043    1.1516    1.3010 H   0  0  0  0  0  0  0  0  0  0  0  0
    3.0412   -0.2807    1.3619 H   0  0  0  0  0  0  0  0  0  0  0  0
    0.9787   -2.3129    1.9650 H   0  0  0  0  0  0  0  0  0  0  0  0
   -5.4050   -2.0986    2.1481 H   0  0  0  0  0  0  0  0  0  0  0  0
   -6.3384   -3.1979    4.1642 H   0  0  0  0  0  0  0  0  0  0  0  0
   -5.9240   -2.2241    6.4149 H   0  0  0  0  0  0  0  0  0  0  0  0
   -4.5967   -0.1355    6.6356 H   0  0  0  0  0  0  0  0  0  0  0  0
   -3.6769    0.9690    4.6159 H   0  0  0  0  0  0  0  0  0  0  0  0
   -1.9915    0.7748   -2.1654 H   0  0  0  0  0  0  0  0  0  0  0  0
   -3.1918    2.3436   -3.5874 H   0  0  0  0  0  0  0  0  0  0  0  0
   -4.8581    3.9062   -2.6194 H   0  0  0  0  0  0  0  0  0  0  0  0
   -5.2963    3.8747   -0.1818 H   0  0  0  0  0  0  0  0  0  0  0  0
   -4.0918    2.3381    1.2801 H   0  0  0  0  0  0  0  0  0  0  0  0
    0.6957   -2.7222   -1.3124 H   0  0  0  0  0  0  0  0  0  0  0  0
    2.4527   -2.5005   -3.0469 H   0  0  0  0  0  0  0  0  0  0  0  0
    3.7601    0.6889   -3.1817 H   0  0  0  0  0  0  0  0  0  0  0  0
    5.5144    0.5422   -3.5006 H   0  0  0  0  0  0  0  0  0  0  0  0
    4.1486    0.4259   -6.7047 H   0  0  0  0  0  0  0  0  0  0  0  0
  1  2  1  0
  2  3  1  0
  3  4  1  0
  4  5  2  0
  5  6  1  0
  6  7  1  0
  7  8  2  3
  8  9  1  0
  9 10  1  0
 10 11  2  3
 11 12  1  0
 12 13  2  0
 13 14  1  0
 14 15  2  0
 15 16  1  0
 16 17  2  0
 10 18  1  0
 18 19  1  0
 19 20  2  0
 20 21  1  0
 21 22  2  0
 22 23  1  0
 23 24  2  0
 18 25  1  0
 25 26  2  0
  6 27  2  0
 27 28  1  0
 28 29  2  0
 29 30  1  0
 30 31  1  0
 31 32  1  0
 32 33  2  0
 32 34  1  0
 29  4  1  0
 25  8  1  0
 17 12  1  0
 24 19  1  0
  1 35  1  0
  1 36  1  0
  1 37  1  0
  2 38  1  0
  2 39  1  0
  5 40  1  0
  7 41  1  0
 13 42  1  0
 14 43  1  0
 15 44  1  0
 16 45  1  0
 17 46  1  0
 20 47  1  0
 21 48  1  0
 22 49  1  0
 23 50  1  0
 24 51  1  0
 27 52  1  0
 28 53  1  0
 31 54  1  0
 31 55  1  0
 34 56  1  0
M  END
$$$$
