
     RDKit          3D

 40 40  0  0  0  0  0  0  0  0999 V2000
   -5.1092    0.8636   -1.6946 C   0  0  0  0  0  0  0  0  0  0  0  0
   -5.2474    0.4139   -0.2320 C   0  0  0  0  0  0  0  0  0  0  0  0
   -6.0663    1.4710    0.5299 C   0  0  0  0  0  0  0  0  0  0  0  0
   -5.9973   -0.9256   -0.1624 C   0  0  0  0  0  0  0  0  0  0  0  0
   -3.9315    0.3087    0.4056 N   0  0  0  0  0  0  0  0  0  0  0  0
   -2.9176   -0.5369    0.0121 C   0  0  0  0  0  0  0  0  0  0  0  0
   -2.9453   -1.3419   -0.9060 O   0  0  0  0  0  0  0  0  0  0  0  0
   -1.6404   -0.3927    0.8631 C   0  0  0  0  0  0  0  0  0  0  0  0
   -1.5747    0.4377    1.7628 O   0  0  0  0  0  0  0  0  0  0  0  0
   -0.6290   -1.2564    0.4998 N   0  0  0  0  0  0  0  0  0  0  0  0
    0.6584   -1.0227    1.0159 N   0  0  0  0  0  0  0  0  0  0  0  0
    1.7166   -1.0776    0.1179 C   0  0  0  0  0  0  0  0  0  0  0  0
    1.5794   -1.4966   -1.0294 O   0  0  0  0  0  0  0  0  0  0  0  0
    3.0328   -0.5838    0.7188 C   0  0  0  0  0  0  0  0  0  0  0  0
    4.0699   -0.5874   -0.2492 O   0  0  0  0  0  0  0  0  0  0  0  0
    5.3053   -0.1655    0.1563 C   0  0  0  0  0  0  0  0  0  0  0  0
    5.6506    0.2611    1.4397 C   0  0  0  0  0  0  0  0  0  0  0  0
    6.9604    0.6680    1.7149 C   0  0  0  0  0  0  0  0  0  0  0  0
    7.9278    0.6501    0.7114 C   0  0  0  0  0  0  0  0  0  0  0  0
    7.5881    0.2249   -0.5702 C   0  0  0  0  0  0  0  0  0  0  0  0
    6.2811   -0.1810   -0.8439 C   0  0  0  0  0  0  0  0  0  0  0  0
   -4.5777    0.1224   -2.3006 H   0  0  0  0  0  0  0  0  0  0  0  0
   -4.5505    1.8040   -1.7657 H   0  0  0  0  0  0  0  0  0  0  0  0
   -6.0912    1.0195   -2.1554 H   0  0  0  0  0  0  0  0  0  0  0  0
   -6.1881    1.1921    1.5831 H   0  0  0  0  0  0  0  0  0  0  0  0
   -7.0651    1.5935    0.0964 H   0  0  0  0  0  0  0  0  0  0  0  0
   -5.5680    2.4473    0.5081 H   0  0  0  0  0  0  0  0  0  0  0  0
   -7.0127   -0.8320   -0.5638 H   0  0  0  0  0  0  0  0  0  0  0  0
   -6.0753   -1.2792    0.8722 H   0  0  0  0  0  0  0  0  0  0  0  0
   -5.4905   -1.7079   -0.7369 H   0  0  0  0  0  0  0  0  0  0  0  0
   -3.7055    0.9269    1.1817 H   0  0  0  0  0  0  0  0  0  0  0  0
   -0.6912   -1.7381   -0.4024 H   0  0  0  0  0  0  0  0  0  0  0  0
    0.6964   -0.4083    1.8286 H   0  0  0  0  0  0  0  0  0  0  0  0
    2.8649    0.4359    1.0864 H   0  0  0  0  0  0  0  0  0  0  0  0
    3.2845   -1.2574    1.5469 H   0  0  0  0  0  0  0  0  0  0  0  0
    4.9311    0.2899    2.2502 H   0  0  0  0  0  0  0  0  0  0  0  0
    7.2265    0.9992    2.7156 H   0  0  0  0  0  0  0  0  0  0  0  0
    8.9448    0.9665    0.9282 H   0  0  0  0  0  0  0  0  0  0  0  0
    8.3371    0.2078   -1.3574 H   0  0  0  0  0  0  0  0  0  0  0  0
    6.0188   -0.5133   -1.8458 H   0  0  0  0  0  0  0  0  0  0  0  0
  1  2  1  0
  2  3  1  0
  2  4  1  0
  2  5  1  0
  5  6  1  0
  6  7  2  0
  6  8  1  0
  8  9  2  0
  8 10  1  0
 10 11  1  0
 11 12  1  0
 12 13  2  0
 12 14  1  0
 14 15  1  0
 15 16  1  0
 16 17  2  0
 17 18  1  0
 18 19  2  0
 19 20  1  0
 20 21  2  0
 21 16  1  0
  1 22  1  0
  1 23  1  0
  1 24  1  0
  3 25  1  0
  3 26  1  0
  3 27  1  0
  4 28  1  0
  4 29  1  0
  4 30  1  0
  5 31  1  0
 10 32  1  0
 11 33  1  0
 14 34  1  0
 14 35  1  0
 17 36  1  0
 18 37  1  0
 19 38  1  0
 20 39  1  0
 21 40  1  0
M  END
$$$$
