
     RDKit          3D

 44 46  0  0  0  0  0  0  0  0999 V2000
    4.1688    1.8085   -1.6217 C   0  0  0  0  0  0  0  0  0  0  0  0
    2.7946    1.4283   -1.7228 O   0  0  0  0  0  0  0  0  0  0  0  0
    2.5418    0.1437   -1.3367 C   0  0  0  0  0  0  0  0  0  0  0  0
    3.3960   -0.6519   -0.9751 O   0  0  0  0  0  0  0  0  0  0  0  0
    1.0612   -0.1386   -1.4371 C   0  0  0  0  0  0  0  0  0  0  0  0
    0.6371   -1.5952   -1.3924 C   0  0  0  0  0  0  0  0  0  0  0  0
    1.5787   -2.6688   -1.8837 C   0  0  0  0  0  0  0  0  0  0  0  0
   -0.5482   -1.9821   -1.0207 N   0  0  0  0  0  0  0  0  0  0  0  0
   -1.4781   -1.0471   -0.6339 C   0  0  0  0  0  0  0  0  0  0  0  0
   -1.1430    0.2097   -0.3237 C   0  0  0  0  0  0  0  0  0  0  0  0
   -2.1968    1.1704    0.0498 C   0  0  0  0  0  0  0  0  0  0  0  0
   -1.9244    2.3653    0.1519 O   0  0  0  0  0  0  0  0  0  0  0  0
   -3.4562    0.6475    0.2439 N   0  0  0  0  0  0  0  0  0  0  0  0
   -4.5113    1.5473    0.6691 C   0  0  0  0  0  0  0  0  0  0  0  0
   -3.8216   -0.6414   -0.1211 C   0  0  0  0  0  0  0  0  0  0  0  0
   -4.9950   -1.0166   -0.0727 O   0  0  0  0  0  0  0  0  0  0  0  0
   -2.7909   -1.4661   -0.5563 N   0  0  0  0  0  0  0  0  0  0  0  0
   -3.1135   -2.8433   -0.9201 C   0  0  0  0  0  0  0  0  0  0  0  0
    0.2796    0.6887   -0.3970 C   0  0  0  0  0  0  0  0  0  0  0  0
    0.9054    0.7455    0.9986 C   0  0  0  0  0  0  0  0  0  0  0  0
    1.2272   -0.4110    1.7280 C   0  0  0  0  0  0  0  0  0  0  0  0
    1.7986   -0.3150    3.0002 C   0  0  0  0  0  0  0  0  0  0  0  0
    2.0444    0.9355    3.5598 C   0  0  0  0  0  0  0  0  0  0  0  0
    2.7462    1.0501    5.1261 Cl  0  0  0  0  0  0  0  0  0  0  0  0
    1.7190    2.0932    2.8603 C   0  0  0  0  0  0  0  0  0  0  0  0
    1.1500    1.9984    1.5881 C   0  0  0  0  0  0  0  0  0  0  0  0
    4.2540    2.8540   -1.9305 H   0  0  0  0  0  0  0  0  0  0  0  0
    4.7841    1.1977   -2.2894 H   0  0  0  0  0  0  0  0  0  0  0  0
    4.5145    1.7236   -0.5867 H   0  0  0  0  0  0  0  0  0  0  0  0
    0.7599    0.1802   -2.4476 H   0  0  0  0  0  0  0  0  0  0  0  0
    2.1121   -2.3231   -2.7728 H   0  0  0  0  0  0  0  0  0  0  0  0
    2.2900   -2.9219   -1.0939 H   0  0  0  0  0  0  0  0  0  0  0  0
    1.0187   -3.5718   -2.1455 H   0  0  0  0  0  0  0  0  0  0  0  0
   -5.0285    1.9185   -0.2215 H   0  0  0  0  0  0  0  0  0  0  0  0
   -4.1091    2.3971    1.2283 H   0  0  0  0  0  0  0  0  0  0  0  0
   -5.2322    1.0202    1.3017 H   0  0  0  0  0  0  0  0  0  0  0  0
   -2.8073   -3.0270   -1.9554 H   0  0  0  0  0  0  0  0  0  0  0  0
   -4.1842   -3.0511   -0.8439 H   0  0  0  0  0  0  0  0  0  0  0  0
   -2.5876   -3.5275   -0.2460 H   0  0  0  0  0  0  0  0  0  0  0  0
    0.2762    1.7138   -0.7957 H   0  0  0  0  0  0  0  0  0  0  0  0
    1.0378   -1.4045    1.3281 H   0  0  0  0  0  0  0  0  0  0  0  0
    2.0459   -1.2206    3.5483 H   0  0  0  0  0  0  0  0  0  0  0  0
    1.8986    3.0712    3.2986 H   0  0  0  0  0  0  0  0  0  0  0  0
    0.8874    2.9164    1.0631 H   0  0  0  0  0  0  0  0  0  0  0  0
  1  2  1  0
  2  3  1  0
  3  4  2  0
  3  5  1  0
  5  6  1  0
  6  7  1  0
  6  8  2  0
  8  9  1  0
  9 10  2  0
 10 11  1  0
 11 12  2  0
 11 13  1  0
 13 14  1  0
 13 15  1  0
 15 16  2  0
 15 17  1  0
 17 18  1  0
 10 19  1  0
 19 20  1  0
 20 21  2  0
 21 22  1  0
 22 23  2  0
 23 24  1  0
 23 25  1  0
 25 26  2  0
 19  5  1  0
 26 20  1  0
 17  9  1  0
  1 27  1  0
  1 28  1  0
  1 29  1  0
  5 30  1  0
  7 31  1  0
  7 32  1  0
  7 33  1  0
 14 34  1  0
 14 35  1  0
 14 36  1  0
 18 37  1  0
 18 38  1  0
 18 39  1  0
 19 40  1  0
 21 41  1  0
 22 42  1  0
 25 43  1  0
 26 44  1  0
M  END
$$$$
