
     RDKit          3D

 39 41  0  0  0  0  0  0  0  0999 V2000
   -1.6415    1.1022   -2.1243 C   0  0  0  0  0  0  0  0  0  0  0  0
   -2.5272    0.5544   -1.0377 C   0  0  0  0  0  0  0  0  0  0  0  0
   -3.9125    0.7377   -1.2209 C   0  0  0  0  0  0  0  0  0  0  0  0
   -4.8266    0.3722   -0.2402 C   0  0  0  0  0  0  0  0  0  0  0  0
   -4.3714   -0.1815    0.9483 C   0  0  0  0  0  0  0  0  0  0  0  0
   -2.9999   -0.4069    1.1557 C   0  0  0  0  0  0  0  0  0  0  0  0
   -2.5867   -1.0379    2.4612 C   0  0  0  0  0  0  0  0  0  0  0  0
   -2.0654   -0.0742    0.1394 C   0  0  0  0  0  0  0  0  0  0  0  0
   -0.7001   -0.3531    0.4060 N   0  0  0  0  0  0  0  0  0  0  0  0
    0.2568   -0.7871   -0.4988 C   0  0  0  0  0  0  0  0  0  0  0  0
    0.0666   -1.0606   -1.6777 O   0  0  0  0  0  0  0  0  0  0  0  0
    1.6118   -1.0128    0.1720 C   0  0  0  0  0  0  0  0  0  0  0  0
    2.7641   -1.3661   -0.7933 C   0  0  0  0  0  0  0  0  0  0  0  0
    3.8550   -0.3448   -0.4213 C   0  0  0  0  0  0  0  0  0  0  0  0
    3.4348    1.0380   -0.9442 C   0  0  0  0  0  0  0  0  0  0  0  0
    2.2954    1.4312    0.0055 C   0  0  0  0  0  0  0  0  0  0  0  0
    2.1776    0.2091    0.9347 C   0  0  0  0  0  0  0  0  0  0  0  0
    3.6480   -0.1897    1.0844 C   0  0  0  0  0  0  0  0  0  0  0  0
   -1.5024    0.3626   -2.9175 H   0  0  0  0  0  0  0  0  0  0  0  0
   -2.0948    1.9931   -2.5755 H   0  0  0  0  0  0  0  0  0  0  0  0
   -0.6758    1.4326   -1.7345 H   0  0  0  0  0  0  0  0  0  0  0  0
   -4.2836    1.1951   -2.1366 H   0  0  0  0  0  0  0  0  0  0  0  0
   -5.8896    0.5326   -0.3984 H   0  0  0  0  0  0  0  0  0  0  0  0
   -5.0977   -0.4497    1.7125 H   0  0  0  0  0  0  0  0  0  0  0  0
   -1.9475   -0.3531    3.0277 H   0  0  0  0  0  0  0  0  0  0  0  0
   -2.0543   -1.9771    2.2794 H   0  0  0  0  0  0  0  0  0  0  0  0
   -3.4521   -1.2724    3.0906 H   0  0  0  0  0  0  0  0  0  0  0  0
   -0.4751   -0.5529    1.3701 H   0  0  0  0  0  0  0  0  0  0  0  0
    1.4806   -1.8517    0.8701 H   0  0  0  0  0  0  0  0  0  0  0  0
    3.1168   -2.3838   -0.5875 H   0  0  0  0  0  0  0  0  0  0  0  0
    2.5009   -1.3121   -1.8538 H   0  0  0  0  0  0  0  0  0  0  0  0
    4.8578   -0.6443   -0.7321 H   0  0  0  0  0  0  0  0  0  0  0  0
    4.2591    1.7551   -0.8607 H   0  0  0  0  0  0  0  0  0  0  0  0
    3.1093    1.0116   -1.9889 H   0  0  0  0  0  0  0  0  0  0  0  0
    1.3727    1.6628   -0.5315 H   0  0  0  0  0  0  0  0  0  0  0  0
    2.5787    2.3220    0.5784 H   0  0  0  0  0  0  0  0  0  0  0  0
    1.6617    0.4249    1.8730 H   0  0  0  0  0  0  0  0  0  0  0  0
    4.2671    0.5977    1.5270 H   0  0  0  0  0  0  0  0  0  0  0  0
    3.7895   -1.1231    1.6394 H   0  0  0  0  0  0  0  0  0  0  0  0
  1  2  1  0
  2  3  2  0
  3  4  1  0
  4  5  2  0
  5  6  1  0
  6  7  1  0
  6  8  2  0
  8  9  1  0
  9 10  1  0
 10 11  2  0
 10 12  1  0
 12 13  1  0
 13 14  1  0
 14 15  1  0
 15 16  1  0
 16 17  1  0
 17 18  1  0
  8  2  1  0
 17 12  1  0
 18 14  1  0
  1 19  1  0
  1 20  1  0
  1 21  1  0
  3 22  1  0
  4 23  1  0
  5 24  1  0
  7 25  1  0
  7 26  1  0
  7 27  1  0
  9 28  1  0
 12 29  1  0
 13 30  1  0
 13 31  1  0
 14 32  1  0
 15 33  1  0
 15 34  1  0
 16 35  1  0
 16 36  1  0
 17 37  1  0
 18 38  1  0
 18 39  1  0
M  END
$$$$
