
     RDKit          3D

 45 47  0  0  0  0  0  0  0  0999 V2000
    6.4670    4.7308   -2.6232 C   0  0  0  0  0  0  0  0  0  0  0  0
    4.9950    4.4934   -2.3936 C   0  0  0  0  0  0  0  0  0  0  0  0
    4.1542    5.2030   -2.9337 O   0  0  0  0  0  0  0  0  0  0  0  0
    4.7601    3.4055   -1.5718 N   0  0  0  0  0  0  0  0  0  0  0  0
    3.5125    2.9160   -1.1336 C   0  0  0  0  0  0  0  0  0  0  0  0
    3.5224    1.7498   -0.3541 C   0  0  0  0  0  0  0  0  0  0  0  0
    2.3298    1.1968    0.1197 C   0  0  0  0  0  0  0  0  0  0  0  0
    1.1167    1.8149   -0.1891 C   0  0  0  0  0  0  0  0  0  0  0  0
   -0.3994    1.1033    0.4244 S   0  0  0  0  0  6  0  0  0  0  0  0
   -1.4637    2.0467    0.1501 O   0  0  0  0  0  0  0  0  0  0  0  0
   -0.1073    0.6675    1.7713 O   0  0  0  0  0  0  0  0  0  0  0  0
   -0.6044   -0.2081   -0.6013 N   0  0  0  0  0  0  0  0  0  0  0  0
   -0.6581    0.0720   -2.0439 C   0  0  0  0  0  0  0  0  0  0  0  0
   -1.1666   -1.2693   -2.5708 C   0  0  0  0  0  0  0  0  0  0  0  0
   -1.7568   -1.9964   -1.4191 N   0  0  0  0  0  0  0  0  0  0  0  0
   -1.3943   -1.3447   -0.3590 C   0  0  0  0  0  0  0  0  0  0  0  0
   -1.8309   -1.8430    1.2292 S   0  0  0  0  0  0  0  0  0  0  0  0
   -3.0537   -3.1218    0.8445 C   0  0  0  0  0  0  0  0  0  0  0  0
   -3.6543   -3.7053    2.1018 C   0  0  0  0  0  0  0  0  0  0  0  0
   -3.0817   -4.8369    2.7059 C   0  0  0  0  0  0  0  0  0  0  0  0
   -3.6308   -5.3676    3.8741 C   0  0  0  0  0  0  0  0  0  0  0  0
   -4.7469   -4.7657    4.4423 C   0  0  0  0  0  0  0  0  0  0  0  0
   -5.2727   -5.2765    5.5635 F   0  0  0  0  0  0  0  0  0  0  0  0
   -5.3239   -3.6405    3.8666 C   0  0  0  0  0  0  0  0  0  0  0  0
   -4.7773   -3.1076    2.6981 C   0  0  0  0  0  0  0  0  0  0  0  0
    1.0900    2.9873   -0.9449 C   0  0  0  0  0  0  0  0  0  0  0  0
    2.2891    3.5297   -1.4201 C   0  0  0  0  0  0  0  0  0  0  0  0
    7.0478    4.4943   -1.7270 H   0  0  0  0  0  0  0  0  0  0  0  0
    6.8077    4.1101   -3.4559 H   0  0  0  0  0  0  0  0  0  0  0  0
    6.6308    5.7853   -2.8634 H   0  0  0  0  0  0  0  0  0  0  0  0
    5.5733    2.8878   -1.2628 H   0  0  0  0  0  0  0  0  0  0  0  0
    4.4579    1.2559   -0.1021 H   0  0  0  0  0  0  0  0  0  0  0  0
    2.3532    0.2961    0.7300 H   0  0  0  0  0  0  0  0  0  0  0  0
    0.3186    0.3149   -2.4681 H   0  0  0  0  0  0  0  0  0  0  0  0
   -1.3796    0.8636   -2.2689 H   0  0  0  0  0  0  0  0  0  0  0  0
   -1.9138   -1.1271   -3.3578 H   0  0  0  0  0  0  0  0  0  0  0  0
   -0.3446   -1.8660   -2.9818 H   0  0  0  0  0  0  0  0  0  0  0  0
   -2.5847   -3.9233    0.2620 H   0  0  0  0  0  0  0  0  0  0  0  0
   -3.8535   -2.6987    0.2254 H   0  0  0  0  0  0  0  0  0  0  0  0
   -2.2017   -5.3066    2.2714 H   0  0  0  0  0  0  0  0  0  0  0  0
   -3.1935   -6.2413    4.3460 H   0  0  0  0  0  0  0  0  0  0  0  0
   -6.1904   -3.1828    4.3326 H   0  0  0  0  0  0  0  0  0  0  0  0
   -5.2268   -2.2196    2.2581 H   0  0  0  0  0  0  0  0  0  0  0  0
    0.1518    3.4910   -1.1683 H   0  0  0  0  0  0  0  0  0  0  0  0
    2.2332    4.4449   -2.0027 H   0  0  0  0  0  0  0  0  0  0  0  0
  1  2  1  0
  2  3  2  0
  2  4  1  0
  4  5  1  0
  5  6  2  0
  6  7  1  0
  7  8  2  0
  8  9  1  0
  9 10  2  0
  9 11  2  0
  9 12  1  0
 12 13  1  0
 13 14  1  0
 14 15  1  0
 15 16  2  0
 16 17  1  0
 17 18  1  0
 18 19  1  0
 19 20  2  0
 20 21  1  0
 21 22  2  0
 22 23  1  0
 22 24  1  0
 24 25  2  0
  8 26  1  0
 26 27  2  0
 27  5  1  0
 16 12  1  0
 25 19  1  0
  1 28  1  0
  1 29  1  0
  1 30  1  0
  4 31  1  0
  6 32  1  0
  7 33  1  0
 13 34  1  0
 13 35  1  0
 14 36  1  0
 14 37  1  0
 18 38  1  0
 18 39  1  0
 20 40  1  0
 21 41  1  0
 24 42  1  0
 25 43  1  0
 26 44  1  0
 27 45  1  0
M  END
$$$$
