
     RDKit          3D

 44 46  0  0  0  0  0  0  0  0999 V2000
    1.1763    3.1515    1.2783 C   0  0  0  0  0  0  0  0  0  0  0  0
    1.6825    1.9974    0.6236 O   0  0  0  0  0  0  0  0  0  0  0  0
    0.8057    0.9705    0.3717 C   0  0  0  0  0  0  0  0  0  0  0  0
   -0.5245    0.9406    0.8090 C   0  0  0  0  0  0  0  0  0  0  0  0
   -1.3500   -0.1498    0.5077 C   0  0  0  0  0  0  0  0  0  0  0  0
   -2.7361   -0.1537    0.9973 C   0  0  0  0  0  0  0  0  0  0  0  0
   -3.8541   -0.1948    0.2382 C   0  0  0  0  0  0  0  0  0  0  0  0
   -3.7686   -0.2353   -1.1885 C   0  0  0  0  0  0  0  0  0  0  0  0
   -3.7321   -0.2856   -2.3481 N   0  0  0  0  0  0  0  0  0  0  0  0
   -5.1984   -0.1789    0.8825 C   0  0  0  0  0  0  0  0  0  0  0  0
   -6.3809   -0.3115    0.1501 C   0  0  0  0  0  0  0  0  0  0  0  0
   -7.6070   -0.2867    0.8154 C   0  0  0  0  0  0  0  0  0  0  0  0
   -7.6332   -0.1304    2.1934 C   0  0  0  0  0  0  0  0  0  0  0  0
   -6.4259   -0.0052    2.8532 C   0  0  0  0  0  0  0  0  0  0  0  0
   -5.2244   -0.0263    2.2335 N   0  0  0  0  0  0  0  0  0  0  0  0
   -0.8291   -1.2249   -0.2157 C   0  0  0  0  0  0  0  0  0  0  0  0
    0.4967   -1.2039   -0.6575 C   0  0  0  0  0  0  0  0  0  0  0  0
    1.3205   -0.1114   -0.3705 C   0  0  0  0  0  0  0  0  0  0  0  0
    2.6308    0.0002   -0.7631 O   0  0  0  0  0  0  0  0  0  0  0  0
    3.1961   -1.0692   -1.5165 C   0  0  0  0  0  0  0  0  0  0  0  0
    4.6484   -0.7705   -1.8243 C   0  0  0  0  0  0  0  0  0  0  0  0
    5.2087   -1.1852   -3.0424 C   0  0  0  0  0  0  0  0  0  0  0  0
    6.5571   -0.9475   -3.3216 C   0  0  0  0  0  0  0  0  0  0  0  0
    7.3566   -0.3029   -2.3805 C   0  0  0  0  0  0  0  0  0  0  0  0
    9.0174   -0.0131   -2.7247 Cl  0  0  0  0  0  0  0  0  0  0  0  0
    6.8207    0.1038   -1.1616 C   0  0  0  0  0  0  0  0  0  0  0  0
    5.4728   -0.1342   -0.8829 C   0  0  0  0  0  0  0  0  0  0  0  0
    1.9896    3.8803    1.3478 H   0  0  0  0  0  0  0  0  0  0  0  0
    0.8542    2.9157    2.2977 H   0  0  0  0  0  0  0  0  0  0  0  0
    0.3664    3.6116    0.7026 H   0  0  0  0  0  0  0  0  0  0  0  0
   -0.9414    1.7595    1.3864 H   0  0  0  0  0  0  0  0  0  0  0  0
   -2.8112   -0.0960    2.0828 H   0  0  0  0  0  0  0  0  0  0  0  0
   -6.3798   -0.4364   -0.9289 H   0  0  0  0  0  0  0  0  0  0  0  0
   -8.5337   -0.3892    0.2567 H   0  0  0  0  0  0  0  0  0  0  0  0
   -8.5700   -0.1067    2.7388 H   0  0  0  0  0  0  0  0  0  0  0  0
   -6.3881    0.1196    3.9320 H   0  0  0  0  0  0  0  0  0  0  0  0
   -1.4450   -2.0923   -0.4436 H   0  0  0  0  0  0  0  0  0  0  0  0
    0.8514   -2.0588   -1.2229 H   0  0  0  0  0  0  0  0  0  0  0  0
    2.6442   -1.1797   -2.4578 H   0  0  0  0  0  0  0  0  0  0  0  0
    3.1603   -2.0044   -0.9446 H   0  0  0  0  0  0  0  0  0  0  0  0
    4.5976   -1.6932   -3.7854 H   0  0  0  0  0  0  0  0  0  0  0  0
    6.9759   -1.2673   -4.2720 H   0  0  0  0  0  0  0  0  0  0  0  0
    7.4416    0.6058   -0.4248 H   0  0  0  0  0  0  0  0  0  0  0  0
    5.0621    0.1884    0.0728 H   0  0  0  0  0  0  0  0  0  0  0  0
  1  2  1  0
  2  3  1  0
  3  4  2  0
  4  5  1  0
  5  6  1  0
  6  7  2  3
  7  8  1  0
  8  9  3  0
  7 10  1  0
 10 11  2  0
 11 12  1  0
 12 13  2  0
 13 14  1  0
 14 15  2  0
  5 16  2  0
 16 17  1  0
 17 18  2  0
 18 19  1  0
 19 20  1  0
 20 21  1  0
 21 22  2  0
 22 23  1  0
 23 24  2  0
 24 25  1  0
 24 26  1  0
 26 27  2  0
 18  3  1  0
 27 21  1  0
 15 10  1  0
  1 28  1  0
  1 29  1  0
  1 30  1  0
  4 31  1  0
  6 32  1  0
 11 33  1  0
 12 34  1  0
 13 35  1  0
 14 36  1  0
 16 37  1  0
 17 38  1  0
 20 39  1  0
 20 40  1  0
 22 41  1  0
 23 42  1  0
 26 43  1  0
 27 44  1  0
M  END
$$$$
