
     RDKit          3D

 34 36  0  0  0  0  0  0  0  0999 V2000
    3.6672    1.9486   -0.0869 S   0  0  0  0  0  0  0  0  0  0  0  0
    2.3543    0.9040    0.0156 C   0  0  0  0  0  0  0  0  0  0  0  0
    1.0614    1.2784   -0.2175 N   0  0  0  0  0  0  0  0  0  0  0  0
    0.5516    1.1193   -1.3967 C   0  0  0  0  0  0  0  0  0  0  0  0
    1.3903    0.4020   -2.8157 S   0  0  0  0  0  0  0  0  0  0  0  0
   -0.0302    0.6002   -3.8082 C   0  0  0  0  0  0  0  0  0  0  0  0
   -1.0292    1.1547   -3.1117 C   0  0  0  0  0  0  0  0  0  0  0  0
   -0.7404    1.4539   -1.7888 N   0  0  0  0  0  0  0  0  0  0  0  0
   -1.7029    2.0042   -0.8460 C   0  0  0  0  0  0  0  0  0  0  0  0
   -2.4236    0.9056   -0.0957 C   0  0  0  0  0  0  0  0  0  0  0  0
   -3.5540    0.2831   -0.6462 C   0  0  0  0  0  0  0  0  0  0  0  0
   -4.2054   -0.7411    0.0435 C   0  0  0  0  0  0  0  0  0  0  0  0
   -3.7328   -1.1565    1.2870 C   0  0  0  0  0  0  0  0  0  0  0  0
   -2.6075   -0.5507    1.8419 C   0  0  0  0  0  0  0  0  0  0  0  0
   -1.9548    0.4733    1.1541 C   0  0  0  0  0  0  0  0  0  0  0  0
    2.4296   -0.4052    0.4352 N   0  0  0  0  0  0  0  0  0  0  0  0
    3.6119   -1.1351    0.7603 C   0  0  0  0  0  0  0  0  0  0  0  0
    4.1772   -1.1092    2.1533 C   0  0  0  0  0  0  0  0  0  0  0  0
    3.5298   -2.3581    1.6343 C   0  0  0  0  0  0  0  0  0  0  0  0
   -0.0688    0.3009   -4.8459 H   0  0  0  0  0  0  0  0  0  0  0  0
   -2.0167    1.3778   -3.4942 H   0  0  0  0  0  0  0  0  0  0  0  0
   -2.4402    2.6256   -1.3715 H   0  0  0  0  0  0  0  0  0  0  0  0
   -1.2118    2.6841   -0.1380 H   0  0  0  0  0  0  0  0  0  0  0  0
   -3.9340    0.5909   -1.6174 H   0  0  0  0  0  0  0  0  0  0  0  0
   -5.0813   -1.2170   -0.3899 H   0  0  0  0  0  0  0  0  0  0  0  0
   -4.2405   -1.9541    1.8231 H   0  0  0  0  0  0  0  0  0  0  0  0
   -2.2366   -0.8757    2.8106 H   0  0  0  0  0  0  0  0  0  0  0  0
   -1.0731    0.9327    1.5984 H   0  0  0  0  0  0  0  0  0  0  0  0
    1.5390   -0.8845    0.4790 H   0  0  0  0  0  0  0  0  0  0  0  0
    4.3210   -1.1874   -0.0638 H   0  0  0  0  0  0  0  0  0  0  0  0
    3.6527   -0.5355    2.9085 H   0  0  0  0  0  0  0  0  0  0  0  0
    5.2560   -1.0930    2.2555 H   0  0  0  0  0  0  0  0  0  0  0  0
    4.1708   -3.1972    1.3895 H   0  0  0  0  0  0  0  0  0  0  0  0
    2.5709   -2.6390    2.0527 H   0  0  0  0  0  0  0  0  0  0  0  0
  1  2  2  0
  2  3  1  0
  3  4  2  3
  4  5  1  0
  5  6  1  0
  6  7  2  0
  7  8  1  0
  8  9  1  0
  9 10  1  0
 10 11  2  0
 11 12  1  0
 12 13  2  0
 13 14  1  0
 14 15  2  0
  2 16  1  0
 16 17  1  0
 17 18  1  0
 18 19  1  0
  8  4  1  0
 15 10  1  0
 19 17  1  0
  6 20  1  0
  7 21  1  0
  9 22  1  0
  9 23  1  0
 11 24  1  0
 12 25  1  0
 13 26  1  0
 14 27  1  0
 15 28  1  0
 16 29  1  0
 17 30  1  0
 18 31  1  0
 18 32  1  0
 19 33  1  0
 19 34  1  0
M  END
$$$$
