
     RDKit          3D

 47 48  0  0  0  0  0  0  0  0999 V2000
    2.9937    1.3621   -4.1987 C   0  0  0  0  0  0  0  0  0  0  0  0
    2.2450    0.9817   -3.0513 O   0  0  0  0  0  0  0  0  0  0  0  0
    2.6491    1.4895   -1.8453 C   0  0  0  0  0  0  0  0  0  0  0  0
    3.8768    2.1197   -1.6178 C   0  0  0  0  0  0  0  0  0  0  0  0
    4.1980    2.6115   -0.3466 C   0  0  0  0  0  0  0  0  0  0  0  0
    3.2959    2.4871    0.7087 C   0  0  0  0  0  0  0  0  0  0  0  0
    2.0728    1.8559    0.4994 C   0  0  0  0  0  0  0  0  0  0  0  0
    1.7703    1.3301   -0.7640 C   0  0  0  0  0  0  0  0  0  0  0  0
    0.4349    0.7521   -0.9557 C   0  0  0  0  0  0  0  0  0  0  0  0
   -0.4617    1.5234   -1.3115 O   0  0  0  0  0  0  0  0  0  0  0  0
    0.1924   -0.5971   -0.6919 N   0  0  0  0  0  0  0  0  0  0  0  0
   -1.1959   -0.9352   -0.7523 N   0  0  0  0  0  0  0  0  0  0  0  0
   -1.9583   -0.6805    0.3740 C   0  0  0  0  0  0  0  0  0  0  0  0
   -1.5174   -0.5873    1.5143 O   0  0  0  0  0  0  0  0  0  0  0  0
   -3.2878   -0.5554   -0.0017 O   0  0  0  0  0  0  0  0  0  0  0  0
   -4.1371   -0.2027    1.0488 C   0  0  0  0  0  0  0  0  0  0  0  0
   -4.9596   -1.1819    1.6014 C   0  0  0  0  0  0  0  0  0  0  0  0
   -5.8488   -0.8285    2.6155 C   0  0  0  0  0  0  0  0  0  0  0  0
   -5.9169    0.4960    3.0554 C   0  0  0  0  0  0  0  0  0  0  0  0
   -5.0996    1.4722    2.4800 C   0  0  0  0  0  0  0  0  0  0  0  0
   -4.2085    1.1258    1.4656 C   0  0  0  0  0  0  0  0  0  0  0  0
    1.0973   -1.7489   -0.3482 C   0  0  0  0  0  0  0  0  0  0  0  0
    2.1533   -1.9534   -1.4514 C   0  0  0  0  0  0  0  0  0  0  0  0
    1.8052   -1.5254    0.9998 C   0  0  0  0  0  0  0  0  0  0  0  0
    0.3299   -3.0956   -0.2347 C   0  0  0  0  0  0  0  0  0  0  0  0
    3.0606    2.4514   -4.2897 H   0  0  0  0  0  0  0  0  0  0  0  0
    2.4669    0.9858   -5.0808 H   0  0  0  0  0  0  0  0  0  0  0  0
    3.9878    0.9039   -4.1849 H   0  0  0  0  0  0  0  0  0  0  0  0
    4.6090    2.2463   -2.4087 H   0  0  0  0  0  0  0  0  0  0  0  0
    5.1539    3.1047   -0.1841 H   0  0  0  0  0  0  0  0  0  0  0  0
    3.5413    2.8884    1.6889 H   0  0  0  0  0  0  0  0  0  0  0  0
    1.3538    1.7736    1.3121 H   0  0  0  0  0  0  0  0  0  0  0  0
   -1.6481   -0.6267   -1.6089 H   0  0  0  0  0  0  0  0  0  0  0  0
   -4.9067   -2.2077    1.2513 H   0  0  0  0  0  0  0  0  0  0  0  0
   -6.4899   -1.5830    3.0635 H   0  0  0  0  0  0  0  0  0  0  0  0
   -6.6098    0.7688    3.8475 H   0  0  0  0  0  0  0  0  0  0  0  0
   -5.1577    2.5019    2.8226 H   0  0  0  0  0  0  0  0  0  0  0  0
   -3.5736    1.8810    1.0111 H   0  0  0  0  0  0  0  0  0  0  0  0
    2.9028   -1.1603   -1.4580 H   0  0  0  0  0  0  0  0  0  0  0  0
    2.7038   -2.8907   -1.3073 H   0  0  0  0  0  0  0  0  0  0  0  0
    1.6866   -1.9876   -2.4422 H   0  0  0  0  0  0  0  0  0  0  0  0
    1.0915   -1.2566    1.7851 H   0  0  0  0  0  0  0  0  0  0  0  0
    2.5581   -0.7369    0.9461 H   0  0  0  0  0  0  0  0  0  0  0  0
    2.3328   -2.4302    1.3241 H   0  0  0  0  0  0  0  0  0  0  0  0
   -0.1981   -3.3354   -1.1650 H   0  0  0  0  0  0  0  0  0  0  0  0
   -0.4025   -3.0789    0.5798 H   0  0  0  0  0  0  0  0  0  0  0  0
    1.0147   -3.9268   -0.0273 H   0  0  0  0  0  0  0  0  0  0  0  0
  1  2  1  0
  2  3  1  0
  3  4  2  0
  4  5  1  0
  5  6  2  0
  6  7  1  0
  7  8  2  0
  8  9  1  0
  9 10  2  0
  9 11  1  0
 11 12  1  0
 12 13  1  0
 13 14  2  0
 13 15  1  0
 15 16  1  0
 16 17  2  0
 17 18  1  0
 18 19  2  0
 19 20  1  0
 20 21  2  0
 11 22  1  0
 22 23  1  0
 22 24  1  0
 22 25  1  0
  8  3  1  0
 21 16  1  0
  1 26  1  0
  1 27  1  0
  1 28  1  0
  4 29  1  0
  5 30  1  0
  6 31  1  0
  7 32  1  0
 12 33  1  0
 17 34  1  0
 18 35  1  0
 19 36  1  0
 20 37  1  0
 21 38  1  0
 23 39  1  0
 23 40  1  0
 23 41  1  0
 24 42  1  0
 24 43  1  0
 24 44  1  0
 25 45  1  0
 25 46  1  0
 25 47  1  0
M  END
$$$$
