
     RDKit          3D

 50 52  0  0  0  0  0  0  0  0999 V2000
   -7.1909   -0.8705   -0.1210 C   0  0  0  0  0  0  0  0  0  0  0  0
   -6.0332   -0.1192    0.5350 C   0  0  0  0  0  0  0  0  0  0  0  0
   -5.8453    1.2763   -0.0847 C   0  0  0  0  0  0  0  0  0  0  0  0
   -4.7737    1.2913   -1.1698 C   0  0  0  0  0  0  0  0  0  0  0  0
   -3.4788    0.8260   -0.6712 N   0  0  0  0  0  0  0  0  0  0  0  0
   -2.3341    1.3338   -1.2747 C   0  0  0  0  0  0  0  0  0  0  0  0
   -2.3317    2.1228   -2.2147 O   0  0  0  0  0  0  0  0  0  0  0  0
   -1.0178    0.9165   -0.7652 C   0  0  0  0  0  0  0  0  0  0  0  0
   -0.2873    1.8005    0.0331 C   0  0  0  0  0  0  0  0  0  0  0  0
    0.9860    1.4403    0.4826 C   0  0  0  0  0  0  0  0  0  0  0  0
    1.5420    0.2040    0.1147 C   0  0  0  0  0  0  0  0  0  0  0  0
    3.1044   -0.2596    0.8437 S   0  0  0  0  0  6  0  0  0  0  0  0
    3.0522   -1.6928    1.0359 O   0  0  0  0  0  0  0  0  0  0  0  0
    3.2657    0.6144    1.9942 O   0  0  0  0  0  0  0  0  0  0  0  0
    4.3256    0.1988   -0.3870 C   0  0  0  0  0  0  0  0  0  0  0  0
    5.6970   -0.0609    0.1706 C   0  0  0  0  0  0  0  0  0  0  0  0
    6.3877    0.9220    0.8965 C   0  0  0  0  0  0  0  0  0  0  0  0
    7.6538    0.6516    1.4212 C   0  0  0  0  0  0  0  0  0  0  0  0
    8.2398   -0.6005    1.2321 C   0  0  0  0  0  0  0  0  0  0  0  0
    7.5597   -1.5843    0.5169 C   0  0  0  0  0  0  0  0  0  0  0  0
    6.3008   -1.3082   -0.0049 C   0  0  0  0  0  0  0  0  0  0  0  0
    5.6664   -2.2599   -0.6999 F   0  0  0  0  0  0  0  0  0  0  0  0
    0.7971   -0.6637   -0.6917 C   0  0  0  0  0  0  0  0  0  0  0  0
    1.3225   -1.9323   -1.1543 N   0  0  0  0  0  4  0  0  0  0  0  0
    2.3570   -1.8839   -1.8290 O   0  0  0  0  0  0  0  0  0  0  0  0
    0.6472   -2.9395   -0.9172 O   0  0  0  0  0  1  0  0  0  0  0  0
   -0.4809   -0.3116   -1.1495 C   0  0  0  0  0  0  0  0  0  0  0  0
   -3.4943   -0.0930    0.4724 C   0  0  0  0  0  0  0  0  0  0  0  0
   -4.7479   -0.9603    0.4728 C   0  0  0  0  0  0  0  0  0  0  0  0
   -8.1276   -0.3150   -0.0149 H   0  0  0  0  0  0  0  0  0  0  0  0
   -7.3274   -1.8493    0.3482 H   0  0  0  0  0  0  0  0  0  0  0  0
   -7.0144   -1.0250   -1.1897 H   0  0  0  0  0  0  0  0  0  0  0  0
   -6.3008    0.0251    1.5914 H   0  0  0  0  0  0  0  0  0  0  0  0
   -5.5415    1.9693    0.7116 H   0  0  0  0  0  0  0  0  0  0  0  0
   -6.7909    1.6620   -0.4826 H   0  0  0  0  0  0  0  0  0  0  0  0
   -5.0563    0.6340   -2.0008 H   0  0  0  0  0  0  0  0  0  0  0  0
   -4.6759    2.3049   -1.5730 H   0  0  0  0  0  0  0  0  0  0  0  0
   -0.7107    2.7653    0.3050 H   0  0  0  0  0  0  0  0  0  0  0  0
    1.5262    2.1290    1.1321 H   0  0  0  0  0  0  0  0  0  0  0  0
    4.1636   -0.3669   -1.3049 H   0  0  0  0  0  0  0  0  0  0  0  0
    4.1948    1.2631   -0.6122 H   0  0  0  0  0  0  0  0  0  0  0  0
    5.9433    1.8997    1.0710 H   0  0  0  0  0  0  0  0  0  0  0  0
    8.1819    1.4166    1.9864 H   0  0  0  0  0  0  0  0  0  0  0  0
    9.2226   -0.8092    1.6454 H   0  0  0  0  0  0  0  0  0  0  0  0
    7.9986   -2.5650    0.3653 H   0  0  0  0  0  0  0  0  0  0  0  0
   -1.0502   -0.9741   -1.7977 H   0  0  0  0  0  0  0  0  0  0  0  0
   -3.4459    0.5174    1.3821 H   0  0  0  0  0  0  0  0  0  0  0  0
   -2.6105   -0.7345    0.4621 H   0  0  0  0  0  0  0  0  0  0  0  0
   -4.7445   -1.5780   -0.4349 H   0  0  0  0  0  0  0  0  0  0  0  0
   -4.7233   -1.6525    1.3230 H   0  0  0  0  0  0  0  0  0  0  0  0
  1  2  1  0
  2  3  1  0
  3  4  1  0
  4  5  1  0
  5  6  1  0
  6  7  2  0
  6  8  1  0
  8  9  2  0
  9 10  1  0
 10 11  2  0
 11 12  1  0
 12 13  2  0
 12 14  2  0
 12 15  1  0
 15 16  1  0
 16 17  2  0
 17 18  1  0
 18 19  2  0
 19 20  1  0
 20 21  2  0
 21 22  1  0
 11 23  1  0
 23 24  1  0
 24 25  2  0
 24 26  1  0
 23 27  2  0
  5 28  1  0
 28 29  1  0
 29  2  1  0
 27  8  1  0
 21 16  1  0
  1 30  1  0
  1 31  1  0
  1 32  1  0
  2 33  1  0
  3 34  1  0
  3 35  1  0
  4 36  1  0
  4 37  1  0
  9 38  1  0
 10 39  1  0
 15 40  1  0
 15 41  1  0
 17 42  1  0
 18 43  1  0
 19 44  1  0
 20 45  1  0
 27 46  1  0
 28 47  1  0
 28 48  1  0
 29 49  1  0
 29 50  1  0
M  CHG  2  24   1  26  -1
M  END
$$$$
