
     RDKit          3D

 54 55  0  0  0  0  0  0  0  0999 V2000
    0.2742   -0.8104   -4.3836 C   0  0  0  0  0  0  0  0  0  0  0  0
   -0.7092   -0.8094   -3.3664 O   0  0  0  0  0  0  0  0  0  0  0  0
   -0.2806   -1.0111   -2.0789 C   0  0  0  0  0  0  0  0  0  0  0  0
    1.0589   -0.9469   -1.6758 C   0  0  0  0  0  0  0  0  0  0  0  0
    1.4256   -1.2021   -0.3432 C   0  0  0  0  0  0  0  0  0  0  0  0
    2.8714   -1.0881    0.0828 C   0  0  0  0  0  0  0  0  0  0  0  0
    3.2525    0.3181    0.0811 N   0  0  0  0  0  0  0  0  0  0  0  0
    4.5110    0.6911    0.5678 C   0  0  0  0  0  0  0  0  0  0  0  0
    5.6107   -0.1745    0.6243 C   0  0  0  0  0  0  0  0  0  0  0  0
    6.8675    0.2722    1.0593 C   0  0  0  0  0  0  0  0  0  0  0  0
    7.0541    1.6109    1.4154 C   0  0  0  0  0  0  0  0  0  0  0  0
    8.3656    2.1319    1.8742 C   0  0  0  0  0  0  0  0  0  0  0  0
    8.6191    3.2898    2.1540 O   0  0  0  0  0  0  0  0  0  0  0  0
    9.3057    1.1709    1.9654 O   0  0  0  0  0  0  0  0  0  0  0  0
    5.9796    2.4979    1.3204 C   0  0  0  0  0  0  0  0  0  0  0  0
    4.7277    2.0405    0.8881 C   0  0  0  0  0  0  0  0  0  0  0  0
    0.4314   -1.5359    0.5862 C   0  0  0  0  0  0  0  0  0  0  0  0
   -0.9089   -1.5950    0.1951 C   0  0  0  0  0  0  0  0  0  0  0  0
   -2.1942   -2.1120    1.4970 Br  0  0  0  0  0  0  0  0  0  0  0  0
   -1.2753   -1.2896   -1.1207 C   0  0  0  0  0  0  0  0  0  0  0  0
   -2.6058   -1.3469   -1.4718 O   0  0  0  0  0  0  0  0  0  0  0  0
   -3.1261   -0.0576   -1.7981 C   0  0  0  0  0  0  0  0  0  0  0  0
   -3.8314    0.5832   -0.5989 C   0  0  0  0  0  0  0  0  0  0  0  0
   -3.3499    1.5350    0.0085 O   0  0  0  0  0  0  0  0  0  0  0  0
   -5.0493   -0.0135   -0.2968 N   0  0  0  0  0  0  0  0  0  0  0  0
   -5.9332    0.3979    0.8078 C   0  0  0  0  0  0  0  0  0  0  0  0
   -7.2407   -0.4130    0.6953 C   0  0  0  0  0  0  0  0  0  0  0  0
   -6.3000    1.8948    0.7142 C   0  0  0  0  0  0  0  0  0  0  0  0
   -5.2857    0.1025    2.1662 C   0  0  0  0  0  0  0  0  0  0  0  0
    0.8665   -1.7286   -4.3626 H   0  0  0  0  0  0  0  0  0  0  0  0
    0.9181    0.0737   -4.3125 H   0  0  0  0  0  0  0  0  0  0  0  0
   -0.2466   -0.7713   -5.3440 H   0  0  0  0  0  0  0  0  0  0  0  0
    1.8475   -0.6825   -2.3771 H   0  0  0  0  0  0  0  0  0  0  0  0
    3.4837   -1.6682   -0.6165 H   0  0  0  0  0  0  0  0  0  0  0  0
    3.0020   -1.5205    1.0821 H   0  0  0  0  0  0  0  0  0  0  0  0
    2.5137    0.9141    0.4560 H   0  0  0  0  0  0  0  0  0  0  0  0
    5.5199   -1.2157    0.3299 H   0  0  0  0  0  0  0  0  0  0  0  0
    7.6939   -0.4342    1.1034 H   0  0  0  0  0  0  0  0  0  0  0  0
   10.1036    1.6501    2.2807 H   0  0  0  0  0  0  0  0  0  0  0  0
    6.1084    3.5495    1.5720 H   0  0  0  0  0  0  0  0  0  0  0  0
    3.9131    2.7595    0.7993 H   0  0  0  0  0  0  0  0  0  0  0  0
    0.7020   -1.7456    1.6186 H   0  0  0  0  0  0  0  0  0  0  0  0
   -3.8731   -0.1999   -2.5949 H   0  0  0  0  0  0  0  0  0  0  0  0
   -2.3804    0.6539   -2.1915 H   0  0  0  0  0  0  0  0  0  0  0  0
   -5.1436   -0.9707   -0.6300 H   0  0  0  0  0  0  0  0  0  0  0  0
   -7.0507   -1.4865    0.7694 H   0  0  0  0  0  0  0  0  0  0  0  0
   -7.9495   -0.1420    1.4877 H   0  0  0  0  0  0  0  0  0  0  0  0
   -7.7314   -0.2350   -0.2722 H   0  0  0  0  0  0  0  0  0  0  0  0
   -6.7043    2.1414   -0.2743 H   0  0  0  0  0  0  0  0  0  0  0  0
   -7.0597    2.1631    1.4617 H   0  0  0  0  0  0  0  0  0  0  0  0
   -5.4324    2.5480    0.8874 H   0  0  0  0  0  0  0  0  0  0  0  0
   -5.0923   -0.9704    2.2792 H   0  0  0  0  0  0  0  0  0  0  0  0
   -4.3339    0.6206    2.2864 H   0  0  0  0  0  0  0  0  0  0  0  0
   -5.9392    0.4102    2.9925 H   0  0  0  0  0  0  0  0  0  0  0  0
  1  2  1  0
  2  3  1  0
  3  4  2  0
  4  5  1  0
  5  6  1  0
  6  7  1  0
  7  8  1  0
  8  9  2  0
  9 10  1  0
 10 11  2  0
 11 12  1  0
 12 13  2  0
 12 14  1  0
 11 15  1  0
 15 16  2  0
  5 17  2  0
 17 18  1  0
 18 19  1  0
 18 20  2  0
 20 21  1  0
 21 22  1  0
 22 23  1  0
 23 24  2  0
 23 25  1  0
 25 26  1  0
 26 27  1  0
 26 28  1  0
 26 29  1  0
 20  3  1  0
 16  8  1  0
  1 30  1  0
  1 31  1  0
  1 32  1  0
  4 33  1  0
  6 34  1  0
  6 35  1  0
  7 36  1  0
  9 37  1  0
 10 38  1  0
 14 39  1  0
 15 40  1  0
 16 41  1  0
 17 42  1  0
 22 43  1  0
 22 44  1  0
 25 45  1  0
 27 46  1  0
 27 47  1  0
 27 48  1  0
 28 49  1  0
 28 50  1  0
 28 51  1  0
 29 52  1  0
 29 53  1  0
 29 54  1  0
M  END
$$$$
