
     RDKit          3D

 65 68  0  0  0  0  0  0  0  0999 V2000
  -10.1758   -1.6684    2.9870 C   0  0  0  0  0  0  0  0  0  0  0  0
   -8.9525   -1.2708    2.2164 C   0  0  0  0  0  0  0  0  0  0  0  0
   -8.3568   -2.1627    1.3180 C   0  0  0  0  0  0  0  0  0  0  0  0
   -7.2357   -1.7805    0.5773 C   0  0  0  0  0  0  0  0  0  0  0  0
   -6.7010   -0.4940    0.7131 C   0  0  0  0  0  0  0  0  0  0  0  0
   -5.4782   -0.0814   -0.0663 C   0  0  0  0  0  0  0  0  0  0  0  0
   -4.1961   -0.2865    0.7436 C   0  0  0  0  0  0  0  0  0  0  0  0
   -3.0103    0.0795   -0.0079 N   0  0  0  0  0  0  0  0  0  0  0  0
   -2.6212    1.3942   -0.1538 C   0  0  0  0  0  0  0  0  0  0  0  0
   -3.2152    2.3354    0.3590 O   0  0  0  0  0  0  0  0  0  0  0  0
   -1.3836    1.5444   -1.0152 C   0  0  0  0  0  0  0  0  0  0  0  0
   -0.9638    3.0044   -1.1754 C   0  0  0  0  0  0  0  0  0  0  0  0
    0.1960    3.1846   -2.1551 C   0  0  0  0  0  0  0  0  0  0  0  0
    1.4466    2.6109   -1.6686 N   0  0  0  0  0  0  0  0  0  0  0  0
    2.1612    3.4076   -0.7668 N   0  0  0  0  0  0  0  0  0  0  0  0
    3.2837    2.9975   -0.2463 C   0  0  0  0  0  0  0  0  0  0  0  0
    3.9962    3.9026    0.7180 C   0  0  0  0  0  0  0  0  0  0  0  0
    3.7999    1.7009   -0.6098 C   0  0  0  0  0  0  0  0  0  0  0  0
    4.9586    1.0040   -0.3105 C   0  0  0  0  0  0  0  0  0  0  0  0
    6.1777    1.4504    0.4112 C   0  0  0  0  0  0  0  0  0  0  0  0
    4.7960   -0.2567   -0.8984 N   0  0  0  0  0  0  0  0  0  0  0  0
    5.5576   -1.4576   -0.7514 C   0  0  0  0  0  0  0  0  0  0  0  0
    6.4219   -1.6721    0.3274 C   0  0  0  0  0  0  0  0  0  0  0  0
    7.1392   -2.8702    0.4332 C   0  0  0  0  0  0  0  0  0  0  0  0
    6.9883   -3.8816   -0.5204 C   0  0  0  0  0  0  0  0  0  0  0  0
    7.7834   -5.1493   -0.4182 C   0  0  0  0  0  0  0  0  0  0  0  0
    6.1178   -3.6739   -1.5929 C   0  0  0  0  0  0  0  0  0  0  0  0
    5.3987   -2.4801   -1.7009 C   0  0  0  0  0  0  0  0  0  0  0  0
    3.7124   -0.2711   -1.7226 N   0  0  0  0  0  0  0  0  0  0  0  0
    3.0866    0.8852   -1.4934 C   0  0  0  0  0  0  0  0  0  0  0  0
    1.8244    1.3152   -2.0803 C   0  0  0  0  0  0  0  0  0  0  0  0
    1.1531    0.6190   -2.8400 O   0  0  0  0  0  0  0  0  0  0  0  0
   -7.3039    0.4015    1.6044 C   0  0  0  0  0  0  0  0  0  0  0  0
   -8.4244    0.0185    2.3443 C   0  0  0  0  0  0  0  0  0  0  0  0
  -10.1945   -1.1800    3.9669 H   0  0  0  0  0  0  0  0  0  0  0  0
  -11.0756   -1.3854    2.4322 H   0  0  0  0  0  0  0  0  0  0  0  0
  -10.1945   -2.7490    3.1634 H   0  0  0  0  0  0  0  0  0  0  0  0
   -8.7621   -3.1636    1.1894 H   0  0  0  0  0  0  0  0  0  0  0  0
   -6.7865   -2.4938   -0.1096 H   0  0  0  0  0  0  0  0  0  0  0  0
   -5.5794    0.9680   -0.3715 H   0  0  0  0  0  0  0  0  0  0  0  0
   -5.4243   -0.6534   -1.0017 H   0  0  0  0  0  0  0  0  0  0  0  0
   -4.0818   -1.3383    1.0292 H   0  0  0  0  0  0  0  0  0  0  0  0
   -4.2219    0.3079    1.6648 H   0  0  0  0  0  0  0  0  0  0  0  0
   -2.5241   -0.6385   -0.5310 H   0  0  0  0  0  0  0  0  0  0  0  0
   -1.5995    1.1076   -1.9972 H   0  0  0  0  0  0  0  0  0  0  0  0
   -0.5795    0.9671   -0.5459 H   0  0  0  0  0  0  0  0  0  0  0  0
   -0.6983    3.4206   -0.1957 H   0  0  0  0  0  0  0  0  0  0  0  0
   -1.8172    3.5883   -1.5421 H   0  0  0  0  0  0  0  0  0  0  0  0
   -0.0588    2.7449   -3.1261 H   0  0  0  0  0  0  0  0  0  0  0  0
    0.3678    4.2542   -2.3249 H   0  0  0  0  0  0  0  0  0  0  0  0
    4.8764    4.3315    0.2320 H   0  0  0  0  0  0  0  0  0  0  0  0
    4.3004    3.3451    1.6073 H   0  0  0  0  0  0  0  0  0  0  0  0
    3.3388    4.7201    1.0290 H   0  0  0  0  0  0  0  0  0  0  0  0
    6.0883    1.2542    1.4834 H   0  0  0  0  0  0  0  0  0  0  0  0
    6.3373    2.5242    0.2794 H   0  0  0  0  0  0  0  0  0  0  0  0
    7.0818    0.9720    0.0237 H   0  0  0  0  0  0  0  0  0  0  0  0
    6.5343   -0.9575    1.1332 H   0  0  0  0  0  0  0  0  0  0  0  0
    7.8091   -3.0145    1.2787 H   0  0  0  0  0  0  0  0  0  0  0  0
    7.2602   -5.9805   -0.9027 H   0  0  0  0  0  0  0  0  0  0  0  0
    7.9374   -5.4289    0.6292 H   0  0  0  0  0  0  0  0  0  0  0  0
    8.7585   -5.0190   -0.8980 H   0  0  0  0  0  0  0  0  0  0  0  0
    5.9869   -4.4400   -2.3532 H   0  0  0  0  0  0  0  0  0  0  0  0
    4.7256   -2.3562   -2.5490 H   0  0  0  0  0  0  0  0  0  0  0  0
   -6.9043    1.4069    1.7253 H   0  0  0  0  0  0  0  0  0  0  0  0
   -8.8813    0.7350    3.0230 H   0  0  0  0  0  0  0  0  0  0  0  0
  1  2  1  0
  2  3  2  0
  3  4  1  0
  4  5  2  0
  5  6  1  0
  6  7  1  0
  7  8  1  0
  8  9  1  0
  9 10  2  0
  9 11  1  0
 11 12  1  0
 12 13  1  0
 13 14  1  0
 14 15  1  0
 15 16  2  0
 16 17  1  0
 16 18  1  0
 18 19  2  0
 19 20  1  0
 19 21  1  0
 21 22  1  0
 22 23  2  0
 23 24  1  0
 24 25  2  0
 25 26  1  0
 25 27  1  0
 27 28  2  0
 21 29  1  0
 29 30  2  0
 30 31  1  0
 31 32  2  0
  5 33  1  0
 33 34  2  0
 34  2  1  0
 31 14  1  0
 30 18  1  0
 28 22  1  0
  1 35  1  0
  1 36  1  0
  1 37  1  0
  3 38  1  0
  4 39  1  0
  6 40  1  0
  6 41  1  0
  7 42  1  0
  7 43  1  0
  8 44  1  0
 11 45  1  0
 11 46  1  0
 12 47  1  0
 12 48  1  0
 13 49  1  0
 13 50  1  0
 17 51  1  0
 17 52  1  0
 17 53  1  0
 20 54  1  0
 20 55  1  0
 20 56  1  0
 23 57  1  0
 24 58  1  0
 26 59  1  0
 26 60  1  0
 26 61  1  0
 27 62  1  0
 28 63  1  0
 33 64  1  0
 34 65  1  0
M  END
$$$$
