
     RDKit          3D

 61 63  0  0  0  0  0  0  0  0999 V2000
    1.6424    5.9465    4.4312 C   0  0  0  0  0  0  0  0  0  0  0  0
    1.9633    5.0116    3.2757 C   0  0  0  0  0  0  0  0  0  0  0  0
    2.8390    3.8417    3.7305 C   0  0  0  0  0  0  0  0  0  0  0  0
    3.2106    2.9131    2.5777 C   0  0  0  0  0  0  0  0  0  0  0  0
    2.0558    2.2126    2.0503 N   0  0  0  0  0  0  0  0  0  0  0  0
    2.1283    1.5994    0.8126 C   0  0  0  0  0  0  0  0  0  0  0  0
    3.0969    1.7104    0.0631 O   0  0  0  0  0  0  0  0  0  0  0  0
    0.8797    0.7940    0.4242 C   0  0  0  0  0  0  0  0  0  0  0  0
   -0.2718    1.7100   -0.0215 C   0  0  0  0  0  0  0  0  0  0  0  0
   -0.0555    2.4475   -1.3233 C   0  0  0  0  0  0  0  0  0  0  0  0
    0.6125    3.6787   -1.3472 C   0  0  0  0  0  0  0  0  0  0  0  0
    0.8210    4.3457   -2.5554 C   0  0  0  0  0  0  0  0  0  0  0  0
    0.3638    3.7910   -3.7489 C   0  0  0  0  0  0  0  0  0  0  0  0
   -0.3021    2.5677   -3.7369 C   0  0  0  0  0  0  0  0  0  0  0  0
   -0.5109    1.8982   -2.5308 C   0  0  0  0  0  0  0  0  0  0  0  0
    1.2338   -0.1739   -0.6426 N   0  0  0  0  0  0  0  0  0  0  0  0
    1.9519   -1.6131   -0.1555 S   0  0  0  0  0  6  0  0  0  0  0  0
    2.8269   -2.0507   -1.2159 O   0  0  0  0  0  0  0  0  0  0  0  0
    2.3880   -1.4693    1.2160 O   0  0  0  0  0  0  0  0  0  0  0  0
    0.5551   -2.7111   -0.1693 C   0  0  0  0  0  0  0  0  0  0  0  0
    0.2538   -3.4774    0.9547 C   0  0  0  0  0  0  0  0  0  0  0  0
   -0.8568   -4.3289    0.9315 C   0  0  0  0  0  0  0  0  0  0  0  0
   -1.6775   -4.4198   -0.2069 C   0  0  0  0  0  0  0  0  0  0  0  0
   -1.3573   -3.6368   -1.3164 C   0  0  0  0  0  0  0  0  0  0  0  0
   -0.2432   -2.7853   -1.3099 C   0  0  0  0  0  0  0  0  0  0  0  0
   -2.2111   -3.6976   -2.5120 C   0  0  0  0  0  0  0  0  0  0  0  0
   -1.9848   -2.9304   -3.4450 O   0  0  0  0  0  0  0  0  0  0  0  0
   -3.2439   -4.6205   -2.4929 N   0  0  0  0  0  0  0  0  0  0  0  0
   -4.0861   -4.7203   -3.6711 C   0  0  0  0  0  0  0  0  0  0  0  0
   -3.6194   -5.3733   -1.3865 C   0  0  0  0  0  0  0  0  0  0  0  0
   -4.6234   -6.0898   -1.4086 O   0  0  0  0  0  0  0  0  0  0  0  0
   -2.8145   -5.2697   -0.2551 N   0  0  0  0  0  0  0  0  0  0  0  0
   -3.1679   -6.0677    0.9124 C   0  0  0  0  0  0  0  0  0  0  0  0
    1.1053    5.4183    5.2256 H   0  0  0  0  0  0  0  0  0  0  0  0
    1.0124    6.7726    4.0864 H   0  0  0  0  0  0  0  0  0  0  0  0
    2.5566    6.3716    4.8581 H   0  0  0  0  0  0  0  0  0  0  0  0
    2.4767    5.5761    2.4887 H   0  0  0  0  0  0  0  0  0  0  0  0
    1.0252    4.6394    2.8487 H   0  0  0  0  0  0  0  0  0  0  0  0
    3.7617    4.2333    4.1758 H   0  0  0  0  0  0  0  0  0  0  0  0
    2.3190    3.2741    4.5122 H   0  0  0  0  0  0  0  0  0  0  0  0
    3.6987    3.4725    1.7719 H   0  0  0  0  0  0  0  0  0  0  0  0
    3.9159    2.1503    2.9258 H   0  0  0  0  0  0  0  0  0  0  0  0
    1.4288    1.7991    2.7284 H   0  0  0  0  0  0  0  0  0  0  0  0
    0.5260    0.2476    1.3075 H   0  0  0  0  0  0  0  0  0  0  0  0
   -0.4923    2.4452    0.7642 H   0  0  0  0  0  0  0  0  0  0  0  0
   -1.1847    1.1058   -0.1170 H   0  0  0  0  0  0  0  0  0  0  0  0
    0.9849    4.1270   -0.4285 H   0  0  0  0  0  0  0  0  0  0  0  0
    1.3467    5.2968   -2.5657 H   0  0  0  0  0  0  0  0  0  0  0  0
    0.5305    4.3102   -4.6888 H   0  0  0  0  0  0  0  0  0  0  0  0
   -0.6559    2.1316   -4.6678 H   0  0  0  0  0  0  0  0  0  0  0  0
   -1.0277    0.9404   -2.5424 H   0  0  0  0  0  0  0  0  0  0  0  0
    1.7805    0.2552   -1.4002 H   0  0  0  0  0  0  0  0  0  0  0  0
    0.8761   -3.4272    1.8464 H   0  0  0  0  0  0  0  0  0  0  0  0
   -1.0549   -4.9137    1.8259 H   0  0  0  0  0  0  0  0  0  0  0  0
   -0.0014   -2.1880   -2.1881 H   0  0  0  0  0  0  0  0  0  0  0  0
   -5.0178   -4.1787   -3.4781 H   0  0  0  0  0  0  0  0  0  0  0  0
   -3.6043   -4.2967   -4.5565 H   0  0  0  0  0  0  0  0  0  0  0  0
   -4.3269   -5.7694   -3.8715 H   0  0  0  0  0  0  0  0  0  0  0  0
   -4.0584   -6.6784    0.7440 H   0  0  0  0  0  0  0  0  0  0  0  0
   -3.3743   -5.4023    1.7573 H   0  0  0  0  0  0  0  0  0  0  0  0
   -2.3425   -6.7455    1.1539 H   0  0  0  0  0  0  0  0  0  0  0  0
  1  2  1  0
  2  3  1  0
  3  4  1  0
  4  5  1  0
  5  6  1  0
  6  7  2  0
  6  8  1  0
  8  9  1  0
  9 10  1  0
 10 11  2  0
 11 12  1  0
 12 13  2  0
 13 14  1  0
 14 15  2  0
  8 16  1  0
 16 17  1  0
 17 18  2  0
 17 19  2  0
 17 20  1  0
 20 21  2  0
 21 22  1  0
 22 23  2  0
 23 24  1  0
 24 25  2  0
 24 26  1  0
 26 27  2  0
 26 28  1  0
 28 29  1  0
 28 30  1  0
 30 31  2  0
 30 32  1  0
 32 33  1  0
 15 10  1  0
 25 20  1  0
 32 23  1  0
  1 34  1  0
  1 35  1  0
  1 36  1  0
  2 37  1  0
  2 38  1  0
  3 39  1  0
  3 40  1  0
  4 41  1  0
  4 42  1  0
  5 43  1  0
  8 44  1  0
  9 45  1  0
  9 46  1  0
 11 47  1  0
 12 48  1  0
 13 49  1  0
 14 50  1  0
 15 51  1  0
 16 52  1  0
 21 53  1  0
 22 54  1  0
 25 55  1  0
 29 56  1  0
 29 57  1  0
 29 58  1  0
 33 59  1  0
 33 60  1  0
 33 61  1  0
M  END
$$$$
