
     RDKit          3D

 39 41  0  0  0  0  0  0  0  0999 V2000
    5.6166    3.5963   -0.5237 C   0  0  0  0  0  0  0  0  0  0  0  0
    4.7303    2.4212   -0.8343 C   0  0  0  0  0  0  0  0  0  0  0  0
    3.9246    2.4532   -1.9828 C   0  0  0  0  0  0  0  0  0  0  0  0
    3.0928    1.3782   -2.3009 C   0  0  0  0  0  0  0  0  0  0  0  0
    3.0410    0.2585   -1.4728 C   0  0  0  0  0  0  0  0  0  0  0  0
    2.2196   -0.8281   -1.8017 N   0  0  0  0  0  0  0  0  0  0  0  0
    1.0155   -0.8714   -1.3471 C   0  0  0  0  0  0  0  0  0  0  0  0
    0.2151   -1.9185   -1.6600 N   0  0  0  0  0  0  0  0  0  0  0  0
   -1.0557   -1.9347   -1.1620 C   0  0  0  0  0  0  0  0  0  0  0  0
   -1.8600   -2.8264   -1.3790 O   0  0  0  0  0  0  0  0  0  0  0  0
   -1.2871   -0.7146   -0.3328 C   0  0  0  0  0  0  0  0  0  0  0  0
   -2.3956   -0.3513    0.3295 C   0  0  0  0  0  0  0  0  0  0  0  0
   -3.6503   -1.0753    0.3936 C   0  0  0  0  0  0  0  0  0  0  0  0
   -4.7075   -0.6256    1.0876 C   0  0  0  0  0  0  0  0  0  0  0  0
   -5.9439   -1.3277    1.1575 C   0  0  0  0  0  0  0  0  0  0  0  0
   -6.3597   -2.5321    0.5960 C   0  0  0  0  0  0  0  0  0  0  0  0
   -7.6991   -2.7640    0.9912 C   0  0  0  0  0  0  0  0  0  0  0  0
   -8.0460   -1.6958    1.7753 C   0  0  0  0  0  0  0  0  0  0  0  0
   -7.0086   -0.8325    1.8824 O   0  0  0  0  0  0  0  0  0  0  0  0
    0.1578    0.2509   -0.3269 S   0  0  0  0  0  0  0  0  0  0  0  0
    3.8582    0.2097   -0.3405 C   0  0  0  0  0  0  0  0  0  0  0  0
    4.7020    1.2822   -0.0050 C   0  0  0  0  0  0  0  0  0  0  0  0
    5.5557    1.1878    1.2295 C   0  0  0  0  0  0  0  0  0  0  0  0
    6.6687    3.2955   -0.5505 H   0  0  0  0  0  0  0  0  0  0  0  0
    5.4840    4.4035   -1.2520 H   0  0  0  0  0  0  0  0  0  0  0  0
    5.3774    4.0039    0.4636 H   0  0  0  0  0  0  0  0  0  0  0  0
    3.9414    3.3171   -2.6436 H   0  0  0  0  0  0  0  0  0  0  0  0
    2.4835    1.4151   -3.1993 H   0  0  0  0  0  0  0  0  0  0  0  0
    0.5539   -2.6641   -2.2455 H   0  0  0  0  0  0  0  0  0  0  0  0
   -2.3736    0.5859    0.8867 H   0  0  0  0  0  0  0  0  0  0  0  0
   -3.7152   -2.0149   -0.1481 H   0  0  0  0  0  0  0  0  0  0  0  0
   -4.6587    0.3120    1.6344 H   0  0  0  0  0  0  0  0  0  0  0  0
   -5.7599   -3.1758   -0.0328 H   0  0  0  0  0  0  0  0  0  0  0  0
   -8.3283   -3.6043    0.7349 H   0  0  0  0  0  0  0  0  0  0  0  0
   -8.9452   -1.4142    2.3050 H   0  0  0  0  0  0  0  0  0  0  0  0
    3.8326   -0.6801    0.2839 H   0  0  0  0  0  0  0  0  0  0  0  0
    5.4192    0.2289    1.7408 H   0  0  0  0  0  0  0  0  0  0  0  0
    6.6150    1.2724    0.9672 H   0  0  0  0  0  0  0  0  0  0  0  0
    5.2894    1.9794    1.9370 H   0  0  0  0  0  0  0  0  0  0  0  0
  1  2  1  0
  2  3  2  0
  3  4  1  0
  4  5  2  0
  5  6  1  0
  6  7  2  3
  7  8  1  0
  8  9  1  0
  9 10  2  0
  9 11  1  0
 11 12  2  3
 12 13  1  0
 13 14  2  3
 14 15  1  0
 15 16  2  0
 16 17  1  0
 17 18  2  0
 18 19  1  0
 11 20  1  0
  5 21  1  0
 21 22  2  0
 22 23  1  0
 22  2  1  0
 20  7  1  0
 19 15  1  0
  1 24  1  0
  1 25  1  0
  1 26  1  0
  3 27  1  0
  4 28  1  0
  8 29  1  0
 12 30  1  0
 13 31  1  0
 14 32  1  0
 16 33  1  0
 17 34  1  0
 18 35  1  0
 21 36  1  0
 23 37  1  0
 23 38  1  0
 23 39  1  0
M  END
$$$$
