
     RDKit          3D

 47 49  0  0  0  0  0  0  0  0999 V2000
   -9.7493    0.8711    0.1556 C   0  0  0  0  0  0  0  0  0  0  0  0
   -8.5718    0.6194   -0.7690 C   0  0  0  0  0  0  0  0  0  0  0  0
   -7.2623    0.4837    0.0024 C   0  0  0  0  0  0  0  0  0  0  0  0
   -6.2197    0.2507   -0.9453 O   0  0  0  0  0  0  0  0  0  0  0  0
   -4.9551    0.0856   -0.4527 C   0  0  0  0  0  0  0  0  0  0  0  0
   -4.5814    0.1483    0.8900 C   0  0  0  0  0  0  0  0  0  0  0  0
   -3.2436   -0.0399    1.2556 C   0  0  0  0  0  0  0  0  0  0  0  0
   -2.2690   -0.2810    0.2803 C   0  0  0  0  0  0  0  0  0  0  0  0
   -0.8567   -0.4738    0.7168 C   0  0  0  0  0  0  0  0  0  0  0  0
   -0.6544   -1.0181    1.7950 O   0  0  0  0  0  0  0  0  0  0  0  0
    0.0936    0.0344   -0.1508 N   0  0  0  0  0  0  0  0  0  0  0  0
    1.4959   -0.0367   -0.0195 C   0  0  0  0  0  0  0  0  0  0  0  0
    2.1533   -0.7328    0.9932 C   0  0  0  0  0  0  0  0  0  0  0  0
    3.5553   -0.7619    1.0517 C   0  0  0  0  0  0  0  0  0  0  0  0
    4.3216   -0.0966    0.0967 C   0  0  0  0  0  0  0  0  0  0  0  0
    5.7292   -0.0738    0.0813 N   0  0  0  0  0  0  0  0  0  0  0  0
    6.6117   -0.6772    0.9628 C   0  0  0  0  0  0  0  0  0  0  0  0
    6.2748   -1.3532    1.9303 O   0  0  0  0  0  0  0  0  0  0  0  0
    8.0266   -0.4511    0.6576 C   0  0  0  0  0  0  0  0  0  0  0  0
    9.1097   -0.9358    1.3706 C   0  0  0  0  0  0  0  0  0  0  0  0
   10.3598   -0.5379    0.8158 C   0  0  0  0  0  0  0  0  0  0  0  0
   10.1971    0.2407   -0.3070 C   0  0  0  0  0  0  0  0  0  0  0  0
    8.5481    0.4857   -0.6834 S   0  0  0  0  0  0  0  0  0  0  0  0
    3.6625    0.5995   -0.9218 C   0  0  0  0  0  0  0  0  0  0  0  0
    2.2640    0.6279   -0.9804 C   0  0  0  0  0  0  0  0  0  0  0  0
   -2.6449   -0.3627   -1.0647 C   0  0  0  0  0  0  0  0  0  0  0  0
   -3.9826   -0.1738   -1.4234 C   0  0  0  0  0  0  0  0  0  0  0  0
   -9.8745    0.0464    0.8645 H   0  0  0  0  0  0  0  0  0  0  0  0
  -10.6733    0.9643   -0.4236 H   0  0  0  0  0  0  0  0  0  0  0  0
   -9.6104    1.7957    0.7248 H   0  0  0  0  0  0  0  0  0  0  0  0
   -8.4874    1.4368   -1.4952 H   0  0  0  0  0  0  0  0  0  0  0  0
   -8.7477   -0.2894   -1.3570 H   0  0  0  0  0  0  0  0  0  0  0  0
   -7.3344   -0.3611    0.6981 H   0  0  0  0  0  0  0  0  0  0  0  0
   -7.0670    1.4103    0.5556 H   0  0  0  0  0  0  0  0  0  0  0  0
   -5.3019    0.3371    1.6790 H   0  0  0  0  0  0  0  0  0  0  0  0
   -2.9621    0.0032    2.3065 H   0  0  0  0  0  0  0  0  0  0  0  0
   -0.2456    0.5773   -0.9335 H   0  0  0  0  0  0  0  0  0  0  0  0
    1.6080   -1.2740    1.7607 H   0  0  0  0  0  0  0  0  0  0  0  0
    4.0086   -1.3202    1.8650 H   0  0  0  0  0  0  0  0  0  0  0  0
    6.1640    0.4496   -0.6681 H   0  0  0  0  0  0  0  0  0  0  0  0
    8.9990   -1.5524    2.2564 H   0  0  0  0  0  0  0  0  0  0  0  0
   11.3271   -0.8097    1.2210 H   0  0  0  0  0  0  0  0  0  0  0  0
   10.9690    0.6783   -0.9257 H   0  0  0  0  0  0  0  0  0  0  0  0
    4.2240    1.1307   -1.6861 H   0  0  0  0  0  0  0  0  0  0  0  0
    1.7904    1.1802   -1.7876 H   0  0  0  0  0  0  0  0  0  0  0  0
   -1.9229   -0.6025   -1.8399 H   0  0  0  0  0  0  0  0  0  0  0  0
   -4.2756   -0.2415   -2.4689 H   0  0  0  0  0  0  0  0  0  0  0  0
  1  2  1  0
  2  3  1  0
  3  4  1  0
  4  5  1  0
  5  6  2  0
  6  7  1  0
  7  8  2  0
  8  9  1  0
  9 10  2  0
  9 11  1  0
 11 12  1  0
 12 13  2  0
 13 14  1  0
 14 15  2  0
 15 16  1  0
 16 17  1  0
 17 18  2  0
 17 19  1  0
 19 20  2  0
 20 21  1  0
 21 22  2  0
 22 23  1  0
 15 24  1  0
 24 25  2  0
  8 26  1  0
 26 27  2  0
 27  5  1  0
 25 12  1  0
 23 19  1  0
  1 28  1  0
  1 29  1  0
  1 30  1  0
  2 31  1  0
  2 32  1  0
  3 33  1  0
  3 34  1  0
  6 35  1  0
  7 36  1  0
 11 37  1  0
 13 38  1  0
 14 39  1  0
 16 40  1  0
 20 41  1  0
 21 42  1  0
 22 43  1  0
 24 44  1  0
 25 45  1  0
 26 46  1  0
 27 47  1  0
M  END
$$$$
