
     RDKit          3D

 45 48  0  0  0  0  0  0  0  0999 V2000
   -4.5382   -3.1185    2.4962 C   0  0  0  0  0  0  0  0  0  0  0  0
   -4.4103   -1.6143    2.3566 C   0  0  0  0  0  0  0  0  0  0  0  0
   -3.1933   -1.3336    1.6547 O   0  0  0  0  0  0  0  0  0  0  0  0
   -2.9540   -0.0089    1.4681 C   0  0  0  0  0  0  0  0  0  0  0  0
   -3.6488    0.9133    1.8651 O   0  0  0  0  0  0  0  0  0  0  0  0
   -1.7094    0.1663    0.6927 C   0  0  0  0  0  0  0  0  0  0  0  0
   -1.9278    0.8931   -0.5773 C   0  0  0  0  0  0  0  0  0  0  0  0
   -2.7819    0.5873   -1.3969 O   0  0  0  0  0  0  0  0  0  0  0  0
   -1.1464    2.0069   -0.6067 O   0  0  0  0  0  0  0  0  0  0  0  0
   -1.4056    2.9224   -1.6804 C   0  0  0  0  0  0  0  0  0  0  0  0
   -0.5870    2.5608   -2.9045 C   0  0  0  0  0  0  0  0  0  0  0  0
   -0.5011   -0.2009    1.1989 C   0  0  0  0  0  0  0  0  0  0  0  0
   -0.3741   -0.5288    2.6692 C   0  0  0  0  0  0  0  0  0  0  0  0
    0.8115   -0.5110    3.3307 C   0  0  0  0  0  0  0  0  0  0  0  0
    0.9108   -0.8533    5.1642 Br  0  0  0  0  0  0  0  0  0  0  0  0
    2.0229   -0.2468    2.6102 C   0  0  0  0  0  0  0  0  0  0  0  0
    3.3014   -0.1677    2.9969 N   0  0  0  0  0  0  0  0  0  0  0  0
    4.0348   -0.0235    1.8099 O   0  0  0  0  0  0  0  0  0  0  0  0
    3.1828   -0.0414    0.7394 C   0  0  0  0  0  0  0  0  0  0  0  0
    3.4756   -0.0138   -0.6297 C   0  0  0  0  0  0  0  0  0  0  0  0
    4.8022    0.0979   -1.0852 C   0  0  0  0  0  0  0  0  0  0  0  0
    5.0548    0.0994   -2.4528 C   0  0  0  0  0  0  0  0  0  0  0  0
    3.9978   -0.0092   -3.3544 C   0  0  0  0  0  0  0  0  0  0  0  0
    2.6782   -0.1281   -2.8967 C   0  0  0  0  0  0  0  0  0  0  0  0
    2.3717   -0.1428   -1.5172 C   0  0  0  0  0  0  0  0  0  0  0  0
    1.0515   -0.2703   -0.9791 C   0  0  0  0  0  0  0  0  0  0  0  0
   -0.0006   -0.5903   -1.7994 O   0  0  0  0  0  0  0  0  0  0  0  0
    0.7735   -0.1537    0.3953 C   0  0  0  0  0  0  0  0  0  0  0  0
    1.9019   -0.1153    1.2173 C   0  0  0  0  0  0  0  0  0  0  0  0
   -4.5486   -3.5975    1.5116 H   0  0  0  0  0  0  0  0  0  0  0  0
   -5.4558   -3.3844    3.0283 H   0  0  0  0  0  0  0  0  0  0  0  0
   -3.6815   -3.5290    3.0409 H   0  0  0  0  0  0  0  0  0  0  0  0
   -4.3796   -1.1522    3.3497 H   0  0  0  0  0  0  0  0  0  0  0  0
   -5.2620   -1.2200    1.7913 H   0  0  0  0  0  0  0  0  0  0  0  0
   -2.4753    2.9687   -1.9152 H   0  0  0  0  0  0  0  0  0  0  0  0
   -1.1136    3.9166   -1.3263 H   0  0  0  0  0  0  0  0  0  0  0  0
   -0.8764    1.5804   -3.2946 H   0  0  0  0  0  0  0  0  0  0  0  0
    0.4775    2.5083   -2.6551 H   0  0  0  0  0  0  0  0  0  0  0  0
   -0.7268    3.3026   -3.6959 H   0  0  0  0  0  0  0  0  0  0  0  0
   -1.2768   -0.7227    3.2420 H   0  0  0  0  0  0  0  0  0  0  0  0
    5.6294    0.1836   -0.3841 H   0  0  0  0  0  0  0  0  0  0  0  0
    6.0751    0.1899   -2.8178 H   0  0  0  0  0  0  0  0  0  0  0  0
    4.1988    0.0052   -4.4237 H   0  0  0  0  0  0  0  0  0  0  0  0
    1.8918   -0.1779   -3.6460 H   0  0  0  0  0  0  0  0  0  0  0  0
    0.3309   -1.0467   -2.5901 H   0  0  0  0  0  0  0  0  0  0  0  0
  1  2  1  0
  2  3  1  0
  3  4  1  0
  4  5  2  0
  4  6  1  0
  6  7  1  0
  7  8  2  0
  7  9  1  0
  9 10  1  0
 10 11  1  0
  6 12  2  3
 12 13  1  0
 13 14  2  0
 14 15  1  0
 14 16  1  0
 16 17  2  0
 17 18  1  0
 18 19  1  0
 19 20  1  0
 20 21  2  0
 21 22  1  0
 22 23  2  0
 23 24  1  0
 24 25  2  0
 25 26  1  0
 26 27  1  0
 26 28  2  0
 28 29  1  0
 28 12  1  0
 29 16  1  0
 29 19  2  0
 25 20  1  0
  1 30  1  0
  1 31  1  0
  1 32  1  0
  2 33  1  0
  2 34  1  0
 10 35  1  0
 10 36  1  0
 11 37  1  0
 11 38  1  0
 11 39  1  0
 13 40  1  0
 21 41  1  0
 22 42  1  0
 23 43  1  0
 24 44  1  0
 27 45  1  0
M  END
$$$$
