
     RDKit          3D

 92 93  0  0  0  0  0  0  0  0999 V2000
   11.7141    1.6755    2.0970 C   0  0  0  0  0  0  0  0  0  0  0  0
   10.4421    1.6815    1.2646 C   0  0  0  0  0  0  0  0  0  0  0  0
   10.6411    0.9340   -0.0557 C   0  0  0  0  0  0  0  0  0  0  0  0
    9.3624    0.8757   -0.8972 C   0  0  0  0  0  0  0  0  0  0  0  0
    8.5955   -0.4514   -0.8000 C   0  0  0  0  0  0  0  0  0  0  0  0
    8.0993   -0.7849    0.6082 C   0  0  0  0  0  0  0  0  0  0  0  0
    7.3215   -2.1022    0.6792 C   0  0  0  0  0  0  0  0  0  0  0  0
    5.9898   -2.1398   -0.0766 C   0  0  0  0  0  0  0  0  0  0  0  0
    4.9722   -1.1217    0.4448 C   0  0  0  0  0  0  0  0  0  0  0  0
    3.5822   -1.2635   -0.1837 C   0  0  0  0  0  0  0  0  0  0  0  0
    2.9060   -2.5976    0.1422 C   0  0  0  0  0  0  0  0  0  0  0  0
    1.4139   -2.6239   -0.1994 C   0  0  0  0  0  0  0  0  0  0  0  0
    1.1210   -2.4362   -1.6932 C   0  0  0  0  0  0  0  0  0  0  0  0
   -0.3539   -2.6735   -2.0535 C   0  0  0  0  0  0  0  0  0  0  0  0
   -1.2656   -1.4403   -1.9882 C   0  0  0  0  0  0  0  0  0  0  0  0
   -1.2822   -0.7547   -0.6222 C   0  0  0  0  0  0  0  0  0  0  0  0
   -2.4348    0.2581   -0.4351 N   0  0  0  0  0  4  0  0  0  0  0  0
   -2.1685    1.0049    0.8684 C   0  0  0  0  0  0  0  0  0  0  0  0
   -2.4487    1.2729   -1.5774 C   0  0  0  0  0  0  0  0  0  0  0  0
   -3.7891   -0.5171   -0.3612 C   0  0  0  0  0  0  0  0  0  0  0  0
   -5.0081    0.2545    0.2053 C   0  0  0  0  0  0  0  0  0  0  0  0
   -5.3236    1.5282   -0.4599 N   0  0  0  0  0  0  0  0  0  0  0  0
   -5.9679    2.5645    0.3694 C   0  0  0  0  0  0  0  0  0  0  0  0
   -7.1376    2.0319    1.1800 C   0  0  0  0  0  0  0  0  0  0  0  0
   -7.0267    1.8723    2.5701 C   0  0  0  0  0  0  0  0  0  0  0  0
   -8.0743    1.3179    3.3172 C   0  0  0  0  0  0  0  0  0  0  0  0
   -9.2480    0.9185    2.6852 C   0  0  0  0  0  0  0  0  0  0  0  0
  -10.3335    0.3481    3.2882 O   0  0  0  0  0  0  0  0  0  0  0  0
  -10.1797   -0.0279    4.6573 C   0  0  0  0  0  0  0  0  0  0  0  0
   -9.3790    1.1082    1.3078 C   0  0  0  0  0  0  0  0  0  0  0  0
   -8.3368    1.6621    0.5596 C   0  0  0  0  0  0  0  0  0  0  0  0
   -5.8650    1.4178   -1.7446 C   0  0  0  0  0  0  0  0  0  0  0  0
   -5.8266    0.2243   -2.3636 N   0  0  0  0  0  0  0  0  0  0  0  0
   -6.3409    0.1438   -3.6080 C   0  0  0  0  0  0  0  0  0  0  0  0
   -6.8703    1.2131   -4.2799 C   0  0  0  0  0  0  0  0  0  0  0  0
   -6.8262    2.3992   -3.5934 C   0  0  0  0  0  0  0  0  0  0  0  0
   -6.3260    2.5217   -2.3501 N   0  0  0  0  0  0  0  0  0  0  0  0
   11.9921    0.6522    2.3747 H   0  0  0  0  0  0  0  0  0  0  0  0
   11.5655    2.2424    3.0235 H   0  0  0  0  0  0  0  0  0  0  0  0
   12.5469    2.1287    1.5487 H   0  0  0  0  0  0  0  0  0  0  0  0
    9.6345    1.2332    1.8515 H   0  0  0  0  0  0  0  0  0  0  0  0
   10.1512    2.7203    1.0678 H   0  0  0  0  0  0  0  0  0  0  0  0
   11.4081    1.4669   -0.6300 H   0  0  0  0  0  0  0  0  0  0  0  0
   11.0316   -0.0749    0.1262 H   0  0  0  0  0  0  0  0  0  0  0  0
    8.6970    1.7114   -0.6549 H   0  0  0  0  0  0  0  0  0  0  0  0
    9.6445    1.0048   -1.9478 H   0  0  0  0  0  0  0  0  0  0  0  0
    7.7463   -0.3950   -1.4901 H   0  0  0  0  0  0  0  0  0  0  0  0
    9.2364   -1.2645   -1.1599 H   0  0  0  0  0  0  0  0  0  0  0  0
    7.4889    0.0367    0.9988 H   0  0  0  0  0  0  0  0  0  0  0  0
    8.9625   -0.8846    1.2754 H   0  0  0  0  0  0  0  0  0  0  0  0
    7.9596   -2.9133    0.3039 H   0  0  0  0  0  0  0  0  0  0  0  0
    7.1296   -2.3319    1.7348 H   0  0  0  0  0  0  0  0  0  0  0  0
    5.5924   -3.1553    0.0303 H   0  0  0  0  0  0  0  0  0  0  0  0
    6.1513   -1.9846   -1.1480 H   0  0  0  0  0  0  0  0  0  0  0  0
    4.8860   -1.2142    1.5356 H   0  0  0  0  0  0  0  0  0  0  0  0
    5.3326   -0.1062    0.2404 H   0  0  0  0  0  0  0  0  0  0  0  0
    3.6588   -1.1386   -1.2692 H   0  0  0  0  0  0  0  0  0  0  0  0
    2.9570   -0.4433    0.1892 H   0  0  0  0  0  0  0  0  0  0  0  0
    3.4080   -3.4149   -0.3885 H   0  0  0  0  0  0  0  0  0  0  0  0
    3.0102   -2.8047    1.2145 H   0  0  0  0  0  0  0  0  0  0  0  0
    0.9095   -1.8556    0.3931 H   0  0  0  0  0  0  0  0  0  0  0  0
    1.0094   -3.5902    0.1276 H   0  0  0  0  0  0  0  0  0  0  0  0
    1.4347   -1.4424   -2.0334 H   0  0  0  0  0  0  0  0  0  0  0  0
    1.7278   -3.1674   -2.2475 H   0  0  0  0  0  0  0  0  0  0  0  0
   -0.7706   -3.4731   -1.4305 H   0  0  0  0  0  0  0  0  0  0  0  0
   -0.3922   -3.0422   -3.0863 H   0  0  0  0  0  0  0  0  0  0  0  0
   -0.9437   -0.7267   -2.7555 H   0  0  0  0  0  0  0  0  0  0  0  0
   -2.2680   -1.7714   -2.2710 H   0  0  0  0  0  0  0  0  0  0  0  0
   -1.3838   -1.4909    0.1840 H   0  0  0  0  0  0  0  0  0  0  0  0
   -0.3524   -0.1968   -0.4771 H   0  0  0  0  0  0  0  0  0  0  0  0
   -2.2177    0.2873    1.6934 H   0  0  0  0  0  0  0  0  0  0  0  0
   -2.9134    1.7940    0.9947 H   0  0  0  0  0  0  0  0  0  0  0  0
   -1.1721    1.4537    0.8156 H   0  0  0  0  0  0  0  0  0  0  0  0
   -3.0531    2.1376   -1.2955 H   0  0  0  0  0  0  0  0  0  0  0  0
   -2.8489    0.7910   -2.4728 H   0  0  0  0  0  0  0  0  0  0  0  0
   -1.4210    1.6021   -1.7486 H   0  0  0  0  0  0  0  0  0  0  0  0
   -3.9796   -0.9201   -1.3550 H   0  0  0  0  0  0  0  0  0  0  0  0
   -3.6092   -1.3682    0.3050 H   0  0  0  0  0  0  0  0  0  0  0  0
   -5.8828   -0.4111    0.1931 H   0  0  0  0  0  0  0  0  0  0  0  0
   -4.7970    0.4471    1.2643 H   0  0  0  0  0  0  0  0  0  0  0  0
   -5.2019    2.9325    1.0638 H   0  0  0  0  0  0  0  0  0  0  0  0
   -6.2810    3.4557   -0.1888 H   0  0  0  0  0  0  0  0  0  0  0  0
   -6.1228    2.1764    3.0921 H   0  0  0  0  0  0  0  0  0  0  0  0
   -7.9451    1.2174    4.3893 H   0  0  0  0  0  0  0  0  0  0  0  0
  -10.0595    0.8517    5.2992 H   0  0  0  0  0  0  0  0  0  0  0  0
   -9.3433   -0.7293    4.7838 H   0  0  0  0  0  0  0  0  0  0  0  0
  -11.0931   -0.5453    4.9647 H   0  0  0  0  0  0  0  0  0  0  0  0
  -10.3014    0.8156    0.8107 H   0  0  0  0  0  0  0  0  0  0  0  0
   -8.4715    1.7963   -0.5109 H   0  0  0  0  0  0  0  0  0  0  0  0
   -6.3075   -0.8419   -4.0663 H   0  0  0  0  0  0  0  0  0  0  0  0
   -7.2809    1.1319   -5.2755 H   0  0  0  0  0  0  0  0  0  0  0  0
   -7.2068    3.3178   -4.0360 H   0  0  0  0  0  0  0  0  0  0  0  0
  1  2  1  0
  2  3  1  0
  3  4  1  0
  4  5  1  0
  5  6  1  0
  6  7  1  0
  7  8  1  0
  8  9  1  0
  9 10  1  0
 10 11  1  0
 11 12  1  0
 12 13  1  0
 13 14  1  0
 14 15  1  0
 15 16  1  0
 16 17  1  0
 17 18  1  0
 17 19  1  0
 17 20  1  0
 20 21  1  0
 21 22  1  0
 22 23  1  0
 23 24  1  0
 24 25  2  0
 25 26  1  0
 26 27  2  0
 27 28  1  0
 28 29  1  0
 27 30  1  0
 30 31  2  0
 22 32  1  0
 32 33  2  0
 33 34  1  0
 34 35  2  0
 35 36  1  0
 36 37  2  0
 31 24  1  0
 37 32  1  0
  1 38  1  0
  1 39  1  0
  1 40  1  0
  2 41  1  0
  2 42  1  0
  3 43  1  0
  3 44  1  0
  4 45  1  0
  4 46  1  0
  5 47  1  0
  5 48  1  0
  6 49  1  0
  6 50  1  0
  7 51  1  0
  7 52  1  0
  8 53  1  0
  8 54  1  0
  9 55  1  0
  9 56  1  0
 10 57  1  0
 10 58  1  0
 11 59  1  0
 11 60  1  0
 12 61  1  0
 12 62  1  0
 13 63  1  0
 13 64  1  0
 14 65  1  0
 14 66  1  0
 15 67  1  0
 15 68  1  0
 16 69  1  0
 16 70  1  0
 18 71  1  0
 18 72  1  0
 18 73  1  0
 19 74  1  0
 19 75  1  0
 19 76  1  0
 20 77  1  0
 20 78  1  0
 21 79  1  0
 21 80  1  0
 23 81  1  0
 23 82  1  0
 25 83  1  0
 26 84  1  0
 29 85  1  0
 29 86  1  0
 29 87  1  0
 30 88  1  0
 31 89  1  0
 34 90  1  0
 35 91  1  0
 36 92  1  0
M  CHG  1  17   1
M  END
$$$$
