
     RDKit          3D

 50 54  0  0  0  0  0  0  0  0999 V2000
    5.9578    3.5922    0.1630 F   0  0  0  0  0  0  0  0  0  0  0  0
    4.9837    2.7496   -0.2097 C   0  0  0  0  0  0  0  0  0  0  0  0
    5.3173    1.4865   -0.6863 C   0  0  0  0  0  0  0  0  0  0  0  0
    4.3027    0.6025   -1.0575 C   0  0  0  0  0  0  0  0  0  0  0  0
    2.9525    0.9755   -0.9409 C   0  0  0  0  0  0  0  0  0  0  0  0
    1.8570   -0.0010   -1.3223 C   0  0  0  0  0  0  0  0  0  0  0  0
    1.9398   -1.2825   -0.5963 N   0  0  0  0  0  0  0  0  0  0  0  0
    1.6520   -1.1131    0.8473 C   0  0  0  0  0  0  0  0  0  0  0  0
    0.1679   -0.8483    1.2099 C   0  0  0  0  0  0  0  0  0  0  0  0
   -0.7600   -1.7108    0.4393 N   0  0  0  0  0  0  0  0  0  0  0  0
   -1.8607   -2.0982    1.2200 C   0  0  0  0  0  0  0  0  0  0  0  0
   -1.8712   -3.3383    1.7696 N   0  0  0  0  0  0  0  0  0  0  0  0
   -2.8926   -3.6971    2.5569 C   0  0  0  0  0  0  0  0  0  0  0  0
   -3.9524   -2.9651    2.8931 N   0  0  0  0  0  0  0  0  0  0  0  0
   -3.9398   -1.7543    2.3133 C   0  0  0  0  0  0  0  0  0  0  0  0
   -5.2199   -0.6711    2.6052 S   0  0  0  0  0  0  0  0  0  0  0  0
   -4.5446    0.4954    1.5645 C   0  0  0  0  0  0  0  0  0  0  0  0
   -3.3493    0.0809    1.0047 C   0  0  0  0  0  0  0  0  0  0  0  0
   -2.6869    0.9376    0.0270 C   0  0  0  0  0  0  0  0  0  0  0  0
   -2.4587    0.4730   -1.2735 C   0  0  0  0  0  0  0  0  0  0  0  0
   -1.8473    1.2983   -2.2187 C   0  0  0  0  0  0  0  0  0  0  0  0
   -1.4607    2.5924   -1.8710 C   0  0  0  0  0  0  0  0  0  0  0  0
   -1.6863    3.0635   -0.5778 C   0  0  0  0  0  0  0  0  0  0  0  0
   -2.3001    2.2413    0.3682 C   0  0  0  0  0  0  0  0  0  0  0  0
   -2.9666   -1.2435    1.4651 C   0  0  0  0  0  0  0  0  0  0  0  0
   -0.0895   -2.8303   -0.2409 C   0  0  0  0  0  0  0  0  0  0  0  0
    0.9966   -2.2672   -1.1917 C   0  0  0  0  0  0  0  0  0  0  0  0
    2.6382    2.2618   -0.4692 C   0  0  0  0  0  0  0  0  0  0  0  0
    3.6556    3.1463   -0.1004 C   0  0  0  0  0  0  0  0  0  0  0  0
    6.3568    1.1908   -0.7518 H   0  0  0  0  0  0  0  0  0  0  0  0
    4.5587   -0.3936   -1.4188 H   0  0  0  0  0  0  0  0  0  0  0  0
    1.9727   -0.1779   -2.3991 H   0  0  0  0  0  0  0  0  0  0  0  0
    0.8726    0.4600   -1.1879 H   0  0  0  0  0  0  0  0  0  0  0  0
    2.2762   -0.3269    1.2919 H   0  0  0  0  0  0  0  0  0  0  0  0
    1.9743   -2.0342    1.3560 H   0  0  0  0  0  0  0  0  0  0  0  0
   -0.0684    0.1992    0.9950 H   0  0  0  0  0  0  0  0  0  0  0  0
    0.0569   -0.9898    2.2938 H   0  0  0  0  0  0  0  0  0  0  0  0
   -2.8487   -4.7000    2.9724 H   0  0  0  0  0  0  0  0  0  0  0  0
   -5.0703    1.4238    1.3921 H   0  0  0  0  0  0  0  0  0  0  0  0
   -2.7522   -0.5359   -1.5578 H   0  0  0  0  0  0  0  0  0  0  0  0
   -1.6736    0.9290   -3.2265 H   0  0  0  0  0  0  0  0  0  0  0  0
   -0.9860    3.2339   -2.6097 H   0  0  0  0  0  0  0  0  0  0  0  0
   -1.3908    4.0750   -0.3078 H   0  0  0  0  0  0  0  0  0  0  0  0
   -2.4695    2.6237    1.3724 H   0  0  0  0  0  0  0  0  0  0  0  0
    0.3719   -3.5231    0.4770 H   0  0  0  0  0  0  0  0  0  0  0  0
   -0.8113   -3.4000   -0.8405 H   0  0  0  0  0  0  0  0  0  0  0  0
    0.4822   -1.8370   -2.0623 H   0  0  0  0  0  0  0  0  0  0  0  0
    1.5894   -3.1058   -1.5769 H   0  0  0  0  0  0  0  0  0  0  0  0
    1.6037    2.5744   -0.3776 H   0  0  0  0  0  0  0  0  0  0  0  0
    3.4211    4.1384    0.2750 H   0  0  0  0  0  0  0  0  0  0  0  0
  1  2  1  0
  2  3  2  0
  3  4  1  0
  4  5  2  0
  5  6  1  0
  6  7  1  0
  7  8  1  0
  8  9  1  0
  9 10  1  0
 10 11  1  0
 11 12  2  0
 12 13  1  0
 13 14  2  0
 14 15  1  0
 15 16  1  0
 16 17  1  0
 17 18  2  0
 18 19  1  0
 19 20  2  0
 20 21  1  0
 21 22  2  0
 22 23  1  0
 23 24  2  0
 18 25  1  0
 10 26  1  0
 26 27  1  0
  5 28  1  0
 28 29  2  0
 29  2  1  0
 27  7  1  0
 25 11  1  0
 25 15  2  0
 24 19  1  0
  3 30  1  0
  4 31  1  0
  6 32  1  0
  6 33  1  0
  8 34  1  0
  8 35  1  0
  9 36  1  0
  9 37  1  0
 13 38  1  0
 17 39  1  0
 20 40  1  0
 21 41  1  0
 22 42  1  0
 23 43  1  0
 24 44  1  0
 26 45  1  0
 26 46  1  0
 27 47  1  0
 27 48  1  0
 28 49  1  0
 29 50  1  0
M  END
$$$$
