
     RDKit          3D

 47 49  0  0  0  0  0  0  0  0999 V2000
    4.4688    3.3967   -3.4673 C   0  0  0  0  0  0  0  0  0  0  0  0
    4.8567    3.1878   -2.1153 O   0  0  0  0  0  0  0  0  0  0  0  0
    4.3307    2.0976   -1.4782 C   0  0  0  0  0  0  0  0  0  0  0  0
    4.7652    1.9284   -0.1627 C   0  0  0  0  0  0  0  0  0  0  0  0
    4.3147    0.8512    0.5981 C   0  0  0  0  0  0  0  0  0  0  0  0
    3.4132   -0.0607    0.0488 C   0  0  0  0  0  0  0  0  0  0  0  0
    2.9484    0.1091   -1.2568 C   0  0  0  0  0  0  0  0  0  0  0  0
    2.0516   -0.7854   -1.8853 N   0  0  0  0  0  0  0  0  0  0  0  0
    1.3629   -1.8447   -1.3596 C   0  0  0  0  0  0  0  0  0  0  0  0
    1.2049   -3.1841   -2.3627 S   0  0  0  0  0  0  0  0  0  0  0  0
    0.8046   -1.7202   -0.0989 N   0  0  0  0  0  0  0  0  0  0  0  0
    0.3495   -2.8693    0.6904 C   0  0  0  0  0  0  0  0  0  0  0  0
   -1.1605   -3.0632    0.5582 C   0  0  0  0  0  0  0  0  0  0  0  0
   -1.9055   -1.7717    0.8012 C   0  0  0  0  0  0  0  0  0  0  0  0
   -3.2751   -1.8073    1.1058 C   0  0  0  0  0  0  0  0  0  0  0  0
   -3.9946   -0.6251    1.3122 C   0  0  0  0  0  0  0  0  0  0  0  0
   -5.3319   -0.5741    1.6209 O   0  0  0  0  0  0  0  0  0  0  0  0
   -6.0394   -1.8029    1.6949 C   0  0  0  0  0  0  0  0  0  0  0  0
   -3.3368    0.6154    1.2072 C   0  0  0  0  0  0  0  0  0  0  0  0
   -4.1097    1.7284    1.4314 O   0  0  0  0  0  0  0  0  0  0  0  0
   -3.4890    2.9998    1.3129 C   0  0  0  0  0  0  0  0  0  0  0  0
   -1.9738    0.6500    0.8901 C   0  0  0  0  0  0  0  0  0  0  0  0
   -1.2509   -0.5352    0.6721 C   0  0  0  0  0  0  0  0  0  0  0  0
    0.2301   -0.4440    0.3502 C   0  0  0  0  0  0  0  0  0  0  0  0
    3.4286    1.1809   -2.0241 C   0  0  0  0  0  0  0  0  0  0  0  0
    4.7765    2.5581   -4.1007 H   0  0  0  0  0  0  0  0  0  0  0  0
    4.9833    4.2925   -3.8282 H   0  0  0  0  0  0  0  0  0  0  0  0
    3.3917    3.5773   -3.5448 H   0  0  0  0  0  0  0  0  0  0  0  0
    5.4700    2.6360    0.2677 H   0  0  0  0  0  0  0  0  0  0  0  0
    4.6761    0.7152    1.6141 H   0  0  0  0  0  0  0  0  0  0  0  0
    3.1135   -0.9145    0.6485 H   0  0  0  0  0  0  0  0  0  0  0  0
    2.1416   -0.8352   -2.8949 H   0  0  0  0  0  0  0  0  0  0  0  0
    0.6162   -2.6648    1.7356 H   0  0  0  0  0  0  0  0  0  0  0  0
    0.8828   -3.7811    0.4048 H   0  0  0  0  0  0  0  0  0  0  0  0
   -1.4844   -3.8263    1.2755 H   0  0  0  0  0  0  0  0  0  0  0  0
   -1.4140   -3.4166   -0.4477 H   0  0  0  0  0  0  0  0  0  0  0  0
   -3.7579   -2.7767    1.1768 H   0  0  0  0  0  0  0  0  0  0  0  0
   -7.0837   -1.5740    1.9285 H   0  0  0  0  0  0  0  0  0  0  0  0
   -6.0220   -2.3285    0.7345 H   0  0  0  0  0  0  0  0  0  0  0  0
   -5.6504   -2.4345    2.5003 H   0  0  0  0  0  0  0  0  0  0  0  0
   -2.6937    3.1218    2.0556 H   0  0  0  0  0  0  0  0  0  0  0  0
   -4.2481    3.7625    1.5120 H   0  0  0  0  0  0  0  0  0  0  0  0
   -3.1126    3.1636    0.2978 H   0  0  0  0  0  0  0  0  0  0  0  0
   -1.4450    1.5941    0.8032 H   0  0  0  0  0  0  0  0  0  0  0  0
    0.3647    0.3307   -0.4105 H   0  0  0  0  0  0  0  0  0  0  0  0
    0.7600   -0.1507    1.2636 H   0  0  0  0  0  0  0  0  0  0  0  0
    3.0725    1.2940   -3.0422 H   0  0  0  0  0  0  0  0  0  0  0  0
  1  2  1  0
  2  3  1  0
  3  4  2  0
  4  5  1  0
  5  6  2  0
  6  7  1  0
  7  8  1  0
  8  9  1  0
  9 10  2  0
  9 11  1  0
 11 12  1  0
 12 13  1  0
 13 14  1  0
 14 15  2  0
 15 16  1  0
 16 17  1  0
 17 18  1  0
 16 19  2  0
 19 20  1  0
 20 21  1  0
 19 22  1  0
 22 23  2  0
 23 24  1  0
  7 25  2  0
 25  3  1  0
 24 11  1  0
 23 14  1  0
  1 26  1  0
  1 27  1  0
  1 28  1  0
  4 29  1  0
  5 30  1  0
  6 31  1  0
  8 32  1  0
 12 33  1  0
 12 34  1  0
 13 35  1  0
 13 36  1  0
 15 37  1  0
 18 38  1  0
 18 39  1  0
 18 40  1  0
 21 41  1  0
 21 42  1  0
 21 43  1  0
 22 44  1  0
 24 45  1  0
 24 46  1  0
 25 47  1  0
M  END
$$$$
