
     RDKit          3D

 58 60  0  0  0  0  0  0  0  0999 V2000
   -4.1285    2.9970   -0.1783 C   0  0  0  0  0  0  0  0  0  0  0  0
   -4.1220    2.3739    1.0997 O   0  0  0  0  0  0  0  0  0  0  0  0
   -4.0623    1.0026    1.1463 C   0  0  0  0  0  0  0  0  0  0  0  0
   -4.2128    0.1661    0.0300 C   0  0  0  0  0  0  0  0  0  0  0  0
   -4.1490   -1.2258    0.1717 C   0  0  0  0  0  0  0  0  0  0  0  0
   -4.2725   -2.1370   -0.8491 O   0  0  0  0  0  0  0  0  0  0  0  0
   -4.3296   -1.6202   -2.1761 C   0  0  0  0  0  0  0  0  0  0  0  0
   -3.9413   -1.7812    1.4470 C   0  0  0  0  0  0  0  0  0  0  0  0
   -3.8186   -3.2040    1.5855 N   0  0  0  0  0  0  0  0  0  0  0  0
   -2.2625   -3.8417    1.8110 S   0  0  0  0  0  6  0  0  0  0  0  0
   -1.6468   -3.2213    2.9641 O   0  0  0  0  0  0  0  0  0  0  0  0
   -2.3896   -5.2811    1.7044 O   0  0  0  0  0  0  0  0  0  0  0  0
   -1.3795   -3.2822    0.3675 C   0  0  0  0  0  0  0  0  0  0  0  0
   -1.3328   -4.0907   -0.7735 C   0  0  0  0  0  0  0  0  0  0  0  0
   -0.6695   -3.6363   -1.9160 C   0  0  0  0  0  0  0  0  0  0  0  0
   -0.0464   -2.3835   -1.9172 C   0  0  0  0  0  0  0  0  0  0  0  0
    0.6838   -1.8465   -3.3875 Cl  0  0  0  0  0  0  0  0  0  0  0  0
   -0.0709   -1.5988   -0.7591 C   0  0  0  0  0  0  0  0  0  0  0  0
    0.5238   -0.2575   -0.7167 C   0  0  0  0  0  0  0  0  0  0  0  0
   -0.1305    0.7570   -0.5474 O   0  0  0  0  0  0  0  0  0  0  0  0
    1.8622   -0.3701   -0.8227 O   0  0  0  0  0  0  0  0  0  0  0  0
    2.5980    0.8654   -0.7694 C   0  0  0  0  0  0  0  0  0  0  0  0
    2.6327    1.4784   -2.1660 C   0  0  0  0  0  0  0  0  0  0  0  0
    4.0361    0.5741   -0.2975 C   0  0  0  0  0  0  0  0  0  0  0  0
    4.5222   -0.5598   -0.3647 O   0  0  0  0  0  0  0  0  0  0  0  0
    4.7774    1.6397    0.1828 N   0  0  0  0  0  0  0  0  0  0  0  0
    6.1655    1.4598    0.5814 C   0  0  0  0  0  0  0  0  0  0  0  0
    6.6731    2.8764    0.8099 C   0  0  0  0  0  0  0  0  0  0  0  0
    5.4322    3.5994    1.3218 C   0  0  0  0  0  0  0  0  0  0  0  0
    4.3104    2.9854    0.4934 C   0  0  0  0  0  0  0  0  0  0  0  0
   -0.7309   -2.0446    0.3917 C   0  0  0  0  0  0  0  0  0  0  0  0
   -3.7874   -0.9616    2.5619 C   0  0  0  0  0  0  0  0  0  0  0  0
   -3.8549    0.4252    2.4112 C   0  0  0  0  0  0  0  0  0  0  0  0
   -3.6722    1.4010    3.8269 Cl  0  0  0  0  0  0  0  0  0  0  0  0
   -5.0614    2.7800   -0.7119 H   0  0  0  0  0  0  0  0  0  0  0  0
   -4.0754    4.0793   -0.0212 H   0  0  0  0  0  0  0  0  0  0  0  0
   -3.2553    2.7026   -0.7721 H   0  0  0  0  0  0  0  0  0  0  0  0
   -4.3852    0.6005   -0.9454 H   0  0  0  0  0  0  0  0  0  0  0  0
   -4.3455   -2.4720   -2.8632 H   0  0  0  0  0  0  0  0  0  0  0  0
   -5.2482   -1.0477   -2.3357 H   0  0  0  0  0  0  0  0  0  0  0  0
   -3.4438   -1.0211   -2.4105 H   0  0  0  0  0  0  0  0  0  0  0  0
   -4.3114   -3.7300    0.8577 H   0  0  0  0  0  0  0  0  0  0  0  0
   -1.8186   -5.0649   -0.7864 H   0  0  0  0  0  0  0  0  0  0  0  0
   -0.6504   -4.2610   -2.8072 H   0  0  0  0  0  0  0  0  0  0  0  0
    2.1237    1.5413   -0.0520 H   0  0  0  0  0  0  0  0  0  0  0  0
    1.6211    1.7052   -2.5203 H   0  0  0  0  0  0  0  0  0  0  0  0
    3.0683    0.7742   -2.8849 H   0  0  0  0  0  0  0  0  0  0  0  0
    3.2223    2.3991   -2.1997 H   0  0  0  0  0  0  0  0  0  0  0  0
    6.1777    0.8738    1.5077 H   0  0  0  0  0  0  0  0  0  0  0  0
    6.7301    0.9223   -0.1878 H   0  0  0  0  0  0  0  0  0  0  0  0
    6.9943    3.3219   -0.1404 H   0  0  0  0  0  0  0  0  0  0  0  0
    7.5136    2.9158    1.5083 H   0  0  0  0  0  0  0  0  0  0  0  0
    5.4917    4.6869    1.2121 H   0  0  0  0  0  0  0  0  0  0  0  0
    5.2822    3.3709    2.3849 H   0  0  0  0  0  0  0  0  0  0  0  0
    3.3636    2.9629    1.0398 H   0  0  0  0  0  0  0  0  0  0  0  0
    4.1745    3.5252   -0.4492 H   0  0  0  0  0  0  0  0  0  0  0  0
   -0.7533   -1.4218    1.2850 H   0  0  0  0  0  0  0  0  0  0  0  0
   -3.6214   -1.4006    3.5435 H   0  0  0  0  0  0  0  0  0  0  0  0
  1  2  1  0
  2  3  1  0
  3  4  2  0
  4  5  1  0
  5  6  1  0
  6  7  1  0
  5  8  2  0
  8  9  1  0
  9 10  1  0
 10 11  2  0
 10 12  2  0
 10 13  1  0
 13 14  2  0
 14 15  1  0
 15 16  2  0
 16 17  1  0
 16 18  1  0
 18 19  1  0
 19 20  2  0
 19 21  1  0
 21 22  1  0
 22 23  1  0
 22 24  1  0
 24 25  2  0
 24 26  1  0
 26 27  1  0
 27 28  1  0
 28 29  1  0
 29 30  1  0
 18 31  2  0
  8 32  1  0
 32 33  2  0
 33 34  1  0
 33  3  1  0
 31 13  1  0
 30 26  1  0
  1 35  1  0
  1 36  1  0
  1 37  1  0
  4 38  1  0
  7 39  1  0
  7 40  1  0
  7 41  1  0
  9 42  1  0
 14 43  1  0
 15 44  1  0
 22 45  1  0
 23 46  1  0
 23 47  1  0
 23 48  1  0
 27 49  1  0
 27 50  1  0
 28 51  1  0
 28 52  1  0
 29 53  1  0
 29 54  1  0
 30 55  1  0
 30 56  1  0
 31 57  1  0
 32 58  1  0
M  END
$$$$
