
     RDKit          3D

 39 41  0  0  0  0  0  0  0  0999 V2000
   -3.8891   -2.5241    0.6254 C   0  0  0  0  0  0  0  0  0  0  0  0
   -3.5744   -2.5418   -0.8609 C   0  0  0  0  0  0  0  0  0  0  0  0
   -1.8818   -3.1387   -1.1888 S   0  0  0  0  0  0  0  0  0  0  0  0
   -0.9001   -1.7130   -0.7365 C   0  0  0  0  0  0  0  0  0  0  0  0
    0.4638   -1.8706   -0.6112 C   0  0  0  0  0  0  0  0  0  0  0  0
    1.2070   -0.7587   -0.2758 C   0  0  0  0  0  0  0  0  0  0  0  0
    2.5709   -0.8215   -0.1123 N   0  0  0  0  0  0  0  0  0  0  0  0
    3.3224    0.3907    0.1924 C   0  0  0  0  0  0  0  0  0  0  0  0
    4.7662   -0.1002    0.2308 C   0  0  0  0  0  0  0  0  0  0  0  0
    4.7832   -1.1662   -0.8532 C   0  0  0  0  0  0  0  0  0  0  0  0
    3.4196   -1.8443   -0.7132 C   0  0  0  0  0  0  0  0  0  0  0  0
    0.5987    0.4211   -0.0656 N   0  0  0  0  0  0  0  0  0  0  0  0
   -0.7364    0.4936   -0.2139 C   0  0  0  0  0  0  0  0  0  0  0  0
   -1.3844    1.8028    0.0159 C   0  0  0  0  0  0  0  0  0  0  0  0
   -2.7771    1.9723   -0.1361 C   0  0  0  0  0  0  0  0  0  0  0  0
   -3.3909    3.2102    0.0818 C   0  0  0  0  0  0  0  0  0  0  0  0
   -2.6186    4.3001    0.4562 C   0  0  0  0  0  0  0  0  0  0  0  0
   -3.2048    5.4859    0.6652 F   0  0  0  0  0  0  0  0  0  0  0  0
   -1.2464    4.1760    0.6168 C   0  0  0  0  0  0  0  0  0  0  0  0
   -0.6361    2.9365    0.3979 C   0  0  0  0  0  0  0  0  0  0  0  0
   -1.5191   -0.5401   -0.5536 N   0  0  0  0  0  0  0  0  0  0  0  0
   -3.7801   -3.5198    1.0686 H   0  0  0  0  0  0  0  0  0  0  0  0
   -4.9257   -2.2065    0.7802 H   0  0  0  0  0  0  0  0  0  0  0  0
   -3.2478   -1.8287    1.1755 H   0  0  0  0  0  0  0  0  0  0  0  0
   -3.7374   -1.5588   -1.3134 H   0  0  0  0  0  0  0  0  0  0  0  0
   -4.2610   -3.2351   -1.3583 H   0  0  0  0  0  0  0  0  0  0  0  0
    0.9237   -2.8380   -0.7576 H   0  0  0  0  0  0  0  0  0  0  0  0
    3.1983    1.1361   -0.6027 H   0  0  0  0  0  0  0  0  0  0  0  0
    3.0328    0.8317    1.1522 H   0  0  0  0  0  0  0  0  0  0  0  0
    5.4874    0.7017    0.0510 H   0  0  0  0  0  0  0  0  0  0  0  0
    4.9869   -0.5532    1.2048 H   0  0  0  0  0  0  0  0  0  0  0  0
    4.8641   -0.6921   -1.8390 H   0  0  0  0  0  0  0  0  0  0  0  0
    5.6131   -1.8702   -0.7459 H   0  0  0  0  0  0  0  0  0  0  0  0
    3.4845   -2.7099   -0.0448 H   0  0  0  0  0  0  0  0  0  0  0  0
    3.0656   -2.1757   -1.6957 H   0  0  0  0  0  0  0  0  0  0  0  0
   -3.3993    1.1282   -0.4300 H   0  0  0  0  0  0  0  0  0  0  0  0
   -4.4631    3.3255   -0.0394 H   0  0  0  0  0  0  0  0  0  0  0  0
   -0.6573    5.0387    0.9106 H   0  0  0  0  0  0  0  0  0  0  0  0
    0.4424    2.8564    0.5294 H   0  0  0  0  0  0  0  0  0  0  0  0
  1  2  1  0
  2  3  1  0
  3  4  1  0
  4  5  2  0
  5  6  1  0
  6  7  1  0
  7  8  1  0
  8  9  1  0
  9 10  1  0
 10 11  1  0
  6 12  2  0
 12 13  1  0
 13 14  1  0
 14 15  2  0
 15 16  1  0
 16 17  2  0
 17 18  1  0
 17 19  1  0
 19 20  2  0
 13 21  2  0
 21  4  1  0
 11  7  1  0
 20 14  1  0
  1 22  1  0
  1 23  1  0
  1 24  1  0
  2 25  1  0
  2 26  1  0
  5 27  1  0
  8 28  1  0
  8 29  1  0
  9 30  1  0
  9 31  1  0
 10 32  1  0
 10 33  1  0
 11 34  1  0
 11 35  1  0
 15 36  1  0
 16 37  1  0
 19 38  1  0
 20 39  1  0
M  END
$$$$
