
     RDKit          3D

 53 56  0  0  0  0  0  0  0  0999 V2000
    5.4661    2.3705   -2.1091 C   0  0  0  0  0  0  0  0  0  0  0  0
    4.8568    1.1340   -1.5202 C   0  0  0  0  0  0  0  0  0  0  0  0
    3.5038    1.0838   -1.2485 C   0  0  0  0  0  0  0  0  0  0  0  0
    2.9910   -0.0872   -0.6918 C   0  0  0  0  0  0  0  0  0  0  0  0
    1.5485   -0.0761   -0.3556 C   0  0  0  0  0  0  0  0  0  0  0  0
    0.7464    0.1870   -1.2413 O   0  0  0  0  0  0  0  0  0  0  0  0
    1.2823   -0.2918    0.9836 N   0  0  0  0  0  0  0  0  0  0  0  0
    0.0151   -0.3816    1.5926 C   0  0  0  0  0  0  0  0  0  0  0  0
   -0.0260   -0.4137    2.9883 C   0  0  0  0  0  0  0  0  0  0  0  0
   -1.2467   -0.4995    3.6651 C   0  0  0  0  0  0  0  0  0  0  0  0
   -2.4600   -0.5643    2.9638 C   0  0  0  0  0  0  0  0  0  0  0  0
   -3.7362   -0.6761    3.7497 C   0  0  0  0  0  0  0  0  0  0  0  0
   -2.4132   -0.5218    1.5591 C   0  0  0  0  0  0  0  0  0  0  0  0
   -3.8929   -0.5723    0.5612 S   0  0  0  0  0  6  0  0  0  0  0  0
   -4.0245   -1.9342    0.0904 O   0  0  0  0  0  0  0  0  0  0  0  0
   -4.9727    0.0832    1.2690 O   0  0  0  0  0  0  0  0  0  0  0  0
   -3.5394    0.4248   -0.7789 N   0  0  0  0  0  0  0  0  0  0  0  0
   -3.2792    1.8694   -0.4619 C   0  0  0  0  0  0  0  0  0  0  0  0
   -3.4094    2.7226   -1.7275 C   0  0  0  0  0  0  0  0  0  0  0  0
   -4.7343    2.7064   -2.2776 O   0  0  0  0  0  0  0  0  0  0  0  0
   -5.4295    1.4735   -2.0368 C   0  0  0  0  0  0  0  0  0  0  0  0
   -4.4944    0.2664   -1.9267 C   0  0  0  0  0  0  0  0  0  0  0  0
   -1.1812   -0.4544    0.8827 C   0  0  0  0  0  0  0  0  0  0  0  0
    3.8162   -1.2093   -0.4548 C   0  0  0  0  0  0  0  0  0  0  0  0
    3.3686   -2.4637    0.0359 C   0  0  0  0  0  0  0  0  0  0  0  0
    4.2607   -3.5129    0.2484 C   0  0  0  0  0  0  0  0  0  0  0  0
    5.6068   -3.3305   -0.0319 C   0  0  0  0  0  0  0  0  0  0  0  0
    6.0488   -2.1043   -0.5337 C   0  0  0  0  0  0  0  0  0  0  0  0
    5.1808   -1.0441   -0.7586 C   0  0  0  0  0  0  0  0  0  0  0  0
    5.6846    0.0965   -1.2617 N   0  0  0  0  0  0  0  0  0  0  0  0
    5.3477    3.2135   -1.4218 H   0  0  0  0  0  0  0  0  0  0  0  0
    6.5356    2.2281   -2.2939 H   0  0  0  0  0  0  0  0  0  0  0  0
    4.9860    2.6129   -3.0621 H   0  0  0  0  0  0  0  0  0  0  0  0
    2.8583    1.9318   -1.4550 H   0  0  0  0  0  0  0  0  0  0  0  0
    2.0823   -0.3345    1.6052 H   0  0  0  0  0  0  0  0  0  0  0  0
    0.8885   -0.3661    3.5747 H   0  0  0  0  0  0  0  0  0  0  0  0
   -1.2406   -0.5224    4.7539 H   0  0  0  0  0  0  0  0  0  0  0  0
   -4.2677    0.2801    3.7520 H   0  0  0  0  0  0  0  0  0  0  0  0
   -4.3773   -1.4652    3.3448 H   0  0  0  0  0  0  0  0  0  0  0  0
   -3.5364   -0.9447    4.7931 H   0  0  0  0  0  0  0  0  0  0  0  0
   -3.9962    2.2270    0.2846 H   0  0  0  0  0  0  0  0  0  0  0  0
   -2.2671    1.9765   -0.0625 H   0  0  0  0  0  0  0  0  0  0  0  0
   -2.7166    2.3764   -2.5032 H   0  0  0  0  0  0  0  0  0  0  0  0
   -3.1602    3.7653   -1.5077 H   0  0  0  0  0  0  0  0  0  0  0  0
   -6.1335    1.3308   -2.8627 H   0  0  0  0  0  0  0  0  0  0  0  0
   -6.0197    1.5931   -1.1210 H   0  0  0  0  0  0  0  0  0  0  0  0
   -5.0849   -0.6502   -1.8353 H   0  0  0  0  0  0  0  0  0  0  0  0
   -3.8898    0.1695   -2.8362 H   0  0  0  0  0  0  0  0  0  0  0  0
   -1.1810   -0.4758   -0.2037 H   0  0  0  0  0  0  0  0  0  0  0  0
    2.3137   -2.6426    0.2366 H   0  0  0  0  0  0  0  0  0  0  0  0
    3.9028   -4.4697    0.6208 H   0  0  0  0  0  0  0  0  0  0  0  0
    6.3153   -4.1401    0.1240 H   0  0  0  0  0  0  0  0  0  0  0  0
    7.1041   -1.9740   -0.7652 H   0  0  0  0  0  0  0  0  0  0  0  0
  1  2  1  0
  2  3  2  0
  3  4  1  0
  4  5  1  0
  5  6  2  0
  5  7  1  0
  7  8  1  0
  8  9  2  0
  9 10  1  0
 10 11  2  0
 11 12  1  0
 11 13  1  0
 13 14  1  0
 14 15  2  0
 14 16  2  0
 14 17  1  0
 17 18  1  0
 18 19  1  0
 19 20  1  0
 20 21  1  0
 21 22  1  0
 13 23  2  0
  4 24  2  0
 24 25  1  0
 25 26  2  0
 26 27  1  0
 27 28  2  0
 28 29  1  0
 29 30  2  0
 30  2  1  0
 23  8  1  0
 29 24  1  0
 22 17  1  0
  1 31  1  0
  1 32  1  0
  1 33  1  0
  3 34  1  0
  7 35  1  0
  9 36  1  0
 10 37  1  0
 12 38  1  0
 12 39  1  0
 12 40  1  0
 18 41  1  0
 18 42  1  0
 19 43  1  0
 19 44  1  0
 21 45  1  0
 21 46  1  0
 22 47  1  0
 22 48  1  0
 23 49  1  0
 25 50  1  0
 26 51  1  0
 27 52  1  0
 28 53  1  0
M  END
$$$$
