
     RDKit          3D

 35 37  0  0  0  0  0  0  0  0999 V2000
   -2.2336   -2.5995    0.5683 C   0  0  0  0  0  0  0  0  0  0  0  0
   -1.3051   -1.4528    0.3503 C   0  0  0  0  0  0  0  0  0  0  0  0
   -0.0052   -1.5728    0.4310 N   0  0  0  0  0  0  0  0  0  0  0  0
    0.5083   -0.3026    0.2286 N   0  0  0  0  0  0  0  0  0  0  0  0
    1.8631   -0.0508    0.2630 C   0  0  0  0  0  0  0  0  0  0  0  0
    2.8377   -0.9157    0.4657 N   0  0  0  0  0  0  0  0  0  0  0  0
    4.0011   -0.1892    0.4078 C   0  0  0  0  0  0  0  0  0  0  0  0
    5.3303   -0.6104    0.5552 C   0  0  0  0  0  0  0  0  0  0  0  0
    6.3524    0.3420    0.4508 C   0  0  0  0  0  0  0  0  0  0  0  0
    6.0565    1.6855    0.2046 C   0  0  0  0  0  0  0  0  0  0  0  0
    4.7357    2.1247    0.0546 C   0  0  0  0  0  0  0  0  0  0  0  0
    3.7388    1.1535    0.1636 C   0  0  0  0  0  0  0  0  0  0  0  0
    2.3740    1.2133    0.0761 N   0  0  0  0  0  0  0  0  0  0  0  0
   -0.4467    0.6902    0.0097 C   0  0  0  0  0  0  0  0  0  0  0  0
   -0.3089    1.8870   -0.1825 O   0  0  0  0  0  0  0  0  0  0  0  0
   -1.7160   -0.0721    0.0455 C   0  0  0  0  0  0  0  0  0  0  0  0
   -2.9037    0.5064   -0.1591 C   0  0  0  0  0  0  0  0  0  0  0  0
   -4.1849   -0.0347   -0.2368 N   0  0  0  0  0  0  0  0  0  0  0  0
   -5.3314    0.8231    0.1046 C   0  0  0  0  0  0  0  0  0  0  0  0
   -4.5069   -0.9763   -1.3218 C   0  0  0  0  0  0  0  0  0  0  0  0
   -3.1828   -2.2667    0.9920 H   0  0  0  0  0  0  0  0  0  0  0  0
   -1.7793   -3.3068    1.2689 H   0  0  0  0  0  0  0  0  0  0  0  0
   -2.4065   -3.1146   -0.3797 H   0  0  0  0  0  0  0  0  0  0  0  0
    5.5508   -1.6546    0.7462 H   0  0  0  0  0  0  0  0  0  0  0  0
    7.3875    0.0286    0.5633 H   0  0  0  0  0  0  0  0  0  0  0  0
    6.8692    2.4053    0.1281 H   0  0  0  0  0  0  0  0  0  0  0  0
    4.5058    3.1672   -0.1362 H   0  0  0  0  0  0  0  0  0  0  0  0
    1.8118    2.0366   -0.0949 H   0  0  0  0  0  0  0  0  0  0  0  0
   -2.9261    1.5924   -0.2733 H   0  0  0  0  0  0  0  0  0  0  0  0
   -5.5161    1.5564   -0.6879 H   0  0  0  0  0  0  0  0  0  0  0  0
   -5.1439    1.3577    1.0422 H   0  0  0  0  0  0  0  0  0  0  0  0
   -6.2349    0.2200    0.2442 H   0  0  0  0  0  0  0  0  0  0  0  0
   -4.8646   -0.4338   -2.2041 H   0  0  0  0  0  0  0  0  0  0  0  0
   -3.6382   -1.5657   -1.6275 H   0  0  0  0  0  0  0  0  0  0  0  0
   -5.2883   -1.6708   -0.9962 H   0  0  0  0  0  0  0  0  0  0  0  0
  1  2  1  0
  2  3  2  0
  3  4  1  0
  4  5  1  0
  5  6  2  0
  6  7  1  0
  7  8  2  0
  8  9  1  0
  9 10  2  0
 10 11  1  0
 11 12  2  0
 12 13  1  0
  4 14  1  0
 14 15  2  0
 14 16  1  0
 16 17  2  3
 17 18  1  0
 18 19  1  0
 18 20  1  0
 16  2  1  0
 13  5  1  0
 12  7  1  0
  1 21  1  0
  1 22  1  0
  1 23  1  0
  8 24  1  0
  9 25  1  0
 10 26  1  0
 11 27  1  0
 13 28  1  0
 17 29  1  0
 19 30  1  0
 19 31  1  0
 19 32  1  0
 20 33  1  0
 20 34  1  0
 20 35  1  0
M  END
$$$$
