
     RDKit          3D

 44 47  0  0  0  0  0  0  0  0999 V2000
    5.2390    0.5649   -1.9304 C   0  0  0  0  0  0  0  0  0  0  0  0
    5.8545    0.1651   -0.7127 O   0  0  0  0  0  0  0  0  0  0  0  0
    5.0299   -0.2432    0.2969 C   0  0  0  0  0  0  0  0  0  0  0  0
    5.6808   -0.6289    1.4628 C   0  0  0  0  0  0  0  0  0  0  0  0
    4.9478   -1.0639    2.5695 C   0  0  0  0  0  0  0  0  0  0  0  0
    3.5635   -1.1291    2.5490 C   0  0  0  0  0  0  0  0  0  0  0  0
    2.9332   -1.5560    3.6552 N   0  0  0  0  0  0  0  0  0  0  0  0
    1.5876   -1.6219    3.6370 C   0  0  0  0  0  0  0  0  0  0  0  0
    0.8183   -1.2747    2.5467 C   0  0  0  0  0  0  0  0  0  0  0  0
    1.4667   -0.8254    1.3945 C   0  0  0  0  0  0  0  0  0  0  0  0
    0.6468   -0.4776    0.2228 C   0  0  0  0  0  0  0  0  0  0  0  0
   -0.2571    0.5137    0.2523 C   0  0  0  0  0  0  0  0  0  0  0  0
   -1.0857    0.8524   -0.9148 C   0  0  0  0  0  0  0  0  0  0  0  0
   -0.4550    1.3383   -2.0611 C   0  0  0  0  0  0  0  0  0  0  0  0
   -1.2385    1.6721   -3.1459 C   0  0  0  0  0  0  0  0  0  0  0  0
   -2.5813    1.5581   -3.1644 N   0  0  0  0  0  0  0  0  0  0  0  0
   -3.1943    1.0949   -2.0628 C   0  0  0  0  0  0  0  0  0  0  0  0
   -4.5771    0.9789   -2.0790 C   0  0  0  0  0  0  0  0  0  0  0  0
   -5.2992    0.5039   -0.9779 C   0  0  0  0  0  0  0  0  0  0  0  0
   -4.6275    0.1299    0.1778 C   0  0  0  0  0  0  0  0  0  0  0  0
   -5.1959   -0.3512    1.3234 O   0  0  0  0  0  0  0  0  0  0  0  0
   -6.6125   -0.4805    1.3329 C   0  0  0  0  0  0  0  0  0  0  0  0
   -3.2361    0.2396    0.2138 C   0  0  0  0  0  0  0  0  0  0  0  0
   -2.4966    0.7225   -0.8946 C   0  0  0  0  0  0  0  0  0  0  0  0
    2.8821   -0.7455    1.3725 C   0  0  0  0  0  0  0  0  0  0  0  0
    3.6375   -0.3006    0.2541 C   0  0  0  0  0  0  0  0  0  0  0  0
    4.6846   -0.2637   -2.3832 H   0  0  0  0  0  0  0  0  0  0  0  0
    6.0320    0.8547   -2.6266 H   0  0  0  0  0  0  0  0  0  0  0  0
    4.5939    1.4367   -1.7788 H   0  0  0  0  0  0  0  0  0  0  0  0
    6.7659   -0.5915    1.5177 H   0  0  0  0  0  0  0  0  0  0  0  0
    5.4749   -1.3597    3.4737 H   0  0  0  0  0  0  0  0  0  0  0  0
    1.1295   -1.9780    4.5554 H   0  0  0  0  0  0  0  0  0  0  0  0
   -0.2618   -1.3631    2.5959 H   0  0  0  0  0  0  0  0  0  0  0  0
    0.8143   -1.0732   -0.6713 H   0  0  0  0  0  0  0  0  0  0  0  0
   -0.4299    1.1062    1.1478 H   0  0  0  0  0  0  0  0  0  0  0  0
    0.6209    1.4652   -2.1089 H   0  0  0  0  0  0  0  0  0  0  0  0
   -0.7953    2.0566   -4.0602 H   0  0  0  0  0  0  0  0  0  0  0  0
   -5.1133    1.2678   -2.9807 H   0  0  0  0  0  0  0  0  0  0  0  0
   -6.3785    0.4411   -1.0652 H   0  0  0  0  0  0  0  0  0  0  0  0
   -6.9488   -1.1932    0.5726 H   0  0  0  0  0  0  0  0  0  0  0  0
   -6.9056   -0.8739    2.3110 H   0  0  0  0  0  0  0  0  0  0  0  0
   -7.0984    0.4926    1.2059 H   0  0  0  0  0  0  0  0  0  0  0  0
   -2.7239   -0.0627    1.1244 H   0  0  0  0  0  0  0  0  0  0  0  0
    3.1084    0.0024   -0.6427 H   0  0  0  0  0  0  0  0  0  0  0  0
  1  2  1  0
  2  3  1  0
  3  4  2  0
  4  5  1  0
  5  6  2  0
  6  7  1  0
  7  8  2  0
  8  9  1  0
  9 10  2  0
 10 11  1  0
 11 12  2  3
 12 13  1  0
 13 14  2  0
 14 15  1  0
 15 16  2  0
 16 17  1  0
 17 18  2  0
 18 19  1  0
 19 20  2  0
 20 21  1  0
 21 22  1  0
 20 23  1  0
 23 24  2  0
 10 25  1  0
 25 26  2  0
 26  3  1  0
 25  6  1  0
 24 13  1  0
 24 17  1  0
  1 27  1  0
  1 28  1  0
  1 29  1  0
  4 30  1  0
  5 31  1  0
  8 32  1  0
  9 33  1  0
 11 34  1  0
 12 35  1  0
 14 36  1  0
 15 37  1  0
 18 38  1  0
 19 39  1  0
 22 40  1  0
 22 41  1  0
 22 42  1  0
 23 43  1  0
 26 44  1  0
M  END
$$$$
