
     RDKit          3D

 55 57  0  0  0  0  0  0  0  0999 V2000
    3.3564    2.1803   -1.1751 C   0  0  0  0  0  0  0  0  0  0  0  0
    2.1175    1.5362   -0.5522 C   0  0  0  0  0  0  0  0  0  0  0  0
    1.0974    1.1310   -1.6315 C   0  0  0  0  0  0  0  0  0  0  0  0
    1.4489    0.8604   -2.7789 O   0  0  0  0  0  0  0  0  0  0  0  0
   -0.2016    1.0743   -1.1544 N   0  0  0  0  0  0  0  0  0  0  0  0
   -1.3873    0.7514   -1.8601 C   0  0  0  0  0  0  0  0  0  0  0  0
   -1.3899    0.3627   -3.2036 C   0  0  0  0  0  0  0  0  0  0  0  0
   -2.5865    0.0464   -3.8602 C   0  0  0  0  0  0  0  0  0  0  0  0
   -3.8032    0.1211   -3.1886 C   0  0  0  0  0  0  0  0  0  0  0  0
   -3.8269    0.5080   -1.8527 C   0  0  0  0  0  0  0  0  0  0  0  0
   -2.6266    0.8055   -1.1897 C   0  0  0  0  0  0  0  0  0  0  0  0
   -2.7081    1.2469    0.2203 C   0  0  0  0  0  0  0  0  0  0  0  0
   -2.3025    2.3748    0.4913 O   0  0  0  0  0  0  0  0  0  0  0  0
   -3.2250    0.3672    1.1621 N   0  0  0  0  0  0  0  0  0  0  0  0
   -3.3221    0.8057    2.5530 C   0  0  0  0  0  0  0  0  0  0  0  0
   -4.3741   -0.0128    3.3061 C   0  0  0  0  0  0  0  0  0  0  0  0
   -4.1531   -1.4312    3.2806 O   0  0  0  0  0  0  0  0  0  0  0  0
   -3.2593   -1.8635    2.2460 C   0  0  0  0  0  0  0  0  0  0  0  0
   -3.4205   -1.0703    0.9430 C   0  0  0  0  0  0  0  0  0  0  0  0
    2.4963    0.3731    0.3032 N   0  0  0  0  0  0  0  0  0  0  0  0
    3.2905   -0.6929   -0.2244 C   0  0  0  0  0  0  0  0  0  0  0  0
    4.6528   -0.7349    0.0803 C   0  0  0  0  0  0  0  0  0  0  0  0
    5.4519   -1.7587   -0.4334 C   0  0  0  0  0  0  0  0  0  0  0  0
    4.8827   -2.7369   -1.2476 C   0  0  0  0  0  0  0  0  0  0  0  0
    5.8699   -3.9931   -1.8896 Cl  0  0  0  0  0  0  0  0  0  0  0  0
    3.5204   -2.7032   -1.5465 C   0  0  0  0  0  0  0  0  0  0  0  0
    2.7206   -1.6821   -1.0296 C   0  0  0  0  0  0  0  0  0  0  0  0
    1.5938    0.0606    1.6991 S   0  0  0  0  0  6  0  0  0  0  0  0
    2.4810    1.0532    2.8799 C   0  0  0  0  0  0  0  0  0  0  0  0
    0.2837    0.6547    1.5297 O   0  0  0  0  0  0  0  0  0  0  0  0
    1.7405   -1.3238    2.0954 O   0  0  0  0  0  0  0  0  0  0  0  0
    3.8640    1.5135   -1.8819 H   0  0  0  0  0  0  0  0  0  0  0  0
    4.0783    2.4652   -0.4026 H   0  0  0  0  0  0  0  0  0  0  0  0
    3.0771    3.0843   -1.7288 H   0  0  0  0  0  0  0  0  0  0  0  0
    1.6598    2.3104    0.0774 H   0  0  0  0  0  0  0  0  0  0  0  0
   -0.3319    1.3049   -0.1631 H   0  0  0  0  0  0  0  0  0  0  0  0
   -0.4735    0.2918   -3.7809 H   0  0  0  0  0  0  0  0  0  0  0  0
   -2.5611   -0.2501   -4.9067 H   0  0  0  0  0  0  0  0  0  0  0  0
   -4.7287   -0.1116   -3.7094 H   0  0  0  0  0  0  0  0  0  0  0  0
   -4.7775    0.5910   -1.3317 H   0  0  0  0  0  0  0  0  0  0  0  0
   -2.3318    0.6631    3.0038 H   0  0  0  0  0  0  0  0  0  0  0  0
   -3.5613    1.8738    2.5948 H   0  0  0  0  0  0  0  0  0  0  0  0
   -5.3646    0.1671    2.8721 H   0  0  0  0  0  0  0  0  0  0  0  0
   -4.4155    0.2957    4.3556 H   0  0  0  0  0  0  0  0  0  0  0  0
   -3.4577   -2.9249    2.0652 H   0  0  0  0  0  0  0  0  0  0  0  0
   -2.2338   -1.7830    2.6264 H   0  0  0  0  0  0  0  0  0  0  0  0
   -2.7177   -1.4394    0.1907 H   0  0  0  0  0  0  0  0  0  0  0  0
   -4.4422   -1.1914    0.5658 H   0  0  0  0  0  0  0  0  0  0  0  0
    5.1005    0.0260    0.7116 H   0  0  0  0  0  0  0  0  0  0  0  0
    6.5115   -1.7903   -0.1957 H   0  0  0  0  0  0  0  0  0  0  0  0
    3.0740   -3.4682   -2.1772 H   0  0  0  0  0  0  0  0  0  0  0  0
    1.6601   -1.6708   -1.2615 H   0  0  0  0  0  0  0  0  0  0  0  0
    2.0071    0.9235    3.8565 H   0  0  0  0  0  0  0  0  0  0  0  0
    3.5166    0.7080    2.9244 H   0  0  0  0  0  0  0  0  0  0  0  0
    2.4308    2.1011    2.5775 H   0  0  0  0  0  0  0  0  0  0  0  0
  1  2  1  0
  2  3  1  0
  3  4  2  0
  3  5  1  0
  5  6  1  0
  6  7  2  0
  7  8  1  0
  8  9  2  0
  9 10  1  0
 10 11  2  0
 11 12  1  0
 12 13  2  0
 12 14  1  0
 14 15  1  0
 15 16  1  0
 16 17  1  0
 17 18  1  0
 18 19  1  0
  2 20  1  0
 20 21  1  0
 21 22  2  0
 22 23  1  0
 23 24  2  0
 24 25  1  0
 24 26  1  0
 26 27  2  0
 20 28  1  0
 28 29  1  0
 28 30  2  0
 28 31  2  0
 11  6  1  0
 19 14  1  0
 27 21  1  0
  1 32  1  0
  1 33  1  0
  1 34  1  0
  2 35  1  0
  5 36  1  0
  7 37  1  0
  8 38  1  0
  9 39  1  0
 10 40  1  0
 15 41  1  0
 15 42  1  0
 16 43  1  0
 16 44  1  0
 18 45  1  0
 18 46  1  0
 19 47  1  0
 19 48  1  0
 22 49  1  0
 23 50  1  0
 26 51  1  0
 27 52  1  0
 29 53  1  0
 29 54  1  0
 29 55  1  0
M  END
$$$$
