
     RDKit          3D

 33 35  0  0  0  0  0  0  0  0999 V2000
   -1.5176    0.0265    1.2295 O   0  0  0  0  0  0  0  0  0  0  0  0
   -2.0755    0.1023    0.1379 C   0  0  0  0  0  0  0  0  0  0  0  0
   -1.3969    0.3030   -1.0576 N   0  0  0  0  0  0  0  0  0  0  0  0
   -0.0280    0.3500   -1.2947 C   0  0  0  0  0  0  0  0  0  0  0  0
    0.4068    0.6414   -2.8791 S   0  0  0  0  0  0  0  0  0  0  0  0
    0.7487    0.1506   -0.1786 N   0  0  0  0  0  0  0  0  0  0  0  0
    2.1421    0.0696    0.0475 C   0  0  0  0  0  0  0  0  0  0  0  0
    2.5292   -0.0682    1.3946 C   0  0  0  0  0  0  0  0  0  0  0  0
    3.8705   -0.1660    1.7918 C   0  0  0  0  0  0  0  0  0  0  0  0
    4.8175   -0.1243    0.7733 C   0  0  0  0  0  0  0  0  0  0  0  0
    6.1872   -0.1910    0.7777 N   0  0  0  0  0  0  0  0  0  0  0  0
    6.6171   -0.1060   -0.5161 C   0  0  0  0  0  0  0  0  0  0  0  0
    5.6129    0.0117   -1.3535 N   0  0  0  0  0  0  0  0  0  0  0  0
    4.4831    0.0045   -0.5690 C   0  0  0  0  0  0  0  0  0  0  0  0
    3.1297    0.1017   -0.9417 C   0  0  0  0  0  0  0  0  0  0  0  0
   -3.5584    0.0303    0.0462 C   0  0  0  0  0  0  0  0  0  0  0  0
   -4.2086   -0.4962   -1.0780 C   0  0  0  0  0  0  0  0  0  0  0  0
   -5.6042   -0.5431   -1.1164 C   0  0  0  0  0  0  0  0  0  0  0  0
   -6.3510   -0.0750   -0.0352 C   0  0  0  0  0  0  0  0  0  0  0  0
   -5.7070    0.4330    1.0923 C   0  0  0  0  0  0  0  0  0  0  0  0
   -4.3129    0.4814    1.1366 C   0  0  0  0  0  0  0  0  0  0  0  0
   -1.9399    0.4747   -1.8926 H   0  0  0  0  0  0  0  0  0  0  0  0
    0.1882    0.0678    0.6719 H   0  0  0  0  0  0  0  0  0  0  0  0
    1.7700   -0.0992    2.1760 H   0  0  0  0  0  0  0  0  0  0  0  0
    4.1434   -0.2689    2.8358 H   0  0  0  0  0  0  0  0  0  0  0  0
    6.7750   -0.2875    1.5924 H   0  0  0  0  0  0  0  0  0  0  0  0
    7.6647   -0.1355   -0.7841 H   0  0  0  0  0  0  0  0  0  0  0  0
    2.9235    0.1875   -1.9962 H   0  0  0  0  0  0  0  0  0  0  0  0
   -3.6528   -0.9018   -1.9189 H   0  0  0  0  0  0  0  0  0  0  0  0
   -6.1118   -0.9548   -1.9860 H   0  0  0  0  0  0  0  0  0  0  0  0
   -7.4374   -0.1157   -0.0669 H   0  0  0  0  0  0  0  0  0  0  0  0
   -6.2900    0.7880    1.9389 H   0  0  0  0  0  0  0  0  0  0  0  0
   -3.8174    0.8744    2.0224 H   0  0  0  0  0  0  0  0  0  0  0  0
  1  2  2  0
  2  3  1  0
  3  4  1  0
  4  5  2  0
  4  6  1  0
  6  7  1  0
  7  8  2  0
  8  9  1  0
  9 10  2  0
 10 11  1  0
 11 12  1  0
 12 13  2  0
 13 14  1  0
 14 15  2  0
  2 16  1  0
 16 17  2  0
 17 18  1  0
 18 19  2  0
 19 20  1  0
 20 21  2  0
 15  7  1  0
 21 16  1  0
 14 10  1  0
  3 22  1  0
  6 23  1  0
  8 24  1  0
  9 25  1  0
 11 26  1  0
 12 27  1  0
 15 28  1  0
 17 29  1  0
 18 30  1  0
 19 31  1  0
 20 32  1  0
 21 33  1  0
M  END
$$$$
