
     RDKit          3D

 57 61  0  0  0  0  0  0  0  0999 V2000
    7.8922   -2.5269    0.7994 C   0  0  0  0  0  0  0  0  0  0  0  0
    7.1739   -2.3996   -0.4204 O   0  0  0  0  0  0  0  0  0  0  0  0
    6.3348   -1.3253   -0.5333 C   0  0  0  0  0  0  0  0  0  0  0  0
    6.0584   -0.3906    0.4658 C   0  0  0  0  0  0  0  0  0  0  0  0
    5.1771    0.6682    0.2163 C   0  0  0  0  0  0  0  0  0  0  0  0
    4.5637    0.8076   -1.0365 C   0  0  0  0  0  0  0  0  0  0  0  0
    3.5918    1.9285   -1.3026 C   0  0  0  0  0  0  0  0  0  0  0  0
    2.2608    1.5663   -0.8896 N   0  0  0  0  0  0  0  0  0  0  0  0
    1.3584    0.9748   -1.7289 C   0  0  0  0  0  0  0  0  0  0  0  0
    1.5448    0.8624   -2.9380 O   0  0  0  0  0  0  0  0  0  0  0  0
    0.1135    0.4638   -1.0701 C   0  0  0  0  0  0  0  0  0  0  0  0
   -0.8088   -0.1194   -1.8541 C   0  0  0  0  0  0  0  0  0  0  0  0
   -2.0605   -0.6482   -1.3442 C   0  0  0  0  0  0  0  0  0  0  0  0
   -3.0215   -1.2881   -2.2887 C   0  0  0  0  0  0  0  0  0  0  0  0
   -2.7329   -1.3999   -3.4819 O   0  0  0  0  0  0  0  0  0  0  0  0
   -4.2124   -1.7263   -1.7381 N   0  0  0  0  0  0  0  0  0  0  0  0
   -5.1674   -2.3205   -2.5561 C   0  0  0  0  0  0  0  0  0  0  0  0
   -6.3373   -2.7552   -2.0723 C   0  0  0  0  0  0  0  0  0  0  0  0
   -6.6305   -2.6105   -0.6708 C   0  0  0  0  0  0  0  0  0  0  0  0
   -5.7349   -2.0569    0.1542 C   0  0  0  0  0  0  0  0  0  0  0  0
   -4.4315   -1.5708   -0.3828 C   0  0  0  0  0  0  0  0  0  0  0  0
   -3.5863   -1.0350    0.4389 N   0  0  0  0  0  0  0  0  0  0  0  0
   -2.3837   -0.5548   -0.0341 C   0  0  0  0  0  0  0  0  0  0  0  0
   -1.4590    0.0536    0.8627 N   0  0  0  0  0  0  0  0  0  0  0  0
   -1.8937    0.2505    2.2572 C   0  0  0  0  0  0  0  0  0  0  0  0
   -2.6491    1.5449    2.4336 C   0  0  0  0  0  0  0  0  0  0  0  0
   -2.0071    2.7851    2.5046 C   0  0  0  0  0  0  0  0  0  0  0  0
   -2.7569    3.9434    2.6798 C   0  0  0  0  0  0  0  0  0  0  0  0
   -4.1326    3.8272    2.7788 C   0  0  0  0  0  0  0  0  0  0  0  0
   -4.7911    2.6515    2.7067 N   0  0  0  0  0  0  0  0  0  0  0  0
   -4.0378    1.5441    2.5271 C   0  0  0  0  0  0  0  0  0  0  0  0
   -0.2131    0.5227    0.4051 C   0  0  0  0  0  0  0  0  0  0  0  0
    0.7217    1.0100    1.1766 N   0  0  0  0  0  0  0  0  0  0  0  0
    4.8302   -0.1454   -2.0277 C   0  0  0  0  0  0  0  0  0  0  0  0
    5.7117   -1.1988   -1.7770 C   0  0  0  0  0  0  0  0  0  0  0  0
    8.5205   -1.6476    0.9852 H   0  0  0  0  0  0  0  0  0  0  0  0
    8.5536   -3.3944    0.7038 H   0  0  0  0  0  0  0  0  0  0  0  0
    7.2135   -2.7132    1.6391 H   0  0  0  0  0  0  0  0  0  0  0  0
    6.5046   -0.4610    1.4513 H   0  0  0  0  0  0  0  0  0  0  0  0
    4.9662    1.3822    1.0109 H   0  0  0  0  0  0  0  0  0  0  0  0
    3.8820    2.8216   -0.7395 H   0  0  0  0  0  0  0  0  0  0  0  0
    3.5996    2.1980   -2.3649 H   0  0  0  0  0  0  0  0  0  0  0  0
    2.0546    1.5034    0.1094 H   0  0  0  0  0  0  0  0  0  0  0  0
   -0.6416   -0.2051   -2.9273 H   0  0  0  0  0  0  0  0  0  0  0  0
   -4.9231   -2.4195   -3.6116 H   0  0  0  0  0  0  0  0  0  0  0  0
   -7.0750   -3.2189   -2.7183 H   0  0  0  0  0  0  0  0  0  0  0  0
   -7.5884   -2.9636   -0.3025 H   0  0  0  0  0  0  0  0  0  0  0  0
   -5.9198   -1.9309    1.2135 H   0  0  0  0  0  0  0  0  0  0  0  0
   -2.5118   -0.5923    2.5968 H   0  0  0  0  0  0  0  0  0  0  0  0
   -1.0548    0.2237    2.9615 H   0  0  0  0  0  0  0  0  0  0  0  0
   -0.9275    2.8649    2.4230 H   0  0  0  0  0  0  0  0  0  0  0  0
   -2.2788    4.9160    2.7397 H   0  0  0  0  0  0  0  0  0  0  0  0
   -4.7601    4.7024    2.9238 H   0  0  0  0  0  0  0  0  0  0  0  0
   -4.6074    0.6200    2.4604 H   0  0  0  0  0  0  0  0  0  0  0  0
    0.4571    0.9874    2.1576 H   0  0  0  0  0  0  0  0  0  0  0  0
    4.3420   -0.0757   -2.9993 H   0  0  0  0  0  0  0  0  0  0  0  0
    5.9098   -1.9296   -2.5583 H   0  0  0  0  0  0  0  0  0  0  0  0
  1  2  1  0
  2  3  1  0
  3  4  2  0
  4  5  1  0
  5  6  2  0
  6  7  1  0
  7  8  1  0
  8  9  1  0
  9 10  2  0
  9 11  1  0
 11 12  2  0
 12 13  1  0
 13 14  1  0
 14 15  2  0
 14 16  1  0
 16 17  1  0
 17 18  2  0
 18 19  1  0
 19 20  2  0
 20 21  1  0
 21 22  2  0
 22 23  1  0
 23 24  1  0
 24 25  1  0
 25 26  1  0
 26 27  2  0
 27 28  1  0
 28 29  2  0
 29 30  1  0
 30 31  2  0
 24 32  1  0
 32 33  2  3
  6 34  1  0
 34 35  2  0
 35  3  1  0
 32 11  1  0
 23 13  2  0
 31 26  1  0
 21 16  1  0
  1 36  1  0
  1 37  1  0
  1 38  1  0
  4 39  1  0
  5 40  1  0
  7 41  1  0
  7 42  1  0
  8 43  1  0
 12 44  1  0
 17 45  1  0
 18 46  1  0
 19 47  1  0
 20 48  1  0
 25 49  1  0
 25 50  1  0
 27 51  1  0
 28 52  1  0
 29 53  1  0
 31 54  1  0
 33 55  1  0
 34 56  1  0
 35 57  1  0
M  END
$$$$
