
     RDKit          3D

 62 64  0  0  0  0  0  0  0  0999 V2000
   -4.0494    2.8915   -0.0372 C   0  0  0  0  0  0  0  0  0  0  0  0
   -3.2580    1.6375    0.2372 C   0  0  0  0  0  0  0  0  0  0  0  0
   -1.9623    1.8584    0.7660 C   0  0  0  0  0  0  0  0  0  0  0  0
   -1.0833    0.8126    1.0157 C   0  0  0  0  0  0  0  0  0  0  0  0
    0.1432    1.1532    1.6067 O   0  0  0  0  0  0  0  0  0  0  0  0
    1.0276    0.1717    2.0141 C   0  0  0  0  0  0  0  0  0  0  0  0
    2.0127    0.4491    2.6941 O   0  0  0  0  0  0  0  0  0  0  0  0
    0.7584   -1.2280    1.5684 C   0  0  0  0  0  0  0  0  0  0  0  0
    1.8903   -2.1704    1.9049 C   0  0  0  0  0  0  0  0  0  0  0  0
    3.0854   -1.8630    1.0122 C   0  0  0  0  0  0  0  0  0  0  0  0
    3.0975   -2.1350   -0.1867 O   0  0  0  0  0  0  0  0  0  0  0  0
    4.1199   -1.2366    1.6760 N   0  0  0  0  0  0  0  0  0  0  0  0
    5.2982   -0.7517    0.9752 C   0  0  0  0  0  0  0  0  0  0  0  0
    5.0715    0.6484    0.4053 C   0  0  0  0  0  0  0  0  0  0  0  0
    6.3781    1.3127   -0.0481 C   0  0  0  0  0  0  0  0  0  0  0  0
    7.1141    0.5691   -1.0855 N   0  0  0  0  0  0  0  0  0  0  0  0
    6.4023    0.5788   -2.3685 C   0  0  0  0  0  0  0  0  0  0  0  0
    8.4517    1.1396   -1.2607 C   0  0  0  0  0  0  0  0  0  0  0  0
   -0.3887   -1.5632    0.9354 C   0  0  0  0  0  0  0  0  0  0  0  0
   -0.6661   -2.9405    0.3920 C   0  0  0  0  0  0  0  0  0  0  0  0
   -1.3917   -0.5045    0.7229 C   0  0  0  0  0  0  0  0  0  0  0  0
   -2.6924   -0.7147    0.2297 C   0  0  0  0  0  0  0  0  0  0  0  0
   -3.2103   -1.9343   -0.0603 O   0  0  0  0  0  0  0  0  0  0  0  0
   -4.4627   -1.7606   -0.5031 C   0  0  0  0  0  0  0  0  0  0  0  0
   -4.8284   -0.4248   -0.5231 C   0  0  0  0  0  0  0  0  0  0  0  0
   -6.2103    0.0650   -0.9676 C   0  0  0  0  0  0  0  0  0  0  0  0
   -6.1084    1.0603   -2.1378 C   0  0  0  0  0  0  0  0  0  0  0  0
   -7.0875   -1.1046   -1.5026 C   0  0  0  0  0  0  0  0  0  0  0  0
   -6.9920    0.6555    0.2222 C   0  0  0  0  0  0  0  0  0  0  0  0
   -3.6499    0.2873   -0.0264 C   0  0  0  0  0  0  0  0  0  0  0  0
   -5.1179    2.7410    0.0545 H   0  0  0  0  0  0  0  0  0  0  0  0
   -3.8195    3.2587   -1.0441 H   0  0  0  0  0  0  0  0  0  0  0  0
   -3.7984    3.6829    0.6790 H   0  0  0  0  0  0  0  0  0  0  0  0
   -1.6351    2.8739    0.9891 H   0  0  0  0  0  0  0  0  0  0  0  0
    1.6432   -3.2261    1.7772 H   0  0  0  0  0  0  0  0  0  0  0  0
    2.1615   -2.0778    2.9635 H   0  0  0  0  0  0  0  0  0  0  0  0
    3.8485   -0.7132    2.5053 H   0  0  0  0  0  0  0  0  0  0  0  0
    6.1125   -0.7428    1.7080 H   0  0  0  0  0  0  0  0  0  0  0  0
    5.5588   -1.4585    0.1808 H   0  0  0  0  0  0  0  0  0  0  0  0
    4.6184    1.2873    1.1773 H   0  0  0  0  0  0  0  0  0  0  0  0
    4.3427    0.6091   -0.4124 H   0  0  0  0  0  0  0  0  0  0  0  0
    6.1656    2.3381   -0.3779 H   0  0  0  0  0  0  0  0  0  0  0  0
    7.0176    1.3986    0.8440 H   0  0  0  0  0  0  0  0  0  0  0  0
    6.2311    1.5983   -2.7340 H   0  0  0  0  0  0  0  0  0  0  0  0
    5.4382    0.0622   -2.2941 H   0  0  0  0  0  0  0  0  0  0  0  0
    6.9831    0.0364   -3.1264 H   0  0  0  0  0  0  0  0  0  0  0  0
    8.4160    2.1874   -1.5868 H   0  0  0  0  0  0  0  0  0  0  0  0
    9.0225    0.5653   -1.9965 H   0  0  0  0  0  0  0  0  0  0  0  0
    9.0196    1.0879   -0.3230 H   0  0  0  0  0  0  0  0  0  0  0  0
   -1.4308   -3.4475    0.9872 H   0  0  0  0  0  0  0  0  0  0  0  0
   -0.9937   -2.8895   -0.6492 H   0  0  0  0  0  0  0  0  0  0  0  0
    0.2096   -3.5868    0.3789 H   0  0  0  0  0  0  0  0  0  0  0  0
   -4.9755   -2.6762   -0.7631 H   0  0  0  0  0  0  0  0  0  0  0  0
   -5.5732    1.9726   -1.8813 H   0  0  0  0  0  0  0  0  0  0  0  0
   -7.1031    1.3620   -2.4842 H   0  0  0  0  0  0  0  0  0  0  0  0
   -5.5853    0.6134   -2.9908 H   0  0  0  0  0  0  0  0  0  0  0  0
   -6.6219   -1.5988   -2.3628 H   0  0  0  0  0  0  0  0  0  0  0  0
   -7.2596   -1.8661   -0.7330 H   0  0  0  0  0  0  0  0  0  0  0  0
   -8.0719   -0.7476   -1.8249 H   0  0  0  0  0  0  0  0  0  0  0  0
   -7.1967   -0.1128    0.9797 H   0  0  0  0  0  0  0  0  0  0  0  0
   -7.9559    1.0623   -0.0991 H   0  0  0  0  0  0  0  0  0  0  0  0
   -6.4598    1.4477    0.7407 H   0  0  0  0  0  0  0  0  0  0  0  0
  1  2  1  0
  2  3  2  0
  3  4  1  0
  4  5  1  0
  5  6  1  0
  6  7  2  0
  6  8  1  0
  8  9  1  0
  9 10  1  0
 10 11  2  0
 10 12  1  0
 12 13  1  0
 13 14  1  0
 14 15  1  0
 15 16  1  0
 16 17  1  0
 16 18  1  0
  8 19  2  0
 19 20  1  0
 19 21  1  0
 21 22  1  0
 22 23  1  0
 23 24  1  0
 24 25  2  0
 25 26  1  0
 26 27  1  0
 26 28  1  0
 26 29  1  0
 25 30  1  0
 30  2  1  0
 21  4  2  0
 30 22  2  0
  1 31  1  0
  1 32  1  0
  1 33  1  0
  3 34  1  0
  9 35  1  0
  9 36  1  0
 12 37  1  0
 13 38  1  0
 13 39  1  0
 14 40  1  0
 14 41  1  0
 15 42  1  0
 15 43  1  0
 17 44  1  0
 17 45  1  0
 17 46  1  0
 18 47  1  0
 18 48  1  0
 18 49  1  0
 20 50  1  0
 20 51  1  0
 20 52  1  0
 24 53  1  0
 27 54  1  0
 27 55  1  0
 27 56  1  0
 28 57  1  0
 28 58  1  0
 28 59  1  0
 29 60  1  0
 29 61  1  0
 29 62  1  0
M  END
$$$$
