
     RDKit          3D

 58 61  0  0  0  0  0  0  0  0999 V2000
    0.1264   -0.7057    3.0535 O   0  0  0  0  0  0  0  0  0  0  0  0
   -0.3341   -0.8245    1.9219 C   0  0  0  0  0  0  0  0  0  0  0  0
    0.4798   -1.4863    0.8028 C   0  0  0  0  0  0  0  0  0  0  0  0
    0.7381   -0.5330   -0.2973 N   0  0  0  0  0  0  0  0  0  0  0  0
    1.2520   -1.2627   -1.4800 C   0  0  0  0  0  0  0  0  0  0  0  0
    2.1357   -0.3974   -2.3977 C   0  0  0  0  0  0  0  0  0  0  0  0
    3.3742    0.0625   -1.6805 N   0  0  0  0  0  0  0  0  0  0  0  0
    4.7743   -0.8091   -2.1100 S   0  0  0  0  0  6  0  0  0  0  0  0
    4.9379   -0.7568   -3.5452 O   0  0  0  0  0  0  0  0  0  0  0  0
    4.6830   -2.0879   -1.4331 O   0  0  0  0  0  0  0  0  0  0  0  0
    6.0941    0.0994   -1.3909 C   0  0  0  0  0  0  0  0  0  0  0  0
    6.9425   -0.5092   -0.4614 C   0  0  0  0  0  0  0  0  0  0  0  0
    7.9954    0.2251    0.0937 C   0  0  0  0  0  0  0  0  0  0  0  0
    8.1977    1.5541   -0.2853 C   0  0  0  0  0  0  0  0  0  0  0  0
    7.3459    2.1529   -1.2137 C   0  0  0  0  0  0  0  0  0  0  0  0
    6.2965    1.4206   -1.7671 C   0  0  0  0  0  0  0  0  0  0  0  0
    5.4873    2.0324   -2.6395 F   0  0  0  0  0  0  0  0  0  0  0  0
    3.1519    0.2444   -0.2082 C   0  0  0  0  0  0  0  0  0  0  0  0
    1.6746    0.5428    0.1057 C   0  0  0  0  0  0  0  0  0  0  0  0
   -1.5869   -0.4313    1.4888 N   0  0  0  0  0  0  0  0  0  0  0  0
   -2.6446    0.1522    2.2218 C   0  0  0  0  0  0  0  0  0  0  0  0
   -2.5167    0.4850    3.5762 C   0  0  0  0  0  0  0  0  0  0  0  0
   -3.5760    1.0711    4.2741 C   0  0  0  0  0  0  0  0  0  0  0  0
   -4.7841    1.3273    3.6315 C   0  0  0  0  0  0  0  0  0  0  0  0
   -4.9375    0.9943    2.2869 C   0  0  0  0  0  0  0  0  0  0  0  0
   -3.8801    0.3991    1.5759 C   0  0  0  0  0  0  0  0  0  0  0  0
   -4.0720    0.0463    0.1341 C   0  0  0  0  0  0  0  0  0  0  0  0
   -3.1086   -0.0853   -0.6197 O   0  0  0  0  0  0  0  0  0  0  0  0
   -5.4215   -0.1754   -0.4220 C   0  0  0  0  0  0  0  0  0  0  0  0
   -5.8622    0.6360   -1.4726 C   0  0  0  0  0  0  0  0  0  0  0  0
   -7.1303    0.4240   -2.0190 C   0  0  0  0  0  0  0  0  0  0  0  0
   -7.9366   -0.6097   -1.5327 C   0  0  0  0  0  0  0  0  0  0  0  0
   -7.4818   -1.4311   -0.4983 C   0  0  0  0  0  0  0  0  0  0  0  0
   -6.2194   -1.2163    0.0617 C   0  0  0  0  0  0  0  0  0  0  0  0
   -0.1162   -2.3317    0.4402 H   0  0  0  0  0  0  0  0  0  0  0  0
    1.4071   -1.8953    1.2186 H   0  0  0  0  0  0  0  0  0  0  0  0
    1.8462   -2.1321   -1.1659 H   0  0  0  0  0  0  0  0  0  0  0  0
    0.3978   -1.6449   -2.0504 H   0  0  0  0  0  0  0  0  0  0  0  0
    1.5910    0.4909   -2.7426 H   0  0  0  0  0  0  0  0  0  0  0  0
    2.3917   -0.9682   -3.2960 H   0  0  0  0  0  0  0  0  0  0  0  0
    6.7986   -1.5471   -0.1679 H   0  0  0  0  0  0  0  0  0  0  0  0
    8.6634   -0.2419    0.8139 H   0  0  0  0  0  0  0  0  0  0  0  0
    9.0218    2.1224    0.1453 H   0  0  0  0  0  0  0  0  0  0  0  0
    7.4916    3.1872   -1.5124 H   0  0  0  0  0  0  0  0  0  0  0  0
    3.4616   -0.6496    0.3462 H   0  0  0  0  0  0  0  0  0  0  0  0
    3.7660    1.0865    0.1301 H   0  0  0  0  0  0  0  0  0  0  0  0
    1.3830    1.4514   -0.4391 H   0  0  0  0  0  0  0  0  0  0  0  0
    1.5681    0.7972    1.1646 H   0  0  0  0  0  0  0  0  0  0  0  0
   -1.7458   -0.5141    0.4792 H   0  0  0  0  0  0  0  0  0  0  0  0
   -1.5900    0.3160    4.1193 H   0  0  0  0  0  0  0  0  0  0  0  0
   -3.4513    1.3369    5.3208 H   0  0  0  0  0  0  0  0  0  0  0  0
   -5.6013    1.7962    4.1774 H   0  0  0  0  0  0  0  0  0  0  0  0
   -5.8878    1.2191    1.8075 H   0  0  0  0  0  0  0  0  0  0  0  0
   -5.2254    1.4285   -1.8626 H   0  0  0  0  0  0  0  0  0  0  0  0
   -7.4834    1.0527   -2.8334 H   0  0  0  0  0  0  0  0  0  0  0  0
   -8.9173   -0.7823   -1.9726 H   0  0  0  0  0  0  0  0  0  0  0  0
   -8.1024   -2.2534   -0.1418 H   0  0  0  0  0  0  0  0  0  0  0  0
   -5.8616   -1.8720    0.8523 H   0  0  0  0  0  0  0  0  0  0  0  0
  1  2  2  0
  2  3  1  0
  3  4  1  0
  4  5  1  0
  5  6  1  0
  6  7  1  0
  7  8  1  0
  8  9  2  0
  8 10  2  0
  8 11  1  0
 11 12  2  0
 12 13  1  0
 13 14  2  0
 14 15  1  0
 15 16  2  0
 16 17  1  0
  7 18  1  0
 18 19  1  0
  2 20  1  0
 20 21  1  0
 21 22  2  0
 22 23  1  0
 23 24  2  0
 24 25  1  0
 25 26  2  0
 26 27  1  0
 27 28  2  0
 27 29  1  0
 29 30  2  0
 30 31  1  0
 31 32  2  0
 32 33  1  0
 33 34  2  0
 19  4  1  0
 26 21  1  0
 34 29  1  0
 16 11  1  0
  3 35  1  0
  3 36  1  0
  5 37  1  0
  5 38  1  0
  6 39  1  0
  6 40  1  0
 12 41  1  0
 13 42  1  0
 14 43  1  0
 15 44  1  0
 18 45  1  0
 18 46  1  0
 19 47  1  0
 19 48  1  0
 20 49  1  0
 22 50  1  0
 23 51  1  0
 24 52  1  0
 25 53  1  0
 30 54  1  0
 31 55  1  0
 32 56  1  0
 33 57  1  0
 34 58  1  0
M  END
$$$$
