
     RDKit          3D

 46 48  0  0  0  0  0  0  0  0999 V2000
    7.0251   -1.3554   -0.8398 C   0  0  0  0  0  0  0  0  0  0  0  0
    5.7882   -0.8606   -0.1044 C   0  0  0  0  0  0  0  0  0  0  0  0
    4.5168   -1.1081   -0.9327 C   0  0  0  0  0  0  0  0  0  0  0  0
    3.3405   -0.5055   -0.3023 N   0  0  0  0  0  0  0  0  0  0  0  0
    2.0884   -1.0110   -0.6870 C   0  0  0  0  0  0  0  0  0  0  0  0
    1.9974   -1.8702   -1.5670 O   0  0  0  0  0  0  0  0  0  0  0  0
    0.8718   -0.5303   -0.0140 C   0  0  0  0  0  0  0  0  0  0  0  0
   -0.4539   -0.6382   -0.5139 C   0  0  0  0  0  0  0  0  0  0  0  0
   -1.2509   -0.1022    0.4675 C   0  0  0  0  0  0  0  0  0  0  0  0
   -2.7043    0.1301    0.6347 C   0  0  0  0  0  0  0  0  0  0  0  0
   -3.3646   -0.4915   -0.4672 O   0  0  0  0  0  0  0  0  0  0  0  0
   -4.7290   -0.4157   -0.5026 C   0  0  0  0  0  0  0  0  0  0  0  0
   -5.3210   -1.1183   -1.5541 C   0  0  0  0  0  0  0  0  0  0  0  0
   -6.7059   -1.1237   -1.7172 C   0  0  0  0  0  0  0  0  0  0  0  0
   -7.5126   -0.4202   -0.8255 C   0  0  0  0  0  0  0  0  0  0  0  0
   -6.9390    0.2880    0.2401 C   0  0  0  0  0  0  0  0  0  0  0  0
   -7.8110    1.0749    1.1878 C   0  0  0  0  0  0  0  0  0  0  0  0
   -7.2559    1.2250    2.4238 F   0  0  0  0  0  0  0  0  0  0  0  0
   -8.0593    2.3347    0.7346 F   0  0  0  0  0  0  0  0  0  0  0  0
   -9.0294    0.5022    1.3955 F   0  0  0  0  0  0  0  0  0  0  0  0
   -5.5389    0.2890    0.3900 C   0  0  0  0  0  0  0  0  0  0  0  0
   -0.4644    0.2876    1.5049 O   0  0  0  0  0  0  0  0  0  0  0  0
    0.8560    0.0029    1.2206 N   0  0  0  0  0  0  0  0  0  0  0  0
    3.5437    0.8975    0.0856 C   0  0  0  0  0  0  0  0  0  0  0  0
    4.8448    1.0725    0.8863 C   0  0  0  0  0  0  0  0  0  0  0  0
    5.1247    2.5437    1.1562 C   0  0  0  0  0  0  0  0  0  0  0  0
    5.9634    0.5447    0.1510 O   0  0  0  0  0  0  0  0  0  0  0  0
    6.9547   -2.4246   -1.0651 H   0  0  0  0  0  0  0  0  0  0  0  0
    7.1703   -0.8055   -1.7765 H   0  0  0  0  0  0  0  0  0  0  0  0
    7.9222   -1.1845   -0.2333 H   0  0  0  0  0  0  0  0  0  0  0  0
    5.7160   -1.3802    0.8600 H   0  0  0  0  0  0  0  0  0  0  0  0
    4.3602   -2.1844   -1.0639 H   0  0  0  0  0  0  0  0  0  0  0  0
    4.6085   -0.6557   -1.9281 H   0  0  0  0  0  0  0  0  0  0  0  0
   -0.7692   -1.0532   -1.4603 H   0  0  0  0  0  0  0  0  0  0  0  0
   -2.8938    1.2098    0.6343 H   0  0  0  0  0  0  0  0  0  0  0  0
   -3.0388   -0.3167    1.5784 H   0  0  0  0  0  0  0  0  0  0  0  0
   -4.6961   -1.6689   -2.2539 H   0  0  0  0  0  0  0  0  0  0  0  0
   -7.1527   -1.6752   -2.5415 H   0  0  0  0  0  0  0  0  0  0  0  0
   -8.5931   -0.4255   -0.9636 H   0  0  0  0  0  0  0  0  0  0  0  0
   -5.1133    0.8534    1.2149 H   0  0  0  0  0  0  0  0  0  0  0  0
    3.6007    1.4628   -0.8543 H   0  0  0  0  0  0  0  0  0  0  0  0
    2.7037    1.3064    0.6451 H   0  0  0  0  0  0  0  0  0  0  0  0
    4.7752    0.5406    1.8430 H   0  0  0  0  0  0  0  0  0  0  0  0
    6.0575    2.6580    1.7188 H   0  0  0  0  0  0  0  0  0  0  0  0
    4.3135    3.0052    1.7276 H   0  0  0  0  0  0  0  0  0  0  0  0
    5.2540    3.0962    0.2189 H   0  0  0  0  0  0  0  0  0  0  0  0
  1  2  1  0
  2  3  1  0
  3  4  1  0
  4  5  1  0
  5  6  2  0
  5  7  1  0
  7  8  1  0
  8  9  2  0
  9 10  1  0
 10 11  1  0
 11 12  1  0
 12 13  2  0
 13 14  1  0
 14 15  2  0
 15 16  1  0
 16 17  1  0
 17 18  1  0
 17 19  1  0
 17 20  1  0
 16 21  2  0
  9 22  1  0
 22 23  1  0
  4 24  1  0
 24 25  1  0
 25 26  1  0
 25 27  1  0
 27  2  1  0
 23  7  2  0
 21 12  1  0
  1 28  1  0
  1 29  1  0
  1 30  1  0
  2 31  1  0
  3 32  1  0
  3 33  1  0
  8 34  1  0
 10 35  1  0
 10 36  1  0
 13 37  1  0
 14 38  1  0
 15 39  1  0
 21 40  1  0
 24 41  1  0
 24 42  1  0
 25 43  1  0
 26 44  1  0
 26 45  1  0
 26 46  1  0
M  END
$$$$
