
     RDKit          3D

 42 45  0  0  0  0  0  0  0  0999 V2000
   -0.8700   -0.8288   -0.1936 O   0  0  0  0  0  0  0  0  0  0  0  0
   -1.2478   -0.5564    0.9371 C   0  0  0  0  0  0  0  0  0  0  0  0
   -0.4761    0.2455    1.9298 C   0  0  0  0  0  0  0  0  0  0  0  0
    0.7256    0.8296    1.8256 C   0  0  0  0  0  0  0  0  0  0  0  0
    1.5623    0.8615    0.6790 C   0  0  0  0  0  0  0  0  0  0  0  0
    1.2866    1.0526   -0.6683 C   0  0  0  0  0  0  0  0  0  0  0  0
    2.5126    1.0346   -1.3763 C   0  0  0  0  0  0  0  0  0  0  0  0
    3.5022    0.8647   -0.4361 C   0  0  0  0  0  0  0  0  0  0  0  0
    4.9589    0.7592   -0.4669 C   0  0  0  0  0  0  0  0  0  0  0  0
    5.5830   -0.1594    0.3998 C   0  0  0  0  0  0  0  0  0  0  0  0
    6.9705   -0.3246    0.4102 C   0  0  0  0  0  0  0  0  0  0  0  0
    7.7649    0.4290   -0.4463 C   0  0  0  0  0  0  0  0  0  0  0  0
    7.1709    1.3495   -1.3081 C   0  0  0  0  0  0  0  0  0  0  0  0
    5.7786    1.5180   -1.3209 C   0  0  0  0  0  0  0  0  0  0  0  0
    5.1590    2.7229   -2.3994 Cl  0  0  0  0  0  0  0  0  0  0  0  0
    2.9321    0.7674    0.7997 O   0  0  0  0  0  0  0  0  0  0  0  0
   -1.3746    0.3267    3.4103 S   0  0  0  0  0  0  0  0  0  0  0  0
   -2.7271   -0.5959    2.7718 C   0  0  0  0  0  0  0  0  0  0  0  0
   -4.0683   -0.9409    3.7028 S   0  0  0  0  0  0  0  0  0  0  0  0
   -2.4575   -0.9693    1.4738 N   0  0  0  0  0  0  0  0  0  0  0  0
   -3.3815   -1.7062    0.6046 C   0  0  0  0  0  0  0  0  0  0  0  0
   -4.0924   -0.7784   -0.3889 C   0  0  0  0  0  0  0  0  0  0  0  0
   -5.0385   -1.5205   -1.3194 C   0  0  0  0  0  0  0  0  0  0  0  0
   -6.0187   -0.4345   -1.6854 C   0  0  0  0  0  0  0  0  0  0  0  0
   -6.1555    0.3170   -0.3787 C   0  0  0  0  0  0  0  0  0  0  0  0
   -4.9017    0.1891    0.3083 O   0  0  0  0  0  0  0  0  0  0  0  0
    1.1508    1.3157    2.7013 H   0  0  0  0  0  0  0  0  0  0  0  0
    0.3048    1.1897   -1.1005 H   0  0  0  0  0  0  0  0  0  0  0  0
    2.6471    1.1342   -2.4440 H   0  0  0  0  0  0  0  0  0  0  0  0
    4.9797   -0.7643    1.0756 H   0  0  0  0  0  0  0  0  0  0  0  0
    7.4258   -1.0427    1.0880 H   0  0  0  0  0  0  0  0  0  0  0  0
    8.8449    0.3051   -0.4408 H   0  0  0  0  0  0  0  0  0  0  0  0
    7.8003    1.9425   -1.9678 H   0  0  0  0  0  0  0  0  0  0  0  0
   -4.1174   -2.2391    1.2134 H   0  0  0  0  0  0  0  0  0  0  0  0
   -2.8059   -2.4588    0.0523 H   0  0  0  0  0  0  0  0  0  0  0  0
   -3.3635   -0.2094   -0.9786 H   0  0  0  0  0  0  0  0  0  0  0  0
   -4.5290   -1.9552   -2.1838 H   0  0  0  0  0  0  0  0  0  0  0  0
   -5.5626   -2.3246   -0.7888 H   0  0  0  0  0  0  0  0  0  0  0  0
   -5.5810    0.2192   -2.4492 H   0  0  0  0  0  0  0  0  0  0  0  0
   -6.9728   -0.8111   -2.0631 H   0  0  0  0  0  0  0  0  0  0  0  0
   -6.3897    1.3751   -0.5246 H   0  0  0  0  0  0  0  0  0  0  0  0
   -6.9288   -0.1285    0.2559 H   0  0  0  0  0  0  0  0  0  0  0  0
  1  2  2  0
  2  3  1  0
  3  4  2  3
  4  5  1  0
  5  6  2  0
  6  7  1  0
  7  8  2  0
  8  9  1  0
  9 10  2  0
 10 11  1  0
 11 12  2  0
 12 13  1  0
 13 14  2  0
 14 15  1  0
  8 16  1  0
  3 17  1  0
 17 18  1  0
 18 19  2  0
 18 20  1  0
 20 21  1  0
 21 22  1  0
 22 23  1  0
 23 24  1  0
 24 25  1  0
 25 26  1  0
 20  2  1  0
 26 22  1  0
 16  5  1  0
 14  9  1  0
  4 27  1  0
  6 28  1  0
  7 29  1  0
 10 30  1  0
 11 31  1  0
 12 32  1  0
 13 33  1  0
 21 34  1  0
 21 35  1  0
 22 36  1  0
 23 37  1  0
 23 38  1  0
 24 39  1  0
 24 40  1  0
 25 41  1  0
 25 42  1  0
M  END
$$$$
