
     RDKit          3D

 55 57  0  0  0  0  0  0  0  0999 V2000
    0.1370   -0.4682   -2.4648 O   0  0  0  0  0  0  0  0  0  0  0  0
    0.2434   -0.2449   -1.2641 C   0  0  0  0  0  0  0  0  0  0  0  0
   -0.6062   -0.7944   -0.3245 N   0  0  0  0  0  0  0  0  0  0  0  0
   -1.7164   -1.6426   -0.7126 C   0  0  0  0  0  0  0  0  0  0  0  0
   -2.9332   -0.8459   -1.1862 C   0  0  0  0  0  0  0  0  0  0  0  0
   -3.5463    0.0082   -0.0703 C   0  0  0  0  0  0  0  0  0  0  0  0
   -4.7694    0.7975   -0.5423 C   0  0  0  0  0  0  0  0  0  0  0  0
   -5.3648    1.6726    0.5587 C   0  0  0  0  0  0  0  0  0  0  0  0
   -6.7326    2.0324    0.0010 C   0  0  0  0  0  0  0  0  0  0  0  0
   -7.2079    0.7655   -0.7037 C   0  0  0  0  0  0  0  0  0  0  0  0
   -5.9545   -0.0711   -0.9746 C   0  0  0  0  0  0  0  0  0  0  0  0
    1.2972    0.6893   -0.6749 C   0  0  0  0  0  0  0  0  0  0  0  0
    2.0997    1.4444   -1.7289 C   0  0  0  0  0  0  0  0  0  0  0  0
    3.0600    0.5393   -2.4818 C   0  0  0  0  0  0  0  0  0  0  0  0
    3.8668   -0.4075   -1.6178 C   0  0  0  0  0  0  0  0  0  0  0  0
    4.9384   -0.8526   -2.0333 O   0  0  0  0  0  0  0  0  0  0  0  0
    3.2998   -0.8138   -0.4180 N   0  0  0  0  0  0  0  0  0  0  0  0
    4.0232   -1.7999    0.3863 C   0  0  0  0  0  0  0  0  0  0  0  0
    4.8399   -1.1770    1.4975 C   0  0  0  0  0  0  0  0  0  0  0  0
    6.0273   -0.4884    1.2061 C   0  0  0  0  0  0  0  0  0  0  0  0
    6.7767    0.0995    2.2277 C   0  0  0  0  0  0  0  0  0  0  0  0
    6.3436   -0.0004    3.5474 C   0  0  0  0  0  0  0  0  0  0  0  0
    7.2654    0.7241    4.8073 Cl  0  0  0  0  0  0  0  0  0  0  0  0
    5.1666   -0.6802    3.8545 C   0  0  0  0  0  0  0  0  0  0  0  0
    4.4168   -1.2669    2.8323 C   0  0  0  0  0  0  0  0  0  0  0  0
    2.2593   -0.0409    0.2538 C   0  0  0  0  0  0  0  0  0  0  0  0
   -0.6116   -0.4201    0.6144 H   0  0  0  0  0  0  0  0  0  0  0  0
   -1.9732   -2.2599    0.1549 H   0  0  0  0  0  0  0  0  0  0  0  0
   -1.3819   -2.3102   -1.5147 H   0  0  0  0  0  0  0  0  0  0  0  0
   -2.6557   -0.2011   -2.0288 H   0  0  0  0  0  0  0  0  0  0  0  0
   -3.6804   -1.5566   -1.5574 H   0  0  0  0  0  0  0  0  0  0  0  0
   -2.7975    0.7165    0.3042 H   0  0  0  0  0  0  0  0  0  0  0  0
   -3.8196   -0.6372    0.7738 H   0  0  0  0  0  0  0  0  0  0  0  0
   -4.4784    1.4413   -1.3839 H   0  0  0  0  0  0  0  0  0  0  0  0
   -4.7575    2.5617    0.7565 H   0  0  0  0  0  0  0  0  0  0  0  0
   -5.4729    1.1119    1.4953 H   0  0  0  0  0  0  0  0  0  0  0  0
   -7.4272    2.3597    0.7800 H   0  0  0  0  0  0  0  0  0  0  0  0
   -6.6381    2.8471   -0.7274 H   0  0  0  0  0  0  0  0  0  0  0  0
   -7.9000    0.2044   -0.0627 H   0  0  0  0  0  0  0  0  0  0  0  0
   -7.7432    1.0071   -1.6313 H   0  0  0  0  0  0  0  0  0  0  0  0
   -5.9986   -1.0026   -0.3938 H   0  0  0  0  0  0  0  0  0  0  0  0
   -5.8817   -0.3498   -2.0320 H   0  0  0  0  0  0  0  0  0  0  0  0
    0.7376    1.4296   -0.0862 H   0  0  0  0  0  0  0  0  0  0  0  0
    2.6768    2.2352   -1.2318 H   0  0  0  0  0  0  0  0  0  0  0  0
    1.4323    1.9435   -2.4415 H   0  0  0  0  0  0  0  0  0  0  0  0
    2.5228   -0.0726   -3.2143 H   0  0  0  0  0  0  0  0  0  0  0  0
    3.7636    1.1666   -3.0424 H   0  0  0  0  0  0  0  0  0  0  0  0
    3.2799   -2.4929    0.8006 H   0  0  0  0  0  0  0  0  0  0  0  0
    4.6823   -2.4086   -0.2447 H   0  0  0  0  0  0  0  0  0  0  0  0
    6.3751   -0.4090    0.1770 H   0  0  0  0  0  0  0  0  0  0  0  0
    7.6930    0.6303    1.9857 H   0  0  0  0  0  0  0  0  0  0  0  0
    4.8313   -0.7606    4.8847 H   0  0  0  0  0  0  0  0  0  0  0  0
    3.5023   -1.7989    3.0861 H   0  0  0  0  0  0  0  0  0  0  0  0
    2.7726    0.7014    0.8781 H   0  0  0  0  0  0  0  0  0  0  0  0
    1.7182   -0.7155    0.9268 H   0  0  0  0  0  0  0  0  0  0  0  0
  1  2  2  0
  2  3  1  0
  3  4  1  0
  4  5  1  0
  5  6  1  0
  6  7  1  0
  7  8  1  0
  8  9  1  0
  9 10  1  0
 10 11  1  0
  2 12  1  0
 12 13  1  0
 13 14  1  0
 14 15  1  0
 15 16  2  0
 15 17  1  0
 17 18  1  0
 18 19  1  0
 19 20  2  0
 20 21  1  0
 21 22  2  0
 22 23  1  0
 22 24  1  0
 24 25  2  0
 17 26  1  0
 11  7  1  0
 26 12  1  0
 25 19  1  0
  3 27  1  0
  4 28  1  0
  4 29  1  0
  5 30  1  0
  5 31  1  0
  6 32  1  0
  6 33  1  0
  7 34  1  0
  8 35  1  0
  8 36  1  0
  9 37  1  0
  9 38  1  0
 10 39  1  0
 10 40  1  0
 11 41  1  0
 11 42  1  0
 12 43  1  0
 13 44  1  0
 13 45  1  0
 14 46  1  0
 14 47  1  0
 18 48  1  0
 18 49  1  0
 20 50  1  0
 21 51  1  0
 24 52  1  0
 25 53  1  0
 26 54  1  0
 26 55  1  0
M  END
$$$$
