
     RDKit          3D

 57 62  0  0  0  0  0  0  0  0999 V2000
    7.3899   -0.0098    0.4566 C   0  0  0  0  0  0  0  0  0  0  0  0
    6.1361    0.3721    1.0088 O   0  0  0  0  0  0  0  0  0  0  0  0
    5.0239    0.1271    0.2551 C   0  0  0  0  0  0  0  0  0  0  0  0
    4.9962   -0.4817   -0.9914 C   0  0  0  0  0  0  0  0  0  0  0  0
    3.7748   -0.6720   -1.6453 C   0  0  0  0  0  0  0  0  0  0  0  0
    2.5556   -0.2774   -1.0642 C   0  0  0  0  0  0  0  0  0  0  0  0
    2.5823    0.3739    0.1739 C   0  0  0  0  0  0  0  0  0  0  0  0
    3.8232    0.5579    0.8214 C   0  0  0  0  0  0  0  0  0  0  0  0
    1.4224    1.0393    0.8209 C   0  0  0  0  0  0  0  0  0  0  0  0
    1.6488    1.9787    1.5848 O   0  0  0  0  0  0  0  0  0  0  0  0
    0.1313    0.6454    0.5438 N   0  0  0  0  0  0  0  0  0  0  0  0
   -0.9965    1.4399    1.0416 C   0  0  0  0  0  0  0  0  0  0  0  0
   -1.4431    2.5119    0.0663 C   0  0  0  0  0  0  0  0  0  0  0  0
   -0.5376    3.4631   -0.4359 C   0  0  0  0  0  0  0  0  0  0  0  0
   -0.9554    4.4326   -1.3492 C   0  0  0  0  0  0  0  0  0  0  0  0
    0.1769    5.5738   -1.9631 Cl  0  0  0  0  0  0  0  0  0  0  0  0
   -2.2802    4.4813   -1.7701 C   0  0  0  0  0  0  0  0  0  0  0  0
   -3.1946    3.5615   -1.2612 C   0  0  0  0  0  0  0  0  0  0  0  0
   -2.7828    2.5990   -0.3361 C   0  0  0  0  0  0  0  0  0  0  0  0
   -3.7610    1.7460    0.0969 O   0  0  0  0  0  0  0  0  0  0  0  0
   -3.4528    1.0634    1.3107 C   0  0  0  0  0  0  0  0  0  0  0  0
   -2.0864    0.4025    1.2891 C   0  0  0  0  0  0  0  0  0  0  0  0
   -1.8707   -0.6068    0.1347 C   0  0  0  0  0  0  0  0  0  0  0  0
   -2.6207   -1.9245    0.2813 C   0  0  0  0  0  0  0  0  0  0  0  0
   -3.1166   -2.5522   -0.8737 C   0  0  0  0  0  0  0  0  0  0  0  0
   -3.8094   -3.7623   -0.7987 C   0  0  0  0  0  0  0  0  0  0  0  0
   -4.0196   -4.3692    0.4349 C   0  0  0  0  0  0  0  0  0  0  0  0
   -3.5359   -3.7656    1.5916 C   0  0  0  0  0  0  0  0  0  0  0  0
   -2.8423   -2.5540    1.5165 C   0  0  0  0  0  0  0  0  0  0  0  0
   -0.3006   -0.6674    0.0177 C   0  0  0  0  0  0  0  0  0  0  0  0
    0.2895   -1.8359    0.8295 C   0  0  0  0  0  0  0  0  0  0  0  0
    0.1166   -0.7558   -1.4614 C   0  0  0  0  0  0  0  0  0  0  0  0
   -0.6575   -1.1102   -2.3556 O   0  0  0  0  0  0  0  0  0  0  0  0
    1.4209   -0.5915   -1.8241 N   0  0  0  0  0  0  0  0  0  0  0  0
    7.5912    0.5286   -0.4754 H   0  0  0  0  0  0  0  0  0  0  0  0
    8.1689    0.2639    1.1746 H   0  0  0  0  0  0  0  0  0  0  0  0
    7.4405   -1.0933    0.3064 H   0  0  0  0  0  0  0  0  0  0  0  0
    5.9006   -0.8242   -1.4838 H   0  0  0  0  0  0  0  0  0  0  0  0
    3.7900   -1.1653   -2.6161 H   0  0  0  0  0  0  0  0  0  0  0  0
    3.8623    1.0724    1.7819 H   0  0  0  0  0  0  0  0  0  0  0  0
   -0.7348    1.9347    1.9854 H   0  0  0  0  0  0  0  0  0  0  0  0
    0.5014    3.4555   -0.1162 H   0  0  0  0  0  0  0  0  0  0  0  0
   -2.6074    5.2306   -2.4852 H   0  0  0  0  0  0  0  0  0  0  0  0
   -4.2334    3.5957   -1.5798 H   0  0  0  0  0  0  0  0  0  0  0  0
   -4.2347    0.3124    1.4660 H   0  0  0  0  0  0  0  0  0  0  0  0
   -3.5299    1.7745    2.1434 H   0  0  0  0  0  0  0  0  0  0  0  0
   -1.8947   -0.0716    2.2589 H   0  0  0  0  0  0  0  0  0  0  0  0
   -2.2659   -0.1370   -0.7774 H   0  0  0  0  0  0  0  0  0  0  0  0
   -2.9695   -2.0987   -1.8535 H   0  0  0  0  0  0  0  0  0  0  0  0
   -4.1842   -4.2272   -1.7069 H   0  0  0  0  0  0  0  0  0  0  0  0
   -4.5591   -5.3105    0.4941 H   0  0  0  0  0  0  0  0  0  0  0  0
   -3.6968   -4.2395    2.5566 H   0  0  0  0  0  0  0  0  0  0  0  0
   -2.4740   -2.1277    2.4450 H   0  0  0  0  0  0  0  0  0  0  0  0
    0.0052   -1.7695    1.8852 H   0  0  0  0  0  0  0  0  0  0  0  0
    1.3807   -1.8745    0.8084 H   0  0  0  0  0  0  0  0  0  0  0  0
   -0.0434   -2.8018    0.4340 H   0  0  0  0  0  0  0  0  0  0  0  0
    1.5623   -0.8609   -2.7917 H   0  0  0  0  0  0  0  0  0  0  0  0
  1  2  1  0
  2  3  1  0
  3  4  2  0
  4  5  1  0
  5  6  2  0
  6  7  1  0
  7  8  2  0
  7  9  1  0
  9 10  2  0
  9 11  1  0
 11 12  1  0
 12 13  1  0
 13 14  2  0
 14 15  1  0
 15 16  1  0
 15 17  2  0
 17 18  1  0
 18 19  2  0
 19 20  1  0
 20 21  1  0
 21 22  1  0
 22 23  1  0
 23 24  1  0
 24 25  2  0
 25 26  1  0
 26 27  2  0
 27 28  1  0
 28 29  2  0
 23 30  1  0
 30 31  1  0
 30 32  1  0
 32 33  2  0
 32 34  1  0
  8  3  1  0
 30 11  1  0
 34  6  1  0
 22 12  1  0
 29 24  1  0
 19 13  1  0
  1 35  1  0
  1 36  1  0
  1 37  1  0
  4 38  1  0
  5 39  1  0
  8 40  1  0
 12 41  1  0
 14 42  1  0
 17 43  1  0
 18 44  1  0
 21 45  1  0
 21 46  1  0
 22 47  1  0
 23 48  1  0
 25 49  1  0
 26 50  1  0
 27 51  1  0
 28 52  1  0
 29 53  1  0
 31 54  1  0
 31 55  1  0
 31 56  1  0
 34 57  1  0
M  END
$$$$
