
     RDKit          3D

 26 27  0  0  0  0  0  0  0  0999 V2000
    4.4420    1.6092   -1.1478 C   0  0  0  0  0  0  0  0  0  0  0  0
    3.4719    0.5421   -0.8537 C   0  0  0  0  0  0  0  0  0  0  0  0
    2.8189   -0.2518   -1.6735 N   0  0  0  0  0  0  0  0  0  0  0  0
    2.0444   -1.0689   -0.8774 N   0  0  0  0  0  0  0  0  0  0  0  0
    2.2666   -0.7096    0.3713 C   0  0  0  0  0  0  0  0  0  0  0  0
    1.5339   -1.4324    1.7678 S   0  0  0  0  0  0  0  0  0  0  0  0
    0.0602   -2.1934    1.0329 C   0  0  0  0  0  0  0  0  0  0  0  0
   -1.0460   -1.1954    0.7766 C   0  0  0  0  0  0  0  0  0  0  0  0
   -1.8507   -0.7384    1.8335 C   0  0  0  0  0  0  0  0  0  0  0  0
   -2.8656    0.1942    1.6045 C   0  0  0  0  0  0  0  0  0  0  0  0
   -3.0784    0.6778    0.3078 C   0  0  0  0  0  0  0  0  0  0  0  0
   -4.1416    1.6599    0.0629 N   0  0  0  0  0  4  0  0  0  0  0  0
   -4.8221    2.0270    1.0318 O   0  0  0  0  0  0  0  0  0  0  0  0
   -4.2979    2.0650   -1.0980 O   0  0  0  0  0  1  0  0  0  0  0  0
   -2.2842    0.2342   -0.7560 C   0  0  0  0  0  0  0  0  0  0  0  0
   -1.2724   -0.6993   -0.5172 C   0  0  0  0  0  0  0  0  0  0  0  0
    3.1783    0.3106    0.4611 O   0  0  0  0  0  0  0  0  0  0  0  0
    4.0818    2.5702   -0.7690 H   0  0  0  0  0  0  0  0  0  0  0  0
    4.5983    1.7034   -2.2264 H   0  0  0  0  0  0  0  0  0  0  0  0
    5.4065    1.3905   -0.6800 H   0  0  0  0  0  0  0  0  0  0  0  0
   -0.3101   -2.9495    1.7356 H   0  0  0  0  0  0  0  0  0  0  0  0
    0.3158   -2.7429    0.1198 H   0  0  0  0  0  0  0  0  0  0  0  0
   -1.6871   -1.1052    2.8459 H   0  0  0  0  0  0  0  0  0  0  0  0
   -3.4733    0.5322    2.4414 H   0  0  0  0  0  0  0  0  0  0  0  0
   -2.4344    0.6031   -1.7687 H   0  0  0  0  0  0  0  0  0  0  0  0
   -0.6551   -1.0330   -1.3514 H   0  0  0  0  0  0  0  0  0  0  0  0
  1  2  1  0
  2  3  2  0
  3  4  1  0
  4  5  2  0
  5  6  1  0
  6  7  1  0
  7  8  1  0
  8  9  2  0
  9 10  1  0
 10 11  2  0
 11 12  1  0
 12 13  2  0
 12 14  1  0
 11 15  1  0
 15 16  2  0
  5 17  1  0
 17  2  1  0
 16  8  1  0
  1 18  1  0
  1 19  1  0
  1 20  1  0
  7 21  1  0
  7 22  1  0
  9 23  1  0
 10 24  1  0
 15 25  1  0
 16 26  1  0
M  CHG  2  12   1  14  -1
M  END
$$$$
