
     RDKit          3D

 54 59  0  0  0  0  0  0  0  0999 V2000
    5.1438   -1.9954   -1.3844 C   0  0  0  0  0  0  0  0  0  0  0  0
    5.3224   -0.6186   -0.8050 C   0  0  0  0  0  0  0  0  0  0  0  0
    6.1715    0.2981   -1.4440 C   0  0  0  0  0  0  0  0  0  0  0  0
    6.3463    1.5794   -0.9265 C   0  0  0  0  0  0  0  0  0  0  0  0
    5.6740    1.9544    0.2322 C   0  0  0  0  0  0  0  0  0  0  0  0
    4.8258    1.0503    0.8779 C   0  0  0  0  0  0  0  0  0  0  0  0
    4.6429   -0.2382    0.3683 C   0  0  0  0  0  0  0  0  0  0  0  0
    3.8415   -1.2027    0.9184 O   0  0  0  0  0  0  0  0  0  0  0  0
    3.0795   -0.8961    2.0933 C   0  0  0  0  0  0  0  0  0  0  0  0
    1.8131   -0.1516    1.8114 C   0  0  0  0  0  0  0  0  0  0  0  0
    0.7736   -0.7109    1.0995 N   0  0  0  0  0  0  0  0  0  0  0  0
   -0.1242    0.2500    1.0448 C   0  0  0  0  0  0  0  0  0  0  0  0
   -1.4283    0.3749    0.4606 C   0  0  0  0  0  0  0  0  0  0  0  0
   -2.0696    1.5591    0.7060 C   0  0  0  0  0  0  0  0  0  0  0  0
   -1.5351    2.6252    1.4281 N   0  0  0  0  0  0  0  0  0  0  0  0
   -0.3434    2.4922    1.9236 C   0  0  0  0  0  0  0  0  0  0  0  0
    0.3557    1.3216    1.7395 N   0  0  0  0  0  0  0  0  0  0  0  0
    1.5814    1.0970    2.2510 N   0  0  0  0  0  0  0  0  0  0  0  0
   -3.4602    1.7590    0.2090 C   0  0  0  0  0  0  0  0  0  0  0  0
   -4.2804    2.7757    0.7261 C   0  0  0  0  0  0  0  0  0  0  0  0
   -5.5792    2.9680    0.2490 C   0  0  0  0  0  0  0  0  0  0  0  0
   -6.0764    2.1502   -0.7602 C   0  0  0  0  0  0  0  0  0  0  0  0
   -5.2765    1.1403   -1.2897 C   0  0  0  0  0  0  0  0  0  0  0  0
   -3.9768    0.9360   -0.8012 C   0  0  0  0  0  0  0  0  0  0  0  0
   -3.0985   -0.1257   -1.3983 C   0  0  0  0  0  0  0  0  0  0  0  0
   -2.1148   -0.7392   -0.3617 C   0  0  0  0  0  0  0  0  0  0  0  0
   -1.1671   -1.6976   -1.1253 C   0  0  0  0  0  0  0  0  0  0  0  0
   -1.9973   -2.9542   -1.3821 C   0  0  0  0  0  0  0  0  0  0  0  0
   -3.0115   -3.0199   -0.2420 C   0  0  0  0  0  0  0  0  0  0  0  0
   -2.8268   -1.7403    0.5756 C   0  0  0  0  0  0  0  0  0  0  0  0
    4.0950   -2.1604   -1.6521 H   0  0  0  0  0  0  0  0  0  0  0  0
    5.7431   -2.1313   -2.2909 H   0  0  0  0  0  0  0  0  0  0  0  0
    5.4595   -2.7549   -0.6616 H   0  0  0  0  0  0  0  0  0  0  0  0
    6.7008    0.0168   -2.3515 H   0  0  0  0  0  0  0  0  0  0  0  0
    7.0049    2.2839   -1.4276 H   0  0  0  0  0  0  0  0  0  0  0  0
    5.8068    2.9544    0.6370 H   0  0  0  0  0  0  0  0  0  0  0  0
    4.3232    1.3946    1.7751 H   0  0  0  0  0  0  0  0  0  0  0  0
    3.6969   -0.4033    2.8535 H   0  0  0  0  0  0  0  0  0  0  0  0
    2.7998   -1.8623    2.5309 H   0  0  0  0  0  0  0  0  0  0  0  0
    0.1276    3.3025    2.5012 H   0  0  0  0  0  0  0  0  0  0  0  0
   -3.9108    3.4321    1.5112 H   0  0  0  0  0  0  0  0  0  0  0  0
   -6.1963    3.7605    0.6637 H   0  0  0  0  0  0  0  0  0  0  0  0
   -7.0838    2.3027   -1.1382 H   0  0  0  0  0  0  0  0  0  0  0  0
   -5.6701    0.5134   -2.0865 H   0  0  0  0  0  0  0  0  0  0  0  0
   -2.5346    0.3393   -2.2188 H   0  0  0  0  0  0  0  0  0  0  0  0
   -3.7288   -0.9008   -1.8498 H   0  0  0  0  0  0  0  0  0  0  0  0
   -0.3047   -2.0010   -0.5275 H   0  0  0  0  0  0  0  0  0  0  0  0
   -0.7805   -1.2681   -2.0556 H   0  0  0  0  0  0  0  0  0  0  0  0
   -1.3680   -3.8494   -1.4177 H   0  0  0  0  0  0  0  0  0  0  0  0
   -2.5153   -2.8848   -2.3453 H   0  0  0  0  0  0  0  0  0  0  0  0
   -2.8575   -3.9064    0.3823 H   0  0  0  0  0  0  0  0  0  0  0  0
   -4.0284   -3.0798   -0.6457 H   0  0  0  0  0  0  0  0  0  0  0  0
   -2.1999   -1.9673    1.4481 H   0  0  0  0  0  0  0  0  0  0  0  0
   -3.7847   -1.3712    0.9572 H   0  0  0  0  0  0  0  0  0  0  0  0
  1  2  1  0
  2  3  2  0
  3  4  1  0
  4  5  2  0
  5  6  1  0
  6  7  2  0
  7  8  1  0
  8  9  1  0
  9 10  1  0
 10 11  1  0
 11 12  2  0
 12 13  1  0
 13 14  2  0
 14 15  1  0
 15 16  2  0
 16 17  1  0
 17 18  1  0
 14 19  1  0
 19 20  2  0
 20 21  1  0
 21 22  2  0
 22 23  1  0
 23 24  2  0
 24 25  1  0
 25 26  1  0
 26 27  1  0
 27 28  1  0
 28 29  1  0
 29 30  1  0
  7  2  1  0
 18 10  2  0
 24 19  1  0
 30 26  1  0
 17 12  1  0
 26 13  1  0
  1 31  1  0
  1 32  1  0
  1 33  1  0
  3 34  1  0
  4 35  1  0
  5 36  1  0
  6 37  1  0
  9 38  1  0
  9 39  1  0
 16 40  1  0
 20 41  1  0
 21 42  1  0
 22 43  1  0
 23 44  1  0
 25 45  1  0
 25 46  1  0
 27 47  1  0
 27 48  1  0
 28 49  1  0
 28 50  1  0
 29 51  1  0
 29 52  1  0
 30 53  1  0
 30 54  1  0
M  END
$$$$
