
     RDKit          3D

 40 42  0  0  0  0  0  0  0  0999 V2000
   -2.0728   -0.5401    1.7043 O   0  0  0  0  0  0  0  0  0  0  0  0
   -1.6611   -0.0398    0.6571 C   0  0  0  0  0  0  0  0  0  0  0  0
   -2.6023    0.3966   -0.4634 C   0  0  0  0  0  0  0  0  0  0  0  0
   -4.0145   -0.1280   -0.3298 C   0  0  0  0  0  0  0  0  0  0  0  0
   -4.3717   -1.3591   -0.8992 C   0  0  0  0  0  0  0  0  0  0  0  0
   -5.6735   -1.8480   -0.7694 C   0  0  0  0  0  0  0  0  0  0  0  0
   -6.6216   -1.1107   -0.0636 C   0  0  0  0  0  0  0  0  0  0  0  0
   -8.3836   -1.7729    0.1130 Br  0  0  0  0  0  0  0  0  0  0  0  0
   -6.2798    0.1087    0.5167 C   0  0  0  0  0  0  0  0  0  0  0  0
   -4.9780    0.5973    0.3861 C   0  0  0  0  0  0  0  0  0  0  0  0
   -0.3044    0.1737    0.4415 N   0  0  0  0  0  0  0  0  0  0  0  0
    0.6602   -0.2450    1.4617 C   0  0  0  0  0  0  0  0  0  0  0  0
    1.9669   -0.8010    0.8630 C   0  0  0  0  0  0  0  0  0  0  0  0
    2.5313    0.0705   -0.1864 N   0  0  0  0  0  0  0  0  0  0  0  0
    3.9139    0.2576   -0.1927 C   0  0  0  0  0  0  0  0  0  0  0  0
    4.7815   -0.8178    0.0135 C   0  0  0  0  0  0  0  0  0  0  0  0
    6.1622   -0.6213   -0.0106 C   0  0  0  0  0  0  0  0  0  0  0  0
    6.6595    0.6487   -0.2502 C   0  0  0  0  0  0  0  0  0  0  0  0
    5.7477    1.6637   -0.4628 C   0  0  0  0  0  0  0  0  0  0  0  0
    4.4062    1.4914   -0.4440 N   0  0  0  0  0  0  0  0  0  0  0  0
    1.7343    1.2456   -0.5666 C   0  0  0  0  0  0  0  0  0  0  0  0
    0.2553    0.8528   -0.7346 C   0  0  0  0  0  0  0  0  0  0  0  0
   -2.2032    0.0628   -1.4280 H   0  0  0  0  0  0  0  0  0  0  0  0
   -2.6270    1.4928   -0.4840 H   0  0  0  0  0  0  0  0  0  0  0  0
   -3.6367   -1.9491   -1.4423 H   0  0  0  0  0  0  0  0  0  0  0  0
   -5.9341   -2.8039   -1.2152 H   0  0  0  0  0  0  0  0  0  0  0  0
   -7.0132    0.6814    1.0775 H   0  0  0  0  0  0  0  0  0  0  0  0
   -4.7172    1.5427    0.8571 H   0  0  0  0  0  0  0  0  0  0  0  0
    0.8773    0.6426    2.0688 H   0  0  0  0  0  0  0  0  0  0  0  0
    0.2200   -0.9929    2.1297 H   0  0  0  0  0  0  0  0  0  0  0  0
    1.7644   -1.7796    0.4113 H   0  0  0  0  0  0  0  0  0  0  0  0
    2.6692   -0.9555    1.6916 H   0  0  0  0  0  0  0  0  0  0  0  0
    4.3935   -1.8182    0.1712 H   0  0  0  0  0  0  0  0  0  0  0  0
    6.8364   -1.4575    0.1479 H   0  0  0  0  0  0  0  0  0  0  0  0
    7.7254    0.8417   -0.2792 H   0  0  0  0  0  0  0  0  0  0  0  0
    6.0776    2.6788   -0.6631 H   0  0  0  0  0  0  0  0  0  0  0  0
    1.8212    2.0264    0.2005 H   0  0  0  0  0  0  0  0  0  0  0  0
    2.0815    1.6614   -1.5207 H   0  0  0  0  0  0  0  0  0  0  0  0
    0.1512    0.1599   -1.5780 H   0  0  0  0  0  0  0  0  0  0  0  0
   -0.3419    1.7435   -0.9541 H   0  0  0  0  0  0  0  0  0  0  0  0
  1  2  2  0
  2  3  1  0
  3  4  1  0
  4  5  2  0
  5  6  1  0
  6  7  2  0
  7  8  1  0
  7  9  1  0
  9 10  2  0
  2 11  1  0
 11 12  1  0
 12 13  1  0
 13 14  1  0
 14 15  1  0
 15 16  2  0
 16 17  1  0
 17 18  2  0
 18 19  1  0
 19 20  2  0
 14 21  1  0
 21 22  1  0
 10  4  1  0
 22 11  1  0
 20 15  1  0
  3 23  1  0
  3 24  1  0
  5 25  1  0
  6 26  1  0
  9 27  1  0
 10 28  1  0
 12 29  1  0
 12 30  1  0
 13 31  1  0
 13 32  1  0
 16 33  1  0
 17 34  1  0
 18 35  1  0
 19 36  1  0
 21 37  1  0
 21 38  1  0
 22 39  1  0
 22 40  1  0
M  END
$$$$
