
     RDKit          3D

 59 63  0  0  0  0  0  0  0  0999 V2000
   -5.2072   -1.6465    3.5381 C   0  0  0  0  0  0  0  0  0  0  0  0
   -4.4366   -0.7027    2.6228 C   0  0  0  0  0  0  0  0  0  0  0  0
   -2.9139   -0.8851    2.7972 C   0  0  0  0  0  0  0  0  0  0  0  0
   -2.1369    0.0281    1.9133 N   0  0  0  0  0  0  0  0  0  0  0  0
   -1.7129   -0.6144    0.7282 C   0  0  0  0  0  0  0  0  0  0  0  0
   -2.5577   -1.4795    0.1239 N   0  0  0  0  0  0  0  0  0  0  0  0
   -2.1784   -2.0345   -1.0414 C   0  0  0  0  0  0  0  0  0  0  0  0
   -3.0327   -2.9175   -1.6890 C   0  0  0  0  0  0  0  0  0  0  0  0
   -2.6827   -3.5065   -2.9051 C   0  0  0  0  0  0  0  0  0  0  0  0
   -1.4550   -3.2069   -3.4817 C   0  0  0  0  0  0  0  0  0  0  0  0
   -0.5895   -2.3222   -2.8381 C   0  0  0  0  0  0  0  0  0  0  0  0
   -0.9300   -1.7322   -1.6263 C   0  0  0  0  0  0  0  0  0  0  0  0
   -0.0693   -0.8881   -1.0280 N   0  0  0  0  0  0  0  0  0  0  0  0
   -0.4565   -0.3379    0.1652 C   0  0  0  0  0  0  0  0  0  0  0  0
    0.5047    0.6148    0.8508 C   0  0  0  0  0  0  0  0  0  0  0  0
    0.5144    1.9204    0.1772 C   0  0  0  0  0  0  0  0  0  0  0  0
    0.4716    2.9558   -0.3512 N   0  0  0  0  0  0  0  0  0  0  0  0
    1.9338    0.0986    0.9787 C   0  0  0  0  0  0  0  0  0  0  0  0
    2.5996    0.3265    1.9934 O   0  0  0  0  0  0  0  0  0  0  0  0
    2.4628   -0.5765   -0.0977 N   0  0  0  0  0  0  0  0  0  0  0  0
    3.8440   -0.9855   -0.1696 C   0  0  0  0  0  0  0  0  0  0  0  0
    4.6780    0.0738   -0.8467 C   0  0  0  0  0  0  0  0  0  0  0  0
    5.2431    1.1231   -0.0801 C   0  0  0  0  0  0  0  0  0  0  0  0
    6.0007    2.1334   -0.6831 C   0  0  0  0  0  0  0  0  0  0  0  0
    6.1693    2.0748   -2.0496 C   0  0  0  0  0  0  0  0  0  0  0  0
    5.6155    1.0667   -2.8070 C   0  0  0  0  0  0  0  0  0  0  0  0
    4.8646    0.0557   -2.2398 C   0  0  0  0  0  0  0  0  0  0  0  0
    5.8962    1.1990   -4.1326 O   0  0  0  0  0  0  0  0  0  0  0  0
    6.6741    2.4163   -4.1224 C   0  0  0  0  0  0  0  0  0  0  0  0
    6.8703    2.9657   -2.8021 O   0  0  0  0  0  0  0  0  0  0  0  0
   -2.9004    1.2614    1.5595 C   0  0  0  0  0  0  0  0  0  0  0  0
   -3.8680    1.6406    2.6992 C   0  0  0  0  0  0  0  0  0  0  0  0
   -4.5829    2.9520    2.4033 C   0  0  0  0  0  0  0  0  0  0  0  0
   -4.8758    0.6369    2.9242 O   0  0  0  0  0  0  0  0  0  0  0  0
   -4.9948   -1.4282    4.5921 H   0  0  0  0  0  0  0  0  0  0  0  0
   -6.2864   -1.5115    3.4033 H   0  0  0  0  0  0  0  0  0  0  0  0
   -4.9550   -2.6915    3.3398 H   0  0  0  0  0  0  0  0  0  0  0  0
   -4.7309   -0.9081    1.5866 H   0  0  0  0  0  0  0  0  0  0  0  0
   -2.6387   -0.6274    3.8298 H   0  0  0  0  0  0  0  0  0  0  0  0
   -2.6181   -1.9346    2.6612 H   0  0  0  0  0  0  0  0  0  0  0  0
   -3.9966   -3.1466   -1.2392 H   0  0  0  0  0  0  0  0  0  0  0  0
   -3.3683   -4.1921   -3.3962 H   0  0  0  0  0  0  0  0  0  0  0  0
   -1.1694   -3.6541   -4.4312 H   0  0  0  0  0  0  0  0  0  0  0  0
    0.3694   -2.0874   -3.2944 H   0  0  0  0  0  0  0  0  0  0  0  0
    0.1845    0.7671    1.8900 H   0  0  0  0  0  0  0  0  0  0  0  0
    1.8695   -0.7170   -0.9139 H   0  0  0  0  0  0  0  0  0  0  0  0
    3.8832   -1.9240   -0.7376 H   0  0  0  0  0  0  0  0  0  0  0  0
    4.2319   -1.1970    0.8353 H   0  0  0  0  0  0  0  0  0  0  0  0
    5.0816    1.1535    0.9986 H   0  0  0  0  0  0  0  0  0  0  0  0
    6.4333    2.9377   -0.0954 H   0  0  0  0  0  0  0  0  0  0  0  0
    4.4348   -0.7217   -2.8645 H   0  0  0  0  0  0  0  0  0  0  0  0
    6.1628    3.1636   -4.7421 H   0  0  0  0  0  0  0  0  0  0  0  0
    7.6567    2.2107   -4.5614 H   0  0  0  0  0  0  0  0  0  0  0  0
   -2.1926    2.0799    1.3951 H   0  0  0  0  0  0  0  0  0  0  0  0
   -3.4748    1.1167    0.6337 H   0  0  0  0  0  0  0  0  0  0  0  0
   -3.3093    1.7528    3.6372 H   0  0  0  0  0  0  0  0  0  0  0  0
   -5.2716    3.2051    3.2171 H   0  0  0  0  0  0  0  0  0  0  0  0
   -5.1860    2.8711    1.4925 H   0  0  0  0  0  0  0  0  0  0  0  0
   -3.8717    3.7754    2.2802 H   0  0  0  0  0  0  0  0  0  0  0  0
  1  2  1  0
  2  3  1  0
  3  4  1  0
  4  5  1  0
  5  6  2  0
  6  7  1  0
  7  8  2  0
  8  9  1  0
  9 10  2  0
 10 11  1  0
 11 12  2  0
 12 13  1  0
 13 14  2  0
 14 15  1  0
 15 16  1  0
 16 17  3  0
 15 18  1  0
 18 19  2  0
 18 20  1  0
 20 21  1  0
 21 22  1  0
 22 23  2  0
 23 24  1  0
 24 25  2  0
 25 26  1  0
 26 27  2  0
 26 28  1  0
 28 29  1  0
 29 30  1  0
  4 31  1  0
 31 32  1  0
 32 33  1  0
 32 34  1  0
 34  2  1  0
 14  5  1  0
 27 22  1  0
 12  7  1  0
 30 25  1  0
  1 35  1  0
  1 36  1  0
  1 37  1  0
  2 38  1  0
  3 39  1  0
  3 40  1  0
  8 41  1  0
  9 42  1  0
 10 43  1  0
 11 44  1  0
 15 45  1  0
 20 46  1  0
 21 47  1  0
 21 48  1  0
 23 49  1  0
 24 50  1  0
 27 51  1  0
 29 52  1  0
 29 53  1  0
 31 54  1  0
 31 55  1  0
 32 56  1  0
 33 57  1  0
 33 58  1  0
 33 59  1  0
M  END
$$$$
