
     RDKit          3D

 60 61  0  0  0  0  0  0  0  0999 V2000
   -7.0949    0.8047   -0.6982 C   0  0  0  0  0  0  0  0  0  0  0  0
   -6.1410    1.8001   -1.0354 O   0  0  0  0  0  0  0  0  0  0  0  0
   -4.8245    1.4265   -1.0698 C   0  0  0  0  0  0  0  0  0  0  0  0
   -4.3281    0.1534   -0.7937 C   0  0  0  0  0  0  0  0  0  0  0  0
   -2.9535   -0.1018   -0.8723 C   0  0  0  0  0  0  0  0  0  0  0  0
   -2.3838   -1.3250   -0.6095 O   0  0  0  0  0  0  0  0  0  0  0  0
   -3.2500   -2.4432   -0.4601 C   0  0  0  0  0  0  0  0  0  0  0  0
   -2.0685    0.9412   -1.2233 C   0  0  0  0  0  0  0  0  0  0  0  0
   -0.6331    0.6775   -1.3145 C   0  0  0  0  0  0  0  0  0  0  0  0
    0.0032    0.7068   -2.4966 N   0  0  0  0  0  0  0  0  0  0  0  0
    1.3192    0.4009   -2.2293 O   0  0  0  0  0  0  0  0  0  0  0  0
    1.4867    0.1819   -0.8936 C   0  0  0  0  0  0  0  0  0  0  0  0
    2.8145   -0.0708   -0.3981 C   0  0  0  0  0  0  0  0  0  0  0  0
    3.1426   -0.0815    0.7806 O   0  0  0  0  0  0  0  0  0  0  0  0
    3.6653   -0.2729   -1.4428 O   0  0  0  0  0  0  0  0  0  0  0  0
    5.0784   -0.5157   -1.2270 C   0  0  0  0  0  0  0  0  0  0  0  0
    5.3049   -1.8161   -0.4496 C   0  0  0  0  0  0  0  0  0  0  0  0
    5.6649   -0.6762   -2.6384 C   0  0  0  0  0  0  0  0  0  0  0  0
    5.7522    0.6833   -0.5509 C   0  0  0  0  0  0  0  0  0  0  0  0
    0.2615    0.3120   -0.2693 C   0  0  0  0  0  0  0  0  0  0  0  0
   -0.0355    0.1321    1.1290 C   0  0  0  0  0  0  0  0  0  0  0  0
   -0.8428    0.8225    1.7326 O   0  0  0  0  0  0  0  0  0  0  0  0
    0.6541   -0.9126    1.6639 O   0  0  0  0  0  0  0  0  0  0  0  0
    0.5367   -1.2430    3.0698 C   0  0  0  0  0  0  0  0  0  0  0  0
    1.0903   -0.1137    3.9435 C   0  0  0  0  0  0  0  0  0  0  0  0
    1.4188   -2.4874    3.2517 C   0  0  0  0  0  0  0  0  0  0  0  0
   -0.9041   -1.6070    3.4504 C   0  0  0  0  0  0  0  0  0  0  0  0
   -2.5677    2.2324   -1.4849 C   0  0  0  0  0  0  0  0  0  0  0  0
   -1.6447    3.2050   -1.7792 O   0  0  0  0  0  0  0  0  0  0  0  0
   -2.1262    4.5112   -2.0664 C   0  0  0  0  0  0  0  0  0  0  0  0
   -3.9446    2.4564   -1.4108 C   0  0  0  0  0  0  0  0  0  0  0  0
   -8.0873    1.2655   -0.7305 H   0  0  0  0  0  0  0  0  0  0  0  0
   -6.9323    0.4342    0.3179 H   0  0  0  0  0  0  0  0  0  0  0  0
   -7.0840   -0.0129   -1.4234 H   0  0  0  0  0  0  0  0  0  0  0  0
   -5.0097   -0.6361   -0.5099 H   0  0  0  0  0  0  0  0  0  0  0  0
   -3.8413   -2.3605    0.4581 H   0  0  0  0  0  0  0  0  0  0  0  0
   -2.6274   -3.3392   -0.3720 H   0  0  0  0  0  0  0  0  0  0  0  0
   -3.8923   -2.5704   -1.3385 H   0  0  0  0  0  0  0  0  0  0  0  0
    6.3633   -2.0964   -0.4434 H   0  0  0  0  0  0  0  0  0  0  0  0
    4.9825   -1.7309    0.5925 H   0  0  0  0  0  0  0  0  0  0  0  0
    4.7294   -2.6377   -0.8902 H   0  0  0  0  0  0  0  0  0  0  0  0
    6.7429   -0.8648   -2.6133 H   0  0  0  0  0  0  0  0  0  0  0  0
    5.4849    0.2229   -3.2390 H   0  0  0  0  0  0  0  0  0  0  0  0
    5.1806   -1.5044   -3.1694 H   0  0  0  0  0  0  0  0  0  0  0  0
    6.8420    0.5736   -0.5405 H   0  0  0  0  0  0  0  0  0  0  0  0
    5.4259    0.8044    0.4864 H   0  0  0  0  0  0  0  0  0  0  0  0
    5.4995    1.6147   -1.0697 H   0  0  0  0  0  0  0  0  0  0  0  0
    2.1126    0.1512    3.6342 H   0  0  0  0  0  0  0  0  0  0  0  0
    0.4942    0.8015    3.8593 H   0  0  0  0  0  0  0  0  0  0  0  0
    1.1069   -0.4020    5.0013 H   0  0  0  0  0  0  0  0  0  0  0  0
    2.4499   -2.2886    2.9314 H   0  0  0  0  0  0  0  0  0  0  0  0
    1.4377   -2.8223    4.2942 H   0  0  0  0  0  0  0  0  0  0  0  0
    1.0562   -3.3137    2.6292 H   0  0  0  0  0  0  0  0  0  0  0  0
   -1.3349   -2.3105    2.7295 H   0  0  0  0  0  0  0  0  0  0  0  0
   -0.9526   -2.0549    4.4489 H   0  0  0  0  0  0  0  0  0  0  0  0
   -1.5540   -0.7290    3.4622 H   0  0  0  0  0  0  0  0  0  0  0  0
   -2.6327    4.9398   -1.1989 H   0  0  0  0  0  0  0  0  0  0  0  0
   -1.2643    5.1490   -2.2929 H   0  0  0  0  0  0  0  0  0  0  0  0
   -2.7749    4.5029   -2.9484 H   0  0  0  0  0  0  0  0  0  0  0  0
   -4.3709    3.4329   -1.6067 H   0  0  0  0  0  0  0  0  0  0  0  0
  1  2  1  0
  2  3  1  0
  3  4  2  0
  4  5  1  0
  5  6  1  0
  6  7  1  0
  5  8  2  0
  8  9  1  0
  9 10  2  0
 10 11  1  0
 11 12  1  0
 12 13  1  0
 13 14  2  0
 13 15  1  0
 15 16  1  0
 16 17  1  0
 16 18  1  0
 16 19  1  0
 12 20  2  0
 20 21  1  0
 21 22  2  0
 21 23  1  0
 23 24  1  0
 24 25  1  0
 24 26  1  0
 24 27  1  0
  8 28  1  0
 28 29  1  0
 29 30  1  0
 28 31  2  0
 31  3  1  0
 20  9  1  0
  1 32  1  0
  1 33  1  0
  1 34  1  0
  4 35  1  0
  7 36  1  0
  7 37  1  0
  7 38  1  0
 17 39  1  0
 17 40  1  0
 17 41  1  0
 18 42  1  0
 18 43  1  0
 18 44  1  0
 19 45  1  0
 19 46  1  0
 19 47  1  0
 25 48  1  0
 25 49  1  0
 25 50  1  0
 26 51  1  0
 26 52  1  0
 26 53  1  0
 27 54  1  0
 27 55  1  0
 27 56  1  0
 30 57  1  0
 30 58  1  0
 30 59  1  0
 31 60  1  0
M  END
$$$$
