
     RDKit          3D

 37 37  0  0  0  0  0  0  0  0999 V2000
    5.1884    1.8518    0.0087 C   0  0  0  0  0  0  0  0  0  0  0  0
    4.1789    0.7749   -0.3589 C   0  0  0  0  0  0  0  0  0  0  0  0
    3.8968   -0.1516    0.8240 C   0  0  0  0  0  0  0  0  0  0  0  0
    2.9776   -1.3259    0.4745 C   0  0  0  0  0  0  0  0  0  0  0  0
    1.5891   -0.9574   -0.0600 C   0  0  0  0  0  0  0  0  0  0  0  0
    0.7559   -0.1356    0.9264 C   0  0  0  0  0  0  0  0  0  0  0  0
   -0.6342    0.2243    0.3927 C   0  0  0  0  0  0  0  0  0  0  0  0
   -1.5557   -0.9869    0.2252 C   0  0  0  0  0  0  0  0  0  0  0  0
   -2.9078   -0.5514   -0.1651 N   0  0  0  0  0  0  0  0  0  0  0  0
   -3.8751   -0.2645    0.7901 C   0  0  0  0  0  0  0  0  0  0  0  0
   -5.1135    0.1636    0.5116 C   0  0  0  0  0  0  0  0  0  0  0  0
   -5.4817    0.3519   -0.9169 C   0  0  0  0  0  0  0  0  0  0  0  0
   -6.6511    0.7559   -1.2950 N   0  0  0  0  0  0  0  0  0  0  0  0
   -4.4383    0.0578   -1.9295 C   0  0  0  0  0  0  0  0  0  0  0  0
   -3.2420   -0.3638   -1.5009 C   0  0  0  0  0  0  0  0  0  0  0  0
    4.8197    2.4693    0.8340 H   0  0  0  0  0  0  0  0  0  0  0  0
    6.1430    1.4088    0.3100 H   0  0  0  0  0  0  0  0  0  0  0  0
    5.3736    2.5060   -0.8490 H   0  0  0  0  0  0  0  0  0  0  0  0
    3.2551    1.2610   -0.6904 H   0  0  0  0  0  0  0  0  0  0  0  0
    4.5649    0.1937   -1.2042 H   0  0  0  0  0  0  0  0  0  0  0  0
    4.8458   -0.5634    1.1904 H   0  0  0  0  0  0  0  0  0  0  0  0
    3.4737    0.4239    1.6553 H   0  0  0  0  0  0  0  0  0  0  0  0
    2.8584   -1.9500    1.3691 H   0  0  0  0  0  0  0  0  0  0  0  0
    3.4782   -1.9542   -0.2730 H   0  0  0  0  0  0  0  0  0  0  0  0
    1.0684   -1.8942   -0.2888 H   0  0  0  0  0  0  0  0  0  0  0  0
    1.6823   -0.4177   -1.0091 H   0  0  0  0  0  0  0  0  0  0  0  0
    1.2755    0.8028    1.1509 H   0  0  0  0  0  0  0  0  0  0  0  0
    0.6574   -0.6791    1.8737 H   0  0  0  0  0  0  0  0  0  0  0  0
   -1.0950    0.9330    1.0927 H   0  0  0  0  0  0  0  0  0  0  0  0
   -0.5366    0.7559   -0.5621 H   0  0  0  0  0  0  0  0  0  0  0  0
   -1.6018   -1.5572    1.1616 H   0  0  0  0  0  0  0  0  0  0  0  0
   -1.1603   -1.6724   -0.5333 H   0  0  0  0  0  0  0  0  0  0  0  0
   -3.5580   -0.4127    1.8184 H   0  0  0  0  0  0  0  0  0  0  0  0
   -5.8427    0.3764    1.2792 H   0  0  0  0  0  0  0  0  0  0  0  0
   -7.2564    0.9162   -0.4853 H   0  0  0  0  0  0  0  0  0  0  0  0
   -4.6842    0.1974   -2.9726 H   0  0  0  0  0  0  0  0  0  0  0  0
   -2.4483   -0.5866   -2.2081 H   0  0  0  0  0  0  0  0  0  0  0  0
  1  2  1  0
  2  3  1  0
  3  4  1  0
  4  5  1  0
  5  6  1  0
  6  7  1  0
  7  8  1  0
  8  9  1  0
  9 10  1  0
 10 11  2  0
 11 12  1  0
 12 13  2  3
 12 14  1  0
 14 15  2  0
 15  9  1  0
  1 16  1  0
  1 17  1  0
  1 18  1  0
  2 19  1  0
  2 20  1  0
  3 21  1  0
  3 22  1  0
  4 23  1  0
  4 24  1  0
  5 25  1  0
  5 26  1  0
  6 27  1  0
  6 28  1  0
  7 29  1  0
  7 30  1  0
  8 31  1  0
  8 32  1  0
 10 33  1  0
 11 34  1  0
 13 35  1  0
 14 36  1  0
 15 37  1  0
M  END
$$$$
