
     RDKit          3D

 68 72  0  0  0  0  0  0  0  0999 V2000
    9.8572    1.2029   -1.7103 C   0  0  0  0  0  0  0  0  0  0  0  0
    9.0761    1.6669   -0.6167 O   0  0  0  0  0  0  0  0  0  0  0  0
    7.7270    1.4676   -0.6964 C   0  0  0  0  0  0  0  0  0  0  0  0
    6.9987    1.9206    0.3993 C   0  0  0  0  0  0  0  0  0  0  0  0
    5.6056    1.7717    0.4461 C   0  0  0  0  0  0  0  0  0  0  0  0
    4.8904    1.1606   -0.5932 C   0  0  0  0  0  0  0  0  0  0  0  0
    3.5157    1.0031   -0.5487 N   0  0  0  0  0  0  0  0  0  0  0  0
    2.8410   -0.0589   -1.3154 C   0  0  0  0  0  0  0  0  0  0  0  0
    1.6099   -0.5937   -0.5461 C   0  0  0  0  0  0  0  0  0  0  0  0
    0.5786    0.4304   -0.2342 N   0  0  0  0  0  0  0  0  0  0  0  0
   -0.1882    0.0490    0.9661 C   0  0  0  0  0  0  0  0  0  0  0  0
   -0.9393   -1.2410    0.7883 C   0  0  0  0  0  0  0  0  0  0  0  0
   -0.6045   -2.3984    1.3419 N   0  0  0  0  0  0  0  0  0  0  0  0
   -1.5485   -3.2789    0.9202 C   0  0  0  0  0  0  0  0  0  0  0  0
   -2.4701   -2.6871    0.1073 C   0  0  0  0  0  0  0  0  0  0  0  0
   -3.5631   -3.4030   -0.4533 C   0  0  0  0  0  0  0  0  0  0  0  0
   -4.4325   -2.9229   -1.1719 O   0  0  0  0  0  0  0  0  0  0  0  0
   -3.5581   -4.7336   -0.0977 N   0  0  0  0  0  0  0  0  0  0  0  0
   -2.6466   -5.3821    0.7155 C   0  0  0  0  0  0  0  0  0  0  0  0
   -2.7890   -6.5867    0.9248 O   0  0  0  0  0  0  0  0  0  0  0  0
   -1.6155   -4.6162    1.2477 N   0  0  0  0  0  0  0  0  0  0  0  0
   -0.6098   -5.2193    2.1000 C   0  0  0  0  0  0  0  0  0  0  0  0
   -2.0776   -1.3791    0.0128 N   0  0  0  0  0  0  0  0  0  0  0  0
   -2.7329   -0.3489   -0.7723 C   0  0  0  0  0  0  0  0  0  0  0  0
   -3.8668    0.3230   -0.0041 C   0  0  0  0  0  0  0  0  0  0  0  0
   -4.5930    1.3412   -0.8830 C   0  0  0  0  0  0  0  0  0  0  0  0
   -5.6863    2.0486   -0.1233 C   0  0  0  0  0  0  0  0  0  0  0  0
   -6.9206    1.4202    0.0914 C   0  0  0  0  0  0  0  0  0  0  0  0
   -7.9269    2.0645    0.8129 C   0  0  0  0  0  0  0  0  0  0  0  0
   -7.7085    3.3413    1.3269 C   0  0  0  0  0  0  0  0  0  0  0  0
   -6.4842    3.9741    1.1206 C   0  0  0  0  0  0  0  0  0  0  0  0
   -5.4761    3.3304    0.4003 C   0  0  0  0  0  0  0  0  0  0  0  0
    1.2032    1.7628   -0.0643 C   0  0  0  0  0  0  0  0  0  0  0  0
    2.6798    1.7555    0.3970 C   0  0  0  0  0  0  0  0  0  0  0  0
    5.6485    0.7243   -1.6918 C   0  0  0  0  0  0  0  0  0  0  0  0
    7.0436    0.8712   -1.7491 C   0  0  0  0  0  0  0  0  0  0  0  0
    9.7586    0.1194   -1.8345 H   0  0  0  0  0  0  0  0  0  0  0  0
   10.9063    1.4173   -1.4868 H   0  0  0  0  0  0  0  0  0  0  0  0
    9.5978    1.7333   -2.6322 H   0  0  0  0  0  0  0  0  0  0  0  0
    7.5155    2.3890    1.2326 H   0  0  0  0  0  0  0  0  0  0  0  0
    5.0966    2.1272    1.3369 H   0  0  0  0  0  0  0  0  0  0  0  0
    3.5084   -0.9118   -1.4869 H   0  0  0  0  0  0  0  0  0  0  0  0
    2.5355    0.3351   -2.2919 H   0  0  0  0  0  0  0  0  0  0  0  0
    1.9844   -1.0536    0.3792 H   0  0  0  0  0  0  0  0  0  0  0  0
    1.1462   -1.3893   -1.1410 H   0  0  0  0  0  0  0  0  0  0  0  0
   -0.9197    0.8320    1.2032 H   0  0  0  0  0  0  0  0  0  0  0  0
    0.4700   -0.0350    1.8410 H   0  0  0  0  0  0  0  0  0  0  0  0
   -4.3022   -5.3036   -0.4664 H   0  0  0  0  0  0  0  0  0  0  0  0
   -0.8790   -6.2421    2.3760 H   0  0  0  0  0  0  0  0  0  0  0  0
   -0.5029   -4.6273    3.0140 H   0  0  0  0  0  0  0  0  0  0  0  0
    0.3425   -5.2394    1.5618 H   0  0  0  0  0  0  0  0  0  0  0  0
   -1.9834    0.3875   -1.0754 H   0  0  0  0  0  0  0  0  0  0  0  0
   -3.0977   -0.8147   -1.6935 H   0  0  0  0  0  0  0  0  0  0  0  0
   -4.5756   -0.4334    0.3565 H   0  0  0  0  0  0  0  0  0  0  0  0
   -3.4666    0.8164    0.8908 H   0  0  0  0  0  0  0  0  0  0  0  0
   -5.0272    0.8450   -1.7601 H   0  0  0  0  0  0  0  0  0  0  0  0
   -3.8791    2.0773   -1.2736 H   0  0  0  0  0  0  0  0  0  0  0  0
   -7.1034    0.4222   -0.3000 H   0  0  0  0  0  0  0  0  0  0  0  0
   -8.8804    1.5683    0.9742 H   0  0  0  0  0  0  0  0  0  0  0  0
   -8.4922    3.8434    1.8886 H   0  0  0  0  0  0  0  0  0  0  0  0
   -6.3139    4.9699    1.5220 H   0  0  0  0  0  0  0  0  0  0  0  0
   -4.5260    3.8377    0.2514 H   0  0  0  0  0  0  0  0  0  0  0  0
    1.1588    2.2563   -1.0456 H   0  0  0  0  0  0  0  0  0  0  0  0
    0.6098    2.3978    0.6062 H   0  0  0  0  0  0  0  0  0  0  0  0
    2.7548    1.3120    1.3969 H   0  0  0  0  0  0  0  0  0  0  0  0
    3.0134    2.7985    0.4565 H   0  0  0  0  0  0  0  0  0  0  0  0
    5.1585    0.2735   -2.5507 H   0  0  0  0  0  0  0  0  0  0  0  0
    7.5548    0.5113   -2.6348 H   0  0  0  0  0  0  0  0  0  0  0  0
  1  2  1  0
  2  3  1  0
  3  4  2  0
  4  5  1  0
  5  6  2  0
  6  7  1  0
  7  8  1  0
  8  9  1  0
  9 10  1  0
 10 11  1  0
 11 12  1  0
 12 13  2  0
 13 14  1  0
 14 15  2  0
 15 16  1  0
 16 17  2  0
 16 18  1  0
 18 19  1  0
 19 20  2  0
 19 21  1  0
 21 22  1  0
 15 23  1  0
 23 24  1  0
 24 25  1  0
 25 26  1  0
 26 27  1  0
 27 28  2  0
 28 29  1  0
 29 30  2  0
 30 31  1  0
 31 32  2  0
 10 33  1  0
 33 34  1  0
  6 35  1  0
 35 36  2  0
 36  3  1  0
 34  7  1  0
 23 12  1  0
 32 27  1  0
 21 14  1  0
  1 37  1  0
  1 38  1  0
  1 39  1  0
  4 40  1  0
  5 41  1  0
  8 42  1  0
  8 43  1  0
  9 44  1  0
  9 45  1  0
 11 46  1  0
 11 47  1  0
 18 48  1  0
 22 49  1  0
 22 50  1  0
 22 51  1  0
 24 52  1  0
 24 53  1  0
 25 54  1  0
 25 55  1  0
 26 56  1  0
 26 57  1  0
 28 58  1  0
 29 59  1  0
 30 60  1  0
 31 61  1  0
 32 62  1  0
 33 63  1  0
 33 64  1  0
 34 65  1  0
 34 66  1  0
 35 67  1  0
 36 68  1  0
M  END
$$$$
