
     RDKit          3D

 52 55  0  0  0  0  0  0  0  0999 V2000
   -3.9421    2.1013    3.1860 C   0  0  0  0  0  0  0  0  0  0  0  0
   -3.9264    1.6904    1.7450 C   0  0  0  0  0  0  0  0  0  0  0  0
   -3.5310    0.4012    1.3662 C   0  0  0  0  0  0  0  0  0  0  0  0
   -3.4959    0.0545    0.0086 C   0  0  0  0  0  0  0  0  0  0  0  0
   -2.9972   -1.5889   -0.4498 S   0  0  0  0  0  6  0  0  0  0  0  0
   -3.5237   -2.4998    0.5410 O   0  0  0  0  0  0  0  0  0  0  0  0
   -3.2480   -1.7620   -1.8631 O   0  0  0  0  0  0  0  0  0  0  0  0
   -1.3368   -1.5394   -0.2244 N   0  0  0  0  0  0  0  0  0  0  0  0
   -0.5359   -0.5588   -0.9875 C   0  0  0  0  0  0  0  0  0  0  0  0
    0.9722   -0.9803   -1.0460 C   0  0  0  0  0  0  0  0  0  0  0  0
    1.4974   -1.0588    0.3962 C   0  0  0  0  0  0  0  0  0  0  0  0
    1.7227   -2.3233    0.9951 C   0  0  0  0  0  0  0  0  0  0  0  0
    2.1761   -2.4262    2.3139 C   0  0  0  0  0  0  0  0  0  0  0  0
    2.3965   -1.2579    3.0093 C   0  0  0  0  0  0  0  0  0  0  0  0
    2.1828   -0.0250    2.4409 C   0  0  0  0  0  0  0  0  0  0  0  0
    1.7358    0.1101    1.1440 C   0  0  0  0  0  0  0  0  0  0  0  0
    2.4576    0.9955    3.2964 O   0  0  0  0  0  0  0  0  0  0  0  0
    2.8862    0.2634    4.4635 C   0  0  0  0  0  0  0  0  0  0  0  0
    2.8339   -1.1685    4.2936 O   0  0  0  0  0  0  0  0  0  0  0  0
    1.8169   -0.0766   -1.8737 N   0  0  0  0  0  0  0  0  0  0  0  0
    1.2444    0.1737   -3.2172 C   0  0  0  0  0  0  0  0  0  0  0  0
    2.3062    0.6366   -4.2268 C   0  0  0  0  0  0  0  0  0  0  0  0
    3.2960   -0.3679   -4.4785 O   0  0  0  0  0  0  0  0  0  0  0  0
    3.5203   -1.2276   -3.3545 C   0  0  0  0  0  0  0  0  0  0  0  0
    3.2185   -0.5527   -2.0066 C   0  0  0  0  0  0  0  0  0  0  0  0
   -3.8642    0.9739   -0.9787 C   0  0  0  0  0  0  0  0  0  0  0  0
   -4.2464    2.2607   -0.6021 C   0  0  0  0  0  0  0  0  0  0  0  0
   -4.2677    2.6094    0.7471 C   0  0  0  0  0  0  0  0  0  0  0  0
   -4.6278    3.8556    1.0848 F   0  0  0  0  0  0  0  0  0  0  0  0
   -3.9733    1.2282    3.8462 H   0  0  0  0  0  0  0  0  0  0  0  0
   -4.8278    2.7065    3.4056 H   0  0  0  0  0  0  0  0  0  0  0  0
   -3.0444    2.6818    3.4198 H   0  0  0  0  0  0  0  0  0  0  0  0
   -3.2575   -0.3316    2.1233 H   0  0  0  0  0  0  0  0  0  0  0  0
   -1.0554   -1.7245    0.7391 H   0  0  0  0  0  0  0  0  0  0  0  0
   -0.6356    0.4268   -0.5185 H   0  0  0  0  0  0  0  0  0  0  0  0
   -0.9427   -0.4987   -2.0015 H   0  0  0  0  0  0  0  0  0  0  0  0
    1.0146   -1.9865   -1.4873 H   0  0  0  0  0  0  0  0  0  0  0  0
    1.5399   -3.2361    0.4298 H   0  0  0  0  0  0  0  0  0  0  0  0
    2.3500   -3.3917    2.7758 H   0  0  0  0  0  0  0  0  0  0  0  0
    1.5850    1.0961    0.7159 H   0  0  0  0  0  0  0  0  0  0  0  0
    3.9172    0.5515    4.6997 H   0  0  0  0  0  0  0  0  0  0  0  0
    2.2421    0.5397    5.3061 H   0  0  0  0  0  0  0  0  0  0  0  0
    0.4710    0.9455   -3.1409 H   0  0  0  0  0  0  0  0  0  0  0  0
    0.7844   -0.7427   -3.6095 H   0  0  0  0  0  0  0  0  0  0  0  0
    2.8132    1.5434   -3.8765 H   0  0  0  0  0  0  0  0  0  0  0  0
    1.8343    0.8780   -5.1847 H   0  0  0  0  0  0  0  0  0  0  0  0
    4.5680   -1.5433   -3.3897 H   0  0  0  0  0  0  0  0  0  0  0  0
    2.9059   -2.1263   -3.4830 H   0  0  0  0  0  0  0  0  0  0  0  0
    3.8587    0.3343   -1.9168 H   0  0  0  0  0  0  0  0  0  0  0  0
    3.5185   -1.2239   -1.1957 H   0  0  0  0  0  0  0  0  0  0  0  0
   -3.8554    0.6993   -2.0312 H   0  0  0  0  0  0  0  0  0  0  0  0
   -4.5309    2.9962   -1.3486 H   0  0  0  0  0  0  0  0  0  0  0  0
  1  2  1  0
  2  3  2  0
  3  4  1  0
  4  5  1  0
  5  6  2  0
  5  7  2  0
  5  8  1  0
  8  9  1  0
  9 10  1  0
 10 11  1  0
 11 12  2  0
 12 13  1  0
 13 14  2  0
 14 15  1  0
 15 16  2  0
 15 17  1  0
 17 18  1  0
 18 19  1  0
 10 20  1  0
 20 21  1  0
 21 22  1  0
 22 23  1  0
 23 24  1  0
 24 25  1  0
  4 26  2  0
 26 27  1  0
 27 28  2  0
 28 29  1  0
 28  2  1  0
 16 11  1  0
 25 20  1  0
 19 14  1  0
  1 30  1  0
  1 31  1  0
  1 32  1  0
  3 33  1  0
  8 34  1  0
  9 35  1  0
  9 36  1  0
 10 37  1  0
 12 38  1  0
 13 39  1  0
 16 40  1  0
 18 41  1  0
 18 42  1  0
 21 43  1  0
 21 44  1  0
 22 45  1  0
 22 46  1  0
 24 47  1  0
 24 48  1  0
 25 49  1  0
 25 50  1  0
 26 51  1  0
 27 52  1  0
M  END
$$$$
