
     RDKit          3D

 61 61  0  0  0  0  0  0  0  0999 V2000
    7.9030    2.0305   -0.5906 C   0  0  0  0  0  0  0  0  0  0  0  0
    6.8793    1.5337   -1.5954 C   0  0  0  0  0  0  0  0  0  0  0  0
    6.8446    0.0090   -1.7280 C   0  0  0  0  0  0  0  0  0  0  0  0
    6.5163   -0.7582   -0.4439 C   0  0  0  0  0  0  0  0  0  0  0  0
    5.1098   -0.4742    0.0880 C   0  0  0  0  0  0  0  0  0  0  0  0
    4.8179   -1.2999    1.3436 C   0  0  0  0  0  0  0  0  0  0  0  0
    3.4498   -1.0031    1.9645 C   0  0  0  0  0  0  0  0  0  0  0  0
    2.2780   -1.4287    1.0777 C   0  0  0  0  0  0  0  0  0  0  0  0
    0.9217   -1.3211    1.7857 C   0  0  0  0  0  0  0  0  0  0  0  0
    0.5151    0.0942    2.2145 C   0  0  0  0  0  0  0  0  0  0  0  0
    0.4602    1.1297    1.0858 C   0  0  0  0  0  0  0  0  0  0  0  0
   -0.4682    0.7939   -0.0844 C   0  0  0  0  0  0  0  0  0  0  0  0
   -1.9407    0.7304    0.3147 C   0  0  0  0  0  0  0  0  0  0  0  0
   -2.8350    0.4064   -0.8849 C   0  0  0  0  0  0  0  0  0  0  0  0
   -4.3125    0.5229   -0.5069 C   0  0  0  0  0  0  0  0  0  0  0  0
   -5.2247    0.0187   -1.6214 C   0  0  0  0  0  0  0  0  0  0  0  0
   -6.6310    0.2552   -1.2805 N   0  0  0  0  0  0  0  0  0  0  0  0
   -7.4001    1.3348   -1.6850 C   0  0  0  0  0  0  0  0  0  0  0  0
   -8.6374    1.1692   -1.1254 C   0  0  0  0  0  0  0  0  0  0  0  0
   -8.5922   -0.0056   -0.3939 N   0  0  0  0  0  4  0  0  0  0  0  0
   -9.6904   -0.5736    0.3777 C   0  0  0  0  0  0  0  0  0  0  0  0
   -7.3728   -0.5539   -0.5082 C   0  0  0  0  0  0  0  0  0  0  0  0
    7.6377    1.7415    0.4307 H   0  0  0  0  0  0  0  0  0  0  0  0
    7.9547    3.1202   -0.6236 H   0  0  0  0  0  0  0  0  0  0  0  0
    8.9017    1.6368   -0.8190 H   0  0  0  0  0  0  0  0  0  0  0  0
    5.8865    1.9233   -1.3305 H   0  0  0  0  0  0  0  0  0  0  0  0
    7.1237    1.9591   -2.5779 H   0  0  0  0  0  0  0  0  0  0  0  0
    7.8192   -0.3356   -2.0924 H   0  0  0  0  0  0  0  0  0  0  0  0
    6.1145   -0.2599   -2.5035 H   0  0  0  0  0  0  0  0  0  0  0  0
    7.2584   -0.5277    0.3272 H   0  0  0  0  0  0  0  0  0  0  0  0
    6.6091   -1.8316   -0.6505 H   0  0  0  0  0  0  0  0  0  0  0  0
    4.3769   -0.6976   -0.6954 H   0  0  0  0  0  0  0  0  0  0  0  0
    5.0066    0.5887    0.3335 H   0  0  0  0  0  0  0  0  0  0  0  0
    4.8920   -2.3670    1.1116 H   0  0  0  0  0  0  0  0  0  0  0  0
    5.5910   -1.0883    2.0940 H   0  0  0  0  0  0  0  0  0  0  0  0
    3.3822   -1.5367    2.9189 H   0  0  0  0  0  0  0  0  0  0  0  0
    3.3839    0.0635    2.1984 H   0  0  0  0  0  0  0  0  0  0  0  0
    2.4228   -2.4710    0.7697 H   0  0  0  0  0  0  0  0  0  0  0  0
    2.2641   -0.8434    0.1503 H   0  0  0  0  0  0  0  0  0  0  0  0
    0.9359   -1.9606    2.6790 H   0  0  0  0  0  0  0  0  0  0  0  0
    0.1482   -1.7393    1.1303 H   0  0  0  0  0  0  0  0  0  0  0  0
   -0.4593    0.0360    2.7119 H   0  0  0  0  0  0  0  0  0  0  0  0
    1.2169    0.4578    2.9788 H   0  0  0  0  0  0  0  0  0  0  0  0
    1.4728    1.2948    0.6964 H   0  0  0  0  0  0  0  0  0  0  0  0
    0.1491    2.0929    1.5134 H   0  0  0  0  0  0  0  0  0  0  0  0
   -0.3479    1.5793   -0.8367 H   0  0  0  0  0  0  0  0  0  0  0  0
   -0.1621   -0.1385   -0.5618 H   0  0  0  0  0  0  0  0  0  0  0  0
   -2.0948   -0.0314    1.0841 H   0  0  0  0  0  0  0  0  0  0  0  0
   -2.2362    1.6916    0.7489 H   0  0  0  0  0  0  0  0  0  0  0  0
   -2.6167   -0.6082   -1.2450 H   0  0  0  0  0  0  0  0  0  0  0  0
   -2.6168    1.0978   -1.7109 H   0  0  0  0  0  0  0  0  0  0  0  0
   -4.5175   -0.0424    0.4163 H   0  0  0  0  0  0  0  0  0  0  0  0
   -4.5460    1.5772   -0.2861 H   0  0  0  0  0  0  0  0  0  0  0  0
   -5.0055    0.5199   -2.5738 H   0  0  0  0  0  0  0  0  0  0  0  0
   -5.0926   -1.0605   -1.7740 H   0  0  0  0  0  0  0  0  0  0  0  0
   -6.9620    2.0871   -2.3204 H   0  0  0  0  0  0  0  0  0  0  0  0
   -9.5495    1.7400   -1.1501 H   0  0  0  0  0  0  0  0  0  0  0  0
   -9.2956   -1.3000    1.0943 H   0  0  0  0  0  0  0  0  0  0  0  0
  -10.2087    0.2214    0.9207 H   0  0  0  0  0  0  0  0  0  0  0  0
  -10.3845   -1.0681   -0.3054 H   0  0  0  0  0  0  0  0  0  0  0  0
   -7.0431   -1.4796   -0.0548 H   0  0  0  0  0  0  0  0  0  0  0  0
  1  2  1  0
  2  3  1  0
  3  4  1  0
  4  5  1  0
  5  6  1  0
  6  7  1  0
  7  8  1  0
  8  9  1  0
  9 10  1  0
 10 11  1  0
 11 12  1  0
 12 13  1  0
 13 14  1  0
 14 15  1  0
 15 16  1  0
 16 17  1  0
 17 18  1  0
 18 19  2  0
 19 20  1  0
 20 21  1  0
 20 22  2  0
 22 17  1  0
  1 23  1  0
  1 24  1  0
  1 25  1  0
  2 26  1  0
  2 27  1  0
  3 28  1  0
  3 29  1  0
  4 30  1  0
  4 31  1  0
  5 32  1  0
  5 33  1  0
  6 34  1  0
  6 35  1  0
  7 36  1  0
  7 37  1  0
  8 38  1  0
  8 39  1  0
  9 40  1  0
  9 41  1  0
 10 42  1  0
 10 43  1  0
 11 44  1  0
 11 45  1  0
 12 46  1  0
 12 47  1  0
 13 48  1  0
 13 49  1  0
 14 50  1  0
 14 51  1  0
 15 52  1  0
 15 53  1  0
 16 54  1  0
 16 55  1  0
 18 56  1  0
 19 57  1  0
 21 58  1  0
 21 59  1  0
 21 60  1  0
 22 61  1  0
M  CHG  1  20   1
M  END
$$$$
