
     RDKit          3D

 57 60  0  0  0  0  0  0  0  0999 V2000
   -2.0780   -0.7066    2.3269 O   0  0  0  0  0  0  0  0  0  0  0  0
   -1.3046    0.0146    1.7079 C   0  0  0  0  0  0  0  0  0  0  0  0
    0.1127    0.3151    2.1605 C   0  0  0  0  0  0  0  0  0  0  0  0
    0.5495   -0.5727    3.3247 C   0  0  0  0  0  0  0  0  0  0  0  0
    1.9463   -0.2424    3.8611 C   0  0  0  0  0  0  0  0  0  0  0  0
    3.0756   -0.2459    2.8275 C   0  0  0  0  0  0  0  0  0  0  0  0
    3.2357   -1.5826    2.0965 C   0  0  0  0  0  0  0  0  0  0  0  0
    4.2941   -1.5162    1.0941 N   0  0  0  0  0  0  0  0  0  0  0  0
    5.5809   -1.8533    1.4829 C   0  0  0  0  0  0  0  0  0  0  0  0
    5.8899   -2.2101    2.6188 O   0  0  0  0  0  0  0  0  0  0  0  0
    6.5531   -1.7701    0.5270 N   0  0  0  0  0  0  0  0  0  0  0  0
    6.3247   -1.3491   -0.7793 C   0  0  0  0  0  0  0  0  0  0  0  0
    7.3780   -1.3050   -1.6928 C   0  0  0  0  0  0  0  0  0  0  0  0
    7.1400   -0.8747   -3.0003 C   0  0  0  0  0  0  0  0  0  0  0  0
    5.8561   -0.4890   -3.3908 C   0  0  0  0  0  0  0  0  0  0  0  0
    4.8051   -0.5327   -2.4736 C   0  0  0  0  0  0  0  0  0  0  0  0
    5.0457   -0.9656   -1.1656 C   0  0  0  0  0  0  0  0  0  0  0  0
    3.9609   -1.0206   -0.1669 C   0  0  0  0  0  0  0  0  0  0  0  0
    2.8385   -0.6244   -0.4771 O   0  0  0  0  0  0  0  0  0  0  0  0
   -1.6371    0.6685    0.5371 N   0  0  0  0  0  0  0  0  0  0  0  0
   -2.9027    0.3986   -0.1253 C   0  0  0  0  0  0  0  0  0  0  0  0
   -3.2696    1.5037   -1.1152 C   0  0  0  0  0  0  0  0  0  0  0  0
   -4.5423    1.2215   -1.8468 C   0  0  0  0  0  0  0  0  0  0  0  0
   -4.6577    0.7069   -3.1237 C   0  0  0  0  0  0  0  0  0  0  0  0
   -5.9886    0.5993   -3.4255 N   0  0  0  0  0  0  0  0  0  0  0  0
   -6.7535    1.0356   -2.3698 C   0  0  0  0  0  0  0  0  0  0  0  0
   -8.1451    1.1061   -2.2325 C   0  0  0  0  0  0  0  0  0  0  0  0
   -8.6532    1.5968   -1.0263 C   0  0  0  0  0  0  0  0  0  0  0  0
   -7.8016    1.9998   -0.0007 C   0  0  0  0  0  0  0  0  0  0  0  0
   -6.4126    1.9234   -0.1554 C   0  0  0  0  0  0  0  0  0  0  0  0
   -5.8738    1.4326   -1.3626 C   0  0  0  0  0  0  0  0  0  0  0  0
    0.1569    1.3698    2.4555 H   0  0  0  0  0  0  0  0  0  0  0  0
    0.7774    0.1688    1.3030 H   0  0  0  0  0  0  0  0  0  0  0  0
    0.5047   -1.6260    3.0226 H   0  0  0  0  0  0  0  0  0  0  0  0
   -0.1656   -0.4699    4.1511 H   0  0  0  0  0  0  0  0  0  0  0  0
    2.1895   -0.9557    4.6583 H   0  0  0  0  0  0  0  0  0  0  0  0
    1.9166    0.7477    4.3331 H   0  0  0  0  0  0  0  0  0  0  0  0
    4.0148   -0.0032    3.3412 H   0  0  0  0  0  0  0  0  0  0  0  0
    2.9188    0.5641    2.1055 H   0  0  0  0  0  0  0  0  0  0  0  0
    3.4601   -2.3758    2.8191 H   0  0  0  0  0  0  0  0  0  0  0  0
    2.3044   -1.8618    1.5928 H   0  0  0  0  0  0  0  0  0  0  0  0
    7.4817   -2.0333    0.8307 H   0  0  0  0  0  0  0  0  0  0  0  0
    8.3830   -1.6007   -1.4041 H   0  0  0  0  0  0  0  0  0  0  0  0
    7.9574   -0.8390   -3.7174 H   0  0  0  0  0  0  0  0  0  0  0  0
    5.6743   -0.1539   -4.4096 H   0  0  0  0  0  0  0  0  0  0  0  0
    3.8055   -0.2312   -2.7786 H   0  0  0  0  0  0  0  0  0  0  0  0
   -0.8654    0.9797   -0.0407 H   0  0  0  0  0  0  0  0  0  0  0  0
   -2.8003   -0.5655   -0.6376 H   0  0  0  0  0  0  0  0  0  0  0  0
   -3.6850    0.2818    0.6338 H   0  0  0  0  0  0  0  0  0  0  0  0
   -3.3550    2.4611   -0.5855 H   0  0  0  0  0  0  0  0  0  0  0  0
   -2.4539    1.6334   -1.8386 H   0  0  0  0  0  0  0  0  0  0  0  0
   -3.9062    0.4077   -3.8422 H   0  0  0  0  0  0  0  0  0  0  0  0
   -6.3630    0.2496   -4.2963 H   0  0  0  0  0  0  0  0  0  0  0  0
   -8.8114    0.7911   -3.0287 H   0  0  0  0  0  0  0  0  0  0  0  0
   -9.7297    1.6626   -0.8867 H   0  0  0  0  0  0  0  0  0  0  0  0
   -8.2168    2.3756    0.9311 H   0  0  0  0  0  0  0  0  0  0  0  0
   -5.7591    2.2373    0.6533 H   0  0  0  0  0  0  0  0  0  0  0  0
  1  2  2  0
  2  3  1  0
  3  4  1  0
  4  5  1  0
  5  6  1  0
  6  7  1  0
  7  8  1  0
  8  9  1  0
  9 10  2  0
  9 11  1  0
 11 12  1  0
 12 13  2  0
 13 14  1  0
 14 15  2  0
 15 16  1  0
 16 17  2  0
 17 18  1  0
 18 19  2  0
  2 20  1  0
 20 21  1  0
 21 22  1  0
 22 23  1  0
 23 24  2  0
 24 25  1  0
 25 26  1  0
 26 27  2  0
 27 28  1  0
 28 29  2  0
 29 30  1  0
 30 31  2  0
 18  8  1  0
 31 23  1  0
 17 12  1  0
 31 26  1  0
  3 32  1  0
  3 33  1  0
  4 34  1  0
  4 35  1  0
  5 36  1  0
  5 37  1  0
  6 38  1  0
  6 39  1  0
  7 40  1  0
  7 41  1  0
 11 42  1  0
 13 43  1  0
 14 44  1  0
 15 45  1  0
 16 46  1  0
 20 47  1  0
 21 48  1  0
 21 49  1  0
 22 50  1  0
 22 51  1  0
 24 52  1  0
 25 53  1  0
 27 54  1  0
 28 55  1  0
 29 56  1  0
 30 57  1  0
M  END
$$$$
