
     RDKit          3D

 46 50  0  0  0  0  0  0  0  0999 V2000
   -7.9298    0.2405    0.7105 C   0  0  0  0  0  0  0  0  0  0  0  0
   -6.4345    0.4168    0.7453 C   0  0  0  0  0  0  0  0  0  0  0  0
   -5.8910    1.4085    1.5872 C   0  0  0  0  0  0  0  0  0  0  0  0
   -4.5022    1.5945    1.6337 C   0  0  0  0  0  0  0  0  0  0  0  0
   -3.7638    2.4943    2.3776 N   0  0  0  0  0  0  0  0  0  0  0  0
   -2.5348    2.2283    2.0352 C   0  0  0  0  0  0  0  0  0  0  0  0
   -1.0234    2.8921    2.5065 S   0  0  0  0  0  0  0  0  0  0  0  0
   -0.1862    1.7773    1.4201 C   0  0  0  0  0  0  0  0  0  0  0  0
    1.1526    1.7909    1.3488 C   0  0  0  0  0  0  0  0  0  0  0  0
    1.9694    0.9625    0.5346 C   0  0  0  0  0  0  0  0  0  0  0  0
    1.8347    0.5131   -0.7724 C   0  0  0  0  0  0  0  0  0  0  0  0
    2.9758   -0.2627   -1.0919 C   0  0  0  0  0  0  0  0  0  0  0  0
    3.7860   -0.2360    0.0199 C   0  0  0  0  0  0  0  0  0  0  0  0
    5.0811   -0.8141    0.3692 C   0  0  0  0  0  0  0  0  0  0  0  0
    5.2848   -1.2791    1.6823 C   0  0  0  0  0  0  0  0  0  0  0  0
    6.4766   -1.9088    2.0554 C   0  0  0  0  0  0  0  0  0  0  0  0
    7.4906   -2.0929    1.1205 C   0  0  0  0  0  0  0  0  0  0  0  0
    7.3185   -1.6336   -0.1833 C   0  0  0  0  0  0  0  0  0  0  0  0
    6.1294   -0.9824   -0.5527 C   0  0  0  0  0  0  0  0  0  0  0  0
    6.0689   -0.4893   -1.9389 C   0  0  0  0  0  0  0  0  0  0  0  0
    6.2807   -1.1458   -2.9401 O   0  0  0  0  0  0  0  0  0  0  0  0
    5.8410    0.8335   -1.9814 O   0  0  0  0  0  0  0  0  0  0  0  0
    3.1850    0.5041    0.9943 O   0  0  0  0  0  0  0  0  0  0  0  0
   -1.1533    0.8831    0.7066 C   0  0  0  0  0  0  0  0  0  0  0  0
   -0.9731   -0.0098   -0.0975 O   0  0  0  0  0  0  0  0  0  0  0  0
   -2.4193    1.2310    1.1277 N   0  0  0  0  0  0  0  0  0  0  0  0
   -3.6848    0.7873    0.8381 C   0  0  0  0  0  0  0  0  0  0  0  0
   -4.1871   -0.2043   -0.0100 C   0  0  0  0  0  0  0  0  0  0  0  0
   -5.5838   -0.3809   -0.0528 C   0  0  0  0  0  0  0  0  0  0  0  0
   -6.1456   -1.4464   -0.9594 C   0  0  0  0  0  0  0  0  0  0  0  0
   -8.1991   -0.7896    0.9635 H   0  0  0  0  0  0  0  0  0  0  0  0
   -8.4289    0.8953    1.4331 H   0  0  0  0  0  0  0  0  0  0  0  0
   -8.3167    0.4869   -0.2834 H   0  0  0  0  0  0  0  0  0  0  0  0
   -6.5266    2.0351    2.2050 H   0  0  0  0  0  0  0  0  0  0  0  0
    1.7080    2.4665    1.9968 H   0  0  0  0  0  0  0  0  0  0  0  0
    1.0035    0.7175   -1.4335 H   0  0  0  0  0  0  0  0  0  0  0  0
    3.1735   -0.7756   -2.0229 H   0  0  0  0  0  0  0  0  0  0  0  0
    4.4979   -1.1676    2.4274 H   0  0  0  0  0  0  0  0  0  0  0  0
    6.6044   -2.2634    3.0755 H   0  0  0  0  0  0  0  0  0  0  0  0
    8.4146   -2.5893    1.4069 H   0  0  0  0  0  0  0  0  0  0  0  0
    8.1151   -1.7717   -0.9121 H   0  0  0  0  0  0  0  0  0  0  0  0
    5.8701    1.0603   -2.9334 H   0  0  0  0  0  0  0  0  0  0  0  0
   -3.5192   -0.8141   -0.6134 H   0  0  0  0  0  0  0  0  0  0  0  0
   -5.3587   -1.9252   -1.5527 H   0  0  0  0  0  0  0  0  0  0  0  0
   -6.8637   -1.0109   -1.6614 H   0  0  0  0  0  0  0  0  0  0  0  0
   -6.6362   -2.2259   -0.3675 H   0  0  0  0  0  0  0  0  0  0  0  0
  1  2  1  0
  2  3  2  0
  3  4  1  0
  4  5  1  0
  5  6  2  0
  6  7  1  0
  7  8  1  0
  8  9  2  3
  9 10  1  0
 10 11  2  0
 11 12  1  0
 12 13  2  0
 13 14  1  0
 14 15  2  0
 15 16  1  0
 16 17  2  0
 17 18  1  0
 18 19  2  0
 19 20  1  0
 20 21  2  0
 20 22  1  0
 13 23  1  0
  8 24  1  0
 24 25  2  0
 24 26  1  0
 26 27  1  0
 27 28  1  0
 28 29  2  0
 29 30  1  0
 29  2  1  0
 27  4  2  0
 26  6  1  0
 23 10  1  0
 19 14  1  0
  1 31  1  0
  1 32  1  0
  1 33  1  0
  3 34  1  0
  9 35  1  0
 11 36  1  0
 12 37  1  0
 15 38  1  0
 16 39  1  0
 17 40  1  0
 18 41  1  0
 22 42  1  0
 28 43  1  0
 30 44  1  0
 30 45  1  0
 30 46  1  0
M  END
$$$$
