
     RDKit          3D

 36 37  0  0  0  0  0  0  0  0999 V2000
    4.9846   -0.4281   -2.2222 C   0  0  0  0  0  0  0  0  0  0  0  0
    3.7791   -0.6505   -1.4444 N   0  0  0  0  0  0  0  0  0  0  0  0
    3.5057   -0.0967   -0.2056 C   0  0  0  0  0  0  0  0  0  0  0  0
    4.5628    0.9501    0.5764 S   0  0  0  0  0  0  0  0  0  0  0  0
    2.2653   -0.4923    0.3089 N   0  0  0  0  0  0  0  0  0  0  0  0
    1.8993   -0.3453    1.7239 C   0  0  0  0  0  0  0  0  0  0  0  0
    0.8114    0.7122    1.8861 C   0  0  0  0  0  0  0  0  0  0  0  0
   -0.3663    0.4053    0.9924 C   0  0  0  0  0  0  0  0  0  0  0  0
   -1.6302    0.9342    1.2953 C   0  0  0  0  0  0  0  0  0  0  0  0
   -2.7310    0.6736    0.4721 C   0  0  0  0  0  0  0  0  0  0  0  0
   -4.0008    1.1437    0.7021 O   0  0  0  0  0  0  0  0  0  0  0  0
   -4.1968    1.9940    1.8223 C   0  0  0  0  0  0  0  0  0  0  0  0
   -2.5653   -0.1224   -0.6776 C   0  0  0  0  0  0  0  0  0  0  0  0
   -3.6946   -0.3374   -1.4291 O   0  0  0  0  0  0  0  0  0  0  0  0
   -3.5607   -1.0887   -2.6261 C   0  0  0  0  0  0  0  0  0  0  0  0
   -1.3003   -0.6369   -0.9860 C   0  0  0  0  0  0  0  0  0  0  0  0
   -0.1911   -0.3715   -0.1650 C   0  0  0  0  0  0  0  0  0  0  0  0
    1.1597   -0.9491   -0.5439 C   0  0  0  0  0  0  0  0  0  0  0  0
    5.1608    0.6430   -2.3499 H   0  0  0  0  0  0  0  0  0  0  0  0
    4.8480   -0.8931   -3.2016 H   0  0  0  0  0  0  0  0  0  0  0  0
    5.8330   -0.8919   -1.7119 H   0  0  0  0  0  0  0  0  0  0  0  0
    3.3396   -1.5452   -1.6037 H   0  0  0  0  0  0  0  0  0  0  0  0
    2.7605   -0.1040    2.3515 H   0  0  0  0  0  0  0  0  0  0  0  0
    1.5362   -1.3247    2.0629 H   0  0  0  0  0  0  0  0  0  0  0  0
    1.1994    1.7025    1.6196 H   0  0  0  0  0  0  0  0  0  0  0  0
    0.4935    0.7391    2.9347 H   0  0  0  0  0  0  0  0  0  0  0  0
   -1.7285    1.5469    2.1857 H   0  0  0  0  0  0  0  0  0  0  0  0
   -3.9874    1.4671    2.7589 H   0  0  0  0  0  0  0  0  0  0  0  0
   -5.2501    2.2902    1.8371 H   0  0  0  0  0  0  0  0  0  0  0  0
   -3.5969    2.9061    1.7372 H   0  0  0  0  0  0  0  0  0  0  0  0
   -2.8769   -0.5987   -3.3271 H   0  0  0  0  0  0  0  0  0  0  0  0
   -3.2434   -2.1149   -2.4143 H   0  0  0  0  0  0  0  0  0  0  0  0
   -4.5447   -1.1377   -3.1023 H   0  0  0  0  0  0  0  0  0  0  0  0
   -1.1484   -1.2492   -1.8692 H   0  0  0  0  0  0  0  0  0  0  0  0
    1.1187   -2.0407   -0.4516 H   0  0  0  0  0  0  0  0  0  0  0  0
    1.3562   -0.6890   -1.5893 H   0  0  0  0  0  0  0  0  0  0  0  0
  1  2  1  0
  2  3  1  0
  3  4  2  0
  3  5  1  0
  5  6  1  0
  6  7  1  0
  7  8  1  0
  8  9  2  0
  9 10  1  0
 10 11  1  0
 11 12  1  0
 10 13  2  0
 13 14  1  0
 14 15  1  0
 13 16  1  0
 16 17  2  0
 17 18  1  0
 18  5  1  0
 17  8  1  0
  1 19  1  0
  1 20  1  0
  1 21  1  0
  2 22  1  0
  6 23  1  0
  6 24  1  0
  7 25  1  0
  7 26  1  0
  9 27  1  0
 12 28  1  0
 12 29  1  0
 12 30  1  0
 15 31  1  0
 15 32  1  0
 15 33  1  0
 16 34  1  0
 18 35  1  0
 18 36  1  0
M  END
$$$$
