
     RDKit          3D

 52 54  0  0  0  0  0  0  0  0999 V2000
    6.2886    2.3079    3.2540 C   0  0  0  0  0  0  0  0  0  0  0  0
    4.8530    1.9869    3.6238 C   0  0  0  0  0  0  0  0  0  0  0  0
    4.0661    1.8171    2.4359 O   0  0  0  0  0  0  0  0  0  0  0  0
    4.0512    0.5617    1.9098 C   0  0  0  0  0  0  0  0  0  0  0  0
    4.6583   -0.3888    2.3882 O   0  0  0  0  0  0  0  0  0  0  0  0
    3.2675    0.4773    0.7720 N   0  0  0  0  0  0  0  0  0  0  0  0
    3.0634   -0.8238    0.1477 C   0  0  0  0  0  0  0  0  0  0  0  0
    1.7035   -0.9014   -0.5299 C   0  0  0  0  0  0  0  0  0  0  0  0
    1.5572    0.1699   -1.6216 C   0  0  0  0  0  0  0  0  0  0  0  0
    0.1526    0.4926   -1.8394 N   0  0  0  0  0  0  0  0  0  0  0  0
   -0.7139   -0.4037   -2.4337 C   0  0  0  0  0  0  0  0  0  0  0  0
   -0.3512   -1.4686   -2.9265 O   0  0  0  0  0  0  0  0  0  0  0  0
   -2.1825    0.0223   -2.3925 C   0  0  0  0  0  0  0  0  0  0  0  0
   -2.7866   -0.2144   -1.0776 N   0  0  0  0  0  0  0  0  0  0  0  0
   -2.5154    0.7018   -0.0692 C   0  0  0  0  0  0  0  0  0  0  0  0
   -1.7978    1.6903   -0.2559 O   0  0  0  0  0  0  0  0  0  0  0  0
   -3.0482    0.4098    1.3134 C   0  0  0  0  0  0  0  0  0  0  0  0
   -4.4776    0.8780    1.4833 C   0  0  0  0  0  0  0  0  0  0  0  0
   -5.6561    0.3263    0.2145 S   0  0  0  0  0  0  0  0  0  0  0  0
   -4.9247   -1.2262   -0.2917 C   0  0  0  0  0  0  0  0  0  0  0  0
   -5.7448   -2.3603   -0.1814 C   0  0  0  0  0  0  0  0  0  0  0  0
   -5.3306   -3.5920   -0.6855 C   0  0  0  0  0  0  0  0  0  0  0  0
   -4.1016   -3.6974   -1.3246 C   0  0  0  0  0  0  0  0  0  0  0  0
   -3.2822   -2.5741   -1.4548 C   0  0  0  0  0  0  0  0  0  0  0  0
   -3.6686   -1.3294   -0.9295 C   0  0  0  0  0  0  0  0  0  0  0  0
    2.3691    1.4383   -1.3227 C   0  0  0  0  0  0  0  0  0  0  0  0
    2.6064    1.6350    0.1719 C   0  0  0  0  0  0  0  0  0  0  0  0
    6.3302    3.2107    2.6368 H   0  0  0  0  0  0  0  0  0  0  0  0
    6.8970    2.4647    4.1511 H   0  0  0  0  0  0  0  0  0  0  0  0
    6.7339    1.5004    2.6627 H   0  0  0  0  0  0  0  0  0  0  0  0
    4.7932    1.1071    4.2749 H   0  0  0  0  0  0  0  0  0  0  0  0
    4.4197    2.8246    4.1797 H   0  0  0  0  0  0  0  0  0  0  0  0
    3.8691   -0.9695   -0.5820 H   0  0  0  0  0  0  0  0  0  0  0  0
    3.1526   -1.6178    0.8971 H   0  0  0  0  0  0  0  0  0  0  0  0
    0.9194   -0.7735    0.2281 H   0  0  0  0  0  0  0  0  0  0  0  0
    1.5570   -1.8983   -0.9615 H   0  0  0  0  0  0  0  0  0  0  0  0
    1.9265   -0.2466   -2.5677 H   0  0  0  0  0  0  0  0  0  0  0  0
   -0.2813    1.1945   -1.2350 H   0  0  0  0  0  0  0  0  0  0  0  0
   -2.7346   -0.5039   -3.1787 H   0  0  0  0  0  0  0  0  0  0  0  0
   -2.2442    1.0901   -2.6315 H   0  0  0  0  0  0  0  0  0  0  0  0
   -2.9311   -0.6532    1.5529 H   0  0  0  0  0  0  0  0  0  0  0  0
   -2.4108    0.9373    2.0358 H   0  0  0  0  0  0  0  0  0  0  0  0
   -4.8531    0.5506    2.4592 H   0  0  0  0  0  0  0  0  0  0  0  0
   -4.5095    1.9747    1.4832 H   0  0  0  0  0  0  0  0  0  0  0  0
   -6.7279   -2.2875    0.2805 H   0  0  0  0  0  0  0  0  0  0  0  0
   -5.9757   -4.4627   -0.5952 H   0  0  0  0  0  0  0  0  0  0  0  0
   -3.7741   -4.6537   -1.7254 H   0  0  0  0  0  0  0  0  0  0  0  0
   -2.3204   -2.7061   -1.9456 H   0  0  0  0  0  0  0  0  0  0  0  0
    3.3485    1.3427   -1.8115 H   0  0  0  0  0  0  0  0  0  0  0  0
    1.8923    2.3272   -1.7488 H   0  0  0  0  0  0  0  0  0  0  0  0
    1.6563    1.7790    0.6988 H   0  0  0  0  0  0  0  0  0  0  0  0
    3.2120    2.5336    0.3312 H   0  0  0  0  0  0  0  0  0  0  0  0
  1  2  1  0
  2  3  1  0
  3  4  1  0
  4  5  2  0
  4  6  1  0
  6  7  1  0
  7  8  1  0
  8  9  1  0
  9 10  1  0
 10 11  1  0
 11 12  2  0
 11 13  1  0
 13 14  1  0
 14 15  1  0
 15 16  2  0
 15 17  1  0
 17 18  1  0
 18 19  1  0
 19 20  1  0
 20 21  2  0
 21 22  1  0
 22 23  2  0
 23 24  1  0
 24 25  2  0
  9 26  1  0
 26 27  1  0
 27  6  1  0
 25 14  1  0
 25 20  1  0
  1 28  1  0
  1 29  1  0
  1 30  1  0
  2 31  1  0
  2 32  1  0
  7 33  1  0
  7 34  1  0
  8 35  1  0
  8 36  1  0
  9 37  1  0
 10 38  1  0
 13 39  1  0
 13 40  1  0
 17 41  1  0
 17 42  1  0
 18 43  1  0
 18 44  1  0
 21 45  1  0
 22 46  1  0
 23 47  1  0
 24 48  1  0
 26 49  1  0
 26 50  1  0
 27 51  1  0
 27 52  1  0
M  END
$$$$
