
     RDKit          3D

 59 62  0  0  0  0  0  0  0  0999 V2000
    1.6526   -1.5552    3.5087 O   0  0  0  0  0  0  0  0  0  0  0  0
    1.1335   -1.4394    2.3998 C   0  0  0  0  0  0  0  0  0  0  0  0
    0.0732   -2.2390    2.0957 N   0  0  0  0  0  0  0  0  0  0  0  0
   -0.3153   -2.5516    0.8260 C   0  0  0  0  0  0  0  0  0  0  0  0
   -0.8311   -3.6408    0.6019 O   0  0  0  0  0  0  0  0  0  0  0  0
   -0.1044   -1.4482   -0.1977 C   0  0  0  0  0  0  0  0  0  0  0  0
   -1.1567   -0.3356    0.0849 C   0  0  0  0  0  0  0  0  0  0  0  0
   -1.0961    0.8810   -0.8510 C   0  0  0  0  0  0  0  0  0  0  0  0
   -1.9906    1.9943   -0.3653 C   0  0  0  0  0  0  0  0  0  0  0  0
   -3.3783    1.9117   -0.5034 C   0  0  0  0  0  0  0  0  0  0  0  0
   -4.1588    2.9547   -0.0294 C   0  0  0  0  0  0  0  0  0  0  0  0
   -3.6577    4.0569    0.5678 N   0  0  0  0  0  0  0  0  0  0  0  0
   -2.3153    4.1185    0.6916 C   0  0  0  0  0  0  0  0  0  0  0  0
   -1.4517    3.1273    0.2495 C   0  0  0  0  0  0  0  0  0  0  0  0
   -0.1174   -1.9930   -1.6610 C   0  0  0  0  0  0  0  0  0  0  0  0
   -1.2773   -2.8591   -2.1835 C   0  0  0  0  0  0  0  0  0  0  0  0
   -2.6237   -2.2014   -2.2933 C   0  0  0  0  0  0  0  0  0  0  0  0
   -3.6526   -2.5347   -1.4086 C   0  0  0  0  0  0  0  0  0  0  0  0
   -4.8829   -1.9132   -1.5542 C   0  0  0  0  0  0  0  0  0  0  0  0
   -5.1529   -0.9972   -2.5087 N   0  0  0  0  0  0  0  0  0  0  0  0
   -4.1557   -0.7112   -3.3729 C   0  0  0  0  0  0  0  0  0  0  0  0
   -2.8919   -1.2769   -3.3058 C   0  0  0  0  0  0  0  0  0  0  0  0
    1.2772   -0.8268    0.0659 C   0  0  0  0  0  0  0  0  0  0  0  0
    2.0144   -0.5001   -0.8656 O   0  0  0  0  0  0  0  0  0  0  0  0
    1.6049   -0.6043    1.4005 N   0  0  0  0  0  0  0  0  0  0  0  0
    2.7977    0.2042    1.7257 C   0  0  0  0  0  0  0  0  0  0  0  0
    4.1127   -0.5095    1.3762 C   0  0  0  0  0  0  0  0  0  0  0  0
    5.3308    0.2558    1.9001 C   0  0  0  0  0  0  0  0  0  0  0  0
    5.1411    1.7736    1.9250 C   0  0  0  0  0  0  0  0  0  0  0  0
    4.1226    2.2415    0.8948 C   0  0  0  0  0  0  0  0  0  0  0  0
    2.7399    1.6363    1.1479 C   0  0  0  0  0  0  0  0  0  0  0  0
   -0.0964   -2.9589    2.7863 H   0  0  0  0  0  0  0  0  0  0  0  0
   -1.0366    0.0306    1.1149 H   0  0  0  0  0  0  0  0  0  0  0  0
   -2.1643   -0.7632    0.0727 H   0  0  0  0  0  0  0  0  0  0  0  0
   -1.3926    0.6147   -1.8692 H   0  0  0  0  0  0  0  0  0  0  0  0
   -0.0710    1.2597   -0.9271 H   0  0  0  0  0  0  0  0  0  0  0  0
   -3.8537    1.0553   -0.9696 H   0  0  0  0  0  0  0  0  0  0  0  0
   -5.2410    2.9268   -0.1212 H   0  0  0  0  0  0  0  0  0  0  0  0
   -1.9370    5.0161    1.1721 H   0  0  0  0  0  0  0  0  0  0  0  0
   -0.3819    3.2464    0.3835 H   0  0  0  0  0  0  0  0  0  0  0  0
    0.7831   -2.6144   -1.7816 H   0  0  0  0  0  0  0  0  0  0  0  0
    0.0252   -1.1573   -2.3588 H   0  0  0  0  0  0  0  0  0  0  0  0
   -1.3613   -3.7952   -1.6243 H   0  0  0  0  0  0  0  0  0  0  0  0
   -1.0044   -3.1925   -3.1956 H   0  0  0  0  0  0  0  0  0  0  0  0
   -3.5032   -3.2654   -0.6191 H   0  0  0  0  0  0  0  0  0  0  0  0
   -5.7077   -2.1437   -0.8859 H   0  0  0  0  0  0  0  0  0  0  0  0
   -4.4047    0.0115   -4.1449 H   0  0  0  0  0  0  0  0  0  0  0  0
   -2.1366   -1.0019   -4.0349 H   0  0  0  0  0  0  0  0  0  0  0  0
    2.8053    0.3369    2.8169 H   0  0  0  0  0  0  0  0  0  0  0  0
    4.1227   -1.5280    1.7828 H   0  0  0  0  0  0  0  0  0  0  0  0
    4.2092   -0.6179    0.2895 H   0  0  0  0  0  0  0  0  0  0  0  0
    6.1980    0.0012    1.2786 H   0  0  0  0  0  0  0  0  0  0  0  0
    5.5738   -0.0843    2.9142 H   0  0  0  0  0  0  0  0  0  0  0  0
    4.8064    2.0801    2.9242 H   0  0  0  0  0  0  0  0  0  0  0  0
    6.1053    2.2665    1.7565 H   0  0  0  0  0  0  0  0  0  0  0  0
    4.0502    3.3349    0.9043 H   0  0  0  0  0  0  0  0  0  0  0  0
    4.4662    1.9585   -0.1081 H   0  0  0  0  0  0  0  0  0  0  0  0
    2.1939    2.2674    1.8619 H   0  0  0  0  0  0  0  0  0  0  0  0
    2.1629    1.6977    0.2201 H   0  0  0  0  0  0  0  0  0  0  0  0
  1  2  2  0
  2  3  1  0
  3  4  1  0
  4  5  2  0
  4  6  1  0
  6  7  1  0
  7  8  1  0
  8  9  1  0
  9 10  2  0
 10 11  1  0
 11 12  2  0
 12 13  1  0
 13 14  2  0
  6 15  1  0
 15 16  1  0
 16 17  1  0
 17 18  2  0
 18 19  1  0
 19 20  2  0
 20 21  1  0
 21 22  2  0
  6 23  1  0
 23 24  2  0
 23 25  1  0
 25 26  1  0
 26 27  1  0
 27 28  1  0
 28 29  1  0
 29 30  1  0
 30 31  1  0
 25  2  1  0
 31 26  1  0
 14  9  1  0
 22 17  1  0
  3 32  1  0
  7 33  1  0
  7 34  1  0
  8 35  1  0
  8 36  1  0
 10 37  1  0
 11 38  1  0
 13 39  1  0
 14 40  1  0
 15 41  1  0
 15 42  1  0
 16 43  1  0
 16 44  1  0
 18 45  1  0
 19 46  1  0
 21 47  1  0
 22 48  1  0
 26 49  1  0
 27 50  1  0
 27 51  1  0
 28 52  1  0
 28 53  1  0
 29 54  1  0
 29 55  1  0
 30 56  1  0
 30 57  1  0
 31 58  1  0
 31 59  1  0
M  END
$$$$
