
     RDKit          3D

 33 35  0  0  0  0  0  0  0  0999 V2000
   -5.0109   -2.3377    0.4960 C   0  0  0  0  0  0  0  0  0  0  0  0
   -4.7152   -0.9050    0.1697 C   0  0  0  0  0  0  0  0  0  0  0  0
   -5.7441    0.0020    0.0217 C   0  0  0  0  0  0  0  0  0  0  0  0
   -5.3725    1.2907   -0.2781 C   0  0  0  0  0  0  0  0  0  0  0  0
   -4.0946    1.6800   -0.4241 N   0  0  0  0  0  0  0  0  0  0  0  0
   -3.1582    0.7322   -0.2553 C   0  0  0  0  0  0  0  0  0  0  0  0
   -1.4743    1.2444   -0.4627 S   0  0  0  0  0  0  0  0  0  0  0  0
   -0.6352   -0.1763    0.3004 C   0  0  0  0  0  0  0  0  0  0  0  0
    0.8422    0.0329    0.3368 C   0  0  0  0  0  0  0  0  0  0  0  0
    1.7426    0.0594   -0.7110 C   0  0  0  0  0  0  0  0  0  0  0  0
    2.9780    0.2840   -0.1517 N   0  0  0  0  0  0  0  0  0  0  0  0
    4.2406    0.4152   -0.7585 C   0  0  0  0  0  0  0  0  0  0  0  0
    4.3596    0.3157   -2.2484 C   0  0  0  0  0  0  0  0  0  0  0  0
    5.3066    0.6304    0.0412 C   0  0  0  0  0  0  0  0  0  0  0  0
    5.1238    0.7189    1.4809 C   0  0  0  0  0  0  0  0  0  0  0  0
    3.9087    0.5915    2.0451 C   0  0  0  0  0  0  0  0  0  0  0  0
    2.7703    0.3647    1.2239 C   0  0  0  0  0  0  0  0  0  0  0  0
    1.5008    0.2088    1.5347 N   0  0  0  0  0  0  0  0  0  0  0  0
   -3.4193   -0.5556    0.0310 N   0  0  0  0  0  0  0  0  0  0  0  0
   -4.0859   -2.9175    0.5785 H   0  0  0  0  0  0  0  0  0  0  0  0
   -5.6249   -2.7862   -0.2912 H   0  0  0  0  0  0  0  0  0  0  0  0
   -5.5422   -2.4066    1.4503 H   0  0  0  0  0  0  0  0  0  0  0  0
   -6.7835   -0.2761    0.1327 H   0  0  0  0  0  0  0  0  0  0  0  0
   -6.1134    2.0731   -0.4142 H   0  0  0  0  0  0  0  0  0  0  0  0
   -1.0074   -0.3161    1.3214 H   0  0  0  0  0  0  0  0  0  0  0  0
   -0.8494   -1.0858   -0.2717 H   0  0  0  0  0  0  0  0  0  0  0  0
    1.6019   -0.0465   -1.7764 H   0  0  0  0  0  0  0  0  0  0  0  0
    3.7632    1.0936   -2.7365 H   0  0  0  0  0  0  0  0  0  0  0  0
    5.3957    0.4385   -2.5822 H   0  0  0  0  0  0  0  0  0  0  0  0
    4.0156   -0.6630   -2.5990 H   0  0  0  0  0  0  0  0  0  0  0  0
    6.3120    0.7436   -0.3522 H   0  0  0  0  0  0  0  0  0  0  0  0
    6.0023    0.8941    2.0946 H   0  0  0  0  0  0  0  0  0  0  0  0
    3.7671    0.6587    3.1173 H   0  0  0  0  0  0  0  0  0  0  0  0
  1  2  1  0
  2  3  2  0
  3  4  1  0
  4  5  2  0
  5  6  1  0
  6  7  1  0
  7  8  1  0
  8  9  1  0
  9 10  2  0
 10 11  1  0
 11 12  1  0
 12 13  1  0
 12 14  2  0
 14 15  1  0
 15 16  2  0
 16 17  1  0
 17 18  2  0
  6 19  2  0
 19  2  1  0
 18  9  1  0
 17 11  1  0
  1 20  1  0
  1 21  1  0
  1 22  1  0
  3 23  1  0
  4 24  1  0
  8 25  1  0
  8 26  1  0
 10 27  1  0
 13 28  1  0
 13 29  1  0
 13 30  1  0
 14 31  1  0
 15 32  1  0
 16 33  1  0
M  END
$$$$
