
     RDKit          3D

 46 49  0  0  0  0  0  0  0  0999 V2000
    4.0071    2.4604    1.0320 C   0  0  0  0  0  0  0  0  0  0  0  0
    4.6438    1.1805    0.8018 N   0  0  0  0  0  0  0  0  0  0  0  0
    5.9095    1.2814    0.0781 C   0  0  0  0  0  0  0  0  0  0  0  0
    6.1648   -0.1279   -0.4416 C   0  0  0  0  0  0  0  0  0  0  0  0
    4.9246   -0.9221   -0.0540 C   0  0  0  0  0  0  0  0  0  0  0  0
    3.8352    0.1344    0.1576 C   0  0  0  0  0  0  0  0  0  0  0  0
    3.1486    0.4961   -1.1805 C   0  0  0  0  0  0  0  0  0  0  0  0
    1.7329    1.0605   -1.0225 C   0  0  0  0  0  0  0  0  0  0  0  0
    0.8134    0.0095   -0.5928 N   0  0  0  0  0  0  0  0  0  0  0  0
   -0.5472    0.2880   -0.4401 C   0  0  0  0  0  0  0  0  0  0  0  0
   -1.0608    1.5667   -0.2288 C   0  0  0  0  0  0  0  0  0  0  0  0
   -2.4289    1.7679   -0.0069 C   0  0  0  0  0  0  0  0  0  0  0  0
   -3.3239    0.6908    0.0383 C   0  0  0  0  0  0  0  0  0  0  0  0
   -5.0293    1.0758    0.3152 S   0  0  0  0  0  0  0  0  0  0  0  0
   -5.7939   -0.5177    0.4382 C   0  0  0  0  0  0  0  0  0  0  0  0
   -7.1653   -0.5397    0.7461 C   0  0  0  0  0  0  0  0  0  0  0  0
   -7.8613   -1.7451    0.8560 C   0  0  0  0  0  0  0  0  0  0  0  0
   -7.1948   -2.9478    0.6575 C   0  0  0  0  0  0  0  0  0  0  0  0
   -5.8347   -2.9396    0.3506 C   0  0  0  0  0  0  0  0  0  0  0  0
   -5.1274   -1.7278    0.2407 C   0  0  0  0  0  0  0  0  0  0  0  0
   -3.6843   -1.7999   -0.0863 C   0  0  0  0  0  0  0  0  0  0  0  0
   -3.1846   -2.8990   -0.3241 O   0  0  0  0  0  0  0  0  0  0  0  0
   -2.8225   -0.5961   -0.1323 C   0  0  0  0  0  0  0  0  0  0  0  0
   -1.4434   -0.7858   -0.3546 C   0  0  0  0  0  0  0  0  0  0  0  0
    3.7724    2.9895    0.1026 H   0  0  0  0  0  0  0  0  0  0  0  0
    3.0853    2.3349    1.6096 H   0  0  0  0  0  0  0  0  0  0  0  0
    4.6622    3.1072    1.6263 H   0  0  0  0  0  0  0  0  0  0  0  0
    6.7165    1.6116    0.7403 H   0  0  0  0  0  0  0  0  0  0  0  0
    5.8520    1.9812   -0.7644 H   0  0  0  0  0  0  0  0  0  0  0  0
    6.2856   -0.1142   -1.5307 H   0  0  0  0  0  0  0  0  0  0  0  0
    7.0656   -0.5715   -0.0053 H   0  0  0  0  0  0  0  0  0  0  0  0
    5.1162   -1.4516    0.8890 H   0  0  0  0  0  0  0  0  0  0  0  0
    4.6689   -1.6777   -0.8033 H   0  0  0  0  0  0  0  0  0  0  0  0
    3.0955   -0.2598    0.8637 H   0  0  0  0  0  0  0  0  0  0  0  0
    3.7544    1.2236   -1.7344 H   0  0  0  0  0  0  0  0  0  0  0  0
    3.0943   -0.3951   -1.8195 H   0  0  0  0  0  0  0  0  0  0  0  0
    1.4056    1.4494   -1.9945 H   0  0  0  0  0  0  0  0  0  0  0  0
    1.7331    1.8893   -0.3109 H   0  0  0  0  0  0  0  0  0  0  0  0
    0.9581   -0.8737   -1.0796 H   0  0  0  0  0  0  0  0  0  0  0  0
   -0.4144    2.4389   -0.2277 H   0  0  0  0  0  0  0  0  0  0  0  0
   -2.7848    2.7865    0.1398 H   0  0  0  0  0  0  0  0  0  0  0  0
   -7.7089    0.3907    0.9036 H   0  0  0  0  0  0  0  0  0  0  0  0
   -8.9220   -1.7415    1.0953 H   0  0  0  0  0  0  0  0  0  0  0  0
   -7.7284   -3.8914    0.7401 H   0  0  0  0  0  0  0  0  0  0  0  0
   -5.3229   -3.8887    0.1973 H   0  0  0  0  0  0  0  0  0  0  0  0
   -1.0620   -1.8008   -0.4612 H   0  0  0  0  0  0  0  0  0  0  0  0
  1  2  1  0
  2  3  1  0
  3  4  1  0
  4  5  1  0
  5  6  1  0
  6  7  1  0
  7  8  1  0
  8  9  1  0
  9 10  1  0
 10 11  2  0
 11 12  1  0
 12 13  2  0
 13 14  1  0
 14 15  1  0
 15 16  2  0
 16 17  1  0
 17 18  2  0
 18 19  1  0
 19 20  2  0
 20 21  1  0
 21 22  2  0
 21 23  1  0
 23 24  2  0
  6  2  1  0
 24 10  1  0
 23 13  1  0
 20 15  1  0
  1 25  1  0
  1 26  1  0
  1 27  1  0
  3 28  1  0
  3 29  1  0
  4 30  1  0
  4 31  1  0
  5 32  1  0
  5 33  1  0
  6 34  1  0
  7 35  1  0
  7 36  1  0
  8 37  1  0
  8 38  1  0
  9 39  1  0
 11 40  1  0
 12 41  1  0
 16 42  1  0
 17 43  1  0
 18 44  1  0
 19 45  1  0
 24 46  1  0
M  END
$$$$
