
     RDKit          3D

 49 51  0  0  0  0  0  0  0  0999 V2000
    4.8783    1.4041    2.5105 C   0  0  0  0  0  0  0  0  0  0  0  0
    4.9475    0.4148    1.4925 O   0  0  0  0  0  0  0  0  0  0  0  0
    3.8927    0.3348    0.6216 C   0  0  0  0  0  0  0  0  0  0  0  0
    2.8454    1.2580    0.5479 C   0  0  0  0  0  0  0  0  0  0  0  0
    1.7935    1.0655   -0.3603 C   0  0  0  0  0  0  0  0  0  0  0  0
    1.7812   -0.0487   -1.2134 C   0  0  0  0  0  0  0  0  0  0  0  0
    2.8368   -0.9619   -1.1560 C   0  0  0  0  0  0  0  0  0  0  0  0
    3.8874   -0.7601   -0.2573 C   0  0  0  0  0  0  0  0  0  0  0  0
    4.8735   -1.7167   -0.2311 O   0  0  0  0  0  0  0  0  0  0  0  0
    6.0397   -1.2449   -0.9058 C   0  0  0  0  0  0  0  0  0  0  0  0
    0.6802   -0.1930   -2.2353 C   0  0  0  0  0  0  0  0  0  0  0  0
   -0.6317    0.3286   -1.8096 N   0  0  0  0  0  0  0  0  0  0  0  0
   -1.7645    0.1095   -2.5820 C   0  0  0  0  0  0  0  0  0  0  0  0
   -1.7499   -0.2637   -4.2221 S   0  0  0  0  0  0  0  0  0  0  0  0
   -2.9931    0.3139   -2.0236 N   0  0  0  0  0  0  0  0  0  0  0  0
   -3.4961   -0.0237   -0.7466 C   0  0  0  0  0  0  0  0  0  0  0  0
   -4.6024    0.7314   -0.3274 C   0  0  0  0  0  0  0  0  0  0  0  0
   -5.1805    0.5325    0.9275 C   0  0  0  0  0  0  0  0  0  0  0  0
   -4.6697   -0.4380    1.7880 C   0  0  0  0  0  0  0  0  0  0  0  0
   -5.2995   -0.6719    3.1293 C   0  0  0  0  0  0  0  0  0  0  0  0
   -3.6083   -1.2377    1.3479 C   0  0  0  0  0  0  0  0  0  0  0  0
   -3.0266   -1.0653    0.0738 C   0  0  0  0  0  0  0  0  0  0  0  0
   -1.9741   -2.0605   -0.3329 C   0  0  0  0  0  0  0  0  0  0  0  0
   -0.6542    1.2566   -0.6615 C   0  0  0  0  0  0  0  0  0  0  0  0
    0.6493    2.0355   -0.4705 C   0  0  0  0  0  0  0  0  0  0  0  0
    4.9384    2.4103    2.0832 H   0  0  0  0  0  0  0  0  0  0  0  0
    3.9771    1.2858    3.1215 H   0  0  0  0  0  0  0  0  0  0  0  0
    5.7439    1.2697    3.1661 H   0  0  0  0  0  0  0  0  0  0  0  0
    2.8197    2.1324    1.1898 H   0  0  0  0  0  0  0  0  0  0  0  0
    2.8561   -1.8290   -1.8112 H   0  0  0  0  0  0  0  0  0  0  0  0
    5.8069   -0.9324   -1.9315 H   0  0  0  0  0  0  0  0  0  0  0  0
    6.7522   -2.0746   -0.9592 H   0  0  0  0  0  0  0  0  0  0  0  0
    6.5209   -0.4265   -0.3587 H   0  0  0  0  0  0  0  0  0  0  0  0
    0.5495   -1.2499   -2.4979 H   0  0  0  0  0  0  0  0  0  0  0  0
    0.9857    0.3517   -3.1374 H   0  0  0  0  0  0  0  0  0  0  0  0
   -3.7084    0.5469   -2.7047 H   0  0  0  0  0  0  0  0  0  0  0  0
   -5.0053    1.5155   -0.9649 H   0  0  0  0  0  0  0  0  0  0  0  0
   -6.0256    1.1468    1.2292 H   0  0  0  0  0  0  0  0  0  0  0  0
   -6.1779   -1.3158    3.0230 H   0  0  0  0  0  0  0  0  0  0  0  0
   -5.6047    0.2759    3.5841 H   0  0  0  0  0  0  0  0  0  0  0  0
   -4.5952   -1.1504    3.8177 H   0  0  0  0  0  0  0  0  0  0  0  0
   -3.2399   -2.0311    1.9981 H   0  0  0  0  0  0  0  0  0  0  0  0
   -2.1335   -3.0195    0.1735 H   0  0  0  0  0  0  0  0  0  0  0  0
   -0.9773   -1.7077   -0.0613 H   0  0  0  0  0  0  0  0  0  0  0  0
   -2.0196   -2.2815   -1.4020 H   0  0  0  0  0  0  0  0  0  0  0  0
   -0.8425    0.6605    0.2376 H   0  0  0  0  0  0  0  0  0  0  0  0
   -1.4777    1.9692   -0.7759 H   0  0  0  0  0  0  0  0  0  0  0  0
    0.8293    2.7019   -1.3225 H   0  0  0  0  0  0  0  0  0  0  0  0
    0.5731    2.6525    0.4320 H   0  0  0  0  0  0  0  0  0  0  0  0
  1  2  1  0
  2  3  1  0
  3  4  2  0
  4  5  1  0
  5  6  2  0
  6  7  1  0
  7  8  2  0
  8  9  1  0
  9 10  1  0
  6 11  1  0
 11 12  1  0
 12 13  1  0
 13 14  2  0
 13 15  1  0
 15 16  1  0
 16 17  2  0
 17 18  1  0
 18 19  2  0
 19 20  1  0
 19 21  1  0
 21 22  2  0
 22 23  1  0
 12 24  1  0
 24 25  1  0
  8  3  1  0
 22 16  1  0
 25  5  1  0
  1 26  1  0
  1 27  1  0
  1 28  1  0
  4 29  1  0
  7 30  1  0
 10 31  1  0
 10 32  1  0
 10 33  1  0
 11 34  1  0
 11 35  1  0
 15 36  1  0
 17 37  1  0
 18 38  1  0
 20 39  1  0
 20 40  1  0
 20 41  1  0
 21 42  1  0
 23 43  1  0
 23 44  1  0
 23 45  1  0
 24 46  1  0
 24 47  1  0
 25 48  1  0
 25 49  1  0
M  END
$$$$
