
     RDKit          3D

 33 35  0  0  0  0  0  0  0  0999 V2000
    1.5653    1.5901   -1.5037 O   0  0  0  0  0  0  0  0  0  0  0  0
    1.7055    0.7785   -0.5966 C   0  0  0  0  0  0  0  0  0  0  0  0
    0.7246    0.1059    0.1025 N   0  0  0  0  0  0  0  0  0  0  0  0
   -0.6479    0.1583   -0.0941 C   0  0  0  0  0  0  0  0  0  0  0  0
   -1.3301    1.1450   -1.3234 S   0  0  0  0  0  0  0  0  0  0  0  0
   -2.8670    0.6538   -0.9137 C   0  0  0  0  0  0  0  0  0  0  0  0
   -2.9054   -0.2333    0.1227 C   0  0  0  0  0  0  0  0  0  0  0  0
   -1.6135   -0.5436    0.6337 C   0  0  0  0  0  0  0  0  0  0  0  0
   -1.3578   -1.4511    1.7396 C   0  0  0  0  0  0  0  0  0  0  0  0
   -2.2087   -2.0754    2.3576 O   0  0  0  0  0  0  0  0  0  0  0  0
   -0.0541   -1.5865    2.0901 O   0  0  0  0  0  0  0  0  0  0  0  0
   -4.3042   -0.6259    0.4354 C   0  0  0  0  0  0  0  0  0  0  0  0
   -5.0842   -0.0957   -0.8092 C   0  0  0  0  0  0  0  0  0  0  0  0
   -4.1949    1.0046   -1.4654 C   0  0  0  0  0  0  0  0  0  0  0  0
    3.0947    0.5254   -0.1255 C   0  0  0  0  0  0  0  0  0  0  0  0
    3.9197    1.6535    0.0237 C   0  0  0  0  0  0  0  0  0  0  0  0
    5.2359    1.5181    0.4670 C   0  0  0  0  0  0  0  0  0  0  0  0
    5.7434    0.2544    0.7565 C   0  0  0  0  0  0  0  0  0  0  0  0
    4.9380   -0.8742    0.5940 C   0  0  0  0  0  0  0  0  0  0  0  0
    3.6161   -0.7455    0.1489 C   0  0  0  0  0  0  0  0  0  0  0  0
    2.7192   -2.2061   -0.0700 Cl  0  0  0  0  0  0  0  0  0  0  0  0
    1.0130   -0.5265    0.8463 H   0  0  0  0  0  0  0  0  0  0  0  0
   -0.1088   -2.2332    2.8263 H   0  0  0  0  0  0  0  0  0  0  0  0
   -4.6482   -0.1237    1.3456 H   0  0  0  0  0  0  0  0  0  0  0  0
   -4.4287   -1.7065    0.5456 H   0  0  0  0  0  0  0  0  0  0  0  0
   -5.2165   -0.9196   -1.5232 H   0  0  0  0  0  0  0  0  0  0  0  0
   -6.0803    0.2750   -0.5483 H   0  0  0  0  0  0  0  0  0  0  0  0
   -4.5057    1.9995   -1.1307 H   0  0  0  0  0  0  0  0  0  0  0  0
   -4.2401    0.9520   -2.5565 H   0  0  0  0  0  0  0  0  0  0  0  0
    3.5321    2.6449   -0.2089 H   0  0  0  0  0  0  0  0  0  0  0  0
    5.8642    2.3990    0.5795 H   0  0  0  0  0  0  0  0  0  0  0  0
    6.7708    0.1456    1.0969 H   0  0  0  0  0  0  0  0  0  0  0  0
    5.3536   -1.8570    0.8059 H   0  0  0  0  0  0  0  0  0  0  0  0
  1  2  2  0
  2  3  1  0
  3  4  1  0
  4  5  1  0
  5  6  1  0
  6  7  2  0
  7  8  1  0
  8  9  1  0
  9 10  2  0
  9 11  1  0
  7 12  1  0
 12 13  1  0
 13 14  1  0
  2 15  1  0
 15 16  2  0
 16 17  1  0
 17 18  2  0
 18 19  1  0
 19 20  2  0
 20 21  1  0
  8  4  2  0
 20 15  1  0
 14  6  1  0
  3 22  1  0
 11 23  1  0
 12 24  1  0
 12 25  1  0
 13 26  1  0
 13 27  1  0
 14 28  1  0
 14 29  1  0
 16 30  1  0
 17 31  1  0
 18 32  1  0
 19 33  1  0
M  END
$$$$
