
     RDKit          3D

 47 50  0  0  0  0  0  0  0  0999 V2000
   -2.3339   -0.2811    3.1363 O   0  0  0  0  0  0  0  0  0  0  0  0
   -2.8644   -0.3340    2.0135 C   0  0  0  0  0  0  0  0  0  0  0  0
   -4.2536   -0.9862    1.9195 C   0  0  0  0  0  0  0  0  0  0  0  0
   -4.6694   -2.0249    0.8531 C   0  0  0  0  0  0  0  0  0  0  0  0
   -6.1031   -1.4605    0.9523 C   0  0  0  0  0  0  0  0  0  0  0  0
   -5.4923   -0.1550    1.5050 C   0  0  0  0  0  0  0  0  0  0  0  0
   -2.2346    0.1969    0.8877 N   0  0  0  0  0  0  0  0  0  0  0  0
   -2.6761    0.1169   -0.5159 C   0  0  0  0  0  0  0  0  0  0  0  0
   -1.7870    1.0558   -1.3380 C   0  0  0  0  0  0  0  0  0  0  0  0
   -0.6563    1.2926   -0.3936 C   0  0  0  0  0  0  0  0  0  0  0  0
    0.5374    1.9457   -0.6661 C   0  0  0  0  0  0  0  0  0  0  0  0
    1.4442    2.1121    0.3855 C   0  0  0  0  0  0  0  0  0  0  0  0
    2.9924    2.9261    0.0653 S   0  0  0  0  0  6  0  0  0  0  0  0
    2.7042    4.0858   -0.7484 O   0  0  0  0  0  0  0  0  0  0  0  0
    3.7199    3.0236    1.3121 O   0  0  0  0  0  0  0  0  0  0  0  0
    3.7959    1.8253   -0.9007 N   0  0  0  0  0  0  0  0  0  0  0  0
    4.1581    0.5251   -0.3165 C   0  0  0  0  0  0  0  0  0  0  0  0
    4.4003   -0.5049   -1.4048 C   0  0  0  0  0  0  0  0  0  0  0  0
    5.3202   -1.5352   -1.2168 C   0  0  0  0  0  0  0  0  0  0  0  0
    5.4821   -2.4830   -2.2262 C   0  0  0  0  0  0  0  0  0  0  0  0
    4.7203   -2.3856   -3.3825 C   0  0  0  0  0  0  0  0  0  0  0  0
    3.8194   -1.3345   -3.4888 C   0  0  0  0  0  0  0  0  0  0  0  0
    3.6369   -0.3952   -2.5315 N   0  0  0  0  0  0  0  0  0  0  0  0
    1.1425    1.6639    1.6815 C   0  0  0  0  0  0  0  0  0  0  0  0
   -0.0722    1.0154    1.9351 C   0  0  0  0  0  0  0  0  0  0  0  0
   -0.9645    0.8263    0.8891 C   0  0  0  0  0  0  0  0  0  0  0  0
   -4.4580   -1.4333    2.9120 H   0  0  0  0  0  0  0  0  0  0  0  0
   -4.5631   -3.0716    1.1587 H   0  0  0  0  0  0  0  0  0  0  0  0
   -4.2439   -1.9223   -0.1453 H   0  0  0  0  0  0  0  0  0  0  0  0
   -6.7347   -1.9910    1.6750 H   0  0  0  0  0  0  0  0  0  0  0  0
   -6.6446   -1.3684    0.0065 H   0  0  0  0  0  0  0  0  0  0  0  0
   -6.0474    0.3003    2.3312 H   0  0  0  0  0  0  0  0  0  0  0  0
   -5.3217    0.6146    0.7467 H   0  0  0  0  0  0  0  0  0  0  0  0
   -2.5185   -0.9169   -0.8458 H   0  0  0  0  0  0  0  0  0  0  0  0
   -3.7319    0.3664   -0.6290 H   0  0  0  0  0  0  0  0  0  0  0  0
   -2.3027    1.9982   -1.5476 H   0  0  0  0  0  0  0  0  0  0  0  0
   -1.4673    0.5910   -2.2742 H   0  0  0  0  0  0  0  0  0  0  0  0
    0.7548    2.3235   -1.6610 H   0  0  0  0  0  0  0  0  0  0  0  0
    3.4183    1.7403   -1.8488 H   0  0  0  0  0  0  0  0  0  0  0  0
    5.0559    0.6537    0.3003 H   0  0  0  0  0  0  0  0  0  0  0  0
    3.3517    0.1321    0.3118 H   0  0  0  0  0  0  0  0  0  0  0  0
    5.9057   -1.6080   -0.3029 H   0  0  0  0  0  0  0  0  0  0  0  0
    6.1974   -3.2964   -2.1087 H   0  0  0  0  0  0  0  0  0  0  0  0
    4.8233   -3.1124   -4.1834 H   0  0  0  0  0  0  0  0  0  0  0  0
    3.1983   -1.2200   -4.3754 H   0  0  0  0  0  0  0  0  0  0  0  0
    1.8451    1.8147    2.5005 H   0  0  0  0  0  0  0  0  0  0  0  0
   -0.2832    0.6737    2.9430 H   0  0  0  0  0  0  0  0  0  0  0  0
  1  2  2  0
  2  3  1  0
  3  4  1  0
  4  5  1  0
  5  6  1  0
  2  7  1  0
  7  8  1  0
  8  9  1  0
  9 10  1  0
 10 11  2  0
 11 12  1  0
 12 13  1  0
 13 14  2  0
 13 15  2  0
 13 16  1  0
 16 17  1  0
 17 18  1  0
 18 19  2  0
 19 20  1  0
 20 21  2  0
 21 22  1  0
 22 23  2  0
 12 24  2  0
 24 25  1  0
 25 26  2  0
  6  3  1  0
 26  7  1  0
 26 10  1  0
 23 18  1  0
  3 27  1  0
  4 28  1  0
  4 29  1  0
  5 30  1  0
  5 31  1  0
  6 32  1  0
  6 33  1  0
  8 34  1  0
  8 35  1  0
  9 36  1  0
  9 37  1  0
 11 38  1  0
 16 39  1  0
 17 40  1  0
 17 41  1  0
 19 42  1  0
 20 43  1  0
 21 44  1  0
 22 45  1  0
 24 46  1  0
 25 47  1  0
M  END
$$$$
