
     RDKit          3D

 43 45  0  0  0  0  0  0  0  0999 V2000
    2.3611    3.3668    0.6717 O   0  0  0  0  0  0  0  0  0  0  0  0
    2.4912    2.1726    0.3778 C   0  0  0  0  0  0  0  0  0  0  0  0
    3.8370    1.4733    0.6796 C   0  0  0  0  0  0  0  0  0  0  0  0
    4.8050    1.6174   -0.4845 C   0  0  0  0  0  0  0  0  0  0  0  0
    5.8180    0.5439   -0.1796 C   0  0  0  0  0  0  0  0  0  0  0  0
    4.9584   -0.5507    0.4126 C   0  0  0  0  0  0  0  0  0  0  0  0
    3.8236    0.0846    1.0197 O   0  0  0  0  0  0  0  0  0  0  0  0
    1.4803    1.4825   -0.2733 N   0  0  0  0  0  0  0  0  0  0  0  0
    1.5564    0.0799   -0.6930 C   0  0  0  0  0  0  0  0  0  0  0  0
    0.4104   -0.3263   -1.6335 C   0  0  0  0  0  0  0  0  0  0  0  0
   -0.9151   -0.0522   -1.0356 N   0  0  0  0  0  0  0  0  0  0  0  0
   -1.9297   -1.0316   -0.9309 C   0  0  0  0  0  0  0  0  0  0  0  0
   -1.7849   -2.6005   -1.5243 S   0  0  0  0  0  0  0  0  0  0  0  0
   -3.0896   -0.5373   -0.3437 N   0  0  0  0  0  0  0  0  0  0  0  0
   -4.1117   -1.2103    0.3621 C   0  0  0  0  0  0  0  0  0  0  0  0
   -3.9088   -2.4048    1.0608 C   0  0  0  0  0  0  0  0  0  0  0  0
   -4.9574   -2.9955    1.7724 C   0  0  0  0  0  0  0  0  0  0  0  0
   -6.2019   -2.3811    1.7991 C   0  0  0  0  0  0  0  0  0  0  0  0
   -7.2048   -2.9457    2.4838 F   0  0  0  0  0  0  0  0  0  0  0  0
   -6.4162   -1.1803    1.1359 C   0  0  0  0  0  0  0  0  0  0  0  0
   -5.3680   -0.5900    0.4254 C   0  0  0  0  0  0  0  0  0  0  0  0
   -1.0018    1.2421   -0.3236 C   0  0  0  0  0  0  0  0  0  0  0  0
    0.2105    2.1622   -0.5334 C   0  0  0  0  0  0  0  0  0  0  0  0
    4.2497    1.9831    1.5608 H   0  0  0  0  0  0  0  0  0  0  0  0
    5.2446    2.6175   -0.5458 H   0  0  0  0  0  0  0  0  0  0  0  0
    4.3123    1.4119   -1.4418 H   0  0  0  0  0  0  0  0  0  0  0  0
    6.5277    0.9077    0.5729 H   0  0  0  0  0  0  0  0  0  0  0  0
    6.3880    0.2150   -1.0524 H   0  0  0  0  0  0  0  0  0  0  0  0
    4.5876   -1.2278   -0.3638 H   0  0  0  0  0  0  0  0  0  0  0  0
    5.4920   -1.1427    1.1616 H   0  0  0  0  0  0  0  0  0  0  0  0
    1.5158   -0.5325    0.2147 H   0  0  0  0  0  0  0  0  0  0  0  0
    2.5111   -0.0937   -1.1948 H   0  0  0  0  0  0  0  0  0  0  0  0
    0.4593    0.2615   -2.5585 H   0  0  0  0  0  0  0  0  0  0  0  0
    0.5414   -1.3719   -1.9141 H   0  0  0  0  0  0  0  0  0  0  0  0
   -3.3432    0.3838   -0.6710 H   0  0  0  0  0  0  0  0  0  0  0  0
   -2.9349   -2.8831    1.0948 H   0  0  0  0  0  0  0  0  0  0  0  0
   -4.8035   -3.9249    2.3114 H   0  0  0  0  0  0  0  0  0  0  0  0
   -7.3940   -0.7116    1.1764 H   0  0  0  0  0  0  0  0  0  0  0  0
   -5.5525    0.3497   -0.0884 H   0  0  0  0  0  0  0  0  0  0  0  0
   -1.9023    1.7712   -0.6507 H   0  0  0  0  0  0  0  0  0  0  0  0
   -1.1097    1.0128    0.7437 H   0  0  0  0  0  0  0  0  0  0  0  0
    0.2455    2.5025   -1.5756 H   0  0  0  0  0  0  0  0  0  0  0  0
    0.1031    3.0526    0.0946 H   0  0  0  0  0  0  0  0  0  0  0  0
  1  2  2  0
  2  3  1  0
  3  4  1  0
  4  5  1  0
  5  6  1  0
  6  7  1  0
  2  8  1  0
  8  9  1  0
  9 10  1  0
 10 11  1  0
 11 12  1  0
 12 13  2  0
 12 14  1  0
 14 15  1  0
 15 16  2  0
 16 17  1  0
 17 18  2  0
 18 19  1  0
 18 20  1  0
 20 21  2  0
 11 22  1  0
 22 23  1  0
  7  3  1  0
 23  8  1  0
 21 15  1  0
  3 24  1  0
  4 25  1  0
  4 26  1  0
  5 27  1  0
  5 28  1  0
  6 29  1  0
  6 30  1  0
  9 31  1  0
  9 32  1  0
 10 33  1  0
 10 34  1  0
 14 35  1  0
 16 36  1  0
 17 37  1  0
 20 38  1  0
 21 39  1  0
 22 40  1  0
 22 41  1  0
 23 42  1  0
 23 43  1  0
M  END
$$$$
