
     RDKit          3D

 61 66  0  0  0  0  0  0  0  0999 V2000
   -2.4006   -2.1267    1.3555 O   0  0  0  0  0  0  0  0  0  0  0  0
   -2.7835   -1.6772    0.2725 C   0  0  0  0  0  0  0  0  0  0  0  0
   -2.0352   -2.0373   -0.9990 C   0  0  0  0  0  0  0  0  0  0  0  0
   -0.6247   -2.2121   -0.7302 N   0  0  0  0  0  0  0  0  0  0  0  0
   -0.0359   -3.4173   -0.8165 N   0  0  0  0  0  0  0  0  0  0  0  0
    1.2567   -3.1704   -0.6635 N   0  0  0  0  0  0  0  0  0  0  0  0
    1.3942   -1.8050   -0.5414 C   0  0  0  0  0  0  0  0  0  0  0  0
    2.6831   -1.1534   -0.3542 C   0  0  0  0  0  0  0  0  0  0  0  0
    2.7754    0.2299   -0.1843 C   0  0  0  0  0  0  0  0  0  0  0  0
    4.0213    0.8471    0.0050 C   0  0  0  0  0  0  0  0  0  0  0  0
    5.2198    0.1175    0.0326 C   0  0  0  0  0  0  0  0  0  0  0  0
    6.4430    0.7338    0.2206 N   0  0  0  0  0  0  0  0  0  0  0  0
    7.7145    0.0729   -0.1125 C   0  0  0  0  0  0  0  0  0  0  0  0
    8.8077    1.1283   -0.3513 C   0  0  0  0  0  0  0  0  0  0  0  0
    9.0535    1.9815    0.7757 O   0  0  0  0  0  0  0  0  0  0  0  0
    7.9026    2.1578    1.6133 C   0  0  0  0  0  0  0  0  0  0  0  0
    6.5599    2.0501    0.8697 C   0  0  0  0  0  0  0  0  0  0  0  0
    5.1052   -1.2697   -0.1475 C   0  0  0  0  0  0  0  0  0  0  0  0
    3.8644   -1.8987   -0.3343 C   0  0  0  0  0  0  0  0  0  0  0  0
    0.2161   -1.1609   -0.6356 N   0  0  0  0  0  0  0  0  0  0  0  0
   -3.8624   -0.7759    0.1169 N   0  0  0  0  0  0  0  0  0  0  0  0
   -4.5961   -0.2466    1.2425 C   0  0  0  0  0  0  0  0  0  0  0  0
   -4.8009   -1.0721    2.3690 C   0  0  0  0  0  0  0  0  0  0  0  0
   -5.5332   -0.6496    3.4814 C   0  0  0  0  0  0  0  0  0  0  0  0
   -6.0889    0.6177    3.4986 C   0  0  0  0  0  0  0  0  0  0  0  0
   -5.9009    1.4583    2.4065 C   0  0  0  0  0  0  0  0  0  0  0  0
   -5.1528    1.0553    1.2732 C   0  0  0  0  0  0  0  0  0  0  0  0
   -4.9972    2.1322    0.2154 C   0  0  0  0  0  0  0  0  0  0  0  0
   -4.0712    1.8581   -0.9605 C   0  0  0  0  0  0  0  0  0  0  0  0
   -4.5783    0.6731   -1.7268 C   0  0  0  0  0  0  0  0  0  0  0  0
   -5.1495    0.8221   -2.9977 C   0  0  0  0  0  0  0  0  0  0  0  0
   -5.6375   -0.2888   -3.6853 C   0  0  0  0  0  0  0  0  0  0  0  0
   -5.5657   -1.5539   -3.1077 C   0  0  0  0  0  0  0  0  0  0  0  0
   -4.9960   -1.7100   -1.8442 C   0  0  0  0  0  0  0  0  0  0  0  0
   -4.4951   -0.5987   -1.1491 C   0  0  0  0  0  0  0  0  0  0  0  0
   -2.0986   -1.2573   -1.7626 H   0  0  0  0  0  0  0  0  0  0  0  0
   -2.4268   -2.9784   -1.3970 H   0  0  0  0  0  0  0  0  0  0  0  0
    1.8789    0.8471   -0.1976 H   0  0  0  0  0  0  0  0  0  0  0  0
    4.0310    1.9285    0.1095 H   0  0  0  0  0  0  0  0  0  0  0  0
    8.0051   -0.5839    0.7160 H   0  0  0  0  0  0  0  0  0  0  0  0
    7.6198   -0.5266   -1.0252 H   0  0  0  0  0  0  0  0  0  0  0  0
    8.5352    1.7709   -1.1972 H   0  0  0  0  0  0  0  0  0  0  0  0
    9.7536    0.6395   -0.6054 H   0  0  0  0  0  0  0  0  0  0  0  0
    7.9907    3.1397    2.0889 H   0  0  0  0  0  0  0  0  0  0  0  0
    7.9553    1.4054    2.4089 H   0  0  0  0  0  0  0  0  0  0  0  0
    5.7598    2.2090    1.6015 H   0  0  0  0  0  0  0  0  0  0  0  0
    6.4951    2.8290    0.1015 H   0  0  0  0  0  0  0  0  0  0  0  0
    5.9859   -1.9056   -0.1206 H   0  0  0  0  0  0  0  0  0  0  0  0
    3.8390   -2.9797   -0.4580 H   0  0  0  0  0  0  0  0  0  0  0  0
   -4.4245   -2.0920    2.3941 H   0  0  0  0  0  0  0  0  0  0  0  0
   -5.6704   -1.3208    4.3251 H   0  0  0  0  0  0  0  0  0  0  0  0
   -6.6618    0.9542    4.3582 H   0  0  0  0  0  0  0  0  0  0  0  0
   -6.3354    2.4566    2.4421 H   0  0  0  0  0  0  0  0  0  0  0  0
   -6.0003    2.3677   -0.1673 H   0  0  0  0  0  0  0  0  0  0  0  0
   -4.6246    3.0378    0.7134 H   0  0  0  0  0  0  0  0  0  0  0  0
   -4.0353    2.7425   -1.6084 H   0  0  0  0  0  0  0  0  0  0  0  0
   -3.0403    1.6826   -0.6285 H   0  0  0  0  0  0  0  0  0  0  0  0
   -5.2236    1.8052   -3.4578 H   0  0  0  0  0  0  0  0  0  0  0  0
   -6.0844   -0.1651   -4.6690 H   0  0  0  0  0  0  0  0  0  0  0  0
   -5.9614   -2.4166   -3.6380 H   0  0  0  0  0  0  0  0  0  0  0  0
   -4.9744   -2.7008   -1.3966 H   0  0  0  0  0  0  0  0  0  0  0  0
  1  2  2  0
  2  3  1  0
  3  4  1  0
  4  5  1  0
  5  6  2  0
  6  7  1  0
  7  8  1  0
  8  9  2  0
  9 10  1  0
 10 11  2  0
 11 12  1  0
 12 13  1  0
 13 14  1  0
 14 15  1  0
 15 16  1  0
 16 17  1  0
 11 18  1  0
 18 19  2  0
  7 20  2  0
  2 21  1  0
 21 22  1  0
 22 23  2  0
 23 24  1  0
 24 25  2  0
 25 26  1  0
 26 27  2  0
 27 28  1  0
 28 29  1  0
 29 30  1  0
 30 31  2  0
 31 32  1  0
 32 33  2  0
 33 34  1  0
 34 35  2  0
 20  4  1  0
 35 21  1  0
 19  8  1  0
 27 22  1  0
 35 30  1  0
 17 12  1  0
  3 36  1  0
  3 37  1  0
  9 38  1  0
 10 39  1  0
 13 40  1  0
 13 41  1  0
 14 42  1  0
 14 43  1  0
 16 44  1  0
 16 45  1  0
 17 46  1  0
 17 47  1  0
 18 48  1  0
 19 49  1  0
 23 50  1  0
 24 51  1  0
 25 52  1  0
 26 53  1  0
 28 54  1  0
 28 55  1  0
 29 56  1  0
 29 57  1  0
 31 58  1  0
 32 59  1  0
 33 60  1  0
 34 61  1  0
M  END
$$$$
