
     RDKit          3D

 50 53  0  0  0  0  0  0  0  0999 V2000
    7.4914    0.3785   -2.4003 C   0  0  0  0  0  0  0  0  0  0  0  0
    6.3196    0.4109   -1.4702 C   0  0  0  0  0  0  0  0  0  0  0  0
    5.0180    0.3666   -1.9669 C   0  0  0  0  0  0  0  0  0  0  0  0
    3.9202    0.3930   -1.1734 N   0  0  0  0  0  0  0  0  0  0  0  0
    4.1850    0.4712    0.1629 C   0  0  0  0  0  0  0  0  0  0  0  0
    3.0167    0.5033    1.0858 C   0  0  0  0  0  0  0  0  0  0  0  0
    3.1619    0.5258    2.3019 O   0  0  0  0  0  0  0  0  0  0  0  0
    1.7927    0.4940    0.4545 N   0  0  0  0  0  0  0  0  0  0  0  0
    0.5485    0.3781    1.1800 C   0  0  0  0  0  0  0  0  0  0  0  0
    0.2922   -1.0896    1.5969 C   0  0  0  0  0  0  0  0  0  0  0  0
   -1.1907   -1.3885    1.9663 C   0  0  0  0  0  0  0  0  0  0  0  0
   -1.6150   -0.5763    3.2070 C   0  0  0  0  0  0  0  0  0  0  0  0
   -1.3239   -2.8843    2.3103 C   0  0  0  0  0  0  0  0  0  0  0  0
   -2.1276   -1.0677    0.7584 C   0  0  0  0  0  0  0  0  0  0  0  0
   -1.7544    0.2231    0.1065 C   0  0  0  0  0  0  0  0  0  0  0  0
   -0.5520    0.8780    0.3096 C   0  0  0  0  0  0  0  0  0  0  0  0
   -0.6846    2.0853   -0.3833 C   0  0  0  0  0  0  0  0  0  0  0  0
   -1.8557    2.1864   -1.0058 N   0  0  0  0  0  0  0  0  0  0  0  0
   -2.5077    1.0113   -0.7562 N   0  0  0  0  0  0  0  0  0  0  0  0
   -3.7766    0.7827   -1.3756 C   0  0  0  0  0  0  0  0  0  0  0  0
   -4.4137    1.8564   -2.0253 C   0  0  0  0  0  0  0  0  0  0  0  0
   -5.6547    1.6861   -2.6443 C   0  0  0  0  0  0  0  0  0  0  0  0
   -6.2724    0.4400   -2.6323 C   0  0  0  0  0  0  0  0  0  0  0  0
   -5.6454   -0.6356   -2.0086 C   0  0  0  0  0  0  0  0  0  0  0  0
   -4.4020   -0.4690   -1.3862 C   0  0  0  0  0  0  0  0  0  0  0  0
    5.4739    0.5140    0.6681 C   0  0  0  0  0  0  0  0  0  0  0  0
    6.5667    0.4844   -0.1378 N   0  0  0  0  0  0  0  0  0  0  0  0
    7.4591    1.2357   -3.0798 H   0  0  0  0  0  0  0  0  0  0  0  0
    8.4325    0.4208   -1.8426 H   0  0  0  0  0  0  0  0  0  0  0  0
    7.4839   -0.5457   -2.9865 H   0  0  0  0  0  0  0  0  0  0  0  0
    4.8222    0.3080   -3.0331 H   0  0  0  0  0  0  0  0  0  0  0  0
    1.8052    0.3619   -0.5541 H   0  0  0  0  0  0  0  0  0  0  0  0
    0.6108    1.0037    2.0790 H   0  0  0  0  0  0  0  0  0  0  0  0
    0.5839   -1.7544    0.7703 H   0  0  0  0  0  0  0  0  0  0  0  0
    0.9540   -1.3490    2.4338 H   0  0  0  0  0  0  0  0  0  0  0  0
   -2.6326   -0.8393    3.5180 H   0  0  0  0  0  0  0  0  0  0  0  0
   -1.6014    0.5026    3.0247 H   0  0  0  0  0  0  0  0  0  0  0  0
   -0.9482   -0.7777    4.0530 H   0  0  0  0  0  0  0  0  0  0  0  0
   -2.3595   -3.1417    2.5596 H   0  0  0  0  0  0  0  0  0  0  0  0
   -0.6965   -3.1503    3.1684 H   0  0  0  0  0  0  0  0  0  0  0  0
   -1.0181   -3.5146    1.4677 H   0  0  0  0  0  0  0  0  0  0  0  0
   -3.1658   -1.0443    1.1077 H   0  0  0  0  0  0  0  0  0  0  0  0
   -2.0312   -1.8655    0.0113 H   0  0  0  0  0  0  0  0  0  0  0  0
    0.0193    2.9053   -0.4515 H   0  0  0  0  0  0  0  0  0  0  0  0
   -3.9567    2.8447   -2.0499 H   0  0  0  0  0  0  0  0  0  0  0  0
   -6.1341    2.5293   -3.1350 H   0  0  0  0  0  0  0  0  0  0  0  0
   -7.2366    0.3053   -3.1152 H   0  0  0  0  0  0  0  0  0  0  0  0
   -6.1209   -1.6137   -2.0139 H   0  0  0  0  0  0  0  0  0  0  0  0
   -3.9501   -1.3527   -0.9575 H   0  0  0  0  0  0  0  0  0  0  0  0
    5.6704    0.5739    1.7332 H   0  0  0  0  0  0  0  0  0  0  0  0
  1  2  1  0
  2  3  2  0
  3  4  1  0
  4  5  2  0
  5  6  1  0
  6  7  2  0
  6  8  1  0
  8  9  1  0
  9 10  1  0
 10 11  1  0
 11 12  1  0
 11 13  1  0
 11 14  1  0
 14 15  1  0
 15 16  2  0
 16 17  1  0
 17 18  2  0
 18 19  1  0
 19 20  1  0
 20 21  2  0
 21 22  1  0
 22 23  2  0
 23 24  1  0
 24 25  2  0
  5 26  1  0
 26 27  2  0
 27  2  1  0
 16  9  1  0
 25 20  1  0
 19 15  1  0
  1 28  1  0
  1 29  1  0
  1 30  1  0
  3 31  1  0
  8 32  1  0
  9 33  1  0
 10 34  1  0
 10 35  1  0
 12 36  1  0
 12 37  1  0
 12 38  1  0
 13 39  1  0
 13 40  1  0
 13 41  1  0
 14 42  1  0
 14 43  1  0
 17 44  1  0
 21 45  1  0
 22 46  1  0
 23 47  1  0
 24 48  1  0
 25 49  1  0
 26 50  1  0
M  END
$$$$
