
     RDKit          3D

 42 45  0  0  0  0  0  0  0  0999 V2000
   -4.0268    3.6213   -0.2241 C   0  0  0  0  0  0  0  0  0  0  0  0
   -2.7682    2.8880    0.1365 C   0  0  0  0  0  0  0  0  0  0  0  0
   -1.7281    3.5559    0.8062 C   0  0  0  0  0  0  0  0  0  0  0  0
   -0.5352    2.8975    1.1272 C   0  0  0  0  0  0  0  0  0  0  0  0
   -0.3802    1.5719    0.7560 C   0  0  0  0  0  0  0  0  0  0  0  0
   -1.4024    0.9091    0.0772 C   0  0  0  0  0  0  0  0  0  0  0  0
   -2.5961    1.5505   -0.2384 C   0  0  0  0  0  0  0  0  0  0  0  0
   -1.0346   -0.5157   -0.2214 C   0  0  0  0  0  0  0  0  0  0  0  0
   -1.0855   -0.8338   -1.7202 C   0  0  0  0  0  0  0  0  0  0  0  0
   -0.4015   -2.0764   -2.0904 N   0  0  0  0  0  0  0  0  0  0  0  0
   -1.2443   -3.2563   -1.9245 C   0  0  0  0  0  0  0  0  0  0  0  0
    0.9120   -2.2484   -1.4595 C   0  0  0  0  0  0  0  0  0  0  0  0
    1.4135   -1.0051   -0.7237 C   0  0  0  0  0  0  0  0  0  0  0  0
    0.4013   -0.6090    0.3603 C   0  0  0  0  0  0  0  0  0  0  0  0
    0.7074    0.7027    0.9938 N   0  0  0  0  0  0  0  0  0  0  0  0
    1.8702    1.0556    1.6848 C   0  0  0  0  0  0  0  0  0  0  0  0
    2.1713    2.2206    1.9404 O   0  0  0  0  0  0  0  0  0  0  0  0
    2.7325   -0.0309    2.1166 C   0  0  0  0  0  0  0  0  0  0  0  0
    2.4954   -1.1913    2.8333 C   0  0  0  0  0  0  0  0  0  0  0  0
    3.7429   -1.8479    2.9738 C   0  0  0  0  0  0  0  0  0  0  0  0
    4.6700   -1.0446    2.3524 C   0  0  0  0  0  0  0  0  0  0  0  0
    6.5318   -1.4108    2.2260 Br  0  0  0  0  0  0  0  0  0  0  0  0
    4.0706    0.0602    1.8387 O   0  0  0  0  0  0  0  0  0  0  0  0
   -4.2491    4.4015    0.5114 H   0  0  0  0  0  0  0  0  0  0  0  0
   -4.8838    2.9397   -0.2429 H   0  0  0  0  0  0  0  0  0  0  0  0
   -3.9204    4.0840   -1.2101 H   0  0  0  0  0  0  0  0  0  0  0  0
   -1.8420    4.6010    1.0880 H   0  0  0  0  0  0  0  0  0  0  0  0
    0.2385    3.4440    1.6554 H   0  0  0  0  0  0  0  0  0  0  0  0
   -3.3844    1.0214   -0.7667 H   0  0  0  0  0  0  0  0  0  0  0  0
   -1.6988   -1.1858    0.3389 H   0  0  0  0  0  0  0  0  0  0  0  0
   -0.6211   -0.0168   -2.2906 H   0  0  0  0  0  0  0  0  0  0  0  0
   -2.1262   -0.8474   -2.0705 H   0  0  0  0  0  0  0  0  0  0  0  0
   -2.1678   -3.1576   -2.5055 H   0  0  0  0  0  0  0  0  0  0  0  0
   -1.5128   -3.4271   -0.8761 H   0  0  0  0  0  0  0  0  0  0  0  0
   -0.7332   -4.1497   -2.3004 H   0  0  0  0  0  0  0  0  0  0  0  0
    0.8980   -3.0785   -0.7402 H   0  0  0  0  0  0  0  0  0  0  0  0
    1.6349   -2.5237   -2.2360 H   0  0  0  0  0  0  0  0  0  0  0  0
    1.5753   -0.1785   -1.4275 H   0  0  0  0  0  0  0  0  0  0  0  0
    2.3926   -1.2246   -0.2872 H   0  0  0  0  0  0  0  0  0  0  0  0
    0.4012   -1.3717    1.1471 H   0  0  0  0  0  0  0  0  0  0  0  0
    1.5401   -1.5114    3.2258 H   0  0  0  0  0  0  0  0  0  0  0  0
    3.9431   -2.7819    3.4801 H   0  0  0  0  0  0  0  0  0  0  0  0
  1  2  1  0
  2  3  2  0
  3  4  1  0
  4  5  2  0
  5  6  1  0
  6  7  2  0
  6  8  1  0
  8  9  1  0
  9 10  1  0
 10 11  1  0
 10 12  1  0
 12 13  1  0
 13 14  1  0
 14 15  1  0
 15 16  1  0
 16 17  2  0
 16 18  1  0
 18 19  2  0
 19 20  1  0
 20 21  2  0
 21 22  1  0
 21 23  1  0
  7  2  1  0
 14  8  1  0
 23 18  1  0
 15  5  1  0
  1 24  1  0
  1 25  1  0
  1 26  1  0
  3 27  1  0
  4 28  1  0
  7 29  1  0
  8 30  1  0
  9 31  1  0
  9 32  1  0
 11 33  1  0
 11 34  1  0
 11 35  1  0
 12 36  1  0
 12 37  1  0
 13 38  1  0
 13 39  1  0
 14 40  1  0
 19 41  1  0
 20 42  1  0
M  END
$$$$
