
     RDKit          3D

 50 54  0  0  0  0  0  0  0  0999 V2000
    7.9689   -0.0064    1.0994 F   0  0  0  0  0  0  0  0  0  0  0  0
    6.7457    0.0258    0.5541 C   0  0  0  0  0  0  0  0  0  0  0  0
    6.0963   -1.1675    0.2607 C   0  0  0  0  0  0  0  0  0  0  0  0
    4.8213   -1.1374   -0.3069 C   0  0  0  0  0  0  0  0  0  0  0  0
    4.1958    0.0895   -0.5801 C   0  0  0  0  0  0  0  0  0  0  0  0
    2.8139    0.1300   -1.2017 C   0  0  0  0  0  0  0  0  0  0  0  0
    1.8154    0.7964   -0.3517 N   0  0  0  0  0  0  0  0  0  0  0  0
    0.5380    1.0011   -1.0749 C   0  0  0  0  0  0  0  0  0  0  0  0
   -0.5348   -0.0776   -0.8075 C   0  0  0  0  0  0  0  0  0  0  0  0
   -0.8942   -0.1265    0.6291 N   0  0  0  0  0  0  0  0  0  0  0  0
   -1.4535   -1.3775    0.9391 C   0  0  0  0  0  0  0  0  0  0  0  0
   -0.6550   -2.3424    1.4617 N   0  0  0  0  0  0  0  0  0  0  0  0
   -1.1734   -3.5478    1.7303 C   0  0  0  0  0  0  0  0  0  0  0  0
   -2.4275   -3.9509    1.5397 N   0  0  0  0  0  0  0  0  0  0  0  0
   -3.2044   -2.9780    1.0365 C   0  0  0  0  0  0  0  0  0  0  0  0
   -4.8494   -3.2921    0.7294 S   0  0  0  0  0  0  0  0  0  0  0  0
   -5.1099   -1.6986    0.1843 C   0  0  0  0  0  0  0  0  0  0  0  0
   -3.9597   -0.9305    0.2196 C   0  0  0  0  0  0  0  0  0  0  0  0
   -4.0221    0.4707   -0.1848 C   0  0  0  0  0  0  0  0  0  0  0  0
   -4.4493    0.8189   -1.4740 C   0  0  0  0  0  0  0  0  0  0  0  0
   -4.5109    2.1602   -1.8580 C   0  0  0  0  0  0  0  0  0  0  0  0
   -4.1483    3.1609   -0.9577 C   0  0  0  0  0  0  0  0  0  0  0  0
   -3.7252    2.8229    0.3268 C   0  0  0  0  0  0  0  0  0  0  0  0
   -3.6650    1.4824    0.7136 C   0  0  0  0  0  0  0  0  0  0  0  0
   -2.8205   -1.6826    0.7155 C   0  0  0  0  0  0  0  0  0  0  0  0
    0.2025    0.2859    1.5349 C   0  0  0  0  0  0  0  0  0  0  0  0
    1.5922    0.0400    0.9095 C   0  0  0  0  0  0  0  0  0  0  0  0
    4.8714    1.2836   -0.2759 C   0  0  0  0  0  0  0  0  0  0  0  0
    6.1455    1.2509    0.2917 C   0  0  0  0  0  0  0  0  0  0  0  0
    6.5857   -2.1116    0.4766 H   0  0  0  0  0  0  0  0  0  0  0  0
    4.3176   -2.0750   -0.5308 H   0  0  0  0  0  0  0  0  0  0  0  0
    2.9199    0.6769   -2.1484 H   0  0  0  0  0  0  0  0  0  0  0  0
    2.4839   -0.8823   -1.4701 H   0  0  0  0  0  0  0  0  0  0  0  0
    0.7033    1.0958   -2.1551 H   0  0  0  0  0  0  0  0  0  0  0  0
    0.1374    1.9720   -0.7546 H   0  0  0  0  0  0  0  0  0  0  0  0
   -0.1514   -1.0461   -1.1585 H   0  0  0  0  0  0  0  0  0  0  0  0
   -1.4231    0.1568   -1.4028 H   0  0  0  0  0  0  0  0  0  0  0  0
   -0.4902   -4.2806    2.1480 H   0  0  0  0  0  0  0  0  0  0  0  0
   -6.1020   -1.3966   -0.1253 H   0  0  0  0  0  0  0  0  0  0  0  0
   -4.7285    0.0501   -2.1906 H   0  0  0  0  0  0  0  0  0  0  0  0
   -4.8411    2.4242   -2.8593 H   0  0  0  0  0  0  0  0  0  0  0  0
   -4.1950    4.2050   -1.2565 H   0  0  0  0  0  0  0  0  0  0  0  0
   -3.4389    3.6014    1.0291 H   0  0  0  0  0  0  0  0  0  0  0  0
   -3.3263    1.2337    1.7169 H   0  0  0  0  0  0  0  0  0  0  0  0
    0.1343   -0.1957    2.5188 H   0  0  0  0  0  0  0  0  0  0  0  0
    0.0851    1.3601    1.7289 H   0  0  0  0  0  0  0  0  0  0  0  0
    2.3585    0.3353    1.6353 H   0  0  0  0  0  0  0  0  0  0  0  0
    1.7031   -1.0387    0.7378 H   0  0  0  0  0  0  0  0  0  0  0  0
    4.3948    2.2417   -0.4742 H   0  0  0  0  0  0  0  0  0  0  0  0
    6.6691    2.1702    0.5321 H   0  0  0  0  0  0  0  0  0  0  0  0
  1  2  1  0
  2  3  2  0
  3  4  1  0
  4  5  2  0
  5  6  1  0
  6  7  1  0
  7  8  1  0
  8  9  1  0
  9 10  1  0
 10 11  1  0
 11 12  2  0
 12 13  1  0
 13 14  2  0
 14 15  1  0
 15 16  1  0
 16 17  1  0
 17 18  2  0
 18 19  1  0
 19 20  2  0
 20 21  1  0
 21 22  2  0
 22 23  1  0
 23 24  2  0
 18 25  1  0
 10 26  1  0
 26 27  1  0
  5 28  1  0
 28 29  2  0
 29  2  1  0
 27  7  1  0
 25 11  1  0
 25 15  2  0
 24 19  1  0
  3 30  1  0
  4 31  1  0
  6 32  1  0
  6 33  1  0
  8 34  1  0
  8 35  1  0
  9 36  1  0
  9 37  1  0
 13 38  1  0
 17 39  1  0
 20 40  1  0
 21 41  1  0
 22 42  1  0
 23 43  1  0
 24 44  1  0
 26 45  1  0
 26 46  1  0
 27 47  1  0
 27 48  1  0
 28 49  1  0
 29 50  1  0
M  END
$$$$
