
     RDKit          3D

 57 58  0  0  0  0  0  0  0  0999 V2000
    8.5081   -1.6493    0.6341 C   0  0  0  0  0  0  0  0  0  0  0  0
    7.6083   -0.5536    1.1841 C   0  0  0  0  0  0  0  0  0  0  0  0
    6.4315   -1.0853    2.0080 C   0  0  0  0  0  0  0  0  0  0  0  0
    5.4555   -1.9673    1.2263 C   0  0  0  0  0  0  0  0  0  0  0  0
    4.9989   -1.3342    0.0323 O   0  0  0  0  0  0  0  0  0  0  0  0
    3.9279   -0.4894    0.0963 C   0  0  0  0  0  0  0  0  0  0  0  0
    3.2096   -0.1424    1.2369 C   0  0  0  0  0  0  0  0  0  0  0  0
    2.1283    0.7425    1.1459 C   0  0  0  0  0  0  0  0  0  0  0  0
    1.7493    1.3071   -0.0830 C   0  0  0  0  0  0  0  0  0  0  0  0
    0.5465    2.2350   -0.1283 C   0  0  0  0  0  0  0  0  0  0  0  0
    0.6644    3.3673   -1.1502 C   0  0  0  0  0  0  0  0  0  0  0  0
   -0.6499    1.4505   -0.3962 N   0  0  0  0  0  0  0  0  0  0  0  0
   -1.4798    1.0342    0.6202 C   0  0  0  0  0  0  0  0  0  0  0  0
   -1.3261    1.3353    1.7983 O   0  0  0  0  0  0  0  0  0  0  0  0
   -2.5777    0.0992    0.1540 C   0  0  0  0  0  0  0  0  0  0  0  0
   -3.8085    0.1949    1.0396 C   0  0  0  0  0  0  0  0  0  0  0  0
   -4.8464    1.5973    0.6239 S   0  0  0  0  0  6  0  0  0  0  0  0
   -3.9901    2.7508    0.4135 O   0  0  0  0  0  0  0  0  0  0  0  0
   -5.9106    1.6626    1.6102 O   0  0  0  0  0  0  0  0  0  0  0  0
   -5.5894    1.2258   -0.9664 C   0  0  0  0  0  0  0  0  0  0  0  0
   -6.1920   -0.1534   -1.0020 C   0  0  0  0  0  0  0  0  0  0  0  0
   -7.3560   -0.4528   -0.2783 C   0  0  0  0  0  0  0  0  0  0  0  0
   -7.9098   -1.7345   -0.3166 C   0  0  0  0  0  0  0  0  0  0  0  0
   -7.3135   -2.7318   -1.0864 C   0  0  0  0  0  0  0  0  0  0  0  0
   -6.1674   -2.4408   -1.8203 C   0  0  0  0  0  0  0  0  0  0  0  0
   -5.4275   -3.6654   -2.7756 Cl  0  0  0  0  0  0  0  0  0  0  0  0
   -5.6086   -1.1618   -1.7860 C   0  0  0  0  0  0  0  0  0  0  0  0
    2.4705    0.9411   -1.2264 C   0  0  0  0  0  0  0  0  0  0  0  0
    3.5503    0.0572   -1.1320 C   0  0  0  0  0  0  0  0  0  0  0  0
    9.3820   -1.2071    0.1450 H   0  0  0  0  0  0  0  0  0  0  0  0
    7.9873   -2.2597   -0.1094 H   0  0  0  0  0  0  0  0  0  0  0  0
    8.8635   -2.3051    1.4350 H   0  0  0  0  0  0  0  0  0  0  0  0
    8.2097    0.1019    1.8252 H   0  0  0  0  0  0  0  0  0  0  0  0
    7.2433    0.0672    0.3579 H   0  0  0  0  0  0  0  0  0  0  0  0
    6.8095   -1.6486    2.8694 H   0  0  0  0  0  0  0  0  0  0  0  0
    5.8952   -0.2180    2.4100 H   0  0  0  0  0  0  0  0  0  0  0  0
    5.9701   -2.8829    0.9137 H   0  0  0  0  0  0  0  0  0  0  0  0
    4.6255   -2.3101    1.8546 H   0  0  0  0  0  0  0  0  0  0  0  0
    3.4557   -0.5360    2.2165 H   0  0  0  0  0  0  0  0  0  0  0  0
    1.5711    0.9881    2.0503 H   0  0  0  0  0  0  0  0  0  0  0  0
    0.4470    2.7144    0.8541 H   0  0  0  0  0  0  0  0  0  0  0  0
   -0.1830    4.0556   -1.0524 H   0  0  0  0  0  0  0  0  0  0  0  0
    0.6534    2.9976   -2.1812 H   0  0  0  0  0  0  0  0  0  0  0  0
    1.5853    3.9409   -1.0008 H   0  0  0  0  0  0  0  0  0  0  0  0
   -0.6807    0.9618   -1.2795 H   0  0  0  0  0  0  0  0  0  0  0  0
   -2.1652   -0.9148    0.2175 H   0  0  0  0  0  0  0  0  0  0  0  0
   -2.8214    0.2937   -0.8948 H   0  0  0  0  0  0  0  0  0  0  0  0
   -4.4210   -0.7068    0.9613 H   0  0  0  0  0  0  0  0  0  0  0  0
   -3.5488    0.3096    2.0973 H   0  0  0  0  0  0  0  0  0  0  0  0
   -4.8109    1.3424   -1.7271 H   0  0  0  0  0  0  0  0  0  0  0  0
   -6.3560    1.9842   -1.1570 H   0  0  0  0  0  0  0  0  0  0  0  0
   -7.8434    0.3103    0.3298 H   0  0  0  0  0  0  0  0  0  0  0  0
   -8.8088   -1.9533    0.2556 H   0  0  0  0  0  0  0  0  0  0  0  0
   -7.7490   -3.7273   -1.1120 H   0  0  0  0  0  0  0  0  0  0  0  0
   -4.7196   -0.9571   -2.3787 H   0  0  0  0  0  0  0  0  0  0  0  0
    2.2093    1.3312   -2.2061 H   0  0  0  0  0  0  0  0  0  0  0  0
    4.1040   -0.2109   -2.0290 H   0  0  0  0  0  0  0  0  0  0  0  0
  1  2  1  0
  2  3  1  0
  3  4  1  0
  4  5  1  0
  5  6  1  0
  6  7  2  0
  7  8  1  0
  8  9  2  0
  9 10  1  0
 10 11  1  0
 10 12  1  0
 12 13  1  0
 13 14  2  0
 13 15  1  0
 15 16  1  0
 16 17  1  0
 17 18  2  0
 17 19  2  0
 17 20  1  0
 20 21  1  0
 21 22  2  0
 22 23  1  0
 23 24  2  0
 24 25  1  0
 25 26  1  0
 25 27  2  0
  9 28  1  0
 28 29  2  0
 29  6  1  0
 27 21  1  0
  1 30  1  0
  1 31  1  0
  1 32  1  0
  2 33  1  0
  2 34  1  0
  3 35  1  0
  3 36  1  0
  4 37  1  0
  4 38  1  0
  7 39  1  0
  8 40  1  0
 10 41  1  0
 11 42  1  0
 11 43  1  0
 11 44  1  0
 12 45  1  0
 15 46  1  0
 15 47  1  0
 16 48  1  0
 16 49  1  0
 20 50  1  0
 20 51  1  0
 22 52  1  0
 23 53  1  0
 24 54  1  0
 27 55  1  0
 28 56  1  0
 29 57  1  0
M  END
$$$$
