
     RDKit          3D

 45 47  0  0  0  0  0  0  0  0999 V2000
    5.7392   -1.5105    2.3044 C   0  0  0  0  0  0  0  0  0  0  0  0
    4.6703   -0.8116    1.5171 C   0  0  0  0  0  0  0  0  0  0  0  0
    3.5282   -1.5021    1.1074 C   0  0  0  0  0  0  0  0  0  0  0  0
    2.5248   -0.8411    0.3974 C   0  0  0  0  0  0  0  0  0  0  0  0
    2.6398    0.5232    0.0875 C   0  0  0  0  0  0  0  0  0  0  0  0
    1.5630    1.1317   -0.6792 C   0  0  0  0  0  0  0  0  0  0  0  0
    1.7455    1.7549   -1.8961 C   0  0  0  0  0  0  0  0  0  0  0  0
    0.2418    2.3091   -2.4989 S   0  0  0  0  0  0  0  0  0  0  0  0
   -0.5522    1.6566   -1.1091 C   0  0  0  0  0  0  0  0  0  0  0  0
   -2.0407    1.7463   -0.9173 C   0  0  0  0  0  0  0  0  0  0  0  0
   -2.5104    3.1349   -0.9713 C   0  0  0  0  0  0  0  0  0  0  0  0
   -2.8934    4.2299   -1.0288 N   0  0  0  0  0  0  0  0  0  0  0  0
   -2.7150    0.9353   -2.0006 C   0  0  0  0  0  0  0  0  0  0  0  0
   -3.2149   -0.2658   -1.9164 N   0  0  0  0  0  0  0  0  0  0  0  0
   -3.1661   -0.9566   -0.6958 C   0  0  0  0  0  0  0  0  0  0  0  0
   -2.0226   -1.7082   -0.3953 C   0  0  0  0  0  0  0  0  0  0  0  0
   -1.9158   -2.3922    0.8152 C   0  0  0  0  0  0  0  0  0  0  0  0
   -2.9590   -2.3400    1.7345 C   0  0  0  0  0  0  0  0  0  0  0  0
   -4.1139   -1.6135    1.4389 C   0  0  0  0  0  0  0  0  0  0  0  0
   -4.2380   -0.9333    0.2180 C   0  0  0  0  0  0  0  0  0  0  0  0
   -5.7495   -0.0155   -0.0582 S   0  0  0  0  0  0  0  0  0  0  0  0
   -6.2641   -0.6844   -1.6492 C   0  0  0  0  0  0  0  0  0  0  0  0
   -5.8221    0.0651   -2.6863 F   0  0  0  0  0  0  0  0  0  0  0  0
   -7.6211   -0.6804   -1.7271 F   0  0  0  0  0  0  0  0  0  0  0  0
   -5.8726   -1.9648   -1.8444 F   0  0  0  0  0  0  0  0  0  0  0  0
    0.2493    1.0563   -0.2506 N   0  0  0  0  0  0  0  0  0  0  0  0
    3.7640    1.2431    0.5380 C   0  0  0  0  0  0  0  0  0  0  0  0
    3.9357    2.7181    0.2939 C   0  0  0  0  0  0  0  0  0  0  0  0
    4.7736    0.5581    1.2401 C   0  0  0  0  0  0  0  0  0  0  0  0
    5.8150   -2.5629    2.0109 H   0  0  0  0  0  0  0  0  0  0  0  0
    6.7182   -1.0528    2.1263 H   0  0  0  0  0  0  0  0  0  0  0  0
    5.5124   -1.4561    3.3735 H   0  0  0  0  0  0  0  0  0  0  0  0
    3.4111   -2.5588    1.3356 H   0  0  0  0  0  0  0  0  0  0  0  0
    1.6446   -1.3974    0.0814 H   0  0  0  0  0  0  0  0  0  0  0  0
    2.6618    1.9052   -2.4493 H   0  0  0  0  0  0  0  0  0  0  0  0
   -2.2876    1.3410    0.0688 H   0  0  0  0  0  0  0  0  0  0  0  0
   -2.7678    1.4024   -3.0016 H   0  0  0  0  0  0  0  0  0  0  0  0
   -1.2027   -1.7510   -1.1083 H   0  0  0  0  0  0  0  0  0  0  0  0
   -1.0172   -2.9611    1.0403 H   0  0  0  0  0  0  0  0  0  0  0  0
   -2.8766   -2.8680    2.6817 H   0  0  0  0  0  0  0  0  0  0  0  0
   -4.9192   -1.5899    2.1706 H   0  0  0  0  0  0  0  0  0  0  0  0
    4.2764    2.8959   -0.7303 H   0  0  0  0  0  0  0  0  0  0  0  0
    4.6774    3.1482    0.9760 H   0  0  0  0  0  0  0  0  0  0  0  0
    2.9997    3.2579    0.4705 H   0  0  0  0  0  0  0  0  0  0  0  0
    5.6508    1.1035    1.5861 H   0  0  0  0  0  0  0  0  0  0  0  0
  1  2  1  0
  2  3  2  0
  3  4  1  0
  4  5  2  0
  5  6  1  0
  6  7  2  0
  7  8  1  0
  8  9  1  0
  9 10  1  0
 10 11  1  0
 11 12  3  0
 10 13  1  0
 13 14  2  3
 14 15  1  0
 15 16  2  0
 16 17  1  0
 17 18  2  0
 18 19  1  0
 19 20  2  0
 20 21  1  0
 21 22  1  0
 22 23  1  0
 22 24  1  0
 22 25  1  0
  9 26  2  0
  5 27  1  0
 27 28  1  0
 27 29  2  0
 29  2  1  0
 26  6  1  0
 20 15  1  0
  1 30  1  0
  1 31  1  0
  1 32  1  0
  3 33  1  0
  4 34  1  0
  7 35  1  0
 10 36  1  0
 13 37  1  0
 16 38  1  0
 17 39  1  0
 18 40  1  0
 19 41  1  0
 28 42  1  0
 28 43  1  0
 28 44  1  0
 29 45  1  0
M  END
$$$$
