
     RDKit          3D

 44 47  0  0  0  0  0  0  0  0999 V2000
    6.4714   -0.6092    0.4371 C   0  0  0  0  0  0  0  0  0  0  0  0
    5.3613   -0.7460    1.4686 C   0  0  0  0  0  0  0  0  0  0  0  0
    4.0057   -0.5905    0.8478 C   0  0  0  0  0  0  0  0  0  0  0  0
    3.2196   -1.5590    0.2553 C   0  0  0  0  0  0  0  0  0  0  0  0
    1.9871   -1.0256   -0.2241 C   0  0  0  0  0  0  0  0  0  0  0  0
    0.8978   -1.6973   -0.8972 C   0  0  0  0  0  0  0  0  0  0  0  0
    0.9574   -2.8972   -1.1491 O   0  0  0  0  0  0  0  0  0  0  0  0
   -0.1894   -0.8735   -1.2184 N   0  0  0  0  0  0  0  0  0  0  0  0
   -1.3229   -1.5406   -1.8691 C   0  0  0  0  0  0  0  0  0  0  0  0
   -2.4209   -1.9271   -0.8972 C   0  0  0  0  0  0  0  0  0  0  0  0
   -2.1933   -2.8843    0.1041 C   0  0  0  0  0  0  0  0  0  0  0  0
   -3.2084   -3.2398    0.9947 C   0  0  0  0  0  0  0  0  0  0  0  0
   -4.4653   -2.6494    0.8923 C   0  0  0  0  0  0  0  0  0  0  0  0
   -4.7105   -1.7080   -0.1045 C   0  0  0  0  0  0  0  0  0  0  0  0
   -3.6970   -1.3522   -0.9966 C   0  0  0  0  0  0  0  0  0  0  0  0
   -0.1544    0.4927   -0.9233 C   0  0  0  0  0  0  0  0  0  0  0  0
   -1.5317    1.4782   -1.3959 S   0  0  0  0  0  0  0  0  0  0  0  0
   -0.9391    3.1508   -0.9876 C   0  0  0  0  0  0  0  0  0  0  0  0
   -1.0789    3.4991    0.4799 C   0  0  0  0  0  0  0  0  0  0  0  0
   -2.4610    4.0928    0.5664 C   0  0  0  0  0  0  0  0  0  0  0  0
   -2.6731    4.7338   -0.6900 O   0  0  0  0  0  0  0  0  0  0  0  0
   -1.8517    4.1687   -1.6269 C   0  0  0  0  0  0  0  0  0  0  0  0
   -1.8814    4.4581   -2.8137 O   0  0  0  0  0  0  0  0  0  0  0  0
    0.8243    1.1004   -0.3269 N   0  0  0  0  0  0  0  0  0  0  0  0
    1.8702    0.3182    0.0141 C   0  0  0  0  0  0  0  0  0  0  0  0
    3.2366    0.9425    0.8171 S   0  0  0  0  0  0  0  0  0  0  0  0
    6.3798   -1.3699   -0.3457 H   0  0  0  0  0  0  0  0  0  0  0  0
    7.4490   -0.7297    0.9142 H   0  0  0  0  0  0  0  0  0  0  0  0
    6.4488    0.3743   -0.0442 H   0  0  0  0  0  0  0  0  0  0  0  0
    5.4304   -1.7331    1.9431 H   0  0  0  0  0  0  0  0  0  0  0  0
    5.5094   -0.0066    2.2652 H   0  0  0  0  0  0  0  0  0  0  0  0
    3.5094   -2.6000    0.1660 H   0  0  0  0  0  0  0  0  0  0  0  0
   -0.9903   -2.4513   -2.3820 H   0  0  0  0  0  0  0  0  0  0  0  0
   -1.7192   -0.9004   -2.6645 H   0  0  0  0  0  0  0  0  0  0  0  0
   -1.2263   -3.3747    0.1950 H   0  0  0  0  0  0  0  0  0  0  0  0
   -3.0181   -3.9836    1.7649 H   0  0  0  0  0  0  0  0  0  0  0  0
   -5.2556   -2.9288    1.5842 H   0  0  0  0  0  0  0  0  0  0  0  0
   -5.6937   -1.2522   -0.1909 H   0  0  0  0  0  0  0  0  0  0  0  0
   -3.9170   -0.6202   -1.7714 H   0  0  0  0  0  0  0  0  0  0  0  0
    0.0807    3.3208   -1.3467 H   0  0  0  0  0  0  0  0  0  0  0  0
   -0.9220    2.6762    1.1838 H   0  0  0  0  0  0  0  0  0  0  0  0
   -0.3444    4.2777    0.7251 H   0  0  0  0  0  0  0  0  0  0  0  0
   -3.2378    3.3338    0.7116 H   0  0  0  0  0  0  0  0  0  0  0  0
   -2.5356    4.8321    1.3706 H   0  0  0  0  0  0  0  0  0  0  0  0
  1  2  1  0
  2  3  1  0
  3  4  2  0
  4  5  1  0
  5  6  1  0
  6  7  2  0
  6  8  1  0
  8  9  1  0
  9 10  1  0
 10 11  2  0
 11 12  1  0
 12 13  2  0
 13 14  1  0
 14 15  2  0
  8 16  1  0
 16 17  1  0
 17 18  1  0
 18 19  1  0
 19 20  1  0
 20 21  1  0
 21 22  1  0
 22 23  2  0
 16 24  2  0
 24 25  1  0
 25 26  1  0
 26  3  1  0
 25  5  2  0
 15 10  1  0
 22 18  1  0
  1 27  1  0
  1 28  1  0
  1 29  1  0
  2 30  1  0
  2 31  1  0
  4 32  1  0
  9 33  1  0
  9 34  1  0
 11 35  1  0
 12 36  1  0
 13 37  1  0
 14 38  1  0
 15 39  1  0
 18 40  1  0
 19 41  1  0
 19 42  1  0
 20 43  1  0
 20 44  1  0
M  END
$$$$
