
     RDKit          3D

 34 36  0  0  0  0  0  0  0  0999 V2000
    5.0408   -1.8678    2.8622 C   0  0  0  0  0  0  0  0  0  0  0  0
    4.1646   -1.4403    1.7261 C   0  0  0  0  0  0  0  0  0  0  0  0
    3.9113   -2.3022    0.6789 C   0  0  0  0  0  0  0  0  0  0  0  0
    3.1182   -1.8086   -0.3308 C   0  0  0  0  0  0  0  0  0  0  0  0
    2.6045   -0.5666   -0.3347 N   0  0  0  0  0  0  0  0  0  0  0  0
    2.8926    0.2023    0.7333 C   0  0  0  0  0  0  0  0  0  0  0  0
    2.3063    1.8832    0.7682 S   0  0  0  0  0  0  0  0  0  0  0  0
    0.8013    1.7847   -0.1132 C   0  0  0  0  0  0  0  0  0  0  0  0
    0.5690    2.4146   -1.3504 C   0  0  0  0  0  0  0  0  0  0  0  0
   -0.7103    2.0873   -1.7472 C   0  0  0  0  0  0  0  0  0  0  0  0
   -1.3649    2.4732   -2.8410 O   0  0  0  0  0  0  0  0  0  0  0  0
   -1.3019    1.3094   -0.7442 N   0  0  0  0  0  0  0  0  0  0  0  0
   -2.6627    0.8601   -0.7091 C   0  0  0  0  0  0  0  0  0  0  0  0
   -3.3515    0.5704   -1.8953 C   0  0  0  0  0  0  0  0  0  0  0  0
   -4.6785    0.1282   -1.8541 C   0  0  0  0  0  0  0  0  0  0  0  0
   -5.3243   -0.0165   -0.6288 C   0  0  0  0  0  0  0  0  0  0  0  0
   -7.1175   -0.6136   -0.5754 Br  0  0  0  0  0  0  0  0  0  0  0  0
   -4.6579    0.2819    0.5569 C   0  0  0  0  0  0  0  0  0  0  0  0
   -3.3303    0.7220    0.5186 C   0  0  0  0  0  0  0  0  0  0  0  0
   -0.3289    1.0754    0.2374 C   0  0  0  0  0  0  0  0  0  0  0  0
   -0.4983    0.2542    1.2788 O   0  0  0  0  0  0  0  0  0  0  0  0
    3.6735   -0.1845    1.7607 N   0  0  0  0  0  0  0  0  0  0  0  0
    6.0754   -1.9586    2.5170 H   0  0  0  0  0  0  0  0  0  0  0  0
    5.0064   -1.1365    3.6789 H   0  0  0  0  0  0  0  0  0  0  0  0
    4.7072   -2.8342    3.2621 H   0  0  0  0  0  0  0  0  0  0  0  0
    4.3135   -3.3061    0.6452 H   0  0  0  0  0  0  0  0  0  0  0  0
    2.8700   -2.4143   -1.1952 H   0  0  0  0  0  0  0  0  0  0  0  0
    1.2667    3.0341   -1.9021 H   0  0  0  0  0  0  0  0  0  0  0  0
   -0.7689    3.0530   -3.3502 H   0  0  0  0  0  0  0  0  0  0  0  0
   -2.8691    0.6500   -2.8665 H   0  0  0  0  0  0  0  0  0  0  0  0
   -5.1942   -0.0999   -2.7839 H   0  0  0  0  0  0  0  0  0  0  0  0
   -5.1646    0.1910    1.5145 H   0  0  0  0  0  0  0  0  0  0  0  0
   -2.8571    1.0027    1.4585 H   0  0  0  0  0  0  0  0  0  0  0  0
   -1.1402   -0.4327    1.0249 H   0  0  0  0  0  0  0  0  0  0  0  0
  1  2  1  0
  2  3  2  0
  3  4  1  0
  4  5  2  0
  5  6  1  0
  6  7  1  0
  7  8  1  0
  8  9  1  0
  9 10  2  0
 10 11  1  0
 10 12  1  0
 12 13  1  0
 13 14  2  0
 14 15  1  0
 15 16  2  0
 16 17  1  0
 16 18  1  0
 18 19  2  0
 12 20  1  0
 20 21  1  0
  6 22  2  0
 22  2  1  0
 20  8  2  0
 19 13  1  0
  1 23  1  0
  1 24  1  0
  1 25  1  0
  3 26  1  0
  4 27  1  0
  9 28  1  0
 11 29  1  0
 14 30  1  0
 15 31  1  0
 18 32  1  0
 19 33  1  0
 21 34  1  0
M  END
$$$$
