
     RDKit          3D

 46 49  0  0  0  0  0  0  0  0999 V2000
   -3.9669    2.1915   -1.2376 C   0  0  0  0  0  0  0  0  0  0  0  0
   -4.4130    1.5544    0.0729 C   0  0  0  0  0  0  0  0  0  0  0  0
   -4.0838    0.0503    0.2077 C   0  0  0  0  0  0  0  0  0  0  0  0
   -4.8926   -0.7840   -0.8024 C   0  0  0  0  0  0  0  0  0  0  0  0
   -4.5543   -2.2688   -0.6961 C   0  0  0  0  0  0  0  0  0  0  0  0
   -3.0495   -2.5285   -0.6092 C   0  0  0  0  0  0  0  0  0  0  0  0
   -2.2162   -1.2657   -0.8169 C   0  0  0  0  0  0  0  0  0  0  0  0
   -2.6353   -0.2139    0.1140 N   0  0  0  0  0  0  0  0  0  0  0  0
   -1.8076    0.2550    1.1488 C   0  0  0  0  0  0  0  0  0  0  0  0
   -2.2904    0.6905    2.1947 O   0  0  0  0  0  0  0  0  0  0  0  0
   -0.3656    0.2129    0.9635 C   0  0  0  0  0  0  0  0  0  0  0  0
    0.5815   -0.2206    1.8717 C   0  0  0  0  0  0  0  0  0  0  0  0
    1.9091   -0.0612    1.3764 C   0  0  0  0  0  0  0  0  0  0  0  0
    3.1667   -0.4129    2.0022 C   0  0  0  0  0  0  0  0  0  0  0  0
    3.1990   -0.9464    3.1099 O   0  0  0  0  0  0  0  0  0  0  0  0
    4.3014   -0.0983    1.2329 N   0  0  0  0  0  0  0  0  0  0  0  0
    5.5543   -0.3974    1.7583 C   0  0  0  0  0  0  0  0  0  0  0  0
    6.6836   -0.1361    1.0931 C   0  0  0  0  0  0  0  0  0  0  0  0
    6.6281    0.4719   -0.2064 C   0  0  0  0  0  0  0  0  0  0  0  0
    5.4558    0.7883   -0.7770 C   0  0  0  0  0  0  0  0  0  0  0  0
    5.3458    1.4244   -2.1277 C   0  0  0  0  0  0  0  0  0  0  0  0
    4.1757    0.4985   -0.0364 C   0  0  0  0  0  0  0  0  0  0  0  0
    3.0392    0.8072   -0.5960 N   0  0  0  0  0  0  0  0  0  0  0  0
    1.9379    0.5213    0.1341 C   0  0  0  0  0  0  0  0  0  0  0  0
    0.3717    0.8913   -0.4299 S   0  0  0  0  0  0  0  0  0  0  0  0
   -4.4886    1.7594   -2.0958 H   0  0  0  0  0  0  0  0  0  0  0  0
   -2.8899    2.0791   -1.3929 H   0  0  0  0  0  0  0  0  0  0  0  0
   -4.1909    3.2633   -1.2241 H   0  0  0  0  0  0  0  0  0  0  0  0
   -3.9496    2.1123    0.8945 H   0  0  0  0  0  0  0  0  0  0  0  0
   -5.4953    1.6960    0.1828 H   0  0  0  0  0  0  0  0  0  0  0  0
   -4.3950   -0.2637    1.2137 H   0  0  0  0  0  0  0  0  0  0  0  0
   -5.9674   -0.6404   -0.6401 H   0  0  0  0  0  0  0  0  0  0  0  0
   -4.6852   -0.4579   -1.8284 H   0  0  0  0  0  0  0  0  0  0  0  0
   -5.0421   -2.6947    0.1894 H   0  0  0  0  0  0  0  0  0  0  0  0
   -4.9745   -2.7977   -1.5597 H   0  0  0  0  0  0  0  0  0  0  0  0
   -2.7605   -3.2900   -1.3426 H   0  0  0  0  0  0  0  0  0  0  0  0
   -2.8228   -2.9484    0.3793 H   0  0  0  0  0  0  0  0  0  0  0  0
   -2.3363   -0.8797   -1.8355 H   0  0  0  0  0  0  0  0  0  0  0  0
   -1.1658   -1.5329   -0.6835 H   0  0  0  0  0  0  0  0  0  0  0  0
    0.3316   -0.6361    2.8421 H   0  0  0  0  0  0  0  0  0  0  0  0
    5.5819   -0.8572    2.7435 H   0  0  0  0  0  0  0  0  0  0  0  0
    7.6535   -0.3751    1.5179 H   0  0  0  0  0  0  0  0  0  0  0  0
    7.5708    0.6669   -0.7097 H   0  0  0  0  0  0  0  0  0  0  0  0
    4.8451    2.3955   -2.0567 H   0  0  0  0  0  0  0  0  0  0  0  0
    4.7766    0.7843   -2.8098 H   0  0  0  0  0  0  0  0  0  0  0  0
    6.3298    1.5932   -2.5784 H   0  0  0  0  0  0  0  0  0  0  0  0
  1  2  1  0
  2  3  1  0
  3  4  1  0
  4  5  1  0
  5  6  1  0
  6  7  1  0
  7  8  1  0
  8  9  1  0
  9 10  2  0
  9 11  1  0
 11 12  2  0
 12 13  1  0
 13 14  1  0
 14 15  2  0
 14 16  1  0
 16 17  1  0
 17 18  2  0
 18 19  1  0
 19 20  2  0
 20 21  1  0
 20 22  1  0
 22 23  2  0
 23 24  1  0
 24 25  1  0
  8  3  1  0
 25 11  1  0
 24 13  2  0
 22 16  1  0
  1 26  1  0
  1 27  1  0
  1 28  1  0
  2 29  1  0
  2 30  1  0
  3 31  1  0
  4 32  1  0
  4 33  1  0
  5 34  1  0
  5 35  1  0
  6 36  1  0
  6 37  1  0
  7 38  1  0
  7 39  1  0
 12 40  1  0
 17 41  1  0
 18 42  1  0
 19 43  1  0
 21 44  1  0
 21 45  1  0
 21 46  1  0
M  END
$$$$
