
     RDKit          3D

 52 55  0  0  0  0  0  0  0  0999 V2000
   -6.3727    2.4780    0.4155 C   0  0  0  0  0  0  0  0  0  0  0  0
   -5.7064    2.5286    1.7795 C   0  0  0  0  0  0  0  0  0  0  0  0
   -4.2868    1.9591    1.7881 C   0  0  0  0  0  0  0  0  0  0  0  0
   -4.2431    0.4511    1.5302 C   0  0  0  0  0  0  0  0  0  0  0  0
   -2.8559   -0.0820    1.6088 C   0  0  0  0  0  0  0  0  0  0  0  0
   -2.3465   -0.5992    2.7136 N   0  0  0  0  0  0  0  0  0  0  0  0
   -1.0910   -1.0635    2.4441 N   0  0  0  0  0  0  0  0  0  0  0  0
   -0.8433   -0.8139    1.1787 C   0  0  0  0  0  0  0  0  0  0  0  0
    0.3290   -1.1410    0.4148 C   0  0  0  0  0  0  0  0  0  0  0  0
    1.3834   -1.8432    1.0522 N   0  0  0  0  0  0  0  0  0  0  0  0
    1.6890   -1.7292    2.4935 C   0  0  0  0  0  0  0  0  0  0  0  0
    2.3844   -2.9084    0.1961 S   0  0  0  0  0  6  0  0  0  0  0  0
    2.7327   -3.9926    1.0958 O   0  0  0  0  0  0  0  0  0  0  0  0
    1.8366   -3.2056   -1.1106 O   0  0  0  0  0  0  0  0  0  0  0  0
    3.8520   -1.9353   -0.0556 C   0  0  0  0  0  0  0  0  0  0  0  0
    5.0284   -2.2464    0.6318 C   0  0  0  0  0  0  0  0  0  0  0  0
    6.1813   -1.4926    0.4066 C   0  0  0  0  0  0  0  0  0  0  0  0
    6.1689   -0.4340   -0.5091 C   0  0  0  0  0  0  0  0  0  0  0  0
    7.4053    0.3946   -0.7321 C   0  0  0  0  0  0  0  0  0  0  0  0
    4.9805   -0.1279   -1.1877 C   0  0  0  0  0  0  0  0  0  0  0  0
    3.8264   -0.8873   -0.9750 C   0  0  0  0  0  0  0  0  0  0  0  0
    0.4165   -0.7864   -0.8278 N   0  0  0  0  0  0  0  0  0  0  0  0
   -0.6559   -0.0970   -1.4286 C   0  0  0  0  0  0  0  0  0  0  0  0
   -0.5101    0.2694   -2.7701 C   0  0  0  0  0  0  0  0  0  0  0  0
   -1.5236    0.9623   -3.4298 C   0  0  0  0  0  0  0  0  0  0  0  0
   -2.6950    1.2934   -2.7498 C   0  0  0  0  0  0  0  0  0  0  0  0
   -2.8627    0.9331   -1.4094 C   0  0  0  0  0  0  0  0  0  0  0  0
   -1.8488    0.2381   -0.7487 C   0  0  0  0  0  0  0  0  0  0  0  0
   -1.9110   -0.1662    0.6022 N   0  0  0  0  0  0  0  0  0  0  0  0
   -6.5623    1.4464    0.0990 H   0  0  0  0  0  0  0  0  0  0  0  0
   -5.7514    2.9638   -0.3435 H   0  0  0  0  0  0  0  0  0  0  0  0
   -7.3384    2.9995    0.4502 H   0  0  0  0  0  0  0  0  0  0  0  0
   -6.3274    1.9966    2.5108 H   0  0  0  0  0  0  0  0  0  0  0  0
   -5.6630    3.5754    2.1041 H   0  0  0  0  0  0  0  0  0  0  0  0
   -3.8407    2.1672    2.7709 H   0  0  0  0  0  0  0  0  0  0  0  0
   -3.6722    2.4981    1.0571 H   0  0  0  0  0  0  0  0  0  0  0  0
   -4.8404   -0.0476    2.3071 H   0  0  0  0  0  0  0  0  0  0  0  0
   -4.7143    0.1688    0.5846 H   0  0  0  0  0  0  0  0  0  0  0  0
    1.0630   -2.4178    3.0683 H   0  0  0  0  0  0  0  0  0  0  0  0
    2.7407   -1.9476    2.7043 H   0  0  0  0  0  0  0  0  0  0  0  0
    1.5139   -0.6940    2.8316 H   0  0  0  0  0  0  0  0  0  0  0  0
    5.0641   -3.0798    1.3284 H   0  0  0  0  0  0  0  0  0  0  0  0
    7.0948   -1.7418    0.9434 H   0  0  0  0  0  0  0  0  0  0  0  0
    7.4002    1.2667   -0.0649 H   0  0  0  0  0  0  0  0  0  0  0  0
    7.4583    0.7373   -1.7708 H   0  0  0  0  0  0  0  0  0  0  0  0
    8.3101   -0.1913   -0.5430 H   0  0  0  0  0  0  0  0  0  0  0  0
    4.9483    0.6984   -1.8949 H   0  0  0  0  0  0  0  0  0  0  0  0
    2.9222   -0.6586   -1.5344 H   0  0  0  0  0  0  0  0  0  0  0  0
    0.4033    0.0085   -3.3036 H   0  0  0  0  0  0  0  0  0  0  0  0
   -1.3973    1.2409   -4.4746 H   0  0  0  0  0  0  0  0  0  0  0  0
   -3.4829    1.8345   -3.2700 H   0  0  0  0  0  0  0  0  0  0  0  0
   -3.7900    1.2206   -0.9389 H   0  0  0  0  0  0  0  0  0  0  0  0
  1  2  1  0
  2  3  1  0
  3  4  1  0
  4  5  1  0
  5  6  2  0
  6  7  1  0
  7  8  2  0
  8  9  1  0
  9 10  1  0
 10 11  1  0
 10 12  1  0
 12 13  2  0
 12 14  2  0
 12 15  1  0
 15 16  2  0
 16 17  1  0
 17 18  2  0
 18 19  1  0
 18 20  1  0
 20 21  2  0
  9 22  2  0
 22 23  1  0
 23 24  2  0
 24 25  1  0
 25 26  2  0
 26 27  1  0
 27 28  2  0
 28 29  1  0
 29  5  1  0
 29  8  1  0
 21 15  1  0
 28 23  1  0
  1 30  1  0
  1 31  1  0
  1 32  1  0
  2 33  1  0
  2 34  1  0
  3 35  1  0
  3 36  1  0
  4 37  1  0
  4 38  1  0
 11 39  1  0
 11 40  1  0
 11 41  1  0
 16 42  1  0
 17 43  1  0
 19 44  1  0
 19 45  1  0
 19 46  1  0
 20 47  1  0
 21 48  1  0
 24 49  1  0
 25 50  1  0
 26 51  1  0
 27 52  1  0
M  END
$$$$
