
     RDKit          3D

 42 44  0  0  0  0  0  0  0  0999 V2000
   -5.6193   -0.4261    0.3997 C   0  0  0  0  0  0  0  0  0  0  0  0
   -4.8779    0.5359   -0.5462 C   0  0  0  0  0  0  0  0  0  0  0  0
   -5.2898    1.9742   -0.1958 C   0  0  0  0  0  0  0  0  0  0  0  0
   -5.2862    0.2069   -1.9905 C   0  0  0  0  0  0  0  0  0  0  0  0
   -3.4387    0.3424   -0.3528 N   0  0  0  0  0  0  0  0  0  0  0  0
   -2.4312    1.0204   -1.0182 C   0  0  0  0  0  0  0  0  0  0  0  0
   -2.6340    1.8827   -1.8666 O   0  0  0  0  0  0  0  0  0  0  0  0
   -1.0759    0.5940   -0.5975 C   0  0  0  0  0  0  0  0  0  0  0  0
    0.0830    1.1194   -1.1116 N   0  0  0  0  0  0  0  0  0  0  0  0
    1.0383    0.4797   -0.4810 C   0  0  0  0  0  0  0  0  0  0  0  0
    2.3885    0.6145   -0.6077 N   0  0  0  0  0  0  0  0  0  0  0  0
    3.1371   -0.1389    0.1449 C   0  0  0  0  0  0  0  0  0  0  0  0
    4.6209   -0.0195    0.0410 C   0  0  0  0  0  0  0  0  0  0  0  0
    5.1780    0.3158   -1.2003 C   0  0  0  0  0  0  0  0  0  0  0  0
    6.5614    0.4380   -1.3412 C   0  0  0  0  0  0  0  0  0  0  0  0
    7.3943    0.2361   -0.2422 C   0  0  0  0  0  0  0  0  0  0  0  0
    6.8460   -0.0797    1.0004 C   0  0  0  0  0  0  0  0  0  0  0  0
    5.4617   -0.2036    1.1463 C   0  0  0  0  0  0  0  0  0  0  0  0
    2.6057   -1.1569    1.1088 C   0  0  0  0  0  0  0  0  0  0  0  0
    1.2650   -1.2529    1.1985 C   0  0  0  0  0  0  0  0  0  0  0  0
    0.5591   -2.2012    2.0874 C   0  0  0  0  0  0  0  0  0  0  0  0
   -0.2295   -1.5752    2.9951 F   0  0  0  0  0  0  0  0  0  0  0  0
    1.4355   -2.9545    2.8081 F   0  0  0  0  0  0  0  0  0  0  0  0
   -0.2156   -3.0788    1.4042 F   0  0  0  0  0  0  0  0  0  0  0  0
    0.4691   -0.4338    0.4106 N   0  0  0  0  0  0  0  0  0  0  0  0
   -0.8809   -0.3590    0.3369 N   0  0  0  0  0  0  0  0  0  0  0  0
   -5.3575   -0.2305    1.4463 H   0  0  0  0  0  0  0  0  0  0  0  0
   -6.7061   -0.3278    0.3008 H   0  0  0  0  0  0  0  0  0  0  0  0
   -5.3551   -1.4690    0.1886 H   0  0  0  0  0  0  0  0  0  0  0  0
   -4.8392    2.7058   -0.8741 H   0  0  0  0  0  0  0  0  0  0  0  0
   -6.3768    2.1001   -0.2562 H   0  0  0  0  0  0  0  0  0  0  0  0
   -4.9764    2.2361    0.8214 H   0  0  0  0  0  0  0  0  0  0  0  0
   -6.3730    0.2672   -2.1178 H   0  0  0  0  0  0  0  0  0  0  0  0
   -4.8353    0.8972   -2.7107 H   0  0  0  0  0  0  0  0  0  0  0  0
   -4.9704   -0.8056   -2.2674 H   0  0  0  0  0  0  0  0  0  0  0  0
   -3.1139   -0.3451    0.3221 H   0  0  0  0  0  0  0  0  0  0  0  0
    4.5387    0.4841   -2.0653 H   0  0  0  0  0  0  0  0  0  0  0  0
    6.9870    0.6969   -2.3078 H   0  0  0  0  0  0  0  0  0  0  0  0
    8.4715    0.3367   -0.3523 H   0  0  0  0  0  0  0  0  0  0  0  0
    7.4989   -0.2184    1.8591 H   0  0  0  0  0  0  0  0  0  0  0  0
    5.0651   -0.4155    2.1346 H   0  0  0  0  0  0  0  0  0  0  0  0
    3.2784   -1.7921    1.6718 H   0  0  0  0  0  0  0  0  0  0  0  0
  1  2  1  0
  2  3  1  0
  2  4  1  0
  2  5  1  0
  5  6  1  0
  6  7  2  0
  6  8  1  0
  8  9  1  0
  9 10  2  0
 10 11  1  0
 11 12  2  0
 12 13  1  0
 13 14  2  0
 14 15  1  0
 15 16  2  0
 16 17  1  0
 17 18  2  0
 12 19  1  0
 19 20  2  0
 20 21  1  0
 21 22  1  0
 21 23  1  0
 21 24  1  0
 20 25  1  0
 25 26  1  0
 26  8  2  0
 25 10  1  0
 18 13  1  0
  1 27  1  0
  1 28  1  0
  1 29  1  0
  3 30  1  0
  3 31  1  0
  3 32  1  0
  4 33  1  0
  4 34  1  0
  4 35  1  0
  5 36  1  0
 14 37  1  0
 15 38  1  0
 16 39  1  0
 17 40  1  0
 18 41  1  0
 19 42  1  0
M  END
$$$$
