
     RDKit          3D

 45 47  0  0  0  0  0  0  0  0999 V2000
   -0.1272    2.3442   -2.5582 C   0  0  0  0  0  0  0  0  0  0  0  0
    0.2528    1.6952   -1.2664 C   0  0  0  0  0  0  0  0  0  0  0  0
   -0.5528    1.5334   -0.2019 C   0  0  0  0  0  0  0  0  0  0  0  0
   -1.8897    1.8110    0.0556 N   0  0  0  0  0  0  0  0  0  0  0  0
   -2.9834    0.9195   -0.3967 C   0  0  0  0  0  0  0  0  0  0  0  0
   -3.2703    1.0926   -1.8886 C   0  0  0  0  0  0  0  0  0  0  0  0
   -2.7604   -0.5105    0.0756 C   0  0  0  0  0  0  0  0  0  0  0  0
   -2.3407   -1.5366   -0.7884 C   0  0  0  0  0  0  0  0  0  0  0  0
   -2.1112   -2.8310   -0.3114 C   0  0  0  0  0  0  0  0  0  0  0  0
   -2.2901   -3.1224    1.0389 C   0  0  0  0  0  0  0  0  0  0  0  0
   -2.6926   -2.1193    1.9167 C   0  0  0  0  0  0  0  0  0  0  0  0
   -2.9189   -0.8297    1.4337 C   0  0  0  0  0  0  0  0  0  0  0  0
   -3.2790    0.1613    2.3072 O   0  0  0  0  0  0  0  0  0  0  0  0
    0.3470    0.9745    0.8796 C   0  0  0  0  0  0  0  0  0  0  0  0
   -0.0457    0.7515    2.0173 O   0  0  0  0  0  0  0  0  0  0  0  0
    1.5950    0.7581    0.2872 N   0  0  0  0  0  0  0  0  0  0  0  0
    2.5555   -0.1982    0.7073 C   0  0  0  0  0  0  0  0  0  0  0  0
    2.6422   -0.5911    2.0503 C   0  0  0  0  0  0  0  0  0  0  0  0
    3.5935   -1.5286    2.4679 C   0  0  0  0  0  0  0  0  0  0  0  0
    4.4702   -2.0942    1.5465 C   0  0  0  0  0  0  0  0  0  0  0  0
    4.3928   -1.7268    0.2065 C   0  0  0  0  0  0  0  0  0  0  0  0
    3.4428   -0.7874   -0.2079 C   0  0  0  0  0  0  0  0  0  0  0  0
    1.5727    1.2610   -1.0460 N   0  0  0  0  0  0  0  0  0  0  0  0
    2.6688    2.2027   -1.3354 C   0  0  0  0  0  0  0  0  0  0  0  0
   -0.1001    1.6128   -3.3720 H   0  0  0  0  0  0  0  0  0  0  0  0
    0.5565    3.1618   -2.8066 H   0  0  0  0  0  0  0  0  0  0  0  0
   -1.1281    2.7827   -2.5211 H   0  0  0  0  0  0  0  0  0  0  0  0
   -1.9768    1.8100    1.0816 H   0  0  0  0  0  0  0  0  0  0  0  0
   -3.8968    1.2764    0.1002 H   0  0  0  0  0  0  0  0  0  0  0  0
   -3.4747    2.1430   -2.1232 H   0  0  0  0  0  0  0  0  0  0  0  0
   -2.4366    0.7704   -2.5191 H   0  0  0  0  0  0  0  0  0  0  0  0
   -4.1498    0.5085   -2.1840 H   0  0  0  0  0  0  0  0  0  0  0  0
   -2.1674   -1.3449   -1.8439 H   0  0  0  0  0  0  0  0  0  0  0  0
   -1.7820   -3.6096   -0.9961 H   0  0  0  0  0  0  0  0  0  0  0  0
   -2.1052   -4.1276    1.4079 H   0  0  0  0  0  0  0  0  0  0  0  0
   -2.8203   -2.3534    2.9691 H   0  0  0  0  0  0  0  0  0  0  0  0
   -2.9641   -0.1005    3.1923 H   0  0  0  0  0  0  0  0  0  0  0  0
    1.9851   -0.1628    2.8025 H   0  0  0  0  0  0  0  0  0  0  0  0
    3.6464   -1.8122    3.5160 H   0  0  0  0  0  0  0  0  0  0  0  0
    5.2074   -2.8238    1.8714 H   0  0  0  0  0  0  0  0  0  0  0  0
    5.0656   -2.1738   -0.5206 H   0  0  0  0  0  0  0  0  0  0  0  0
    3.3881   -0.5460   -1.2658 H   0  0  0  0  0  0  0  0  0  0  0  0
    3.6387    1.8278   -0.9949 H   0  0  0  0  0  0  0  0  0  0  0  0
    2.7496    2.3641   -2.4158 H   0  0  0  0  0  0  0  0  0  0  0  0
    2.4931    3.1681   -0.8459 H   0  0  0  0  0  0  0  0  0  0  0  0
  1  2  1  0
  2  3  2  0
  3  4  1  0
  4  5  1  0
  5  6  1  0
  5  7  1  0
  7  8  2  0
  8  9  1  0
  9 10  2  0
 10 11  1  0
 11 12  2  0
 12 13  1  0
  3 14  1  0
 14 15  2  0
 14 16  1  0
 16 17  1  0
 17 18  2  0
 18 19  1  0
 19 20  2  0
 20 21  1  0
 21 22  2  0
 16 23  1  0
 23 24  1  0
 23  2  1  0
 12  7  1  0
 22 17  1  0
  1 25  1  0
  1 26  1  0
  1 27  1  0
  4 28  1  0
  5 29  1  0
  6 30  1  0
  6 31  1  0
  6 32  1  0
  8 33  1  0
  9 34  1  0
 10 35  1  0
 11 36  1  0
 13 37  1  0
 18 38  1  0
 19 39  1  0
 20 40  1  0
 21 41  1  0
 22 42  1  0
 24 43  1  0
 24 44  1  0
 24 45  1  0
M  END
$$$$
