
     RDKit          3D

 49 52  0  0  0  0  0  0  0  0999 V2000
    0.4583   -3.1161   -1.4009 N   0  0  0  0  0  0  0  0  0  0  0  0
   -0.6035   -2.6191   -0.7422 C   0  0  0  0  0  0  0  0  0  0  0  0
   -1.7582   -3.2209   -0.7187 N   0  0  0  0  0  0  0  0  0  0  0  0
   -2.5962   -2.3371    0.1492 C   0  0  0  0  0  0  0  0  0  0  0  0
   -1.8443   -0.9902    0.2557 C   0  0  0  0  0  0  0  0  0  0  0  0
   -2.3895    0.0442   -0.7489 C   0  0  0  0  0  0  0  0  0  0  0  0
   -3.7024    0.6545   -0.3124 C   0  0  0  0  0  0  0  0  0  0  0  0
   -3.7384    1.5937    0.7296 C   0  0  0  0  0  0  0  0  0  0  0  0
   -4.9507    2.1541    1.1392 C   0  0  0  0  0  0  0  0  0  0  0  0
   -6.1285    1.7748    0.5044 C   0  0  0  0  0  0  0  0  0  0  0  0
   -7.3336    2.2961    0.8715 O   0  0  0  0  0  0  0  0  0  0  0  0
   -6.1120    0.8488   -0.5308 C   0  0  0  0  0  0  0  0  0  0  0  0
   -4.9009    0.2900   -0.9410 C   0  0  0  0  0  0  0  0  0  0  0  0
   -0.4970   -1.4302   -0.0993 N   0  0  0  0  0  0  0  0  0  0  0  0
    0.6191   -0.5035   -0.0920 C   0  0  0  0  0  0  0  0  0  0  0  0
    1.6638   -0.9213    0.9497 C   0  0  0  0  0  0  0  0  0  0  0  0
    2.7841    0.0932    1.0742 C   0  0  0  0  0  0  0  0  0  0  0  0
    2.7183    1.0082    2.1407 C   0  0  0  0  0  0  0  0  0  0  0  0
    3.7006    1.9769    2.3100 C   0  0  0  0  0  0  0  0  0  0  0  0
    4.7628    2.0492    1.4144 C   0  0  0  0  0  0  0  0  0  0  0  0
    4.8593    1.1565    0.3375 C   0  0  0  0  0  0  0  0  0  0  0  0
    5.9399    1.2510   -0.5551 C   0  0  0  0  0  0  0  0  0  0  0  0
    6.0589    0.3782   -1.6344 C   0  0  0  0  0  0  0  0  0  0  0  0
    5.0973   -0.6021   -1.8344 C   0  0  0  0  0  0  0  0  0  0  0  0
    4.0173   -0.7096   -0.9545 C   0  0  0  0  0  0  0  0  0  0  0  0
    3.8659    0.1608    0.1503 C   0  0  0  0  0  0  0  0  0  0  0  0
    0.2331   -4.0445   -1.7459 H   0  0  0  0  0  0  0  0  0  0  0  0
    1.2927   -3.1545   -0.8348 H   0  0  0  0  0  0  0  0  0  0  0  0
   -3.6008   -2.2445   -0.2715 H   0  0  0  0  0  0  0  0  0  0  0  0
   -2.6814   -2.8093    1.1352 H   0  0  0  0  0  0  0  0  0  0  0  0
   -1.8744   -0.6100    1.2831 H   0  0  0  0  0  0  0  0  0  0  0  0
   -1.6768    0.8670   -0.8848 H   0  0  0  0  0  0  0  0  0  0  0  0
   -2.4953   -0.4065   -1.7448 H   0  0  0  0  0  0  0  0  0  0  0  0
   -2.8198    1.8997    1.2257 H   0  0  0  0  0  0  0  0  0  0  0  0
   -4.9552    2.8796    1.9462 H   0  0  0  0  0  0  0  0  0  0  0  0
   -7.1899    2.9331    1.5900 H   0  0  0  0  0  0  0  0  0  0  0  0
   -7.0393    0.5629   -1.0191 H   0  0  0  0  0  0  0  0  0  0  0  0
   -4.9015   -0.4333   -1.7542 H   0  0  0  0  0  0  0  0  0  0  0  0
    0.2701    0.5061    0.1570 H   0  0  0  0  0  0  0  0  0  0  0  0
    1.0565   -0.4328   -1.0942 H   0  0  0  0  0  0  0  0  0  0  0  0
    2.0843   -1.9088    0.7310 H   0  0  0  0  0  0  0  0  0  0  0  0
    1.1722   -1.0440    1.9247 H   0  0  0  0  0  0  0  0  0  0  0  0
    1.8954    0.9676    2.8519 H   0  0  0  0  0  0  0  0  0  0  0  0
    3.6408    2.6760    3.1400 H   0  0  0  0  0  0  0  0  0  0  0  0
    5.5215    2.8145    1.5646 H   0  0  0  0  0  0  0  0  0  0  0  0
    6.7039    2.0131   -0.4148 H   0  0  0  0  0  0  0  0  0  0  0  0
    6.9007    0.4658   -2.3159 H   0  0  0  0  0  0  0  0  0  0  0  0
    5.1829   -1.2858   -2.6751 H   0  0  0  0  0  0  0  0  0  0  0  0
    3.2900   -1.4916   -1.1533 H   0  0  0  0  0  0  0  0  0  0  0  0
  1  2  1  0
  2  3  2  0
  3  4  1  0
  4  5  1  0
  5  6  1  0
  6  7  1  0
  7  8  2  0
  8  9  1  0
  9 10  2  0
 10 11  1  0
 10 12  1  0
 12 13  2  0
  5 14  1  0
 14 15  1  0
 15 16  1  0
 16 17  1  0
 17 18  2  0
 18 19  1  0
 19 20  2  0
 20 21  1  0
 21 22  2  0
 22 23  1  0
 23 24  2  0
 24 25  1  0
 25 26  2  0
 14  2  1  0
 26 17  1  0
 13  7  1  0
 26 21  1  0
  1 27  1  0
  1 28  1  0
  4 29  1  0
  4 30  1  0
  5 31  1  0
  6 32  1  0
  6 33  1  0
  8 34  1  0
  9 35  1  0
 11 36  1  0
 12 37  1  0
 13 38  1  0
 15 39  1  0
 15 40  1  0
 16 41  1  0
 16 42  1  0
 18 43  1  0
 19 44  1  0
 20 45  1  0
 22 46  1  0
 23 47  1  0
 24 48  1  0
 25 49  1  0
M  END
$$$$
