
     RDKit          3D

 62 65  0  0  0  0  0  0  0  0999 V2000
   -5.6259   -2.7339   -0.3086 C   0  0  0  0  0  0  0  0  0  0  0  0
   -4.6339   -3.5787   -1.0876 C   0  0  0  0  0  0  0  0  0  0  0  0
   -3.7078   -2.7283   -1.7805 O   0  0  0  0  0  0  0  0  0  0  0  0
   -2.5327   -2.4852   -1.1421 C   0  0  0  0  0  0  0  0  0  0  0  0
   -2.2136   -2.8897   -0.0336 O   0  0  0  0  0  0  0  0  0  0  0  0
   -1.6703   -1.6016   -1.9703 C   0  0  0  0  0  0  0  0  0  0  0  0
   -1.2451   -2.0252   -3.1943 C   0  0  0  0  0  0  0  0  0  0  0  0
   -1.6900   -3.3104   -3.8582 C   0  0  0  0  0  0  0  0  0  0  0  0
   -0.2491   -1.3762   -3.9301 N   0  0  0  0  0  0  0  0  0  0  0  0
    0.4986   -0.5636   -3.2594 C   0  0  0  0  0  0  0  0  0  0  0  0
    1.9696    0.1237   -3.8821 S   0  0  0  0  0  0  0  0  0  0  0  0
    2.5771    0.3553   -2.2448 C   0  0  0  0  0  0  0  0  0  0  0  0
    3.9060    0.4997   -2.0458 C   0  0  0  0  0  0  0  0  0  0  0  0
    4.8128    0.5787   -3.0920 O   0  0  0  0  0  0  0  0  0  0  0  0
    4.5701    0.5273   -0.7375 C   0  0  0  0  0  0  0  0  0  0  0  0
    5.1321    1.7101   -0.2520 C   0  0  0  0  0  0  0  0  0  0  0  0
    5.7144    1.7400    1.0182 C   0  0  0  0  0  0  0  0  0  0  0  0
    5.7500    0.5918    1.8146 C   0  0  0  0  0  0  0  0  0  0  0  0
    6.3214    0.7672    3.0448 O   0  0  0  0  0  0  0  0  0  0  0  0
    6.3246   -0.3612    3.9175 C   0  0  0  0  0  0  0  0  0  0  0  0
    5.2208   -0.6006    1.3182 C   0  0  0  0  0  0  0  0  0  0  0  0
    4.6397   -0.6327    0.0455 C   0  0  0  0  0  0  0  0  0  0  0  0
    1.4563    0.2607   -1.2869 C   0  0  0  0  0  0  0  0  0  0  0  0
    1.5761    0.6247    0.0422 N   0  0  0  0  0  0  0  0  0  0  0  0
    0.3037   -0.1609   -1.8488 C   0  0  0  0  0  0  0  0  0  0  0  0
   -1.0757   -0.3637   -1.3882 C   0  0  0  0  0  0  0  0  0  0  0  0
   -1.7876    0.5571   -0.6649 C   0  0  0  0  0  0  0  0  0  0  0  0
   -1.2070    1.8527   -0.2451 C   0  0  0  0  0  0  0  0  0  0  0  0
   -1.8202    2.6376    0.6567 C   0  0  0  0  0  0  0  0  0  0  0  0
   -3.1281    2.2625    1.1999 C   0  0  0  0  0  0  0  0  0  0  0  0
   -3.6926    2.9595    2.2107 C   0  0  0  0  0  0  0  0  0  0  0  0
   -4.9679    2.6813    2.6558 O   0  0  0  0  0  0  0  0  0  0  0  0
   -3.0736    4.0489    2.7877 O   0  0  0  0  0  0  0  0  0  0  0  0
   -2.4696    3.6771    4.0258 C   0  0  0  0  0  0  0  0  0  0  0  0
   -3.8484    1.1712    0.5425 C   0  0  0  0  0  0  0  0  0  0  0  0
   -3.2271    0.3902   -0.3585 C   0  0  0  0  0  0  0  0  0  0  0  0
   -6.3790   -3.3638    0.1745 H   0  0  0  0  0  0  0  0  0  0  0  0
   -6.1287   -2.0254   -0.9779 H   0  0  0  0  0  0  0  0  0  0  0  0
   -5.1207   -2.1433    0.4614 H   0  0  0  0  0  0  0  0  0  0  0  0
   -4.1228   -4.2930   -0.4311 H   0  0  0  0  0  0  0  0  0  0  0  0
   -5.1630   -4.1635   -1.8476 H   0  0  0  0  0  0  0  0  0  0  0  0
   -2.1064   -4.0411   -3.1618 H   0  0  0  0  0  0  0  0  0  0  0  0
   -2.4341   -3.0954   -4.6318 H   0  0  0  0  0  0  0  0  0  0  0  0
   -0.8364   -3.8041   -4.3382 H   0  0  0  0  0  0  0  0  0  0  0  0
    4.3022    0.4931   -3.9196 H   0  0  0  0  0  0  0  0  0  0  0  0
    5.1157    2.6145   -0.8542 H   0  0  0  0  0  0  0  0  0  0  0  0
    6.1428    2.6684    1.3901 H   0  0  0  0  0  0  0  0  0  0  0  0
    5.3053   -0.7217    4.1015 H   0  0  0  0  0  0  0  0  0  0  0  0
    6.7390   -0.0328    4.8792 H   0  0  0  0  0  0  0  0  0  0  0  0
    6.9706   -1.1579    3.5239 H   0  0  0  0  0  0  0  0  0  0  0  0
    5.2480   -1.5220    1.8932 H   0  0  0  0  0  0  0  0  0  0  0  0
    4.2357   -1.5709   -0.3302 H   0  0  0  0  0  0  0  0  0  0  0  0
    1.3237   -0.1517    0.6670 H   0  0  0  0  0  0  0  0  0  0  0  0
    2.4948    0.9810    0.3049 H   0  0  0  0  0  0  0  0  0  0  0  0
   -0.2833    2.2086   -0.6832 H   0  0  0  0  0  0  0  0  0  0  0  0
   -1.3819    3.5881    0.9419 H   0  0  0  0  0  0  0  0  0  0  0  0
   -5.1903    3.4468    3.2154 H   0  0  0  0  0  0  0  0  0  0  0  0
   -1.9482    4.5562    4.4120 H   0  0  0  0  0  0  0  0  0  0  0  0
   -1.7392    2.8706    3.8870 H   0  0  0  0  0  0  0  0  0  0  0  0
   -3.2325    3.3829    4.7564 H   0  0  0  0  0  0  0  0  0  0  0  0
   -4.8973    1.0211    0.7677 H   0  0  0  0  0  0  0  0  0  0  0  0
   -3.8208   -0.3501   -0.8692 H   0  0  0  0  0  0  0  0  0  0  0  0
  1  2  1  0
  2  3  1  0
  3  4  1  0
  4  5  2  0
  4  6  1  0
  6  7  2  0
  7  8  1  0
  7  9  1  0
  9 10  2  0
 10 11  1  0
 11 12  1  0
 12 13  2  3
 13 14  1  0
 13 15  1  0
 15 16  2  0
 16 17  1  0
 17 18  2  0
 18 19  1  0
 19 20  1  0
 18 21  1  0
 21 22  2  0
 12 23  1  0
 23 24  1  0
 23 25  2  0
 25 26  1  0
 26 27  2  3
 27 28  1  0
 28 29  2  0
 29 30  1  0
 30 31  2  3
 31 32  1  0
 31 33  1  0
 33 34  1  0
 30 35  1  0
 35 36  2  0
 26  6  1  0
 36 27  1  0
 25 10  1  0
 22 15  1  0
  1 37  1  0
  1 38  1  0
  1 39  1  0
  2 40  1  0
  2 41  1  0
  8 42  1  0
  8 43  1  0
  8 44  1  0
 14 45  1  0
 16 46  1  0
 17 47  1  0
 20 48  1  0
 20 49  1  0
 20 50  1  0
 21 51  1  0
 22 52  1  0
 24 53  1  0
 24 54  1  0
 28 55  1  0
 29 56  1  0
 32 57  1  0
 34 58  1  0
 34 59  1  0
 34 60  1  0
 35 61  1  0
 36 62  1  0
M  END
$$$$
