
     RDKit          3D

 43 46  0  0  0  0  0  0  0  0999 V2000
    2.0472   -1.9928   -0.2533 O   0  0  0  0  0  0  0  0  0  0  0  0
    2.3196   -1.0734    0.5176 C   0  0  0  0  0  0  0  0  0  0  0  0
    3.6031   -0.3721    0.3329 C   0  0  0  0  0  0  0  0  0  0  0  0
    4.4380   -0.6607   -0.7526 C   0  0  0  0  0  0  0  0  0  0  0  0
    5.6512    0.0148   -0.8932 C   0  0  0  0  0  0  0  0  0  0  0  0
    6.0283    0.9726    0.0491 C   0  0  0  0  0  0  0  0  0  0  0  0
    5.1942    1.2572    1.1327 C   0  0  0  0  0  0  0  0  0  0  0  0
    3.9810    0.5807    1.2667 C   0  0  0  0  0  0  0  0  0  0  0  0
    3.1475    0.8544    2.3464 N   0  0  0  0  0  0  0  0  0  0  0  0
    1.9286    0.2645    2.5443 C   0  0  0  0  0  0  0  0  0  0  0  0
    1.1049    0.7445    3.9280 S   0  0  0  0  0  0  0  0  0  0  0  0
    1.5132   -0.6673    1.5934 N   0  0  0  0  0  0  0  0  0  0  0  0
    0.1793   -1.2943    1.6608 C   0  0  0  0  0  0  0  0  0  0  0  0
   -0.9561   -0.3771    1.1396 C   0  0  0  0  0  0  0  0  0  0  0  0
   -0.7847    0.0985   -0.2465 N   0  0  0  0  0  0  0  0  0  0  0  0
   -0.9837   -0.9516   -1.2618 C   0  0  0  0  0  0  0  0  0  0  0  0
   -2.4149   -1.5071   -1.3429 C   0  0  0  0  0  0  0  0  0  0  0  0
   -3.4728   -0.4392   -1.2200 C   0  0  0  0  0  0  0  0  0  0  0  0
   -4.8145   -0.7516   -1.4770 C   0  0  0  0  0  0  0  0  0  0  0  0
   -5.8046    0.2190   -1.3294 C   0  0  0  0  0  0  0  0  0  0  0  0
   -5.4633    1.5061   -0.9211 C   0  0  0  0  0  0  0  0  0  0  0  0
   -4.1310    1.8245   -0.6570 C   0  0  0  0  0  0  0  0  0  0  0  0
   -3.1269    0.8546   -0.7909 C   0  0  0  0  0  0  0  0  0  0  0  0
   -1.6807    1.2304   -0.5502 C   0  0  0  0  0  0  0  0  0  0  0  0
    4.1449   -1.4086   -1.4863 H   0  0  0  0  0  0  0  0  0  0  0  0
    6.3011   -0.2070   -1.7365 H   0  0  0  0  0  0  0  0  0  0  0  0
    6.9744    1.4978   -0.0611 H   0  0  0  0  0  0  0  0  0  0  0  0
    5.5013    2.0047    1.8588 H   0  0  0  0  0  0  0  0  0  0  0  0
    3.4319    1.5403    3.0365 H   0  0  0  0  0  0  0  0  0  0  0  0
   -0.0336   -1.5653    2.7010 H   0  0  0  0  0  0  0  0  0  0  0  0
    0.1714   -2.2388    1.1063 H   0  0  0  0  0  0  0  0  0  0  0  0
   -1.9128   -0.8945    1.2767 H   0  0  0  0  0  0  0  0  0  0  0  0
   -0.9983    0.4979    1.7975 H   0  0  0  0  0  0  0  0  0  0  0  0
   -0.7133   -0.5296   -2.2398 H   0  0  0  0  0  0  0  0  0  0  0  0
   -0.2899   -1.7838   -1.1144 H   0  0  0  0  0  0  0  0  0  0  0  0
   -2.5699   -2.2376   -0.5395 H   0  0  0  0  0  0  0  0  0  0  0  0
   -2.5345   -2.0339   -2.2972 H   0  0  0  0  0  0  0  0  0  0  0  0
   -5.0931   -1.7545   -1.7918 H   0  0  0  0  0  0  0  0  0  0  0  0
   -6.8429   -0.0293   -1.5330 H   0  0  0  0  0  0  0  0  0  0  0  0
   -6.2349    2.2634   -0.8103 H   0  0  0  0  0  0  0  0  0  0  0  0
   -3.8782    2.8359   -0.3467 H   0  0  0  0  0  0  0  0  0  0  0  0
   -1.6137    1.9810    0.2477 H   0  0  0  0  0  0  0  0  0  0  0  0
   -1.3127    1.7272   -1.4578 H   0  0  0  0  0  0  0  0  0  0  0  0
  1  2  2  0
  2  3  1  0
  3  4  2  0
  4  5  1  0
  5  6  2  0
  6  7  1  0
  7  8  2  0
  8  9  1  0
  9 10  1  0
 10 11  2  0
 10 12  1  0
 12 13  1  0
 13 14  1  0
 14 15  1  0
 15 16  1  0
 16 17  1  0
 17 18  1  0
 18 19  2  0
 19 20  1  0
 20 21  2  0
 21 22  1  0
 22 23  2  0
 23 24  1  0
 12  2  1  0
 24 15  1  0
  8  3  1  0
 23 18  1  0
  4 25  1  0
  5 26  1  0
  6 27  1  0
  7 28  1  0
  9 29  1  0
 13 30  1  0
 13 31  1  0
 14 32  1  0
 14 33  1  0
 16 34  1  0
 16 35  1  0
 17 36  1  0
 17 37  1  0
 19 38  1  0
 20 39  1  0
 21 40  1  0
 22 41  1  0
 24 42  1  0
 24 43  1  0
M  END
$$$$
