
     RDKit          3D

 41 43  0  0  0  0  0  0  0  0999 V2000
   -4.0013   -1.7057    0.8030 O   0  0  0  0  0  0  0  0  0  0  0  0
   -4.4130   -0.8327    0.0540 C   0  0  0  0  0  0  0  0  0  0  0  0
   -3.6639    0.1076   -0.6284 O   0  0  0  0  0  0  0  0  0  0  0  0
   -2.2832    0.0150   -0.4241 C   0  0  0  0  0  0  0  0  0  0  0  0
   -1.6508    1.0692    0.2328 C   0  0  0  0  0  0  0  0  0  0  0  0
   -0.2666    1.0338    0.4052 C   0  0  0  0  0  0  0  0  0  0  0  0
    0.4700   -0.0486   -0.0914 C   0  0  0  0  0  0  0  0  0  0  0  0
    1.9374   -0.1109    0.0783 C   0  0  0  0  0  0  0  0  0  0  0  0
    2.5906    0.8334    0.6774 N   0  0  0  0  0  0  0  0  0  0  0  0
    3.9537    0.7303    0.7570 N   0  0  0  0  0  0  0  0  0  0  0  0
    4.8011    0.1557   -0.1824 C   0  0  0  0  0  0  0  0  0  0  0  0
    4.4750   -0.4908   -1.1730 O   0  0  0  0  0  0  0  0  0  0  0  0
    6.2488    0.4167    0.1080 C   0  0  0  0  0  0  0  0  0  0  0  0
    7.2309   -0.1158   -0.7186 C   0  0  0  0  0  0  0  0  0  0  0  0
    8.5618    0.1541   -0.4149 C   0  0  0  0  0  0  0  0  0  0  0  0
    8.8631    0.9402    0.6934 C   0  0  0  0  0  0  0  0  0  0  0  0
    7.8178    1.4311    1.4612 C   0  0  0  0  0  0  0  0  0  0  0  0
    6.5146    1.1919    1.1990 N   0  0  0  0  0  0  0  0  0  0  0  0
   -0.1725   -1.0930   -0.7670 C   0  0  0  0  0  0  0  0  0  0  0  0
   -1.5568   -1.0578   -0.9422 C   0  0  0  0  0  0  0  0  0  0  0  0
   -5.8597   -0.6381   -0.2477 C   0  0  0  0  0  0  0  0  0  0  0  0
   -6.7835   -1.4825    0.3868 C   0  0  0  0  0  0  0  0  0  0  0  0
   -8.1528   -1.3467    0.1412 C   0  0  0  0  0  0  0  0  0  0  0  0
   -8.6018   -0.3657   -0.7404 C   0  0  0  0  0  0  0  0  0  0  0  0
  -10.4527   -0.1802   -1.0742 Br  0  0  0  0  0  0  0  0  0  0  0  0
   -7.6957    0.4800   -1.3786 C   0  0  0  0  0  0  0  0  0  0  0  0
   -6.3250    0.3452   -1.1337 C   0  0  0  0  0  0  0  0  0  0  0  0
   -2.2256    1.9093    0.6104 H   0  0  0  0  0  0  0  0  0  0  0  0
    0.2334    1.8486    0.9235 H   0  0  0  0  0  0  0  0  0  0  0  0
    2.4220   -1.0215   -0.3109 H   0  0  0  0  0  0  0  0  0  0  0  0
    4.4000    1.3769    1.4086 H   0  0  0  0  0  0  0  0  0  0  0  0
    6.9666   -0.7245   -1.5775 H   0  0  0  0  0  0  0  0  0  0  0  0
    9.3573   -0.2454   -1.0384 H   0  0  0  0  0  0  0  0  0  0  0  0
    9.8921    1.1662    0.9531 H   0  0  0  0  0  0  0  0  0  0  0  0
    8.0109    2.0490    2.3343 H   0  0  0  0  0  0  0  0  0  0  0  0
    0.3946   -1.9323   -1.1614 H   0  0  0  0  0  0  0  0  0  0  0  0
   -2.0595   -1.8633   -1.4690 H   0  0  0  0  0  0  0  0  0  0  0  0
   -6.4401   -2.2515    1.0775 H   0  0  0  0  0  0  0  0  0  0  0  0
   -8.8552   -2.0089    0.6415 H   0  0  0  0  0  0  0  0  0  0  0  0
   -8.0442    1.2460   -2.0674 H   0  0  0  0  0  0  0  0  0  0  0  0
   -5.6379    1.0158   -1.6443 H   0  0  0  0  0  0  0  0  0  0  0  0
  1  2  2  0
  2  3  1  0
  3  4  1  0
  4  5  2  0
  5  6  1  0
  6  7  2  0
  7  8  1  0
  8  9  2  3
  9 10  1  0
 10 11  1  0
 11 12  2  0
 11 13  1  0
 13 14  2  0
 14 15  1  0
 15 16  2  0
 16 17  1  0
 17 18  2  0
  7 19  1  0
 19 20  2  0
  2 21  1  0
 21 22  2  0
 22 23  1  0
 23 24  2  0
 24 25  1  0
 24 26  1  0
 26 27  2  0
 20  4  1  0
 27 21  1  0
 18 13  1  0
  5 28  1  0
  6 29  1  0
  8 30  1  0
 10 31  1  0
 14 32  1  0
 15 33  1  0
 16 34  1  0
 17 35  1  0
 19 36  1  0
 20 37  1  0
 22 38  1  0
 23 39  1  0
 26 40  1  0
 27 41  1  0
M  END
$$$$
