
     RDKit          3D

 73 76  0  0  0  0  0  0  0  0999 V2000
    5.2161   -0.3862    2.9037 C   0  0  0  0  0  0  0  0  0  0  0  0
    5.2410    0.0647    1.4426 C   0  0  0  0  0  0  0  0  0  0  0  0
    6.6376   -0.1278    0.8188 C   0  0  0  0  0  0  0  0  0  0  0  0
    6.6646   -1.3470   -0.1056 C   0  0  0  0  0  0  0  0  0  0  0  0
    8.0492   -1.5559   -0.7147 C   0  0  0  0  0  0  0  0  0  0  0  0
    5.5895   -1.2241   -1.2081 C   0  0  0  0  0  0  0  0  0  0  0  0
    4.3765   -0.5001   -0.7871 N   0  0  0  0  0  0  0  0  0  0  0  0
    3.2123   -0.8521   -1.6056 C   0  0  0  0  0  0  0  0  0  0  0  0
    2.4358    0.3818   -2.0881 C   0  0  0  0  0  0  0  0  0  0  0  0
    1.7914    1.2321   -0.9998 C   0  0  0  0  0  0  0  0  0  0  0  0
    0.7993    0.4993   -0.2390 N   0  0  0  0  0  0  0  0  0  0  0  0
    0.2972    0.9893    0.9466 C   0  0  0  0  0  0  0  0  0  0  0  0
    0.6593    2.0554    1.4397 O   0  0  0  0  0  0  0  0  0  0  0  0
   -0.7811    0.1314    1.6192 C   0  0  0  0  0  0  0  0  0  0  0  0
   -1.0897   -1.1364    0.9375 N   0  0  0  0  0  0  0  0  0  0  0  0
   -0.3250   -2.2437    1.3197 C   0  0  0  0  0  0  0  0  0  0  0  0
    0.5711   -2.1607    2.1643 O   0  0  0  0  0  0  0  0  0  0  0  0
   -0.5178   -3.5397    0.5666 C   0  0  0  0  0  0  0  0  0  0  0  0
   -2.2531   -3.9715    0.4051 S   0  0  0  0  0  0  0  0  0  0  0  0
   -2.7910   -2.4363   -0.3133 C   0  0  0  0  0  0  0  0  0  0  0  0
   -3.8822   -2.4887   -1.1947 C   0  0  0  0  0  0  0  0  0  0  0  0
   -4.3769   -1.3261   -1.7790 C   0  0  0  0  0  0  0  0  0  0  0  0
   -3.7885   -0.1047   -1.4607 C   0  0  0  0  0  0  0  0  0  0  0  0
   -4.3613    1.3847   -2.2598 S   0  0  0  0  0  6  0  0  0  0  0  0
   -3.2284    2.2827   -2.3291 O   0  0  0  0  0  0  0  0  0  0  0  0
   -5.0679    0.9809   -3.4568 O   0  0  0  0  0  0  0  0  0  0  0  0
   -5.4884    2.0118   -1.1521 N   0  0  0  0  0  0  0  0  0  0  0  0
   -4.9511    2.5669    0.1132 C   0  0  0  0  0  0  0  0  0  0  0  0
   -5.9912    3.4895    0.7437 C   0  0  0  0  0  0  0  0  0  0  0  0
   -7.3158    2.7639    0.9605 C   0  0  0  0  0  0  0  0  0  0  0  0
   -7.8052    2.1369   -0.3420 C   0  0  0  0  0  0  0  0  0  0  0  0
   -6.7386    1.2375   -0.9618 C   0  0  0  0  0  0  0  0  0  0  0  0
   -2.6968   -0.0402   -0.5833 C   0  0  0  0  0  0  0  0  0  0  0  0
   -2.1854   -1.2054    0.0122 C   0  0  0  0  0  0  0  0  0  0  0  0
    4.1379   -0.6649    0.6500 C   0  0  0  0  0  0  0  0  0  0  0  0
    4.2247   -0.2304    3.3414 H   0  0  0  0  0  0  0  0  0  0  0  0
    5.4654   -1.4486    2.9963 H   0  0  0  0  0  0  0  0  0  0  0  0
    5.9370    0.1841    3.4986 H   0  0  0  0  0  0  0  0  0  0  0  0
    5.0232    1.1417    1.4318 H   0  0  0  0  0  0  0  0  0  0  0  0
    6.8889    0.7683    0.2357 H   0  0  0  0  0  0  0  0  0  0  0  0
    7.4075   -0.2126    1.5947 H   0  0  0  0  0  0  0  0  0  0  0  0
    6.4368   -2.2347    0.5006 H   0  0  0  0  0  0  0  0  0  0  0  0
    8.0607   -2.4439   -1.3555 H   0  0  0  0  0  0  0  0  0  0  0  0
    8.8006   -1.6974    0.0692 H   0  0  0  0  0  0  0  0  0  0  0  0
    8.3514   -0.6951   -1.3205 H   0  0  0  0  0  0  0  0  0  0  0  0
    5.3454   -2.2443   -1.5334 H   0  0  0  0  0  0  0  0  0  0  0  0
    6.0009   -0.7013   -2.0801 H   0  0  0  0  0  0  0  0  0  0  0  0
    2.5481   -1.5532   -1.0843 H   0  0  0  0  0  0  0  0  0  0  0  0
    3.5319   -1.3767   -2.5164 H   0  0  0  0  0  0  0  0  0  0  0  0
    1.6534    0.0393   -2.7780 H   0  0  0  0  0  0  0  0  0  0  0  0
    3.1079    1.0189   -2.6772 H   0  0  0  0  0  0  0  0  0  0  0  0
    1.2719    2.0801   -1.4610 H   0  0  0  0  0  0  0  0  0  0  0  0
    2.5392    1.6517   -0.3186 H   0  0  0  0  0  0  0  0  0  0  0  0
    0.2947   -0.2508   -0.6896 H   0  0  0  0  0  0  0  0  0  0  0  0
   -1.6914    0.7294    1.7356 H   0  0  0  0  0  0  0  0  0  0  0  0
   -0.4248   -0.0821    2.6343 H   0  0  0  0  0  0  0  0  0  0  0  0
   -0.0141   -4.3438    1.1119 H   0  0  0  0  0  0  0  0  0  0  0  0
   -0.0478   -3.4497   -0.4184 H   0  0  0  0  0  0  0  0  0  0  0  0
   -4.3488   -3.4423   -1.4385 H   0  0  0  0  0  0  0  0  0  0  0  0
   -5.2063   -1.3841   -2.4813 H   0  0  0  0  0  0  0  0  0  0  0  0
   -4.0438    3.1491   -0.0749 H   0  0  0  0  0  0  0  0  0  0  0  0
   -4.7018    1.7540    0.8040 H   0  0  0  0  0  0  0  0  0  0  0  0
   -6.1566    4.3554    0.0906 H   0  0  0  0  0  0  0  0  0  0  0  0
   -5.6170    3.8723    1.6995 H   0  0  0  0  0  0  0  0  0  0  0  0
   -7.1875    1.9828    1.7195 H   0  0  0  0  0  0  0  0  0  0  0  0
   -8.0667    3.4645    1.3421 H   0  0  0  0  0  0  0  0  0  0  0  0
   -8.0682    2.9334   -1.0493 H   0  0  0  0  0  0  0  0  0  0  0  0
   -8.7162    1.5578   -0.1551 H   0  0  0  0  0  0  0  0  0  0  0  0
   -6.5497    0.3753   -0.3123 H   0  0  0  0  0  0  0  0  0  0  0  0
   -7.1142    0.8689   -1.9215 H   0  0  0  0  0  0  0  0  0  0  0  0
   -2.2448    0.9329   -0.4064 H   0  0  0  0  0  0  0  0  0  0  0  0
    4.0908   -1.7304    0.9132 H   0  0  0  0  0  0  0  0  0  0  0  0
    3.1762   -0.2360    0.9490 H   0  0  0  0  0  0  0  0  0  0  0  0
  1  2  1  0
  2  3  1  0
  3  4  1  0
  4  5  1  0
  4  6  1  0
  6  7  1  0
  7  8  1  0
  8  9  1  0
  9 10  1  0
 10 11  1  0
 11 12  1  0
 12 13  2  0
 12 14  1  0
 14 15  1  0
 15 16  1  0
 16 17  2  0
 16 18  1  0
 18 19  1  0
 19 20  1  0
 20 21  2  0
 21 22  1  0
 22 23  2  0
 23 24  1  0
 24 25  2  0
 24 26  2  0
 24 27  1  0
 27 28  1  0
 28 29  1  0
 29 30  1  0
 30 31  1  0
 31 32  1  0
 23 33  1  0
 33 34  2  0
  7 35  1  0
 35  2  1  0
 34 15  1  0
 34 20  1  0
 32 27  1  0
  1 36  1  0
  1 37  1  0
  1 38  1  0
  2 39  1  0
  3 40  1  0
  3 41  1  0
  4 42  1  0
  5 43  1  0
  5 44  1  0
  5 45  1  0
  6 46  1  0
  6 47  1  0
  8 48  1  0
  8 49  1  0
  9 50  1  0
  9 51  1  0
 10 52  1  0
 10 53  1  0
 11 54  1  0
 14 55  1  0
 14 56  1  0
 18 57  1  0
 18 58  1  0
 21 59  1  0
 22 60  1  0
 28 61  1  0
 28 62  1  0
 29 63  1  0
 29 64  1  0
 30 65  1  0
 30 66  1  0
 31 67  1  0
 31 68  1  0
 32 69  1  0
 32 70  1  0
 33 71  1  0
 35 72  1  0
 35 73  1  0
M  END
$$$$
