
     RDKit          3D

 43 45  0  0  0  0  0  0  0  0999 V2000
    2.7475    2.1987   -1.9869 O   0  0  0  0  0  0  0  0  0  0  0  0
    2.7091    1.6739   -0.8715 C   0  0  0  0  0  0  0  0  0  0  0  0
    3.9536    0.9779   -0.2678 C   0  0  0  0  0  0  0  0  0  0  0  0
    3.8303   -0.5414   -0.3671 C   0  0  0  0  0  0  0  0  0  0  0  0
    5.1808   -0.9821   -0.8802 C   0  0  0  0  0  0  0  0  0  0  0  0
    5.6089    0.2075   -1.7000 C   0  0  0  0  0  0  0  0  0  0  0  0
    5.1641    1.3414   -0.9541 O   0  0  0  0  0  0  0  0  0  0  0  0
    1.5321    1.6537   -0.1278 N   0  0  0  0  0  0  0  0  0  0  0  0
    1.4317    1.1875    1.2613 C   0  0  0  0  0  0  0  0  0  0  0  0
    0.0869    1.5425    1.9155 C   0  0  0  0  0  0  0  0  0  0  0  0
   -1.0470    1.0875    1.0850 N   0  0  0  0  0  0  0  0  0  0  0  0
   -2.0098    0.1510    1.5287 C   0  0  0  0  0  0  0  0  0  0  0  0
   -1.9447   -0.6172    3.0240 S   0  0  0  0  0  0  0  0  0  0  0  0
   -3.0417   -0.0136    0.6106 N   0  0  0  0  0  0  0  0  0  0  0  0
   -3.9503   -1.0797    0.4222 C   0  0  0  0  0  0  0  0  0  0  0  0
   -3.6882   -2.4020    0.7945 C   0  0  0  0  0  0  0  0  0  0  0  0
   -4.6242   -3.4096    0.5391 C   0  0  0  0  0  0  0  0  0  0  0  0
   -5.8127   -3.0971   -0.1062 C   0  0  0  0  0  0  0  0  0  0  0  0
   -6.7036   -4.0644   -0.3578 F   0  0  0  0  0  0  0  0  0  0  0  0
   -6.0807   -1.7967   -0.5100 C   0  0  0  0  0  0  0  0  0  0  0  0
   -5.1454   -0.7901   -0.2538 C   0  0  0  0  0  0  0  0  0  0  0  0
   -0.9425    1.4699   -0.3410 C   0  0  0  0  0  0  0  0  0  0  0  0
    0.3262    2.2633   -0.6938 C   0  0  0  0  0  0  0  0  0  0  0  0
    4.0902    1.3029    0.7663 H   0  0  0  0  0  0  0  0  0  0  0  0
    3.0431   -0.8348   -1.0722 H   0  0  0  0  0  0  0  0  0  0  0  0
    3.5901   -1.0004    0.5965 H   0  0  0  0  0  0  0  0  0  0  0  0
    5.1463   -1.9122   -1.4534 H   0  0  0  0  0  0  0  0  0  0  0  0
    5.8664   -1.1202   -0.0351 H   0  0  0  0  0  0  0  0  0  0  0  0
    5.1200    0.2218   -2.6801 H   0  0  0  0  0  0  0  0  0  0  0  0
    6.6920    0.2587   -1.8394 H   0  0  0  0  0  0  0  0  0  0  0  0
    1.5595    0.1003    1.2475 H   0  0  0  0  0  0  0  0  0  0  0  0
    2.2473    1.6237    1.8450 H   0  0  0  0  0  0  0  0  0  0  0  0
    0.0605    1.1464    2.9328 H   0  0  0  0  0  0  0  0  0  0  0  0
   -0.0113    2.6325    2.0043 H   0  0  0  0  0  0  0  0  0  0  0  0
   -3.3085    0.8487    0.1565 H   0  0  0  0  0  0  0  0  0  0  0  0
   -2.7488   -2.6875    1.2569 H   0  0  0  0  0  0  0  0  0  0  0  0
   -4.4240   -4.4355    0.8320 H   0  0  0  0  0  0  0  0  0  0  0  0
   -7.0117   -1.5741   -1.0215 H   0  0  0  0  0  0  0  0  0  0  0  0
   -5.3722    0.2231   -0.5763 H   0  0  0  0  0  0  0  0  0  0  0  0
   -1.8228    2.0637   -0.6090 H   0  0  0  0  0  0  0  0  0  0  0  0
   -0.9640    0.5435   -0.9283 H   0  0  0  0  0  0  0  0  0  0  0  0
    0.2635    3.2788   -0.2844 H   0  0  0  0  0  0  0  0  0  0  0  0
    0.4041    2.3595   -1.7816 H   0  0  0  0  0  0  0  0  0  0  0  0
  1  2  2  0
  2  3  1  0
  3  4  1  0
  4  5  1  0
  5  6  1  0
  6  7  1  0
  2  8  1  0
  8  9  1  0
  9 10  1  0
 10 11  1  0
 11 12  1  0
 12 13  2  0
 12 14  1  0
 14 15  1  0
 15 16  2  0
 16 17  1  0
 17 18  2  0
 18 19  1  0
 18 20  1  0
 20 21  2  0
 11 22  1  0
 22 23  1  0
  7  3  1  0
 23  8  1  0
 21 15  1  0
  3 24  1  0
  4 25  1  0
  4 26  1  0
  5 27  1  0
  5 28  1  0
  6 29  1  0
  6 30  1  0
  9 31  1  0
  9 32  1  0
 10 33  1  0
 10 34  1  0
 14 35  1  0
 16 36  1  0
 17 37  1  0
 20 38  1  0
 21 39  1  0
 22 40  1  0
 22 41  1  0
 23 42  1  0
 23 43  1  0
M  END
$$$$
