
     RDKit          3D

 39 41  0  0  0  0  0  0  0  0999 V2000
    4.9940    0.5918    1.4402 C   0  0  0  0  0  0  0  0  0  0  0  0
    4.2539    0.4572    0.1072 C   0  0  0  0  0  0  0  0  0  0  0  0
    4.9011   -0.6444   -0.7332 C   0  0  0  0  0  0  0  0  0  0  0  0
    2.7588    0.1970    0.3645 C   0  0  0  0  0  0  0  0  0  0  0  0
    1.9117    0.1945   -0.9140 C   0  0  0  0  0  0  0  0  0  0  0  0
    0.4868    0.0718   -0.6112 N   0  0  0  0  0  0  0  0  0  0  0  0
   -0.0341   -1.2123   -0.4687 C   0  0  0  0  0  0  0  0  0  0  0  0
    0.6345   -2.2365   -0.5877 O   0  0  0  0  0  0  0  0  0  0  0  0
   -1.4764   -1.3222   -0.1477 C   0  0  0  0  0  0  0  0  0  0  0  0
   -2.0432   -2.5959   -0.0195 C   0  0  0  0  0  0  0  0  0  0  0  0
   -3.3888   -2.7254    0.2935 C   0  0  0  0  0  0  0  0  0  0  0  0
   -4.1713   -1.5834    0.4673 C   0  0  0  0  0  0  0  0  0  0  0  0
   -3.6344   -0.2819    0.3303 C   0  0  0  0  0  0  0  0  0  0  0  0
   -4.4142    0.8995    0.4788 C   0  0  0  0  0  0  0  0  0  0  0  0
   -5.7697    0.8601    0.8621 N   0  0  0  0  0  0  0  0  0  0  0  0
   -3.7839    2.1493    0.4450 C   0  0  0  0  0  0  0  0  0  0  0  0
   -2.4279    2.2560    0.1543 C   0  0  0  0  0  0  0  0  0  0  0  0
   -1.6687    1.1037   -0.0659 C   0  0  0  0  0  0  0  0  0  0  0  0
   -2.2490   -0.1656    0.0301 C   0  0  0  0  0  0  0  0  0  0  0  0
   -0.2280    1.2445   -0.3803 C   0  0  0  0  0  0  0  0  0  0  0  0
    0.2707    2.3669   -0.4191 O   0  0  0  0  0  0  0  0  0  0  0  0
    4.5716    1.4051    2.0398 H   0  0  0  0  0  0  0  0  0  0  0  0
    4.9287   -0.3313    2.0263 H   0  0  0  0  0  0  0  0  0  0  0  0
    6.0536    0.8154    1.2766 H   0  0  0  0  0  0  0  0  0  0  0  0
    4.3582    1.4072   -0.4320 H   0  0  0  0  0  0  0  0  0  0  0  0
    4.7643   -1.6281   -0.2716 H   0  0  0  0  0  0  0  0  0  0  0  0
    5.9770   -0.4688   -0.8412 H   0  0  0  0  0  0  0  0  0  0  0  0
    4.4770   -0.6782   -1.7412 H   0  0  0  0  0  0  0  0  0  0  0  0
    2.6316   -0.7573    0.8916 H   0  0  0  0  0  0  0  0  0  0  0  0
    2.3756    0.9713    1.0420 H   0  0  0  0  0  0  0  0  0  0  0  0
    2.0831    1.1201   -1.4759 H   0  0  0  0  0  0  0  0  0  0  0  0
    2.2048   -0.6360   -1.5650 H   0  0  0  0  0  0  0  0  0  0  0  0
   -1.4345   -3.4882   -0.1545 H   0  0  0  0  0  0  0  0  0  0  0  0
   -3.8305   -3.7125    0.4069 H   0  0  0  0  0  0  0  0  0  0  0  0
   -5.2169   -1.7269    0.7282 H   0  0  0  0  0  0  0  0  0  0  0  0
   -6.2777    0.0605    0.5002 H   0  0  0  0  0  0  0  0  0  0  0  0
   -6.2706    1.7254    0.6815 H   0  0  0  0  0  0  0  0  0  0  0  0
   -4.3515    3.0570    0.6365 H   0  0  0  0  0  0  0  0  0  0  0  0
   -1.9657    3.2405    0.1091 H   0  0  0  0  0  0  0  0  0  0  0  0
  1  2  1  0
  2  3  1  0
  2  4  1  0
  4  5  1  0
  5  6  1  0
  6  7  1  0
  7  8  2  0
  7  9  1  0
  9 10  1  0
 10 11  2  0
 11 12  1  0
 12 13  2  0
 13 14  1  0
 14 15  1  0
 14 16  2  0
 16 17  1  0
 17 18  2  0
 18 19  1  0
 18 20  1  0
 20 21  2  0
 20  6  1  0
 19  9  2  0
 19 13  1  0
  1 22  1  0
  1 23  1  0
  1 24  1  0
  2 25  1  0
  3 26  1  0
  3 27  1  0
  3 28  1  0
  4 29  1  0
  4 30  1  0
  5 31  1  0
  5 32  1  0
 10 33  1  0
 11 34  1  0
 12 35  1  0
 15 36  1  0
 15 37  1  0
 16 38  1  0
 17 39  1  0
M  END
$$$$
