
     RDKit          3D

 28 29  0  0  0  0  0  0  0  0999 V2000
   -1.8681    0.4698    2.2692 O   0  0  0  0  0  0  0  0  0  0  0  0
   -2.0195    0.2782    1.0712 C   0  0  0  0  0  0  0  0  0  0  0  0
   -1.0480    0.3687    0.1303 O   0  0  0  0  0  0  0  0  0  0  0  0
    0.2322    0.7377    0.6468 C   0  0  0  0  0  0  0  0  0  0  0  0
    1.1897    0.9639   -0.5130 C   0  0  0  0  0  0  0  0  0  0  0  0
    0.8609    1.4991   -1.5704 O   0  0  0  0  0  0  0  0  0  0  0  0
    2.5736    0.4487   -0.3906 C   0  0  0  0  0  0  0  0  0  0  0  0
    3.0460   -0.3331   -1.4569 C   0  0  0  0  0  0  0  0  0  0  0  0
    4.3307   -0.8758   -1.4188 C   0  0  0  0  0  0  0  0  0  0  0  0
    5.1538   -0.6335   -0.3217 C   0  0  0  0  0  0  0  0  0  0  0  0
    4.6971    0.1610    0.7319 C   0  0  0  0  0  0  0  0  0  0  0  0
    3.4097    0.7099    0.7000 C   0  0  0  0  0  0  0  0  0  0  0  0
    2.9598    1.7393    2.0097 Cl  0  0  0  0  0  0  0  0  0  0  0  0
   -3.3195   -0.0942    0.4586 C   0  0  0  0  0  0  0  0  0  0  0  0
   -4.4472   -0.1458    1.2664 C   0  0  0  0  0  0  0  0  0  0  0  0
   -5.6742   -0.4794    0.7874 N   0  0  0  0  0  0  0  0  0  0  0  0
   -5.7213   -0.7566   -0.5361 C   0  0  0  0  0  0  0  0  0  0  0  0
   -4.5972   -0.7088   -1.3451 C   0  0  0  0  0  0  0  0  0  0  0  0
   -3.3732   -0.3822   -0.8713 N   0  0  0  0  0  0  0  0  0  0  0  0
    0.5985   -0.0727    1.2858 H   0  0  0  0  0  0  0  0  0  0  0  0
    0.1523    1.6748    1.2081 H   0  0  0  0  0  0  0  0  0  0  0  0
    2.4096   -0.5199   -2.3212 H   0  0  0  0  0  0  0  0  0  0  0  0
    4.6891   -1.4827   -2.2474 H   0  0  0  0  0  0  0  0  0  0  0  0
    6.1575   -1.0521   -0.2916 H   0  0  0  0  0  0  0  0  0  0  0  0
    5.3589    0.3593    1.5725 H   0  0  0  0  0  0  0  0  0  0  0  0
   -4.4037    0.0802    2.3271 H   0  0  0  0  0  0  0  0  0  0  0  0
   -6.6953   -1.0207   -0.9331 H   0  0  0  0  0  0  0  0  0  0  0  0
   -4.6521   -0.9333   -2.4047 H   0  0  0  0  0  0  0  0  0  0  0  0
  1  2  2  0
  2  3  1  0
  3  4  1  0
  4  5  1  0
  5  6  2  0
  5  7  1  0
  7  8  2  0
  8  9  1  0
  9 10  2  0
 10 11  1  0
 11 12  2  0
 12 13  1  0
  2 14  1  0
 14 15  2  0
 15 16  1  0
 16 17  2  0
 17 18  1  0
 18 19  2  0
 12  7  1  0
 19 14  1  0
  4 20  1  0
  4 21  1  0
  8 22  1  0
  9 23  1  0
 10 24  1  0
 11 25  1  0
 15 26  1  0
 17 27  1  0
 18 28  1  0
M  END
$$$$
