
     RDKit          3D

 23 24  0  0  0  0  0  0  0  0999 V2000
   -4.9589    0.3407    0.5722 C   0  0  0  0  0  0  0  0  0  0  0  0
   -4.1358    1.8296   -0.0330 S   0  0  0  0  0  0  0  0  0  0  0  0
   -2.5072    1.2310   -0.2710 C   0  0  0  0  0  0  0  0  0  0  0  0
   -2.1661   -0.0007    0.0276 N   0  0  0  0  0  0  0  0  0  0  0  0
   -0.8284   -0.1993   -0.2626 C   0  0  0  0  0  0  0  0  0  0  0  0
   -0.1152   -1.4028   -0.0802 C   0  0  0  0  0  0  0  0  0  0  0  0
    1.2420   -1.4669   -0.4124 C   0  0  0  0  0  0  0  0  0  0  0  0
    1.8876   -0.3376   -0.9157 C   0  0  0  0  0  0  0  0  0  0  0  0
    3.6090   -0.4471   -1.3410 S   0  0  0  0  0  6  0  0  0  0  0  0
    4.3423   -0.1566    0.1453 N   0  0  0  0  0  0  0  0  0  0  0  0
    3.8952   -1.8080   -1.7246 O   0  0  0  0  0  0  0  0  0  0  0  0
    3.9464    0.6858   -2.1711 O   0  0  0  0  0  0  0  0  0  0  0  0
    1.2061    0.8690   -1.1216 C   0  0  0  0  0  0  0  0  0  0  0  0
   -0.1564    0.9107   -0.7811 C   0  0  0  0  0  0  0  0  0  0  0  0
   -1.2641    2.2236   -0.9028 S   0  0  0  0  0  0  0  0  0  0  0  0
   -4.9071   -0.4600   -0.1709 H   0  0  0  0  0  0  0  0  0  0  0  0
   -4.5065    0.0009    1.5081 H   0  0  0  0  0  0  0  0  0  0  0  0
   -6.0120    0.5657    0.7619 H   0  0  0  0  0  0  0  0  0  0  0  0
   -0.6306   -2.2751    0.3121 H   0  0  0  0  0  0  0  0  0  0  0  0
    1.7811   -2.4042   -0.2809 H   0  0  0  0  0  0  0  0  0  0  0  0
    4.8826    0.7086    0.0865 H   0  0  0  0  0  0  0  0  0  0  0  0
    3.6935   -0.1507    0.9308 H   0  0  0  0  0  0  0  0  0  0  0  0
    1.7028    1.7434   -1.5339 H   0  0  0  0  0  0  0  0  0  0  0  0
  1  2  1  0
  2  3  1  0
  3  4  2  0
  4  5  1  0
  5  6  2  0
  6  7  1  0
  7  8  2  0
  8  9  1  0
  9 10  1  0
  9 11  2  0
  9 12  2  0
  8 13  1  0
 13 14  2  0
 14 15  1  0
 15  3  1  0
 14  5  1  0
  1 16  1  0
  1 17  1  0
  1 18  1  0
  6 19  1  0
  7 20  1  0
 10 21  1  0
 10 22  1  0
 13 23  1  0
M  END
$$$$
