
     RDKit          3D

 50 52  0  0  0  0  0  0  0  0999 V2000
   -3.6249   -3.1947   -0.2530 C   0  0  0  0  0  0  0  0  0  0  0  0
   -2.4804   -2.2194   -0.5125 C   0  0  0  0  0  0  0  0  0  0  0  0
   -2.5628   -0.9114    0.3090 C   0  0  0  0  0  0  0  0  0  0  0  0
   -3.8222   -0.0935    0.0326 C   0  0  0  0  0  0  0  0  0  0  0  0
   -4.0582    0.4312   -1.2530 C   0  0  0  0  0  0  0  0  0  0  0  0
   -5.2189    1.1560   -1.5373 C   0  0  0  0  0  0  0  0  0  0  0  0
   -6.1691    1.3696   -0.5451 C   0  0  0  0  0  0  0  0  0  0  0  0
   -5.9607    0.8581    0.7312 C   0  0  0  0  0  0  0  0  0  0  0  0
   -4.8004    0.1322    1.0193 C   0  0  0  0  0  0  0  0  0  0  0  0
   -2.3618   -1.1901    1.7214 N   0  0  0  0  0  0  0  0  0  0  0  0
   -1.1231   -0.8057    2.1675 C   0  0  0  0  0  0  0  0  0  0  0  0
   -0.6892   -1.0695    3.2752 O   0  0  0  0  0  0  0  0  0  0  0  0
   -0.5022   -0.1108    1.1850 N   0  0  0  0  0  0  0  0  0  0  0  0
    0.8642    0.3504    1.2498 C   0  0  0  0  0  0  0  0  0  0  0  0
    1.7983   -0.7699    0.7651 C   0  0  0  0  0  0  0  0  0  0  0  0
    1.3491   -1.8619    0.4004 O   0  0  0  0  0  0  0  0  0  0  0  0
    3.1668   -0.5102    0.7708 N   0  0  0  0  0  0  0  0  0  0  0  0
    4.0625   -1.5690    0.3250 C   0  0  0  0  0  0  0  0  0  0  0  0
    3.7638    0.8104    0.9808 C   0  0  0  0  0  0  0  0  0  0  0  0
    4.3001    1.4215   -0.2933 C   0  0  0  0  0  0  0  0  0  0  0  0
    3.4333    1.8541   -1.3086 C   0  0  0  0  0  0  0  0  0  0  0  0
    3.9372    2.4096   -2.4875 C   0  0  0  0  0  0  0  0  0  0  0  0
    5.3109    2.5350   -2.6680 C   0  0  0  0  0  0  0  0  0  0  0  0
    6.1824    2.1069   -1.6703 C   0  0  0  0  0  0  0  0  0  0  0  0
    5.6825    1.5522   -0.4888 C   0  0  0  0  0  0  0  0  0  0  0  0
   -1.2615   -0.1006    0.0479 C   0  0  0  0  0  0  0  0  0  0  0  0
   -0.9319    0.4239   -1.0113 O   0  0  0  0  0  0  0  0  0  0  0  0
   -3.4605   -4.1199   -0.8147 H   0  0  0  0  0  0  0  0  0  0  0  0
   -4.5836   -2.7790   -0.5757 H   0  0  0  0  0  0  0  0  0  0  0  0
   -3.6997   -3.4570    0.8056 H   0  0  0  0  0  0  0  0  0  0  0  0
   -2.4539   -1.9939   -1.5864 H   0  0  0  0  0  0  0  0  0  0  0  0
   -1.5363   -2.7367   -0.2934 H   0  0  0  0  0  0  0  0  0  0  0  0
   -3.3360    0.2796   -2.0524 H   0  0  0  0  0  0  0  0  0  0  0  0
   -5.3769    1.5526   -2.5367 H   0  0  0  0  0  0  0  0  0  0  0  0
   -7.0722    1.9318   -0.7676 H   0  0  0  0  0  0  0  0  0  0  0  0
   -6.7053    1.0167    1.5066 H   0  0  0  0  0  0  0  0  0  0  0  0
   -4.6801   -0.2520    2.0277 H   0  0  0  0  0  0  0  0  0  0  0  0
   -2.9172   -1.8288    2.2687 H   0  0  0  0  0  0  0  0  0  0  0  0
    1.1110    0.5999    2.2866 H   0  0  0  0  0  0  0  0  0  0  0  0
    0.9675    1.2238    0.6012 H   0  0  0  0  0  0  0  0  0  0  0  0
    4.2826   -1.4267   -0.7379 H   0  0  0  0  0  0  0  0  0  0  0  0
    3.6143   -2.5582    0.4605 H   0  0  0  0  0  0  0  0  0  0  0  0
    4.9902   -1.5282    0.9051 H   0  0  0  0  0  0  0  0  0  0  0  0
    3.0507    1.5078    1.4289 H   0  0  0  0  0  0  0  0  0  0  0  0
    4.5670    0.6883    1.7181 H   0  0  0  0  0  0  0  0  0  0  0  0
    2.3574    1.7595   -1.1992 H   0  0  0  0  0  0  0  0  0  0  0  0
    3.2582    2.7345   -3.2682 H   0  0  0  0  0  0  0  0  0  0  0  0
    5.7010    2.9629   -3.5890 H   0  0  0  0  0  0  0  0  0  0  0  0
    7.2553    2.1992   -1.8142 H   0  0  0  0  0  0  0  0  0  0  0  0
    6.3827    1.2198    0.2756 H   0  0  0  0  0  0  0  0  0  0  0  0
  1  2  1  0
  2  3  1  0
  3  4  1  0
  4  5  2  0
  5  6  1  0
  6  7  2  0
  7  8  1  0
  8  9  2  0
  3 10  1  0
 10 11  1  0
 11 12  2  0
 11 13  1  0
 13 14  1  0
 14 15  1  0
 15 16  2  0
 15 17  1  0
 17 18  1  0
 17 19  1  0
 19 20  1  0
 20 21  2  0
 21 22  1  0
 22 23  2  0
 23 24  1  0
 24 25  2  0
 13 26  1  0
 26 27  2  0
 26  3  1  0
  9  4  1  0
 25 20  1  0
  1 28  1  0
  1 29  1  0
  1 30  1  0
  2 31  1  0
  2 32  1  0
  5 33  1  0
  6 34  1  0
  7 35  1  0
  8 36  1  0
  9 37  1  0
 10 38  1  0
 14 39  1  0
 14 40  1  0
 18 41  1  0
 18 42  1  0
 18 43  1  0
 19 44  1  0
 19 45  1  0
 21 46  1  0
 22 47  1  0
 23 48  1  0
 24 49  1  0
 25 50  1  0
M  END
$$$$
