
     RDKit          3D

 50 53  0  0  0  0  0  0  0  0999 V2000
   -1.8012   -0.0527    2.0936 O   0  0  0  0  0  0  0  0  0  0  0  0
   -2.1686    0.0175    0.9193 C   0  0  0  0  0  0  0  0  0  0  0  0
   -3.6570   -0.0588    0.5637 C   0  0  0  0  0  0  0  0  0  0  0  0
   -4.5250    0.4440    1.7292 C   0  0  0  0  0  0  0  0  0  0  0  0
   -6.0134    0.3236    1.4103 C   0  0  0  0  0  0  0  0  0  0  0  0
   -6.3907   -1.1060    1.0336 C   0  0  0  0  0  0  0  0  0  0  0  0
   -5.5216   -1.6378   -0.1021 C   0  0  0  0  0  0  0  0  0  0  0  0
   -4.0338   -1.5064    0.2157 C   0  0  0  0  0  0  0  0  0  0  0  0
   -1.2539    0.1176   -0.1266 N   0  0  0  0  0  0  0  0  0  0  0  0
   -1.6243    0.3739   -1.5198 C   0  0  0  0  0  0  0  0  0  0  0  0
   -0.4418    0.2519   -2.4735 C   0  0  0  0  0  0  0  0  0  0  0  0
    0.7136    1.1705   -2.0716 C   0  0  0  0  0  0  0  0  0  0  0  0
    0.8973    1.2808   -0.5457 C   0  0  0  0  0  0  0  0  0  0  0  0
    2.3386    1.3118   -0.1850 C   0  0  0  0  0  0  0  0  0  0  0  0
    3.2358    0.3544   -0.2304 N   0  0  0  0  0  0  0  0  0  0  0  0
    4.3774    0.9917    0.2119 C   0  0  0  0  0  0  0  0  0  0  0  0
    5.6574    0.3002    0.3340 C   0  0  0  0  0  0  0  0  0  0  0  0
    6.8061    0.9748    0.7817 C   0  0  0  0  0  0  0  0  0  0  0  0
    8.0264    0.3024    0.8945 C   0  0  0  0  0  0  0  0  0  0  0  0
    8.1010   -1.0441    0.5606 C   0  0  0  0  0  0  0  0  0  0  0  0
    9.2706   -1.6873    0.6687 F   0  0  0  0  0  0  0  0  0  0  0  0
    6.9794   -1.7328    0.1161 C   0  0  0  0  0  0  0  0  0  0  0  0
    5.7587   -1.0618    0.0029 C   0  0  0  0  0  0  0  0  0  0  0  0
    4.1919    2.2893    0.5076 N   0  0  0  0  0  0  0  0  0  0  0  0
    2.8413    2.5022    0.2460 O   0  0  0  0  0  0  0  0  0  0  0  0
    0.1808    0.1458    0.1930 C   0  0  0  0  0  0  0  0  0  0  0  0
   -3.8596    0.5942   -0.2923 H   0  0  0  0  0  0  0  0  0  0  0  0
   -4.2807    1.4901    1.9502 H   0  0  0  0  0  0  0  0  0  0  0  0
   -4.3080   -0.1258    2.6421 H   0  0  0  0  0  0  0  0  0  0  0  0
   -6.6033    0.6442    2.2764 H   0  0  0  0  0  0  0  0  0  0  0  0
   -6.2660    0.9988    0.5836 H   0  0  0  0  0  0  0  0  0  0  0  0
   -6.2789   -1.7547    1.9112 H   0  0  0  0  0  0  0  0  0  0  0  0
   -7.4458   -1.1446    0.7405 H   0  0  0  0  0  0  0  0  0  0  0  0
   -5.7468   -1.0868   -1.0235 H   0  0  0  0  0  0  0  0  0  0  0  0
   -5.7665   -2.6891   -0.2908 H   0  0  0  0  0  0  0  0  0  0  0  0
   -3.7830   -2.1659    1.0573 H   0  0  0  0  0  0  0  0  0  0  0  0
   -3.4493   -1.8717   -0.6353 H   0  0  0  0  0  0  0  0  0  0  0  0
   -2.0395    1.3879   -1.5649 H   0  0  0  0  0  0  0  0  0  0  0  0
   -2.4113   -0.3197   -1.8254 H   0  0  0  0  0  0  0  0  0  0  0  0
   -0.7568    0.4796   -3.4980 H   0  0  0  0  0  0  0  0  0  0  0  0
   -0.0873   -0.7869   -2.4771 H   0  0  0  0  0  0  0  0  0  0  0  0
    1.6259    0.8178   -2.5697 H   0  0  0  0  0  0  0  0  0  0  0  0
    0.5290    2.1765   -2.4712 H   0  0  0  0  0  0  0  0  0  0  0  0
    0.4360    2.2256   -0.2246 H   0  0  0  0  0  0  0  0  0  0  0  0
    6.7604    2.0296    1.0473 H   0  0  0  0  0  0  0  0  0  0  0  0
    8.9148    0.8212    1.2406 H   0  0  0  0  0  0  0  0  0  0  0  0
    7.0592   -2.7850   -0.1379 H   0  0  0  0  0  0  0  0  0  0  0  0
    4.8844   -1.6098   -0.3445 H   0  0  0  0  0  0  0  0  0  0  0  0
    0.5891   -0.8320   -0.0945 H   0  0  0  0  0  0  0  0  0  0  0  0
    0.3390    0.2418    1.2731 H   0  0  0  0  0  0  0  0  0  0  0  0
  1  2  2  0
  2  3  1  0
  3  4  1  0
  4  5  1  0
  5  6  1  0
  6  7  1  0
  7  8  1  0
  2  9  1  0
  9 10  1  0
 10 11  1  0
 11 12  1  0
 12 13  1  0
 13 14  1  0
 14 15  2  0
 15 16  1  0
 16 17  1  0
 17 18  2  0
 18 19  1  0
 19 20  2  0
 20 21  1  0
 20 22  1  0
 22 23  2  0
 16 24  2  0
 24 25  1  0
 13 26  1  0
  8  3  1  0
 26  9  1  0
 25 14  1  0
 23 17  1  0
  3 27  1  0
  4 28  1  0
  4 29  1  0
  5 30  1  0
  5 31  1  0
  6 32  1  0
  6 33  1  0
  7 34  1  0
  7 35  1  0
  8 36  1  0
  8 37  1  0
 10 38  1  0
 10 39  1  0
 11 40  1  0
 11 41  1  0
 12 42  1  0
 12 43  1  0
 13 44  1  0
 18 45  1  0
 19 46  1  0
 22 47  1  0
 23 48  1  0
 26 49  1  0
 26 50  1  0
M  END
$$$$
