
     RDKit          3D

 49 52  0  0  0  0  0  0  0  0999 V2000
    8.2281    0.5506    0.5537 C   0  0  0  0  0  0  0  0  0  0  0  0
    7.3502   -0.4432   -0.0625 N   0  0  0  0  0  0  0  0  0  0  0  0
    7.6922   -0.8116   -1.4362 C   0  0  0  0  0  0  0  0  0  0  0  0
    6.0026   -0.4807    0.3235 C   0  0  0  0  0  0  0  0  0  0  0  0
    5.0314   -1.1803   -0.4145 C   0  0  0  0  0  0  0  0  0  0  0  0
    3.6836   -1.2349   -0.0253 C   0  0  0  0  0  0  0  0  0  0  0  0
    3.2532   -0.5846    1.1275 C   0  0  0  0  0  0  0  0  0  0  0  0
    1.8658   -0.6596    1.5925 C   0  0  0  0  0  0  0  0  0  0  0  0
    0.7679   -0.2666    0.9303 C   0  0  0  0  0  0  0  0  0  0  0  0
   -0.5610   -0.3693    1.4419 C   0  0  0  0  0  0  0  0  0  0  0  0
   -1.3556    0.1343    0.4992 C   0  0  0  0  0  0  0  0  0  0  0  0
   -2.8221    0.2566    0.5182 C   0  0  0  0  0  0  0  0  0  0  0  0
   -3.5519    0.1813    1.7156 C   0  0  0  0  0  0  0  0  0  0  0  0
   -4.9448    0.3106    1.7235 C   0  0  0  0  0  0  0  0  0  0  0  0
   -5.6354    0.5072    0.5283 C   0  0  0  0  0  0  0  0  0  0  0  0
   -4.9246    0.5915   -0.6774 C   0  0  0  0  0  0  0  0  0  0  0  0
   -3.5287    0.4758   -0.6754 C   0  0  0  0  0  0  0  0  0  0  0  0
   -5.6968    0.8642   -1.9408 C   0  0  0  0  0  0  0  0  0  0  0  0
   -6.9721    0.0213   -2.0010 C   0  0  0  0  0  0  0  0  0  0  0  0
   -7.7507   -0.0703   -0.6797 C   0  0  0  0  0  0  0  0  0  0  0  0
   -7.1281    0.6944    0.4899 C   0  0  0  0  0  0  0  0  0  0  0  0
   -0.6844    0.5874   -0.6544 O   0  0  0  0  0  0  0  0  0  0  0  0
    0.6567    0.3585   -0.4210 C   0  0  0  0  0  0  0  0  0  0  0  0
    1.5502    0.6283   -1.2020 O   0  0  0  0  0  0  0  0  0  0  0  0
    4.1976    0.0905    1.8977 C   0  0  0  0  0  0  0  0  0  0  0  0
    5.5432    0.1370    1.5000 C   0  0  0  0  0  0  0  0  0  0  0  0
    8.3209    0.3844    1.6323 H   0  0  0  0  0  0  0  0  0  0  0  0
    7.8666    1.5678    0.3661 H   0  0  0  0  0  0  0  0  0  0  0  0
    9.2460    0.4823    0.1533 H   0  0  0  0  0  0  0  0  0  0  0  0
    7.1832   -0.1631   -2.1579 H   0  0  0  0  0  0  0  0  0  0  0  0
    8.7700   -0.7213   -1.6135 H   0  0  0  0  0  0  0  0  0  0  0  0
    7.4439   -1.8586   -1.6401 H   0  0  0  0  0  0  0  0  0  0  0  0
    5.2936   -1.7102   -1.3248 H   0  0  0  0  0  0  0  0  0  0  0  0
    2.9834   -1.7901   -0.6446 H   0  0  0  0  0  0  0  0  0  0  0  0
    1.7645   -1.0726    2.5945 H   0  0  0  0  0  0  0  0  0  0  0  0
   -0.8404   -0.7852    2.3951 H   0  0  0  0  0  0  0  0  0  0  0  0
   -3.0493    0.0370    2.6683 H   0  0  0  0  0  0  0  0  0  0  0  0
   -5.4810    0.2613    2.6681 H   0  0  0  0  0  0  0  0  0  0  0  0
   -2.9933    0.5551   -1.6199 H   0  0  0  0  0  0  0  0  0  0  0  0
   -5.9498    1.9313   -1.9699 H   0  0  0  0  0  0  0  0  0  0  0  0
   -5.0855    0.6532   -2.8259 H   0  0  0  0  0  0  0  0  0  0  0  0
   -6.7048   -0.9990   -2.3077 H   0  0  0  0  0  0  0  0  0  0  0  0
   -7.6259    0.4072   -2.7924 H   0  0  0  0  0  0  0  0  0  0  0  0
   -7.8274   -1.1311   -0.4051 H   0  0  0  0  0  0  0  0  0  0  0  0
   -8.7815    0.2722   -0.8304 H   0  0  0  0  0  0  0  0  0  0  0  0
   -7.5882    0.3557    1.4256 H   0  0  0  0  0  0  0  0  0  0  0  0
   -7.3419    1.7661    0.3944 H   0  0  0  0  0  0  0  0  0  0  0  0
    3.9058    0.5929    2.8167 H   0  0  0  0  0  0  0  0  0  0  0  0
    6.2243    0.6766    2.1504 H   0  0  0  0  0  0  0  0  0  0  0  0
  1  2  1  0
  2  3  1  0
  2  4  1  0
  4  5  2  0
  5  6  1  0
  6  7  2  0
  7  8  1  0
  8  9  2  3
  9 10  1  0
 10 11  2  0
 11 12  1  0
 12 13  2  0
 13 14  1  0
 14 15  2  0
 15 16  1  0
 16 17  2  0
 16 18  1  0
 18 19  1  0
 19 20  1  0
 20 21  1  0
 11 22  1  0
 22 23  1  0
 23 24  2  0
  7 25  1  0
 25 26  2  0
 26  4  1  0
 23  9  1  0
 17 12  1  0
 21 15  1  0
  1 27  1  0
  1 28  1  0
  1 29  1  0
  3 30  1  0
  3 31  1  0
  3 32  1  0
  5 33  1  0
  6 34  1  0
  8 35  1  0
 10 36  1  0
 13 37  1  0
 14 38  1  0
 17 39  1  0
 18 40  1  0
 18 41  1  0
 19 42  1  0
 19 43  1  0
 20 44  1  0
 20 45  1  0
 21 46  1  0
 21 47  1  0
 25 48  1  0
 26 49  1  0
M  END
$$$$
