
     RDKit          3D

 49 52  0  0  0  0  0  0  0  0999 V2000
   -6.9921    1.4952   -2.6192 C   0  0  0  0  0  0  0  0  0  0  0  0
   -6.3843    1.0991   -1.3053 C   0  0  0  0  0  0  0  0  0  0  0  0
   -7.1593    1.0866   -0.1402 C   0  0  0  0  0  0  0  0  0  0  0  0
   -6.6055    0.6822    1.0788 C   0  0  0  0  0  0  0  0  0  0  0  0
   -7.4284    0.7109    2.3327 C   0  0  0  0  0  0  0  0  0  0  0  0
   -5.2568    0.3018    1.1223 C   0  0  0  0  0  0  0  0  0  0  0  0
   -4.4702    0.2897   -0.0377 C   0  0  0  0  0  0  0  0  0  0  0  0
   -3.1259   -0.1171    0.1014 N   0  0  0  0  0  0  0  0  0  0  0  0
   -2.1887   -0.2820   -0.9022 C   0  0  0  0  0  0  0  0  0  0  0  0
   -2.3693   -0.1737   -2.1087 O   0  0  0  0  0  0  0  0  0  0  0  0
   -0.8317   -0.6742   -0.4272 C   0  0  0  0  0  0  0  0  0  0  0  0
   -0.2843   -0.1497    0.7508 C   0  0  0  0  0  0  0  0  0  0  0  0
    0.9933   -0.5441    1.1597 C   0  0  0  0  0  0  0  0  0  0  0  0
    1.7405   -1.4419    0.3912 C   0  0  0  0  0  0  0  0  0  0  0  0
    3.0063   -1.8543    0.8226 N   0  0  0  0  0  0  0  0  0  0  0  0
    4.0654   -1.2389    0.4137 C   0  0  0  0  0  0  0  0  0  0  0  0
    5.3374   -1.5944    0.8098 N   0  0  0  0  0  0  0  0  0  0  0  0
    6.2842   -0.5179    0.6220 C   0  0  0  0  0  0  0  0  0  0  0  0
    7.7482   -0.8640    0.5221 C   0  0  0  0  0  0  0  0  0  0  0  0
    8.4032    0.6075   -0.2915 S   0  0  0  0  0  6  0  0  0  0  0  0
    8.8981    1.5079    0.7280 O   0  0  0  0  0  0  0  0  0  0  0  0
    9.2133    0.1876   -1.4142 O   0  0  0  0  0  0  0  0  0  0  0  0
    6.8348    1.2576   -0.9131 C   0  0  0  0  0  0  0  0  0  0  0  0
    5.9341    0.0581   -0.7546 C   0  0  0  0  0  0  0  0  0  0  0  0
    4.1329    0.1925   -0.6511 S   0  0  0  0  0  0  0  0  0  0  0  0
    1.1879   -1.9644   -0.7815 C   0  0  0  0  0  0  0  0  0  0  0  0
   -0.0871   -1.5738   -1.1987 C   0  0  0  0  0  0  0  0  0  0  0  0
   -5.0443    0.6855   -1.2466 C   0  0  0  0  0  0  0  0  0  0  0  0
   -6.2510    1.9845   -3.2600 H   0  0  0  0  0  0  0  0  0  0  0  0
   -7.8130    2.2052   -2.4731 H   0  0  0  0  0  0  0  0  0  0  0  0
   -7.3783    0.6103   -3.1342 H   0  0  0  0  0  0  0  0  0  0  0  0
   -8.2022    1.3948   -0.1843 H   0  0  0  0  0  0  0  0  0  0  0  0
   -8.4846    0.5236    2.1119 H   0  0  0  0  0  0  0  0  0  0  0  0
   -7.1012   -0.0654    3.0323 H   0  0  0  0  0  0  0  0  0  0  0  0
   -7.3362    1.6872    2.8182 H   0  0  0  0  0  0  0  0  0  0  0  0
   -4.8270    0.0060    2.0762 H   0  0  0  0  0  0  0  0  0  0  0  0
   -2.8462   -0.3809    1.0366 H   0  0  0  0  0  0  0  0  0  0  0  0
   -0.8234    0.5832    1.3444 H   0  0  0  0  0  0  0  0  0  0  0  0
    1.4171   -0.1429    2.0763 H   0  0  0  0  0  0  0  0  0  0  0  0
    5.3484   -2.1204    1.6783 H   0  0  0  0  0  0  0  0  0  0  0  0
    6.1410    0.2292    1.4180 H   0  0  0  0  0  0  0  0  0  0  0  0
    7.9382   -1.7314   -0.1162 H   0  0  0  0  0  0  0  0  0  0  0  0
    8.2277   -0.9953    1.4940 H   0  0  0  0  0  0  0  0  0  0  0  0
    6.5417    2.0991   -0.2791 H   0  0  0  0  0  0  0  0  0  0  0  0
    6.9548    1.5756   -1.9504 H   0  0  0  0  0  0  0  0  0  0  0  0
    6.1510   -0.6736   -1.5460 H   0  0  0  0  0  0  0  0  0  0  0  0
    1.7564   -2.6749   -1.3753 H   0  0  0  0  0  0  0  0  0  0  0  0
   -0.5000   -1.9758   -2.1217 H   0  0  0  0  0  0  0  0  0  0  0  0
   -4.4651    0.6898   -2.1652 H   0  0  0  0  0  0  0  0  0  0  0  0
  1  2  1  0
  2  3  2  0
  3  4  1  0
  4  5  1  0
  4  6  2  0
  6  7  1  0
  7  8  1  0
  8  9  1  0
  9 10  2  0
  9 11  1  0
 11 12  2  0
 12 13  1  0
 13 14  2  0
 14 15  1  0
 15 16  2  3
 16 17  1  0
 17 18  1  0
 18 19  1  0
 19 20  1  0
 20 21  2  0
 20 22  2  0
 20 23  1  0
 23 24  1  0
 24 25  1  0
 14 26  1  0
 26 27  2  0
  7 28  2  0
 28  2  1  0
 27 11  1  0
 25 16  1  0
 24 18  1  0
  1 29  1  0
  1 30  1  0
  1 31  1  0
  3 32  1  0
  5 33  1  0
  5 34  1  0
  5 35  1  0
  6 36  1  0
  8 37  1  0
 12 38  1  0
 13 39  1  0
 17 40  1  0
 18 41  1  0
 19 42  1  0
 19 43  1  0
 23 44  1  0
 23 45  1  0
 24 46  1  0
 26 47  1  0
 27 48  1  0
 28 49  1  0
M  END
$$$$
