
     RDKit          3D

 48 50  0  0  0  0  0  0  0  0999 V2000
    0.3270   -3.9195    1.2330 C   0  0  0  0  0  0  0  0  0  0  0  0
    0.3060   -3.2480   -0.1318 C   0  0  0  0  0  0  0  0  0  0  0  0
    1.3188   -2.1485   -0.2235 C   0  0  0  0  0  0  0  0  0  0  0  0
    1.1311   -0.8306   -0.2455 C   0  0  0  0  0  0  0  0  0  0  0  0
   -0.1562   -0.1470   -0.1478 C   0  0  0  0  0  0  0  0  0  0  0  0
   -0.7010    0.1333    1.1136 C   0  0  0  0  0  0  0  0  0  0  0  0
   -1.9410    0.7646    1.2261 C   0  0  0  0  0  0  0  0  0  0  0  0
   -2.5509    1.0864    2.4109 O   0  0  0  0  0  0  0  0  0  0  0  0
   -1.7893    0.9370    3.6011 C   0  0  0  0  0  0  0  0  0  0  0  0
   -2.6456    1.0865    0.0537 C   0  0  0  0  0  0  0  0  0  0  0  0
   -3.8502    1.7488    0.1519 O   0  0  0  0  0  0  0  0  0  0  0  0
   -4.9179    0.8045    0.2076 C   0  0  0  0  0  0  0  0  0  0  0  0
   -2.1120    0.8163   -1.2180 C   0  0  0  0  0  0  0  0  0  0  0  0
   -2.8808    1.1846   -2.2916 O   0  0  0  0  0  0  0  0  0  0  0  0
   -2.2832    1.1134   -3.5788 C   0  0  0  0  0  0  0  0  0  0  0  0
   -0.8709    0.1827   -1.3071 C   0  0  0  0  0  0  0  0  0  0  0  0
    2.4461   -0.1358   -0.3550 C   0  0  0  0  0  0  0  0  0  0  0  0
    2.6677    0.7067   -1.6260 C   0  0  0  0  0  0  0  0  0  0  0  0
    3.0902    2.0880   -1.1292 C   0  0  0  0  0  0  0  0  0  0  0  0
    3.7264    1.8271    0.2247 C   0  0  0  0  0  0  0  0  0  0  0  0
    2.8184    0.7656    0.8335 C   0  0  0  0  0  0  0  0  0  0  0  0
    3.3551   -1.3690   -0.3766 C   0  0  0  0  0  0  0  0  0  0  0  0
    4.5786   -1.3353   -0.4423 O   0  0  0  0  0  0  0  0  0  0  0  0
    2.6500   -2.5469   -0.3149 O   0  0  0  0  0  0  0  0  0  0  0  0
    0.0982   -3.2036    2.0297 H   0  0  0  0  0  0  0  0  0  0  0  0
   -0.4205   -4.7184    1.2718 H   0  0  0  0  0  0  0  0  0  0  0  0
    1.3056   -4.3637    1.4440 H   0  0  0  0  0  0  0  0  0  0  0  0
   -0.7041   -2.8718   -0.3282 H   0  0  0  0  0  0  0  0  0  0  0  0
    0.5132   -3.9924   -0.9097 H   0  0  0  0  0  0  0  0  0  0  0  0
   -0.1388   -0.1552    1.9962 H   0  0  0  0  0  0  0  0  0  0  0  0
   -1.5819   -0.1189    3.8029 H   0  0  0  0  0  0  0  0  0  0  0  0
   -0.8641    1.5213    3.5581 H   0  0  0  0  0  0  0  0  0  0  0  0
   -2.3881    1.3224    4.4319 H   0  0  0  0  0  0  0  0  0  0  0  0
   -4.9623    0.1965   -0.7027 H   0  0  0  0  0  0  0  0  0  0  0  0
   -4.8365    0.1598    1.0895 H   0  0  0  0  0  0  0  0  0  0  0  0
   -5.8551    1.3638    0.2848 H   0  0  0  0  0  0  0  0  0  0  0  0
   -1.3611    1.7025   -3.6240 H   0  0  0  0  0  0  0  0  0  0  0  0
   -2.1031    0.0733   -3.8691 H   0  0  0  0  0  0  0  0  0  0  0  0
   -2.9874    1.5417   -4.2986 H   0  0  0  0  0  0  0  0  0  0  0  0
   -0.4450   -0.0746   -2.2714 H   0  0  0  0  0  0  0  0  0  0  0  0
    3.4651    0.2879   -2.2522 H   0  0  0  0  0  0  0  0  0  0  0  0
    1.7825    0.7926   -2.2625 H   0  0  0  0  0  0  0  0  0  0  0  0
    3.7748    2.5853   -1.8225 H   0  0  0  0  0  0  0  0  0  0  0  0
    2.2059    2.7259   -1.0108 H   0  0  0  0  0  0  0  0  0  0  0  0
    4.7438    1.4388    0.1009 H   0  0  0  0  0  0  0  0  0  0  0  0
    3.7775    2.7299    0.8402 H   0  0  0  0  0  0  0  0  0  0  0  0
    3.3265    0.2321    1.6443 H   0  0  0  0  0  0  0  0  0  0  0  0
    1.9386    1.2596    1.2603 H   0  0  0  0  0  0  0  0  0  0  0  0
  1  2  1  0
  2  3  1  0
  3  4  2  0
  4  5  1  0
  5  6  2  0
  6  7  1  0
  7  8  1  0
  8  9  1  0
  7 10  2  0
 10 11  1  0
 11 12  1  0
 10 13  1  0
 13 14  1  0
 14 15  1  0
 13 16  2  0
  4 17  1  0
 17 18  1  0
 18 19  1  0
 19 20  1  0
 20 21  1  0
 17 22  1  0
 22 23  2  0
 22 24  1  0
 24  3  1  0
 16  5  1  0
 21 17  1  0
  1 25  1  0
  1 26  1  0
  1 27  1  0
  2 28  1  0
  2 29  1  0
  6 30  1  0
  9 31  1  0
  9 32  1  0
  9 33  1  0
 12 34  1  0
 12 35  1  0
 12 36  1  0
 15 37  1  0
 15 38  1  0
 15 39  1  0
 16 40  1  0
 18 41  1  0
 18 42  1  0
 19 43  1  0
 19 44  1  0
 20 45  1  0
 20 46  1  0
 21 47  1  0
 21 48  1  0
M  END
$$$$
