
     RDKit          3D

 39 41  0  0  0  0  0  0  0  0999 V2000
    5.0480   -2.7794   -0.0597 C   0  0  0  0  0  0  0  0  0  0  0  0
    3.8473   -1.8495   -0.0834 C   0  0  0  0  0  0  0  0  0  0  0  0
    2.3385   -2.7794    0.3402 S   0  0  0  0  0  0  0  0  0  0  0  0
    1.1114   -1.4807    0.2521 C   0  0  0  0  0  0  0  0  0  0  0  0
   -0.1981   -1.7944    0.5477 C   0  0  0  0  0  0  0  0  0  0  0  0
   -1.1303   -0.7815    0.4695 C   0  0  0  0  0  0  0  0  0  0  0  0
   -2.4572   -0.9940    0.7585 N   0  0  0  0  0  0  0  0  0  0  0  0
   -3.1087   -2.2977    0.7097 C   0  0  0  0  0  0  0  0  0  0  0  0
   -4.5769   -1.9730    0.4306 C   0  0  0  0  0  0  0  0  0  0  0  0
   -4.7430   -0.5656    0.9812 C   0  0  0  0  0  0  0  0  0  0  0  0
   -3.4172    0.0943    0.6153 C   0  0  0  0  0  0  0  0  0  0  0  0
   -0.7479    0.4627    0.1344 N   0  0  0  0  0  0  0  0  0  0  0  0
    0.5499    0.6872   -0.1396 C   0  0  0  0  0  0  0  0  0  0  0  0
    0.9462    2.0619   -0.5131 C   0  0  0  0  0  0  0  0  0  0  0  0
    2.2806    2.3826   -0.8357 C   0  0  0  0  0  0  0  0  0  0  0  0
    2.6576    3.6837   -1.1899 C   0  0  0  0  0  0  0  0  0  0  0  0
    1.7021    4.6936   -1.2281 C   0  0  0  0  0  0  0  0  0  0  0  0
    2.1616    6.2928   -1.6628 Cl  0  0  0  0  0  0  0  0  0  0  0  0
    0.3762    4.4137   -0.9157 C   0  0  0  0  0  0  0  0  0  0  0  0
    0.0054    3.1107   -0.5623 C   0  0  0  0  0  0  0  0  0  0  0  0
    1.5073   -0.2502   -0.0984 N   0  0  0  0  0  0  0  0  0  0  0  0
    5.1975   -3.2186    0.9326 H   0  0  0  0  0  0  0  0  0  0  0  0
    5.9553   -2.2215   -0.3141 H   0  0  0  0  0  0  0  0  0  0  0  0
    4.9435   -3.5904   -0.7885 H   0  0  0  0  0  0  0  0  0  0  0  0
    3.7433   -1.4137   -1.0822 H   0  0  0  0  0  0  0  0  0  0  0  0
    3.9974   -1.0415    0.6399 H   0  0  0  0  0  0  0  0  0  0  0  0
   -0.4725   -2.7975    0.8429 H   0  0  0  0  0  0  0  0  0  0  0  0
   -3.0006   -2.8015    1.6765 H   0  0  0  0  0  0  0  0  0  0  0  0
   -2.7140   -2.9473   -0.0794 H   0  0  0  0  0  0  0  0  0  0  0  0
   -4.7594   -1.9727   -0.6510 H   0  0  0  0  0  0  0  0  0  0  0  0
   -5.2590   -2.6939    0.8899 H   0  0  0  0  0  0  0  0  0  0  0  0
   -5.6040   -0.0414    0.5577 H   0  0  0  0  0  0  0  0  0  0  0  0
   -4.8605   -0.6015    2.0710 H   0  0  0  0  0  0  0  0  0  0  0  0
   -3.4470    0.4528   -0.4210 H   0  0  0  0  0  0  0  0  0  0  0  0
   -3.2002    0.9341    1.2840 H   0  0  0  0  0  0  0  0  0  0  0  0
    3.0466    1.6087   -0.8128 H   0  0  0  0  0  0  0  0  0  0  0  0
    3.6953    3.8957   -1.4326 H   0  0  0  0  0  0  0  0  0  0  0  0
   -0.3755    5.1978   -0.9429 H   0  0  0  0  0  0  0  0  0  0  0  0
   -1.0388    2.9147   -0.3206 H   0  0  0  0  0  0  0  0  0  0  0  0
  1  2  1  0
  2  3  1  0
  3  4  1  0
  4  5  2  0
  5  6  1  0
  6  7  1  0
  7  8  1  0
  8  9  1  0
  9 10  1  0
 10 11  1  0
  6 12  2  0
 12 13  1  0
 13 14  1  0
 14 15  2  0
 15 16  1  0
 16 17  2  0
 17 18  1  0
 17 19  1  0
 19 20  2  0
 13 21  2  0
 21  4  1  0
 11  7  1  0
 20 14  1  0
  1 22  1  0
  1 23  1  0
  1 24  1  0
  2 25  1  0
  2 26  1  0
  5 27  1  0
  8 28  1  0
  8 29  1  0
  9 30  1  0
  9 31  1  0
 10 32  1  0
 10 33  1  0
 11 34  1  0
 11 35  1  0
 15 36  1  0
 16 37  1  0
 19 38  1  0
 20 39  1  0
M  END
$$$$
