
     RDKit          3D

 50 53  0  0  0  0  0  0  0  0999 V2000
   -4.1351   -3.6440   -2.9063 C   0  0  0  0  0  0  0  0  0  0  0  0
   -3.8652   -3.7792   -1.5154 O   0  0  0  0  0  0  0  0  0  0  0  0
   -3.0547   -2.8344   -0.9494 C   0  0  0  0  0  0  0  0  0  0  0  0
   -2.4126   -1.7942   -1.6198 C   0  0  0  0  0  0  0  0  0  0  0  0
   -1.5994   -0.8984   -0.9152 C   0  0  0  0  0  0  0  0  0  0  0  0
   -1.4087   -1.0295    0.4692 C   0  0  0  0  0  0  0  0  0  0  0  0
   -0.5418   -0.0638    1.2644 C   0  0  0  0  0  0  0  0  0  0  0  0
   -1.3218    1.2015    1.6271 C   0  0  0  0  0  0  0  0  0  0  0  0
   -0.6298    2.2065    0.7486 C   0  0  0  0  0  0  0  0  0  0  0  0
   -1.1400    3.5884    0.5892 C   0  0  0  0  0  0  0  0  0  0  0  0
   -2.2104    4.0662    1.3538 C   0  0  0  0  0  0  0  0  0  0  0  0
   -2.6697    5.3739    1.1721 C   0  0  0  0  0  0  0  0  0  0  0  0
   -2.0639    6.2057    0.2313 C   0  0  0  0  0  0  0  0  0  0  0  0
   -0.9951    5.7358   -0.5293 C   0  0  0  0  0  0  0  0  0  0  0  0
   -0.5328    4.4304   -0.3513 C   0  0  0  0  0  0  0  0  0  0  0  0
    0.4505    1.7778    0.1691 N   0  0  0  0  0  0  0  0  0  0  0  0
    0.5952    0.4617    0.5053 N   0  0  0  0  0  0  0  0  0  0  0  0
    1.7568   -0.2352    0.1759 C   0  0  0  0  0  0  0  0  0  0  0  0
    1.9471   -1.5864    0.5089 C   0  0  0  0  0  0  0  0  0  0  0  0
    3.1209   -2.2715    0.1684 C   0  0  0  0  0  0  0  0  0  0  0  0
    4.1364   -1.6032   -0.5121 C   0  0  0  0  0  0  0  0  0  0  0  0
    5.6181   -2.4665   -0.9315 S   0  0  0  0  0  6  0  0  0  0  0  0
    6.2176   -2.9062    0.5768 N   0  0  0  0  0  0  0  0  0  0  0  0
    6.5864   -1.5390   -1.4696 O   0  0  0  0  0  0  0  0  0  0  0  0
    5.2674   -3.6991   -1.5994 O   0  0  0  0  0  0  0  0  0  0  0  0
    3.9829   -0.2660   -0.8649 C   0  0  0  0  0  0  0  0  0  0  0  0
    2.8018    0.4011   -0.5217 C   0  0  0  0  0  0  0  0  0  0  0  0
   -2.0697   -2.0728    1.1352 C   0  0  0  0  0  0  0  0  0  0  0  0
   -2.8789   -2.9670    0.4286 C   0  0  0  0  0  0  0  0  0  0  0  0
   -4.6636   -2.7070   -3.1134 H   0  0  0  0  0  0  0  0  0  0  0  0
   -3.2180   -3.7226   -3.4983 H   0  0  0  0  0  0  0  0  0  0  0  0
   -4.7916   -4.4703   -3.1992 H   0  0  0  0  0  0  0  0  0  0  0  0
   -2.5085   -1.6534   -2.6909 H   0  0  0  0  0  0  0  0  0  0  0  0
   -1.0953   -0.1024   -1.4623 H   0  0  0  0  0  0  0  0  0  0  0  0
   -0.1922   -0.5520    2.1830 H   0  0  0  0  0  0  0  0  0  0  0  0
   -1.1578    1.4773    2.6744 H   0  0  0  0  0  0  0  0  0  0  0  0
   -2.3935    1.1442    1.4197 H   0  0  0  0  0  0  0  0  0  0  0  0
   -2.6987    3.4450    2.0979 H   0  0  0  0  0  0  0  0  0  0  0  0
   -3.5016    5.7448    1.7653 H   0  0  0  0  0  0  0  0  0  0  0  0
   -2.4246    7.2221    0.0903 H   0  0  0  0  0  0  0  0  0  0  0  0
   -0.5209    6.3823   -1.2635 H   0  0  0  0  0  0  0  0  0  0  0  0
    0.3018    4.0742   -0.9508 H   0  0  0  0  0  0  0  0  0  0  0  0
    1.1768   -2.1422    1.0355 H   0  0  0  0  0  0  0  0  0  0  0  0
    3.2298   -3.3195    0.4348 H   0  0  0  0  0  0  0  0  0  0  0  0
    6.2864   -3.9230    0.6317 H   0  0  0  0  0  0  0  0  0  0  0  0
    7.0999   -2.4223    0.7518 H   0  0  0  0  0  0  0  0  0  0  0  0
    4.7606    0.2669   -1.4043 H   0  0  0  0  0  0  0  0  0  0  0  0
    2.6954    1.4459   -0.8098 H   0  0  0  0  0  0  0  0  0  0  0  0
   -1.9583   -2.2054    2.2082 H   0  0  0  0  0  0  0  0  0  0  0  0
   -3.3774   -3.7753    0.9570 H   0  0  0  0  0  0  0  0  0  0  0  0
  1  2  1  0
  2  3  1  0
  3  4  2  0
  4  5  1  0
  5  6  2  0
  6  7  1  0
  7  8  1  0
  8  9  1  0
  9 10  1  0
 10 11  2  0
 11 12  1  0
 12 13  2  0
 13 14  1  0
 14 15  2  0
  9 16  2  0
 16 17  1  0
 17 18  1  0
 18 19  2  0
 19 20  1  0
 20 21  2  0
 21 22  1  0
 22 23  1  0
 22 24  2  0
 22 25  2  0
 21 26  1  0
 26 27  2  0
  6 28  1  0
 28 29  2  0
 29  3  1  0
 17  7  1  0
 27 18  1  0
 15 10  1  0
  1 30  1  0
  1 31  1  0
  1 32  1  0
  4 33  1  0
  5 34  1  0
  7 35  1  0
  8 36  1  0
  8 37  1  0
 11 38  1  0
 12 39  1  0
 13 40  1  0
 14 41  1  0
 15 42  1  0
 19 43  1  0
 20 44  1  0
 23 45  1  0
 23 46  1  0
 26 47  1  0
 27 48  1  0
 28 49  1  0
 29 50  1  0
M  END
$$$$
