
     RDKit          3D

 50 53  0  0  0  0  0  0  0  0999 V2000
    4.5832   -1.8714    3.6961 C   0  0  0  0  0  0  0  0  0  0  0  0
    4.5275   -1.0888    2.4463 C   0  0  0  0  0  0  0  0  0  0  0  0
    5.4374   -0.8277    1.4455 C   0  0  0  0  0  0  0  0  0  0  0  0
    4.7737    0.0030    0.5106 C   0  0  0  0  0  0  0  0  0  0  0  0
    3.4968    0.1972    0.9969 C   0  0  0  0  0  0  0  0  0  0  0  0
    2.3220    0.9608    0.4880 C   0  0  0  0  0  0  0  0  0  0  0  0
    1.1170    0.1275    0.4964 N   0  0  0  0  0  0  0  0  0  0  0  0
    1.0444   -0.9284   -0.5106 C   0  0  0  0  0  0  0  0  0  0  0  0
    0.4143   -0.5120   -1.8156 C   0  0  0  0  0  0  0  0  0  0  0  0
   -0.1082    0.7597   -2.0739 C   0  0  0  0  0  0  0  0  0  0  0  0
   -0.6826    1.0399   -3.3113 C   0  0  0  0  0  0  0  0  0  0  0  0
   -0.7160    0.0358   -4.2620 C   0  0  0  0  0  0  0  0  0  0  0  0
   -0.2269   -1.2043   -4.0552 N   0  0  0  0  0  0  0  0  0  0  0  0
    0.3253   -1.4480   -2.8446 C   0  0  0  0  0  0  0  0  0  0  0  0
    0.1969    0.3212    1.5164 C   0  0  0  0  0  0  0  0  0  0  0  0
    0.3631    1.2056    2.3661 O   0  0  0  0  0  0  0  0  0  0  0  0
   -1.0496   -0.5802    1.6329 C   0  0  0  0  0  0  0  0  0  0  0  0
   -2.0505   -0.4974    0.5647 N   0  0  0  0  0  0  0  0  0  0  0  0
   -2.3168   -1.6353   -0.1854 C   0  0  0  0  0  0  0  0  0  0  0  0
   -1.7572   -2.7181    0.0005 O   0  0  0  0  0  0  0  0  0  0  0  0
   -3.3036   -1.4587   -1.3334 C   0  0  0  0  0  0  0  0  0  0  0  0
   -4.2593   -0.4246   -1.3005 O   0  0  0  0  0  0  0  0  0  0  0  0
   -3.8889    0.6631   -0.5633 C   0  0  0  0  0  0  0  0  0  0  0  0
   -4.6898    1.7933   -0.7641 C   0  0  0  0  0  0  0  0  0  0  0  0
   -4.4584    2.9579   -0.0410 C   0  0  0  0  0  0  0  0  0  0  0  0
   -3.4356    2.9842    0.8982 C   0  0  0  0  0  0  0  0  0  0  0  0
   -2.6412    1.8505    1.1077 C   0  0  0  0  0  0  0  0  0  0  0  0
   -2.8417    0.6740    0.3703 C   0  0  0  0  0  0  0  0  0  0  0  0
    3.3456   -0.4693    2.1784 O   0  0  0  0  0  0  0  0  0  0  0  0
    4.3916   -1.2274    4.5598 H   0  0  0  0  0  0  0  0  0  0  0  0
    3.8315   -2.6665    3.6835 H   0  0  0  0  0  0  0  0  0  0  0  0
    5.5665   -2.3336    3.8266 H   0  0  0  0  0  0  0  0  0  0  0  0
    6.4550   -1.1898    1.3990 H   0  0  0  0  0  0  0  0  0  0  0  0
    5.1765    0.4116   -0.4057 H   0  0  0  0  0  0  0  0  0  0  0  0
    2.5010    1.2942   -0.5405 H   0  0  0  0  0  0  0  0  0  0  0  0
    2.1877    1.8609    1.0966 H   0  0  0  0  0  0  0  0  0  0  0  0
    0.5075   -1.7825   -0.0977 H   0  0  0  0  0  0  0  0  0  0  0  0
    2.0617   -1.2825   -0.7164 H   0  0  0  0  0  0  0  0  0  0  0  0
   -0.0878    1.5421   -1.3196 H   0  0  0  0  0  0  0  0  0  0  0  0
   -1.0986    2.0184   -3.5246 H   0  0  0  0  0  0  0  0  0  0  0  0
   -1.1538    0.2053   -5.2416 H   0  0  0  0  0  0  0  0  0  0  0  0
    0.7004   -2.4615   -2.7180 H   0  0  0  0  0  0  0  0  0  0  0  0
   -0.6928   -1.6081    1.7615 H   0  0  0  0  0  0  0  0  0  0  0  0
   -1.5576   -0.3421    2.5768 H   0  0  0  0  0  0  0  0  0  0  0  0
   -3.8648   -2.3971   -1.4113 H   0  0  0  0  0  0  0  0  0  0  0  0
   -2.7244   -1.3570   -2.2566 H   0  0  0  0  0  0  0  0  0  0  0  0
   -5.5025    1.7570   -1.4856 H   0  0  0  0  0  0  0  0  0  0  0  0
   -5.0823    3.8335   -0.1987 H   0  0  0  0  0  0  0  0  0  0  0  0
   -3.2559    3.8839    1.4827 H   0  0  0  0  0  0  0  0  0  0  0  0
   -1.8800    1.9314    1.8757 H   0  0  0  0  0  0  0  0  0  0  0  0
  1  2  1  0
  2  3  2  0
  3  4  1  0
  4  5  2  0
  5  6  1  0
  6  7  1  0
  7  8  1  0
  8  9  1  0
  9 10  2  0
 10 11  1  0
 11 12  2  0
 12 13  1  0
 13 14  2  0
  7 15  1  0
 15 16  2  0
 15 17  1  0
 17 18  1  0
 18 19  1  0
 19 20  2  0
 19 21  1  0
 21 22  1  0
 22 23  1  0
 23 24  2  0
 24 25  1  0
 25 26  2  0
 26 27  1  0
 27 28  2  0
  5 29  1  0
 29  2  1  0
 14  9  1  0
 28 18  1  0
 28 23  1  0
  1 30  1  0
  1 31  1  0
  1 32  1  0
  3 33  1  0
  4 34  1  0
  6 35  1  0
  6 36  1  0
  8 37  1  0
  8 38  1  0
 10 39  1  0
 11 40  1  0
 12 41  1  0
 14 42  1  0
 17 43  1  0
 17 44  1  0
 21 45  1  0
 21 46  1  0
 24 47  1  0
 25 48  1  0
 26 49  1  0
 27 50  1  0
M  END
$$$$
