
     RDKit          3D

 40 41  0  0  0  0  0  0  0  0999 V2000
    2.0637   -3.4634    0.4986 C   0  0  0  0  0  0  0  0  0  0  0  0
    1.8733   -2.1178    0.0586 O   0  0  0  0  0  0  0  0  0  0  0  0
    1.5539   -1.2548    1.0532 C   0  0  0  0  0  0  0  0  0  0  0  0
    1.4435   -1.5298    2.2373 O   0  0  0  0  0  0  0  0  0  0  0  0
    1.3544    0.1037    0.4904 C   0  0  0  0  0  0  0  0  0  0  0  0
    1.7909    1.1902    1.1549 C   0  0  0  0  0  0  0  0  0  0  0  0
    2.5764    1.1955    2.4343 C   0  0  0  0  0  0  0  0  0  0  0  0
    1.4962    2.5007    0.7022 O   0  0  0  0  0  0  0  0  0  0  0  0
    0.8775    2.7007   -0.4805 C   0  0  0  0  0  0  0  0  0  0  0  0
    0.3865    3.8706   -0.7211 N   0  0  0  0  0  0  0  0  0  0  0  0
    0.8335    1.5911   -1.4844 C   0  0  0  0  0  0  0  0  0  0  0  0
    2.0968    1.6091   -2.2394 C   0  0  0  0  0  0  0  0  0  0  0  0
    3.0962    1.5800   -2.8290 N   0  0  0  0  0  0  0  0  0  0  0  0
    0.6240    0.2222   -0.8222 C   0  0  0  0  0  0  0  0  0  0  0  0
   -0.8426   -0.1420   -0.7115 C   0  0  0  0  0  0  0  0  0  0  0  0
   -1.5517   -0.9834   -1.6216 C   0  0  0  0  0  0  0  0  0  0  0  0
   -1.0397   -1.6715   -2.8352 C   0  0  0  0  0  0  0  0  0  0  0  0
   -2.8301   -1.1268   -1.2734 N   0  0  0  0  0  0  0  0  0  0  0  0
   -2.9574   -0.4068   -0.1505 N   0  0  0  0  0  0  0  0  0  0  0  0
   -4.2427   -0.3728    0.5100 C   0  0  0  0  0  0  0  0  0  0  0  0
   -1.7977    0.2238    0.2316 C   0  0  0  0  0  0  0  0  0  0  0  0
   -1.7148    1.0785    1.4470 C   0  0  0  0  0  0  0  0  0  0  0  0
    2.8989   -3.5213    1.2037 H   0  0  0  0  0  0  0  0  0  0  0  0
    1.1458   -3.8525    0.9504 H   0  0  0  0  0  0  0  0  0  0  0  0
    2.3050   -4.0743   -0.3756 H   0  0  0  0  0  0  0  0  0  0  0  0
    1.9054    1.3251    3.2889 H   0  0  0  0  0  0  0  0  0  0  0  0
    3.2898    2.0271    2.4327 H   0  0  0  0  0  0  0  0  0  0  0  0
    3.1640    0.2842    2.5751 H   0  0  0  0  0  0  0  0  0  0  0  0
    0.5664    4.4582    0.1032 H   0  0  0  0  0  0  0  0  0  0  0  0
    0.0156    1.7996   -2.1871 H   0  0  0  0  0  0  0  0  0  0  0  0
    1.0660   -0.5175   -1.5057 H   0  0  0  0  0  0  0  0  0  0  0  0
   -0.3064   -2.4350   -2.5568 H   0  0  0  0  0  0  0  0  0  0  0  0
   -1.8453   -2.1620   -3.3914 H   0  0  0  0  0  0  0  0  0  0  0  0
   -0.5569   -0.9539   -3.5063 H   0  0  0  0  0  0  0  0  0  0  0  0
   -4.6225    0.6509    0.4697 H   0  0  0  0  0  0  0  0  0  0  0  0
   -4.9360   -1.0456   -0.0021 H   0  0  0  0  0  0  0  0  0  0  0  0
   -4.1104   -0.7010    1.5438 H   0  0  0  0  0  0  0  0  0  0  0  0
   -1.1073    0.5897    2.2147 H   0  0  0  0  0  0  0  0  0  0  0  0
   -1.2672    2.0462    1.2081 H   0  0  0  0  0  0  0  0  0  0  0  0
   -2.6950    1.2852    1.8855 H   0  0  0  0  0  0  0  0  0  0  0  0
  1  2  1  0
  2  3  1  0
  3  4  2  0
  3  5  1  0
  5  6  2  0
  6  7  1  0
  6  8  1  0
  8  9  1  0
  9 10  2  3
  9 11  1  0
 11 12  1  0
 12 13  3  0
 11 14  1  0
 14 15  1  0
 15 16  1  0
 16 17  1  0
 16 18  2  0
 18 19  1  0
 19 20  1  0
 19 21  1  0
 21 22  1  0
 14  5  1  0
 21 15  2  0
  1 23  1  0
  1 24  1  0
  1 25  1  0
  7 26  1  0
  7 27  1  0
  7 28  1  0
 10 29  1  0
 11 30  1  0
 14 31  1  0
 17 32  1  0
 17 33  1  0
 17 34  1  0
 20 35  1  0
 20 36  1  0
 20 37  1  0
 22 38  1  0
 22 39  1  0
 22 40  1  0
M  END
$$$$
