
     RDKit          3D

 62 65  0  0  0  0  0  0  0  0999 V2000
   -1.2174   -2.1774    2.3737 C   0  0  0  0  0  0  0  0  0  0  0  0
   -1.2726   -0.7272    1.9804 C   0  0  0  0  0  0  0  0  0  0  0  0
   -2.4770   -0.0539    2.2915 C   0  0  0  0  0  0  0  0  0  0  0  0
   -2.6671    1.2975    1.9998 C   0  0  0  0  0  0  0  0  0  0  0  0
   -3.8508    1.8955    2.3225 O   0  0  0  0  0  0  0  0  0  0  0  0
   -1.6639    2.0397    1.3905 C   0  0  0  0  0  0  0  0  0  0  0  0
   -1.7869    3.5147    1.0443 C   0  0  0  0  0  0  0  0  0  0  0  0
   -1.9408    4.3918    2.2889 C   0  0  0  0  0  0  0  0  0  0  0  0
   -2.9029    3.7839    0.0297 C   0  0  0  0  0  0  0  0  0  0  0  0
   -0.4657    1.3710    1.0833 C   0  0  0  0  0  0  0  0  0  0  0  0
   -0.2359   -0.0158    1.3364 C   0  0  0  0  0  0  0  0  0  0  0  0
    1.1566   -0.5434    0.8744 C   0  0  0  0  0  0  0  0  0  0  0  0
    1.4302   -0.2305   -0.6276 C   0  0  0  0  0  0  0  0  0  0  0  0
    0.3719   -0.4777   -1.5474 C   0  0  0  0  0  0  0  0  0  0  0  0
    0.4724   -0.2433   -2.9315 C   0  0  0  0  0  0  0  0  0  0  0  0
   -0.7067   -0.5323   -3.8479 C   0  0  0  0  0  0  0  0  0  0  0  0
   -1.3924   -1.8744   -3.5611 C   0  0  0  0  0  0  0  0  0  0  0  0
   -1.7202    0.6119   -3.7867 C   0  0  0  0  0  0  0  0  0  0  0  0
    1.6778    0.2817   -3.3957 C   0  0  0  0  0  0  0  0  0  0  0  0
    1.8980    0.6235   -4.6997 O   0  0  0  0  0  0  0  0  0  0  0  0
    2.7501    0.4978   -2.5311 C   0  0  0  0  0  0  0  0  0  0  0  0
    2.6556    0.2371   -1.1513 C   0  0  0  0  0  0  0  0  0  0  0  0
    3.8837    0.5022   -0.3232 C   0  0  0  0  0  0  0  0  0  0  0  0
    2.0539    0.1964    1.7594 O   0  0  0  0  0  0  0  0  0  0  0  0
    2.6842   -0.6007    2.6641 C   0  0  0  0  0  0  0  0  0  0  0  0
    3.3861   -0.2426    3.5879 O   0  0  0  0  0  0  0  0  0  0  0  0
    2.4179   -1.9683    2.2585 C   0  0  0  0  0  0  0  0  0  0  0  0
    2.9670   -3.1292    2.7789 C   0  0  0  0  0  0  0  0  0  0  0  0
    2.6352   -4.3341    2.1615 C   0  0  0  0  0  0  0  0  0  0  0  0
    1.7888   -4.3448    1.0423 C   0  0  0  0  0  0  0  0  0  0  0  0
    1.2518   -3.1536    0.5396 C   0  0  0  0  0  0  0  0  0  0  0  0
    1.5550   -1.9566    1.1803 C   0  0  0  0  0  0  0  0  0  0  0  0
   -1.2260   -2.8133    1.4850 H   0  0  0  0  0  0  0  0  0  0  0  0
   -2.0921   -2.4680    2.9690 H   0  0  0  0  0  0  0  0  0  0  0  0
   -0.3516   -2.3800    3.0077 H   0  0  0  0  0  0  0  0  0  0  0  0
   -3.2800   -0.6054    2.7767 H   0  0  0  0  0  0  0  0  0  0  0  0
   -4.4092    1.2604    2.7983 H   0  0  0  0  0  0  0  0  0  0  0  0
   -0.8523    3.8286    0.5583 H   0  0  0  0  0  0  0  0  0  0  0  0
   -2.9000    4.2335    2.7915 H   0  0  0  0  0  0  0  0  0  0  0  0
   -1.8824    5.4520    2.0202 H   0  0  0  0  0  0  0  0  0  0  0  0
   -1.1467    4.1861    3.0143 H   0  0  0  0  0  0  0  0  0  0  0  0
   -2.8063    3.1290   -0.8440 H   0  0  0  0  0  0  0  0  0  0  0  0
   -3.8989    3.6276    0.4574 H   0  0  0  0  0  0  0  0  0  0  0  0
   -2.8578    4.8211   -0.3217 H   0  0  0  0  0  0  0  0  0  0  0  0
    0.3351    1.9511    0.6190 H   0  0  0  0  0  0  0  0  0  0  0  0
   -0.5740   -0.8533   -1.1571 H   0  0  0  0  0  0  0  0  0  0  0  0
   -0.3461   -0.6118   -4.8795 H   0  0  0  0  0  0  0  0  0  0  0  0
   -0.6638   -2.6928   -3.5530 H   0  0  0  0  0  0  0  0  0  0  0  0
   -2.1348   -2.0948   -4.3365 H   0  0  0  0  0  0  0  0  0  0  0  0
   -1.9188   -1.8776   -2.6007 H   0  0  0  0  0  0  0  0  0  0  0  0
   -1.2533    1.5658   -4.0550 H   0  0  0  0  0  0  0  0  0  0  0  0
   -2.1458    0.7211   -2.7828 H   0  0  0  0  0  0  0  0  0  0  0  0
   -2.5459    0.4358   -4.4847 H   0  0  0  0  0  0  0  0  0  0  0  0
    1.0455    0.7731   -5.1352 H   0  0  0  0  0  0  0  0  0  0  0  0
    3.6763    0.8882   -2.9502 H   0  0  0  0  0  0  0  0  0  0  0  0
    4.7499    0.7350   -0.9526 H   0  0  0  0  0  0  0  0  0  0  0  0
    3.7272    1.3623    0.3337 H   0  0  0  0  0  0  0  0  0  0  0  0
    4.1583   -0.3829    0.2563 H   0  0  0  0  0  0  0  0  0  0  0  0
    3.6464   -3.0948    3.6248 H   0  0  0  0  0  0  0  0  0  0  0  0
    3.0491   -5.2678    2.5359 H   0  0  0  0  0  0  0  0  0  0  0  0
    1.5540   -5.2895    0.5556 H   0  0  0  0  0  0  0  0  0  0  0  0
    0.6082   -3.1778   -0.3352 H   0  0  0  0  0  0  0  0  0  0  0  0
  1  2  1  0
  2  3  2  0
  3  4  1  0
  4  5  1  0
  4  6  2  0
  6  7  1  0
  7  8  1  0
  7  9  1  0
  6 10  1  0
 10 11  2  0
 11 12  1  0
 12 13  1  0
 13 14  2  0
 14 15  1  0
 15 16  1  0
 16 17  1  0
 16 18  1  0
 15 19  2  0
 19 20  1  0
 19 21  1  0
 21 22  2  0
 22 23  1  0
 12 24  1  0
 24 25  1  0
 25 26  2  0
 25 27  1  0
 27 28  2  0
 28 29  1  0
 29 30  2  0
 30 31  1  0
 31 32  2  0
 11  2  1  0
 32 12  1  0
 22 13  1  0
 32 27  1  0
  1 33  1  0
  1 34  1  0
  1 35  1  0
  3 36  1  0
  5 37  1  0
  7 38  1  0
  8 39  1  0
  8 40  1  0
  8 41  1  0
  9 42  1  0
  9 43  1  0
  9 44  1  0
 10 45  1  0
 14 46  1  0
 16 47  1  0
 17 48  1  0
 17 49  1  0
 17 50  1  0
 18 51  1  0
 18 52  1  0
 18 53  1  0
 20 54  1  0
 21 55  1  0
 23 56  1  0
 23 57  1  0
 23 58  1  0
 28 59  1  0
 29 60  1  0
 30 61  1  0
 31 62  1  0
M  END
$$$$
