
     RDKit          3D

 48 50  0  0  0  0  0  0  0  0999 V2000
    0.9044    0.3609    3.9800 C   0  0  0  0  0  0  0  0  0  0  0  0
    0.9168    1.3217    2.8006 C   0  0  0  0  0  0  0  0  0  0  0  0
    1.7096    0.7783    1.6520 C   0  0  0  0  0  0  0  0  0  0  0  0
    1.2825    0.3070    0.4824 C   0  0  0  0  0  0  0  0  0  0  0  0
   -0.1124    0.1845    0.0661 C   0  0  0  0  0  0  0  0  0  0  0  0
   -0.8445   -0.9596    0.4144 C   0  0  0  0  0  0  0  0  0  0  0  0
   -2.1852   -1.0833    0.0453 C   0  0  0  0  0  0  0  0  0  0  0  0
   -2.9795   -2.1631    0.3319 O   0  0  0  0  0  0  0  0  0  0  0  0
   -2.3486   -3.3138    0.8766 C   0  0  0  0  0  0  0  0  0  0  0  0
   -2.7947   -0.0283   -0.6546 C   0  0  0  0  0  0  0  0  0  0  0  0
   -4.1048   -0.1580   -1.0621 O   0  0  0  0  0  0  0  0  0  0  0  0
   -4.9764    0.3660   -0.0617 C   0  0  0  0  0  0  0  0  0  0  0  0
   -2.0741    1.1231   -1.0152 C   0  0  0  0  0  0  0  0  0  0  0  0
   -2.7664    2.0830   -1.7072 O   0  0  0  0  0  0  0  0  0  0  0  0
   -2.0174    3.1528   -2.2672 C   0  0  0  0  0  0  0  0  0  0  0  0
   -0.7347    1.2266   -0.6342 C   0  0  0  0  0  0  0  0  0  0  0  0
    2.4478   -0.1149   -0.3471 C   0  0  0  0  0  0  0  0  0  0  0  0
    2.6556    0.6497   -1.6687 C   0  0  0  0  0  0  0  0  0  0  0  0
    2.7496   -0.4256   -2.7495 C   0  0  0  0  0  0  0  0  0  0  0  0
    3.2601   -1.6552   -2.0192 C   0  0  0  0  0  0  0  0  0  0  0  0
    2.5025   -1.6108   -0.6979 C   0  0  0  0  0  0  0  0  0  0  0  0
    3.5677    0.2285    0.6406 C   0  0  0  0  0  0  0  0  0  0  0  0
    4.7624    0.0478    0.4342 O   0  0  0  0  0  0  0  0  0  0  0  0
    3.0932    0.7734    1.8096 O   0  0  0  0  0  0  0  0  0  0  0  0
    0.3204    0.7830    4.8042 H   0  0  0  0  0  0  0  0  0  0  0  0
    1.9175    0.1692    4.3490 H   0  0  0  0  0  0  0  0  0  0  0  0
    0.4544   -0.5987    3.7036 H   0  0  0  0  0  0  0  0  0  0  0  0
   -0.1160    1.5332    2.5026 H   0  0  0  0  0  0  0  0  0  0  0  0
    1.3488    2.2798    3.1131 H   0  0  0  0  0  0  0  0  0  0  0  0
   -0.3461   -1.7414    0.9790 H   0  0  0  0  0  0  0  0  0  0  0  0
   -1.9725   -3.1135    1.8851 H   0  0  0  0  0  0  0  0  0  0  0  0
   -1.5504   -3.6785    0.2213 H   0  0  0  0  0  0  0  0  0  0  0  0
   -3.1023   -4.1034    0.9541 H   0  0  0  0  0  0  0  0  0  0  0  0
   -4.7988    1.4342    0.1041 H   0  0  0  0  0  0  0  0  0  0  0  0
   -6.0040    0.2468   -0.4180 H   0  0  0  0  0  0  0  0  0  0  0  0
   -4.8804   -0.1842    0.8807 H   0  0  0  0  0  0  0  0  0  0  0  0
   -1.2244    2.7832   -2.9261 H   0  0  0  0  0  0  0  0  0  0  0  0
   -2.6991    3.7570   -2.8735 H   0  0  0  0  0  0  0  0  0  0  0  0
   -1.6107    3.7981   -1.4820 H   0  0  0  0  0  0  0  0  0  0  0  0
   -0.1580    2.1168   -0.8628 H   0  0  0  0  0  0  0  0  0  0  0  0
    1.8514    1.3512   -1.9077 H   0  0  0  0  0  0  0  0  0  0  0  0
    3.5856    1.2312   -1.6550 H   0  0  0  0  0  0  0  0  0  0  0  0
    3.4051   -0.1280   -3.5731 H   0  0  0  0  0  0  0  0  0  0  0  0
    1.7535   -0.6229   -3.1639 H   0  0  0  0  0  0  0  0  0  0  0  0
    4.3397   -1.5773   -1.8470 H   0  0  0  0  0  0  0  0  0  0  0  0
    3.0682   -2.5776   -2.5750 H   0  0  0  0  0  0  0  0  0  0  0  0
    1.5018   -2.0288   -0.8533 H   0  0  0  0  0  0  0  0  0  0  0  0
    3.0030   -2.2200    0.0626 H   0  0  0  0  0  0  0  0  0  0  0  0
  1  2  1  0
  2  3  1  0
  3  4  2  0
  4  5  1  0
  5  6  2  0
  6  7  1  0
  7  8  1  0
  8  9  1  0
  7 10  2  0
 10 11  1  0
 11 12  1  0
 10 13  1  0
 13 14  1  0
 14 15  1  0
 13 16  2  0
  4 17  1  0
 17 18  1  0
 18 19  1  0
 19 20  1  0
 20 21  1  0
 17 22  1  0
 22 23  2  0
 22 24  1  0
 24  3  1  0
 16  5  1  0
 21 17  1  0
  1 25  1  0
  1 26  1  0
  1 27  1  0
  2 28  1  0
  2 29  1  0
  6 30  1  0
  9 31  1  0
  9 32  1  0
  9 33  1  0
 12 34  1  0
 12 35  1  0
 12 36  1  0
 15 37  1  0
 15 38  1  0
 15 39  1  0
 16 40  1  0
 18 41  1  0
 18 42  1  0
 19 43  1  0
 19 44  1  0
 20 45  1  0
 20 46  1  0
 21 47  1  0
 21 48  1  0
M  END
$$$$
