
     RDKit          3D

 37 37  0  0  0  0  0  0  0  0999 V2000
    4.3622   -0.8985    1.5397 C   0  0  0  0  0  0  0  0  0  0  0  0
    3.4668   -0.1007    0.6038 C   0  0  0  0  0  0  0  0  0  0  0  0
    3.1342    1.2735    1.1881 C   0  0  0  0  0  0  0  0  0  0  0  0
    2.2742    2.1378    0.2590 C   0  0  0  0  0  0  0  0  0  0  0  0
    0.7709    2.1013    0.5577 C   0  0  0  0  0  0  0  0  0  0  0  0
    0.0682    0.7549    0.3730 C   0  0  0  0  0  0  0  0  0  0  0  0
    0.0816    0.2585   -1.0759 C   0  0  0  0  0  0  0  0  0  0  0  0
   -0.5779   -1.1146   -1.2459 C   0  0  0  0  0  0  0  0  0  0  0  0
   -2.0280   -1.0685   -0.9936 N   0  0  0  0  0  0  0  0  0  0  0  0
   -2.9044   -0.5586   -1.9447 C   0  0  0  0  0  0  0  0  0  0  0  0
   -4.2320   -0.4850   -1.7892 C   0  0  0  0  0  0  0  0  0  0  0  0
   -4.8173   -0.9809   -0.5198 C   0  0  0  0  0  0  0  0  0  0  0  0
   -6.0962   -0.9236   -0.3338 N   0  0  0  0  0  0  0  0  0  0  0  0
   -3.8764   -1.5302    0.4921 C   0  0  0  0  0  0  0  0  0  0  0  0
   -2.5699   -1.5396    0.1961 C   0  0  0  0  0  0  0  0  0  0  0  0
    3.8715   -1.0650    2.5040 H   0  0  0  0  0  0  0  0  0  0  0  0
    5.3072   -0.3761    1.7198 H   0  0  0  0  0  0  0  0  0  0  0  0
    4.5925   -1.8752    1.1026 H   0  0  0  0  0  0  0  0  0  0  0  0
    3.9754    0.0197   -0.3599 H   0  0  0  0  0  0  0  0  0  0  0  0
    2.5562   -0.6758    0.4171 H   0  0  0  0  0  0  0  0  0  0  0  0
    2.6546    1.1671    2.1683 H   0  0  0  0  0  0  0  0  0  0  0  0
    4.0806    1.8023    1.3614 H   0  0  0  0  0  0  0  0  0  0  0  0
    2.4706    1.9007   -0.7922 H   0  0  0  0  0  0  0  0  0  0  0  0
    2.5926    3.1804    0.3926 H   0  0  0  0  0  0  0  0  0  0  0  0
    0.2759    2.8455   -0.0792 H   0  0  0  0  0  0  0  0  0  0  0  0
    0.6115    2.4339    1.5913 H   0  0  0  0  0  0  0  0  0  0  0  0
    0.5067    0.0052    1.0398 H   0  0  0  0  0  0  0  0  0  0  0  0
   -0.9713    0.8814    0.6984 H   0  0  0  0  0  0  0  0  0  0  0  0
   -0.4110    0.9974   -1.7193 H   0  0  0  0  0  0  0  0  0  0  0  0
    1.1153    0.1739   -1.4282 H   0  0  0  0  0  0  0  0  0  0  0  0
   -0.4046   -1.4695   -2.2701 H   0  0  0  0  0  0  0  0  0  0  0  0
   -0.0910   -1.8457   -0.5879 H   0  0  0  0  0  0  0  0  0  0  0  0
   -2.4346   -0.2081   -2.8591 H   0  0  0  0  0  0  0  0  0  0  0  0
   -4.9001   -0.0848   -2.5385 H   0  0  0  0  0  0  0  0  0  0  0  0
   -6.3445   -1.3016    0.5844 H   0  0  0  0  0  0  0  0  0  0  0  0
   -4.2639   -1.9026    1.4288 H   0  0  0  0  0  0  0  0  0  0  0  0
   -1.8454   -1.9288    0.9056 H   0  0  0  0  0  0  0  0  0  0  0  0
  1  2  1  0
  2  3  1  0
  3  4  1  0
  4  5  1  0
  5  6  1  0
  6  7  1  0
  7  8  1  0
  8  9  1  0
  9 10  1  0
 10 11  2  0
 11 12  1  0
 12 13  2  3
 12 14  1  0
 14 15  2  0
 15  9  1  0
  1 16  1  0
  1 17  1  0
  1 18  1  0
  2 19  1  0
  2 20  1  0
  3 21  1  0
  3 22  1  0
  4 23  1  0
  4 24  1  0
  5 25  1  0
  5 26  1  0
  6 27  1  0
  6 28  1  0
  7 29  1  0
  7 30  1  0
  8 31  1  0
  8 32  1  0
 10 33  1  0
 11 34  1  0
 13 35  1  0
 14 36  1  0
 15 37  1  0
M  END
$$$$
