
     RDKit          3D

 32 33  0  0  0  0  0  0  0  0999 V2000
    0.0200    1.8736    0.2424 O   0  0  0  0  0  0  0  0  0  0  0  0
    0.1136    0.6551    0.2543 C   0  0  0  0  0  0  0  0  0  0  0  0
   -0.7204   -0.1647    0.9865 N   0  0  0  0  0  0  0  0  0  0  0  0
   -1.8602    0.3931    1.6878 C   0  0  0  0  0  0  0  0  0  0  0  0
   -3.1150    0.2718    0.8613 C   0  0  0  0  0  0  0  0  0  0  0  0
   -4.0079   -0.7910    1.0668 C   0  0  0  0  0  0  0  0  0  0  0  0
   -5.1585   -0.9121    0.2846 C   0  0  0  0  0  0  0  0  0  0  0  0
   -5.4251    0.0237   -0.7145 C   0  0  0  0  0  0  0  0  0  0  0  0
   -4.5392    1.0772   -0.9298 C   0  0  0  0  0  0  0  0  0  0  0  0
   -4.8686    2.2275   -2.1661 Cl  0  0  0  0  0  0  0  0  0  0  0  0
   -3.3888    1.2039   -0.1519 C   0  0  0  0  0  0  0  0  0  0  0  0
    1.0857   -0.0764   -0.3790 N   0  0  0  0  0  0  0  0  0  0  0  0
    1.9842    0.5490   -1.2126 C   0  0  0  0  0  0  0  0  0  0  0  0
    1.6532    1.2792   -2.1407 O   0  0  0  0  0  0  0  0  0  0  0  0
    3.3853    0.1362   -1.0356 C   0  0  0  0  0  0  0  0  0  0  0  0
    4.3484    0.4229   -1.9930 C   0  0  0  0  0  0  0  0  0  0  0  0
    5.9066   -0.1495   -1.5789 S   0  0  0  0  0  0  0  0  0  0  0  0
    5.3392   -0.7650   -0.1058 C   0  0  0  0  0  0  0  0  0  0  0  0
    6.2313   -1.4307    0.8088 N   0  0  0  0  0  4  0  0  0  0  0  0
    5.7074   -1.9058    1.8264 O   0  0  0  0  0  0  0  0  0  0  0  0
    7.4337   -1.4892    0.5259 O   0  0  0  0  0  1  0  0  0  0  0  0
    3.9876   -0.5525    0.0782 C   0  0  0  0  0  0  0  0  0  0  0  0
   -0.8677   -1.0855    0.5980 H   0  0  0  0  0  0  0  0  0  0  0  0
   -1.6811    1.4387    1.9621 H   0  0  0  0  0  0  0  0  0  0  0  0
   -1.9672   -0.1715    2.6207 H   0  0  0  0  0  0  0  0  0  0  0  0
   -3.8168   -1.5305    1.8419 H   0  0  0  0  0  0  0  0  0  0  0  0
   -5.8487   -1.7351    0.4539 H   0  0  0  0  0  0  0  0  0  0  0  0
   -6.3217   -0.0732   -1.3209 H   0  0  0  0  0  0  0  0  0  0  0  0
   -2.7000    2.0279   -0.3345 H   0  0  0  0  0  0  0  0  0  0  0  0
    1.4209   -0.8314    0.1920 H   0  0  0  0  0  0  0  0  0  0  0  0
    4.2011    0.9467   -2.9307 H   0  0  0  0  0  0  0  0  0  0  0  0
    3.4687   -0.8626    0.9781 H   0  0  0  0  0  0  0  0  0  0  0  0
  1  2  2  0
  2  3  1  0
  3  4  1  0
  4  5  1  0
  5  6  2  0
  6  7  1  0
  7  8  2  0
  8  9  1  0
  9 10  1  0
  9 11  2  0
  2 12  1  0
 12 13  1  0
 13 14  2  0
 13 15  1  0
 15 16  2  0
 16 17  1  0
 17 18  1  0
 18 19  1  0
 19 20  2  0
 19 21  1  0
 18 22  2  0
 11  5  1  0
 22 15  1  0
  3 23  1  0
  4 24  1  0
  4 25  1  0
  6 26  1  0
  7 27  1  0
  8 28  1  0
 11 29  1  0
 12 30  1  0
 16 31  1  0
 22 32  1  0
M  CHG  2  19   1  21  -1
M  END
$$$$
