
     RDKit          3D

 33 33  0  0  0  0  0  0  0  0999 V2000
    5.7939    0.3593    3.7079 C   0  0  0  0  0  0  0  0  0  0  0  0
    4.9644   -0.0938    2.7583 C   0  0  0  0  0  0  0  0  0  0  0  0
    4.6964    0.5989    1.4600 C   0  0  0  0  0  0  0  0  0  0  0  0
    3.3201    1.0587    1.4834 N   0  0  0  0  0  0  0  0  0  0  0  0
    2.2163    0.4168    0.9583 C   0  0  0  0  0  0  0  0  0  0  0  0
    2.2393   -1.0296    0.1142 S   0  0  0  0  0  0  0  0  0  0  0  0
    1.0550    1.1282    1.2407 N   0  0  0  0  0  0  0  0  0  0  0  0
   -0.1610    0.7684    0.6249 N   0  0  0  0  0  0  0  0  0  0  0  0
   -0.8718    1.7725   -0.0045 C   0  0  0  0  0  0  0  0  0  0  0  0
   -0.6204    2.9677    0.1544 O   0  0  0  0  0  0  0  0  0  0  0  0
   -2.0156    1.2858   -0.8894 C   0  0  0  0  0  0  0  0  0  0  0  0
   -1.9652   -0.1263   -1.0549 O   0  0  0  0  0  0  0  0  0  0  0  0
   -2.9491   -0.7232   -1.7971 C   0  0  0  0  0  0  0  0  0  0  0  0
   -3.9594   -0.0355   -2.4772 C   0  0  0  0  0  0  0  0  0  0  0  0
   -4.9182   -0.7397   -3.2142 C   0  0  0  0  0  0  0  0  0  0  0  0
   -4.8705   -2.1309   -3.2752 C   0  0  0  0  0  0  0  0  0  0  0  0
   -6.0545   -2.9855   -4.1840 Cl  0  0  0  0  0  0  0  0  0  0  0  0
   -3.8729   -2.8313   -2.6065 C   0  0  0  0  0  0  0  0  0  0  0  0
   -2.9167   -2.1275   -1.8713 C   0  0  0  0  0  0  0  0  0  0  0  0
   -1.6958   -3.0371   -1.0494 Cl  0  0  0  0  0  0  0  0  0  0  0  0
    6.3382    1.2920    3.5972 H   0  0  0  0  0  0  0  0  0  0  0  0
    5.9458   -0.2043    4.6238 H   0  0  0  0  0  0  0  0  0  0  0  0
    4.4508   -1.0405    2.9157 H   0  0  0  0  0  0  0  0  0  0  0  0
    5.3270    1.4862    1.3405 H   0  0  0  0  0  0  0  0  0  0  0  0
    4.8879   -0.0696    0.6172 H   0  0  0  0  0  0  0  0  0  0  0  0
    3.1312    1.7895    2.1548 H   0  0  0  0  0  0  0  0  0  0  0  0
    1.1425    2.1321    1.3967 H   0  0  0  0  0  0  0  0  0  0  0  0
   -0.2157   -0.1802    0.2460 H   0  0  0  0  0  0  0  0  0  0  0  0
   -2.9507    1.5812   -0.4003 H   0  0  0  0  0  0  0  0  0  0  0  0
   -1.9022    1.7813   -1.8603 H   0  0  0  0  0  0  0  0  0  0  0  0
   -4.0325    1.0475   -2.4610 H   0  0  0  0  0  0  0  0  0  0  0  0
   -5.6992   -0.1948   -3.7399 H   0  0  0  0  0  0  0  0  0  0  0  0
   -3.8374   -3.9161   -2.6554 H   0  0  0  0  0  0  0  0  0  0  0  0
  1  2  2  0
  2  3  1  0
  3  4  1  0
  4  5  1  0
  5  6  2  0
  5  7  1  0
  7  8  1  0
  8  9  1  0
  9 10  2  0
  9 11  1  0
 11 12  1  0
 12 13  1  0
 13 14  2  0
 14 15  1  0
 15 16  2  0
 16 17  1  0
 16 18  1  0
 18 19  2  0
 19 20  1  0
 19 13  1  0
  1 21  1  0
  1 22  1  0
  2 23  1  0
  3 24  1  0
  3 25  1  0
  4 26  1  0
  7 27  1  0
  8 28  1  0
 11 29  1  0
 11 30  1  0
 14 31  1  0
 15 32  1  0
 18 33  1  0
M  END
$$$$
