
     RDKit          3D

 57 61  0  0  0  0  0  0  0  0999 V2000
   -5.3523    2.4447   -1.5564 C   0  0  0  0  0  0  0  0  0  0  0  0
   -4.4744    3.1853   -0.6215 N   0  0  0  0  0  0  0  0  0  0  0  0
   -4.7413    4.6406   -0.6671 C   0  0  0  0  0  0  0  0  0  0  0  0
   -4.4200    2.5637    0.9704 S   0  0  0  0  0  6  0  0  0  0  0  0
   -3.5146    3.3775    1.7512 O   0  0  0  0  0  0  0  0  0  0  0  0
   -5.7859    2.3364    1.3909 O   0  0  0  0  0  0  0  0  0  0  0  0
   -3.6309    0.9929    0.7541 C   0  0  0  0  0  0  0  0  0  0  0  0
   -4.2233   -0.1658    1.2312 C   0  0  0  0  0  0  0  0  0  0  0  0
   -3.5832   -1.3969    1.0308 C   0  0  0  0  0  0  0  0  0  0  0  0
   -2.3524   -1.5343    0.3422 C   0  0  0  0  0  0  0  0  0  0  0  0
   -1.8104   -2.7974    0.1790 N   0  0  0  0  0  0  0  0  0  0  0  0
   -2.6276   -4.0162    0.3086 C   0  0  0  0  0  0  0  0  0  0  0  0
   -1.8687   -5.0854   -0.4727 C   0  0  0  0  0  0  0  0  0  0  0  0
   -0.4286   -4.6310   -0.3639 C   0  0  0  0  0  0  0  0  0  0  0  0
   -0.5494   -3.1161   -0.4972 C   0  0  0  0  0  0  0  0  0  0  0  0
   -1.7784   -0.3155   -0.0942 C   0  0  0  0  0  0  0  0  0  0  0  0
   -0.4857   -0.2105   -0.8013 C   0  0  0  0  0  0  0  0  0  0  0  0
   -0.4882   -0.2745   -2.0228 O   0  0  0  0  0  0  0  0  0  0  0  0
    0.5702    0.0126    0.0490 N   0  0  0  0  0  0  0  0  0  0  0  0
    1.8839    0.1943   -0.2972 C   0  0  0  0  0  0  0  0  0  0  0  0
    2.7976    0.3984    0.6184 N   0  0  0  0  0  0  0  0  0  0  0  0
    4.0436    0.5704    0.0159 C   0  0  0  0  0  0  0  0  0  0  0  0
    4.0334    0.4787   -1.3778 C   0  0  0  0  0  0  0  0  0  0  0  0
    5.1966    0.6310   -2.1489 C   0  0  0  0  0  0  0  0  0  0  0  0
    6.4030    0.8883   -1.4887 C   0  0  0  0  0  0  0  0  0  0  0  0
    6.4634    0.9929   -0.0936 C   0  0  0  0  0  0  0  0  0  0  0  0
    7.6701    1.2603    0.5723 C   0  0  0  0  0  0  0  0  0  0  0  0
    7.7086    1.3667    1.9659 C   0  0  0  0  0  0  0  0  0  0  0  0
    6.5451    1.2050    2.7156 C   0  0  0  0  0  0  0  0  0  0  0  0
    5.3349    0.9367    2.0755 C   0  0  0  0  0  0  0  0  0  0  0  0
    5.2831    0.8314    0.6714 C   0  0  0  0  0  0  0  0  0  0  0  0
    2.4266    0.1688   -1.9060 S   0  0  0  0  0  0  0  0  0  0  0  0
   -2.4068    0.9306    0.0994 C   0  0  0  0  0  0  0  0  0  0  0  0
   -5.1574    2.7781   -2.5818 H   0  0  0  0  0  0  0  0  0  0  0  0
   -5.1497    1.3723   -1.5280 H   0  0  0  0  0  0  0  0  0  0  0  0
   -6.4074    2.6208   -1.3279 H   0  0  0  0  0  0  0  0  0  0  0  0
   -3.9833    5.1882   -0.0998 H   0  0  0  0  0  0  0  0  0  0  0  0
   -4.6863    4.9959   -1.7011 H   0  0  0  0  0  0  0  0  0  0  0  0
   -5.7358    4.8691   -0.2719 H   0  0  0  0  0  0  0  0  0  0  0  0
   -5.1727   -0.1328    1.7618 H   0  0  0  0  0  0  0  0  0  0  0  0
   -4.0804   -2.2706    1.4464 H   0  0  0  0  0  0  0  0  0  0  0  0
   -2.7067   -4.2977    1.3654 H   0  0  0  0  0  0  0  0  0  0  0  0
   -3.6324   -3.9036   -0.1145 H   0  0  0  0  0  0  0  0  0  0  0  0
   -2.0318   -6.0908   -0.0746 H   0  0  0  0  0  0  0  0  0  0  0  0
   -2.1848   -5.0773   -1.5231 H   0  0  0  0  0  0  0  0  0  0  0  0
   -0.0239   -4.8939    0.6210 H   0  0  0  0  0  0  0  0  0  0  0  0
    0.2162   -5.0696   -1.1311 H   0  0  0  0  0  0  0  0  0  0  0  0
    0.3121   -2.6439   -0.0193 H   0  0  0  0  0  0  0  0  0  0  0  0
   -0.5981   -2.8459   -1.5570 H   0  0  0  0  0  0  0  0  0  0  0  0
    0.4065    0.0483    1.0470 H   0  0  0  0  0  0  0  0  0  0  0  0
    5.1619    0.5572   -3.2312 H   0  0  0  0  0  0  0  0  0  0  0  0
    7.3047    1.0120   -2.0859 H   0  0  0  0  0  0  0  0  0  0  0  0
    8.5922    1.3917    0.0113 H   0  0  0  0  0  0  0  0  0  0  0  0
    8.6506    1.5797    2.4662 H   0  0  0  0  0  0  0  0  0  0  0  0
    6.5776    1.2937    3.7985 H   0  0  0  0  0  0  0  0  0  0  0  0
    4.4315    0.8127    2.6676 H   0  0  0  0  0  0  0  0  0  0  0  0
   -1.9408    1.8426   -0.2705 H   0  0  0  0  0  0  0  0  0  0  0  0
  1  2  1  0
  2  3  1  0
  2  4  1  0
  4  5  2  0
  4  6  2  0
  4  7  1  0
  7  8  2  0
  8  9  1  0
  9 10  2  0
 10 11  1  0
 11 12  1  0
 12 13  1  0
 13 14  1  0
 14 15  1  0
 10 16  1  0
 16 17  1  0
 17 18  2  0
 17 19  1  0
 19 20  1  0
 20 21  2  0
 21 22  1  0
 22 23  2  0
 23 24  1  0
 24 25  2  0
 25 26  1  0
 26 27  2  0
 27 28  1  0
 28 29  2  0
 29 30  1  0
 30 31  2  0
 23 32  1  0
 16 33  2  0
 33  7  1  0
 15 11  1  0
 32 20  1  0
 31 22  1  0
 31 26  1  0
  1 34  1  0
  1 35  1  0
  1 36  1  0
  3 37  1  0
  3 38  1  0
  3 39  1  0
  8 40  1  0
  9 41  1  0
 12 42  1  0
 12 43  1  0
 13 44  1  0
 13 45  1  0
 14 46  1  0
 14 47  1  0
 15 48  1  0
 15 49  1  0
 19 50  1  0
 24 51  1  0
 25 52  1  0
 27 53  1  0
 28 54  1  0
 29 55  1  0
 30 56  1  0
 33 57  1  0
M  END
$$$$
