
     RDKit          3D

 45 47  0  0  0  0  0  0  0  0999 V2000
   -3.9786    2.0325    2.6634 C   0  0  0  0  0  0  0  0  0  0  0  0
   -3.1580    1.1435    1.9137 O   0  0  0  0  0  0  0  0  0  0  0  0
   -3.4876    0.9586    0.5894 C   0  0  0  0  0  0  0  0  0  0  0  0
   -4.5430    1.5958   -0.0692 C   0  0  0  0  0  0  0  0  0  0  0  0
   -4.7834    1.3362   -1.4197 C   0  0  0  0  0  0  0  0  0  0  0  0
   -3.9739    0.4418   -2.1150 C   0  0  0  0  0  0  0  0  0  0  0  0
   -2.9176   -0.2004   -1.4658 C   0  0  0  0  0  0  0  0  0  0  0  0
   -2.6669    0.0504   -0.1157 C   0  0  0  0  0  0  0  0  0  0  0  0
   -1.6178   -0.5544    0.6126 N   0  0  0  0  0  0  0  0  0  0  0  0
   -0.6838   -1.4703    0.1729 C   0  0  0  0  0  0  0  0  0  0  0  0
   -0.6048   -1.9376   -0.9582 O   0  0  0  0  0  0  0  0  0  0  0  0
    0.3257   -1.8355    1.2650 C   0  0  0  0  0  0  0  0  0  0  0  0
    1.2226   -0.6204    1.5522 C   0  0  0  0  0  0  0  0  0  0  0  0
    2.6900   -0.9838    1.7197 C   0  0  0  0  0  0  0  0  0  0  0  0
    3.1866   -1.7495    0.5668 N   0  0  0  0  0  0  0  0  0  0  0  0
    4.4172   -1.0917   -0.3911 S   0  0  0  0  0  6  0  0  0  0  0  0
    4.8424   -2.1018   -1.3360 O   0  0  0  0  0  0  0  0  0  0  0  0
    5.3508   -0.4305    0.4964 O   0  0  0  0  0  0  0  0  0  0  0  0
    3.7056    0.1966   -1.4039 C   0  0  0  0  0  0  0  0  0  0  0  0
    2.4315    0.4182   -1.8956 C   0  0  0  0  0  0  0  0  0  0  0  0
    2.3477    1.6004   -2.6885 C   0  0  0  0  0  0  0  0  0  0  0  0
    3.5646    2.2349   -2.7937 C   0  0  0  0  0  0  0  0  0  0  0  0
    4.7950    1.4061   -1.9436 S   0  0  0  0  0  0  0  0  0  0  0  0
    2.2950   -2.7519   -0.0429 C   0  0  0  0  0  0  0  0  0  0  0  0
    1.1338   -3.0844    0.8873 C   0  0  0  0  0  0  0  0  0  0  0  0
   -3.9376    3.0484    2.2558 H   0  0  0  0  0  0  0  0  0  0  0  0
   -3.5841    2.0690    3.6837 H   0  0  0  0  0  0  0  0  0  0  0  0
   -5.0093    1.6656    2.7184 H   0  0  0  0  0  0  0  0  0  0  0  0
   -5.1964    2.2995    0.4351 H   0  0  0  0  0  0  0  0  0  0  0  0
   -5.6045    1.8330   -1.9312 H   0  0  0  0  0  0  0  0  0  0  0  0
   -4.1624    0.2397   -3.1668 H   0  0  0  0  0  0  0  0  0  0  0  0
   -2.3109   -0.8917   -2.0417 H   0  0  0  0  0  0  0  0  0  0  0  0
   -1.5860   -0.2576    1.5837 H   0  0  0  0  0  0  0  0  0  0  0  0
   -0.2536   -2.0831    2.1646 H   0  0  0  0  0  0  0  0  0  0  0  0
    0.8706   -0.1212    2.4637 H   0  0  0  0  0  0  0  0  0  0  0  0
    1.1339    0.1258    0.7535 H   0  0  0  0  0  0  0  0  0  0  0  0
    2.8338   -1.5877    2.6232 H   0  0  0  0  0  0  0  0  0  0  0  0
    3.2665   -0.0655    1.8707 H   0  0  0  0  0  0  0  0  0  0  0  0
    1.5921   -0.2384   -1.7054 H   0  0  0  0  0  0  0  0  0  0  0  0
    1.4434    1.9583   -3.1657 H   0  0  0  0  0  0  0  0  0  0  0  0
    3.7963    3.1417   -3.3367 H   0  0  0  0  0  0  0  0  0  0  0  0
    2.8697   -3.6673   -0.2235 H   0  0  0  0  0  0  0  0  0  0  0  0
    1.9237   -2.3990   -1.0078 H   0  0  0  0  0  0  0  0  0  0  0  0
    0.4917   -3.8413    0.4211 H   0  0  0  0  0  0  0  0  0  0  0  0
    1.5300   -3.5404    1.8045 H   0  0  0  0  0  0  0  0  0  0  0  0
  1  2  1  0
  2  3  1  0
  3  4  2  0
  4  5  1  0
  5  6  2  0
  6  7  1  0
  7  8  2  0
  8  9  1  0
  9 10  1  0
 10 11  2  0
 10 12  1  0
 12 13  1  0
 13 14  1  0
 14 15  1  0
 15 16  1  0
 16 17  2  0
 16 18  2  0
 16 19  1  0
 19 20  2  0
 20 21  1  0
 21 22  2  0
 22 23  1  0
 15 24  1  0
 24 25  1  0
  8  3  1  0
 25 12  1  0
 23 19  1  0
  1 26  1  0
  1 27  1  0
  1 28  1  0
  4 29  1  0
  5 30  1  0
  6 31  1  0
  7 32  1  0
  9 33  1  0
 12 34  1  0
 13 35  1  0
 13 36  1  0
 14 37  1  0
 14 38  1  0
 20 39  1  0
 21 40  1  0
 22 41  1  0
 24 42  1  0
 24 43  1  0
 25 44  1  0
 25 45  1  0
M  END
$$$$
