
     RDKit          3D

 51 56  0  0  0  0  0  0  0  0999 V2000
   -1.9536    1.0235    1.2321 O   0  0  0  0  0  0  0  0  0  0  0  0
   -2.1247   -0.1000    0.7514 C   0  0  0  0  0  0  0  0  0  0  0  0
   -2.9258   -1.0790    1.5407 C   0  0  0  0  0  0  0  0  0  0  0  0
   -2.7233   -2.4614    1.4478 C   0  0  0  0  0  0  0  0  0  0  0  0
   -3.4990   -3.3362    2.2161 C   0  0  0  0  0  0  0  0  0  0  0  0
   -4.4701   -2.8314    3.0800 C   0  0  0  0  0  0  0  0  0  0  0  0
   -5.4193   -3.9122    4.0230 Cl  0  0  0  0  0  0  0  0  0  0  0  0
   -4.6707   -1.4573    3.1891 C   0  0  0  0  0  0  0  0  0  0  0  0
   -3.8963   -0.5819    2.4234 C   0  0  0  0  0  0  0  0  0  0  0  0
   -1.5642   -0.5516   -0.6064 C   0  0  0  0  0  0  0  0  0  0  0  0
   -0.0840   -0.6202   -0.5674 C   0  0  0  0  0  0  0  0  0  0  0  0
    0.5227    0.3521   -1.3777 C   0  0  0  0  0  0  0  0  0  0  0  0
    1.8803    0.1452   -1.3395 C   0  0  0  0  0  0  0  0  0  0  0  0
    2.8531    0.7004   -2.0601 O   0  0  0  0  0  0  0  0  0  0  0  0
    2.1258   -0.8965   -0.4221 N   0  0  0  0  0  0  0  0  0  0  0  0
    3.4077   -1.4511   -0.1053 C   0  0  0  0  0  0  0  0  0  0  0  0
    3.5364   -2.8163    0.1950 C   0  0  0  0  0  0  0  0  0  0  0  0
    4.7891   -3.3547    0.5062 C   0  0  0  0  0  0  0  0  0  0  0  0
    5.9150   -2.5350    0.5147 C   0  0  0  0  0  0  0  0  0  0  0  0
    7.4541   -3.1998    0.8988 Cl  0  0  0  0  0  0  0  0  0  0  0  0
    5.8014   -1.1816    0.2080 C   0  0  0  0  0  0  0  0  0  0  0  0
    4.5510   -0.6399   -0.1067 C   0  0  0  0  0  0  0  0  0  0  0  0
    0.8850   -1.3368    0.0772 C   0  0  0  0  0  0  0  0  0  0  0  0
    0.7248   -2.2436    1.0396 O   0  0  0  0  0  0  0  0  0  0  0  0
   -0.4866    1.1679   -2.0928 C   0  0  0  0  0  0  0  0  0  0  0  0
   -0.4979    2.6001   -1.6396 C   0  0  0  0  0  0  0  0  0  0  0  0
    0.6329    3.3975   -1.4197 C   0  0  0  0  0  0  0  0  0  0  0  0
    0.4956    4.7537   -1.1032 C   0  0  0  0  0  0  0  0  0  0  0  0
   -0.7686    5.3369   -1.0194 C   0  0  0  0  0  0  0  0  0  0  0  0
   -1.9054    4.5654   -1.2461 C   0  0  0  0  0  0  0  0  0  0  0  0
   -1.7606    3.2103   -1.5509 C   0  0  0  0  0  0  0  0  0  0  0  0
   -2.9629    2.3829   -1.7699 C   0  0  0  0  0  0  0  0  0  0  0  0
   -2.9720    1.0816   -1.8042 N   0  0  0  0  0  0  0  0  0  0  0  0
   -1.7406    0.4781   -1.6786 N   0  0  0  0  0  0  0  0  0  0  0  0
   -1.9529   -2.8825    0.8070 H   0  0  0  0  0  0  0  0  0  0  0  0
   -3.3344   -4.4083    2.1414 H   0  0  0  0  0  0  0  0  0  0  0  0
   -5.4221   -1.0598    3.8663 H   0  0  0  0  0  0  0  0  0  0  0  0
   -4.0531    0.4919    2.5139 H   0  0  0  0  0  0  0  0  0  0  0  0
   -2.0264   -1.4686   -0.9785 H   0  0  0  0  0  0  0  0  0  0  0  0
    2.4414    1.2321   -2.7636 H   0  0  0  0  0  0  0  0  0  0  0  0
    2.6880   -3.4953    0.1384 H   0  0  0  0  0  0  0  0  0  0  0  0
    4.8809   -4.4157    0.7249 H   0  0  0  0  0  0  0  0  0  0  0  0
    6.6787   -0.5400    0.2123 H   0  0  0  0  0  0  0  0  0  0  0  0
    4.4908    0.4247   -0.3199 H   0  0  0  0  0  0  0  0  0  0  0  0
    1.5224   -2.2365    1.6012 H   0  0  0  0  0  0  0  0  0  0  0  0
   -0.3952    1.0907   -3.1811 H   0  0  0  0  0  0  0  0  0  0  0  0
    1.6352    2.9864   -1.4778 H   0  0  0  0  0  0  0  0  0  0  0  0
    1.3818    5.3574   -0.9195 H   0  0  0  0  0  0  0  0  0  0  0  0
   -0.8655    6.3903   -0.7687 H   0  0  0  0  0  0  0  0  0  0  0  0
   -2.8895    5.0184   -1.1676 H   0  0  0  0  0  0  0  0  0  0  0  0
   -3.9292    2.9058   -1.8624 H   0  0  0  0  0  0  0  0  0  0  0  0
  1  2  2  0
  2  3  1  0
  3  4  2  0
  4  5  1  0
  5  6  2  0
  6  7  1  0
  6  8  1  0
  8  9  2  0
  2 10  1  0
 10 11  1  0
 11 12  1  0
 12 13  2  0
 13 14  1  0
 13 15  1  0
 15 16  1  0
 16 17  2  0
 17 18  1  0
 18 19  2  0
 19 20  1  0
 19 21  1  0
 21 22  2  0
 15 23  1  0
 23 24  1  0
 12 25  1  0
 25 26  1  0
 26 27  2  0
 27 28  1  0
 28 29  2  0
 29 30  1  0
 30 31  2  0
 31 32  1  0
 32 33  2  0
 33 34  1  0
  9  3  1  0
 34 10  1  0
 23 11  2  0
 34 25  1  0
 22 16  1  0
 31 26  1  0
  4 35  1  0
  5 36  1  0
  8 37  1  0
  9 38  1  0
 10 39  1  0
 14 40  1  0
 17 41  1  0
 18 42  1  0
 21 43  1  0
 22 44  1  0
 24 45  1  0
 25 46  1  0
 27 47  1  0
 28 48  1  0
 29 49  1  0
 30 50  1  0
 32 51  1  0
M  END
$$$$
