
     RDKit          3D

 54 57  0  0  0  0  0  0  0  0999 V2000
   -4.6589   -4.1251   -3.4939 C   0  0  0  0  0  0  0  0  0  0  0  0
   -4.1132   -4.0199   -2.1851 O   0  0  0  0  0  0  0  0  0  0  0  0
   -3.8917   -2.7579   -1.7075 C   0  0  0  0  0  0  0  0  0  0  0  0
   -3.3562   -2.7070   -0.4189 C   0  0  0  0  0  0  0  0  0  0  0  0
   -3.0805   -1.4805    0.1919 C   0  0  0  0  0  0  0  0  0  0  0  0
   -3.3381   -0.2812   -0.4810 C   0  0  0  0  0  0  0  0  0  0  0  0
   -3.0346    1.0075    0.1539 C   0  0  0  0  0  0  0  0  0  0  0  0
   -4.3312    2.0742    0.4867 S   0  0  0  0  0  0  0  0  0  0  0  0
   -3.3027    3.2539    1.1925 C   0  0  0  0  0  0  0  0  0  0  0  0
   -3.6907    4.4970    1.7318 C   0  0  0  0  0  0  0  0  0  0  0  0
   -2.7140    5.3417    2.2625 C   0  0  0  0  0  0  0  0  0  0  0  0
   -1.3799    4.9639    2.2571 C   0  0  0  0  0  0  0  0  0  0  0  0
   -1.0006    3.7294    1.7221 C   0  0  0  0  0  0  0  0  0  0  0  0
   -1.9685    2.8431    1.1797 C   0  0  0  0  0  0  0  0  0  0  0  0
   -1.8238    1.5332    0.5802 C   0  0  0  0  0  0  0  0  0  0  0  0
   -0.5674    0.8085    0.4156 C   0  0  0  0  0  0  0  0  0  0  0  0
   -0.0305    0.5938   -0.8557 C   0  0  0  0  0  0  0  0  0  0  0  0
    1.1755   -0.0973   -0.9954 C   0  0  0  0  0  0  0  0  0  0  0  0
    1.8595   -0.5795    0.1244 C   0  0  0  0  0  0  0  0  0  0  0  0
    3.0250   -1.2295   -0.1663 O   0  0  0  0  0  0  0  0  0  0  0  0
    3.7735   -1.8258    0.8937 C   0  0  0  0  0  0  0  0  0  0  0  0
    4.7256   -0.8313    1.5921 C   0  0  0  0  0  0  0  0  0  0  0  0
    5.9190   -0.3588    0.8642 N   0  0  0  0  0  0  0  0  0  0  0  0
    5.5800    0.4135   -0.3289 C   0  0  0  0  0  0  0  0  0  0  0  0
    6.8501   -1.4345    0.5381 C   0  0  0  0  0  0  0  0  0  0  0  0
    1.3259   -0.3589    1.3937 C   0  0  0  0  0  0  0  0  0  0  0  0
    0.1177    0.3333    1.5391 C   0  0  0  0  0  0  0  0  0  0  0  0
   -3.8737   -0.3362   -1.7748 C   0  0  0  0  0  0  0  0  0  0  0  0
   -4.1500   -1.5664   -2.3846 C   0  0  0  0  0  0  0  0  0  0  0  0
   -4.7744   -5.1887   -3.7234 H   0  0  0  0  0  0  0  0  0  0  0  0
   -3.9819   -3.6954   -4.2396 H   0  0  0  0  0  0  0  0  0  0  0  0
   -5.6505   -3.6636   -3.5465 H   0  0  0  0  0  0  0  0  0  0  0  0
   -3.1503   -3.6311    0.1155 H   0  0  0  0  0  0  0  0  0  0  0  0
   -2.6647   -1.4709    1.1965 H   0  0  0  0  0  0  0  0  0  0  0  0
   -4.7350    4.7964    1.7335 H   0  0  0  0  0  0  0  0  0  0  0  0
   -3.0039    6.3032    2.6794 H   0  0  0  0  0  0  0  0  0  0  0  0
   -0.6237    5.6286    2.6676 H   0  0  0  0  0  0  0  0  0  0  0  0
    0.0509    3.4507    1.7194 H   0  0  0  0  0  0  0  0  0  0  0  0
   -0.5422    0.9588   -1.7427 H   0  0  0  0  0  0  0  0  0  0  0  0
    1.5853   -0.2633   -1.9888 H   0  0  0  0  0  0  0  0  0  0  0  0
    4.3486   -2.6463    0.4516 H   0  0  0  0  0  0  0  0  0  0  0  0
    3.1125   -2.3111    1.6218 H   0  0  0  0  0  0  0  0  0  0  0  0
    5.0734   -1.3013    2.5211 H   0  0  0  0  0  0  0  0  0  0  0  0
    4.1615    0.0538    1.9091 H   0  0  0  0  0  0  0  0  0  0  0  0
    5.1528   -0.2036   -1.1260 H   0  0  0  0  0  0  0  0  0  0  0  0
    6.4772    0.8993   -0.7291 H   0  0  0  0  0  0  0  0  0  0  0  0
    4.8735    1.2157   -0.0886 H   0  0  0  0  0  0  0  0  0  0  0  0
    7.1167   -2.0028    1.4359 H   0  0  0  0  0  0  0  0  0  0  0  0
    7.7845   -1.0201    0.1428 H   0  0  0  0  0  0  0  0  0  0  0  0
    6.4499   -2.1304   -0.2067 H   0  0  0  0  0  0  0  0  0  0  0  0
    1.8200   -0.7033    2.2950 H   0  0  0  0  0  0  0  0  0  0  0  0
   -0.2863    0.4956    2.5362 H   0  0  0  0  0  0  0  0  0  0  0  0
   -4.0756    0.5816   -2.3230 H   0  0  0  0  0  0  0  0  0  0  0  0
   -4.5640   -1.5551   -3.3871 H   0  0  0  0  0  0  0  0  0  0  0  0
  1  2  1  0
  2  3  1  0
  3  4  2  0
  4  5  1  0
  5  6  2  0
  6  7  1  0
  7  8  1  0
  8  9  1  0
  9 10  2  0
 10 11  1  0
 11 12  2  0
 12 13  1  0
 13 14  2  0
 14 15  1  0
 15 16  1  0
 16 17  2  0
 17 18  1  0
 18 19  2  0
 19 20  1  0
 20 21  1  0
 21 22  1  0
 22 23  1  0
 23 24  1  0
 23 25  1  0
 19 26  1  0
 26 27  2  0
  6 28  1  0
 28 29  2  0
 29  3  1  0
 15  7  2  0
 27 16  1  0
 14  9  1  0
  1 30  1  0
  1 31  1  0
  1 32  1  0
  4 33  1  0
  5 34  1  0
 10 35  1  0
 11 36  1  0
 12 37  1  0
 13 38  1  0
 17 39  1  0
 18 40  1  0
 21 41  1  0
 21 42  1  0
 22 43  1  0
 22 44  1  0
 24 45  1  0
 24 46  1  0
 24 47  1  0
 25 48  1  0
 25 49  1  0
 25 50  1  0
 26 51  1  0
 27 52  1  0
 28 53  1  0
 29 54  1  0
M  END
$$$$
