
     RDKit          3D

 49 52  0  0  0  0  0  0  0  0999 V2000
   -4.1046    0.7834    2.1208 C   0  0  0  0  0  0  0  0  0  0  0  0
   -3.3642    2.0547    1.7480 C   0  0  0  0  0  0  0  0  0  0  0  0
   -2.3837    1.7744    0.7396 O   0  0  0  0  0  0  0  0  0  0  0  0
   -2.8307    1.7728   -0.5446 C   0  0  0  0  0  0  0  0  0  0  0  0
   -3.9648    2.0792   -0.8954 O   0  0  0  0  0  0  0  0  0  0  0  0
   -1.7369    1.4066   -1.5243 C   0  0  0  0  0  0  0  0  0  0  0  0
   -0.7410    0.3741   -1.0270 C   0  0  0  0  0  0  0  0  0  0  0  0
    0.5655    0.8701   -0.8210 C   0  0  0  0  0  0  0  0  0  0  0  0
    1.5490    0.0533   -0.2979 C   0  0  0  0  0  0  0  0  0  0  0  0
    2.9376    0.4972   -0.0592 C   0  0  0  0  0  0  0  0  0  0  0  0
    3.5741    1.4471   -0.8783 C   0  0  0  0  0  0  0  0  0  0  0  0
    4.8945    1.8586   -0.6395 C   0  0  0  0  0  0  0  0  0  0  0  0
    5.6145    1.3248    0.4265 C   0  0  0  0  0  0  0  0  0  0  0  0
    6.9000    1.6381    0.7695 O   0  0  0  0  0  0  0  0  0  0  0  0
    7.5929    2.5355   -0.0883 C   0  0  0  0  0  0  0  0  0  0  0  0
    5.0034    0.3782    1.2470 C   0  0  0  0  0  0  0  0  0  0  0  0
    3.6876   -0.0325    1.0053 C   0  0  0  0  0  0  0  0  0  0  0  0
    1.2669   -1.2143    0.0497 N   0  0  0  0  0  0  0  0  0  0  0  0
    0.0363   -1.7067   -0.1445 C   0  0  0  0  0  0  0  0  0  0  0  0
   -0.1109   -3.0089    0.2785 C   0  0  0  0  0  0  0  0  0  0  0  0
   -1.3128   -3.6906    0.1665 C   0  0  0  0  0  0  0  0  0  0  0  0
   -2.4136   -3.0801   -0.4174 C   0  0  0  0  0  0  0  0  0  0  0  0
   -3.5978   -3.8309   -0.5241 C   0  0  0  0  0  0  0  0  0  0  0  0
   -4.7319   -3.3028   -1.1234 C   0  0  0  0  0  0  0  0  0  0  0  0
   -4.6809   -2.0211   -1.6345 C   0  0  0  0  0  0  0  0  0  0  0  0
   -3.5022   -1.2698   -1.5280 C   0  0  0  0  0  0  0  0  0  0  0  0
   -2.3205   -1.7428   -0.8949 C   0  0  0  0  0  0  0  0  0  0  0  0
   -1.0555   -1.0005   -0.7172 C   0  0  0  0  0  0  0  0  0  0  0  0
   -3.3997    0.0037    2.4289 H   0  0  0  0  0  0  0  0  0  0  0  0
   -4.8061    0.9693    2.9388 H   0  0  0  0  0  0  0  0  0  0  0  0
   -4.6626    0.3881    1.2658 H   0  0  0  0  0  0  0  0  0  0  0  0
   -2.8249    2.4361    2.6212 H   0  0  0  0  0  0  0  0  0  0  0  0
   -4.0543    2.8426    1.4253 H   0  0  0  0  0  0  0  0  0  0  0  0
   -2.1602    1.0729   -2.4755 H   0  0  0  0  0  0  0  0  0  0  0  0
   -1.2287    2.3501   -1.7629 H   0  0  0  0  0  0  0  0  0  0  0  0
    0.7962    1.9087   -1.0406 H   0  0  0  0  0  0  0  0  0  0  0  0
    3.0559    1.8717   -1.7355 H   0  0  0  0  0  0  0  0  0  0  0  0
    5.3272    2.5938   -1.3097 H   0  0  0  0  0  0  0  0  0  0  0  0
    7.1179    3.5218   -0.0940 H   0  0  0  0  0  0  0  0  0  0  0  0
    7.6743    2.1295   -1.1016 H   0  0  0  0  0  0  0  0  0  0  0  0
    8.6072    2.6572    0.3040 H   0  0  0  0  0  0  0  0  0  0  0  0
    5.5538   -0.0511    2.0810 H   0  0  0  0  0  0  0  0  0  0  0  0
    3.2429   -0.7781    1.6634 H   0  0  0  0  0  0  0  0  0  0  0  0
    0.7423   -3.5188    0.7227 H   0  0  0  0  0  0  0  0  0  0  0  0
   -1.3637   -4.7146    0.5309 H   0  0  0  0  0  0  0  0  0  0  0  0
   -3.6436   -4.8489   -0.1411 H   0  0  0  0  0  0  0  0  0  0  0  0
   -5.6401   -3.8930   -1.2015 H   0  0  0  0  0  0  0  0  0  0  0  0
   -5.5517   -1.5926   -2.1249 H   0  0  0  0  0  0  0  0  0  0  0  0
   -3.5524   -0.2956   -1.9901 H   0  0  0  0  0  0  0  0  0  0  0  0
  1  2  1  0
  2  3  1  0
  3  4  1  0
  4  5  2  0
  4  6  1  0
  6  7  1  0
  7  8  2  0
  8  9  1  0
  9 10  1  0
 10 11  2  0
 11 12  1  0
 12 13  2  0
 13 14  1  0
 14 15  1  0
 13 16  1  0
 16 17  2  0
  9 18  2  0
 18 19  1  0
 19 20  2  0
 20 21  1  0
 21 22  2  0
 22 23  1  0
 23 24  2  0
 24 25  1  0
 25 26  2  0
 26 27  1  0
 27 28  2  0
 28  7  1  0
 17 10  1  0
 28 19  1  0
 27 22  1  0
  1 29  1  0
  1 30  1  0
  1 31  1  0
  2 32  1  0
  2 33  1  0
  6 34  1  0
  6 35  1  0
  8 36  1  0
 11 37  1  0
 12 38  1  0
 15 39  1  0
 15 40  1  0
 15 41  1  0
 16 42  1  0
 17 43  1  0
 20 44  1  0
 21 45  1  0
 23 46  1  0
 24 47  1  0
 25 48  1  0
 26 49  1  0
M  END
$$$$
