
     RDKit          3D

 41 44  0  0  0  0  0  0  0  0999 V2000
    3.8211   -4.7163    2.4350 C   0  0  0  0  0  0  0  0  0  0  0  0
    2.8328   -3.6930    2.4525 O   0  0  0  0  0  0  0  0  0  0  0  0
    2.5996   -3.0342    1.2749 C   0  0  0  0  0  0  0  0  0  0  0  0
    3.2343   -3.2802    0.0620 C   0  0  0  0  0  0  0  0  0  0  0  0
    2.9018   -2.5481   -1.0829 C   0  0  0  0  0  0  0  0  0  0  0  0
    1.9187   -1.5588   -0.9661 C   0  0  0  0  0  0  0  0  0  0  0  0
    1.4006   -0.7244   -1.9195 N   0  0  0  0  0  0  0  0  0  0  0  0
    0.4189    0.0946   -1.4000 C   0  0  0  0  0  0  0  0  0  0  0  0
   -0.3794    1.0509   -2.0573 C   0  0  0  0  0  0  0  0  0  0  0  0
   -0.2352    1.3153   -3.5368 C   0  0  0  0  0  0  0  0  0  0  0  0
   -1.3474    1.7329   -1.2708 C   0  0  0  0  0  0  0  0  0  0  0  0
   -2.2291    2.6650   -1.8476 C   0  0  0  0  0  0  0  0  0  0  0  0
   -3.1820    3.3190   -1.0822 C   0  0  0  0  0  0  0  0  0  0  0  0
   -3.2782    3.0681    0.2334 N   0  0  0  0  0  4  0  0  0  0  0  0
   -4.3010    3.7492    1.0454 C   0  0  0  0  0  0  0  0  0  0  0  0
   -2.4508    2.1814    0.8269 C   0  0  0  0  0  0  0  0  0  0  0  0
   -1.4510    1.4889    0.1200 C   0  0  0  0  0  0  0  0  0  0  0  0
   -0.5667    0.5647    0.7655 C   0  0  0  0  0  0  0  0  0  0  0  0
   -0.6174    0.3696    2.2643 C   0  0  0  0  0  0  0  0  0  0  0  0
    0.3395   -0.1861   -0.0365 C   0  0  0  0  0  0  0  0  0  0  0  0
    1.2696   -1.2630    0.2278 C   0  0  0  0  0  0  0  0  0  0  0  0
    1.6192   -2.0340    1.3603 C   0  0  0  0  0  0  0  0  0  0  0  0
    4.8051   -4.3102    2.1785 H   0  0  0  0  0  0  0  0  0  0  0  0
    3.5373   -5.5269    1.7557 H   0  0  0  0  0  0  0  0  0  0  0  0
    3.8863   -5.1349    3.4439 H   0  0  0  0  0  0  0  0  0  0  0  0
    3.9968   -4.0469   -0.0357 H   0  0  0  0  0  0  0  0  0  0  0  0
    3.3941   -2.7524   -2.0290 H   0  0  0  0  0  0  0  0  0  0  0  0
    1.6906   -0.7366   -2.8861 H   0  0  0  0  0  0  0  0  0  0  0  0
    0.5819    0.7434   -3.9847 H   0  0  0  0  0  0  0  0  0  0  0  0
   -1.1546    1.0365   -4.0619 H   0  0  0  0  0  0  0  0  0  0  0  0
   -0.0175    2.3737   -3.7138 H   0  0  0  0  0  0  0  0  0  0  0  0
   -2.1933    2.8943   -2.9108 H   0  0  0  0  0  0  0  0  0  0  0  0
   -3.8708    4.0363   -1.5193 H   0  0  0  0  0  0  0  0  0  0  0  0
   -5.0443    3.0020    1.3353 H   0  0  0  0  0  0  0  0  0  0  0  0
   -4.7707    4.5460    0.4638 H   0  0  0  0  0  0  0  0  0  0  0  0
   -3.8098    4.1767    1.9237 H   0  0  0  0  0  0  0  0  0  0  0  0
   -2.6243    2.0333    1.8874 H   0  0  0  0  0  0  0  0  0  0  0  0
    0.3542    0.0656    2.6578 H   0  0  0  0  0  0  0  0  0  0  0  0
   -1.3675   -0.3836    2.5218 H   0  0  0  0  0  0  0  0  0  0  0  0
   -0.8416    1.3029    2.7891 H   0  0  0  0  0  0  0  0  0  0  0  0
    1.1301   -1.8813    2.3161 H   0  0  0  0  0  0  0  0  0  0  0  0
  1  2  1  0
  2  3  1  0
  3  4  2  0
  4  5  1  0
  5  6  2  0
  6  7  1  0
  7  8  1  0
  8  9  2  0
  9 10  1  0
  9 11  1  0
 11 12  2  0
 12 13  1  0
 13 14  2  0
 14 15  1  0
 14 16  1  0
 16 17  2  0
 17 18  1  0
 18 19  1  0
 18 20  2  0
 20 21  1  0
 21 22  2  0
 22  3  1  0
 21  6  1  0
 20  8  1  0
 17 11  1  0
  1 23  1  0
  1 24  1  0
  1 25  1  0
  4 26  1  0
  5 27  1  0
  7 28  1  0
 10 29  1  0
 10 30  1  0
 10 31  1  0
 12 32  1  0
 13 33  1  0
 15 34  1  0
 15 35  1  0
 15 36  1  0
 16 37  1  0
 19 38  1  0
 19 39  1  0
 19 40  1  0
 22 41  1  0
M  CHG  1  14   1
M  END
$$$$
