
     RDKit          3D

 46 50  0  0  0  0  0  0  0  0999 V2000
    0.8158   -2.4019   -1.4187 O   0  0  0  0  0  0  0  0  0  0  0  0
    0.5617   -1.3493   -0.8474 C   0  0  0  0  0  0  0  0  0  0  0  0
    1.4652   -0.5095   -0.2269 N   0  0  0  0  0  0  0  0  0  0  0  0
    2.8803   -0.6150   -0.1662 C   0  0  0  0  0  0  0  0  0  0  0  0
    3.5577   -1.6690   -0.7930 C   0  0  0  0  0  0  0  0  0  0  0  0
    4.9452   -1.7659   -0.7344 C   0  0  0  0  0  0  0  0  0  0  0  0
    5.6806   -0.8082   -0.0483 C   0  0  0  0  0  0  0  0  0  0  0  0
    5.0436    0.2623    0.5899 C   0  0  0  0  0  0  0  0  0  0  0  0
    5.8214    1.2130    1.2724 C   0  0  0  0  0  0  0  0  0  0  0  0
    5.2322    2.2948    1.9203 C   0  0  0  0  0  0  0  0  0  0  0  0
    3.8542    2.4389    1.8940 C   0  0  0  0  0  0  0  0  0  0  0  0
    3.0662    1.5005    1.2197 C   0  0  0  0  0  0  0  0  0  0  0  0
    3.6281    0.3823    0.5448 C   0  0  0  0  0  0  0  0  0  0  0  0
   -0.8209   -0.9315   -0.6735 C   0  0  0  0  0  0  0  0  0  0  0  0
   -1.8271   -1.7997   -0.2871 C   0  0  0  0  0  0  0  0  0  0  0  0
   -2.9828   -1.0723   -0.1625 N   0  0  0  0  0  0  0  0  0  0  0  0
   -4.2724   -1.5329    0.2265 C   0  0  0  0  0  0  0  0  0  0  0  0
   -4.5030   -2.8828    0.5269 C   0  0  0  0  0  0  0  0  0  0  0  0
   -5.7801   -3.3068    0.9069 C   0  0  0  0  0  0  0  0  0  0  0  0
   -6.8294   -2.3930    0.9888 C   0  0  0  0  0  0  0  0  0  0  0  0
   -6.6078   -1.0505    0.6903 C   0  0  0  0  0  0  0  0  0  0  0  0
   -5.3351   -0.6191    0.3099 C   0  0  0  0  0  0  0  0  0  0  0  0
   -2.7687    0.2327   -0.4513 N   0  0  0  0  0  0  0  0  0  0  0  0
   -1.4856    0.3099   -0.8296 C   0  0  0  0  0  0  0  0  0  0  0  0
   -0.9369    1.6875   -1.3849 C   0  0  0  0  0  0  0  0  0  0  0  0
   -1.7058    2.8356   -1.4141 C   0  0  0  0  0  0  0  0  0  0  0  0
   -1.0050    3.9491   -1.9631 C   0  0  0  0  0  0  0  0  0  0  0  0
    0.2720    3.6093   -2.3475 C   0  0  0  0  0  0  0  0  0  0  0  0
    0.6076    1.9604   -2.0514 S   0  0  0  0  0  0  0  0  0  0  0  0
    1.0602    0.2891    0.2353 H   0  0  0  0  0  0  0  0  0  0  0  0
    3.0347   -2.4421   -1.3460 H   0  0  0  0  0  0  0  0  0  0  0  0
    5.4506   -2.5920   -1.2283 H   0  0  0  0  0  0  0  0  0  0  0  0
    6.7639   -0.9063   -0.0181 H   0  0  0  0  0  0  0  0  0  0  0  0
    6.9051    1.1167    1.3038 H   0  0  0  0  0  0  0  0  0  0  0  0
    5.8497    3.0204    2.4426 H   0  0  0  0  0  0  0  0  0  0  0  0
    3.3851    3.2809    2.3968 H   0  0  0  0  0  0  0  0  0  0  0  0
    1.9951    1.6734    1.2383 H   0  0  0  0  0  0  0  0  0  0  0  0
   -1.7806   -2.8590   -0.0832 H   0  0  0  0  0  0  0  0  0  0  0  0
   -3.7185   -3.6312    0.4740 H   0  0  0  0  0  0  0  0  0  0  0  0
   -5.9569   -4.3546    1.1384 H   0  0  0  0  0  0  0  0  0  0  0  0
   -7.8208   -2.7276    1.2838 H   0  0  0  0  0  0  0  0  0  0  0  0
   -7.4254   -0.3367    0.7520 H   0  0  0  0  0  0  0  0  0  0  0  0
   -5.1881    0.4347    0.0805 H   0  0  0  0  0  0  0  0  0  0  0  0
   -2.7275    2.8753   -1.0537 H   0  0  0  0  0  0  0  0  0  0  0  0
   -1.4198    4.9435   -2.0747 H   0  0  0  0  0  0  0  0  0  0  0  0
    1.0221    4.2465   -2.7961 H   0  0  0  0  0  0  0  0  0  0  0  0
  1  2  2  0
  2  3  1  0
  3  4  1  0
  4  5  2  0
  5  6  1  0
  6  7  2  0
  7  8  1  0
  8  9  2  0
  9 10  1  0
 10 11  2  0
 11 12  1  0
 12 13  2  0
  2 14  1  0
 14 15  2  0
 15 16  1  0
 16 17  1  0
 17 18  2  0
 18 19  1  0
 19 20  2  0
 20 21  1  0
 21 22  2  0
 16 23  1  0
 23 24  2  0
 24 25  1  0
 25 26  2  0
 26 27  1  0
 27 28  2  0
 28 29  1  0
 13  4  1  0
 24 14  1  0
 29 25  1  0
 13  8  1  0
 22 17  1  0
  3 30  1  0
  5 31  1  0
  6 32  1  0
  7 33  1  0
  9 34  1  0
 10 35  1  0
 11 36  1  0
 12 37  1  0
 15 38  1  0
 18 39  1  0
 19 40  1  0
 20 41  1  0
 21 42  1  0
 22 43  1  0
 26 44  1  0
 27 45  1  0
 28 46  1  0
M  END
$$$$
