
     RDKit          3D

 57 60  0  0  0  0  0  0  0  0999 V2000
   -0.9473    2.5858    0.6192 O   0  0  0  0  0  0  0  0  0  0  0  0
   -1.2178    1.4190    0.3526 C   0  0  0  0  0  0  0  0  0  0  0  0
   -2.2817    0.9943   -0.4157 N   0  0  0  0  0  0  0  0  0  0  0  0
   -3.2782    1.7794   -1.0454 C   0  0  0  0  0  0  0  0  0  0  0  0
   -3.3322    3.1731   -0.9356 C   0  0  0  0  0  0  0  0  0  0  0  0
   -4.3416    3.9060   -1.5713 C   0  0  0  0  0  0  0  0  0  0  0  0
   -5.3121    3.2575   -2.3289 C   0  0  0  0  0  0  0  0  0  0  0  0
   -5.2739    1.8716   -2.4543 C   0  0  0  0  0  0  0  0  0  0  0  0
   -4.2650    1.1393   -1.8187 C   0  0  0  0  0  0  0  0  0  0  0  0
   -4.2689   -0.5766   -2.0369 Cl  0  0  0  0  0  0  0  0  0  0  0  0
   -0.2920    0.3457    0.8530 C   0  0  0  0  0  0  0  0  0  0  0  0
    1.0164    0.7705    1.1589 C   0  0  0  0  0  0  0  0  0  0  0  0
    1.9833   -0.1509    1.5586 C   0  0  0  0  0  0  0  0  0  0  0  0
    3.6293    0.4056    1.9519 S   0  0  0  0  0  6  0  0  0  0  0  0
    4.2516   -0.6325    2.7473 O   0  0  0  0  0  0  0  0  0  0  0  0
    3.5213    1.7599    2.4489 O   0  0  0  0  0  0  0  0  0  0  0  0
    4.4010    0.4419    0.4337 N   0  0  0  0  0  0  0  0  0  0  0  0
    4.6272   -0.8654   -0.2273 C   0  0  0  0  0  0  0  0  0  0  0  0
    5.7065   -0.7131   -1.2966 C   0  0  0  0  0  0  0  0  0  0  0  0
    5.3455    0.3792   -2.2994 C   0  0  0  0  0  0  0  0  0  0  0  0
    5.0404    1.6911   -1.5817 C   0  0  0  0  0  0  0  0  0  0  0  0
    3.9687    1.5009   -0.5108 C   0  0  0  0  0  0  0  0  0  0  0  0
    1.6517   -1.4937    1.7082 C   0  0  0  0  0  0  0  0  0  0  0  0
    0.3495   -1.9178    1.4299 C   0  0  0  0  0  0  0  0  0  0  0  0
   -0.6499   -1.0219    0.9945 C   0  0  0  0  0  0  0  0  0  0  0  0
   -1.9764   -1.4647    0.7757 N   0  0  0  0  0  0  0  0  0  0  0  0
   -2.8233   -1.1949    1.9800 C   0  0  0  0  0  0  0  0  0  0  0  0
   -4.1475   -1.9666    1.8799 C   0  0  0  0  0  0  0  0  0  0  0  0
   -3.9714   -3.3919    1.8555 O   0  0  0  0  0  0  0  0  0  0  0  0
   -2.7159   -3.8030    1.2949 C   0  0  0  0  0  0  0  0  0  0  0  0
   -2.1762   -2.8364    0.2292 C   0  0  0  0  0  0  0  0  0  0  0  0
   -2.3801   -0.0184   -0.5095 H   0  0  0  0  0  0  0  0  0  0  0  0
   -2.6029    3.7289   -0.3546 H   0  0  0  0  0  0  0  0  0  0  0  0
   -4.3634    4.9889   -1.4691 H   0  0  0  0  0  0  0  0  0  0  0  0
   -6.0935    3.8308   -2.8213 H   0  0  0  0  0  0  0  0  0  0  0  0
   -6.0296    1.3665   -3.0502 H   0  0  0  0  0  0  0  0  0  0  0  0
    1.2792    1.8248    1.0741 H   0  0  0  0  0  0  0  0  0  0  0  0
    4.9648   -1.6121    0.4982 H   0  0  0  0  0  0  0  0  0  0  0  0
    3.6957   -1.2228   -0.6806 H   0  0  0  0  0  0  0  0  0  0  0  0
    5.8471   -1.6653   -1.8201 H   0  0  0  0  0  0  0  0  0  0  0  0
    6.6620   -0.4625   -0.8188 H   0  0  0  0  0  0  0  0  0  0  0  0
    4.4707    0.0676   -2.8831 H   0  0  0  0  0  0  0  0  0  0  0  0
    6.1701    0.5238   -3.0061 H   0  0  0  0  0  0  0  0  0  0  0  0
    4.7106    2.4427   -2.3075 H   0  0  0  0  0  0  0  0  0  0  0  0
    5.9592    2.0708   -1.1173 H   0  0  0  0  0  0  0  0  0  0  0  0
    3.0181    1.2229   -0.9790 H   0  0  0  0  0  0  0  0  0  0  0  0
    3.8316    2.4526    0.0118 H   0  0  0  0  0  0  0  0  0  0  0  0
    2.3885   -2.2144    2.0580 H   0  0  0  0  0  0  0  0  0  0  0  0
    0.1240   -2.9679    1.5948 H   0  0  0  0  0  0  0  0  0  0  0  0
   -2.2971   -1.5125    2.8902 H   0  0  0  0  0  0  0  0  0  0  0  0
   -3.0345   -0.1233    2.0605 H   0  0  0  0  0  0  0  0  0  0  0  0
   -4.6939   -1.6811    0.9742 H   0  0  0  0  0  0  0  0  0  0  0  0
   -4.7873   -1.7314    2.7363 H   0  0  0  0  0  0  0  0  0  0  0  0
   -2.0047   -3.9141    2.1206 H   0  0  0  0  0  0  0  0  0  0  0  0
   -2.8641   -4.7959    0.8585 H   0  0  0  0  0  0  0  0  0  0  0  0
   -1.2695   -3.2335   -0.2410 H   0  0  0  0  0  0  0  0  0  0  0  0
   -2.9223   -2.7566   -0.5685 H   0  0  0  0  0  0  0  0  0  0  0  0
  1  2  2  0
  2  3  1  0
  3  4  1  0
  4  5  2  0
  5  6  1  0
  6  7  2  0
  7  8  1  0
  8  9  2  0
  9 10  1  0
  2 11  1  0
 11 12  2  0
 12 13  1  0
 13 14  1  0
 14 15  2  0
 14 16  2  0
 14 17  1  0
 17 18  1  0
 18 19  1  0
 19 20  1  0
 20 21  1  0
 21 22  1  0
 13 23  2  0
 23 24  1  0
 24 25  2  0
 25 26  1  0
 26 27  1  0
 27 28  1  0
 28 29  1  0
 29 30  1  0
 30 31  1  0
  9  4  1  0
 25 11  1  0
 31 26  1  0
 22 17  1  0
  3 32  1  0
  5 33  1  0
  6 34  1  0
  7 35  1  0
  8 36  1  0
 12 37  1  0
 18 38  1  0
 18 39  1  0
 19 40  1  0
 19 41  1  0
 20 42  1  0
 20 43  1  0
 21 44  1  0
 21 45  1  0
 22 46  1  0
 22 47  1  0
 23 48  1  0
 24 49  1  0
 27 50  1  0
 27 51  1  0
 28 52  1  0
 28 53  1  0
 30 54  1  0
 30 55  1  0
 31 56  1  0
 31 57  1  0
M  END
$$$$
