
     RDKit          3D

 35 38  0  0  0  0  0  0  0  0999 V2000
   -1.5090    0.1355   -2.6500 O   0  0  0  0  0  0  0  0  0  0  0  0
   -0.9923    0.3045   -1.2416 P   0  0  0  0  0  5  0  0  0  0  0  0
   -0.5804    1.8034   -0.7073 N   0  0  0  0  0  0  0  0  0  0  0  0
   -1.5391    2.6510   -0.2919 C   0  0  0  0  0  0  0  0  0  0  0  0
   -1.2847    3.5671    0.6161 N   0  0  0  0  0  0  0  0  0  0  0  0
   -2.4105    4.3230    0.8739 C   0  0  0  0  0  0  0  0  0  0  0  0
   -3.5318    3.9765    0.1572 C   0  0  0  0  0  0  0  0  0  0  0  0
   -3.1641    2.6659   -0.8776 S   0  0  0  0  0  0  0  0  0  0  0  0
   -1.7207   -0.7715   -0.0209 C   0  0  0  0  0  0  0  0  0  0  0  0
   -1.4537   -0.6148    1.3480 C   0  0  0  0  0  0  0  0  0  0  0  0
   -2.0394   -1.4647    2.2872 C   0  0  0  0  0  0  0  0  0  0  0  0
   -2.9001   -2.4781    1.8700 C   0  0  0  0  0  0  0  0  0  0  0  0
   -3.1774   -2.6430    0.5146 C   0  0  0  0  0  0  0  0  0  0  0  0
   -2.5921   -1.7941   -0.4252 C   0  0  0  0  0  0  0  0  0  0  0  0
    0.7280   -0.1957   -1.1415 C   0  0  0  0  0  0  0  0  0  0  0  0
    1.5788    0.3368   -0.2784 N   0  0  0  0  0  0  0  0  0  0  0  0
    2.8195   -0.2613   -0.4260 C   0  0  0  0  0  0  0  0  0  0  0  0
    3.9776    0.0500    0.3149 C   0  0  0  0  0  0  0  0  0  0  0  0
    5.1705   -0.6358    0.0631 C   0  0  0  0  0  0  0  0  0  0  0  0
    5.2220   -1.6244   -0.9142 C   0  0  0  0  0  0  0  0  0  0  0  0
    4.0874   -1.9524   -1.6627 C   0  0  0  0  0  0  0  0  0  0  0  0
    2.8945   -1.2576   -1.4023 C   0  0  0  0  0  0  0  0  0  0  0  0
    1.3524   -1.4351   -2.1471 S   0  0  0  0  0  0  0  0  0  0  0  0
    0.2854    1.8790   -0.1784 H   0  0  0  0  0  0  0  0  0  0  0  0
   -2.3559    5.1236    1.6015 H   0  0  0  0  0  0  0  0  0  0  0  0
   -4.5166    4.4195    0.1878 H   0  0  0  0  0  0  0  0  0  0  0  0
   -0.7824    0.1708    1.6908 H   0  0  0  0  0  0  0  0  0  0  0  0
   -1.8239   -1.3362    3.3451 H   0  0  0  0  0  0  0  0  0  0  0  0
   -3.3561   -3.1395    2.6023 H   0  0  0  0  0  0  0  0  0  0  0  0
   -3.8510   -3.4320    0.1891 H   0  0  0  0  0  0  0  0  0  0  0  0
   -2.8183   -1.9273   -1.4826 H   0  0  0  0  0  0  0  0  0  0  0  0
    3.9356    0.8224    1.0765 H   0  0  0  0  0  0  0  0  0  0  0  0
    6.0621   -0.3917    0.6362 H   0  0  0  0  0  0  0  0  0  0  0  0
    6.1565   -2.1498   -1.1008 H   0  0  0  0  0  0  0  0  0  0  0  0
    4.1293   -2.7239   -2.4259 H   0  0  0  0  0  0  0  0  0  0  0  0
  1  2  2  0
  2  3  1  0
  3  4  1  0
  4  5  2  0
  5  6  1  0
  6  7  2  0
  7  8  1  0
  2  9  1  0
  9 10  2  0
 10 11  1  0
 11 12  2  0
 12 13  1  0
 13 14  2  0
  2 15  1  0
 15 16  2  0
 16 17  1  0
 17 18  2  0
 18 19  1  0
 19 20  2  0
 20 21  1  0
 21 22  2  0
 22 23  1  0
  8  4  1  0
 14  9  1  0
 23 15  1  0
 22 17  1  0
  3 24  1  0
  6 25  1  0
  7 26  1  0
 10 27  1  0
 11 28  1  0
 12 29  1  0
 13 30  1  0
 14 31  1  0
 18 32  1  0
 19 33  1  0
 20 34  1  0
 21 35  1  0
M  END
$$$$
