
     RDKit          3D

 58 61  0  0  0  0  0  0  0  0999 V2000
   -0.5443    0.5503   -2.4422 O   0  0  0  0  0  0  0  0  0  0  0  0
   -0.9032   -0.2443   -1.5760 C   0  0  0  0  0  0  0  0  0  0  0  0
   -0.1409   -1.5562   -1.3167 C   0  0  0  0  0  0  0  0  0  0  0  0
    1.2167   -1.3670   -0.7838 N   0  0  0  0  0  0  0  0  0  0  0  0
    1.2743   -0.7021    0.5293 C   0  0  0  0  0  0  0  0  0  0  0  0
    2.2473    0.4956    0.6148 C   0  0  0  0  0  0  0  0  0  0  0  0
    3.6070    0.1255    0.1164 N   0  0  0  0  0  0  0  0  0  0  0  0
    4.7226    1.4099    0.1607 S   0  0  0  0  0  6  0  0  0  0  0  0
    4.4952    2.2000   -1.0347 O   0  0  0  0  0  0  0  0  0  0  0  0
    4.6811    2.0303    1.4665 O   0  0  0  0  0  0  0  0  0  0  0  0
    6.2798    0.6010   -0.0020 C   0  0  0  0  0  0  0  0  0  0  0  0
    7.1036    0.8600   -1.1044 C   0  0  0  0  0  0  0  0  0  0  0  0
    8.3272    0.2002   -1.2171 C   0  0  0  0  0  0  0  0  0  0  0  0
    8.7243   -0.7082   -0.2334 C   0  0  0  0  0  0  0  0  0  0  0  0
    7.8979   -0.9558    0.8657 C   0  0  0  0  0  0  0  0  0  0  0  0
    6.6786   -0.2966    0.9795 C   0  0  0  0  0  0  0  0  0  0  0  0
    5.9049   -0.5632    2.0406 F   0  0  0  0  0  0  0  0  0  0  0  0
    3.5751   -0.6758   -1.1503 C   0  0  0  0  0  0  0  0  0  0  0  0
    2.1623   -0.7959   -1.7493 C   0  0  0  0  0  0  0  0  0  0  0  0
   -1.9997   -0.0923   -0.7449 N   0  0  0  0  0  0  0  0  0  0  0  0
   -2.9061    0.9944   -0.6567 C   0  0  0  0  0  0  0  0  0  0  0  0
   -2.7572    2.1611   -1.4148 C   0  0  0  0  0  0  0  0  0  0  0  0
   -3.6503    3.2280   -1.2704 C   0  0  0  0  0  0  0  0  0  0  0  0
   -4.7025    3.1501   -0.3598 C   0  0  0  0  0  0  0  0  0  0  0  0
   -4.8772    1.9944    0.3993 C   0  0  0  0  0  0  0  0  0  0  0  0
   -4.0001    0.9061    0.2400 C   0  0  0  0  0  0  0  0  0  0  0  0
   -4.2192   -0.3374    1.0376 C   0  0  0  0  0  0  0  0  0  0  0  0
   -3.2524   -1.0190    1.3737 O   0  0  0  0  0  0  0  0  0  0  0  0
   -5.5764   -0.8019    1.4102 C   0  0  0  0  0  0  0  0  0  0  0  0
   -6.6547   -0.7096    0.5177 C   0  0  0  0  0  0  0  0  0  0  0  0
   -7.9134   -1.1806    0.8967 C   0  0  0  0  0  0  0  0  0  0  0  0
   -8.0927   -1.7541    2.1562 C   0  0  0  0  0  0  0  0  0  0  0  0
   -7.0137   -1.8658    3.0380 C   0  0  0  0  0  0  0  0  0  0  0  0
   -5.7534   -1.3975    2.6644 C   0  0  0  0  0  0  0  0  0  0  0  0
   -0.7045   -2.1966   -0.6271 H   0  0  0  0  0  0  0  0  0  0  0  0
   -0.1047   -2.1084   -2.2641 H   0  0  0  0  0  0  0  0  0  0  0  0
    0.2864   -0.3661    0.8675 H   0  0  0  0  0  0  0  0  0  0  0  0
    1.5981   -1.4604    1.2530 H   0  0  0  0  0  0  0  0  0  0  0  0
    2.3193    0.8054    1.6630 H   0  0  0  0  0  0  0  0  0  0  0  0
    1.8527    1.3392    0.0338 H   0  0  0  0  0  0  0  0  0  0  0  0
    6.8002    1.5689   -1.8729 H   0  0  0  0  0  0  0  0  0  0  0  0
    8.9737    0.3951   -2.0707 H   0  0  0  0  0  0  0  0  0  0  0  0
    9.6782   -1.2218   -0.3224 H   0  0  0  0  0  0  0  0  0  0  0  0
    8.1968   -1.6589    1.6358 H   0  0  0  0  0  0  0  0  0  0  0  0
    3.9651   -1.6740   -0.9150 H   0  0  0  0  0  0  0  0  0  0  0  0
    4.2355   -0.2491   -1.9103 H   0  0  0  0  0  0  0  0  0  0  0  0
    1.8453    0.1963   -2.0880 H   0  0  0  0  0  0  0  0  0  0  0  0
    2.2186   -1.4417   -2.6344 H   0  0  0  0  0  0  0  0  0  0  0  0
   -2.1596   -0.8235   -0.0465 H   0  0  0  0  0  0  0  0  0  0  0  0
   -1.9410    2.2843   -2.1218 H   0  0  0  0  0  0  0  0  0  0  0  0
   -3.5078    4.1293   -1.8643 H   0  0  0  0  0  0  0  0  0  0  0  0
   -5.3816    3.9923   -0.2386 H   0  0  0  0  0  0  0  0  0  0  0  0
   -5.6946    1.9622    1.1196 H   0  0  0  0  0  0  0  0  0  0  0  0
   -6.5263   -0.2937   -0.4786 H   0  0  0  0  0  0  0  0  0  0  0  0
   -8.7547   -1.1124    0.2067 H   0  0  0  0  0  0  0  0  0  0  0  0
   -9.0730   -2.1255    2.4469 H   0  0  0  0  0  0  0  0  0  0  0  0
   -7.1522   -2.3264    4.0134 H   0  0  0  0  0  0  0  0  0  0  0  0
   -4.9106   -1.4983    3.3494 H   0  0  0  0  0  0  0  0  0  0  0  0
  1  2  2  0
  2  3  1  0
  3  4  1  0
  4  5  1  0
  5  6  1  0
  6  7  1  0
  7  8  1  0
  8  9  2  0
  8 10  2  0
  8 11  1  0
 11 12  2  0
 12 13  1  0
 13 14  2  0
 14 15  1  0
 15 16  2  0
 16 17  1  0
  7 18  1  0
 18 19  1  0
  2 20  1  0
 20 21  1  0
 21 22  2  0
 22 23  1  0
 23 24  2  0
 24 25  1  0
 25 26  2  0
 26 27  1  0
 27 28  2  0
 27 29  1  0
 29 30  2  0
 30 31  1  0
 31 32  2  0
 32 33  1  0
 33 34  2  0
 19  4  1  0
 26 21  1  0
 34 29  1  0
 16 11  1  0
  3 35  1  0
  3 36  1  0
  5 37  1  0
  5 38  1  0
  6 39  1  0
  6 40  1  0
 12 41  1  0
 13 42  1  0
 14 43  1  0
 15 44  1  0
 18 45  1  0
 18 46  1  0
 19 47  1  0
 19 48  1  0
 20 49  1  0
 22 50  1  0
 23 51  1  0
 24 52  1  0
 25 53  1  0
 30 54  1  0
 31 55  1  0
 32 56  1  0
 33 57  1  0
 34 58  1  0
M  END
$$$$
