
     RDKit          3D

 40 40  0  0  0  0  0  0  0  0999 V2000
   -2.7142    2.3195    4.3718 C   0  0  0  0  0  0  0  0  0  0  0  0
   -2.3568    2.0309    2.9224 C   0  0  0  0  0  0  0  0  0  0  0  0
   -0.8767    1.6705    2.7719 C   0  0  0  0  0  0  0  0  0  0  0  0
   -0.4813    1.4204    1.3145 C   0  0  0  0  0  0  0  0  0  0  0  0
   -1.1515    0.2223    0.8451 N   0  0  0  0  0  0  0  0  0  0  0  0
   -1.1192   -0.1197   -0.3952 C   0  0  0  0  0  0  0  0  0  0  0  0
   -0.4892    0.4434   -1.5075 N   0  0  0  0  0  0  0  0  0  0  0  0
    0.5931    1.2815   -1.4776 N   0  0  0  0  0  0  0  0  0  0  0  0
    1.9272    0.8413   -1.3424 C   0  0  0  0  0  0  0  0  0  0  0  0
    2.2866   -0.5098   -1.4403 C   0  0  0  0  0  0  0  0  0  0  0  0
    3.6260   -0.9052   -1.3547 C   0  0  0  0  0  0  0  0  0  0  0  0
    4.6206    0.0541   -1.1897 C   0  0  0  0  0  0  0  0  0  0  0  0
    6.4300   -0.4783   -1.0693 Br  0  0  0  0  0  0  0  0  0  0  0  0
    4.2888    1.4039   -1.1189 C   0  0  0  0  0  0  0  0  0  0  0  0
    2.9485    1.7934   -1.2065 C   0  0  0  0  0  0  0  0  0  0  0  0
   -1.9447   -1.4027   -0.7117 C   0  0  0  0  0  0  0  0  0  0  0  0
   -3.0820   -1.6061   -0.3310 O   0  0  0  0  0  0  0  0  0  0  0  0
   -1.1923   -2.1967   -1.5143 O   0  0  0  0  0  0  0  0  0  0  0  0
   -1.8295   -3.4325   -1.8557 C   0  0  0  0  0  0  0  0  0  0  0  0
   -0.8570   -4.2501   -2.6835 C   0  0  0  0  0  0  0  0  0  0  0  0
   -3.7787    2.5611    4.4571 H   0  0  0  0  0  0  0  0  0  0  0  0
   -2.5113    1.4505    5.0059 H   0  0  0  0  0  0  0  0  0  0  0  0
   -2.1409    3.1689    4.7575 H   0  0  0  0  0  0  0  0  0  0  0  0
   -2.5895    2.9119    2.3132 H   0  0  0  0  0  0  0  0  0  0  0  0
   -2.9862    1.2107    2.5602 H   0  0  0  0  0  0  0  0  0  0  0  0
   -0.2635    2.4902    3.1641 H   0  0  0  0  0  0  0  0  0  0  0  0
   -0.6511    0.7815    3.3737 H   0  0  0  0  0  0  0  0  0  0  0  0
    0.6043    1.2849    1.2779 H   0  0  0  0  0  0  0  0  0  0  0  0
   -0.7572    2.2955    0.7166 H   0  0  0  0  0  0  0  0  0  0  0  0
   -0.5247   -0.1541   -2.3363 H   0  0  0  0  0  0  0  0  0  0  0  0
    0.4273    2.2081   -1.0861 H   0  0  0  0  0  0  0  0  0  0  0  0
    1.5310   -1.2777   -1.5744 H   0  0  0  0  0  0  0  0  0  0  0  0
    3.8770   -1.9607   -1.4175 H   0  0  0  0  0  0  0  0  0  0  0  0
    5.0601    2.1600   -1.0001 H   0  0  0  0  0  0  0  0  0  0  0  0
    2.7093    2.8537   -1.1678 H   0  0  0  0  0  0  0  0  0  0  0  0
   -2.0928   -3.9815   -0.9443 H   0  0  0  0  0  0  0  0  0  0  0  0
   -2.7341   -3.2310   -2.4405 H   0  0  0  0  0  0  0  0  0  0  0  0
    0.0746   -4.4193   -2.1325 H   0  0  0  0  0  0  0  0  0  0  0  0
   -1.2906   -5.2171   -2.9528 H   0  0  0  0  0  0  0  0  0  0  0  0
   -0.5898   -3.7156   -3.6015 H   0  0  0  0  0  0  0  0  0  0  0  0
  1  2  1  0
  2  3  1  0
  3  4  1  0
  4  5  1  0
  5  6  2  3
  6  7  1  0
  7  8  1  0
  8  9  1  0
  9 10  2  0
 10 11  1  0
 11 12  2  0
 12 13  1  0
 12 14  1  0
 14 15  2  0
  6 16  1  0
 16 17  2  0
 16 18  1  0
 18 19  1  0
 19 20  1  0
 15  9  1  0
  1 21  1  0
  1 22  1  0
  1 23  1  0
  2 24  1  0
  2 25  1  0
  3 26  1  0
  3 27  1  0
  4 28  1  0
  4 29  1  0
  7 30  1  0
  8 31  1  0
 10 32  1  0
 11 33  1  0
 14 34  1  0
 15 35  1  0
 19 36  1  0
 19 37  1  0
 20 38  1  0
 20 39  1  0
 20 40  1  0
M  END
$$$$
