
     RDKit          3D

 57 59  0  0  0  0  0  0  0  0999 V2000
   -8.1215   -2.3874    0.2840 C   0  0  0  0  0  0  0  0  0  0  0  0
   -6.9474   -1.5141    0.6431 C   0  0  0  0  0  0  0  0  0  0  0  0
   -6.0876   -1.8795    1.6947 C   0  0  0  0  0  0  0  0  0  0  0  0
   -5.0193   -1.0505    2.0592 C   0  0  0  0  0  0  0  0  0  0  0  0
   -4.8122    0.1499    1.3690 C   0  0  0  0  0  0  0  0  0  0  0  0
   -3.4514    1.1943    1.8509 S   0  0  0  0  0  6  0  0  0  0  0  0
   -3.3491    2.2834    0.8946 O   0  0  0  0  0  0  0  0  0  0  0  0
   -3.5970    1.4568    3.2684 O   0  0  0  0  0  0  0  0  0  0  0  0
   -2.0994    0.1810    1.6341 N   0  0  0  0  0  0  0  0  0  0  0  0
   -1.7981   -0.3024    0.2660 C   0  0  0  0  0  0  0  0  0  0  0  0
   -0.9687    0.7081   -0.5244 C   0  0  0  0  0  0  0  0  0  0  0  0
    0.2935    1.1540    0.2314 C   0  0  0  0  0  0  0  0  0  0  0  0
    1.3787    0.0760    0.2305 C   0  0  0  0  0  0  0  0  0  0  0  0
    1.8795   -0.3823    1.2546 O   0  0  0  0  0  0  0  0  0  0  0  0
    1.7774   -0.3240   -1.0299 N   0  0  0  0  0  0  0  0  0  0  0  0
    2.8067   -1.3398   -1.2502 C   0  0  0  0  0  0  0  0  0  0  0  0
    2.2992   -2.3699   -2.2516 C   0  0  0  0  0  0  0  0  0  0  0  0
    4.1156   -0.6665   -1.7261 C   0  0  0  0  0  0  0  0  0  0  0  0
    4.7049   -1.0544   -2.7319 O   0  0  0  0  0  0  0  0  0  0  0  0
    4.5393    0.3406   -0.8636 N   0  0  0  0  0  0  0  0  0  0  0  0
    5.6575    1.1882   -1.0063 C   0  0  0  0  0  0  0  0  0  0  0  0
    5.8784    2.1366    0.0125 C   0  0  0  0  0  0  0  0  0  0  0  0
    6.9589    3.0233   -0.0556 C   0  0  0  0  0  0  0  0  0  0  0  0
    7.8191    2.9645   -1.1445 C   0  0  0  0  0  0  0  0  0  0  0  0
    8.8537    3.8148   -1.2159 F   0  0  0  0  0  0  0  0  0  0  0  0
    7.6076    2.0454   -2.1691 C   0  0  0  0  0  0  0  0  0  0  0  0
    6.5267    1.1571   -2.1004 C   0  0  0  0  0  0  0  0  0  0  0  0
   -0.0588    1.5943    1.6600 C   0  0  0  0  0  0  0  0  0  0  0  0
   -0.8810    0.5423    2.4034 C   0  0  0  0  0  0  0  0  0  0  0  0
   -5.6690    0.5364    0.3293 C   0  0  0  0  0  0  0  0  0  0  0  0
   -6.7383   -0.2947   -0.0262 C   0  0  0  0  0  0  0  0  0  0  0  0
   -8.3497   -2.3191   -0.7861 H   0  0  0  0  0  0  0  0  0  0  0  0
   -8.9997   -2.0788    0.8564 H   0  0  0  0  0  0  0  0  0  0  0  0
   -7.9158   -3.4420    0.5020 H   0  0  0  0  0  0  0  0  0  0  0  0
   -6.2443   -2.8102    2.2410 H   0  0  0  0  0  0  0  0  0  0  0  0
   -4.3561   -1.3394    2.8741 H   0  0  0  0  0  0  0  0  0  0  0  0
   -2.7189   -0.5324   -0.2814 H   0  0  0  0  0  0  0  0  0  0  0  0
   -1.2599   -1.2546    0.3553 H   0  0  0  0  0  0  0  0  0  0  0  0
   -1.5767    1.5933   -0.7468 H   0  0  0  0  0  0  0  0  0  0  0  0
   -0.7188    0.2725   -1.4981 H   0  0  0  0  0  0  0  0  0  0  0  0
    0.7279    2.0170   -0.2931 H   0  0  0  0  0  0  0  0  0  0  0  0
    1.5226    0.2487   -1.8245 H   0  0  0  0  0  0  0  0  0  0  0  0
    3.0335   -1.8535   -0.3044 H   0  0  0  0  0  0  0  0  0  0  0  0
    2.0639   -1.9075   -3.2243 H   0  0  0  0  0  0  0  0  0  0  0  0
    3.0454   -3.1475   -2.4237 H   0  0  0  0  0  0  0  0  0  0  0  0
    1.3851   -2.8525   -1.8800 H   0  0  0  0  0  0  0  0  0  0  0  0
    3.9939    0.4445   -0.0115 H   0  0  0  0  0  0  0  0  0  0  0  0
    5.2020    2.1997    0.8664 H   0  0  0  0  0  0  0  0  0  0  0  0
    7.1465    3.7376    0.7412 H   0  0  0  0  0  0  0  0  0  0  0  0
    8.2842    2.0236   -3.0184 H   0  0  0  0  0  0  0  0  0  0  0  0
    6.3839    0.4702   -2.9273 H   0  0  0  0  0  0  0  0  0  0  0  0
   -0.6247    2.5310    1.6109 H   0  0  0  0  0  0  0  0  0  0  0  0
    0.8519    1.8127    2.2314 H   0  0  0  0  0  0  0  0  0  0  0  0
   -0.3036   -0.3747    2.5741 H   0  0  0  0  0  0  0  0  0  0  0  0
   -1.1438    0.9059    3.4034 H   0  0  0  0  0  0  0  0  0  0  0  0
   -5.5139    1.4789   -0.2009 H   0  0  0  0  0  0  0  0  0  0  0  0
   -7.4130    0.0152   -0.8258 H   0  0  0  0  0  0  0  0  0  0  0  0
  1  2  1  0
  2  3  2  0
  3  4  1  0
  4  5  2  0
  5  6  1  0
  6  7  2  0
  6  8  2  0
  6  9  1  0
  9 10  1  0
 10 11  1  0
 11 12  1  0
 12 13  1  0
 13 14  2  0
 13 15  1  0
 15 16  1  0
 16 17  1  0
 16 18  1  0
 18 19  2  0
 18 20  1  0
 20 21  1  0
 21 22  2  0
 22 23  1  0
 23 24  2  0
 24 25  1  0
 24 26  1  0
 26 27  2  0
 12 28  1  0
 28 29  1  0
  5 30  1  0
 30 31  2  0
 31  2  1  0
 29  9  1  0
 27 21  1  0
  1 32  1  0
  1 33  1  0
  1 34  1  0
  3 35  1  0
  4 36  1  0
 10 37  1  0
 10 38  1  0
 11 39  1  0
 11 40  1  0
 12 41  1  0
 15 42  1  0
 16 43  1  0
 17 44  1  0
 17 45  1  0
 17 46  1  0
 20 47  1  0
 22 48  1  0
 23 49  1  0
 26 50  1  0
 27 51  1  0
 28 52  1  0
 28 53  1  0
 29 54  1  0
 29 55  1  0
 30 56  1  0
 31 57  1  0
M  END
$$$$
