
     RDKit          3D

 49 52  0  0  0  0  0  0  0  0999 V2000
    6.0743   -3.4563   -3.2327 C   0  0  0  0  0  0  0  0  0  0  0  0
    5.1279   -2.7278   -2.3252 C   0  0  0  0  0  0  0  0  0  0  0  0
    5.1666   -1.3316   -2.2337 C   0  0  0  0  0  0  0  0  0  0  0  0
    4.3074   -0.6547   -1.3641 C   0  0  0  0  0  0  0  0  0  0  0  0
    3.4030   -1.3660   -0.5698 C   0  0  0  0  0  0  0  0  0  0  0  0
    2.4996   -0.6726    0.3500 C   0  0  0  0  0  0  0  0  0  0  0  0
    1.4623    0.0775   -0.0498 C   0  0  0  0  0  0  0  0  0  0  0  0
    1.0059    0.3521   -1.4679 C   0  0  0  0  0  0  0  0  0  0  0  0
   -0.2813    1.1901   -1.3386 C   0  0  0  0  0  0  0  0  0  0  0  0
   -0.4299    1.3763    0.1335 C   0  0  0  0  0  0  0  0  0  0  0  0
    0.5371    0.7625    0.8099 C   0  0  0  0  0  0  0  0  0  0  0  0
    0.6398    0.6898    2.1907 O   0  0  0  0  0  0  0  0  0  0  0  0
   -0.2797    1.3747    2.9187 C   0  0  0  0  0  0  0  0  0  0  0  0
   -0.3942    1.0730    4.1721 N   0  0  0  0  0  0  0  0  0  0  0  0
   -1.0832    2.4803    2.2581 C   0  0  0  0  0  0  0  0  0  0  0  0
   -0.2805    3.7150    2.2939 C   0  0  0  0  0  0  0  0  0  0  0  0
    0.3188    4.7088    2.3095 N   0  0  0  0  0  0  0  0  0  0  0  0
   -1.5039    2.1522    0.8097 C   0  0  0  0  0  0  0  0  0  0  0  0
   -2.8535    1.4465    0.7668 C   0  0  0  0  0  0  0  0  0  0  0  0
   -3.9715    2.1210    0.2526 C   0  0  0  0  0  0  0  0  0  0  0  0
   -5.2260    1.5063    0.2220 C   0  0  0  0  0  0  0  0  0  0  0  0
   -5.3935    0.2091    0.7151 C   0  0  0  0  0  0  0  0  0  0  0  0
   -6.7326   -0.4635    0.6496 C   0  0  0  0  0  0  0  0  0  0  0  0
   -4.2810   -0.4740    1.2148 C   0  0  0  0  0  0  0  0  0  0  0  0
   -3.0254    0.1385    1.2465 C   0  0  0  0  0  0  0  0  0  0  0  0
    3.3767   -2.7612   -0.6432 C   0  0  0  0  0  0  0  0  0  0  0  0
    4.2358   -3.4380   -1.5133 C   0  0  0  0  0  0  0  0  0  0  0  0
    6.3111   -2.8531   -4.1154 H   0  0  0  0  0  0  0  0  0  0  0  0
    7.0027   -3.6841   -2.7000 H   0  0  0  0  0  0  0  0  0  0  0  0
    5.6313   -4.3923   -3.5888 H   0  0  0  0  0  0  0  0  0  0  0  0
    5.8684   -0.7604   -2.8371 H   0  0  0  0  0  0  0  0  0  0  0  0
    4.3551    0.4300   -1.3049 H   0  0  0  0  0  0  0  0  0  0  0  0
    2.7090   -0.8193    1.4073 H   0  0  0  0  0  0  0  0  0  0  0  0
    1.7634    0.9185   -2.0215 H   0  0  0  0  0  0  0  0  0  0  0  0
    0.8009   -0.5787   -2.0087 H   0  0  0  0  0  0  0  0  0  0  0  0
   -1.1382    0.6559   -1.7621 H   0  0  0  0  0  0  0  0  0  0  0  0
   -0.1759    2.1501   -1.8544 H   0  0  0  0  0  0  0  0  0  0  0  0
   -1.0920    1.6550    4.6444 H   0  0  0  0  0  0  0  0  0  0  0  0
   -1.9801    2.6552    2.8680 H   0  0  0  0  0  0  0  0  0  0  0  0
   -1.6095    3.0975    0.2569 H   0  0  0  0  0  0  0  0  0  0  0  0
   -3.8802    3.1337   -0.1357 H   0  0  0  0  0  0  0  0  0  0  0  0
   -6.0740    2.0488   -0.1911 H   0  0  0  0  0  0  0  0  0  0  0  0
   -6.8391   -0.9932   -0.3020 H   0  0  0  0  0  0  0  0  0  0  0  0
   -6.8502   -1.1801    1.4693 H   0  0  0  0  0  0  0  0  0  0  0  0
   -7.5422    0.2684    0.7402 H   0  0  0  0  0  0  0  0  0  0  0  0
   -4.3829   -1.4930    1.5831 H   0  0  0  0  0  0  0  0  0  0  0  0
   -2.1866   -0.4314    1.6422 H   0  0  0  0  0  0  0  0  0  0  0  0
    2.6871   -3.3310   -0.0249 H   0  0  0  0  0  0  0  0  0  0  0  0
    4.2034   -4.5245   -1.5519 H   0  0  0  0  0  0  0  0  0  0  0  0
  1  2  1  0
  2  3  2  0
  3  4  1  0
  4  5  2  0
  5  6  1  0
  6  7  2  3
  7  8  1  0
  8  9  1  0
  9 10  1  0
 10 11  2  0
 11 12  1  0
 12 13  1  0
 13 14  2  3
 13 15  1  0
 15 16  1  0
 16 17  3  0
 15 18  1  0
 18 19  1  0
 19 20  2  0
 20 21  1  0
 21 22  2  0
 22 23  1  0
 22 24  1  0
 24 25  2  0
  5 26  1  0
 26 27  2  0
 27  2  1  0
 11  7  1  0
 25 19  1  0
 18 10  1  0
  1 28  1  0
  1 29  1  0
  1 30  1  0
  3 31  1  0
  4 32  1  0
  6 33  1  0
  8 34  1  0
  8 35  1  0
  9 36  1  0
  9 37  1  0
 14 38  1  0
 15 39  1  0
 18 40  1  0
 20 41  1  0
 21 42  1  0
 23 43  1  0
 23 44  1  0
 23 45  1  0
 24 46  1  0
 25 47  1  0
 26 48  1  0
 27 49  1  0
M  END
$$$$
