
     RDKit          3D

 52 53  0  0  0  0  0  0  0  0999 V2000
   -7.4135   -0.9659   -0.8116 C   0  0  0  0  0  0  0  0  0  0  0  0
   -6.1150   -0.6006   -0.1050 C   0  0  0  0  0  0  0  0  0  0  0  0
   -4.9315   -0.3915   -1.0714 C   0  0  0  0  0  0  0  0  0  0  0  0
   -5.1382    0.8053   -2.0066 C   0  0  0  0  0  0  0  0  0  0  0  0
   -3.6262   -0.2541   -0.3020 C   0  0  0  0  0  0  0  0  0  0  0  0
   -2.6111   -1.2026   -0.4728 C   0  0  0  0  0  0  0  0  0  0  0  0
   -1.4032   -1.0882    0.2221 C   0  0  0  0  0  0  0  0  0  0  0  0
   -1.1729   -0.0247    1.1114 C   0  0  0  0  0  0  0  0  0  0  0  0
    0.1539    0.0504    1.8477 C   0  0  0  0  0  0  0  0  0  0  0  0
    0.2207    0.9511    3.0848 C   0  0  0  0  0  0  0  0  0  0  0  0
    1.2891    0.2447    0.9350 N   0  0  0  0  0  0  0  0  0  0  0  0
    1.6380    1.3322    0.1923 C   0  0  0  0  0  0  0  0  0  0  0  0
    0.8785    2.8151    0.1358 S   0  0  0  0  0  0  0  0  0  0  0  0
    2.7577    1.1932   -0.5762 N   0  0  0  0  0  0  0  0  0  0  0  0
    3.7822    0.1488   -0.5613 C   0  0  0  0  0  0  0  0  0  0  0  0
    4.6694    0.2716    0.6847 C   0  0  0  0  0  0  0  0  0  0  0  0
    5.7921   -0.7629    0.6817 C   0  0  0  0  0  0  0  0  0  0  0  0
    6.6206   -0.6932   -0.5974 C   0  0  0  0  0  0  0  0  0  0  0  0
    5.7450   -0.8133   -1.8409 C   0  0  0  0  0  0  0  0  0  0  0  0
    4.6252    0.2238   -1.8410 C   0  0  0  0  0  0  0  0  0  0  0  0
   -2.1913    0.9224    1.2772 C   0  0  0  0  0  0  0  0  0  0  0  0
   -3.4000    0.8096    0.5811 C   0  0  0  0  0  0  0  0  0  0  0  0
   -7.2815   -1.8477   -1.4463 H   0  0  0  0  0  0  0  0  0  0  0  0
   -8.1900   -1.1934   -0.0741 H   0  0  0  0  0  0  0  0  0  0  0  0
   -7.7786   -0.1422   -1.4318 H   0  0  0  0  0  0  0  0  0  0  0  0
   -6.2838    0.2982    0.5008 H   0  0  0  0  0  0  0  0  0  0  0  0
   -5.8708   -1.4078    0.5979 H   0  0  0  0  0  0  0  0  0  0  0  0
   -4.8599   -1.2849   -1.7067 H   0  0  0  0  0  0  0  0  0  0  0  0
   -5.3305    1.7289   -1.4499 H   0  0  0  0  0  0  0  0  0  0  0  0
   -4.2533    0.9710   -2.6318 H   0  0  0  0  0  0  0  0  0  0  0  0
   -5.9852    0.6383   -2.6794 H   0  0  0  0  0  0  0  0  0  0  0  0
   -2.7483   -2.0393   -1.1539 H   0  0  0  0  0  0  0  0  0  0  0  0
   -0.6348   -1.8404    0.0600 H   0  0  0  0  0  0  0  0  0  0  0  0
    0.3147   -0.9623    2.2470 H   0  0  0  0  0  0  0  0  0  0  0  0
   -0.5384    0.6561    3.8182 H   0  0  0  0  0  0  0  0  0  0  0  0
    1.2015    0.8672    3.5665 H   0  0  0  0  0  0  0  0  0  0  0  0
    0.0605    2.0079    2.8589 H   0  0  0  0  0  0  0  0  0  0  0  0
    1.7160   -0.6179    0.6448 H   0  0  0  0  0  0  0  0  0  0  0  0
    3.0060    2.0610   -1.0405 H   0  0  0  0  0  0  0  0  0  0  0  0
    3.2775   -0.8239   -0.5450 H   0  0  0  0  0  0  0  0  0  0  0  0
    4.0701    0.1504    1.5946 H   0  0  0  0  0  0  0  0  0  0  0  0
    5.1030    1.2791    0.7332 H   0  0  0  0  0  0  0  0  0  0  0  0
    6.4414   -0.6040    1.5501 H   0  0  0  0  0  0  0  0  0  0  0  0
    5.3620   -1.7668    0.7839 H   0  0  0  0  0  0  0  0  0  0  0  0
    7.1668    0.2577   -0.6265 H   0  0  0  0  0  0  0  0  0  0  0  0
    7.3703   -1.4923   -0.5954 H   0  0  0  0  0  0  0  0  0  0  0  0
    5.3104   -1.8195   -1.8862 H   0  0  0  0  0  0  0  0  0  0  0  0
    6.3611   -0.6907   -2.7387 H   0  0  0  0  0  0  0  0  0  0  0  0
    5.0604    1.2266   -1.9446 H   0  0  0  0  0  0  0  0  0  0  0  0
    3.9852    0.0721   -2.7188 H   0  0  0  0  0  0  0  0  0  0  0  0
   -2.0598    1.7758    1.9376 H   0  0  0  0  0  0  0  0  0  0  0  0
   -4.1611    1.5716    0.7330 H   0  0  0  0  0  0  0  0  0  0  0  0
  1  2  1  0
  2  3  1  0
  3  4  1  0
  3  5  1  0
  5  6  2  0
  6  7  1  0
  7  8  2  0
  8  9  1  0
  9 10  1  0
  9 11  1  0
 11 12  1  0
 12 13  2  0
 12 14  1  0
 14 15  1  0
 15 16  1  0
 16 17  1  0
 17 18  1  0
 18 19  1  0
 19 20  1  0
  8 21  1  0
 21 22  2  0
 22  5  1  0
 20 15  1  0
  1 23  1  0
  1 24  1  0
  1 25  1  0
  2 26  1  0
  2 27  1  0
  3 28  1  0
  4 29  1  0
  4 30  1  0
  4 31  1  0
  6 32  1  0
  7 33  1  0
  9 34  1  0
 10 35  1  0
 10 36  1  0
 10 37  1  0
 11 38  1  0
 14 39  1  0
 15 40  1  0
 16 41  1  0
 16 42  1  0
 17 43  1  0
 17 44  1  0
 18 45  1  0
 18 46  1  0
 19 47  1  0
 19 48  1  0
 20 49  1  0
 20 50  1  0
 21 51  1  0
 22 52  1  0
M  END
$$$$
