
     RDKit          3D

 47 49  0  0  0  0  0  0  0  0999 V2000
   -6.0360   -3.1893   -1.4634 C   0  0  0  0  0  0  0  0  0  0  0  0
   -5.2404   -2.3638   -0.4683 C   0  0  0  0  0  0  0  0  0  0  0  0
   -4.6324   -1.2855   -1.1777 O   0  0  0  0  0  0  0  0  0  0  0  0
   -3.8633   -0.4165   -0.4550 C   0  0  0  0  0  0  0  0  0  0  0  0
   -3.6132   -0.4861    0.9171 C   0  0  0  0  0  0  0  0  0  0  0  0
   -2.8014    0.4720    1.5337 C   0  0  0  0  0  0  0  0  0  0  0  0
   -2.2251    1.4908    0.7697 C   0  0  0  0  0  0  0  0  0  0  0  0
   -1.2090    2.7237    1.5581 S   0  0  0  0  0  6  0  0  0  0  0  0
   -1.2553    3.9154    0.7377 O   0  0  0  0  0  0  0  0  0  0  0  0
   -1.5765    2.7606    2.9577 O   0  0  0  0  0  0  0  0  0  0  0  0
    0.3516    2.0749    1.4441 N   0  0  0  0  0  0  0  0  0  0  0  0
    0.9989    2.0960    0.1046 C   0  0  0  0  0  0  0  0  0  0  0  0
    2.3871    1.4393    0.1466 C   0  0  0  0  0  0  0  0  0  0  0  0
    2.3301    0.0509    0.6281 N   0  0  0  0  0  0  0  0  0  0  0  0
    3.1257   -0.9879    0.1577 C   0  0  0  0  0  0  0  0  0  0  0  0
    2.8623   -2.1724    0.3490 O   0  0  0  0  0  0  0  0  0  0  0  0
    4.3482   -0.6688   -0.6094 C   0  0  0  0  0  0  0  0  0  0  0  0
    5.3076    0.2039   -0.0995 C   0  0  0  0  0  0  0  0  0  0  0  0
    6.4329    0.4348   -0.8675 C   0  0  0  0  0  0  0  0  0  0  0  0
    6.6504   -0.1422   -2.0694 N   0  0  0  0  0  0  0  0  0  0  0  0
    5.7161   -1.0099   -2.5177 C   0  0  0  0  0  0  0  0  0  0  0  0
    4.5576   -1.3098   -1.8282 C   0  0  0  0  0  0  0  0  0  0  0  0
    1.1848   -0.2929    1.4733 C   0  0  0  0  0  0  0  0  0  0  0  0
    0.6842    0.8981    2.2972 C   0  0  0  0  0  0  0  0  0  0  0  0
   -2.4950    1.5863   -0.5967 C   0  0  0  0  0  0  0  0  0  0  0  0
   -3.3055    0.6253   -1.2036 C   0  0  0  0  0  0  0  0  0  0  0  0
   -5.3835   -3.5734   -2.2546 H   0  0  0  0  0  0  0  0  0  0  0  0
   -6.5245   -4.0329   -0.9679 H   0  0  0  0  0  0  0  0  0  0  0  0
   -6.8000   -2.5745   -1.9507 H   0  0  0  0  0  0  0  0  0  0  0  0
   -4.4730   -2.9981   -0.0098 H   0  0  0  0  0  0  0  0  0  0  0  0
   -5.9196   -1.9780    0.3006 H   0  0  0  0  0  0  0  0  0  0  0  0
   -4.0419   -1.2670    1.5371 H   0  0  0  0  0  0  0  0  0  0  0  0
   -2.6343    0.4194    2.6074 H   0  0  0  0  0  0  0  0  0  0  0  0
    1.1109    3.1336   -0.2267 H   0  0  0  0  0  0  0  0  0  0  0  0
    0.3757    1.5616   -0.6195 H   0  0  0  0  0  0  0  0  0  0  0  0
    3.0362    1.9888    0.8380 H   0  0  0  0  0  0  0  0  0  0  0  0
    2.8352    1.4748   -0.8509 H   0  0  0  0  0  0  0  0  0  0  0  0
    5.1940    0.6745    0.8698 H   0  0  0  0  0  0  0  0  0  0  0  0
    7.2184    1.1043   -0.5277 H   0  0  0  0  0  0  0  0  0  0  0  0
    5.9358   -1.4737   -3.4754 H   0  0  0  0  0  0  0  0  0  0  0  0
    3.8416   -2.0228   -2.2219 H   0  0  0  0  0  0  0  0  0  0  0  0
    0.3914   -0.6552    0.8080 H   0  0  0  0  0  0  0  0  0  0  0  0
    1.4591   -1.1190    2.1390 H   0  0  0  0  0  0  0  0  0  0  0  0
    1.4659    1.2184    2.9969 H   0  0  0  0  0  0  0  0  0  0  0  0
   -0.1697    0.5821    2.9025 H   0  0  0  0  0  0  0  0  0  0  0  0
   -2.0878    2.3995   -1.1930 H   0  0  0  0  0  0  0  0  0  0  0  0
   -3.5143    0.6910   -2.2694 H   0  0  0  0  0  0  0  0  0  0  0  0
  1  2  1  0
  2  3  1  0
  3  4  1  0
  4  5  2  0
  5  6  1  0
  6  7  2  0
  7  8  1  0
  8  9  2  0
  8 10  2  0
  8 11  1  0
 11 12  1  0
 12 13  1  0
 13 14  1  0
 14 15  1  0
 15 16  2  0
 15 17  1  0
 17 18  2  0
 18 19  1  0
 19 20  2  0
 20 21  1  0
 21 22  2  0
 14 23  1  0
 23 24  1  0
  7 25  1  0
 25 26  2  0
 26  4  1  0
 24 11  1  0
 22 17  1  0
  1 27  1  0
  1 28  1  0
  1 29  1  0
  2 30  1  0
  2 31  1  0
  5 32  1  0
  6 33  1  0
 12 34  1  0
 12 35  1  0
 13 36  1  0
 13 37  1  0
 18 38  1  0
 19 39  1  0
 21 40  1  0
 22 41  1  0
 23 42  1  0
 23 43  1  0
 24 44  1  0
 24 45  1  0
 25 46  1  0
 26 47  1  0
M  END
$$$$
