
     RDKit          3D

 36 38  0  0  0  0  0  0  0  0999 V2000
    5.8481   -0.6491    0.7419 C   0  0  0  0  0  0  0  0  0  0  0  0
    4.4370   -0.4487    0.2710 C   0  0  0  0  0  0  0  0  0  0  0  0
    3.6274   -1.5543   -0.0261 C   0  0  0  0  0  0  0  0  0  0  0  0
    2.3257   -1.3733   -0.4964 C   0  0  0  0  0  0  0  0  0  0  0  0
    1.8359   -0.0781   -0.6743 C   0  0  0  0  0  0  0  0  0  0  0  0
    0.1853    0.1785   -1.2673 S   0  0  0  0  0  6  0  0  0  0  0  0
    0.2579    1.1118   -2.3696 O   0  0  0  0  0  0  0  0  0  0  0  0
   -0.4642   -1.1061   -1.4160 O   0  0  0  0  0  0  0  0  0  0  0  0
   -0.5673    0.9731    0.0441 N   0  0  0  0  0  0  0  0  0  0  0  0
   -0.7786    0.1055    1.2467 C   0  0  0  0  0  0  0  0  0  0  0  0
   -2.1141   -0.6299    1.3667 C   0  0  0  0  0  0  0  0  0  0  0  0
   -2.3060   -1.4443    2.2710 O   0  0  0  0  0  0  0  0  0  0  0  0
   -3.1145   -0.2615    0.5041 N   0  0  0  0  0  0  0  0  0  0  0  0
   -4.5028   -0.5769    0.6983 C   0  0  0  0  0  0  0  0  0  0  0  0
   -5.1796    0.2038   -0.4115 C   0  0  0  0  0  0  0  0  0  0  0  0
   -4.2458    1.2584   -0.7355 O   0  0  0  0  0  0  0  0  0  0  0  0
   -2.9519    0.6575   -0.5892 C   0  0  0  0  0  0  0  0  0  0  0  0
   -1.8422    1.6777   -0.3249 C   0  0  0  0  0  0  0  0  0  0  0  0
    2.6371    1.0339   -0.4039 C   0  0  0  0  0  0  0  0  0  0  0  0
    3.9375    0.8450    0.0653 C   0  0  0  0  0  0  0  0  0  0  0  0
    5.9378   -1.5719    1.3246 H   0  0  0  0  0  0  0  0  0  0  0  0
    6.5244   -0.7050   -0.1166 H   0  0  0  0  0  0  0  0  0  0  0  0
    6.1644    0.1755    1.3894 H   0  0  0  0  0  0  0  0  0  0  0  0
    4.0096   -2.5648    0.1058 H   0  0  0  0  0  0  0  0  0  0  0  0
    1.7102   -2.2413   -0.7219 H   0  0  0  0  0  0  0  0  0  0  0  0
    0.0219   -0.6349    1.3384 H   0  0  0  0  0  0  0  0  0  0  0  0
   -0.6980    0.7598    2.1240 H   0  0  0  0  0  0  0  0  0  0  0  0
   -4.6799   -1.6545    0.6455 H   0  0  0  0  0  0  0  0  0  0  0  0
   -4.8025   -0.2133    1.6869 H   0  0  0  0  0  0  0  0  0  0  0  0
   -6.1404    0.6306   -0.1124 H   0  0  0  0  0  0  0  0  0  0  0  0
   -5.3234   -0.4112   -1.3070 H   0  0  0  0  0  0  0  0  0  0  0  0
   -2.7503    0.0768   -1.4964 H   0  0  0  0  0  0  0  0  0  0  0  0
   -2.1223    2.3408    0.5040 H   0  0  0  0  0  0  0  0  0  0  0  0
   -1.6956    2.3366   -1.1869 H   0  0  0  0  0  0  0  0  0  0  0  0
    2.2571    2.0409   -0.5615 H   0  0  0  0  0  0  0  0  0  0  0  0
    4.5621    1.7130    0.2673 H   0  0  0  0  0  0  0  0  0  0  0  0
  1  2  1  0
  2  3  2  0
  3  4  1  0
  4  5  2  0
  5  6  1  0
  6  7  2  0
  6  8  2  0
  6  9  1  0
  9 10  1  0
 10 11  1  0
 11 12  2  0
 11 13  1  0
 13 14  1  0
 14 15  1  0
 15 16  1  0
 16 17  1  0
 17 18  1  0
  5 19  1  0
 19 20  2  0
 20  2  1  0
 18  9  1  0
 17 13  1  0
  1 21  1  0
  1 22  1  0
  1 23  1  0
  3 24  1  0
  4 25  1  0
 10 26  1  0
 10 27  1  0
 14 28  1  0
 14 29  1  0
 15 30  1  0
 15 31  1  0
 17 32  1  0
 18 33  1  0
 18 34  1  0
 19 35  1  0
 20 36  1  0
M  END
$$$$
