
     RDKit          3D

 44 46  0  0  0  0  0  0  0  0999 V2000
    7.5008    0.7176    0.3158 C   0  0  0  0  0  0  0  0  0  0  0  0
    6.2791    0.0368    0.0610 O   0  0  0  0  0  0  0  0  0  0  0  0
    5.3131    0.8949   -0.5405 C   0  0  0  0  0  0  0  0  0  0  0  0
    4.0368    0.1077   -0.8086 C   0  0  0  0  0  0  0  0  0  0  0  0
    3.4336   -0.4511    0.4844 C   0  0  0  0  0  0  0  0  0  0  0  0
    2.1071   -1.0480    0.2516 N   0  0  0  0  0  0  0  0  0  0  0  0
    1.9504   -2.4032   -0.0361 C   0  0  0  0  0  0  0  0  0  0  0  0
    3.1557   -3.5644   -0.1553 S   0  0  0  0  0  0  0  0  0  0  0  0
    0.6720   -2.8468   -0.2445 N   0  0  0  0  0  0  0  0  0  0  0  0
   -0.4549   -2.0328   -0.1941 C   0  0  0  0  0  0  0  0  0  0  0  0
   -1.7164   -2.5719   -0.4129 C   0  0  0  0  0  0  0  0  0  0  0  0
   -2.8394   -1.7379   -0.3617 C   0  0  0  0  0  0  0  0  0  0  0  0
   -2.7354   -0.3614   -0.0867 C   0  0  0  0  0  0  0  0  0  0  0  0
   -3.8962    0.4265   -0.0652 N   0  0  0  0  0  0  0  0  0  0  0  0
   -3.7418    1.8994   -0.1015 C   0  0  0  0  0  0  0  0  0  0  0  0
   -5.1133    2.5653   -0.2941 C   0  0  0  0  0  0  0  0  0  0  0  0
   -6.0303    2.1834    0.7439 O   0  0  0  0  0  0  0  0  0  0  0  0
   -6.2177    0.7598    0.7326 C   0  0  0  0  0  0  0  0  0  0  0  0
   -4.8938    0.0085    0.9530 C   0  0  0  0  0  0  0  0  0  0  0  0
   -1.4464    0.1524    0.1128 C   0  0  0  0  0  0  0  0  0  0  0  0
   -0.3179   -0.6807    0.0647 C   0  0  0  0  0  0  0  0  0  0  0  0
    1.0358   -0.1392    0.2816 C   0  0  0  0  0  0  0  0  0  0  0  0
    1.1660    1.0705    0.4649 O   0  0  0  0  0  0  0  0  0  0  0  0
    7.3381    1.5503    1.0068 H   0  0  0  0  0  0  0  0  0  0  0  0
    8.1982    0.0126    0.7761 H   0  0  0  0  0  0  0  0  0  0  0  0
    7.9381    1.0824   -0.6186 H   0  0  0  0  0  0  0  0  0  0  0  0
    5.1050    1.7408    0.1251 H   0  0  0  0  0  0  0  0  0  0  0  0
    5.7077    1.2816   -1.4871 H   0  0  0  0  0  0  0  0  0  0  0  0
    3.3165    0.7598   -1.3157 H   0  0  0  0  0  0  0  0  0  0  0  0
    4.2544   -0.7219   -1.4915 H   0  0  0  0  0  0  0  0  0  0  0  0
    3.3301    0.3565    1.2200 H   0  0  0  0  0  0  0  0  0  0  0  0
    4.1058   -1.1850    0.9388 H   0  0  0  0  0  0  0  0  0  0  0  0
    0.5683   -3.8352   -0.4461 H   0  0  0  0  0  0  0  0  0  0  0  0
   -1.8480   -3.6272   -0.6332 H   0  0  0  0  0  0  0  0  0  0  0  0
   -3.8140   -2.1734   -0.5725 H   0  0  0  0  0  0  0  0  0  0  0  0
   -3.0899    2.2001   -0.9299 H   0  0  0  0  0  0  0  0  0  0  0  0
   -3.3079    2.2484    0.8441 H   0  0  0  0  0  0  0  0  0  0  0  0
   -5.0059    3.6539   -0.2568 H   0  0  0  0  0  0  0  0  0  0  0  0
   -5.5463    2.3043   -1.2672 H   0  0  0  0  0  0  0  0  0  0  0  0
   -6.6795    0.4694   -0.2187 H   0  0  0  0  0  0  0  0  0  0  0  0
   -6.9213    0.5126    1.5338 H   0  0  0  0  0  0  0  0  0  0  0  0
   -5.1014   -1.0658    0.9118 H   0  0  0  0  0  0  0  0  0  0  0  0
   -4.5030    0.2442    1.9513 H   0  0  0  0  0  0  0  0  0  0  0  0
   -1.2917    1.2064    0.3252 H   0  0  0  0  0  0  0  0  0  0  0  0
  1  2  1  0
  2  3  1  0
  3  4  1  0
  4  5  1  0
  5  6  1  0
  6  7  1  0
  7  8  2  0
  7  9  1  0
  9 10  1  0
 10 11  2  0
 11 12  1  0
 12 13  2  0
 13 14  1  0
 14 15  1  0
 15 16  1  0
 16 17  1  0
 17 18  1  0
 18 19  1  0
 13 20  1  0
 20 21  2  0
 21 22  1  0
 22 23  2  0
 22  6  1  0
 21 10  1  0
 19 14  1  0
  1 24  1  0
  1 25  1  0
  1 26  1  0
  3 27  1  0
  3 28  1  0
  4 29  1  0
  4 30  1  0
  5 31  1  0
  5 32  1  0
  9 33  1  0
 11 34  1  0
 12 35  1  0
 15 36  1  0
 15 37  1  0
 16 38  1  0
 16 39  1  0
 18 40  1  0
 18 41  1  0
 19 42  1  0
 19 43  1  0
 20 44  1  0
M  END
$$$$
