
     RDKit          3D

 44 47  0  0  0  0  0  0  0  0999 V2000
    7.7137   -1.7074   -0.6734 C   0  0  0  0  0  0  0  0  0  0  0  0
    7.4563   -0.2479   -0.3423 C   0  0  0  0  0  0  0  0  0  0  0  0
    6.5682   -0.1320    0.7668 O   0  0  0  0  0  0  0  0  0  0  0  0
    5.2188   -0.0474    0.5549 C   0  0  0  0  0  0  0  0  0  0  0  0
    4.5910   -0.2417   -0.6797 C   0  0  0  0  0  0  0  0  0  0  0  0
    3.1990   -0.1381   -0.7955 C   0  0  0  0  0  0  0  0  0  0  0  0
    2.4198    0.1647    0.3267 C   0  0  0  0  0  0  0  0  0  0  0  0
    0.9373    0.2749    0.2430 C   0  0  0  0  0  0  0  0  0  0  0  0
    0.2761   -0.1284    1.1904 O   0  0  0  0  0  0  0  0  0  0  0  0
    0.4638    0.8719   -0.9108 N   0  0  0  0  0  0  0  0  0  0  0  0
   -0.8842    1.0685   -1.2819 C   0  0  0  0  0  0  0  0  0  0  0  0
   -1.1182    1.7964   -2.4552 C   0  0  0  0  0  0  0  0  0  0  0  0
   -2.4190    2.0335   -2.8977 C   0  0  0  0  0  0  0  0  0  0  0  0
   -3.4997    1.5391   -2.1701 C   0  0  0  0  0  0  0  0  0  0  0  0
   -3.2949    0.8012   -0.9950 C   0  0  0  0  0  0  0  0  0  0  0  0
   -4.4540    0.2929   -0.2612 C   0  0  0  0  0  0  0  0  0  0  0  0
   -5.7384    0.4489   -0.5425 N   0  0  0  0  0  0  0  0  0  0  0  0
   -6.3677   -0.2316    0.4664 C   0  0  0  0  0  0  0  0  0  0  0  0
   -7.7221   -0.4438    0.7431 C   0  0  0  0  0  0  0  0  0  0  0  0
   -8.0236   -1.2015    1.8781 C   0  0  0  0  0  0  0  0  0  0  0  0
   -6.9848   -1.6991    2.6625 C   0  0  0  0  0  0  0  0  0  0  0  0
   -5.6625   -1.5204    2.4340 N   0  0  0  0  0  0  0  0  0  0  0  0
   -5.4311   -0.7844    1.3319 C   0  0  0  0  0  0  0  0  0  0  0  0
   -4.1967   -0.4476    0.8636 O   0  0  0  0  0  0  0  0  0  0  0  0
   -1.9763    0.5725   -0.5617 C   0  0  0  0  0  0  0  0  0  0  0  0
    3.0330    0.3335    1.5702 C   0  0  0  0  0  0  0  0  0  0  0  0
    4.4219    0.2321    1.6799 C   0  0  0  0  0  0  0  0  0  0  0  0
    5.1259    0.4688    3.2430 Cl  0  0  0  0  0  0  0  0  0  0  0  0
    6.7953   -2.2171   -0.9791 H   0  0  0  0  0  0  0  0  0  0  0  0
    8.4471   -1.7972   -1.4798 H   0  0  0  0  0  0  0  0  0  0  0  0
    8.0920   -2.2383    0.2065 H   0  0  0  0  0  0  0  0  0  0  0  0
    8.4031    0.2069   -0.0293 H   0  0  0  0  0  0  0  0  0  0  0  0
    7.1219    0.3271   -1.2127 H   0  0  0  0  0  0  0  0  0  0  0  0
    5.1524   -0.4976   -1.5725 H   0  0  0  0  0  0  0  0  0  0  0  0
    2.7372   -0.3327   -1.7607 H   0  0  0  0  0  0  0  0  0  0  0  0
    1.1502    1.2831   -1.5294 H   0  0  0  0  0  0  0  0  0  0  0  0
   -0.2926    2.1940   -3.0398 H   0  0  0  0  0  0  0  0  0  0  0  0
   -2.5924    2.6030   -3.8073 H   0  0  0  0  0  0  0  0  0  0  0  0
   -4.5119    1.7300   -2.5244 H   0  0  0  0  0  0  0  0  0  0  0  0
   -8.4949   -0.0362    0.1029 H   0  0  0  0  0  0  0  0  0  0  0  0
   -9.0559   -1.4016    2.1479 H   0  0  0  0  0  0  0  0  0  0  0  0
   -7.2091   -2.2904    3.5487 H   0  0  0  0  0  0  0  0  0  0  0  0
   -1.8214   -0.0045    0.3459 H   0  0  0  0  0  0  0  0  0  0  0  0
    2.4278    0.5441    2.4499 H   0  0  0  0  0  0  0  0  0  0  0  0
  1  2  1  0
  2  3  1  0
  3  4  1  0
  4  5  2  0
  5  6  1  0
  6  7  2  0
  7  8  1  0
  8  9  2  0
  8 10  1  0
 10 11  1  0
 11 12  2  0
 12 13  1  0
 13 14  2  0
 14 15  1  0
 15 16  1  0
 16 17  2  0
 17 18  1  0
 18 19  2  0
 19 20  1  0
 20 21  2  0
 21 22  1  0
 22 23  2  0
 23 24  1  0
 15 25  2  0
  7 26  1  0
 26 27  2  0
 27 28  1  0
 27  4  1  0
 25 11  1  0
 24 16  1  0
 23 18  1  0
  1 29  1  0
  1 30  1  0
  1 31  1  0
  2 32  1  0
  2 33  1  0
  5 34  1  0
  6 35  1  0
 10 36  1  0
 12 37  1  0
 13 38  1  0
 14 39  1  0
 19 40  1  0
 20 41  1  0
 21 42  1  0
 25 43  1  0
 26 44  1  0
M  END
$$$$
