
     RDKit          3D

 41 42  0  0  0  0  0  0  0  0999 V2000
   -0.0488    0.8513    2.0310 O   0  0  0  0  0  0  0  0  0  0  0  0
   -0.4573    0.2771    0.7733 C   0  0  0  0  0  0  0  0  0  0  0  0
    0.3889    0.8831   -0.3610 C   0  0  0  0  0  0  0  0  0  0  0  0
    1.7220    0.3524   -0.4081 O   0  0  0  0  0  0  0  0  0  0  0  0
    2.5490    0.7929    0.6673 C   0  0  0  0  0  0  0  0  0  0  0  0
    4.0017    0.5850    0.3027 C   0  0  0  0  0  0  0  0  0  0  0  0
    4.9104    0.1045    1.2589 C   0  0  0  0  0  0  0  0  0  0  0  0
    6.2612   -0.0551    0.9385 C   0  0  0  0  0  0  0  0  0  0  0  0
    6.7136    0.2749   -0.3371 C   0  0  0  0  0  0  0  0  0  0  0  0
    8.3781    0.0808   -0.7298 Cl  0  0  0  0  0  0  0  0  0  0  0  0
    5.8287    0.7648   -1.2940 C   0  0  0  0  0  0  0  0  0  0  0  0
    4.4782    0.9229   -0.9732 C   0  0  0  0  0  0  0  0  0  0  0  0
   -1.9670    0.5630    0.5870 C   0  0  0  0  0  0  0  0  0  0  0  0
   -2.5725    0.0303   -0.6445 N   0  0  0  0  0  0  0  0  0  0  0  0
   -2.5898   -1.4391   -0.7190 C   0  0  0  0  0  0  0  0  0  0  0  0
   -3.5981   -2.0973    0.2254 C   0  0  0  0  0  0  0  0  0  0  0  0
   -4.9999   -1.5317    0.0138 C   0  0  0  0  0  0  0  0  0  0  0  0
   -4.9887   -0.0081    0.0635 C   0  0  0  0  0  0  0  0  0  0  0  0
   -3.9238    0.5705   -0.8707 C   0  0  0  0  0  0  0  0  0  0  0  0
   -0.5145    0.3612    2.7319 H   0  0  0  0  0  0  0  0  0  0  0  0
   -0.2591   -0.7978    0.8492 H   0  0  0  0  0  0  0  0  0  0  0  0
    0.4391    1.9758   -0.2823 H   0  0  0  0  0  0  0  0  0  0  0  0
   -0.0518    0.6401   -1.3325 H   0  0  0  0  0  0  0  0  0  0  0  0
    2.3071    0.2041    1.5578 H   0  0  0  0  0  0  0  0  0  0  0  0
    2.3936    1.8574    0.8762 H   0  0  0  0  0  0  0  0  0  0  0  0
    4.5701   -0.1514    2.2601 H   0  0  0  0  0  0  0  0  0  0  0  0
    6.9519   -0.4349    1.6865 H   0  0  0  0  0  0  0  0  0  0  0  0
    6.1790    1.0249   -2.2886 H   0  0  0  0  0  0  0  0  0  0  0  0
    3.7895    1.3048   -1.7256 H   0  0  0  0  0  0  0  0  0  0  0  0
   -2.5011    0.2138    1.4796 H   0  0  0  0  0  0  0  0  0  0  0  0
   -2.0846    1.6563    0.5992 H   0  0  0  0  0  0  0  0  0  0  0  0
   -1.5921   -1.8554   -0.5439 H   0  0  0  0  0  0  0  0  0  0  0  0
   -2.8368   -1.7245   -1.7508 H   0  0  0  0  0  0  0  0  0  0  0  0
   -3.2926   -1.9506    1.2695 H   0  0  0  0  0  0  0  0  0  0  0  0
   -3.6108   -3.1802    0.0510 H   0  0  0  0  0  0  0  0  0  0  0  0
   -5.3806   -1.8590   -0.9621 H   0  0  0  0  0  0  0  0  0  0  0  0
   -5.6829   -1.9275    0.7725 H   0  0  0  0  0  0  0  0  0  0  0  0
   -4.8082    0.3244    1.0925 H   0  0  0  0  0  0  0  0  0  0  0  0
   -5.9753    0.3743   -0.2222 H   0  0  0  0  0  0  0  0  0  0  0  0
   -3.9153    1.6639   -0.7912 H   0  0  0  0  0  0  0  0  0  0  0  0
   -4.2102    0.3583   -1.9091 H   0  0  0  0  0  0  0  0  0  0  0  0
  1  2  1  0
  2  3  1  0
  3  4  1  0
  4  5  1  0
  5  6  1  0
  6  7  2  0
  7  8  1  0
  8  9  2  0
  9 10  1  0
  9 11  1  0
 11 12  2  0
  2 13  1  0
 13 14  1  0
 14 15  1  0
 15 16  1  0
 16 17  1  0
 17 18  1  0
 18 19  1  0
 12  6  1  0
 19 14  1  0
  1 20  1  0
  2 21  1  0
  3 22  1  0
  3 23  1  0
  5 24  1  0
  5 25  1  0
  7 26  1  0
  8 27  1  0
 11 28  1  0
 12 29  1  0
 13 30  1  0
 13 31  1  0
 15 32  1  0
 15 33  1  0
 16 34  1  0
 16 35  1  0
 17 36  1  0
 17 37  1  0
 18 38  1  0
 18 39  1  0
 19 40  1  0
 19 41  1  0
M  END
$$$$
