
     RDKit          3D

 37 39  0  0  0  0  0  0  0  0999 V2000
   -1.3325    2.4234   -1.6917 O   0  0  0  0  0  0  0  0  0  0  0  0
   -0.7928    1.4382   -1.2005 C   0  0  0  0  0  0  0  0  0  0  0  0
    0.7152    1.3932   -1.0350 C   0  0  0  0  0  0  0  0  0  0  0  0
    1.1043    1.9210    0.3473 C   0  0  0  0  0  0  0  0  0  0  0  0
    2.8656    2.4042    0.3638 S   0  0  0  0  0  0  0  0  0  0  0  0
    3.6100    0.7910    0.4726 C   0  0  0  0  0  0  0  0  0  0  0  0
    4.9189    0.6251    0.0061 C   0  0  0  0  0  0  0  0  0  0  0  0
    5.5623   -0.6075    0.1301 C   0  0  0  0  0  0  0  0  0  0  0  0
    4.9067   -1.6772    0.7352 C   0  0  0  0  0  0  0  0  0  0  0  0
    3.6055   -1.5175    1.2134 C   0  0  0  0  0  0  0  0  0  0  0  0
    2.9511   -0.2894    1.0732 C   0  0  0  0  0  0  0  0  0  0  0  0
    1.6515   -0.1774    1.5860 N   0  0  0  0  0  0  0  0  0  0  0  0
    0.8036    0.8811    1.4197 C   0  0  0  0  0  0  0  0  0  0  0  0
   -0.2656    0.8867    2.0345 O   0  0  0  0  0  0  0  0  0  0  0  0
   -1.4213    0.3063   -0.7197 N   0  0  0  0  0  0  0  0  0  0  0  0
   -2.8104    0.0277   -0.6421 C   0  0  0  0  0  0  0  0  0  0  0  0
   -3.7591    0.8612   -1.2496 C   0  0  0  0  0  0  0  0  0  0  0  0
   -5.1292    0.5824   -1.1721 C   0  0  0  0  0  0  0  0  0  0  0  0
   -5.5842   -0.5372   -0.4846 C   0  0  0  0  0  0  0  0  0  0  0  0
   -4.6682   -1.3857    0.1307 C   0  0  0  0  0  0  0  0  0  0  0  0
   -3.2891   -1.1082    0.0543 C   0  0  0  0  0  0  0  0  0  0  0  0
   -2.3761   -2.0392    0.7388 N   0  0  0  0  0  4  0  0  0  0  0  0
   -2.8631   -2.8364    1.5535 O   0  0  0  0  0  0  0  0  0  0  0  0
   -1.1665   -1.9917    0.4558 O   0  0  0  0  0  1  0  0  0  0  0  0
    1.1354    2.0141   -1.8368 H   0  0  0  0  0  0  0  0  0  0  0  0
    1.0655    0.3690   -1.2119 H   0  0  0  0  0  0  0  0  0  0  0  0
    0.5338    2.8245    0.5915 H   0  0  0  0  0  0  0  0  0  0  0  0
    5.4515    1.4570   -0.4501 H   0  0  0  0  0  0  0  0  0  0  0  0
    6.5792   -0.7280   -0.2360 H   0  0  0  0  0  0  0  0  0  0  0  0
    5.4110   -2.6350    0.8395 H   0  0  0  0  0  0  0  0  0  0  0  0
    3.1108   -2.3624    1.6860 H   0  0  0  0  0  0  0  0  0  0  0  0
    1.2969   -0.9135    2.1865 H   0  0  0  0  0  0  0  0  0  0  0  0
   -0.8219   -0.3959   -0.2857 H   0  0  0  0  0  0  0  0  0  0  0  0
   -3.4673    1.7469   -1.8072 H   0  0  0  0  0  0  0  0  0  0  0  0
   -5.8398    1.2510   -1.6544 H   0  0  0  0  0  0  0  0  0  0  0  0
   -6.6501   -0.7456   -0.4263 H   0  0  0  0  0  0  0  0  0  0  0  0
   -5.0419   -2.2560    0.6674 H   0  0  0  0  0  0  0  0  0  0  0  0
  1  2  2  0
  2  3  1  0
  3  4  1  0
  4  5  1  0
  5  6  1  0
  6  7  2  0
  7  8  1  0
  8  9  2  0
  9 10  1  0
 10 11  2  0
 11 12  1  0
 12 13  1  0
 13 14  2  0
  2 15  1  0
 15 16  1  0
 16 17  2  0
 17 18  1  0
 18 19  2  0
 19 20  1  0
 20 21  2  0
 21 22  1  0
 22 23  2  0
 22 24  1  0
 13  4  1  0
 21 16  1  0
 11  6  1  0
  3 25  1  0
  3 26  1  0
  4 27  1  0
  7 28  1  0
  8 29  1  0
  9 30  1  0
 10 31  1  0
 12 32  1  0
 15 33  1  0
 17 34  1  0
 18 35  1  0
 19 36  1  0
 20 37  1  0
M  CHG  2  22   1  24  -1
M  END
$$$$
