
     RDKit          3D

 28 30  0  0  0  0  0  0  0  0999 V2000
    1.2993    3.8134   -0.7333 S   0  0  0  0  0  0  0  0  0  0  0  0
   -0.0946    2.9391   -0.5127 C   0  0  0  0  0  0  0  0  0  0  0  0
   -1.3638    3.5119   -0.5834 N   0  0  0  0  0  0  0  0  0  0  0  0
   -2.3343    2.5514   -0.5021 N   0  0  0  0  0  0  0  0  0  0  0  0
   -1.6797    1.4290   -0.3483 C   0  0  0  0  0  0  0  0  0  0  0  0
   -2.3551    0.1265   -0.2286 C   0  0  0  0  0  0  0  0  0  0  0  0
   -1.8239   -1.0755   -0.6965 C   0  0  0  0  0  0  0  0  0  0  0  0
   -2.5523   -2.2548   -0.5435 C   0  0  0  0  0  0  0  0  0  0  0  0
   -3.7958   -2.1892    0.0639 C   0  0  0  0  0  0  0  0  0  0  0  0
   -4.3499   -1.0426    0.5121 N   0  0  0  0  0  0  0  0  0  0  0  0
   -3.6206    0.0899    0.3468 C   0  0  0  0  0  0  0  0  0  0  0  0
   -0.3177    1.5907   -0.2792 N   0  0  0  0  0  0  0  0  0  0  0  0
    0.5782    0.5697   -0.1766 N   0  0  0  0  0  0  0  0  0  0  0  0
    1.6308    0.7575    0.5533 C   0  0  0  0  0  0  0  0  0  0  0  0
    2.6598   -0.2488    0.6903 C   0  0  0  0  0  0  0  0  0  0  0  0
    3.8242   -0.1595    1.4320 C   0  0  0  0  0  0  0  0  0  0  0  0
    4.6168   -1.3442    1.3434 C   0  0  0  0  0  0  0  0  0  0  0  0
    4.0183   -2.2796    0.5388 C   0  0  0  0  0  0  0  0  0  0  0  0
    4.7737   -3.9967    0.1751 Br  0  0  0  0  0  0  0  0  0  0  0  0
    2.5400   -1.7634   -0.1036 S   0  0  0  0  0  0  0  0  0  0  0  0
   -1.5806    4.4753   -0.8115 H   0  0  0  0  0  0  0  0  0  0  0  0
   -0.8615   -1.1134   -1.1974 H   0  0  0  0  0  0  0  0  0  0  0  0
   -2.1590   -3.2017   -0.8971 H   0  0  0  0  0  0  0  0  0  0  0  0
   -4.3989   -3.0820    0.2045 H   0  0  0  0  0  0  0  0  0  0  0  0
   -4.1032    0.9937    0.7112 H   0  0  0  0  0  0  0  0  0  0  0  0
    1.7812    1.6785    1.1428 H   0  0  0  0  0  0  0  0  0  0  0  0
    4.1022    0.7135    2.0115 H   0  0  0  0  0  0  0  0  0  0  0  0
    5.5668   -1.4889    1.8433 H   0  0  0  0  0  0  0  0  0  0  0  0
  1  2  2  0
  2  3  1  0
  3  4  1  0
  4  5  2  0
  5  6  1  0
  6  7  2  0
  7  8  1  0
  8  9  2  0
  9 10  1  0
 10 11  2  0
  5 12  1  0
 12 13  1  0
 13 14  2  3
 14 15  1  0
 15 16  2  0
 16 17  1  0
 17 18  2  0
 18 19  1  0
 18 20  1  0
 12  2  1  0
 20 15  1  0
 11  6  1  0
  3 21  1  0
  7 22  1  0
  8 23  1  0
  9 24  1  0
 11 25  1  0
 14 26  1  0
 16 27  1  0
 17 28  1  0
M  END
$$$$
