
     RDKit          3D

 37 38  0  0  0  0  0  0  0  0999 V2000
   -4.9800   -0.8781   -1.7647 C   0  0  0  0  0  0  0  0  0  0  0  0
   -3.9877   -0.5351   -0.7456 N   0  0  0  0  0  0  0  0  0  0  0  0
   -2.6942   -0.2062   -1.1441 C   0  0  0  0  0  0  0  0  0  0  0  0
   -2.3790   -0.3247   -2.4932 N   0  0  0  0  0  0  0  0  0  0  0  0
   -1.8031    0.2275   -0.2207 C   0  0  0  0  0  0  0  0  0  0  0  0
   -0.3722    0.5176   -0.6043 C   0  0  0  0  0  0  0  0  0  0  0  0
   -0.0609    0.6349   -1.7951 O   0  0  0  0  0  0  0  0  0  0  0  0
    0.6817    0.5973    0.5006 C   0  0  0  0  0  0  0  0  0  0  0  0
    1.9874    0.4251   -0.0585 O   0  0  0  0  0  0  0  0  0  0  0  0
    2.9953    0.5178    0.8443 C   0  0  0  0  0  0  0  0  0  0  0  0
    2.8563    0.7209    2.0423 O   0  0  0  0  0  0  0  0  0  0  0  0
    4.3244    0.3359    0.1857 C   0  0  0  0  0  0  0  0  0  0  0  0
    5.4754    0.4772    0.9559 C   0  0  0  0  0  0  0  0  0  0  0  0
    6.7118    0.3062    0.3390 C   0  0  0  0  0  0  0  0  0  0  0  0
    6.7595    0.0013   -1.0172 C   0  0  0  0  0  0  0  0  0  0  0  0
    5.5641   -0.1231   -1.7072 C   0  0  0  0  0  0  0  0  0  0  0  0
    4.3498    0.0338   -1.1395 N   0  0  0  0  0  0  0  0  0  0  0  0
   -2.2592    0.3932    1.1784 C   0  0  0  0  0  0  0  0  0  0  0  0
   -1.5707    1.0218    1.9804 O   0  0  0  0  0  0  0  0  0  0  0  0
   -3.4658   -0.1725    1.5172 N   0  0  0  0  0  0  0  0  0  0  0  0
   -3.8877   -0.1046    2.9045 C   0  0  0  0  0  0  0  0  0  0  0  0
   -4.4106   -0.5463    0.5798 C   0  0  0  0  0  0  0  0  0  0  0  0
   -5.5575   -0.8547    0.9087 O   0  0  0  0  0  0  0  0  0  0  0  0
   -4.7115   -1.8393   -2.2146 H   0  0  0  0  0  0  0  0  0  0  0  0
   -5.0068   -0.0970   -2.5316 H   0  0  0  0  0  0  0  0  0  0  0  0
   -5.9881   -0.9684   -1.3506 H   0  0  0  0  0  0  0  0  0  0  0  0
   -1.3957   -0.0894   -2.6921 H   0  0  0  0  0  0  0  0  0  0  0  0
   -2.5975   -1.2442   -2.8647 H   0  0  0  0  0  0  0  0  0  0  0  0
    0.5085   -0.2079    1.2221 H   0  0  0  0  0  0  0  0  0  0  0  0
    0.6193    1.5872    0.9644 H   0  0  0  0  0  0  0  0  0  0  0  0
    5.4130    0.7169    2.0130 H   0  0  0  0  0  0  0  0  0  0  0  0
    7.6294    0.4114    0.9116 H   0  0  0  0  0  0  0  0  0  0  0  0
    7.7074   -0.1359   -1.5264 H   0  0  0  0  0  0  0  0  0  0  0  0
    5.5519   -0.3593   -2.7679 H   0  0  0  0  0  0  0  0  0  0  0  0
   -4.5509   -0.9407    3.1469 H   0  0  0  0  0  0  0  0  0  0  0  0
   -3.0263   -0.1328    3.5785 H   0  0  0  0  0  0  0  0  0  0  0  0
   -4.4299    0.8342    3.0568 H   0  0  0  0  0  0  0  0  0  0  0  0
  1  2  1  0
  2  3  1  0
  3  4  1  0
  3  5  2  0
  5  6  1  0
  6  7  2  0
  6  8  1  0
  8  9  1  0
  9 10  1  0
 10 11  2  0
 10 12  1  0
 12 13  2  0
 13 14  1  0
 14 15  2  0
 15 16  1  0
 16 17  2  0
  5 18  1  0
 18 19  2  0
 18 20  1  0
 20 21  1  0
 20 22  1  0
 22 23  2  0
 22  2  1  0
 17 12  1  0
  1 24  1  0
  1 25  1  0
  1 26  1  0
  4 27  1  0
  4 28  1  0
  8 29  1  0
  8 30  1  0
 13 31  1  0
 14 32  1  0
 15 33  1  0
 16 34  1  0
 21 35  1  0
 21 36  1  0
 21 37  1  0
M  END
$$$$
