
     RDKit          3D

 38 39  0  0  0  0  0  0  0  0999 V2000
   -0.1527    0.5178   -2.5386 O   0  0  0  0  0  0  0  0  0  0  0  0
    0.4141    0.6820   -1.4700 C   0  0  0  0  0  0  0  0  0  0  0  0
    1.7569    0.9239   -1.3004 N   0  0  0  0  0  0  0  0  0  0  0  0
    2.7007    0.7786   -2.3886 C   0  0  0  0  0  0  0  0  0  0  0  0
    3.1842   -0.6663   -2.5211 C   0  0  0  0  0  0  0  0  0  0  0  0
    3.9333   -1.0467   -1.3663 O   0  0  0  0  0  0  0  0  0  0  0  0
   -0.3737    0.6232   -0.1611 C   0  0  0  0  0  0  0  0  0  0  0  0
   -1.5793   -0.2962   -0.1685 C   0  0  0  0  0  0  0  0  0  0  0  0
   -1.1950   -1.7535   -0.2840 C   0  0  0  0  0  0  0  0  0  0  0  0
   -1.2296   -2.4008   -1.5284 C   0  0  0  0  0  0  0  0  0  0  0  0
   -0.8509   -3.7401   -1.6444 C   0  0  0  0  0  0  0  0  0  0  0  0
   -0.4342   -4.4401   -0.5154 C   0  0  0  0  0  0  0  0  0  0  0  0
    0.0800   -6.2524   -0.6708 Br  0  0  0  0  0  0  0  0  0  0  0  0
   -0.3927   -3.8129    0.7272 C   0  0  0  0  0  0  0  0  0  0  0  0
   -0.7711   -2.4730    0.8417 C   0  0  0  0  0  0  0  0  0  0  0  0
    0.0600    1.3769    0.8092 N   0  0  0  0  0  0  0  0  0  0  0  0
   -0.6161    1.3622    1.9989 C   0  0  0  0  0  0  0  0  0  0  0  0
   -0.7361    0.3566    2.6889 O   0  0  0  0  0  0  0  0  0  0  0  0
   -1.1526    2.6624    2.3845 C   0  0  0  0  0  0  0  0  0  0  0  0
   -1.8376    2.9519    3.5535 C   0  0  0  0  0  0  0  0  0  0  0  0
   -2.2411    4.3157    3.6358 C   0  0  0  0  0  0  0  0  0  0  0  0
   -1.8548    5.0312    2.5260 C   0  0  0  0  0  0  0  0  0  0  0  0
   -1.0141    4.0605    1.3985 S   0  0  0  0  0  0  0  0  0  0  0  0
    2.1030    0.9241   -0.3457 H   0  0  0  0  0  0  0  0  0  0  0  0
    2.2284    1.1025   -3.3216 H   0  0  0  0  0  0  0  0  0  0  0  0
    3.5405    1.4436   -2.1635 H   0  0  0  0  0  0  0  0  0  0  0  0
    2.3421   -1.3587   -2.6182 H   0  0  0  0  0  0  0  0  0  0  0  0
    3.8281   -0.7795   -3.3988 H   0  0  0  0  0  0  0  0  0  0  0  0
    4.7540   -0.5253   -1.3636 H   0  0  0  0  0  0  0  0  0  0  0  0
   -2.2205   -0.0099   -1.0118 H   0  0  0  0  0  0  0  0  0  0  0  0
   -2.2035   -0.1551    0.7185 H   0  0  0  0  0  0  0  0  0  0  0  0
   -1.5436   -1.8629   -2.4220 H   0  0  0  0  0  0  0  0  0  0  0  0
   -0.8815   -4.2227   -2.6175 H   0  0  0  0  0  0  0  0  0  0  0  0
   -0.0661   -4.3534    1.6117 H   0  0  0  0  0  0  0  0  0  0  0  0
   -0.7311   -1.9996    1.8209 H   0  0  0  0  0  0  0  0  0  0  0  0
   -2.0366    2.2082    4.3177 H   0  0  0  0  0  0  0  0  0  0  0  0
   -2.7857    4.7486    4.4664 H   0  0  0  0  0  0  0  0  0  0  0  0
   -2.0251    6.0795    2.3208 H   0  0  0  0  0  0  0  0  0  0  0  0
  1  2  2  0
  2  3  1  0
  3  4  1  0
  4  5  1  0
  5  6  1  0
  2  7  1  0
  7  8  1  0
  8  9  1  0
  9 10  2  0
 10 11  1  0
 11 12  2  0
 12 13  1  0
 12 14  1  0
 14 15  2  0
  7 16  2  3
 16 17  1  0
 17 18  2  0
 17 19  1  0
 19 20  2  0
 20 21  1  0
 21 22  2  0
 22 23  1  0
 15  9  1  0
 23 19  1  0
  3 24  1  0
  4 25  1  0
  4 26  1  0
  5 27  1  0
  5 28  1  0
  6 29  1  0
  8 30  1  0
  8 31  1  0
 10 32  1  0
 11 33  1  0
 14 34  1  0
 15 35  1  0
 20 36  1  0
 21 37  1  0
 22 38  1  0
M  END
$$$$
