
     RDKit          3D

 44 47  0  0  0  0  0  0  0  0999 V2000
    6.1123    0.1616   -0.1260 C   0  0  0  0  0  0  0  0  0  0  0  0
    5.2492   -0.4445    0.9703 C   0  0  0  0  0  0  0  0  0  0  0  0
    3.7887   -0.3401    0.6480 C   0  0  0  0  0  0  0  0  0  0  0  0
    3.0076   -1.2158   -0.0814 C   0  0  0  0  0  0  0  0  0  0  0  0
    1.6546   -0.7743   -0.1717 C   0  0  0  0  0  0  0  0  0  0  0  0
    0.5303   -1.3920   -0.8421 C   0  0  0  0  0  0  0  0  0  0  0  0
    0.6663   -2.4468   -1.4592 O   0  0  0  0  0  0  0  0  0  0  0  0
   -0.6798   -0.6963   -0.7191 N   0  0  0  0  0  0  0  0  0  0  0  0
   -1.8332   -1.2957   -1.3952 C   0  0  0  0  0  0  0  0  0  0  0  0
   -2.6859   -2.1469   -0.4732 C   0  0  0  0  0  0  0  0  0  0  0  0
   -3.9896   -1.7455   -0.1288 C   0  0  0  0  0  0  0  0  0  0  0  0
   -4.7751   -2.5296    0.7191 C   0  0  0  0  0  0  0  0  0  0  0  0
   -4.2750   -3.7306    1.2231 C   0  0  0  0  0  0  0  0  0  0  0  0
   -2.9881   -4.1468    0.8828 C   0  0  0  0  0  0  0  0  0  0  0  0
   -2.1994   -3.3612    0.0393 C   0  0  0  0  0  0  0  0  0  0  0  0
   -0.7266    0.5143   -0.0282 C   0  0  0  0  0  0  0  0  0  0  0  0
   -2.2498    1.3912    0.0571 S   0  0  0  0  0  0  0  0  0  0  0  0
   -1.7641    2.9861   -0.6556 C   0  0  0  0  0  0  0  0  0  0  0  0
   -1.1386    3.9490    0.3284 C   0  0  0  0  0  0  0  0  0  0  0  0
   -0.3026    4.8191   -0.5793 C   0  0  0  0  0  0  0  0  0  0  0  0
    0.1174    3.9772   -1.6552 O   0  0  0  0  0  0  0  0  0  0  0  0
   -0.7168    2.8965   -1.7363 C   0  0  0  0  0  0  0  0  0  0  0  0
   -0.6304    2.0306   -2.5955 O   0  0  0  0  0  0  0  0  0  0  0  0
    0.2745    1.0778    0.5755 N   0  0  0  0  0  0  0  0  0  0  0  0
    1.4448    0.4095    0.4865 C   0  0  0  0  0  0  0  0  0  0  0  0
    2.8710    0.9965    1.2092 S   0  0  0  0  0  0  0  0  0  0  0  0
    5.8878    1.2242   -0.2704 H   0  0  0  0  0  0  0  0  0  0  0  0
    7.1719    0.0680    0.1319 H   0  0  0  0  0  0  0  0  0  0  0  0
    5.9510   -0.3460   -1.0830 H   0  0  0  0  0  0  0  0  0  0  0  0
    5.5173   -1.4998    1.0997 H   0  0  0  0  0  0  0  0  0  0  0  0
    5.4699    0.0491    1.9246 H   0  0  0  0  0  0  0  0  0  0  0  0
    3.3832   -2.1268   -0.5317 H   0  0  0  0  0  0  0  0  0  0  0  0
   -1.5022   -1.9280   -2.2286 H   0  0  0  0  0  0  0  0  0  0  0  0
   -2.4387   -0.5122   -1.8648 H   0  0  0  0  0  0  0  0  0  0  0  0
   -4.4099   -0.8182   -0.5203 H   0  0  0  0  0  0  0  0  0  0  0  0
   -5.7805   -2.2045    0.9816 H   0  0  0  0  0  0  0  0  0  0  0  0
   -4.8880   -4.3436    1.8786 H   0  0  0  0  0  0  0  0  0  0  0  0
   -2.5984   -5.0904    1.2664 H   0  0  0  0  0  0  0  0  0  0  0  0
   -1.2023   -3.7155   -0.2208 H   0  0  0  0  0  0  0  0  0  0  0  0
   -2.6523    3.4441   -1.1050 H   0  0  0  0  0  0  0  0  0  0  0  0
   -1.8772    4.5276    0.8934 H   0  0  0  0  0  0  0  0  0  0  0  0
   -0.4846    3.4512    1.0523 H   0  0  0  0  0  0  0  0  0  0  0  0
    0.5721    5.2274   -0.0629 H   0  0  0  0  0  0  0  0  0  0  0  0
   -0.8808    5.6500   -0.9985 H   0  0  0  0  0  0  0  0  0  0  0  0
  1  2  1  0
  2  3  1  0
  3  4  2  0
  4  5  1  0
  5  6  1  0
  6  7  2  0
  6  8  1  0
  8  9  1  0
  9 10  1  0
 10 11  2  0
 11 12  1  0
 12 13  2  0
 13 14  1  0
 14 15  2  0
  8 16  1  0
 16 17  1  0
 17 18  1  0
 18 19  1  0
 19 20  1  0
 20 21  1  0
 21 22  1  0
 22 23  2  0
 16 24  2  0
 24 25  1  0
 25 26  1  0
 26  3  1  0
 25  5  2  0
 15 10  1  0
 22 18  1  0
  1 27  1  0
  1 28  1  0
  1 29  1  0
  2 30  1  0
  2 31  1  0
  4 32  1  0
  9 33  1  0
  9 34  1  0
 11 35  1  0
 12 36  1  0
 13 37  1  0
 14 38  1  0
 15 39  1  0
 18 40  1  0
 19 41  1  0
 19 42  1  0
 20 43  1  0
 20 44  1  0
M  END
$$$$
