
     RDKit          3D

 46 48  0  0  0  0  0  0  0  0999 V2000
    7.8303   -1.9531    0.6461 C   0  0  0  0  0  0  0  0  0  0  0  0
    7.1384   -0.8938    1.2951 O   0  0  0  0  0  0  0  0  0  0  0  0
    5.8331   -0.6957    0.9421 C   0  0  0  0  0  0  0  0  0  0  0  0
    5.1124   -1.4387    0.0071 C   0  0  0  0  0  0  0  0  0  0  0  0
    3.7714   -1.1298   -0.2639 C   0  0  0  0  0  0  0  0  0  0  0  0
    3.1399   -0.0711    0.4002 C   0  0  0  0  0  0  0  0  0  0  0  0
    1.7131    0.3005    0.1502 C   0  0  0  0  0  0  0  0  0  0  0  0
    1.2027    1.1984    0.8212 O   0  0  0  0  0  0  0  0  0  0  0  0
    0.9466   -0.4636   -0.9261 C   0  0  0  0  0  0  0  0  0  0  0  0
   -0.3688    0.1131   -1.0782 N   0  0  0  0  0  0  0  0  0  0  0  0
   -0.6518    1.1641   -1.8871 C   0  0  0  0  0  0  0  0  0  0  0  0
    0.1065    1.7332   -2.6540 O   0  0  0  0  0  0  0  0  0  0  0  0
   -1.9724    1.4990   -1.7173 N   0  0  0  0  0  0  0  0  0  0  0  0
   -2.6266    0.7333   -0.6592 C   0  0  0  0  0  0  0  0  0  0  0  0
   -3.8278   -0.0041   -1.2674 C   0  0  0  0  0  0  0  0  0  0  0  0
   -4.5875   -0.9447   -0.3351 C   0  0  0  0  0  0  0  0  0  0  0  0
   -5.6461   -0.2787    0.5361 C   0  0  0  0  0  0  0  0  0  0  0  0
   -5.2609    1.0383    1.1986 C   0  0  0  0  0  0  0  0  0  0  0  0
   -3.8031    1.1351    1.6341 C   0  0  0  0  0  0  0  0  0  0  0  0
   -2.8957    1.6698    0.5262 C   0  0  0  0  0  0  0  0  0  0  0  0
   -1.4551   -0.2255   -0.3221 C   0  0  0  0  0  0  0  0  0  0  0  0
   -1.4835   -1.1291    0.5038 O   0  0  0  0  0  0  0  0  0  0  0  0
    3.8667    0.6705    1.3393 C   0  0  0  0  0  0  0  0  0  0  0  0
    5.2026    0.3582    1.6052 C   0  0  0  0  0  0  0  0  0  0  0  0
    8.8523   -1.9738    1.0367 H   0  0  0  0  0  0  0  0  0  0  0  0
    7.3687   -2.9206    0.8691 H   0  0  0  0  0  0  0  0  0  0  0  0
    7.8897   -1.7823   -0.4338 H   0  0  0  0  0  0  0  0  0  0  0  0
    5.5634   -2.2673   -0.5299 H   0  0  0  0  0  0  0  0  0  0  0  0
    3.2518   -1.7393   -0.9971 H   0  0  0  0  0  0  0  0  0  0  0  0
    1.4781   -0.3809   -1.8790 H   0  0  0  0  0  0  0  0  0  0  0  0
    0.8449   -1.5094   -0.6209 H   0  0  0  0  0  0  0  0  0  0  0  0
   -2.3524    2.3196   -2.1710 H   0  0  0  0  0  0  0  0  0  0  0  0
   -4.5254    0.7184   -1.7113 H   0  0  0  0  0  0  0  0  0  0  0  0
   -3.4634   -0.6134   -2.1073 H   0  0  0  0  0  0  0  0  0  0  0  0
   -5.0996   -1.6975   -0.9488 H   0  0  0  0  0  0  0  0  0  0  0  0
   -3.8979   -1.5119    0.2968 H   0  0  0  0  0  0  0  0  0  0  0  0
   -5.9384   -0.9951    1.3148 H   0  0  0  0  0  0  0  0  0  0  0  0
   -6.5507   -0.1089   -0.0617 H   0  0  0  0  0  0  0  0  0  0  0  0
   -5.9036    1.1685    2.0786 H   0  0  0  0  0  0  0  0  0  0  0  0
   -5.5077    1.8705    0.5275 H   0  0  0  0  0  0  0  0  0  0  0  0
   -3.4359    0.1823    2.0300 H   0  0  0  0  0  0  0  0  0  0  0  0
   -3.7522    1.8509    2.4649 H   0  0  0  0  0  0  0  0  0  0  0  0
   -3.3227    2.6117    0.1543 H   0  0  0  0  0  0  0  0  0  0  0  0
   -1.9389    1.9515    0.9883 H   0  0  0  0  0  0  0  0  0  0  0  0
    3.4002    1.4979    1.8713 H   0  0  0  0  0  0  0  0  0  0  0  0
    5.7552    0.9435    2.3368 H   0  0  0  0  0  0  0  0  0  0  0  0
  1  2  1  0
  2  3  1  0
  3  4  2  0
  4  5  1  0
  5  6  2  0
  6  7  1  0
  7  8  2  0
  7  9  1  0
  9 10  1  0
 10 11  1  0
 11 12  2  0
 11 13  1  0
 13 14  1  0
 14 15  1  0
 15 16  1  0
 16 17  1  0
 17 18  1  0
 18 19  1  0
 19 20  1  0
 14 21  1  0
 21 22  2  0
  6 23  1  0
 23 24  2  0
 24  3  1  0
 21 10  1  0
 20 14  1  0
  1 25  1  0
  1 26  1  0
  1 27  1  0
  4 28  1  0
  5 29  1  0
  9 30  1  0
  9 31  1  0
 13 32  1  0
 15 33  1  0
 15 34  1  0
 16 35  1  0
 16 36  1  0
 17 37  1  0
 17 38  1  0
 18 39  1  0
 18 40  1  0
 19 41  1  0
 19 42  1  0
 20 43  1  0
 20 44  1  0
 23 45  1  0
 24 46  1  0
M  END
$$$$
