
     RDKit          3D

 57 61  0  0  0  0  0  0  0  0999 V2000
    6.9090   -1.8561   -3.3959 C   0  0  0  0  0  0  0  0  0  0  0  0
    6.4800   -0.5765   -2.9494 O   0  0  0  0  0  0  0  0  0  0  0  0
    5.8931   -0.5164   -1.7157 C   0  0  0  0  0  0  0  0  0  0  0  0
    5.7232   -1.5837   -0.8339 C   0  0  0  0  0  0  0  0  0  0  0  0
    5.1028   -1.3830    0.4050 C   0  0  0  0  0  0  0  0  0  0  0  0
    4.6517   -0.1110    0.7804 C   0  0  0  0  0  0  0  0  0  0  0  0
    3.9478    0.1037    2.0942 C   0  0  0  0  0  0  0  0  0  0  0  0
    2.5197   -0.0183    1.9144 N   0  0  0  0  0  0  0  0  0  0  0  0
    1.7046    1.0814    1.7978 C   0  0  0  0  0  0  0  0  0  0  0  0
    2.0751    2.2345    1.9820 O   0  0  0  0  0  0  0  0  0  0  0  0
    0.2995    0.7521    1.4550 C   0  0  0  0  0  0  0  0  0  0  0  0
   -0.6752    1.4201    2.0914 C   0  0  0  0  0  0  0  0  0  0  0  0
   -2.0834    1.1004    1.9157 C   0  0  0  0  0  0  0  0  0  0  0  0
   -3.1067    1.8730    2.6765 C   0  0  0  0  0  0  0  0  0  0  0  0
   -2.7549    2.7744    3.4405 O   0  0  0  0  0  0  0  0  0  0  0  0
   -4.4235    1.5028    2.4710 N   0  0  0  0  0  0  0  0  0  0  0  0
   -5.4390    2.1864    3.1320 C   0  0  0  0  0  0  0  0  0  0  0  0
   -6.7271    1.8566    2.9773 C   0  0  0  0  0  0  0  0  0  0  0  0
   -7.0875    0.7664    2.1114 C   0  0  0  0  0  0  0  0  0  0  0  0
   -6.1425    0.0805    1.4577 C   0  0  0  0  0  0  0  0  0  0  0  0
   -4.7073    0.4487    1.6245 C   0  0  0  0  0  0  0  0  0  0  0  0
   -3.8167   -0.2311    0.9770 N   0  0  0  0  0  0  0  0  0  0  0  0
   -2.4843    0.0953    1.1020 C   0  0  0  0  0  0  0  0  0  0  0  0
   -1.4989   -0.6255    0.3783 N   0  0  0  0  0  0  0  0  0  0  0  0
   -1.9132   -1.6397   -0.6073 C   0  0  0  0  0  0  0  0  0  0  0  0
   -2.1855   -1.0397   -1.9655 C   0  0  0  0  0  0  0  0  0  0  0  0
   -3.4599   -0.5974   -2.3355 C   0  0  0  0  0  0  0  0  0  0  0  0
   -3.6663   -0.0488   -3.5980 C   0  0  0  0  0  0  0  0  0  0  0  0
   -2.5859    0.0391   -4.4585 C   0  0  0  0  0  0  0  0  0  0  0  0
   -1.3419   -0.3757   -4.1430 N   0  0  0  0  0  0  0  0  0  0  0  0
   -1.1686   -0.8968   -2.9046 C   0  0  0  0  0  0  0  0  0  0  0  0
   -0.1361   -0.3163    0.4925 C   0  0  0  0  0  0  0  0  0  0  0  0
    0.7473   -0.9461   -0.2325 N   0  0  0  0  0  0  0  0  0  0  0  0
    4.8168    0.9544   -0.1129 C   0  0  0  0  0  0  0  0  0  0  0  0
    5.4368    0.7507   -1.3474 C   0  0  0  0  0  0  0  0  0  0  0  0
    6.0673   -2.5529   -3.4680 H   0  0  0  0  0  0  0  0  0  0  0  0
    7.3288   -1.7367   -4.3994 H   0  0  0  0  0  0  0  0  0  0  0  0
    7.6985   -2.2544   -2.7502 H   0  0  0  0  0  0  0  0  0  0  0  0
    6.0596   -2.5853   -1.0792 H   0  0  0  0  0  0  0  0  0  0  0  0
    4.9746   -2.2315    1.0735 H   0  0  0  0  0  0  0  0  0  0  0  0
    4.2082    1.0823    2.5127 H   0  0  0  0  0  0  0  0  0  0  0  0
    4.2548   -0.6545    2.8229 H   0  0  0  0  0  0  0  0  0  0  0  0
    2.1394   -0.9494    1.7889 H   0  0  0  0  0  0  0  0  0  0  0  0
   -0.4269    2.2055    2.8037 H   0  0  0  0  0  0  0  0  0  0  0  0
   -5.1423    3.0052    3.7834 H   0  0  0  0  0  0  0  0  0  0  0  0
   -7.5123    2.3966    3.4969 H   0  0  0  0  0  0  0  0  0  0  0  0
   -8.1379    0.5150    2.0041 H   0  0  0  0  0  0  0  0  0  0  0  0
   -6.3727   -0.7473    0.7989 H   0  0  0  0  0  0  0  0  0  0  0  0
   -2.8065   -2.1767   -0.2611 H   0  0  0  0  0  0  0  0  0  0  0  0
   -1.1602   -2.4336   -0.7002 H   0  0  0  0  0  0  0  0  0  0  0  0
   -4.2931   -0.6760   -1.6426 H   0  0  0  0  0  0  0  0  0  0  0  0
   -4.6453    0.3026   -3.9023 H   0  0  0  0  0  0  0  0  0  0  0  0
   -2.6948    0.4590   -5.4540 H   0  0  0  0  0  0  0  0  0  0  0  0
   -0.1503   -1.2098   -2.6860 H   0  0  0  0  0  0  0  0  0  0  0  0
    1.6910   -0.5529   -0.1188 H   0  0  0  0  0  0  0  0  0  0  0  0
    4.4576    1.9496    0.1457 H   0  0  0  0  0  0  0  0  0  0  0  0
    5.5594    1.5871   -2.0314 H   0  0  0  0  0  0  0  0  0  0  0  0
  1  2  1  0
  2  3  1  0
  3  4  2  0
  4  5  1  0
  5  6  2  0
  6  7  1  0
  7  8  1  0
  8  9  1  0
  9 10  2  0
  9 11  1  0
 11 12  2  0
 12 13  1  0
 13 14  1  0
 14 15  2  0
 14 16  1  0
 16 17  1  0
 17 18  2  0
 18 19  1  0
 19 20  2  0
 20 21  1  0
 21 22  2  0
 22 23  1  0
 23 24  1  0
 24 25  1  0
 25 26  1  0
 26 27  2  0
 27 28  1  0
 28 29  2  0
 29 30  1  0
 30 31  2  0
 24 32  1  0
 32 33  2  3
  6 34  1  0
 34 35  2  0
 35  3  1  0
 32 11  1  0
 23 13  2  0
 31 26  1  0
 21 16  1  0
  1 36  1  0
  1 37  1  0
  1 38  1  0
  4 39  1  0
  5 40  1  0
  7 41  1  0
  7 42  1  0
  8 43  1  0
 12 44  1  0
 17 45  1  0
 18 46  1  0
 19 47  1  0
 20 48  1  0
 25 49  1  0
 25 50  1  0
 27 51  1  0
 28 52  1  0
 29 53  1  0
 31 54  1  0
 33 55  1  0
 34 56  1  0
 35 57  1  0
M  END
$$$$
