
     RDKit          3D

 41 41  0  0  0  0  0  0  0  0999 V2000
    4.0708   -1.4191    2.4639 C   0  0  0  0  0  0  0  0  0  0  0  0
    4.1442   -0.6953    1.1283 C   0  0  0  0  0  0  0  0  0  0  0  0
    2.8806   -0.8503    0.2793 C   0  0  0  0  0  0  0  0  0  0  0  0
    1.6458   -0.1933    0.9037 C   0  0  0  0  0  0  0  0  0  0  0  0
    0.4400   -0.2758   -0.0409 C   0  0  0  0  0  0  0  0  0  0  0  0
   -0.8933    0.2006    0.5971 C   0  0  0  0  0  0  0  0  0  0  0  0
   -0.8139    1.6320    1.1382 C   0  0  0  0  0  0  0  0  0  0  0  0
   -0.6293    2.6262    0.0069 C   0  0  0  0  0  0  0  0  0  0  0  0
    0.1698    3.6261    0.2209 N   0  0  0  0  0  0  0  0  0  0  0  0
    0.2496    4.4821   -0.8833 O   0  0  0  0  0  0  0  0  0  0  0  0
   -1.4256    2.3847   -1.2331 C   0  0  0  0  0  0  0  0  0  0  0  0
   -2.1254    1.2464   -1.3999 C   0  0  0  0  0  0  0  0  0  0  0  0
   -3.0438    1.1043   -2.5854 C   0  0  0  0  0  0  0  0  0  0  0  0
   -2.1009    0.1101   -0.3799 C   0  0  0  0  0  0  0  0  0  0  0  0
   -2.1710   -1.3001   -0.9868 C   0  0  0  0  0  0  0  0  0  0  0  0
   -1.7984   -1.6218   -2.1065 O   0  0  0  0  0  0  0  0  0  0  0  0
   -2.6883   -2.1663   -0.0645 O   0  0  0  0  0  0  0  0  0  0  0  0
   -2.7681   -3.5180   -0.5189 C   0  0  0  0  0  0  0  0  0  0  0  0
    5.0342   -1.3534    2.9797 H   0  0  0  0  0  0  0  0  0  0  0  0
    3.8329   -2.4783    2.3246 H   0  0  0  0  0  0  0  0  0  0  0  0
    3.3146   -0.9769    3.1190 H   0  0  0  0  0  0  0  0  0  0  0  0
    4.3505    0.3675    1.3002 H   0  0  0  0  0  0  0  0  0  0  0  0
    4.9938   -1.0952    0.5619 H   0  0  0  0  0  0  0  0  0  0  0  0
    3.0695   -0.3975   -0.7021 H   0  0  0  0  0  0  0  0  0  0  0  0
    2.6851   -1.9151    0.1036 H   0  0  0  0  0  0  0  0  0  0  0  0
    1.3963   -0.6871    1.8493 H   0  0  0  0  0  0  0  0  0  0  0  0
    1.8788    0.8534    1.1262 H   0  0  0  0  0  0  0  0  0  0  0  0
    0.6587    0.2935   -0.9520 H   0  0  0  0  0  0  0  0  0  0  0  0
    0.3313   -1.3225   -0.3493 H   0  0  0  0  0  0  0  0  0  0  0  0
   -1.0962   -0.4657    1.4471 H   0  0  0  0  0  0  0  0  0  0  0  0
   -0.0080    1.7420    1.8705 H   0  0  0  0  0  0  0  0  0  0  0  0
   -1.7438    1.8935    1.6593 H   0  0  0  0  0  0  0  0  0  0  0  0
    0.8886    5.1533   -0.5793 H   0  0  0  0  0  0  0  0  0  0  0  0
   -1.4492    3.1864   -1.9625 H   0  0  0  0  0  0  0  0  0  0  0  0
   -2.6346    0.4058   -3.3202 H   0  0  0  0  0  0  0  0  0  0  0  0
   -4.0281    0.7473   -2.2650 H   0  0  0  0  0  0  0  0  0  0  0  0
   -3.1995    2.0607   -3.0972 H   0  0  0  0  0  0  0  0  0  0  0  0
   -3.0281    0.2322    0.2009 H   0  0  0  0  0  0  0  0  0  0  0  0
   -1.7702   -3.9036   -0.7500 H   0  0  0  0  0  0  0  0  0  0  0  0
   -3.1941   -4.1215    0.2873 H   0  0  0  0  0  0  0  0  0  0  0  0
   -3.4253   -3.5913   -1.3909 H   0  0  0  0  0  0  0  0  0  0  0  0
  1  2  1  0
  2  3  1  0
  3  4  1  0
  4  5  1  0
  5  6  1  0
  6  7  1  0
  7  8  1  0
  8  9  2  3
  9 10  1  0
  8 11  1  0
 11 12  2  0
 12 13  1  0
 12 14  1  0
 14 15  1  0
 15 16  2  0
 15 17  1  0
 17 18  1  0
 14  6  1  0
  1 19  1  0
  1 20  1  0
  1 21  1  0
  2 22  1  0
  2 23  1  0
  3 24  1  0
  3 25  1  0
  4 26  1  0
  4 27  1  0
  5 28  1  0
  5 29  1  0
  6 30  1  0
  7 31  1  0
  7 32  1  0
 10 33  1  0
 11 34  1  0
 13 35  1  0
 13 36  1  0
 13 37  1  0
 14 38  1  0
 18 39  1  0
 18 40  1  0
 18 41  1  0
M  END
$$$$
