
     RDKit          3D

 39 40  0  0  0  0  0  0  0  0999 V2000
   -2.8599    1.8588    0.7084 C   0  0  0  0  0  0  0  0  0  0  0  0
   -3.6090    0.5634    0.4425 C   0  0  0  0  0  0  0  0  0  0  0  0
   -2.7741   -0.4605   -0.1931 N   0  0  0  0  0  0  0  0  0  0  0  0
   -2.6342   -0.4083   -1.6511 C   0  0  0  0  0  0  0  0  0  0  0  0
   -1.3389    0.2539   -2.1005 C   0  0  0  0  0  0  0  0  0  0  0  0
   -2.0239   -1.4108    0.4995 C   0  0  0  0  0  0  0  0  0  0  0  0
   -1.3454   -2.2496   -0.1059 O   0  0  0  0  0  0  0  0  0  0  0  0
   -2.0696   -1.3881    2.0297 C   0  0  0  0  0  0  0  0  0  0  0  0
   -0.5149   -2.0164    2.7491 S   0  0  0  0  0  0  0  0  0  0  0  0
    0.5633   -0.8200    2.1131 C   0  0  0  0  0  0  0  0  0  0  0  0
    0.6468    0.4270    2.5026 N   0  0  0  0  0  0  0  0  0  0  0  0
    1.5749    1.0407    1.6937 N   0  0  0  0  0  0  0  0  0  0  0  0
    2.0221    0.1652    0.8000 C   0  0  0  0  0  0  0  0  0  0  0  0
    3.0144    0.4701   -0.2371 C   0  0  0  0  0  0  0  0  0  0  0  0
    3.1101   -0.2318   -1.4401 C   0  0  0  0  0  0  0  0  0  0  0  0
    4.0758    0.1463   -2.3608 C   0  0  0  0  0  0  0  0  0  0  0  0
    4.9365    1.1675   -2.1733 N   0  0  0  0  0  0  0  0  0  0  0  0
    4.8240    1.8447   -1.0133 C   0  0  0  0  0  0  0  0  0  0  0  0
    3.8934    1.5406   -0.0336 C   0  0  0  0  0  0  0  0  0  0  0  0
    1.4009   -1.0467    1.0487 N   0  0  0  0  0  0  0  0  0  0  0  0
    1.5411   -2.2885    0.3259 N   0  0  0  0  0  0  0  0  0  0  0  0
   -1.9405    1.6850    1.2753 H   0  0  0  0  0  0  0  0  0  0  0  0
   -3.4902    2.5490    1.2779 H   0  0  0  0  0  0  0  0  0  0  0  0
   -2.5876    2.3552   -0.2272 H   0  0  0  0  0  0  0  0  0  0  0  0
   -4.0086    0.1708    1.3825 H   0  0  0  0  0  0  0  0  0  0  0  0
   -4.4777    0.7539   -0.1979 H   0  0  0  0  0  0  0  0  0  0  0  0
   -2.6607   -1.4341   -2.0374 H   0  0  0  0  0  0  0  0  0  0  0  0
   -3.4954    0.1149   -2.0801 H   0  0  0  0  0  0  0  0  0  0  0  0
   -1.2789    1.2908   -1.7598 H   0  0  0  0  0  0  0  0  0  0  0  0
   -0.4623   -0.2732   -1.7117 H   0  0  0  0  0  0  0  0  0  0  0  0
   -1.2757    0.2534   -3.1932 H   0  0  0  0  0  0  0  0  0  0  0  0
   -2.8966   -2.0250    2.3568 H   0  0  0  0  0  0  0  0  0  0  0  0
   -2.2203   -0.3825    2.4237 H   0  0  0  0  0  0  0  0  0  0  0  0
    2.4489   -1.0541   -1.6862 H   0  0  0  0  0  0  0  0  0  0  0  0
    4.1804   -0.3792   -3.3059 H   0  0  0  0  0  0  0  0  0  0  0  0
    5.5222    2.6668   -0.8849 H   0  0  0  0  0  0  0  0  0  0  0  0
    3.8568    2.1324    0.8767 H   0  0  0  0  0  0  0  0  0  0  0  0
    1.7304   -3.0486    0.9795 H   0  0  0  0  0  0  0  0  0  0  0  0
    0.6222   -2.5329   -0.0722 H   0  0  0  0  0  0  0  0  0  0  0  0
  1  2  1  0
  2  3  1  0
  3  4  1  0
  4  5  1  0
  3  6  1  0
  6  7  2  0
  6  8  1  0
  8  9  1  0
  9 10  1  0
 10 11  2  0
 11 12  1  0
 12 13  2  0
 13 14  1  0
 14 15  2  0
 15 16  1  0
 16 17  2  0
 17 18  1  0
 18 19  2  0
 13 20  1  0
 20 21  1  0
 20 10  1  0
 19 14  1  0
  1 22  1  0
  1 23  1  0
  1 24  1  0
  2 25  1  0
  2 26  1  0
  4 27  1  0
  4 28  1  0
  5 29  1  0
  5 30  1  0
  5 31  1  0
  8 32  1  0
  8 33  1  0
 15 34  1  0
 16 35  1  0
 18 36  1  0
 19 37  1  0
 21 38  1  0
 21 39  1  0
M  END
$$$$
