
     RDKit          3D

 37 40  0  0  0  0  0  0  0  0999 V2000
   -0.3874    0.7331   -0.7884 C   0  0  0  0  0  0  0  0  0  0  0  0
   -0.3733   -0.6027   -0.0782 C   0  0  0  0  0  0  0  0  0  0  0  0
   -1.5910   -1.2536    0.2543 C   0  0  0  0  0  0  0  0  0  0  0  0
   -2.8139   -0.6151   -0.0458 N   0  0  0  0  0  0  0  0  0  0  0  0
   -4.1125   -1.0623    0.1544 C   0  0  0  0  0  0  0  0  0  0  0  0
   -4.4447   -2.1451    0.6244 O   0  0  0  0  0  0  0  0  0  0  0  0
   -5.1052   -0.0498   -0.2850 C   0  0  0  0  0  0  0  0  0  0  0  0
   -6.4743   -0.2176   -0.2053 N   0  0  0  0  0  0  0  0  0  0  0  0
   -6.9550    0.9000   -0.6907 C   0  0  0  0  0  0  0  0  0  0  0  0
   -5.9322    1.7141   -1.0514 N   0  0  0  0  0  0  0  0  0  0  0  0
   -4.7388    1.1436   -0.8101 N   0  0  0  0  0  0  0  0  0  0  0  0
   -1.5517   -2.5021    0.8859 C   0  0  0  0  0  0  0  0  0  0  0  0
   -0.3390   -3.1010    1.2194 C   0  0  0  0  0  0  0  0  0  0  0  0
    0.8563   -2.4535    0.9327 C   0  0  0  0  0  0  0  0  0  0  0  0
    0.8600   -1.2058    0.2867 C   0  0  0  0  0  0  0  0  0  0  0  0
    2.1510   -0.5433    0.0466 C   0  0  0  0  0  0  0  0  0  0  0  0
    2.4754    0.6471    0.5054 N   0  0  0  0  0  0  0  0  0  0  0  0
    3.7527    0.9842    0.0914 C   0  0  0  0  0  0  0  0  0  0  0  0
    4.4325    2.1797    0.4010 C   0  0  0  0  0  0  0  0  0  0  0  0
    5.7255    2.3924   -0.0882 C   0  0  0  0  0  0  0  0  0  0  0  0
    6.3458    1.4311   -0.8800 C   0  0  0  0  0  0  0  0  0  0  0  0
    5.6928    0.2371   -1.2018 C   0  0  0  0  0  0  0  0  0  0  0  0
    4.3947    0.0341   -0.7042 C   0  0  0  0  0  0  0  0  0  0  0  0
    3.3460   -1.3126   -0.9228 S   0  0  0  0  0  0  0  0  0  0  0  0
    0.5639    0.9699   -1.2723 H   0  0  0  0  0  0  0  0  0  0  0  0
   -0.6265    1.5312   -0.0789 H   0  0  0  0  0  0  0  0  0  0  0  0
   -1.1211    0.7339   -1.6015 H   0  0  0  0  0  0  0  0  0  0  0  0
   -2.7843    0.3162   -0.4497 H   0  0  0  0  0  0  0  0  0  0  0  0
   -7.9974    1.1637   -0.8000 H   0  0  0  0  0  0  0  0  0  0  0  0
   -5.9696    2.6432   -1.4560 H   0  0  0  0  0  0  0  0  0  0  0  0
   -2.4574   -3.0387    1.1513 H   0  0  0  0  0  0  0  0  0  0  0  0
   -0.3327   -4.0656    1.7209 H   0  0  0  0  0  0  0  0  0  0  0  0
    1.7904   -2.9239    1.2338 H   0  0  0  0  0  0  0  0  0  0  0  0
    3.9444    2.9262    1.0198 H   0  0  0  0  0  0  0  0  0  0  0  0
    6.2464    3.3157    0.1542 H   0  0  0  0  0  0  0  0  0  0  0  0
    7.3521    1.6087   -1.2541 H   0  0  0  0  0  0  0  0  0  0  0  0
    6.1780   -0.5124   -1.8197 H   0  0  0  0  0  0  0  0  0  0  0  0
  1  2  1  0
  2  3  2  0
  3  4  1  0
  4  5  1  0
  5  6  2  0
  5  7  1  0
  7  8  1  0
  8  9  2  0
  9 10  1  0
 10 11  1  0
  3 12  1  0
 12 13  2  0
 13 14  1  0
 14 15  2  0
 15 16  1  0
 16 17  2  0
 17 18  1  0
 18 19  2  0
 19 20  1  0
 20 21  2  0
 21 22  1  0
 22 23  2  0
 23 24  1  0
 15  2  1  0
 24 16  1  0
 11  7  2  0
 23 18  1  0
  1 25  1  0
  1 26  1  0
  1 27  1  0
  4 28  1  0
  9 29  1  0
 10 30  1  0
 12 31  1  0
 13 32  1  0
 14 33  1  0
 19 34  1  0
 20 35  1  0
 21 36  1  0
 22 37  1  0
M  END
$$$$
