
     RDKit          3D

 71 75  0  0  0  0  0  0  0  0999 V2000
   -0.8289    4.0490    3.3780 C   0  0  0  0  0  0  0  0  0  0  0  0
   -0.0993    2.8504    3.9672 C   0  0  0  0  0  0  0  0  0  0  0  0
    0.0203    1.7643    2.9773 N   0  0  0  0  0  0  0  0  0  0  0  0
    1.1522    1.6633    2.1776 C   0  0  0  0  0  0  0  0  0  0  0  0
    1.3996    0.7341    1.2427 C   0  0  0  0  0  0  0  0  0  0  0  0
    2.6854    0.8047    0.4898 C   0  0  0  0  0  0  0  0  0  0  0  0
    3.5056    1.6946    0.6994 O   0  0  0  0  0  0  0  0  0  0  0  0
    2.8731   -0.1874   -0.4390 N   0  0  0  0  0  0  0  0  0  0  0  0
    4.0845   -0.3154   -1.2251 C   0  0  0  0  0  0  0  0  0  0  0  0
    5.1809   -1.0403   -0.4548 C   0  0  0  0  0  0  0  0  0  0  0  0
    6.3441   -1.5460   -1.3184 C   0  0  0  0  0  0  0  0  0  0  0  0
    7.1067   -0.4792   -1.9721 N   0  0  0  0  0  0  0  0  0  0  0  0
    8.5153   -0.8471   -2.1549 C   0  0  0  0  0  0  0  0  0  0  0  0
    9.0253    0.2024   -3.1293 C   0  0  0  0  0  0  0  0  0  0  0  0
    7.7963    0.6349   -3.9183 C   0  0  0  0  0  0  0  0  0  0  0  0
    6.6430   -0.1652   -3.3276 C   0  0  0  0  0  0  0  0  0  0  0  0
    0.3534   -0.2936    1.0375 C   0  0  0  0  0  0  0  0  0  0  0  0
    0.4837   -1.1916    0.2079 O   0  0  0  0  0  0  0  0  0  0  0  0
   -0.8833   -0.2048    1.8546 C   0  0  0  0  0  0  0  0  0  0  0  0
   -1.8861   -1.1647    1.6479 C   0  0  0  0  0  0  0  0  0  0  0  0
   -3.0737   -1.0796    2.3693 C   0  0  0  0  0  0  0  0  0  0  0  0
   -4.3421   -2.3075    2.1291 S   0  0  0  0  0  6  0  0  0  0  0  0
   -3.6755   -3.5424    1.7768 O   0  0  0  0  0  0  0  0  0  0  0  0
   -5.2266   -2.2356    3.2732 O   0  0  0  0  0  0  0  0  0  0  0  0
   -5.1876   -1.7472    0.7756 N   0  0  0  0  0  0  0  0  0  0  0  0
   -4.4879   -1.7573   -0.5275 C   0  0  0  0  0  0  0  0  0  0  0  0
   -5.5222   -1.7891   -1.6520 C   0  0  0  0  0  0  0  0  0  0  0  0
   -6.5175   -0.6643   -1.5209 C   0  0  0  0  0  0  0  0  0  0  0  0
   -7.2322   -0.2252   -2.6433 C   0  0  0  0  0  0  0  0  0  0  0  0
   -8.1770    0.7930   -2.5229 C   0  0  0  0  0  0  0  0  0  0  0  0
   -8.4217    1.3734   -1.2810 C   0  0  0  0  0  0  0  0  0  0  0  0
   -7.7248    0.9338   -0.1553 C   0  0  0  0  0  0  0  0  0  0  0  0
   -6.7741   -0.0931   -0.2610 C   0  0  0  0  0  0  0  0  0  0  0  0
   -6.0253   -0.5436    0.9776 C   0  0  0  0  0  0  0  0  0  0  0  0
   -3.2434   -0.0767    3.3220 C   0  0  0  0  0  0  0  0  0  0  0  0
   -2.2305    0.8693    3.5290 C   0  0  0  0  0  0  0  0  0  0  0  0
   -1.0272    0.8337    2.8026 C   0  0  0  0  0  0  0  0  0  0  0  0
   -0.2988    4.4391    2.5028 H   0  0  0  0  0  0  0  0  0  0  0  0
   -0.8963    4.8518    4.1191 H   0  0  0  0  0  0  0  0  0  0  0  0
   -1.8450    3.7917    3.0644 H   0  0  0  0  0  0  0  0  0  0  0  0
   -0.5819    2.5097    4.8897 H   0  0  0  0  0  0  0  0  0  0  0  0
    0.9016    3.1750    4.2821 H   0  0  0  0  0  0  0  0  0  0  0  0
    1.8861    2.4449    2.3714 H   0  0  0  0  0  0  0  0  0  0  0  0
    2.1567   -0.9088   -0.5263 H   0  0  0  0  0  0  0  0  0  0  0  0
    4.4144    0.6878   -1.5124 H   0  0  0  0  0  0  0  0  0  0  0  0
    3.8122   -0.8691   -2.1295 H   0  0  0  0  0  0  0  0  0  0  0  0
    5.5656   -0.3868    0.3385 H   0  0  0  0  0  0  0  0  0  0  0  0
    4.7460   -1.9084    0.0584 H   0  0  0  0  0  0  0  0  0  0  0  0
    5.9887   -2.2927   -2.0401 H   0  0  0  0  0  0  0  0  0  0  0  0
    7.0065   -2.0898   -0.6305 H   0  0  0  0  0  0  0  0  0  0  0  0
    9.0734   -0.8226   -1.2132 H   0  0  0  0  0  0  0  0  0  0  0  0
    8.6164   -1.8473   -2.5970 H   0  0  0  0  0  0  0  0  0  0  0  0
    9.4422    1.0628   -2.5920 H   0  0  0  0  0  0  0  0  0  0  0  0
    9.8081   -0.1987   -3.7810 H   0  0  0  0  0  0  0  0  0  0  0  0
    7.6316    1.7111   -3.7888 H   0  0  0  0  0  0  0  0  0  0  0  0
    7.9119    0.4389   -4.9892 H   0  0  0  0  0  0  0  0  0  0  0  0
    6.4867   -1.0743   -3.9230 H   0  0  0  0  0  0  0  0  0  0  0  0
    5.7207    0.4201   -3.3426 H   0  0  0  0  0  0  0  0  0  0  0  0
   -1.7340   -1.9692    0.9305 H   0  0  0  0  0  0  0  0  0  0  0  0
   -3.8557   -0.8658   -0.6166 H   0  0  0  0  0  0  0  0  0  0  0  0
   -3.8482   -2.6402   -0.6221 H   0  0  0  0  0  0  0  0  0  0  0  0
   -5.0014   -1.7220   -2.6144 H   0  0  0  0  0  0  0  0  0  0  0  0
   -6.0714   -2.7384   -1.6291 H   0  0  0  0  0  0  0  0  0  0  0  0
   -7.0581   -0.6768   -3.6173 H   0  0  0  0  0  0  0  0  0  0  0  0
   -8.7267    1.1294   -3.3982 H   0  0  0  0  0  0  0  0  0  0  0  0
   -9.1618    2.1641   -1.1885 H   0  0  0  0  0  0  0  0  0  0  0  0
   -7.9341    1.3925    0.8088 H   0  0  0  0  0  0  0  0  0  0  0  0
   -6.7678   -0.7615    1.7541 H   0  0  0  0  0  0  0  0  0  0  0  0
   -5.3976    0.2920    1.3058 H   0  0  0  0  0  0  0  0  0  0  0  0
   -4.1539   -0.0223    3.9163 H   0  0  0  0  0  0  0  0  0  0  0  0
   -2.4192    1.6321    4.2783 H   0  0  0  0  0  0  0  0  0  0  0  0
  1  2  1  0
  2  3  1  0
  3  4  1  0
  4  5  2  0
  5  6  1  0
  6  7  2  0
  6  8  1  0
  8  9  1  0
  9 10  1  0
 10 11  1  0
 11 12  1  0
 12 13  1  0
 13 14  1  0
 14 15  1  0
 15 16  1  0
  5 17  1  0
 17 18  2  0
 17 19  1  0
 19 20  2  0
 20 21  1  0
 21 22  1  0
 22 23  2  0
 22 24  2  0
 22 25  1  0
 25 26  1  0
 26 27  1  0
 27 28  1  0
 28 29  2  0
 29 30  1  0
 30 31  2  0
 31 32  1  0
 32 33  2  0
 33 34  1  0
 21 35  2  0
 35 36  1  0
 36 37  2  0
 37  3  1  0
 16 12  1  0
 37 19  1  0
 34 25  1  0
 33 28  1  0
  1 38  1  0
  1 39  1  0
  1 40  1  0
  2 41  1  0
  2 42  1  0
  4 43  1  0
  8 44  1  0
  9 45  1  0
  9 46  1  0
 10 47  1  0
 10 48  1  0
 11 49  1  0
 11 50  1  0
 13 51  1  0
 13 52  1  0
 14 53  1  0
 14 54  1  0
 15 55  1  0
 15 56  1  0
 16 57  1  0
 16 58  1  0
 20 59  1  0
 26 60  1  0
 26 61  1  0
 27 62  1  0
 27 63  1  0
 29 64  1  0
 30 65  1  0
 31 66  1  0
 32 67  1  0
 34 68  1  0
 34 69  1  0
 35 70  1  0
 36 71  1  0
M  END
$$$$
