
     RDKit          3D

 68 69  0  0  0  0  0  0  0  0999 V2000
    9.2542    0.7210   -2.1033 C   0  0  0  0  0  0  0  0  0  0  0  0
    8.0777    1.6075   -1.7179 C   0  0  0  0  0  0  0  0  0  0  0  0
    6.7849    0.8307   -1.4587 C   0  0  0  0  0  0  0  0  0  0  0  0
    6.8573   -0.0732   -0.2217 C   0  0  0  0  0  0  0  0  0  0  0  0
    5.5451   -0.8092    0.0494 C   0  0  0  0  0  0  0  0  0  0  0  0
    4.4423    0.0901    0.6040 C   0  0  0  0  0  0  0  0  0  0  0  0
    3.2714   -0.7148    0.8538 O   0  0  0  0  0  0  0  0  0  0  0  0
    2.3463   -0.7502   -0.1466 C   0  0  0  0  0  0  0  0  0  0  0  0
    2.3863   -0.1051   -1.1871 O   0  0  0  0  0  0  0  0  0  0  0  0
    1.2115   -1.7064    0.1934 C   0  0  0  0  0  0  0  0  0  0  0  0
    0.2363   -1.2835    1.3424 N   0  0  0  0  0  4  0  0  0  0  0  0
    0.9511   -1.4020    2.6926 C   0  0  0  0  0  0  0  0  0  0  0  0
   -0.2133    0.1626    1.1588 C   0  0  0  0  0  0  0  0  0  0  0  0
   -0.9809   -2.2525    1.3699 C   0  0  0  0  0  0  0  0  0  0  0  0
   -2.0156   -2.0346    0.2488 C   0  0  0  0  0  0  0  0  0  0  0  0
   -2.8826   -0.9542    0.6039 O   0  0  0  0  0  0  0  0  0  0  0  0
   -3.9994   -0.8363   -0.2834 C   0  0  0  0  0  0  0  0  0  0  0  0
   -3.6326   -0.0746   -1.5779 C   0  0  0  0  0  0  0  0  0  0  0  0
   -4.6798    1.0636   -1.6173 C   0  0  0  0  0  0  0  0  0  0  0  0
   -6.0478    0.4036   -1.9109 C   0  0  0  0  0  0  0  0  0  0  0  0
   -6.3940   -0.2784   -0.5742 C   0  0  0  0  0  0  0  0  0  0  0  0
   -5.1525    0.0423    0.3098 C   0  0  0  0  0  0  0  0  0  0  0  0
   -5.4102   -0.1732    1.7903 C   0  0  0  0  0  0  0  0  0  0  0  0
   -4.8009    1.4976   -0.1333 C   0  0  0  0  0  0  0  0  0  0  0  0
   -3.5100    2.0916    0.4581 C   0  0  0  0  0  0  0  0  0  0  0  0
   -5.8996    2.5517    0.1239 C   0  0  0  0  0  0  0  0  0  0  0  0
    9.0157    0.1054   -2.9765 H   0  0  0  0  0  0  0  0  0  0  0  0
   10.1216    1.3399   -2.3513 H   0  0  0  0  0  0  0  0  0  0  0  0
    9.5437    0.0582   -1.2814 H   0  0  0  0  0  0  0  0  0  0  0  0
    8.3404    2.1989   -0.8324 H   0  0  0  0  0  0  0  0  0  0  0  0
    7.8970    2.3197   -2.5340 H   0  0  0  0  0  0  0  0  0  0  0  0
    5.9776    1.5627   -1.3342 H   0  0  0  0  0  0  0  0  0  0  0  0
    6.5357    0.2296   -2.3426 H   0  0  0  0  0  0  0  0  0  0  0  0
    7.6415   -0.8269   -0.3664 H   0  0  0  0  0  0  0  0  0  0  0  0
    7.1395    0.5174    0.6583 H   0  0  0  0  0  0  0  0  0  0  0  0
    5.7319   -1.6113    0.7753 H   0  0  0  0  0  0  0  0  0  0  0  0
    5.1962   -1.3135   -0.8602 H   0  0  0  0  0  0  0  0  0  0  0  0
    4.2123    0.9332   -0.0562 H   0  0  0  0  0  0  0  0  0  0  0  0
    4.7491    0.5096    1.5678 H   0  0  0  0  0  0  0  0  0  0  0  0
    1.6265   -2.6869    0.4544 H   0  0  0  0  0  0  0  0  0  0  0  0
    0.6097   -1.8346   -0.7101 H   0  0  0  0  0  0  0  0  0  0  0  0
    1.7529   -0.6646    2.7423 H   0  0  0  0  0  0  0  0  0  0  0  0
    0.2266   -1.1989    3.4873 H   0  0  0  0  0  0  0  0  0  0  0  0
    1.3433   -2.4201    2.7855 H   0  0  0  0  0  0  0  0  0  0  0  0
   -0.9860    0.3824    1.9013 H   0  0  0  0  0  0  0  0  0  0  0  0
   -0.5821    0.2907    0.1377 H   0  0  0  0  0  0  0  0  0  0  0  0
    0.6472    0.8179    1.3187 H   0  0  0  0  0  0  0  0  0  0  0  0
   -0.5588   -3.2620    1.3114 H   0  0  0  0  0  0  0  0  0  0  0  0
   -1.4639   -2.1210    2.3448 H   0  0  0  0  0  0  0  0  0  0  0  0
   -1.5492   -1.8277   -0.7143 H   0  0  0  0  0  0  0  0  0  0  0  0
   -2.6111   -2.9488    0.1628 H   0  0  0  0  0  0  0  0  0  0  0  0
   -4.3773   -1.8416   -0.5151 H   0  0  0  0  0  0  0  0  0  0  0  0
   -2.6122    0.3220   -1.5545 H   0  0  0  0  0  0  0  0  0  0  0  0
   -3.7095   -0.7279   -2.4553 H   0  0  0  0  0  0  0  0  0  0  0  0
   -4.4219    1.8562   -2.3231 H   0  0  0  0  0  0  0  0  0  0  0  0
   -5.9969   -0.3162   -2.7349 H   0  0  0  0  0  0  0  0  0  0  0  0
   -6.8067    1.1478   -2.1732 H   0  0  0  0  0  0  0  0  0  0  0  0
   -7.3192    0.1315   -0.1535 H   0  0  0  0  0  0  0  0  0  0  0  0
   -6.5538   -1.3556   -0.7025 H   0  0  0  0  0  0  0  0  0  0  0  0
   -4.5416    0.0995    2.3985 H   0  0  0  0  0  0  0  0  0  0  0  0
   -5.6450   -1.2243    1.9942 H   0  0  0  0  0  0  0  0  0  0  0  0
   -6.2583    0.4265    2.1362 H   0  0  0  0  0  0  0  0  0  0  0  0
   -3.2976    3.0709    0.0131 H   0  0  0  0  0  0  0  0  0  0  0  0
   -3.6051    2.2354    1.5401 H   0  0  0  0  0  0  0  0  0  0  0  0
   -2.6225    1.4856    0.2963 H   0  0  0  0  0  0  0  0  0  0  0  0
   -5.6597    3.4832   -0.4012 H   0  0  0  0  0  0  0  0  0  0  0  0
   -5.9744    2.7839    1.1907 H   0  0  0  0  0  0  0  0  0  0  0  0
   -6.9008    2.2596   -0.2006 H   0  0  0  0  0  0  0  0  0  0  0  0
  1  2  1  0
  2  3  1  0
  3  4  1  0
  4  5  1  0
  5  6  1  0
  6  7  1  0
  7  8  1  0
  8  9  2  0
  8 10  1  0
 10 11  1  0
 11 12  1  0
 11 13  1  0
 11 14  1  0
 14 15  1  0
 15 16  1  0
 16 17  1  0
 17 18  1  0
 18 19  1  0
 19 20  1  0
 20 21  1  0
 21 22  1  0
 22 23  1  0
 22 24  1  0
 24 25  1  0
 24 26  1  0
 22 17  1  0
 24 19  1  0
  1 27  1  0
  1 28  1  0
  1 29  1  0
  2 30  1  0
  2 31  1  0
  3 32  1  0
  3 33  1  0
  4 34  1  0
  4 35  1  0
  5 36  1  0
  5 37  1  0
  6 38  1  0
  6 39  1  0
 10 40  1  0
 10 41  1  0
 12 42  1  0
 12 43  1  0
 12 44  1  0
 13 45  1  0
 13 46  1  0
 13 47  1  0
 14 48  1  0
 14 49  1  0
 15 50  1  0
 15 51  1  0
 17 52  1  0
 18 53  1  0
 18 54  1  0
 19 55  1  0
 20 56  1  0
 20 57  1  0
 21 58  1  0
 21 59  1  0
 23 60  1  0
 23 61  1  0
 23 62  1  0
 25 63  1  0
 25 64  1  0
 25 65  1  0
 26 66  1  0
 26 67  1  0
 26 68  1  0
M  CHG  1  11   1
M  END
$$$$
