
     RDKit          3D

 44 46  0  0  0  0  0  0  0  0999 V2000
    6.9049   -2.1330    0.3248 C   0  0  0  0  0  0  0  0  0  0  0  0
    6.2281   -1.7211   -0.8571 O   0  0  0  0  0  0  0  0  0  0  0  0
    5.1389   -0.9118   -0.6915 C   0  0  0  0  0  0  0  0  0  0  0  0
    4.4281   -0.6401   -1.8607 C   0  0  0  0  0  0  0  0  0  0  0  0
    3.2934    0.1757   -1.8297 C   0  0  0  0  0  0  0  0  0  0  0  0
    2.8516    0.7351   -0.6258 C   0  0  0  0  0  0  0  0  0  0  0  0
    1.6999    1.5426   -0.6782 N   0  0  0  0  0  0  0  0  0  0  0  0
    1.0252    2.1320    0.3785 C   0  0  0  0  0  0  0  0  0  0  0  0
    1.3047    2.0343    1.5712 O   0  0  0  0  0  0  0  0  0  0  0  0
   -0.1793    2.9643   -0.0791 C   0  0  0  0  0  0  0  0  0  0  0  0
   -1.3923    2.2326   -0.1335 O   0  0  0  0  0  0  0  0  0  0  0  0
   -1.5197    1.3674   -1.1768 C   0  0  0  0  0  0  0  0  0  0  0  0
   -0.7458    1.5380   -2.2549 N   0  0  0  0  0  0  0  0  0  0  0  0
   -1.2804    0.3699   -3.3265 S   0  0  0  0  0  0  0  0  0  0  0  0
   -2.4724   -0.3552   -2.4219 N   0  0  0  0  0  0  0  0  0  0  0  0
   -2.4959    0.2768   -1.2391 C   0  0  0  0  0  0  0  0  0  0  0  0
   -3.3606   -0.0667   -0.2244 N   0  0  0  0  0  0  0  0  0  0  0  0
   -3.0694    0.2580    1.1767 C   0  0  0  0  0  0  0  0  0  0  0  0
   -3.5945   -0.8288    2.1129 C   0  0  0  0  0  0  0  0  0  0  0  0
   -5.0966   -1.0490    1.9554 C   0  0  0  0  0  0  0  0  0  0  0  0
   -5.5710   -0.8283    0.5202 C   0  0  0  0  0  0  0  0  0  0  0  0
   -4.4452   -1.0159   -0.4942 C   0  0  0  0  0  0  0  0  0  0  0  0
    3.5690    0.4699    0.5399 C   0  0  0  0  0  0  0  0  0  0  0  0
    4.7068   -0.3497    0.5087 C   0  0  0  0  0  0  0  0  0  0  0  0
    7.7146   -2.8060    0.0258 H   0  0  0  0  0  0  0  0  0  0  0  0
    6.2353   -2.6908    0.9893 H   0  0  0  0  0  0  0  0  0  0  0  0
    7.3578   -1.2788    0.8426 H   0  0  0  0  0  0  0  0  0  0  0  0
    4.7589   -1.0714   -2.8057 H   0  0  0  0  0  0  0  0  0  0  0  0
    2.7642    0.3614   -2.7610 H   0  0  0  0  0  0  0  0  0  0  0  0
    1.2476    1.6241   -1.5877 H   0  0  0  0  0  0  0  0  0  0  0  0
    0.0363    3.5005   -1.0130 H   0  0  0  0  0  0  0  0  0  0  0  0
   -0.3155    3.7522    0.6717 H   0  0  0  0  0  0  0  0  0  0  0  0
   -1.9892    0.3344    1.3521 H   0  0  0  0  0  0  0  0  0  0  0  0
   -3.5245    1.2247    1.4271 H   0  0  0  0  0  0  0  0  0  0  0  0
   -3.3613   -0.5807    3.1538 H   0  0  0  0  0  0  0  0  0  0  0  0
   -3.0719   -1.7698    1.8897 H   0  0  0  0  0  0  0  0  0  0  0  0
   -5.3450   -2.0663    2.2815 H   0  0  0  0  0  0  0  0  0  0  0  0
   -5.6469   -0.3695    2.6195 H   0  0  0  0  0  0  0  0  0  0  0  0
   -5.9639    0.1943    0.4326 H   0  0  0  0  0  0  0  0  0  0  0  0
   -6.4046   -1.5055    0.2958 H   0  0  0  0  0  0  0  0  0  0  0  0
   -4.0608   -2.0442   -0.4547 H   0  0  0  0  0  0  0  0  0  0  0  0
   -4.8634   -0.8590   -1.4968 H   0  0  0  0  0  0  0  0  0  0  0  0
    3.2738    0.8902    1.4987 H   0  0  0  0  0  0  0  0  0  0  0  0
    5.2310   -0.5184    1.4439 H   0  0  0  0  0  0  0  0  0  0  0  0
  1  2  1  0
  2  3  1  0
  3  4  2  0
  4  5  1  0
  5  6  2  0
  6  7  1  0
  7  8  1  0
  8  9  2  0
  8 10  1  0
 10 11  1  0
 11 12  1  0
 12 13  2  0
 13 14  1  0
 14 15  1  0
 15 16  2  0
 16 17  1  0
 17 18  1  0
 18 19  1  0
 19 20  1  0
 20 21  1  0
 21 22  1  0
  6 23  1  0
 23 24  2  0
 24  3  1  0
 16 12  1  0
 22 17  1  0
  1 25  1  0
  1 26  1  0
  1 27  1  0
  4 28  1  0
  5 29  1  0
  7 30  1  0
 10 31  1  0
 10 32  1  0
 18 33  1  0
 18 34  1  0
 19 35  1  0
 19 36  1  0
 20 37  1  0
 20 38  1  0
 21 39  1  0
 21 40  1  0
 22 41  1  0
 22 42  1  0
 23 43  1  0
 24 44  1  0
M  END
$$$$
