
     RDKit          3D

 43 46  0  0  0  0  0  0  0  0999 V2000
   -0.9879    0.3479    2.8110 O   0  0  0  0  0  0  0  0  0  0  0  0
   -0.8965    0.4631    1.3075 P   0  0  0  0  0  5  0  0  0  0  0  0
   -1.4640   -0.7611    0.3611 N   0  0  0  0  0  0  0  0  0  0  0  0
   -2.7466   -1.3566    0.3112 C   0  0  0  0  0  0  0  0  0  0  0  0
   -2.8720   -2.6072   -0.3495 C   0  0  0  0  0  0  0  0  0  0  0  0
   -1.4769   -3.3931   -1.0160 Cl  0  0  0  0  0  0  0  0  0  0  0  0
   -4.1026   -3.2643   -0.4898 C   0  0  0  0  0  0  0  0  0  0  0  0
   -5.2558   -2.6857    0.0212 C   0  0  0  0  0  0  0  0  0  0  0  0
   -5.1707   -1.4554    0.6687 C   0  0  0  0  0  0  0  0  0  0  0  0
   -3.9372   -0.7917    0.8068 C   0  0  0  0  0  0  0  0  0  0  0  0
   -4.0222    0.7555    1.5692 Cl  0  0  0  0  0  0  0  0  0  0  0  0
   -1.0862    2.0928    0.6050 C   0  0  0  0  0  0  0  0  0  0  0  0
   -1.1318    3.2231    1.4330 C   0  0  0  0  0  0  0  0  0  0  0  0
   -1.2783    4.4968    0.8849 C   0  0  0  0  0  0  0  0  0  0  0  0
   -1.3833    4.6546   -0.4970 C   0  0  0  0  0  0  0  0  0  0  0  0
   -1.3453    3.5397   -1.3311 C   0  0  0  0  0  0  0  0  0  0  0  0
   -1.2005    2.2658   -0.7836 C   0  0  0  0  0  0  0  0  0  0  0  0
    0.7911    0.0714    0.7937 C   0  0  0  0  0  0  0  0  0  0  0  0
    1.0983   -0.9853    0.0533 N   0  0  0  0  0  0  0  0  0  0  0  0
    2.4580   -0.9969   -0.1717 C   0  0  0  0  0  0  0  0  0  0  0  0
    3.1597    0.0549    0.3778 C   0  0  0  0  0  0  0  0  0  0  0  0
    2.1197    1.0752    1.2527 S   0  0  0  0  0  0  0  0  0  0  0  0
    4.6227    0.2934    0.2154 C   0  0  0  0  0  0  0  0  0  0  0  0
    5.3164   -0.9909   -0.2714 C   0  0  0  0  0  0  0  0  0  0  0  0
    4.5253   -1.6821   -1.3972 C   0  0  0  0  0  0  0  0  0  0  0  0
    3.1150   -2.0954   -0.9385 C   0  0  0  0  0  0  0  0  0  0  0  0
   -0.7403   -1.4095    0.0322 H   0  0  0  0  0  0  0  0  0  0  0  0
   -4.1616   -4.2263   -0.9904 H   0  0  0  0  0  0  0  0  0  0  0  0
   -6.2163   -3.1830   -0.0861 H   0  0  0  0  0  0  0  0  0  0  0  0
   -6.0803   -1.0041    1.0601 H   0  0  0  0  0  0  0  0  0  0  0  0
   -1.0570    3.1060    2.5128 H   0  0  0  0  0  0  0  0  0  0  0  0
   -1.3122    5.3644    1.5369 H   0  0  0  0  0  0  0  0  0  0  0  0
   -1.4978    5.6467   -0.9241 H   0  0  0  0  0  0  0  0  0  0  0  0
   -1.4297    3.6592   -2.4097 H   0  0  0  0  0  0  0  0  0  0  0  0
   -1.1749    1.4002   -1.4441 H   0  0  0  0  0  0  0  0  0  0  0  0
    4.7697    1.0836   -0.5331 H   0  0  0  0  0  0  0  0  0  0  0  0
    5.0832    0.6346    1.1523 H   0  0  0  0  0  0  0  0  0  0  0  0
    6.3258   -0.7454   -0.6191 H   0  0  0  0  0  0  0  0  0  0  0  0
    5.4281   -1.6873    0.5704 H   0  0  0  0  0  0  0  0  0  0  0  0
    5.0705   -2.5661   -1.7506 H   0  0  0  0  0  0  0  0  0  0  0  0
    4.4471   -0.9910   -2.2448 H   0  0  0  0  0  0  0  0  0  0  0  0
    3.1904   -2.9730   -0.2853 H   0  0  0  0  0  0  0  0  0  0  0  0
    2.5072   -2.3777   -1.8042 H   0  0  0  0  0  0  0  0  0  0  0  0
  1  2  2  0
  2  3  1  0
  3  4  1  0
  4  5  2  0
  5  6  1  0
  5  7  1  0
  7  8  2  0
  8  9  1  0
  9 10  2  0
 10 11  1  0
  2 12  1  0
 12 13  2  0
 13 14  1  0
 14 15  2  0
 15 16  1  0
 16 17  2  0
  2 18  1  0
 18 19  2  0
 19 20  1  0
 20 21  2  0
 21 22  1  0
 21 23  1  0
 23 24  1  0
 24 25  1  0
 25 26  1  0
 10  4  1  0
 17 12  1  0
 22 18  1  0
 26 20  1  0
  3 27  1  0
  7 28  1  0
  8 29  1  0
  9 30  1  0
 13 31  1  0
 14 32  1  0
 15 33  1  0
 16 34  1  0
 17 35  1  0
 23 36  1  0
 23 37  1  0
 24 38  1  0
 24 39  1  0
 25 40  1  0
 25 41  1  0
 26 42  1  0
 26 43  1  0
M  END
$$$$
