
     RDKit          3D

 63 67  0  0  0  0  0  0  0  0999 V2000
   -3.5642    3.6880    6.4279 Cl  0  0  0  0  0  0  0  0  0  0  0  0
   -3.0355    2.4378    5.3754 C   0  0  0  0  0  0  0  0  0  0  0  0
   -1.7185    2.4227    4.9243 C   0  0  0  0  0  0  0  0  0  0  0  0
   -1.2903    1.4099    4.0620 C   0  0  0  0  0  0  0  0  0  0  0  0
   -2.1732    0.3948    3.6428 C   0  0  0  0  0  0  0  0  0  0  0  0
   -1.6687   -0.6671    2.6756 C   0  0  0  0  0  0  0  0  0  0  0  0
   -2.3890   -2.0092    2.7019 C   0  0  0  0  0  0  0  0  0  0  0  0
   -2.0346   -2.9549    3.6840 C   0  0  0  0  0  0  0  0  0  0  0  0
   -2.6754   -4.1954    3.7510 C   0  0  0  0  0  0  0  0  0  0  0  0
   -3.6829   -4.5045    2.8425 C   0  0  0  0  0  0  0  0  0  0  0  0
   -4.4693   -6.0292    2.9212 Cl  0  0  0  0  0  0  0  0  0  0  0  0
   -4.0592   -3.5807    1.8715 C   0  0  0  0  0  0  0  0  0  0  0  0
   -3.4201   -2.3387    1.8032 C   0  0  0  0  0  0  0  0  0  0  0  0
   -1.6197   -0.1381    1.2942 N   0  0  0  0  0  0  0  0  0  0  0  0
   -2.3634    0.8979    0.7367 C   0  0  0  0  0  0  0  0  0  0  0  0
   -1.9233    1.0556   -0.5469 C   0  0  0  0  0  0  0  0  0  0  0  0
   -0.9208    0.1206   -0.7423 N   0  0  0  0  0  4  0  0  0  0  0  0
   -0.1226   -0.0510   -1.9689 C   0  0  0  0  0  0  0  0  0  0  0  0
    1.3011    0.5503   -1.8721 C   0  0  0  0  0  0  0  0  0  0  0  0
    2.0201    0.1300   -3.0396 O   0  0  0  0  0  0  0  0  0  0  0  0
    3.4394    0.2096   -2.8957 C   0  0  0  0  0  0  0  0  0  0  0  0
    4.0456   -0.8932   -3.7231 C   0  0  0  0  0  0  0  0  0  0  0  0
    4.7125   -0.5713   -4.9181 C   0  0  0  0  0  0  0  0  0  0  0  0
    5.2770   -1.5736   -5.7102 C   0  0  0  0  0  0  0  0  0  0  0  0
    5.1776   -2.9053   -5.3169 C   0  0  0  0  0  0  0  0  0  0  0  0
    5.8710   -4.1373   -6.2961 Cl  0  0  0  0  0  0  0  0  0  0  0  0
    4.5187   -3.2480   -4.1391 C   0  0  0  0  0  0  0  0  0  0  0  0
    3.9531   -2.2458   -3.3473 C   0  0  0  0  0  0  0  0  0  0  0  0
    3.1335   -2.7288   -1.8997 Cl  0  0  0  0  0  0  0  0  0  0  0  0
    1.2566    2.0674   -1.7769 C   0  0  0  0  0  0  0  0  0  0  0  0
    1.0644    2.8293   -2.9467 C   0  0  0  0  0  0  0  0  0  0  0  0
    0.9996    4.2231   -2.8935 C   0  0  0  0  0  0  0  0  0  0  0  0
    1.1215    4.8746   -1.6707 C   0  0  0  0  0  0  0  0  0  0  0  0
    1.0314    6.5896   -1.6038 Cl  0  0  0  0  0  0  0  0  0  0  0  0
    1.3072    4.1462   -0.4995 C   0  0  0  0  0  0  0  0  0  0  0  0
    1.3723    2.7509   -0.5514 C   0  0  0  0  0  0  0  0  0  0  0  0
    1.5771    1.9157    0.9493 Cl  0  0  0  0  0  0  0  0  0  0  0  0
   -0.7738   -0.6179    0.3682 C   0  0  0  0  0  0  0  0  0  0  0  0
   -3.5003    0.4325    4.1095 C   0  0  0  0  0  0  0  0  0  0  0  0
   -3.9265    1.4478    4.9721 C   0  0  0  0  0  0  0  0  0  0  0  0
   -1.0229    3.1960    5.2424 H   0  0  0  0  0  0  0  0  0  0  0  0
   -0.2552    1.4243    3.7220 H   0  0  0  0  0  0  0  0  0  0  0  0
   -0.6199   -0.8718    2.9404 H   0  0  0  0  0  0  0  0  0  0  0  0
   -1.2594   -2.7342    4.4180 H   0  0  0  0  0  0  0  0  0  0  0  0
   -2.3899   -4.9126    4.5179 H   0  0  0  0  0  0  0  0  0  0  0  0
   -4.8554   -3.8216    1.1699 H   0  0  0  0  0  0  0  0  0  0  0  0
   -3.7510   -1.6354    1.0425 H   0  0  0  0  0  0  0  0  0  0  0  0
   -3.1139    1.4046    1.3209 H   0  0  0  0  0  0  0  0  0  0  0  0
   -2.1885    1.7256   -1.3474 H   0  0  0  0  0  0  0  0  0  0  0  0
   -0.0548   -1.1289   -2.1665 H   0  0  0  0  0  0  0  0  0  0  0  0
   -0.6759    0.3759   -2.8150 H   0  0  0  0  0  0  0  0  0  0  0  0
    1.7880    0.1072   -0.9974 H   0  0  0  0  0  0  0  0  0  0  0  0
    3.7698    1.1952   -3.2448 H   0  0  0  0  0  0  0  0  0  0  0  0
    3.7653    0.1079   -1.8526 H   0  0  0  0  0  0  0  0  0  0  0  0
    4.7975    0.4643   -5.2451 H   0  0  0  0  0  0  0  0  0  0  0  0
    5.7926   -1.3085   -6.6315 H   0  0  0  0  0  0  0  0  0  0  0  0
    4.4477   -4.2905   -3.8421 H   0  0  0  0  0  0  0  0  0  0  0  0
    0.9767    2.3416   -3.9183 H   0  0  0  0  0  0  0  0  0  0  0  0
    0.8600    4.7946   -3.8095 H   0  0  0  0  0  0  0  0  0  0  0  0
    1.4035    4.6690    0.4496 H   0  0  0  0  0  0  0  0  0  0  0  0
   -0.0803   -1.4418    0.5000 H   0  0  0  0  0  0  0  0  0  0  0  0
   -4.2268   -0.3243    3.8170 H   0  0  0  0  0  0  0  0  0  0  0  0
   -4.9558    1.4592    5.3276 H   0  0  0  0  0  0  0  0  0  0  0  0
  1  2  1  0
  2  3  2  0
  3  4  1  0
  4  5  2  0
  5  6  1  0
  6  7  1  0
  7  8  2  0
  8  9  1  0
  9 10  2  0
 10 11  1  0
 10 12  1  0
 12 13  2  0
  6 14  1  0
 14 15  1  0
 15 16  2  0
 16 17  1  0
 17 18  1  0
 18 19  1  0
 19 20  1  0
 20 21  1  0
 21 22  1  0
 22 23  2  0
 23 24  1  0
 24 25  2  0
 25 26  1  0
 25 27  1  0
 27 28  2  0
 28 29  1  0
 19 30  1  0
 30 31  2  0
 31 32  1  0
 32 33  2  0
 33 34  1  0
 33 35  1  0
 35 36  2  0
 36 37  1  0
 17 38  2  0
  5 39  1  0
 39 40  2  0
 40  2  1  0
 13  7  1  0
 38 14  1  0
 28 22  1  0
 36 30  1  0
  3 41  1  0
  4 42  1  0
  6 43  1  0
  8 44  1  0
  9 45  1  0
 12 46  1  0
 13 47  1  0
 15 48  1  0
 16 49  1  0
 18 50  1  0
 18 51  1  0
 19 52  1  0
 21 53  1  0
 21 54  1  0
 23 55  1  0
 24 56  1  0
 27 57  1  0
 31 58  1  0
 32 59  1  0
 35 60  1  0
 38 61  1  0
 39 62  1  0
 40 63  1  0
M  CHG  1  17   1
M  END
$$$$
