
     RDKit          3D

 55 57  0  0  0  0  0  0  0  0999 V2000
    0.9017    1.1998    2.3946 O   0  0  0  0  0  0  0  0  0  0  0  0
    1.3670    0.8771    1.3067 C   0  0  0  0  0  0  0  0  0  0  0  0
    2.6551    1.0758    0.8339 N   0  0  0  0  0  0  0  0  0  0  0  0
    3.7048    1.7714    1.4594 C   0  0  0  0  0  0  0  0  0  0  0  0
    4.9742    1.6928    0.8617 C   0  0  0  0  0  0  0  0  0  0  0  0
    6.0670    2.3627    1.4194 C   0  0  0  0  0  0  0  0  0  0  0  0
    5.8973    3.1294    2.5690 C   0  0  0  0  0  0  0  0  0  0  0  0
    4.6359    3.2224    3.1629 C   0  0  0  0  0  0  0  0  0  0  0  0
    3.5435    2.5404    2.6129 C   0  0  0  0  0  0  0  0  0  0  0  0
    0.5393    0.1473    0.2889 C   0  0  0  0  0  0  0  0  0  0  0  0
   -0.2445   -0.8668    0.6898 C   0  0  0  0  0  0  0  0  0  0  0  0
   -1.0340   -1.6984   -0.2874 C   0  0  0  0  0  0  0  0  0  0  0  0
   -0.9060   -3.1953   -0.0380 C   0  0  0  0  0  0  0  0  0  0  0  0
   -2.0563   -3.9989   -0.0293 C   0  0  0  0  0  0  0  0  0  0  0  0
   -1.9612   -5.3776    0.1821 C   0  0  0  0  0  0  0  0  0  0  0  0
   -0.7131   -5.9855    0.3856 C   0  0  0  0  0  0  0  0  0  0  0  0
   -0.6275   -7.4683    0.6478 C   0  0  0  0  0  0  0  0  0  0  0  0
   -1.0409   -7.7977    1.9016 F   0  0  0  0  0  0  0  0  0  0  0  0
    0.6347   -7.9694    0.5267 F   0  0  0  0  0  0  0  0  0  0  0  0
   -1.3985   -8.2010   -0.2025 F   0  0  0  0  0  0  0  0  0  0  0  0
    0.4389   -5.1851    0.3708 C   0  0  0  0  0  0  0  0  0  0  0  0
    0.3447   -3.8078    0.1534 C   0  0  0  0  0  0  0  0  0  0  0  0
   -0.6432   -1.3676   -1.7397 C   0  0  0  0  0  0  0  0  0  0  0  0
   -0.4182    0.1355   -1.8740 C   0  0  0  0  0  0  0  0  0  0  0  0
   -1.6578    0.7991   -1.6147 O   0  0  0  0  0  0  0  0  0  0  0  0
   -1.5627    2.2214   -1.6475 C   0  0  0  0  0  0  0  0  0  0  0  0
   -2.9792    2.7751   -1.5237 C   0  0  0  0  0  0  0  0  0  0  0  0
   -2.9971    4.2902   -1.3140 C   0  0  0  0  0  0  0  0  0  0  0  0
   -4.4133    4.8073   -1.0796 C   0  0  0  0  0  0  0  0  0  0  0  0
   -5.2342    4.5428   -2.2120 O   0  0  0  0  0  0  0  0  0  0  0  0
    0.6624    0.5530   -1.0289 O   0  0  0  0  0  0  0  0  0  0  0  0
    2.8633    0.6533   -0.0636 H   0  0  0  0  0  0  0  0  0  0  0  0
    5.1310    1.1029   -0.0394 H   0  0  0  0  0  0  0  0  0  0  0  0
    7.0489    2.2893    0.9521 H   0  0  0  0  0  0  0  0  0  0  0  0
    6.7418    3.6624    2.9976 H   0  0  0  0  0  0  0  0  0  0  0  0
    4.4930    3.8326    4.0501 H   0  0  0  0  0  0  0  0  0  0  0  0
    2.5723    2.6527    3.0931 H   0  0  0  0  0  0  0  0  0  0  0  0
   -0.3117   -1.1200    1.7462 H   0  0  0  0  0  0  0  0  0  0  0  0
   -2.0865   -1.4168   -0.1357 H   0  0  0  0  0  0  0  0  0  0  0  0
   -3.0398   -3.5550   -0.1830 H   0  0  0  0  0  0  0  0  0  0  0  0
   -2.8714   -5.9784    0.1938 H   0  0  0  0  0  0  0  0  0  0  0  0
    1.4209   -5.6309    0.5302 H   0  0  0  0  0  0  0  0  0  0  0  0
    1.2579   -3.2143    0.1436 H   0  0  0  0  0  0  0  0  0  0  0  0
    0.2783   -1.8930   -2.0227 H   0  0  0  0  0  0  0  0  0  0  0  0
   -1.4374   -1.7004   -2.4184 H   0  0  0  0  0  0  0  0  0  0  0  0
   -0.1246    0.3572   -2.9075 H   0  0  0  0  0  0  0  0  0  0  0  0
   -1.1038    2.5498   -2.5875 H   0  0  0  0  0  0  0  0  0  0  0  0
   -0.9504    2.5649   -0.8070 H   0  0  0  0  0  0  0  0  0  0  0  0
   -3.4979    2.2710   -0.6990 H   0  0  0  0  0  0  0  0  0  0  0  0
   -3.5391    2.5155   -2.4309 H   0  0  0  0  0  0  0  0  0  0  0  0
   -2.3731    4.5549   -0.4507 H   0  0  0  0  0  0  0  0  0  0  0  0
   -2.5693    4.7817   -2.1967 H   0  0  0  0  0  0  0  0  0  0  0  0
   -4.8621    4.3226   -0.2038 H   0  0  0  0  0  0  0  0  0  0  0  0
   -4.4106    5.8926   -0.9042 H   0  0  0  0  0  0  0  0  0  0  0  0
   -5.1087    5.2817   -2.8324 H   0  0  0  0  0  0  0  0  0  0  0  0
  1  2  2  0
  2  3  1  0
  3  4  1  0
  4  5  2  0
  5  6  1  0
  6  7  2  0
  7  8  1  0
  8  9  2  0
  2 10  1  0
 10 11  2  0
 11 12  1  0
 12 13  1  0
 13 14  2  0
 14 15  1  0
 15 16  2  0
 16 17  1  0
 17 18  1  0
 17 19  1  0
 17 20  1  0
 16 21  1  0
 21 22  2  0
 12 23  1  0
 23 24  1  0
 24 25  1  0
 25 26  1  0
 26 27  1  0
 27 28  1  0
 28 29  1  0
 29 30  1  0
 24 31  1  0
  9  4  1  0
 31 10  1  0
 22 13  1  0
  3 32  1  0
  5 33  1  0
  6 34  1  0
  7 35  1  0
  8 36  1  0
  9 37  1  0
 11 38  1  0
 12 39  1  0
 14 40  1  0
 15 41  1  0
 21 42  1  0
 22 43  1  0
 23 44  1  0
 23 45  1  0
 24 46  1  0
 26 47  1  0
 26 48  1  0
 27 49  1  0
 27 50  1  0
 28 51  1  0
 28 52  1  0
 29 53  1  0
 29 54  1  0
 30 55  1  0
M  END
$$$$
