
     RDKit          3D

 56 59  0  0  0  0  0  0  0  0999 V2000
   -0.1925   -3.5768   -0.4371 C   0  0  0  0  0  0  0  0  0  0  0  0
   -0.2868   -2.9561    0.9451 C   0  0  0  0  0  0  0  0  0  0  0  0
   -1.0493   -1.7409    0.9010 O   0  0  0  0  0  0  0  0  0  0  0  0
   -0.3627   -0.6199    0.5405 C   0  0  0  0  0  0  0  0  0  0  0  0
    0.8238   -0.6253    0.2223 O   0  0  0  0  0  0  0  0  0  0  0  0
   -1.1781    0.6013    0.5400 C   0  0  0  0  0  0  0  0  0  0  0  0
   -0.6245    1.8425    0.2350 C   0  0  0  0  0  0  0  0  0  0  0  0
    0.7079    2.0903   -0.0442 N   0  0  0  0  0  0  0  0  0  0  0  0
    1.3174    3.2767   -0.4082 C   0  0  0  0  0  0  0  0  0  0  0  0
    0.7924    4.3852   -0.4871 O   0  0  0  0  0  0  0  0  0  0  0  0
    2.8271    3.1240   -0.6536 C   0  0  0  0  0  0  0  0  0  0  0  0
    3.2655    1.7263   -0.7307 N   0  0  0  0  0  0  0  0  0  0  0  0
    3.5257    1.1030    0.4702 N   0  0  0  0  0  0  0  0  0  0  0  0
    3.8510   -0.1569    0.4622 C   0  0  0  0  0  0  0  0  0  0  0  0
    4.1285   -0.7989    1.8093 C   0  0  0  0  0  0  0  0  0  0  0  0
    3.3423   -1.4931    2.4197 O   0  0  0  0  0  0  0  0  0  0  0  0
    5.3645   -0.5269    2.2373 O   0  0  0  0  0  0  0  0  0  0  0  0
    3.9536   -0.9732   -0.7527 C   0  0  0  0  0  0  0  0  0  0  0  0
    4.3032   -2.3292   -0.7337 C   0  0  0  0  0  0  0  0  0  0  0  0
    4.3765   -3.0432   -1.9323 C   0  0  0  0  0  0  0  0  0  0  0  0
    4.1006   -2.4101   -3.1438 C   0  0  0  0  0  0  0  0  0  0  0  0
    3.7485   -1.0600   -3.1604 C   0  0  0  0  0  0  0  0  0  0  0  0
    3.6765   -0.3416   -1.9601 C   0  0  0  0  0  0  0  0  0  0  0  0
    3.2963    1.0847   -1.9673 C   0  0  0  0  0  0  0  0  0  0  0  0
    3.0176    1.6325   -3.0300 O   0  0  0  0  0  0  0  0  0  0  0  0
   -1.7687    3.0912    0.2246 S   0  0  0  0  0  0  0  0  0  0  0  0
   -3.0269    2.0350    0.6378 C   0  0  0  0  0  0  0  0  0  0  0  0
   -2.5983    0.7318    0.8119 C   0  0  0  0  0  0  0  0  0  0  0  0
   -3.5673   -0.3598    1.1793 C   0  0  0  0  0  0  0  0  0  0  0  0
   -4.9246    0.1879    1.6503 C   0  0  0  0  0  0  0  0  0  0  0  0
   -5.4218    1.3417    0.7570 C   0  0  0  0  0  0  0  0  0  0  0  0
   -6.8169    1.7951    1.1799 C   0  0  0  0  0  0  0  0  0  0  0  0
   -4.4330    2.5249    0.8062 C   0  0  0  0  0  0  0  0  0  0  0  0
   -1.1906   -3.7214   -0.8643 H   0  0  0  0  0  0  0  0  0  0  0  0
    0.3588   -2.9273   -1.1250 H   0  0  0  0  0  0  0  0  0  0  0  0
    0.3156   -4.5440   -0.3915 H   0  0  0  0  0  0  0  0  0  0  0  0
   -0.8159   -3.6391    1.6186 H   0  0  0  0  0  0  0  0  0  0  0  0
    0.7061   -2.7855    1.3769 H   0  0  0  0  0  0  0  0  0  0  0  0
    1.3321    1.2846    0.0250 H   0  0  0  0  0  0  0  0  0  0  0  0
    3.3630    3.6118    0.1678 H   0  0  0  0  0  0  0  0  0  0  0  0
    3.0712    3.6355   -1.5906 H   0  0  0  0  0  0  0  0  0  0  0  0
    5.4140   -0.9192    3.1330 H   0  0  0  0  0  0  0  0  0  0  0  0
    4.5173   -2.8519    0.1947 H   0  0  0  0  0  0  0  0  0  0  0  0
    4.6485   -4.0966   -1.9221 H   0  0  0  0  0  0  0  0  0  0  0  0
    4.1571   -2.9671   -4.0767 H   0  0  0  0  0  0  0  0  0  0  0  0
    3.5292   -0.5702   -4.1076 H   0  0  0  0  0  0  0  0  0  0  0  0
   -3.1557   -0.9840    1.9793 H   0  0  0  0  0  0  0  0  0  0  0  0
   -3.7225   -0.9977    0.3006 H   0  0  0  0  0  0  0  0  0  0  0  0
   -5.6550   -0.6303    1.6642 H   0  0  0  0  0  0  0  0  0  0  0  0
   -4.8301    0.5449    2.6852 H   0  0  0  0  0  0  0  0  0  0  0  0
   -5.4815    0.9736   -0.2768 H   0  0  0  0  0  0  0  0  0  0  0  0
   -6.8209    2.1577    2.2141 H   0  0  0  0  0  0  0  0  0  0  0  0
   -7.1748    2.6063    0.5361 H   0  0  0  0  0  0  0  0  0  0  0  0
   -7.5319    0.9694    1.1075 H   0  0  0  0  0  0  0  0  0  0  0  0
   -4.6903    3.2468    0.0211 H   0  0  0  0  0  0  0  0  0  0  0  0
   -4.5112    3.0417    1.7709 H   0  0  0  0  0  0  0  0  0  0  0  0
  1  2  1  0
  2  3  1  0
  3  4  1  0
  4  5  2  0
  4  6  1  0
  6  7  2  0
  7  8  1  0
  8  9  1  0
  9 10  2  0
  9 11  1  0
 11 12  1  0
 12 13  1  0
 13 14  2  0
 14 15  1  0
 15 16  2  0
 15 17  1  0
 14 18  1  0
 18 19  2  0
 19 20  1  0
 20 21  2  0
 21 22  1  0
 22 23  2  0
 23 24  1  0
 24 25  2  0
  7 26  1  0
 26 27  1  0
 27 28  2  0
 28 29  1  0
 29 30  1  0
 30 31  1  0
 31 32  1  0
 31 33  1  0
 28  6  1  0
 24 12  1  0
 33 27  1  0
 23 18  1  0
  1 34  1  0
  1 35  1  0
  1 36  1  0
  2 37  1  0
  2 38  1  0
  8 39  1  0
 11 40  1  0
 11 41  1  0
 17 42  1  0
 19 43  1  0
 20 44  1  0
 21 45  1  0
 22 46  1  0
 29 47  1  0
 29 48  1  0
 30 49  1  0
 30 50  1  0
 31 51  1  0
 32 52  1  0
 32 53  1  0
 32 54  1  0
 33 55  1  0
 33 56  1  0
M  END
$$$$
