
     RDKit          3D

 37 40  0  0  0  0  0  0  0  0999 V2000
    2.0550    1.1144    1.6520 O   0  0  0  0  0  0  0  0  0  0  0  0
    1.8981    0.5203    0.5951 C   0  0  0  0  0  0  0  0  0  0  0  0
    2.7522    0.4369   -0.4782 N   0  0  0  0  0  0  0  0  0  0  0  0
    3.9953    1.0030   -0.4727 C   0  0  0  0  0  0  0  0  0  0  0  0
    4.6094    1.6612    0.4745 N   0  0  0  0  0  0  0  0  0  0  0  0
    5.8584    2.0443    0.0287 C   0  0  0  0  0  0  0  0  0  0  0  0
    6.1731    1.6616   -1.2583 C   0  0  0  0  0  0  0  0  0  0  0  0
    4.8571    0.7913   -1.9337 S   0  0  0  0  0  0  0  0  0  0  0  0
    0.6032   -0.1617    0.3730 C   0  0  0  0  0  0  0  0  0  0  0  0
   -0.5330    0.6467    0.4235 C   0  0  0  0  0  0  0  0  0  0  0  0
   -1.7641    0.0736    0.1587 C   0  0  0  0  0  0  0  0  0  0  0  0
   -3.0303    0.8369    0.1767 C   0  0  0  0  0  0  0  0  0  0  0  0
   -3.2256    1.9450    1.0228 C   0  0  0  0  0  0  0  0  0  0  0  0
   -4.4285    2.6598    1.0218 C   0  0  0  0  0  0  0  0  0  0  0  0
   -5.4666    2.2796    0.1768 C   0  0  0  0  0  0  0  0  0  0  0  0
   -5.3055    1.1824   -0.6628 C   0  0  0  0  0  0  0  0  0  0  0  0
   -4.1023    0.4699   -0.6591 C   0  0  0  0  0  0  0  0  0  0  0  0
   -1.8712   -1.2413   -0.1602 N   0  0  0  0  0  0  0  0  0  0  0  0
   -0.7806   -2.0263   -0.1689 C   0  0  0  0  0  0  0  0  0  0  0  0
   -0.9414   -3.3742   -0.4609 C   0  0  0  0  0  0  0  0  0  0  0  0
    0.1356   -4.2635   -0.4723 C   0  0  0  0  0  0  0  0  0  0  0  0
    1.4101   -3.8026   -0.1768 C   0  0  0  0  0  0  0  0  0  0  0  0
    1.5996   -2.4535    0.1152 C   0  0  0  0  0  0  0  0  0  0  0  0
    0.5104   -1.5435    0.1061 C   0  0  0  0  0  0  0  0  0  0  0  0
    2.4741   -0.0312   -1.3281 H   0  0  0  0  0  0  0  0  0  0  0  0
    6.5053    2.6066    0.6913 H   0  0  0  0  0  0  0  0  0  0  0  0
    7.0814    1.8455   -1.8135 H   0  0  0  0  0  0  0  0  0  0  0  0
   -0.4346    1.7050    0.6446 H   0  0  0  0  0  0  0  0  0  0  0  0
   -2.4471    2.2595    1.7149 H   0  0  0  0  0  0  0  0  0  0  0  0
   -4.5541    3.5095    1.6884 H   0  0  0  0  0  0  0  0  0  0  0  0
   -6.4020    2.8328    0.1781 H   0  0  0  0  0  0  0  0  0  0  0  0
   -6.1143    0.8744   -1.3201 H   0  0  0  0  0  0  0  0  0  0  0  0
   -4.0011   -0.3878   -1.3228 H   0  0  0  0  0  0  0  0  0  0  0  0
   -1.9408   -3.7470   -0.6770 H   0  0  0  0  0  0  0  0  0  0  0  0
   -0.0306   -5.3139   -0.6973 H   0  0  0  0  0  0  0  0  0  0  0  0
    2.2518   -4.4907   -0.1613 H   0  0  0  0  0  0  0  0  0  0  0  0
    2.6036   -2.1231    0.3759 H   0  0  0  0  0  0  0  0  0  0  0  0
  1  2  2  0
  2  3  1  0
  3  4  1  0
  4  5  2  0
  5  6  1  0
  6  7  2  0
  7  8  1  0
  2  9  1  0
  9 10  2  0
 10 11  1  0
 11 12  1  0
 12 13  2  0
 13 14  1  0
 14 15  2  0
 15 16  1  0
 16 17  2  0
 11 18  2  0
 18 19  1  0
 19 20  2  0
 20 21  1  0
 21 22  2  0
 22 23  1  0
 23 24  2  0
  8  4  1  0
 24  9  1  0
 17 12  1  0
 24 19  1  0
  3 25  1  0
  6 26  1  0
  7 27  1  0
 10 28  1  0
 13 29  1  0
 14 30  1  0
 15 31  1  0
 16 32  1  0
 17 33  1  0
 20 34  1  0
 21 35  1  0
 22 36  1  0
 23 37  1  0
M  END
$$$$
