
     RDKit          3D

 43 44  0  0  0  0  0  0  0  0999 V2000
    2.9716   -1.8536    1.3778 C   0  0  0  0  0  0  0  0  0  0  0  0
    2.7351   -1.7725   -0.1170 C   0  0  0  0  0  0  0  0  0  0  0  0
    2.8671   -0.4121   -0.5559 O   0  0  0  0  0  0  0  0  0  0  0  0
    4.1036   -0.0431   -0.9868 C   0  0  0  0  0  0  0  0  0  0  0  0
    5.0765   -0.7871   -1.0357 O   0  0  0  0  0  0  0  0  0  0  0  0
    4.1679    1.4333   -1.3793 C   0  0  0  0  0  0  0  0  0  0  0  0
    2.9380    2.1914   -1.2044 N   0  0  0  0  0  0  0  0  0  0  0  0
    1.9852    2.2251   -2.2021 C   0  0  0  0  0  0  0  0  0  0  0  0
    2.1414    1.6843   -3.2942 O   0  0  0  0  0  0  0  0  0  0  0  0
    0.7268    2.9983   -1.8421 C   0  0  0  0  0  0  0  0  0  0  0  0
   -0.6053    1.8784   -1.3422 S   0  0  0  0  0  0  0  0  0  0  0  0
   -0.0905    1.4001    0.2425 C   0  0  0  0  0  0  0  0  0  0  0  0
    0.9742    1.8747    0.8548 N   0  0  0  0  0  0  0  0  0  0  0  0
    0.8769    1.4673    2.1554 N   0  0  0  0  0  0  0  0  0  0  0  0
   -0.2324    0.7730    2.3569 N   0  0  0  0  0  0  0  0  0  0  0  0
   -0.8205    0.6256    1.1363 N   0  0  0  0  0  0  0  0  0  0  0  0
   -2.0153   -0.1324    1.0068 C   0  0  0  0  0  0  0  0  0  0  0  0
   -2.9320   -0.0473    2.0780 C   0  0  0  0  0  0  0  0  0  0  0  0
   -4.1739   -0.6920    2.0251 C   0  0  0  0  0  0  0  0  0  0  0  0
   -5.1238   -0.6104    3.1854 C   0  0  0  0  0  0  0  0  0  0  0  0
   -4.4868   -1.4562    0.9000 C   0  0  0  0  0  0  0  0  0  0  0  0
   -3.5683   -1.5882   -0.1405 C   0  0  0  0  0  0  0  0  0  0  0  0
   -2.3081   -0.9598   -0.0951 C   0  0  0  0  0  0  0  0  0  0  0  0
   -1.3524   -1.3205   -1.2000 C   0  0  0  0  0  0  0  0  0  0  0  0
    3.9814   -1.5188    1.6339 H   0  0  0  0  0  0  0  0  0  0  0  0
    2.2760   -1.1992    1.9121 H   0  0  0  0  0  0  0  0  0  0  0  0
    2.8367   -2.8775    1.7349 H   0  0  0  0  0  0  0  0  0  0  0  0
    1.7149   -2.0939   -0.3478 H   0  0  0  0  0  0  0  0  0  0  0  0
    3.4074   -2.4441   -0.6639 H   0  0  0  0  0  0  0  0  0  0  0  0
    4.4871    1.4998   -2.4269 H   0  0  0  0  0  0  0  0  0  0  0  0
    4.9141    1.9141   -0.7357 H   0  0  0  0  0  0  0  0  0  0  0  0
    2.5865    2.2650   -0.2498 H   0  0  0  0  0  0  0  0  0  0  0  0
    0.4085    3.5510   -2.7323 H   0  0  0  0  0  0  0  0  0  0  0  0
    0.9309    3.7418   -1.0635 H   0  0  0  0  0  0  0  0  0  0  0  0
   -2.6971    0.5555    2.9562 H   0  0  0  0  0  0  0  0  0  0  0  0
   -5.0864    0.3800    3.6483 H   0  0  0  0  0  0  0  0  0  0  0  0
   -6.1583   -0.7771    2.8627 H   0  0  0  0  0  0  0  0  0  0  0  0
   -4.8624   -1.3647    3.9348 H   0  0  0  0  0  0  0  0  0  0  0  0
   -5.4394   -1.9808    0.8362 H   0  0  0  0  0  0  0  0  0  0  0  0
   -3.8295   -2.2250   -0.9882 H   0  0  0  0  0  0  0  0  0  0  0  0
   -1.3764   -2.3999   -1.3778 H   0  0  0  0  0  0  0  0  0  0  0  0
   -0.3154   -1.0868   -0.9503 H   0  0  0  0  0  0  0  0  0  0  0  0
   -1.6340   -0.8159   -2.1284 H   0  0  0  0  0  0  0  0  0  0  0  0
  1  2  1  0
  2  3  1  0
  3  4  1  0
  4  5  2  0
  4  6  1  0
  6  7  1  0
  7  8  1  0
  8  9  2  0
  8 10  1  0
 10 11  1  0
 11 12  1  0
 12 13  2  0
 13 14  1  0
 14 15  2  0
 15 16  1  0
 16 17  1  0
 17 18  2  0
 18 19  1  0
 19 20  1  0
 19 21  2  0
 21 22  1  0
 22 23  2  0
 23 24  1  0
 16 12  1  0
 23 17  1  0
  1 25  1  0
  1 26  1  0
  1 27  1  0
  2 28  1  0
  2 29  1  0
  6 30  1  0
  6 31  1  0
  7 32  1  0
 10 33  1  0
 10 34  1  0
 18 35  1  0
 20 36  1  0
 20 37  1  0
 20 38  1  0
 21 39  1  0
 22 40  1  0
 24 41  1  0
 24 42  1  0
 24 43  1  0
M  END
$$$$
