
     RDKit          3D

 61 63  0  0  0  0  0  0  0  0999 V2000
    6.4937    3.7960    0.1460 C   0  0  0  0  0  0  0  0  0  0  0  0
    5.8664    3.1640   -1.0890 C   0  0  0  0  0  0  0  0  0  0  0  0
    4.5176    2.4995   -0.8074 C   0  0  0  0  0  0  0  0  0  0  0  0
    4.6416    1.2232    0.0232 C   0  0  0  0  0  0  0  0  0  0  0  0
    3.3506    0.5989    0.2215 N   0  0  0  0  0  0  0  0  0  0  0  0
    2.5004    0.9698    1.2453 C   0  0  0  0  0  0  0  0  0  0  0  0
    2.8130    1.7944    2.1002 O   0  0  0  0  0  0  0  0  0  0  0  0
    1.1563    0.2184    1.2418 C   0  0  0  0  0  0  0  0  0  0  0  0
    0.1518    0.7949    2.2511 C   0  0  0  0  0  0  0  0  0  0  0  0
   -0.6310    1.9499    1.6712 C   0  0  0  0  0  0  0  0  0  0  0  0
   -0.1888    3.2689    1.8415 C   0  0  0  0  0  0  0  0  0  0  0  0
   -0.8983    4.3294    1.2771 C   0  0  0  0  0  0  0  0  0  0  0  0
   -2.0527    4.0829    0.5359 C   0  0  0  0  0  0  0  0  0  0  0  0
   -2.4996    2.7750    0.3576 C   0  0  0  0  0  0  0  0  0  0  0  0
   -1.7928    1.7120    0.9215 C   0  0  0  0  0  0  0  0  0  0  0  0
    1.4319   -1.1925    1.6078 N   0  0  0  0  0  0  0  0  0  0  0  0
    1.5247   -2.3440    0.4051 S   0  0  0  0  0  6  0  0  0  0  0  0
    2.0668   -1.7140   -0.7788 O   0  0  0  0  0  0  0  0  0  0  0  0
    2.1356   -3.5114    0.9981 O   0  0  0  0  0  0  0  0  0  0  0  0
   -0.1900   -2.7101    0.1368 C   0  0  0  0  0  0  0  0  0  0  0  0
   -0.8386   -3.6153    0.9761 C   0  0  0  0  0  0  0  0  0  0  0  0
   -2.1918   -3.9066    0.7685 C   0  0  0  0  0  0  0  0  0  0  0  0
   -2.9096   -3.3040   -0.2787 C   0  0  0  0  0  0  0  0  0  0  0  0
   -2.2352   -2.4116   -1.1128 C   0  0  0  0  0  0  0  0  0  0  0  0
   -0.8767   -2.1138   -0.9188 C   0  0  0  0  0  0  0  0  0  0  0  0
   -2.9662   -1.7620   -2.2117 C   0  0  0  0  0  0  0  0  0  0  0  0
   -2.3855   -0.9200   -2.8928 O   0  0  0  0  0  0  0  0  0  0  0  0
   -4.2860   -2.1403   -2.3936 N   0  0  0  0  0  0  0  0  0  0  0  0
   -5.0286   -1.5284   -3.4810 C   0  0  0  0  0  0  0  0  0  0  0  0
   -4.9964   -2.9877   -1.5511 C   0  0  0  0  0  0  0  0  0  0  0  0
   -6.1992   -3.2031   -1.7242 O   0  0  0  0  0  0  0  0  0  0  0  0
   -4.2864   -3.5694   -0.5030 N   0  0  0  0  0  0  0  0  0  0  0  0
   -5.0001   -4.4787    0.3864 C   0  0  0  0  0  0  0  0  0  0  0  0
    6.7522    3.0424    0.8964 H   0  0  0  0  0  0  0  0  0  0  0  0
    7.4147    4.3216   -0.1283 H   0  0  0  0  0  0  0  0  0  0  0  0
    5.8139    4.5228    0.6043 H   0  0  0  0  0  0  0  0  0  0  0  0
    5.7190    3.9474   -1.8442 H   0  0  0  0  0  0  0  0  0  0  0  0
    6.5638    2.4348   -1.5191 H   0  0  0  0  0  0  0  0  0  0  0  0
    3.8486    3.2121   -0.3091 H   0  0  0  0  0  0  0  0  0  0  0  0
    4.0421    2.2533   -1.7659 H   0  0  0  0  0  0  0  0  0  0  0  0
    5.2764    0.4903   -0.4872 H   0  0  0  0  0  0  0  0  0  0  0  0
    5.0841    1.4339    1.0032 H   0  0  0  0  0  0  0  0  0  0  0  0
    3.0283   -0.0818   -0.4673 H   0  0  0  0  0  0  0  0  0  0  0  0
    0.7330    0.2762    0.2317 H   0  0  0  0  0  0  0  0  0  0  0  0
    0.6426    1.1061    3.1817 H   0  0  0  0  0  0  0  0  0  0  0  0
   -0.5672    0.0206    2.5522 H   0  0  0  0  0  0  0  0  0  0  0  0
    0.7148    3.4798    2.4121 H   0  0  0  0  0  0  0  0  0  0  0  0
   -0.5464    5.3491    1.4142 H   0  0  0  0  0  0  0  0  0  0  0  0
   -2.6016    4.9104    0.0936 H   0  0  0  0  0  0  0  0  0  0  0  0
   -3.3978    2.5825   -0.2245 H   0  0  0  0  0  0  0  0  0  0  0  0
   -2.1562    0.6981    0.7684 H   0  0  0  0  0  0  0  0  0  0  0  0
    2.0298   -1.3680    2.4177 H   0  0  0  0  0  0  0  0  0  0  0  0
   -0.3025   -4.0961    1.7934 H   0  0  0  0  0  0  0  0  0  0  0  0
   -2.6592   -4.6149    1.4474 H   0  0  0  0  0  0  0  0  0  0  0  0
   -0.3703   -1.4195   -1.5883 H   0  0  0  0  0  0  0  0  0  0  0  0
   -5.7274   -0.8000   -3.0575 H   0  0  0  0  0  0  0  0  0  0  0  0
   -4.3744   -1.0217   -4.1954 H   0  0  0  0  0  0  0  0  0  0  0  0
   -5.6029   -2.2944   -4.0123 H   0  0  0  0  0  0  0  0  0  0  0  0
   -4.5433   -5.4704    0.3315 H   0  0  0  0  0  0  0  0  0  0  0  0
   -4.9575   -4.0951    1.4092 H   0  0  0  0  0  0  0  0  0  0  0  0
   -6.0534   -4.5840    0.1165 H   0  0  0  0  0  0  0  0  0  0  0  0
  1  2  1  0
  2  3  1  0
  3  4  1  0
  4  5  1  0
  5  6  1  0
  6  7  2  0
  6  8  1  0
  8  9  1  0
  9 10  1  0
 10 11  2  0
 11 12  1  0
 12 13  2  0
 13 14  1  0
 14 15  2  0
  8 16  1  0
 16 17  1  0
 17 18  2  0
 17 19  2  0
 17 20  1  0
 20 21  2  0
 21 22  1  0
 22 23  2  0
 23 24  1  0
 24 25  2  0
 24 26  1  0
 26 27  2  0
 26 28  1  0
 28 29  1  0
 28 30  1  0
 30 31  2  0
 30 32  1  0
 32 33  1  0
 15 10  1  0
 25 20  1  0
 32 23  1  0
  1 34  1  0
  1 35  1  0
  1 36  1  0
  2 37  1  0
  2 38  1  0
  3 39  1  0
  3 40  1  0
  4 41  1  0
  4 42  1  0
  5 43  1  0
  8 44  1  0
  9 45  1  0
  9 46  1  0
 11 47  1  0
 12 48  1  0
 13 49  1  0
 14 50  1  0
 15 51  1  0
 16 52  1  0
 21 53  1  0
 22 54  1  0
 25 55  1  0
 29 56  1  0
 29 57  1  0
 29 58  1  0
 33 59  1  0
 33 60  1  0
 33 61  1  0
M  END
$$$$
