
     RDKit          3D

 61 64  0  0  0  0  0  0  0  0999 V2000
    9.3103    0.9606    1.1907 C   0  0  0  0  0  0  0  0  0  0  0  0
    7.9826    1.2057    0.5173 C   0  0  0  0  0  0  0  0  0  0  0  0
    7.6091    2.3431    0.2543 O   0  0  0  0  0  0  0  0  0  0  0  0
    7.2969    0.0273    0.2852 N   0  0  0  0  0  0  0  0  0  0  0  0
    6.0387   -0.1270   -0.3324 C   0  0  0  0  0  0  0  0  0  0  0  0
    5.5374   -1.4331   -0.4413 C   0  0  0  0  0  0  0  0  0  0  0  0
    4.2931   -1.6722   -1.0290 C   0  0  0  0  0  0  0  0  0  0  0  0
    3.5436   -0.5988   -1.5133 C   0  0  0  0  0  0  0  0  0  0  0  0
    1.9623   -0.9188   -2.2575 S   0  0  0  0  0  6  0  0  0  0  0  0
    1.4813    0.3074   -2.8546 O   0  0  0  0  0  0  0  0  0  0  0  0
    2.1036   -2.1243   -3.0454 O   0  0  0  0  0  0  0  0  0  0  0  0
    0.9993   -1.2728   -0.9054 N   0  0  0  0  0  0  0  0  0  0  0  0
    0.7180   -0.1525    0.0520 C   0  0  0  0  0  0  0  0  0  0  0  0
   -0.4260    0.7694   -0.4237 C   0  0  0  0  0  0  0  0  0  0  0  0
   -1.6649    0.0191   -0.7477 N   0  0  0  0  0  0  0  0  0  0  0  0
   -2.4317   -0.2987    0.3313 C   0  0  0  0  0  0  0  0  0  0  0  0
   -2.3599   -1.3853    1.0638 N   0  0  0  0  0  0  0  0  0  0  0  0
   -3.2630   -1.2091    2.0782 C   0  0  0  0  0  0  0  0  0  0  0  0
   -3.5581   -2.0531    3.1600 C   0  0  0  0  0  0  0  0  0  0  0  0
   -4.5166   -1.6445    4.0941 C   0  0  0  0  0  0  0  0  0  0  0  0
   -5.1704   -0.4190    3.9523 C   0  0  0  0  0  0  0  0  0  0  0  0
   -4.8902    0.4350    2.8790 C   0  0  0  0  0  0  0  0  0  0  0  0
   -3.9298    0.0065    1.9526 C   0  0  0  0  0  0  0  0  0  0  0  0
   -3.4199    0.5486    0.7903 N   0  0  0  0  0  0  0  0  0  0  0  0
   -3.8178    1.8106    0.1974 C   0  0  0  0  0  0  0  0  0  0  0  0
   -4.9415    1.7502   -0.8593 C   0  0  0  0  0  0  0  0  0  0  0  0
   -6.2553    1.1969   -0.3097 C   0  0  0  0  0  0  0  0  0  0  0  0
   -4.5342    0.9842   -2.1179 C   0  0  0  0  0  0  0  0  0  0  0  0
   -1.3934   -1.1043   -1.6819 C   0  0  0  0  0  0  0  0  0  0  0  0
   -0.2626   -2.0298   -1.1973 C   0  0  0  0  0  0  0  0  0  0  0  0
    4.0357    0.7044   -1.4314 C   0  0  0  0  0  0  0  0  0  0  0  0
    5.2787    0.9359   -0.8327 C   0  0  0  0  0  0  0  0  0  0  0  0
    9.8903    0.2249    0.6268 H   0  0  0  0  0  0  0  0  0  0  0  0
    9.1440    0.6004    2.2100 H   0  0  0  0  0  0  0  0  0  0  0  0
    9.8781    1.8959    1.2309 H   0  0  0  0  0  0  0  0  0  0  0  0
    7.7510   -0.8276    0.5853 H   0  0  0  0  0  0  0  0  0  0  0  0
    6.1075   -2.2838   -0.0727 H   0  0  0  0  0  0  0  0  0  0  0  0
    3.9131   -2.6893   -1.1068 H   0  0  0  0  0  0  0  0  0  0  0  0
    1.6216    0.4372    0.2286 H   0  0  0  0  0  0  0  0  0  0  0  0
    0.4599   -0.6015    1.0195 H   0  0  0  0  0  0  0  0  0  0  0  0
   -0.6215    1.5229    0.3497 H   0  0  0  0  0  0  0  0  0  0  0  0
   -0.1272    1.3305   -1.3140 H   0  0  0  0  0  0  0  0  0  0  0  0
   -3.0416   -3.0013    3.2623 H   0  0  0  0  0  0  0  0  0  0  0  0
   -4.7524   -2.2904    4.9367 H   0  0  0  0  0  0  0  0  0  0  0  0
   -5.9151   -0.1212    4.6886 H   0  0  0  0  0  0  0  0  0  0  0  0
   -5.4055    1.3839    2.7779 H   0  0  0  0  0  0  0  0  0  0  0  0
   -2.9268    2.2765   -0.2374 H   0  0  0  0  0  0  0  0  0  0  0  0
   -4.1243    2.4697    1.0179 H   0  0  0  0  0  0  0  0  0  0  0  0
   -5.1339    2.7876   -1.1656 H   0  0  0  0  0  0  0  0  0  0  0  0
   -6.1672    0.1407   -0.0355 H   0  0  0  0  0  0  0  0  0  0  0  0
   -7.0511    1.2762   -1.0604 H   0  0  0  0  0  0  0  0  0  0  0  0
   -6.5777    1.7592    0.5724 H   0  0  0  0  0  0  0  0  0  0  0  0
   -3.6022    1.3808   -2.5337 H   0  0  0  0  0  0  0  0  0  0  0  0
   -5.3065    1.0764   -2.8908 H   0  0  0  0  0  0  0  0  0  0  0  0
   -4.3996   -0.0838   -1.9160 H   0  0  0  0  0  0  0  0  0  0  0  0
   -2.3065   -1.6900   -1.8476 H   0  0  0  0  0  0  0  0  0  0  0  0
   -1.1275   -0.6748   -2.6554 H   0  0  0  0  0  0  0  0  0  0  0  0
   -0.5489   -2.5603   -0.2823 H   0  0  0  0  0  0  0  0  0  0  0  0
   -0.0750   -2.8122   -1.9404 H   0  0  0  0  0  0  0  0  0  0  0  0
    3.4625    1.5468   -1.8156 H   0  0  0  0  0  0  0  0  0  0  0  0
    5.6273    1.9649   -0.7702 H   0  0  0  0  0  0  0  0  0  0  0  0
  1  2  1  0
  2  3  2  0
  2  4  1  0
  4  5  1  0
  5  6  2  0
  6  7  1  0
  7  8  2  0
  8  9  1  0
  9 10  2  0
  9 11  2  0
  9 12  1  0
 12 13  1  0
 13 14  1  0
 14 15  1  0
 15 16  1  0
 16 17  2  0
 17 18  1  0
 18 19  2  0
 19 20  1  0
 20 21  2  0
 21 22  1  0
 22 23  2  0
 23 24  1  0
 24 25  1  0
 25 26  1  0
 26 27  1  0
 26 28  1  0
 15 29  1  0
 29 30  1  0
  8 31  1  0
 31 32  2  0
 32  5  1  0
 30 12  1  0
 24 16  1  0
 23 18  1  0
  1 33  1  0
  1 34  1  0
  1 35  1  0
  4 36  1  0
  6 37  1  0
  7 38  1  0
 13 39  1  0
 13 40  1  0
 14 41  1  0
 14 42  1  0
 19 43  1  0
 20 44  1  0
 21 45  1  0
 22 46  1  0
 25 47  1  0
 25 48  1  0
 26 49  1  0
 27 50  1  0
 27 51  1  0
 27 52  1  0
 28 53  1  0
 28 54  1  0
 28 55  1  0
 29 56  1  0
 29 57  1  0
 30 58  1  0
 30 59  1  0
 31 60  1  0
 32 61  1  0
M  END
$$$$
