
     RDKit          3D

 40 41  0  0  0  0  0  0  0  0999 V2000
   -0.0446    2.2112   -3.2261 C   0  0  0  0  0  0  0  0  0  0  0  0
   -0.5253    0.7696   -3.1338 C   0  0  0  0  0  0  0  0  0  0  0  0
   -0.7939    0.3097   -1.7149 C   0  0  0  0  0  0  0  0  0  0  0  0
   -2.0486    0.5124   -1.1370 C   0  0  0  0  0  0  0  0  0  0  0  0
   -3.1802    1.1885   -1.8590 C   0  0  0  0  0  0  0  0  0  0  0  0
   -2.3577    0.0940    0.1105 N   0  0  0  0  0  0  0  0  0  0  0  0
   -1.4672   -0.5874    0.8563 C   0  0  0  0  0  0  0  0  0  0  0  0
   -1.8379   -1.0479    2.1379 C   0  0  0  0  0  0  0  0  0  0  0  0
   -3.1192   -0.7263    2.5380 O   0  0  0  0  0  0  0  0  0  0  0  0
   -3.5775   -1.2327    3.7823 C   0  0  0  0  0  0  0  0  0  0  0  0
   -0.9473   -1.7776    2.9328 C   0  0  0  0  0  0  0  0  0  0  0  0
    0.3213   -2.0691    2.4580 C   0  0  0  0  0  0  0  0  0  0  0  0
    0.7012   -1.6189    1.1976 C   0  0  0  0  0  0  0  0  0  0  0  0
   -0.1703   -0.8558    0.3756 C   0  0  0  0  0  0  0  0  0  0  0  0
    0.1704   -0.3481   -0.9170 C   0  0  0  0  0  0  0  0  0  0  0  0
    1.8579   -0.5665   -1.5513 S   0  0  0  0  0  0  0  0  0  0  0  0
    2.6363    0.9592   -0.8943 C   0  0  0  0  0  0  0  0  0  0  0  0
    3.4216    0.7341    0.3876 C   0  0  0  0  0  0  0  0  0  0  0  0
    4.6286   -0.1257    0.1559 C   0  0  0  0  0  0  0  0  0  0  0  0
    5.5067    0.0679   -0.6679 O   0  0  0  0  0  0  0  0  0  0  0  0
    4.6879   -1.1804    0.9907 O   0  0  0  0  0  0  0  0  0  0  0  0
   -0.7446    2.9054   -2.7516 H   0  0  0  0  0  0  0  0  0  0  0  0
    0.9289    2.3449   -2.7488 H   0  0  0  0  0  0  0  0  0  0  0  0
    0.0601    2.5037   -4.2760 H   0  0  0  0  0  0  0  0  0  0  0  0
   -1.4348    0.6594   -3.7362 H   0  0  0  0  0  0  0  0  0  0  0  0
    0.1917    0.1080   -3.6316 H   0  0  0  0  0  0  0  0  0  0  0  0
   -2.8917    2.1888   -2.1919 H   0  0  0  0  0  0  0  0  0  0  0  0
   -3.4973    0.5899   -2.7183 H   0  0  0  0  0  0  0  0  0  0  0  0
   -4.0475    1.3024   -1.1993 H   0  0  0  0  0  0  0  0  0  0  0  0
   -4.6161   -0.9133    3.9113 H   0  0  0  0  0  0  0  0  0  0  0  0
   -3.5635   -2.3275    3.7946 H   0  0  0  0  0  0  0  0  0  0  0  0
   -2.9980   -0.8185    4.6137 H   0  0  0  0  0  0  0  0  0  0  0  0
   -1.2169   -2.1360    3.9200 H   0  0  0  0  0  0  0  0  0  0  0  0
    1.0156   -2.6473    3.0625 H   0  0  0  0  0  0  0  0  0  0  0  0
    1.6991   -1.8862    0.8560 H   0  0  0  0  0  0  0  0  0  0  0  0
    1.8700    1.7208   -0.7192 H   0  0  0  0  0  0  0  0  0  0  0  0
    3.2968    1.3428   -1.6796 H   0  0  0  0  0  0  0  0  0  0  0  0
    2.7920    0.3062    1.1729 H   0  0  0  0  0  0  0  0  0  0  0  0
    3.7852    1.6930    0.7754 H   0  0  0  0  0  0  0  0  0  0  0  0
    5.5084   -1.6468    0.7243 H   0  0  0  0  0  0  0  0  0  0  0  0
  1  2  1  0
  2  3  1  0
  3  4  2  0
  4  5  1  0
  4  6  1  0
  6  7  2  0
  7  8  1  0
  8  9  1  0
  9 10  1  0
  8 11  2  0
 11 12  1  0
 12 13  2  0
 13 14  1  0
 14 15  2  0
 15 16  1  0
 16 17  1  0
 17 18  1  0
 18 19  1  0
 19 20  2  0
 19 21  1  0
 15  3  1  0
 14  7  1  0
  1 22  1  0
  1 23  1  0
  1 24  1  0
  2 25  1  0
  2 26  1  0
  5 27  1  0
  5 28  1  0
  5 29  1  0
 10 30  1  0
 10 31  1  0
 10 32  1  0
 11 33  1  0
 12 34  1  0
 13 35  1  0
 17 36  1  0
 17 37  1  0
 18 38  1  0
 18 39  1  0
 21 40  1  0
M  END
$$$$
