
     RDKit          3D

 48 51  0  0  0  0  0  0  0  0999 V2000
    4.7313    3.9444   -0.9243 C   0  0  0  0  0  0  0  0  0  0  0  0
    5.1005    2.8614    0.0204 C   0  0  0  0  0  0  0  0  0  0  0  0
    5.8924    1.8491   -0.2648 N   0  0  0  0  0  0  0  0  0  0  0  0
    6.0542    1.0001    0.8143 N   0  0  0  0  0  0  0  0  0  0  0  0
    5.3663    1.3975    1.8630 C   0  0  0  0  0  0  0  0  0  0  0  0
    5.3810    0.5303    3.3789 S   0  0  0  0  0  0  0  0  0  0  0  0
    4.9378   -1.1320    2.7903 C   0  0  0  0  0  0  0  0  0  0  0  0
    3.4495   -1.2311    2.5310 C   0  0  0  0  0  0  0  0  0  0  0  0
    2.6354   -1.8224    3.4177 C   0  0  0  0  0  0  0  0  0  0  0  0
    1.2039   -1.8927    3.1032 C   0  0  0  0  0  0  0  0  0  0  0  0
    0.4074   -2.4178    3.8713 O   0  0  0  0  0  0  0  0  0  0  0  0
    0.8523   -1.3387    1.9121 N   0  0  0  0  0  0  0  0  0  0  0  0
    1.7464   -0.7712    1.0462 C   0  0  0  0  0  0  0  0  0  0  0  0
    1.3169   -0.2562   -0.1336 N   0  0  0  0  0  0  0  0  0  0  0  0
    0.0377   -0.2001   -0.6556 C   0  0  0  0  0  0  0  0  0  0  0  0
   -0.0829    0.3676   -1.8609 N   0  0  0  0  0  0  0  0  0  0  0  0
   -1.3188    0.4381   -2.4046 C   0  0  0  0  0  0  0  0  0  0  0  0
   -1.3905    1.0821   -3.7599 C   0  0  0  0  0  0  0  0  0  0  0  0
   -2.4587   -0.0524   -1.7582 C   0  0  0  0  0  0  0  0  0  0  0  0
   -3.7793   -0.0096   -2.2708 C   0  0  0  0  0  0  0  0  0  0  0  0
   -4.8613   -0.5276   -1.5459 C   0  0  0  0  0  0  0  0  0  0  0  0
   -6.2462   -0.4639   -2.1290 C   0  0  0  0  0  0  0  0  0  0  0  0
   -4.6179   -1.1012   -0.2895 C   0  0  0  0  0  0  0  0  0  0  0  0
   -5.7296   -1.6785    0.5434 C   0  0  0  0  0  0  0  0  0  0  0  0
   -3.3008   -1.1336    0.2031 C   0  0  0  0  0  0  0  0  0  0  0  0
   -2.2214   -0.6217   -0.5063 C   0  0  0  0  0  0  0  0  0  0  0  0
   -0.9999   -0.6956    0.0382 N   0  0  0  0  0  0  0  0  0  0  0  0
    3.0146   -0.7135    1.3310 N   0  0  0  0  0  0  0  0  0  0  0  0
    4.4970    2.8549    1.6290 S   0  0  0  0  0  0  0  0  0  0  0  0
    5.2059    3.7822   -1.8973 H   0  0  0  0  0  0  0  0  0  0  0  0
    3.6481    3.9741   -1.0792 H   0  0  0  0  0  0  0  0  0  0  0  0
    5.0596    4.9185   -0.5481 H   0  0  0  0  0  0  0  0  0  0  0  0
    5.2373   -1.8417    3.5701 H   0  0  0  0  0  0  0  0  0  0  0  0
    5.5084   -1.4017    1.8947 H   0  0  0  0  0  0  0  0  0  0  0  0
    2.9619   -2.2427    4.3584 H   0  0  0  0  0  0  0  0  0  0  0  0
   -0.1248   -1.3649    1.6456 H   0  0  0  0  0  0  0  0  0  0  0  0
    2.0126    0.1316   -0.7506 H   0  0  0  0  0  0  0  0  0  0  0  0
   -2.0304    1.9695   -3.7283 H   0  0  0  0  0  0  0  0  0  0  0  0
   -1.7794    0.3749   -4.4992 H   0  0  0  0  0  0  0  0  0  0  0  0
   -0.3964    1.3995   -4.0926 H   0  0  0  0  0  0  0  0  0  0  0  0
   -3.9654    0.4332   -3.2474 H   0  0  0  0  0  0  0  0  0  0  0  0
   -6.2516    0.0457   -3.0983 H   0  0  0  0  0  0  0  0  0  0  0  0
   -6.9150    0.0912   -1.4637 H   0  0  0  0  0  0  0  0  0  0  0  0
   -6.6395   -1.4735   -2.2837 H   0  0  0  0  0  0  0  0  0  0  0  0
   -5.3528   -2.1006    1.4812 H   0  0  0  0  0  0  0  0  0  0  0  0
   -6.4554   -0.9003    0.7997 H   0  0  0  0  0  0  0  0  0  0  0  0
   -6.2335   -2.4841    0.0000 H   0  0  0  0  0  0  0  0  0  0  0  0
   -3.1068   -1.5764    1.1795 H   0  0  0  0  0  0  0  0  0  0  0  0
  1  2  1  0
  2  3  2  0
  3  4  1  0
  4  5  2  0
  5  6  1  0
  6  7  1  0
  7  8  1  0
  8  9  2  0
  9 10  1  0
 10 11  2  0
 10 12  1  0
 12 13  1  0
 13 14  1  0
 14 15  1  0
 15 16  2  0
 16 17  1  0
 17 18  1  0
 17 19  2  0
 19 20  1  0
 20 21  2  0
 21 22  1  0
 21 23  1  0
 23 24  1  0
 23 25  2  0
 25 26  1  0
 26 27  2  0
 13 28  2  0
  5 29  1  0
 29  2  1  0
 28  8  1  0
 27 15  1  0
 26 19  1  0
  1 30  1  0
  1 31  1  0
  1 32  1  0
  7 33  1  0
  7 34  1  0
  9 35  1  0
 12 36  1  0
 14 37  1  0
 18 38  1  0
 18 39  1  0
 18 40  1  0
 20 41  1  0
 22 42  1  0
 22 43  1  0
 22 44  1  0
 24 45  1  0
 24 46  1  0
 24 47  1  0
 25 48  1  0
M  END
$$$$
