
     RDKit          3D

 42 44  0  0  0  0  0  0  0  0999 V2000
    4.9266    1.0223   -1.7514 C   0  0  0  0  0  0  0  0  0  0  0  0
    3.9238   -0.1215   -1.6966 C   0  0  0  0  0  0  0  0  0  0  0  0
    3.9490   -0.8049   -0.3309 C   0  0  0  0  0  0  0  0  0  0  0  0
    2.7562   -2.1851   -0.2431 S   0  0  0  0  0  0  0  0  0  0  0  0
    1.2098   -1.3114   -0.0225 C   0  0  0  0  0  0  0  0  0  0  0  0
    0.0355   -2.0303   -0.0903 C   0  0  0  0  0  0  0  0  0  0  0  0
   -1.1454   -1.3421    0.0912 C   0  0  0  0  0  0  0  0  0  0  0  0
   -2.3670   -1.9708    0.0249 N   0  0  0  0  0  0  0  0  0  0  0  0
   -3.5866   -1.2108    0.2744 C   0  0  0  0  0  0  0  0  0  0  0  0
   -4.6788   -2.2716    0.1779 C   0  0  0  0  0  0  0  0  0  0  0  0
   -4.0021   -3.4990    0.7670 C   0  0  0  0  0  0  0  0  0  0  0  0
   -2.5648   -3.3973    0.2545 C   0  0  0  0  0  0  0  0  0  0  0  0
   -1.1276   -0.0155    0.3060 N   0  0  0  0  0  0  0  0  0  0  0  0
    0.0605    0.6133    0.3633 C   0  0  0  0  0  0  0  0  0  0  0  0
    0.0590    2.0715    0.6040 C   0  0  0  0  0  0  0  0  0  0  0  0
    1.2578    2.8104    0.6601 C   0  0  0  0  0  0  0  0  0  0  0  0
    1.2580    4.1910    0.8857 C   0  0  0  0  0  0  0  0  0  0  0  0
    0.0550    4.8678    1.0620 C   0  0  0  0  0  0  0  0  0  0  0  0
   -1.1459    4.1664    1.0125 C   0  0  0  0  0  0  0  0  0  0  0  0
   -1.1416    2.7861    0.7859 C   0  0  0  0  0  0  0  0  0  0  0  0
    1.2462    0.0056    0.2138 N   0  0  0  0  0  0  0  0  0  0  0  0
    4.6921    1.7840   -1.0004 H   0  0  0  0  0  0  0  0  0  0  0  0
    4.9050    1.4985   -2.7367 H   0  0  0  0  0  0  0  0  0  0  0  0
    5.9445    0.6623   -1.5702 H   0  0  0  0  0  0  0  0  0  0  0  0
    4.1687   -0.8435   -2.4849 H   0  0  0  0  0  0  0  0  0  0  0  0
    2.9289    0.2788   -1.9196 H   0  0  0  0  0  0  0  0  0  0  0  0
    3.7753   -0.0935    0.4830 H   0  0  0  0  0  0  0  0  0  0  0  0
    4.9426   -1.2349   -0.1624 H   0  0  0  0  0  0  0  0  0  0  0  0
    0.0487   -3.0918   -0.2945 H   0  0  0  0  0  0  0  0  0  0  0  0
   -3.5745   -0.7733    1.2804 H   0  0  0  0  0  0  0  0  0  0  0  0
   -3.7428   -0.4179   -0.4648 H   0  0  0  0  0  0  0  0  0  0  0  0
   -5.5882   -1.9879    0.7142 H   0  0  0  0  0  0  0  0  0  0  0  0
   -4.9379   -2.4548   -0.8718 H   0  0  0  0  0  0  0  0  0  0  0  0
   -4.4855   -4.4350    0.4733 H   0  0  0  0  0  0  0  0  0  0  0  0
   -4.0122   -3.4389    1.8625 H   0  0  0  0  0  0  0  0  0  0  0  0
   -1.8741   -3.8152    0.9953 H   0  0  0  0  0  0  0  0  0  0  0  0
   -2.4503   -3.9419   -0.6892 H   0  0  0  0  0  0  0  0  0  0  0  0
    2.2139    2.3069    0.5252 H   0  0  0  0  0  0  0  0  0  0  0  0
    2.1996    4.7332    0.9231 H   0  0  0  0  0  0  0  0  0  0  0  0
    0.0534    5.9404    1.2374 H   0  0  0  0  0  0  0  0  0  0  0  0
   -2.0890    4.6891    1.1492 H   0  0  0  0  0  0  0  0  0  0  0  0
   -2.0958    2.2617    0.7507 H   0  0  0  0  0  0  0  0  0  0  0  0
  1  2  1  0
  2  3  1  0
  3  4  1  0
  4  5  1  0
  5  6  2  0
  6  7  1  0
  7  8  1  0
  8  9  1  0
  9 10  1  0
 10 11  1  0
 11 12  1  0
  7 13  2  0
 13 14  1  0
 14 15  1  0
 15 16  2  0
 16 17  1  0
 17 18  2  0
 18 19  1  0
 19 20  2  0
 14 21  2  0
 21  5  1  0
 12  8  1  0
 20 15  1  0
  1 22  1  0
  1 23  1  0
  1 24  1  0
  2 25  1  0
  2 26  1  0
  3 27  1  0
  3 28  1  0
  6 29  1  0
  9 30  1  0
  9 31  1  0
 10 32  1  0
 10 33  1  0
 11 34  1  0
 11 35  1  0
 12 36  1  0
 12 37  1  0
 16 38  1  0
 17 39  1  0
 18 40  1  0
 19 41  1  0
 20 42  1  0
M  END
$$$$
