
     RDKit          3D

 48 51  0  0  0  0  0  0  0  0999 V2000
    5.1220    1.5725   -2.1684 C   0  0  0  0  0  0  0  0  0  0  0  0
    4.4815    0.6414   -1.1415 C   0  0  0  0  0  0  0  0  0  0  0  0
    4.3206    1.3591    0.2008 C   0  0  0  0  0  0  0  0  0  0  0  0
    3.1352    0.1195   -1.6578 C   0  0  0  0  0  0  0  0  0  0  0  0
    2.6221   -0.8424   -0.7285 O   0  0  0  0  0  0  0  0  0  0  0  0
    1.3583   -1.2565   -1.0045 C   0  0  0  0  0  0  0  0  0  0  0  0
    0.6839   -0.9360   -1.9691 O   0  0  0  0  0  0  0  0  0  0  0  0
    0.9224   -2.2034    0.0489 C   0  0  0  0  0  0  0  0  0  0  0  0
    1.7831   -3.2766    0.3448 C   0  0  0  0  0  0  0  0  0  0  0  0
    1.3685   -4.3069    1.1887 C   0  0  0  0  0  0  0  0  0  0  0  0
    0.0858   -4.2851    1.7284 C   0  0  0  0  0  0  0  0  0  0  0  0
   -0.7780   -3.2250    1.4427 C   0  0  0  0  0  0  0  0  0  0  0  0
   -0.3625   -2.1660    0.6167 C   0  0  0  0  0  0  0  0  0  0  0  0
   -1.2476   -1.0626    0.4260 N   0  0  0  0  0  0  0  0  0  0  0  0
   -2.6462   -1.1466    0.2482 C   0  0  0  0  0  0  0  0  0  0  0  0
   -3.3002   -2.3034    0.1890 O   0  0  0  0  0  0  0  0  0  0  0  0
   -3.1011    0.1306    0.1001 C   0  0  0  0  0  0  0  0  0  0  0  0
   -2.0189    1.0186    0.2277 C   0  0  0  0  0  0  0  0  0  0  0  0
   -0.8863    0.3009    0.4739 C   0  0  0  0  0  0  0  0  0  0  0  0
    0.3438    0.7106    0.7699 O   0  0  0  0  0  0  0  0  0  0  0  0
   -2.5631    2.4051    0.0878 C   0  0  0  0  0  0  0  0  0  0  0  0
   -3.4373    2.7039    1.3332 C   0  0  0  0  0  0  0  0  0  0  0  0
   -4.6417    1.7174    1.1826 C   0  0  0  0  0  0  0  0  0  0  0  0
   -4.3272    0.9564   -0.1315 C   0  0  0  0  0  0  0  0  0  0  0  0
   -3.6987    2.1304   -0.9522 C   0  0  0  0  0  0  0  0  0  0  0  0
    4.4929    2.4489   -2.3579 H   0  0  0  0  0  0  0  0  0  0  0  0
    5.2763    1.0536   -3.1204 H   0  0  0  0  0  0  0  0  0  0  0  0
    6.0982    1.9251   -1.8188 H   0  0  0  0  0  0  0  0  0  0  0  0
    5.1484   -0.2148   -0.9780 H   0  0  0  0  0  0  0  0  0  0  0  0
    5.2867    1.7298    0.5597 H   0  0  0  0  0  0  0  0  0  0  0  0
    3.6410    2.2138    0.1146 H   0  0  0  0  0  0  0  0  0  0  0  0
    3.9211    0.6847    0.9652 H   0  0  0  0  0  0  0  0  0  0  0  0
    3.2717   -0.3701   -2.6294 H   0  0  0  0  0  0  0  0  0  0  0  0
    2.4257    0.9492   -1.7697 H   0  0  0  0  0  0  0  0  0  0  0  0
    2.7713   -3.3277   -0.1074 H   0  0  0  0  0  0  0  0  0  0  0  0
    2.0384   -5.1340    1.4087 H   0  0  0  0  0  0  0  0  0  0  0  0
   -0.2450   -5.0903    2.3798 H   0  0  0  0  0  0  0  0  0  0  0  0
   -1.7621   -3.2208    1.9063 H   0  0  0  0  0  0  0  0  0  0  0  0
   -4.2251   -2.0938   -0.0288 H   0  0  0  0  0  0  0  0  0  0  0  0
    0.3362    1.6822    0.7193 H   0  0  0  0  0  0  0  0  0  0  0  0
   -1.8437    3.1756   -0.1881 H   0  0  0  0  0  0  0  0  0  0  0  0
   -3.7999    3.7378    1.3180 H   0  0  0  0  0  0  0  0  0  0  0  0
   -2.9006    2.5362    2.2731 H   0  0  0  0  0  0  0  0  0  0  0  0
   -4.7192    1.0490    2.0470 H   0  0  0  0  0  0  0  0  0  0  0  0
   -5.5763    2.2825    1.0935 H   0  0  0  0  0  0  0  0  0  0  0  0
   -5.1672    0.4452   -0.6011 H   0  0  0  0  0  0  0  0  0  0  0  0
   -3.3095    1.8031   -1.9243 H   0  0  0  0  0  0  0  0  0  0  0  0
   -4.3780    2.9787   -1.0906 H   0  0  0  0  0  0  0  0  0  0  0  0
  1  2  1  0
  2  3  1  0
  2  4  1  0
  4  5  1  0
  5  6  1  0
  6  7  2  0
  6  8  1  0
  8  9  2  0
  9 10  1  0
 10 11  2  0
 11 12  1  0
 12 13  2  0
 13 14  1  0
 14 15  1  0
 15 16  1  0
 15 17  2  0
 17 18  1  0
 18 19  2  0
 19 20  1  0
 18 21  1  0
 21 22  1  0
 22 23  1  0
 23 24  1  0
 24 25  1  0
 13  8  1  0
 19 14  1  0
 25 21  1  0
 24 17  1  0
  1 26  1  0
  1 27  1  0
  1 28  1  0
  2 29  1  0
  3 30  1  0
  3 31  1  0
  3 32  1  0
  4 33  1  0
  4 34  1  0
  9 35  1  0
 10 36  1  0
 11 37  1  0
 12 38  1  0
 16 39  1  0
 20 40  1  0
 21 41  1  0
 22 42  1  0
 22 43  1  0
 23 44  1  0
 23 45  1  0
 24 46  1  0
 25 47  1  0
 25 48  1  0
M  END
$$$$
