
     RDKit          3D

 44 47  0  0  0  0  0  0  0  0999 V2000
    0.8949    3.4336   -0.2582 O   0  0  0  0  0  0  0  0  0  0  0  0
    0.9724    2.0929    0.2955 S   0  0  0  0  0  6  0  0  0  0  0  0
    0.6678    1.9023    1.6949 O   0  0  0  0  0  0  0  0  0  0  0  0
    2.5898    1.4766   -0.1001 C   0  0  0  0  0  0  0  0  0  0  0  0
    3.2677    2.0971   -1.1660 C   0  0  0  0  0  0  0  0  0  0  0  0
    4.5610    1.7123   -1.4882 C   0  0  0  0  0  0  0  0  0  0  0  0
    5.1784    0.7180   -0.7405 C   0  0  0  0  0  0  0  0  0  0  0  0
    4.5027    0.0989    0.3251 C   0  0  0  0  0  0  0  0  0  0  0  0
    5.1389   -0.9061    1.0673 C   0  0  0  0  0  0  0  0  0  0  0  0
    4.4757   -1.5257    2.1159 C   0  0  0  0  0  0  0  0  0  0  0  0
    3.1864   -1.1238    2.3816 C   0  0  0  0  0  0  0  0  0  0  0  0
    2.5410   -0.1693    1.6770 N   0  0  0  0  0  0  0  0  0  0  0  0
    3.1797    0.4684    0.6684 C   0  0  0  0  0  0  0  0  0  0  0  0
   -0.0779    1.1279   -0.6473 N   0  0  0  0  0  0  0  0  0  0  0  0
   -0.1442   -0.3378   -0.3223 C   0  0  0  0  0  0  0  0  0  0  0  0
   -1.0376   -0.6476    0.8968 C   0  0  0  0  0  0  0  0  0  0  0  0
   -2.3913   -0.0684    0.7371 N   0  0  0  0  0  0  0  0  0  0  0  0
   -3.4166   -0.7911    0.1238 C   0  0  0  0  0  0  0  0  0  0  0  0
   -4.7478   -0.3458    0.2157 C   0  0  0  0  0  0  0  0  0  0  0  0
   -5.8104   -1.0398   -0.3755 C   0  0  0  0  0  0  0  0  0  0  0  0
   -5.5691   -2.2177   -1.0693 C   0  0  0  0  0  0  0  0  0  0  0  0
   -4.2697   -2.7010   -1.1572 C   0  0  0  0  0  0  0  0  0  0  0  0
   -3.2129   -1.9993   -0.5606 C   0  0  0  0  0  0  0  0  0  0  0  0
   -2.3381    1.3917    0.4700 C   0  0  0  0  0  0  0  0  0  0  0  0
   -1.4722    1.6861   -0.7730 C   0  0  0  0  0  0  0  0  0  0  0  0
    2.7886    2.8866   -1.7427 H   0  0  0  0  0  0  0  0  0  0  0  0
    5.0876    2.1906   -2.3105 H   0  0  0  0  0  0  0  0  0  0  0  0
    6.1955    0.4255   -0.9946 H   0  0  0  0  0  0  0  0  0  0  0  0
    6.1573   -1.2089    0.8345 H   0  0  0  0  0  0  0  0  0  0  0  0
    4.9527   -2.2986    2.7074 H   0  0  0  0  0  0  0  0  0  0  0  0
    2.6138   -1.5661    3.1921 H   0  0  0  0  0  0  0  0  0  0  0  0
   -0.5432   -0.8372   -1.2140 H   0  0  0  0  0  0  0  0  0  0  0  0
    0.8533   -0.7565   -0.1879 H   0  0  0  0  0  0  0  0  0  0  0  0
   -1.0786   -1.7275    1.0806 H   0  0  0  0  0  0  0  0  0  0  0  0
   -0.5950   -0.2247    1.8047 H   0  0  0  0  0  0  0  0  0  0  0  0
   -4.9856    0.5445    0.7925 H   0  0  0  0  0  0  0  0  0  0  0  0
   -6.8242   -0.6616   -0.2768 H   0  0  0  0  0  0  0  0  0  0  0  0
   -6.3898   -2.7629   -1.5266 H   0  0  0  0  0  0  0  0  0  0  0  0
   -4.0703   -3.6288   -1.6864 H   0  0  0  0  0  0  0  0  0  0  0  0
   -2.2224   -2.4287   -0.6631 H   0  0  0  0  0  0  0  0  0  0  0  0
   -3.3276    1.8369    0.3265 H   0  0  0  0  0  0  0  0  0  0  0  0
   -1.9156    1.8867    1.3514 H   0  0  0  0  0  0  0  0  0  0  0  0
   -1.4369    2.7634   -0.9644 H   0  0  0  0  0  0  0  0  0  0  0  0
   -1.9282    1.2348   -1.6633 H   0  0  0  0  0  0  0  0  0  0  0  0
  1  2  2  0
  2  3  2  0
  2  4  1  0
  4  5  2  0
  5  6  1  0
  6  7  2  0
  7  8  1  0
  8  9  2  0
  9 10  1  0
 10 11  2  0
 11 12  1  0
 12 13  2  0
  2 14  1  0
 14 15  1  0
 15 16  1  0
 16 17  1  0
 17 18  1  0
 18 19  2  0
 19 20  1  0
 20 21  2  0
 21 22  1  0
 22 23  2  0
 17 24  1  0
 24 25  1  0
 13  4  1  0
 25 14  1  0
 13  8  1  0
 23 18  1  0
  5 26  1  0
  6 27  1  0
  7 28  1  0
  9 29  1  0
 10 30  1  0
 11 31  1  0
 15 32  1  0
 15 33  1  0
 16 34  1  0
 16 35  1  0
 19 36  1  0
 20 37  1  0
 21 38  1  0
 22 39  1  0
 23 40  1  0
 24 41  1  0
 24 42  1  0
 25 43  1  0
 25 44  1  0
M  END
$$$$
