
     RDKit          3D

 41 42  0  0  0  0  0  0  0  0999 V2000
    2.0831   -2.2310   -1.5762 C   0  0  0  0  0  0  0  0  0  0  0  0
    2.1247   -0.8263   -1.0050 C   0  0  0  0  0  0  0  0  0  0  0  0
    1.1264    0.0125   -1.0241 N   0  0  0  0  0  0  0  0  0  0  0  0
   -0.1024   -0.4242   -1.4451 N   0  0  0  0  0  0  0  0  0  0  0  0
   -0.8152   -1.3643   -0.6829 C   0  0  0  0  0  0  0  0  0  0  0  0
   -0.3293   -2.0372    0.2230 O   0  0  0  0  0  0  0  0  0  0  0  0
   -2.2609   -1.4740   -1.1509 C   0  0  0  0  0  0  0  0  0  0  0  0
   -3.3372   -2.3864   -0.0038 S   0  0  0  0  0  0  0  0  0  0  0  0
   -3.2999   -1.2642    1.4395 C   0  0  0  0  0  0  0  0  0  0  0  0
   -4.0332    0.0368    1.2012 C   0  0  0  0  0  0  0  0  0  0  0  0
   -5.4263   -0.0128    0.9845 C   0  0  0  0  0  0  0  0  0  0  0  0
   -6.1699    1.1471    0.7609 C   0  0  0  0  0  0  0  0  0  0  0  0
   -5.5382    2.3850    0.7560 C   0  0  0  0  0  0  0  0  0  0  0  0
   -4.1648    2.4610    0.9789 C   0  0  0  0  0  0  0  0  0  0  0  0
   -3.4150    1.2985    1.2036 C   0  0  0  0  0  0  0  0  0  0  0  0
   -1.5565    1.5404    1.5106 Br  0  0  0  0  0  0  0  0  0  0  0  0
    3.4174   -0.3606   -0.4087 C   0  0  0  0  0  0  0  0  0  0  0  0
    4.3474   -1.2720    0.1104 C   0  0  0  0  0  0  0  0  0  0  0  0
    5.5425   -0.8192    0.6769 C   0  0  0  0  0  0  0  0  0  0  0  0
    5.8166    0.5472    0.7347 C   0  0  0  0  0  0  0  0  0  0  0  0
    4.8832    1.4597    0.2252 C   0  0  0  0  0  0  0  0  0  0  0  0
    5.1681    2.8983    0.2863 N   0  0  0  0  0  4  0  0  0  0  0  0
    6.1837    3.2581    0.8990 O   0  0  0  0  0  0  0  0  0  0  0  0
    4.3826    3.6681   -0.2840 O   0  0  0  0  0  1  0  0  0  0  0  0
    3.6835    1.0140   -0.3438 C   0  0  0  0  0  0  0  0  0  0  0  0
    3.0465   -2.4883   -2.0272 H   0  0  0  0  0  0  0  0  0  0  0  0
    1.3335   -2.3145   -2.3673 H   0  0  0  0  0  0  0  0  0  0  0  0
    1.8591   -2.9498   -0.7842 H   0  0  0  0  0  0  0  0  0  0  0  0
   -0.6665    0.3386   -1.8119 H   0  0  0  0  0  0  0  0  0  0  0  0
   -2.2582   -2.0137   -2.1037 H   0  0  0  0  0  0  0  0  0  0  0  0
   -2.6820   -0.4806   -1.3307 H   0  0  0  0  0  0  0  0  0  0  0  0
   -3.8001   -1.7849    2.2654 H   0  0  0  0  0  0  0  0  0  0  0  0
   -2.2696   -1.1303    1.7721 H   0  0  0  0  0  0  0  0  0  0  0  0
   -5.9443   -0.9717    0.9880 H   0  0  0  0  0  0  0  0  0  0  0  0
   -7.2422    1.0807    0.5938 H   0  0  0  0  0  0  0  0  0  0  0  0
   -6.1140    3.2911    0.5856 H   0  0  0  0  0  0  0  0  0  0  0  0
   -3.6853    3.4376    0.9819 H   0  0  0  0  0  0  0  0  0  0  0  0
    4.1493   -2.3414    0.1042 H   0  0  0  0  0  0  0  0  0  0  0  0
    6.2561   -1.5343    1.0817 H   0  0  0  0  0  0  0  0  0  0  0  0
    6.7508    0.8828    1.1811 H   0  0  0  0  0  0  0  0  0  0  0  0
    2.9565    1.7239   -0.7342 H   0  0  0  0  0  0  0  0  0  0  0  0
  1  2  1  0
  2  3  2  3
  3  4  1  0
  4  5  1  0
  5  6  2  0
  5  7  1  0
  7  8  1  0
  8  9  1  0
  9 10  1  0
 10 11  2  0
 11 12  1  0
 12 13  2  0
 13 14  1  0
 14 15  2  0
 15 16  1  0
  2 17  1  0
 17 18  2  0
 18 19  1  0
 19 20  2  0
 20 21  1  0
 21 22  1  0
 22 23  2  0
 22 24  1  0
 21 25  2  0
 15 10  1  0
 25 17  1  0
  1 26  1  0
  1 27  1  0
  1 28  1  0
  4 29  1  0
  7 30  1  0
  7 31  1  0
  9 32  1  0
  9 33  1  0
 11 34  1  0
 12 35  1  0
 13 36  1  0
 14 37  1  0
 18 38  1  0
 19 39  1  0
 20 40  1  0
 25 41  1  0
M  CHG  2  22   1  24  -1
M  END
$$$$
