
     RDKit          3D

 55 56  0  0  0  0  0  0  0  0999 V2000
   -6.1132   -0.7341    0.0286 C   0  0  0  0  0  0  0  0  0  0  0  0
   -5.3710    0.5919    0.2209 C   0  0  0  0  0  0  0  0  0  0  0  0
   -4.2755    0.4490    1.1652 N   0  0  0  0  0  0  0  0  0  0  0  0
   -3.0790   -0.1361    0.8207 C   0  0  0  0  0  0  0  0  0  0  0  0
   -2.8329   -0.5637   -0.3014 O   0  0  0  0  0  0  0  0  0  0  0  0
   -2.0962   -0.1909    1.9709 C   0  0  0  0  0  0  0  0  0  0  0  0
   -0.7907   -0.8453    1.5380 C   0  0  0  0  0  0  0  0  0  0  0  0
    0.3761   -0.8794    2.9412 S   0  0  0  0  0  0  0  0  0  0  0  0
    1.7220   -1.8618    2.1899 C   0  0  0  0  0  0  0  0  0  0  0  0
    2.5339   -1.0428    1.1956 C   0  0  0  0  0  0  0  0  0  0  0  0
    3.6823   -1.8547    0.6337 C   0  0  0  0  0  0  0  0  0  0  0  0
    3.8722   -3.0362    0.8987 O   0  0  0  0  0  0  0  0  0  0  0  0
    4.4841   -1.1294   -0.2171 N   0  0  0  0  0  0  0  0  0  0  0  0
    5.6455   -1.7076   -0.8726 C   0  0  0  0  0  0  0  0  0  0  0  0
    6.8199   -1.8502    0.1008 C   0  0  0  0  0  0  0  0  0  0  0  0
    5.9854   -0.8838   -2.1027 C   0  0  0  0  0  0  0  0  0  0  0  0
    5.5553   -1.3213   -3.3662 C   0  0  0  0  0  0  0  0  0  0  0  0
    5.8274   -0.5729   -4.5130 C   0  0  0  0  0  0  0  0  0  0  0  0
    6.5261    0.6274   -4.4131 C   0  0  0  0  0  0  0  0  0  0  0  0
    6.9482    1.0829   -3.1664 C   0  0  0  0  0  0  0  0  0  0  0  0
    6.6756    0.3364   -2.0178 C   0  0  0  0  0  0  0  0  0  0  0  0
   -6.2771    1.7236    0.6730 C   0  0  0  0  0  0  0  0  0  0  0  0
   -6.1553    2.9872    0.0713 C   0  0  0  0  0  0  0  0  0  0  0  0
   -6.9552    4.0553    0.4824 C   0  0  0  0  0  0  0  0  0  0  0  0
   -7.8829    3.8780    1.5056 C   0  0  0  0  0  0  0  0  0  0  0  0
   -8.0068    2.6355    2.1231 C   0  0  0  0  0  0  0  0  0  0  0  0
   -7.2064    1.5663    1.7141 C   0  0  0  0  0  0  0  0  0  0  0  0
   -5.4527   -1.4894   -0.4113 H   0  0  0  0  0  0  0  0  0  0  0  0
   -6.4747   -1.1441    0.9778 H   0  0  0  0  0  0  0  0  0  0  0  0
   -6.9725   -0.6109   -0.6394 H   0  0  0  0  0  0  0  0  0  0  0  0
   -4.9365    0.8554   -0.7525 H   0  0  0  0  0  0  0  0  0  0  0  0
   -4.4220    0.7667    2.1147 H   0  0  0  0  0  0  0  0  0  0  0  0
   -1.9187    0.8361    2.3131 H   0  0  0  0  0  0  0  0  0  0  0  0
   -2.5601   -0.7581    2.7870 H   0  0  0  0  0  0  0  0  0  0  0  0
   -0.9744   -1.8708    1.2006 H   0  0  0  0  0  0  0  0  0  0  0  0
   -0.3437   -0.2845    0.7112 H   0  0  0  0  0  0  0  0  0  0  0  0
    2.3678   -2.2026    3.0070 H   0  0  0  0  0  0  0  0  0  0  0  0
    1.2995   -2.7585    1.7234 H   0  0  0  0  0  0  0  0  0  0  0  0
    2.9520   -0.1536    1.6830 H   0  0  0  0  0  0  0  0  0  0  0  0
    1.9131   -0.7205    0.3523 H   0  0  0  0  0  0  0  0  0  0  0  0
    4.2764   -0.1547   -0.3929 H   0  0  0  0  0  0  0  0  0  0  0  0
    5.3741   -2.7227   -1.1912 H   0  0  0  0  0  0  0  0  0  0  0  0
    7.7128   -2.2250   -0.4115 H   0  0  0  0  0  0  0  0  0  0  0  0
    7.0748   -0.8981    0.5793 H   0  0  0  0  0  0  0  0  0  0  0  0
    6.5762   -2.5529    0.9053 H   0  0  0  0  0  0  0  0  0  0  0  0
    5.0004   -2.2526   -3.4647 H   0  0  0  0  0  0  0  0  0  0  0  0
    5.4928   -0.9280   -5.4845 H   0  0  0  0  0  0  0  0  0  0  0  0
    6.7390    1.2089   -5.3062 H   0  0  0  0  0  0  0  0  0  0  0  0
    7.4894    2.0223   -3.0876 H   0  0  0  0  0  0  0  0  0  0  0  0
    7.0076    0.7215   -1.0570 H   0  0  0  0  0  0  0  0  0  0  0  0
   -5.4307    3.1482   -0.7248 H   0  0  0  0  0  0  0  0  0  0  0  0
   -6.8524    5.0258    0.0035 H   0  0  0  0  0  0  0  0  0  0  0  0
   -8.5058    4.7094    1.8249 H   0  0  0  0  0  0  0  0  0  0  0  0
   -8.7268    2.4987    2.9262 H   0  0  0  0  0  0  0  0  0  0  0  0
   -7.3172    0.6106    2.2209 H   0  0  0  0  0  0  0  0  0  0  0  0
  1  2  1  0
  2  3  1  0
  3  4  1  0
  4  5  2  0
  4  6  1  0
  6  7  1  0
  7  8  1  0
  8  9  1  0
  9 10  1  0
 10 11  1  0
 11 12  2  0
 11 13  1  0
 13 14  1  0
 14 15  1  0
 14 16  1  0
 16 17  2  0
 17 18  1  0
 18 19  2  0
 19 20  1  0
 20 21  2  0
  2 22  1  0
 22 23  2  0
 23 24  1  0
 24 25  2  0
 25 26  1  0
 26 27  2  0
 21 16  1  0
 27 22  1  0
  1 28  1  0
  1 29  1  0
  1 30  1  0
  2 31  1  0
  3 32  1  0
  6 33  1  0
  6 34  1  0
  7 35  1  0
  7 36  1  0
  9 37  1  0
  9 38  1  0
 10 39  1  0
 10 40  1  0
 13 41  1  0
 14 42  1  0
 15 43  1  0
 15 44  1  0
 15 45  1  0
 17 46  1  0
 18 47  1  0
 19 48  1  0
 20 49  1  0
 21 50  1  0
 23 51  1  0
 24 52  1  0
 25 53  1  0
 26 54  1  0
 27 55  1  0
M  END
$$$$
