
     RDKit          3D

 41 43  0  0  0  0  0  0  0  0999 V2000
   -7.0823   -0.1106    1.2014 C   0  0  0  0  0  0  0  0  0  0  0  0
   -6.7619    0.6354   -0.0820 C   0  0  0  0  0  0  0  0  0  0  0  0
   -5.7487   -0.0437   -0.8218 O   0  0  0  0  0  0  0  0  0  0  0  0
   -4.4405    0.2762   -0.5973 C   0  0  0  0  0  0  0  0  0  0  0  0
   -3.5377   -0.3284   -1.4730 C   0  0  0  0  0  0  0  0  0  0  0  0
   -2.1633   -0.0940   -1.3621 C   0  0  0  0  0  0  0  0  0  0  0  0
   -1.6626    0.7612   -0.3717 C   0  0  0  0  0  0  0  0  0  0  0  0
   -0.2420    0.9955   -0.2553 N   0  0  0  0  0  0  0  0  0  0  0  0
    0.5699   -0.1518   -0.1979 C   0  0  0  0  0  0  0  0  0  0  0  0
    0.1297   -1.3043   -0.1924 O   0  0  0  0  0  0  0  0  0  0  0  0
    2.0468    0.0684   -0.0884 C   0  0  0  0  0  0  0  0  0  0  0  0
    2.8009   -1.0467   -0.1762 C   0  0  0  0  0  0  0  0  0  0  0  0
    4.2160   -1.1428   -0.0979 C   0  0  0  0  0  0  0  0  0  0  0  0
    5.1245   -0.6564    0.8350 C   0  0  0  0  0  0  0  0  0  0  0  0
    6.4180   -1.0909    0.4595 C   0  0  0  0  0  0  0  0  0  0  0  0
    6.2464   -1.8482   -0.6726 C   0  0  0  0  0  0  0  0  0  0  0  0
    7.1696   -2.5874   -1.5545 C   0  0  0  0  0  0  0  0  0  0  0  0
    4.9298   -1.8986   -1.0031 O   0  0  0  0  0  0  0  0  0  0  0  0
    2.5649    1.4390    0.0700 C   0  0  0  0  0  0  0  0  0  0  0  0
    3.7410    1.7536    0.1874 O   0  0  0  0  0  0  0  0  0  0  0  0
    1.6128    2.4150    0.0481 N   0  0  0  0  0  0  0  0  0  0  0  0
    0.2666    2.2971   -0.1774 C   0  0  0  0  0  0  0  0  0  0  0  0
   -0.5382    3.7610   -0.3848 S   0  0  0  0  0  0  0  0  0  0  0  0
   -2.5733    1.3436    0.5214 C   0  0  0  0  0  0  0  0  0  0  0  0
   -3.9507    1.1065    0.4074 C   0  0  0  0  0  0  0  0  0  0  0  0
   -7.3631   -1.1462    0.9822 H   0  0  0  0  0  0  0  0  0  0  0  0
   -6.2157   -0.1523    1.8677 H   0  0  0  0  0  0  0  0  0  0  0  0
   -7.9074    0.3718    1.7331 H   0  0  0  0  0  0  0  0  0  0  0  0
   -7.6577    0.6362   -0.7135 H   0  0  0  0  0  0  0  0  0  0  0  0
   -6.5200    1.6891    0.0955 H   0  0  0  0  0  0  0  0  0  0  0  0
   -3.9066   -0.9917   -2.2521 H   0  0  0  0  0  0  0  0  0  0  0  0
   -1.4971   -0.5827   -2.0692 H   0  0  0  0  0  0  0  0  0  0  0  0
    2.3220   -2.0057   -0.3686 H   0  0  0  0  0  0  0  0  0  0  0  0
    4.8787   -0.0451    1.6924 H   0  0  0  0  0  0  0  0  0  0  0  0
    7.3538   -0.8802    0.9572 H   0  0  0  0  0  0  0  0  0  0  0  0
    8.2045   -2.4864   -1.2133 H   0  0  0  0  0  0  0  0  0  0  0  0
    7.1096   -2.2053   -2.5782 H   0  0  0  0  0  0  0  0  0  0  0  0
    6.9172   -3.6521   -1.5670 H   0  0  0  0  0  0  0  0  0  0  0  0
    1.9814    3.3579    0.0923 H   0  0  0  0  0  0  0  0  0  0  0  0
   -2.2298    1.9674    1.3432 H   0  0  0  0  0  0  0  0  0  0  0  0
   -4.6057    1.5765    1.1329 H   0  0  0  0  0  0  0  0  0  0  0  0
  1  2  1  0
  2  3  1  0
  3  4  1  0
  4  5  2  0
  5  6  1  0
  6  7  2  0
  7  8  1  0
  8  9  1  0
  9 10  2  0
  9 11  1  0
 11 12  2  3
 12 13  1  0
 13 14  2  0
 14 15  1  0
 15 16  2  0
 16 17  1  0
 16 18  1  0
 11 19  1  0
 19 20  2  0
 19 21  1  0
 21 22  1  0
 22 23  2  0
  7 24  1  0
 24 25  2  0
 25  4  1  0
 22  8  1  0
 18 13  1  0
  1 26  1  0
  1 27  1  0
  1 28  1  0
  2 29  1  0
  2 30  1  0
  5 31  1  0
  6 32  1  0
 12 33  1  0
 14 34  1  0
 15 35  1  0
 17 36  1  0
 17 37  1  0
 17 38  1  0
 21 39  1  0
 24 40  1  0
 25 41  1  0
M  END
$$$$
