
     RDKit          3D

 64 68  0  0  0  0  0  0  0  0999 V2000
    1.7979    1.8818   -2.2079 O   0  0  0  0  0  0  0  0  0  0  0  0
    1.8740    1.5099   -1.0342 C   0  0  0  0  0  0  0  0  0  0  0  0
    0.7644    1.8595   -0.0222 C   0  0  0  0  0  0  0  0  0  0  0  0
    0.0616    0.5874    0.4928 C   0  0  0  0  0  0  0  0  0  0  0  0
   -1.4448    0.7578    0.6678 C   0  0  0  0  0  0  0  0  0  0  0  0
   -2.1405    1.1509   -0.6478 C   0  0  0  0  0  0  0  0  0  0  0  0
   -3.5598    1.6939   -0.4095 C   0  0  0  0  0  0  0  0  0  0  0  0
   -4.3652    0.7912    0.4156 N   0  0  0  0  0  0  0  0  0  0  0  0
   -5.3918    0.0051   -0.0952 C   0  0  0  0  0  0  0  0  0  0  0  0
   -5.1307   -0.7275   -1.2224 N   0  0  0  0  0  0  0  0  0  0  0  0
   -6.0085   -1.5634   -1.8581 C   0  0  0  0  0  0  0  0  0  0  0  0
   -5.4584   -2.3977   -3.2059 S   0  0  0  0  0  0  0  0  0  0  0  0
   -7.2817   -1.6665   -1.3671 N   0  0  0  0  0  0  0  0  0  0  0  0
   -7.5684   -0.9941   -0.2984 C   0  0  0  0  0  0  0  0  0  0  0  0
   -8.9535   -1.0879    0.2500 C   0  0  0  0  0  0  0  0  0  0  0  0
   -9.3108   -0.3960    1.3410 C   0  0  0  0  0  0  0  0  0  0  0  0
   -8.3834    0.4515    2.0478 C   0  0  0  0  0  0  0  0  0  0  0  0
   -7.1116    0.5900    1.6372 C   0  0  0  0  0  0  0  0  0  0  0  0
   -6.6249   -0.0983    0.4522 C   0  0  0  0  0  0  0  0  0  0  0  0
   -1.3128    2.1626   -1.4653 C   0  0  0  0  0  0  0  0  0  0  0  0
   -0.2403    2.8603   -0.6299 C   0  0  0  0  0  0  0  0  0  0  0  0
    2.9542    0.7582   -0.5971 N   0  0  0  0  0  0  0  0  0  0  0  0
    3.9518    0.3295   -1.5853 C   0  0  0  0  0  0  0  0  0  0  0  0
    4.6258   -1.0011   -1.2123 C   0  0  0  0  0  0  0  0  0  0  0  0
    5.2328   -0.9506    0.1326 N   0  0  0  0  0  0  0  0  0  0  0  0
    6.4219   -1.6250    0.3802 C   0  0  0  0  0  0  0  0  0  0  0  0
    7.3541   -1.1733    1.3315 C   0  0  0  0  0  0  0  0  0  0  0  0
    8.5543   -1.8543    1.5738 C   0  0  0  0  0  0  0  0  0  0  0  0
    8.8401   -3.0103    0.8635 C   0  0  0  0  0  0  0  0  0  0  0  0
    9.9874   -3.6636    1.0936 F   0  0  0  0  0  0  0  0  0  0  0  0
    7.9425   -3.5013   -0.0700 C   0  0  0  0  0  0  0  0  0  0  0  0
    6.7449   -2.8134   -0.3038 C   0  0  0  0  0  0  0  0  0  0  0  0
    4.7223    0.0751    1.0573 C   0  0  0  0  0  0  0  0  0  0  0  0
    3.2331    0.3765    0.7945 C   0  0  0  0  0  0  0  0  0  0  0  0
    1.2453    2.3863    0.8134 H   0  0  0  0  0  0  0  0  0  0  0  0
    0.2489   -0.2627   -0.1743 H   0  0  0  0  0  0  0  0  0  0  0  0
    0.4803    0.3149    1.4680 H   0  0  0  0  0  0  0  0  0  0  0  0
   -1.6315    1.5092    1.4487 H   0  0  0  0  0  0  0  0  0  0  0  0
   -1.8674   -0.1881    1.0371 H   0  0  0  0  0  0  0  0  0  0  0  0
   -2.2312    0.2425   -1.2588 H   0  0  0  0  0  0  0  0  0  0  0  0
   -3.5115    2.6657    0.0923 H   0  0  0  0  0  0  0  0  0  0  0  0
   -4.0552    1.8728   -1.3724 H   0  0  0  0  0  0  0  0  0  0  0  0
   -4.6067    1.2223    1.3016 H   0  0  0  0  0  0  0  0  0  0  0  0
   -4.1948   -0.6997   -1.5976 H   0  0  0  0  0  0  0  0  0  0  0  0
   -9.6476   -1.7276   -0.2826 H   0  0  0  0  0  0  0  0  0  0  0  0
  -10.3275   -0.4601    1.7240 H   0  0  0  0  0  0  0  0  0  0  0  0
   -8.7484    0.9757    2.9269 H   0  0  0  0  0  0  0  0  0  0  0  0
   -6.4457    1.2355    2.1945 H   0  0  0  0  0  0  0  0  0  0  0  0
   -1.9581    2.9168   -1.9299 H   0  0  0  0  0  0  0  0  0  0  0  0
   -0.8321    1.6328   -2.2969 H   0  0  0  0  0  0  0  0  0  0  0  0
   -0.7279    3.4184    0.1810 H   0  0  0  0  0  0  0  0  0  0  0  0
    0.2747    3.6104   -1.2422 H   0  0  0  0  0  0  0  0  0  0  0  0
    3.4961    0.2409   -2.5787 H   0  0  0  0  0  0  0  0  0  0  0  0
    4.7012    1.1293   -1.6403 H   0  0  0  0  0  0  0  0  0  0  0  0
    5.3702   -1.2226   -1.9837 H   0  0  0  0  0  0  0  0  0  0  0  0
    3.8777   -1.8001   -1.2171 H   0  0  0  0  0  0  0  0  0  0  0  0
    7.1744   -0.2628    1.8966 H   0  0  0  0  0  0  0  0  0  0  0  0
    9.2638   -1.4793    2.3037 H   0  0  0  0  0  0  0  0  0  0  0  0
    8.1694   -4.4149   -0.6106 H   0  0  0  0  0  0  0  0  0  0  0  0
    6.0432   -3.2488   -1.0076 H   0  0  0  0  0  0  0  0  0  0  0  0
    4.8169   -0.2639    2.0969 H   0  0  0  0  0  0  0  0  0  0  0  0
    5.3067    0.9958    0.9377 H   0  0  0  0  0  0  0  0  0  0  0  0
    2.6447   -0.5279    0.9961 H   0  0  0  0  0  0  0  0  0  0  0  0
    2.8964    1.1642    1.4751 H   0  0  0  0  0  0  0  0  0  0  0  0
  1  2  2  0
  2  3  1  0
  3  4  1  0
  4  5  1  0
  5  6  1  0
  6  7  1  0
  7  8  1  0
  8  9  1  0
  9 10  1  0
 10 11  1  0
 11 12  2  0
 11 13  1  0
 13 14  2  0
 14 15  1  0
 15 16  2  0
 16 17  1  0
 17 18  2  0
 18 19  1  0
  6 20  1  0
 20 21  1  0
  2 22  1  0
 22 23  1  0
 23 24  1  0
 24 25  1  0
 25 26  1  0
 26 27  2  0
 27 28  1  0
 28 29  2  0
 29 30  1  0
 29 31  1  0
 31 32  2  0
 25 33  1  0
 33 34  1  0
 21  3  1  0
 34 22  1  0
 19  9  2  0
 32 26  1  0
 19 14  1  0
  3 35  1  0
  4 36  1  0
  4 37  1  0
  5 38  1  0
  5 39  1  0
  6 40  1  0
  7 41  1  0
  7 42  1  0
  8 43  1  0
 10 44  1  0
 15 45  1  0
 16 46  1  0
 17 47  1  0
 18 48  1  0
 20 49  1  0
 20 50  1  0
 21 51  1  0
 21 52  1  0
 23 53  1  0
 23 54  1  0
 24 55  1  0
 24 56  1  0
 27 57  1  0
 28 58  1  0
 31 59  1  0
 32 60  1  0
 33 61  1  0
 33 62  1  0
 34 63  1  0
 34 64  1  0
M  END
$$$$
