
     RDKit          3D

 42 44  0  0  0  0  0  0  0  0999 V2000
    4.4461   -0.0813   -0.2980 C   0  0  0  0  0  0  0  0  0  0  0  0
    3.4760   -0.0443    0.8721 C   0  0  0  0  0  0  0  0  0  0  0  0
    2.0226   -0.0278    0.3943 C   0  0  0  0  0  0  0  0  0  0  0  0
    1.0508    0.0096    1.5834 C   0  0  0  0  0  0  0  0  0  0  0  0
   -0.4545    0.0288    1.2031 C   0  0  0  0  0  0  0  0  0  0  0  0
   -0.8557   -1.2225    0.4487 C   0  0  0  0  0  0  0  0  0  0  0  0
   -1.2199   -1.1917   -0.8468 C   0  0  0  0  0  0  0  0  0  0  0  0
   -1.6350   -2.3969   -1.6408 C   0  0  0  0  0  0  0  0  0  0  0  0
   -2.0982   -3.5406   -0.7470 C   0  0  0  0  0  0  0  0  0  0  0  0
   -1.1071   -3.7896    0.3768 C   0  0  0  0  0  0  0  0  0  0  0  0
   -0.8607   -2.5265    1.1728 C   0  0  0  0  0  0  0  0  0  0  0  0
   -0.6229   -2.5746    2.3776 O   0  0  0  0  0  0  0  0  0  0  0  0
   -1.2779   -0.0054   -1.5668 O   0  0  0  0  0  0  0  0  0  0  0  0
   -1.1789    1.2025   -0.8886 C   0  0  0  0  0  0  0  0  0  0  0  0
   -0.8130    1.2660    0.4053 C   0  0  0  0  0  0  0  0  0  0  0  0
   -0.7730    2.5939    1.0835 C   0  0  0  0  0  0  0  0  0  0  0  0
   -0.5330    2.6758    2.2860 O   0  0  0  0  0  0  0  0  0  0  0  0
   -0.9766    3.8361    0.2438 C   0  0  0  0  0  0  0  0  0  0  0  0
   -1.9762    3.5822   -0.8713 C   0  0  0  0  0  0  0  0  0  0  0  0
   -1.5530    2.3927   -1.7244 C   0  0  0  0  0  0  0  0  0  0  0  0
    5.4783   -0.0927    0.0656 H   0  0  0  0  0  0  0  0  0  0  0  0
    4.2909   -0.9769   -0.9081 H   0  0  0  0  0  0  0  0  0  0  0  0
    4.3213    0.7972   -0.9390 H   0  0  0  0  0  0  0  0  0  0  0  0
    3.6788    0.8457    1.4790 H   0  0  0  0  0  0  0  0  0  0  0  0
    3.6486   -0.9191    1.5098 H   0  0  0  0  0  0  0  0  0  0  0  0
    1.8678    0.8469   -0.2475 H   0  0  0  0  0  0  0  0  0  0  0  0
    1.8375   -0.9185   -0.2167 H   0  0  0  0  0  0  0  0  0  0  0  0
    1.2541   -0.8545    2.2278 H   0  0  0  0  0  0  0  0  0  0  0  0
    1.2839    0.8882    2.1974 H   0  0  0  0  0  0  0  0  0  0  0  0
   -1.0433    0.0550    2.1305 H   0  0  0  0  0  0  0  0  0  0  0  0
   -2.4515   -2.1327   -2.3234 H   0  0  0  0  0  0  0  0  0  0  0  0
   -0.7891   -2.7204   -2.2592 H   0  0  0  0  0  0  0  0  0  0  0  0
   -2.2295   -4.4508   -1.3428 H   0  0  0  0  0  0  0  0  0  0  0  0
   -3.0790   -3.2926   -0.3202 H   0  0  0  0  0  0  0  0  0  0  0  0
   -0.1466   -4.1438   -0.0130 H   0  0  0  0  0  0  0  0  0  0  0  0
   -1.5091   -4.5544    1.0502 H   0  0  0  0  0  0  0  0  0  0  0  0
   -1.3517    4.6373    0.8899 H   0  0  0  0  0  0  0  0  0  0  0  0
   -0.0047    4.1434   -0.1576 H   0  0  0  0  0  0  0  0  0  0  0  0
   -2.0766    4.4749   -1.4985 H   0  0  0  0  0  0  0  0  0  0  0  0
   -2.9647    3.3829   -0.4367 H   0  0  0  0  0  0  0  0  0  0  0  0
   -0.6969    2.6654   -2.3532 H   0  0  0  0  0  0  0  0  0  0  0  0
   -2.3785    2.1330   -2.3978 H   0  0  0  0  0  0  0  0  0  0  0  0
  1  2  1  0
  2  3  1  0
  3  4  1  0
  4  5  1  0
  5  6  1  0
  6  7  2  0
  7  8  1  0
  8  9  1  0
  9 10  1  0
 10 11  1  0
 11 12  2  0
  7 13  1  0
 13 14  1  0
 14 15  2  0
 15 16  1  0
 16 17  2  0
 16 18  1  0
 18 19  1  0
 19 20  1  0
 15  5  1  0
 11  6  1  0
 20 14  1  0
  1 21  1  0
  1 22  1  0
  1 23  1  0
  2 24  1  0
  2 25  1  0
  3 26  1  0
  3 27  1  0
  4 28  1  0
  4 29  1  0
  5 30  1  0
  8 31  1  0
  8 32  1  0
  9 33  1  0
  9 34  1  0
 10 35  1  0
 10 36  1  0
 18 37  1  0
 18 38  1  0
 19 39  1  0
 19 40  1  0
 20 41  1  0
 20 42  1  0
M  END
$$$$
