
     RDKit          3D

 57 59  0  0  0  0  0  0  0  0999 V2000
    7.2288    0.6160   -1.9258 C   0  0  0  0  0  0  0  0  0  0  0  0
    6.7696    0.3940   -0.4821 C   0  0  0  0  0  0  0  0  0  0  0  0
    7.8848    0.8040    0.4826 C   0  0  0  0  0  0  0  0  0  0  0  0
    5.4827    1.1764   -0.1593 C   0  0  0  0  0  0  0  0  0  0  0  0
    4.2854    0.6876   -0.9029 C   0  0  0  0  0  0  0  0  0  0  0  0
    3.5481   -0.4989   -0.6901 C   0  0  0  0  0  0  0  0  0  0  0  0
    2.5554   -0.4563   -1.6384 C   0  0  0  0  0  0  0  0  0  0  0  0
    1.4333   -1.3490   -1.9934 C   0  0  0  0  0  0  0  0  0  0  0  0
    0.3167   -1.0698   -1.1143 N   0  0  0  0  0  0  0  0  0  0  0  0
    0.1838   -1.7185    0.0945 C   0  0  0  0  0  0  0  0  0  0  0  0
    0.9234   -2.6307    0.4480 O   0  0  0  0  0  0  0  0  0  0  0  0
   -0.9778   -1.2152    0.9371 C   0  0  0  0  0  0  0  0  0  0  0  0
   -0.9288   -1.7623    2.3585 C   0  0  0  0  0  0  0  0  0  0  0  0
   -2.0733   -1.1785    3.1650 C   0  0  0  0  0  0  0  0  0  0  0  0
   -3.4341   -1.2971    2.5046 C   0  0  0  0  0  0  0  0  0  0  0  0
   -4.4521   -1.2585    3.1959 O   0  0  0  0  0  0  0  0  0  0  0  0
   -3.4672   -1.3315    1.1180 N   0  0  0  0  0  0  0  0  0  0  0  0
   -4.7685   -1.3996    0.4528 C   0  0  0  0  0  0  0  0  0  0  0  0
   -5.0008   -0.2028   -0.4414 C   0  0  0  0  0  0  0  0  0  0  0  0
   -5.1030   -0.3511   -1.8305 C   0  0  0  0  0  0  0  0  0  0  0  0
   -5.3069    0.7615   -2.6469 C   0  0  0  0  0  0  0  0  0  0  0  0
   -5.4146    2.0337   -2.0840 C   0  0  0  0  0  0  0  0  0  0  0  0
   -5.3275    2.2073   -0.6953 C   0  0  0  0  0  0  0  0  0  0  0  0
   -5.4269    3.5792   -0.0744 C   0  0  0  0  0  0  0  0  0  0  0  0
   -6.2202    3.6051    1.0321 F   0  0  0  0  0  0  0  0  0  0  0  0
   -4.2134    4.0540    0.3228 F   0  0  0  0  0  0  0  0  0  0  0  0
   -5.9363    4.5202   -0.9184 F   0  0  0  0  0  0  0  0  0  0  0  0
   -5.1163    1.0808    0.1164 C   0  0  0  0  0  0  0  0  0  0  0  0
   -2.2930   -1.6546    0.3086 C   0  0  0  0  0  0  0  0  0  0  0  0
    2.6839    0.6827   -2.3697 O   0  0  0  0  0  0  0  0  0  0  0  0
    3.7681    1.4063   -1.9080 N   0  0  0  0  0  0  0  0  0  0  0  0
    6.4865    0.2476   -2.6408 H   0  0  0  0  0  0  0  0  0  0  0  0
    8.1640    0.0804   -2.1211 H   0  0  0  0  0  0  0  0  0  0  0  0
    7.3999    1.6786   -2.1293 H   0  0  0  0  0  0  0  0  0  0  0  0
    6.5853   -0.6795   -0.3449 H   0  0  0  0  0  0  0  0  0  0  0  0
    8.7987    0.2332    0.2862 H   0  0  0  0  0  0  0  0  0  0  0  0
    7.5911    0.6146    1.5204 H   0  0  0  0  0  0  0  0  0  0  0  0
    8.1228    1.8688    0.3859 H   0  0  0  0  0  0  0  0  0  0  0  0
    5.6372    2.2453   -0.3567 H   0  0  0  0  0  0  0  0  0  0  0  0
    5.2672    1.0936    0.9143 H   0  0  0  0  0  0  0  0  0  0  0  0
    3.7093   -1.2726    0.0467 H   0  0  0  0  0  0  0  0  0  0  0  0
    1.0952   -1.1679   -3.0186 H   0  0  0  0  0  0  0  0  0  0  0  0
    1.7290   -2.3997   -1.9089 H   0  0  0  0  0  0  0  0  0  0  0  0
   -0.1463   -0.1783   -1.2419 H   0  0  0  0  0  0  0  0  0  0  0  0
   -0.9227   -0.1190    0.9746 H   0  0  0  0  0  0  0  0  0  0  0  0
   -1.0011   -2.8579    2.3502 H   0  0  0  0  0  0  0  0  0  0  0  0
    0.0261   -1.5127    2.8362 H   0  0  0  0  0  0  0  0  0  0  0  0
   -1.8962   -0.1124    3.3508 H   0  0  0  0  0  0  0  0  0  0  0  0
   -2.1195   -1.6835    4.1366 H   0  0  0  0  0  0  0  0  0  0  0  0
   -4.8045   -2.3350   -0.1189 H   0  0  0  0  0  0  0  0  0  0  0  0
   -5.5902   -1.4503    1.1760 H   0  0  0  0  0  0  0  0  0  0  0  0
   -5.0241   -1.3353   -2.2876 H   0  0  0  0  0  0  0  0  0  0  0  0
   -5.3847    0.6373   -3.7247 H   0  0  0  0  0  0  0  0  0  0  0  0
   -5.5728    2.8922   -2.7356 H   0  0  0  0  0  0  0  0  0  0  0  0
   -5.0438    1.2017    1.1986 H   0  0  0  0  0  0  0  0  0  0  0  0
   -2.3024   -2.7405    0.1471 H   0  0  0  0  0  0  0  0  0  0  0  0
   -2.4074   -1.1828   -0.6736 H   0  0  0  0  0  0  0  0  0  0  0  0
  1  2  1  0
  2  3  1  0
  2  4  1  0
  4  5  1  0
  5  6  1  0
  6  7  2  0
  7  8  1  0
  8  9  1  0
  9 10  1  0
 10 11  2  0
 10 12  1  0
 12 13  1  0
 13 14  1  0
 14 15  1  0
 15 16  2  0
 15 17  1  0
 17 18  1  0
 18 19  1  0
 19 20  2  0
 20 21  1  0
 21 22  2  0
 22 23  1  0
 23 24  1  0
 24 25  1  0
 24 26  1  0
 24 27  1  0
 23 28  2  0
 17 29  1  0
  7 30  1  0
 30 31  1  0
 31  5  2  0
 29 12  1  0
 28 19  1  0
  1 32  1  0
  1 33  1  0
  1 34  1  0
  2 35  1  0
  3 36  1  0
  3 37  1  0
  3 38  1  0
  4 39  1  0
  4 40  1  0
  6 41  1  0
  8 42  1  0
  8 43  1  0
  9 44  1  0
 12 45  1  0
 13 46  1  0
 13 47  1  0
 14 48  1  0
 14 49  1  0
 18 50  1  0
 18 51  1  0
 20 52  1  0
 21 53  1  0
 22 54  1  0
 28 55  1  0
 29 56  1  0
 29 57  1  0
M  END
$$$$
