
     RDKit          3D

 57 60  0  0  0  0  0  0  0  0999 V2000
    7.1270    0.1007    1.0914 C   0  0  0  0  0  0  0  0  0  0  0  0
    6.9865    1.5157    0.5493 C   0  0  0  0  0  0  0  0  0  0  0  0
    5.7240    2.2605    1.0161 C   0  0  0  0  0  0  0  0  0  0  0  0
    5.6669    2.4344    2.5317 C   0  0  0  0  0  0  0  0  0  0  0  0
    4.5171    1.5968    0.5374 N   0  0  0  0  0  0  0  0  0  0  0  0
    3.9731    1.8710   -0.7018 C   0  0  0  0  0  0  0  0  0  0  0  0
    4.3704    2.7662   -1.4435 O   0  0  0  0  0  0  0  0  0  0  0  0
    2.8239    1.0196   -1.1192 C   0  0  0  0  0  0  0  0  0  0  0  0
    1.8214    1.5900   -1.9101 C   0  0  0  0  0  0  0  0  0  0  0  0
    0.7469    0.8151   -2.3515 C   0  0  0  0  0  0  0  0  0  0  0  0
    0.6715   -0.5447   -2.0269 C   0  0  0  0  0  0  0  0  0  0  0  0
   -0.4518   -1.3921   -2.5674 C   0  0  0  0  0  0  0  0  0  0  0  0
   -1.6196   -1.9618   -1.3053 S   0  0  0  0  0  0  0  0  0  0  0  0
   -2.8045   -0.6991   -1.3353 C   0  0  0  0  0  0  0  0  0  0  0  0
   -2.5797    0.5307   -1.7253 N   0  0  0  0  0  0  0  0  0  0  0  0
   -3.7788    1.1804   -1.5998 C   0  0  0  0  0  0  0  0  0  0  0  0
   -4.0975    2.5127   -1.8713 C   0  0  0  0  0  0  0  0  0  0  0  0
   -5.4171    2.8679   -1.6656 C   0  0  0  0  0  0  0  0  0  0  0  0
   -6.3828    2.0258   -1.2343 N   0  0  0  0  0  0  0  0  0  0  0  0
   -6.0705    0.7362   -0.9669 C   0  0  0  0  0  0  0  0  0  0  0  0
   -4.7635    0.3155   -1.1469 C   0  0  0  0  0  0  0  0  0  0  0  0
   -4.1121   -0.8855   -0.9615 N   0  0  0  0  0  0  0  0  0  0  0  0
   -4.7376   -2.1238   -0.5144 C   0  0  0  0  0  0  0  0  0  0  0  0
   -4.4178   -2.4561    0.9243 C   0  0  0  0  0  0  0  0  0  0  0  0
   -4.7284   -1.5683    1.9678 C   0  0  0  0  0  0  0  0  0  0  0  0
   -4.4562   -1.9115    3.2943 C   0  0  0  0  0  0  0  0  0  0  0  0
   -3.8708   -3.1392    3.5785 C   0  0  0  0  0  0  0  0  0  0  0  0
   -3.6152   -3.4685    4.8505 F   0  0  0  0  0  0  0  0  0  0  0  0
   -3.5545   -4.0332    2.5642 C   0  0  0  0  0  0  0  0  0  0  0  0
   -3.8338   -3.6965    1.2388 C   0  0  0  0  0  0  0  0  0  0  0  0
    1.6811   -1.1108   -1.2328 C   0  0  0  0  0  0  0  0  0  0  0  0
    2.7530   -0.3350   -0.7813 C   0  0  0  0  0  0  0  0  0  0  0  0
    6.2654   -0.5197    0.8308 H   0  0  0  0  0  0  0  0  0  0  0  0
    7.2422    0.0992    2.1759 H   0  0  0  0  0  0  0  0  0  0  0  0
    8.0149   -0.3721    0.6634 H   0  0  0  0  0  0  0  0  0  0  0  0
    6.9940    1.4663   -0.5481 H   0  0  0  0  0  0  0  0  0  0  0  0
    7.8723    2.0932    0.8427 H   0  0  0  0  0  0  0  0  0  0  0  0
    5.7570    3.2620    0.5694 H   0  0  0  0  0  0  0  0  0  0  0  0
    4.8112    3.0575    2.8108 H   0  0  0  0  0  0  0  0  0  0  0  0
    5.5496    1.4750    3.0512 H   0  0  0  0  0  0  0  0  0  0  0  0
    6.5765    2.9216    2.9065 H   0  0  0  0  0  0  0  0  0  0  0  0
    4.0913    0.8931    1.1190 H   0  0  0  0  0  0  0  0  0  0  0  0
    1.8767    2.6410   -2.1857 H   0  0  0  0  0  0  0  0  0  0  0  0
   -0.0290    1.2817   -2.9571 H   0  0  0  0  0  0  0  0  0  0  0  0
   -0.0110   -2.2842   -3.0302 H   0  0  0  0  0  0  0  0  0  0  0  0
   -0.9816   -0.8756   -3.3764 H   0  0  0  0  0  0  0  0  0  0  0  0
   -3.3573    3.2211   -2.2168 H   0  0  0  0  0  0  0  0  0  0  0  0
   -5.7495    3.8875   -1.8529 H   0  0  0  0  0  0  0  0  0  0  0  0
   -6.8732    0.0994   -0.6167 H   0  0  0  0  0  0  0  0  0  0  0  0
   -5.8188   -2.0384   -0.6326 H   0  0  0  0  0  0  0  0  0  0  0  0
   -4.4191   -2.9191   -1.1989 H   0  0  0  0  0  0  0  0  0  0  0  0
   -5.1846   -0.5999    1.7669 H   0  0  0  0  0  0  0  0  0  0  0  0
   -4.6991   -1.2320    4.1027 H   0  0  0  0  0  0  0  0  0  0  0  0
   -3.0991   -4.9868    2.8112 H   0  0  0  0  0  0  0  0  0  0  0  0
   -3.5847   -4.4074    0.4570 H   0  0  0  0  0  0  0  0  0  0  0  0
    1.6464   -2.1660   -0.9740 H   0  0  0  0  0  0  0  0  0  0  0  0
    3.5392   -0.8104   -0.2012 H   0  0  0  0  0  0  0  0  0  0  0  0
  1  2  1  0
  2  3  1  0
  3  4  1  0
  3  5  1  0
  5  6  1  0
  6  7  2  0
  6  8  1  0
  8  9  2  0
  9 10  1  0
 10 11  2  0
 11 12  1  0
 12 13  1  0
 13 14  1  0
 14 15  2  0
 15 16  1  0
 16 17  2  0
 17 18  1  0
 18 19  2  0
 19 20  1  0
 20 21  2  0
 21 22  1  0
 22 23  1  0
 23 24  1  0
 24 25  2  0
 25 26  1  0
 26 27  2  0
 27 28  1  0
 27 29  1  0
 29 30  2  0
 11 31  1  0
 31 32  2  0
 32  8  1  0
 22 14  1  0
 30 24  1  0
 21 16  1  0
  1 33  1  0
  1 34  1  0
  1 35  1  0
  2 36  1  0
  2 37  1  0
  3 38  1  0
  4 39  1  0
  4 40  1  0
  4 41  1  0
  5 42  1  0
  9 43  1  0
 10 44  1  0
 12 45  1  0
 12 46  1  0
 17 47  1  0
 18 48  1  0
 20 49  1  0
 23 50  1  0
 23 51  1  0
 25 52  1  0
 26 53  1  0
 29 54  1  0
 30 55  1  0
 31 56  1  0
 32 57  1  0
M  END
$$$$
