
     RDKit          3D

 45 46  0  0  0  0  0  0  0  0999 V2000
    5.4597   -0.8937    0.7969 C   0  0  0  0  0  0  0  0  0  0  0  0
    4.1052   -1.5382    0.7682 C   0  0  0  0  0  0  0  0  0  0  0  0
    3.9432   -2.8709    1.1597 C   0  0  0  0  0  0  0  0  0  0  0  0
    2.6837   -3.4653    1.1169 C   0  0  0  0  0  0  0  0  0  0  0  0
    1.5827   -2.7373    0.6626 C   0  0  0  0  0  0  0  0  0  0  0  0
    1.7323   -1.4171    0.2254 C   0  0  0  0  0  0  0  0  0  0  0  0
    0.5698   -0.7327   -0.1913 N   0  0  0  0  0  0  0  0  0  0  0  0
    0.4147    0.3375   -1.0624 C   0  0  0  0  0  0  0  0  0  0  0  0
    1.5076    0.6950   -2.2959 S   0  0  0  0  0  0  0  0  0  0  0  0
   -0.7938    1.0449   -0.8443 N   0  0  0  0  0  0  0  0  0  0  0  0
   -1.6420    0.8130    0.3479 C   0  0  0  0  0  0  0  0  0  0  0  0
   -2.6746   -0.3216    0.1521 C   0  0  0  0  0  0  0  0  0  0  0  0
   -2.1099   -1.6754    0.3645 N   0  0  0  0  0  0  0  0  0  0  0  0
   -2.9360   -2.6762   -0.3211 C   0  0  0  0  0  0  0  0  0  0  0  0
   -2.0567   -1.9957    1.7999 C   0  0  0  0  0  0  0  0  0  0  0  0
   -1.2943    2.0617   -1.7892 C   0  0  0  0  0  0  0  0  0  0  0  0
   -1.2301    3.4462   -1.2020 C   0  0  0  0  0  0  0  0  0  0  0  0
   -2.2854    4.2779   -0.8716 C   0  0  0  0  0  0  0  0  0  0  0  0
   -1.8517    5.5295   -0.3472 C   0  0  0  0  0  0  0  0  0  0  0  0
   -0.4794    5.6198   -0.3029 C   0  0  0  0  0  0  0  0  0  0  0  0
    0.2762    4.2065   -0.8947 S   0  0  0  0  0  0  0  0  0  0  0  0
    2.9935   -0.8202    0.2985 C   0  0  0  0  0  0  0  0  0  0  0  0
    5.9465   -1.0035   -0.1770 H   0  0  0  0  0  0  0  0  0  0  0  0
    6.0955   -1.3508    1.5625 H   0  0  0  0  0  0  0  0  0  0  0  0
    5.3792    0.1718    1.0364 H   0  0  0  0  0  0  0  0  0  0  0  0
    4.7959   -3.4499    1.5063 H   0  0  0  0  0  0  0  0  0  0  0  0
    2.5594   -4.4978    1.4316 H   0  0  0  0  0  0  0  0  0  0  0  0
    0.6112   -3.2225    0.6291 H   0  0  0  0  0  0  0  0  0  0  0  0
   -0.3054   -1.2305   -0.0223 H   0  0  0  0  0  0  0  0  0  0  0  0
   -0.9993    0.6282    1.2154 H   0  0  0  0  0  0  0  0  0  0  0  0
   -2.1853    1.7351    0.5783 H   0  0  0  0  0  0  0  0  0  0  0  0
   -3.5245   -0.1601    0.8281 H   0  0  0  0  0  0  0  0  0  0  0  0
   -3.0710   -0.2386   -0.8681 H   0  0  0  0  0  0  0  0  0  0  0  0
   -3.9716   -2.6745    0.0376 H   0  0  0  0  0  0  0  0  0  0  0  0
   -2.9419   -2.4926   -1.4013 H   0  0  0  0  0  0  0  0  0  0  0  0
   -2.5203   -3.6800   -0.1788 H   0  0  0  0  0  0  0  0  0  0  0  0
   -1.4149   -1.2915    2.3385 H   0  0  0  0  0  0  0  0  0  0  0  0
   -3.0494   -1.9827    2.2644 H   0  0  0  0  0  0  0  0  0  0  0  0
   -1.6215   -2.9899    1.9519 H   0  0  0  0  0  0  0  0  0  0  0  0
   -2.3365    1.8029   -2.0151 H   0  0  0  0  0  0  0  0  0  0  0  0
   -0.7719    2.0416   -2.7485 H   0  0  0  0  0  0  0  0  0  0  0  0
   -3.3248    4.0007   -0.9988 H   0  0  0  0  0  0  0  0  0  0  0  0
   -2.5115    6.3248   -0.0228 H   0  0  0  0  0  0  0  0  0  0  0  0
    0.1206    6.4500    0.0436 H   0  0  0  0  0  0  0  0  0  0  0  0
    3.1271    0.2220    0.0236 H   0  0  0  0  0  0  0  0  0  0  0  0
  1  2  1  0
  2  3  2  0
  3  4  1  0
  4  5  2  0
  5  6  1  0
  6  7  1  0
  7  8  1  0
  8  9  2  0
  8 10  1  0
 10 11  1  0
 11 12  1  0
 12 13  1  0
 13 14  1  0
 13 15  1  0
 10 16  1  0
 16 17  1  0
 17 18  2  0
 18 19  1  0
 19 20  2  0
 20 21  1  0
  6 22  2  0
 22  2  1  0
 21 17  1  0
  1 23  1  0
  1 24  1  0
  1 25  1  0
  3 26  1  0
  4 27  1  0
  5 28  1  0
  7 29  1  0
 11 30  1  0
 11 31  1  0
 12 32  1  0
 12 33  1  0
 14 34  1  0
 14 35  1  0
 14 36  1  0
 15 37  1  0
 15 38  1  0
 15 39  1  0
 16 40  1  0
 16 41  1  0
 18 42  1  0
 19 43  1  0
 20 44  1  0
 22 45  1  0
M  END
$$$$
