
     RDKit          3D

 48 50  0  0  0  0  0  0  0  0999 V2000
    5.3949    0.4838    1.7137 C   0  0  0  0  0  0  0  0  0  0  0  0
    5.6132   -0.5085    0.5791 C   0  0  0  0  0  0  0  0  0  0  0  0
    4.7213   -0.2444   -0.5588 N   0  0  0  0  0  0  0  0  0  0  0  0
    5.3446    0.3132   -1.7660 C   0  0  0  0  0  0  0  0  0  0  0  0
    5.4479    1.8289   -1.6921 C   0  0  0  0  0  0  0  0  0  0  0  0
    3.3548   -0.5045   -0.4997 C   0  0  0  0  0  0  0  0  0  0  0  0
    2.7881   -1.3137    0.5009 C   0  0  0  0  0  0  0  0  0  0  0  0
    1.4122   -1.5840    0.5656 C   0  0  0  0  0  0  0  0  0  0  0  0
    0.5443   -1.0406   -0.3767 C   0  0  0  0  0  0  0  0  0  0  0  0
   -0.8899   -1.3350   -0.3502 C   0  0  0  0  0  0  0  0  0  0  0  0
   -1.8122   -0.8646    0.5141 C   0  0  0  0  0  0  0  0  0  0  0  0
   -1.5160    0.0886    1.6052 C   0  0  0  0  0  0  0  0  0  0  0  0
   -0.4493    0.6653    1.7718 O   0  0  0  0  0  0  0  0  0  0  0  0
   -2.5575    0.3221    2.4533 N   0  0  0  0  0  0  0  0  0  0  0  0
   -3.8714    0.0496    2.2233 C   0  0  0  0  0  0  0  0  0  0  0  0
   -4.7218    0.5468    2.9603 O   0  0  0  0  0  0  0  0  0  0  0  0
   -4.1601   -0.7739    1.1568 N   0  0  0  0  0  0  0  0  0  0  0  0
   -5.5619   -1.0750    0.9000 C   0  0  0  0  0  0  0  0  0  0  0  0
   -6.1515    0.0175    0.0762 C   0  0  0  0  0  0  0  0  0  0  0  0
   -6.8669    1.1564    0.3861 C   0  0  0  0  0  0  0  0  0  0  0  0
   -7.1397    1.8035   -0.8428 C   0  0  0  0  0  0  0  0  0  0  0  0
   -6.5738    1.0213   -1.8216 C   0  0  0  0  0  0  0  0  0  0  0  0
   -5.9697   -0.0635   -1.2732 O   0  0  0  0  0  0  0  0  0  0  0  0
   -3.2108   -1.3458    0.3258 C   0  0  0  0  0  0  0  0  0  0  0  0
   -3.4781   -2.2103   -0.5076 O   0  0  0  0  0  0  0  0  0  0  0  0
    1.0706   -0.2387   -1.3848 C   0  0  0  0  0  0  0  0  0  0  0  0
    2.4489    0.0211   -1.4378 C   0  0  0  0  0  0  0  0  0  0  0  0
    5.5412    1.5137    1.3740 H   0  0  0  0  0  0  0  0  0  0  0  0
    4.3869    0.4135    2.1325 H   0  0  0  0  0  0  0  0  0  0  0  0
    6.1066    0.2908    2.5228 H   0  0  0  0  0  0  0  0  0  0  0  0
    6.6606   -0.4264    0.2622 H   0  0  0  0  0  0  0  0  0  0  0  0
    5.5072   -1.5392    0.9350 H   0  0  0  0  0  0  0  0  0  0  0  0
    4.8130    0.0081   -2.6748 H   0  0  0  0  0  0  0  0  0  0  0  0
    6.3532   -0.1022   -1.8863 H   0  0  0  0  0  0  0  0  0  0  0  0
    4.4714    2.2961   -1.5332 H   0  0  0  0  0  0  0  0  0  0  0  0
    6.1039    2.1392   -0.8729 H   0  0  0  0  0  0  0  0  0  0  0  0
    5.8676    2.2236   -2.6227 H   0  0  0  0  0  0  0  0  0  0  0  0
    3.4084   -1.7726    1.2639 H   0  0  0  0  0  0  0  0  0  0  0  0
    1.0386   -2.2214    1.3623 H   0  0  0  0  0  0  0  0  0  0  0  0
   -1.1879   -2.0177   -1.1468 H   0  0  0  0  0  0  0  0  0  0  0  0
   -2.3768    0.9969    3.1833 H   0  0  0  0  0  0  0  0  0  0  0  0
   -6.1035   -1.1595    1.8494 H   0  0  0  0  0  0  0  0  0  0  0  0
   -5.6703   -2.0339    0.3818 H   0  0  0  0  0  0  0  0  0  0  0  0
   -7.1473    1.4795    1.3801 H   0  0  0  0  0  0  0  0  0  0  0  0
   -7.6798    2.7270   -0.9973 H   0  0  0  0  0  0  0  0  0  0  0  0
   -6.5143    1.0939   -2.8988 H   0  0  0  0  0  0  0  0  0  0  0  0
    0.4223    0.2013   -2.1383 H   0  0  0  0  0  0  0  0  0  0  0  0
    2.7890    0.6738   -2.2355 H   0  0  0  0  0  0  0  0  0  0  0  0
  1  2  1  0
  2  3  1  0
  3  4  1  0
  4  5  1  0
  3  6  1  0
  6  7  2  0
  7  8  1  0
  8  9  2  0
  9 10  1  0
 10 11  2  3
 11 12  1  0
 12 13  2  0
 12 14  1  0
 14 15  1  0
 15 16  2  0
 15 17  1  0
 17 18  1  0
 18 19  1  0
 19 20  2  0
 20 21  1  0
 21 22  2  0
 22 23  1  0
 17 24  1  0
 24 25  2  0
  9 26  1  0
 26 27  2  0
 27  6  1  0
 24 11  1  0
 23 19  1  0
  1 28  1  0
  1 29  1  0
  1 30  1  0
  2 31  1  0
  2 32  1  0
  4 33  1  0
  4 34  1  0
  5 35  1  0
  5 36  1  0
  5 37  1  0
  7 38  1  0
  8 39  1  0
 10 40  1  0
 14 41  1  0
 18 42  1  0
 18 43  1  0
 20 44  1  0
 21 45  1  0
 22 46  1  0
 26 47  1  0
 27 48  1  0
M  END
$$$$
