
     RDKit          3D

 53 56  0  0  0  0  0  0  0  0999 V2000
    6.2110    0.3895    2.0042 C   0  0  0  0  0  0  0  0  0  0  0  0
    4.7948    0.2804    1.9558 O   0  0  0  0  0  0  0  0  0  0  0  0
    4.3298   -1.0705    1.8995 C   0  0  0  0  0  0  0  0  0  0  0  0
    4.3423   -1.6426    0.4806 C   0  0  0  0  0  0  0  0  0  0  0  0
    3.1991   -1.2100   -0.3230 N   0  0  0  0  0  0  0  0  0  0  0  0
    3.2551   -0.2415   -1.3029 C   0  0  0  0  0  0  0  0  0  0  0  0
    4.4745    0.5418   -1.6397 C   0  0  0  0  0  0  0  0  0  0  0  0
    2.0010   -0.1526   -1.8619 C   0  0  0  0  0  0  0  0  0  0  0  0
    1.1330   -1.0642   -1.1971 C   0  0  0  0  0  0  0  0  0  0  0  0
   -0.2943   -1.2074   -1.5270 C   0  0  0  0  0  0  0  0  0  0  0  0
   -0.6945   -0.9117   -2.6589 O   0  0  0  0  0  0  0  0  0  0  0  0
   -1.2984   -1.7291   -0.5190 C   0  0  0  0  0  0  0  0  0  0  0  0
   -1.5163   -0.6422    0.9211 S   0  0  0  0  0  0  0  0  0  0  0  0
   -2.0573    0.8160    0.0859 C   0  0  0  0  0  0  0  0  0  0  0  0
   -1.1257    1.5786   -0.5132 N   0  0  0  0  0  0  0  0  0  0  0  0
   -1.5192    2.6813   -1.1738 C   0  0  0  0  0  0  0  0  0  0  0  0
   -0.4490    3.4628   -1.8718 C   0  0  0  0  0  0  0  0  0  0  0  0
   -2.7791    3.1185   -1.3001 N   0  0  0  0  0  0  0  0  0  0  0  0
   -3.6764    2.3362   -0.6775 C   0  0  0  0  0  0  0  0  0  0  0  0
   -5.3518    2.7308   -0.7268 S   0  0  0  0  0  0  0  0  0  0  0  0
   -5.7140    1.3839    0.1916 C   0  0  0  0  0  0  0  0  0  0  0  0
   -4.6242    0.6356    0.5460 C   0  0  0  0  0  0  0  0  0  0  0  0
   -3.4064    1.1710    0.0410 C   0  0  0  0  0  0  0  0  0  0  0  0
   -5.0346   -0.5384    1.3595 C   0  0  0  0  0  0  0  0  0  0  0  0
   -6.5115   -0.1924    1.7299 C   0  0  0  0  0  0  0  0  0  0  0  0
   -7.0053    0.8558    0.6881 C   0  0  0  0  0  0  0  0  0  0  0  0
    1.9150   -1.7437   -0.2618 C   0  0  0  0  0  0  0  0  0  0  0  0
    1.5445   -2.8511    0.6698 C   0  0  0  0  0  0  0  0  0  0  0  0
    6.6704   -0.0407    1.1104 H   0  0  0  0  0  0  0  0  0  0  0  0
    6.4706    1.4503    2.0493 H   0  0  0  0  0  0  0  0  0  0  0  0
    6.6019   -0.1005    2.9010 H   0  0  0  0  0  0  0  0  0  0  0  0
    3.3145   -1.0758    2.3096 H   0  0  0  0  0  0  0  0  0  0  0  0
    4.9440   -1.6935    2.5607 H   0  0  0  0  0  0  0  0  0  0  0  0
    5.2556   -1.3709   -0.0547 H   0  0  0  0  0  0  0  0  0  0  0  0
    4.3170   -2.7365    0.5052 H   0  0  0  0  0  0  0  0  0  0  0  0
    4.8623    1.0619   -0.7590 H   0  0  0  0  0  0  0  0  0  0  0  0
    4.2525    1.2992   -2.3991 H   0  0  0  0  0  0  0  0  0  0  0  0
    5.2564   -0.1103   -2.0411 H   0  0  0  0  0  0  0  0  0  0  0  0
    1.7125    0.5233   -2.6585 H   0  0  0  0  0  0  0  0  0  0  0  0
   -2.2687   -1.8324   -1.0189 H   0  0  0  0  0  0  0  0  0  0  0  0
   -1.0191   -2.7326   -0.1934 H   0  0  0  0  0  0  0  0  0  0  0  0
    0.4619    3.4885   -1.2656 H   0  0  0  0  0  0  0  0  0  0  0  0
   -0.2200    2.9945   -2.8331 H   0  0  0  0  0  0  0  0  0  0  0  0
   -0.7716    4.4929   -2.0496 H   0  0  0  0  0  0  0  0  0  0  0  0
   -4.4299   -0.6667    2.2613 H   0  0  0  0  0  0  0  0  0  0  0  0
   -4.9955   -1.4531    0.7587 H   0  0  0  0  0  0  0  0  0  0  0  0
   -6.5299    0.2625    2.7296 H   0  0  0  0  0  0  0  0  0  0  0  0
   -7.1509   -1.0803    1.7626 H   0  0  0  0  0  0  0  0  0  0  0  0
   -7.6339    1.6167    1.1585 H   0  0  0  0  0  0  0  0  0  0  0  0
   -7.5609    0.3647   -0.1175 H   0  0  0  0  0  0  0  0  0  0  0  0
    0.9929   -3.6292    0.1329 H   0  0  0  0  0  0  0  0  0  0  0  0
    0.9218   -2.4717    1.4846 H   0  0  0  0  0  0  0  0  0  0  0  0
    2.4038   -3.3453    1.1270 H   0  0  0  0  0  0  0  0  0  0  0  0
  1  2  1  0
  2  3  1  0
  3  4  1  0
  4  5  1  0
  5  6  1  0
  6  7  1  0
  6  8  2  0
  8  9  1  0
  9 10  1  0
 10 11  2  0
 10 12  1  0
 12 13  1  0
 13 14  1  0
 14 15  2  0
 15 16  1  0
 16 17  1  0
 16 18  2  0
 18 19  1  0
 19 20  1  0
 20 21  1  0
 21 22  2  0
 22 23  1  0
 22 24  1  0
 24 25  1  0
 25 26  1  0
  9 27  2  0
 27 28  1  0
 27  5  1  0
 23 14  1  0
 23 19  2  0
 26 21  1  0
  1 29  1  0
  1 30  1  0
  1 31  1  0
  3 32  1  0
  3 33  1  0
  4 34  1  0
  4 35  1  0
  7 36  1  0
  7 37  1  0
  7 38  1  0
  8 39  1  0
 12 40  1  0
 12 41  1  0
 17 42  1  0
 17 43  1  0
 17 44  1  0
 24 45  1  0
 24 46  1  0
 25 47  1  0
 25 48  1  0
 26 49  1  0
 26 50  1  0
 28 51  1  0
 28 52  1  0
 28 53  1  0
M  END
$$$$
