
     RDKit          3D

 47 49  0  0  0  0  0  0  0  0999 V2000
   -2.7375    5.9142   -0.5728 C   0  0  0  0  0  0  0  0  0  0  0  0
   -1.9895    5.0454    0.2809 O   0  0  0  0  0  0  0  0  0  0  0  0
   -1.8264    3.7782   -0.2108 C   0  0  0  0  0  0  0  0  0  0  0  0
   -2.2151    3.3996   -1.3097 O   0  0  0  0  0  0  0  0  0  0  0  0
   -1.0336    2.9342    0.7817 C   0  0  0  0  0  0  0  0  0  0  0  0
   -1.2025    1.5060    0.5110 N   0  0  0  0  0  0  0  0  0  0  0  0
   -0.4530    0.7786   -0.4018 C   0  0  0  0  0  0  0  0  0  0  0  0
    0.6412    1.3331   -1.2462 C   0  0  0  0  0  0  0  0  0  0  0  0
    1.9709    1.0096   -0.5794 C   0  0  0  0  0  0  0  0  0  0  0  0
    2.3623    1.6645    0.3837 O   0  0  0  0  0  0  0  0  0  0  0  0
    2.6179   -0.0668   -1.1648 N   0  0  0  0  0  0  0  0  0  0  0  0
    3.8438   -0.6456   -0.7799 C   0  0  0  0  0  0  0  0  0  0  0  0
    4.5575   -0.2730    0.3626 C   0  0  0  0  0  0  0  0  0  0  0  0
    5.7680   -0.9044    0.6792 C   0  0  0  0  0  0  0  0  0  0  0  0
    6.2728   -1.9032   -0.1513 C   0  0  0  0  0  0  0  0  0  0  0  0
    7.7625   -2.6712    0.2361 Cl  0  0  0  0  0  0  0  0  0  0  0  0
    5.5740   -2.2848   -1.2948 C   0  0  0  0  0  0  0  0  0  0  0  0
    4.3600   -1.6606   -1.6037 C   0  0  0  0  0  0  0  0  0  0  0  0
   -0.9181   -0.4779   -0.4282 C   0  0  0  0  0  0  0  0  0  0  0  0
   -0.4916   -1.4600   -1.2739 O   0  0  0  0  0  0  0  0  0  0  0  0
   -1.9834   -0.6365    0.4429 N   0  0  0  0  0  0  0  0  0  0  0  0
   -2.6453   -1.8514    0.7710 C   0  0  0  0  0  0  0  0  0  0  0  0
   -4.0348   -1.9075    0.9403 C   0  0  0  0  0  0  0  0  0  0  0  0
   -4.6705   -3.1138    1.2558 C   0  0  0  0  0  0  0  0  0  0  0  0
   -3.9202   -4.2766    1.4028 C   0  0  0  0  0  0  0  0  0  0  0  0
   -4.7006   -5.7586    1.7906 Cl  0  0  0  0  0  0  0  0  0  0  0  0
   -2.5409   -4.2455    1.2249 C   0  0  0  0  0  0  0  0  0  0  0  0
   -1.9093   -3.0385    0.9076 C   0  0  0  0  0  0  0  0  0  0  0  0
   -2.2065    0.6517    1.0770 C   0  0  0  0  0  0  0  0  0  0  0  0
   -3.3059    1.0924    2.2517 S   0  0  0  0  0  0  0  0  0  0  0  0
   -3.7881    5.6137   -0.5680 H   0  0  0  0  0  0  0  0  0  0  0  0
   -2.6595    6.9316   -0.1783 H   0  0  0  0  0  0  0  0  0  0  0  0
   -2.3423    5.9065   -1.5965 H   0  0  0  0  0  0  0  0  0  0  0  0
    0.0250    3.2036    0.7221 H   0  0  0  0  0  0  0  0  0  0  0  0
   -1.3860    3.1555    1.7935 H   0  0  0  0  0  0  0  0  0  0  0  0
    0.5711    2.4159   -1.3815 H   0  0  0  0  0  0  0  0  0  0  0  0
    0.6025    0.9095   -2.2563 H   0  0  0  0  0  0  0  0  0  0  0  0
    2.1543   -0.5002   -1.9593 H   0  0  0  0  0  0  0  0  0  0  0  0
    4.1900    0.4934    1.0430 H   0  0  0  0  0  0  0  0  0  0  0  0
    6.3022   -0.6111    1.5800 H   0  0  0  0  0  0  0  0  0  0  0  0
    5.9699   -3.0567   -1.9497 H   0  0  0  0  0  0  0  0  0  0  0  0
    3.8329   -1.9725   -2.5039 H   0  0  0  0  0  0  0  0  0  0  0  0
   -1.2389   -2.0782   -1.3567 H   0  0  0  0  0  0  0  0  0  0  0  0
   -4.6560   -1.0259    0.7916 H   0  0  0  0  0  0  0  0  0  0  0  0
   -5.7501   -3.1336    1.3802 H   0  0  0  0  0  0  0  0  0  0  0  0
   -1.9487   -5.1502    1.3425 H   0  0  0  0  0  0  0  0  0  0  0  0
   -0.8244   -3.0330    0.8150 H   0  0  0  0  0  0  0  0  0  0  0  0
  1  2  1  0
  2  3  1  0
  3  4  2  0
  3  5  1  0
  5  6  1  0
  6  7  1  0
  7  8  1  0
  8  9  1  0
  9 10  2  0
  9 11  1  0
 11 12  1  0
 12 13  2  0
 13 14  1  0
 14 15  2  0
 15 16  1  0
 15 17  1  0
 17 18  2  0
  7 19  2  0
 19 20  1  0
 19 21  1  0
 21 22  1  0
 22 23  2  0
 23 24  1  0
 24 25  2  0
 25 26  1  0
 25 27  1  0
 27 28  2  0
 21 29  1  0
 29 30  2  0
 29  6  1  0
 18 12  1  0
 28 22  1  0
  1 31  1  0
  1 32  1  0
  1 33  1  0
  5 34  1  0
  5 35  1  0
  8 36  1  0
  8 37  1  0
 11 38  1  0
 13 39  1  0
 14 40  1  0
 17 41  1  0
 18 42  1  0
 20 43  1  0
 23 44  1  0
 24 45  1  0
 27 46  1  0
 28 47  1  0
M  END
$$$$
