
     RDKit          3D

 44 46  0  0  0  0  0  0  0  0999 V2000
    3.3260    3.6477   -2.7917 C   0  0  0  0  0  0  0  0  0  0  0  0
    3.1937    2.8863   -1.5520 N   0  0  0  0  0  0  0  0  0  0  0  0
    1.8828    3.1278   -0.9012 C   0  0  0  0  0  0  0  0  0  0  0  0
    0.6706    2.4401   -1.5793 C   0  0  0  0  0  0  0  0  0  0  0  0
    0.9042    0.9757   -1.6946 N   0  0  0  0  0  0  0  0  0  0  0  0
    0.3534    0.0366   -0.7928 C   0  0  0  0  0  0  0  0  0  0  0  0
   -0.7383    0.2741   -0.0307 C   0  0  0  0  0  0  0  0  0  0  0  0
   -1.2735   -0.6787    0.9280 C   0  0  0  0  0  0  0  0  0  0  0  0
   -2.5586   -0.6327    1.3232 C   0  0  0  0  0  0  0  0  0  0  0  0
   -3.1695   -1.6716    2.1557 C   0  0  0  0  0  0  0  0  0  0  0  0
   -4.3466   -1.5051    2.8087 C   0  0  0  0  0  0  0  0  0  0  0  0
   -5.0742   -0.2794    2.7600 C   0  0  0  0  0  0  0  0  0  0  0  0
   -5.6673    0.7173    2.7068 N   0  0  0  0  0  0  0  0  0  0  0  0
   -4.9236   -2.5531    3.5833 C   0  0  0  0  0  0  0  0  0  0  0  0
   -5.3828   -3.4141    4.2121 N   0  0  0  0  0  0  0  0  0  0  0  0
   -2.3773   -2.9735    2.1599 C   0  0  0  0  0  0  0  0  0  0  0  0
   -0.8916   -2.7218    2.3997 C   0  0  0  0  0  0  0  0  0  0  0  0
   -0.2893   -1.7249    1.4001 C   0  0  0  0  0  0  0  0  0  0  0  0
    0.2872   -2.3902    0.1530 C   0  0  0  0  0  0  0  0  0  0  0  0
    1.0128   -1.3459   -0.7125 C   0  0  0  0  0  0  0  0  0  0  0  0
    2.1521    0.7329   -2.4646 C   0  0  0  0  0  0  0  0  0  0  0  0
    3.3558    1.4320   -1.7854 C   0  0  0  0  0  0  0  0  0  0  0  0
    2.5796    3.3840   -3.5477 H   0  0  0  0  0  0  0  0  0  0  0  0
    3.2404    4.7202   -2.5903 H   0  0  0  0  0  0  0  0  0  0  0  0
    4.3190    3.4929   -3.2282 H   0  0  0  0  0  0  0  0  0  0  0  0
    1.6980    4.2065   -0.8225 H   0  0  0  0  0  0  0  0  0  0  0  0
    1.9551    2.7619    0.1321 H   0  0  0  0  0  0  0  0  0  0  0  0
   -0.2341    2.6868   -1.0186 H   0  0  0  0  0  0  0  0  0  0  0  0
    0.5157    2.8531   -2.5841 H   0  0  0  0  0  0  0  0  0  0  0  0
   -1.2981    1.1964   -0.1354 H   0  0  0  0  0  0  0  0  0  0  0  0
   -3.1906    0.1784    0.9641 H   0  0  0  0  0  0  0  0  0  0  0  0
   -2.5167   -3.4757    1.1925 H   0  0  0  0  0  0  0  0  0  0  0  0
   -2.7295   -3.6729    2.9254 H   0  0  0  0  0  0  0  0  0  0  0  0
   -0.7701   -2.3184    3.4140 H   0  0  0  0  0  0  0  0  0  0  0  0
   -0.3425   -3.6699    2.3814 H   0  0  0  0  0  0  0  0  0  0  0  0
    0.5354   -1.2196    1.9258 H   0  0  0  0  0  0  0  0  0  0  0  0
   -0.5128   -2.8604   -0.4351 H   0  0  0  0  0  0  0  0  0  0  0  0
    0.9905   -3.1874    0.4216 H   0  0  0  0  0  0  0  0  0  0  0  0
    2.0280   -1.2150   -0.3161 H   0  0  0  0  0  0  0  0  0  0  0  0
    1.1024   -1.7734   -1.7172 H   0  0  0  0  0  0  0  0  0  0  0  0
    2.0164    1.1227   -3.4807 H   0  0  0  0  0  0  0  0  0  0  0  0
    2.3752   -0.3298   -2.5889 H   0  0  0  0  0  0  0  0  0  0  0  0
    4.2659    1.2463   -2.3678 H   0  0  0  0  0  0  0  0  0  0  0  0
    3.5264    0.9583   -0.8098 H   0  0  0  0  0  0  0  0  0  0  0  0
  1  2  1  0
  2  3  1  0
  3  4  1  0
  4  5  1  0
  5  6  1  0
  6  7  2  0
  7  8  1  0
  8  9  2  0
  9 10  1  0
 10 11  2  3
 11 12  1  0
 12 13  3  0
 11 14  1  0
 14 15  3  0
 10 16  1  0
 16 17  1  0
 17 18  1  0
 18 19  1  0
 19 20  1  0
  5 21  1  0
 21 22  1  0
 22  2  1  0
 20  6  1  0
 18  8  1  0
  1 23  1  0
  1 24  1  0
  1 25  1  0
  3 26  1  0
  3 27  1  0
  4 28  1  0
  4 29  1  0
  7 30  1  0
  9 31  1  0
 16 32  1  0
 16 33  1  0
 17 34  1  0
 17 35  1  0
 18 36  1  0
 19 37  1  0
 19 38  1  0
 20 39  1  0
 20 40  1  0
 21 41  1  0
 21 42  1  0
 22 43  1  0
 22 44  1  0
M  END
$$$$
