
     RDKit          3D

 56 60  0  0  0  0  0  0  0  0999 V2000
    7.7066   -2.5425   -1.6971 C   0  0  0  0  0  0  0  0  0  0  0  0
    6.4075   -2.4810   -0.9846 C   0  0  0  0  0  0  0  0  0  0  0  0
    6.1564   -1.4828   -0.1281 N   0  0  0  0  0  0  0  0  0  0  0  0
    4.9029   -1.7305    0.3188 N   0  0  0  0  0  0  0  0  0  0  0  0
    4.3126   -0.8173    1.2934 C   0  0  0  0  0  0  0  0  0  0  0  0
    3.3375    0.1407    0.6526 C   0  0  0  0  0  0  0  0  0  0  0  0
    3.7783    1.0970   -0.2747 C   0  0  0  0  0  0  0  0  0  0  0  0
    2.8804    1.9946   -0.8545 C   0  0  0  0  0  0  0  0  0  0  0  0
    1.5263    1.9451   -0.5213 C   0  0  0  0  0  0  0  0  0  0  0  0
    1.0666    0.9882    0.3909 C   0  0  0  0  0  0  0  0  0  0  0  0
   -0.3690    0.8915    0.7781 C   0  0  0  0  0  0  0  0  0  0  0  0
   -0.6653    0.4532    1.8827 O   0  0  0  0  0  0  0  0  0  0  0  0
   -1.2809    1.2767   -0.1837 N   0  0  0  0  0  0  0  0  0  0  0  0
   -2.7375    1.1752   -0.0336 C   0  0  0  0  0  0  0  0  0  0  0  0
   -3.1929   -0.2963    0.1249 C   0  0  0  0  0  0  0  0  0  0  0  0
   -4.7265   -0.3803    0.2227 C   0  0  0  0  0  0  0  0  0  0  0  0
   -5.3497    0.1959   -1.0586 C   0  0  0  0  0  0  0  0  0  0  0  0
   -4.9324    1.6648   -1.2310 C   0  0  0  0  0  0  0  0  0  0  0  0
   -5.4128    2.4765   -0.0183 C   0  0  0  0  0  0  0  0  0  0  0  0
   -4.7892    1.9143    1.2684 C   0  0  0  0  0  0  0  0  0  0  0  0
   -5.2032    0.4418    1.4322 C   0  0  0  0  0  0  0  0  0  0  0  0
   -3.2556    2.0008    1.1715 C   0  0  0  0  0  0  0  0  0  0  0  0
   -3.4001    1.7469   -1.3168 C   0  0  0  0  0  0  0  0  0  0  0  0
    1.9754    0.1020    0.9867 C   0  0  0  0  0  0  0  0  0  0  0  0
    4.3515   -2.8762   -0.2095 C   0  0  0  0  0  0  0  0  0  0  0  0
    2.9934   -3.3678    0.1288 C   0  0  0  0  0  0  0  0  0  0  0  0
    5.3132   -3.3639   -1.0637 C   0  0  0  0  0  0  0  0  0  0  0  0
    5.2318   -4.8935   -2.1419 Br  0  0  0  0  0  0  0  0  0  0  0  0
    7.5519   -2.5028   -2.7801 H   0  0  0  0  0  0  0  0  0  0  0  0
    8.2334   -3.4709   -1.4546 H   0  0  0  0  0  0  0  0  0  0  0  0
    8.3571   -1.7058   -1.4206 H   0  0  0  0  0  0  0  0  0  0  0  0
    3.8370   -1.4281    2.0683 H   0  0  0  0  0  0  0  0  0  0  0  0
    5.1242   -0.2602    1.7766 H   0  0  0  0  0  0  0  0  0  0  0  0
    4.8327    1.1479   -0.5476 H   0  0  0  0  0  0  0  0  0  0  0  0
    3.2417    2.7384   -1.5609 H   0  0  0  0  0  0  0  0  0  0  0  0
    0.8515    2.6753   -0.9586 H   0  0  0  0  0  0  0  0  0  0  0  0
   -0.9327    1.3826   -1.1270 H   0  0  0  0  0  0  0  0  0  0  0  0
   -2.7515   -0.7476    1.0214 H   0  0  0  0  0  0  0  0  0  0  0  0
   -2.8395   -0.8944   -0.7253 H   0  0  0  0  0  0  0  0  0  0  0  0
   -5.0313   -1.4258    0.3433 H   0  0  0  0  0  0  0  0  0  0  0  0
   -5.0279   -0.3901   -1.9283 H   0  0  0  0  0  0  0  0  0  0  0  0
   -6.4429    0.1200   -1.0105 H   0  0  0  0  0  0  0  0  0  0  0  0
   -5.3767    2.0703   -2.1468 H   0  0  0  0  0  0  0  0  0  0  0  0
   -6.5071    2.4395    0.0480 H   0  0  0  0  0  0  0  0  0  0  0  0
   -5.1366    3.5311   -0.1393 H   0  0  0  0  0  0  0  0  0  0  0  0
   -5.1373    2.4940    2.1307 H   0  0  0  0  0  0  0  0  0  0  0  0
   -6.2936    0.3687    1.5272 H   0  0  0  0  0  0  0  0  0  0  0  0
   -4.7753    0.0326    2.3556 H   0  0  0  0  0  0  0  0  0  0  0  0
   -2.9455    3.0495    1.0718 H   0  0  0  0  0  0  0  0  0  0  0  0
   -2.8222    1.6415    2.1118 H   0  0  0  0  0  0  0  0  0  0  0  0
   -3.0920    2.7903   -1.4674 H   0  0  0  0  0  0  0  0  0  0  0  0
   -3.0514    1.1947   -2.1999 H   0  0  0  0  0  0  0  0  0  0  0  0
    1.6085   -0.6237    1.7116 H   0  0  0  0  0  0  0  0  0  0  0  0
    2.8384   -3.3893    1.2118 H   0  0  0  0  0  0  0  0  0  0  0  0
    2.2304   -2.7259   -0.3219 H   0  0  0  0  0  0  0  0  0  0  0  0
    2.8316   -4.3850   -0.2405 H   0  0  0  0  0  0  0  0  0  0  0  0
  1  2  1  0
  2  3  2  0
  3  4  1  0
  4  5  1  0
  5  6  1  0
  6  7  2  0
  7  8  1  0
  8  9  2  0
  9 10  1  0
 10 11  1  0
 11 12  2  0
 11 13  1  0
 13 14  1  0
 14 15  1  0
 15 16  1  0
 16 17  1  0
 17 18  1  0
 18 19  1  0
 19 20  1  0
 20 21  1  0
 20 22  1  0
 18 23  1  0
 10 24  2  0
  4 25  1  0
 25 26  1  0
 25 27  2  0
 27 28  1  0
 27  2  1  0
 24  6  1  0
 22 14  1  0
 23 14  1  0
 21 16  1  0
  1 29  1  0
  1 30  1  0
  1 31  1  0
  5 32  1  0
  5 33  1  0
  7 34  1  0
  8 35  1  0
  9 36  1  0
 13 37  1  0
 15 38  1  0
 15 39  1  0
 16 40  1  0
 17 41  1  0
 17 42  1  0
 18 43  1  0
 19 44  1  0
 19 45  1  0
 20 46  1  0
 21 47  1  0
 21 48  1  0
 22 49  1  0
 22 50  1  0
 23 51  1  0
 23 52  1  0
 24 53  1  0
 26 54  1  0
 26 55  1  0
 26 56  1  0
M  END
$$$$
