
     RDKit          3D

 41 42  0  0  0  0  0  0  0  0999 V2000
   -5.6362   -0.2856   -3.4421 C   0  0  0  0  0  0  0  0  0  0  0  0
   -5.2634    1.4121   -2.9269 S   0  0  0  0  0  0  0  0  0  0  0  0
   -3.9279    1.1094   -1.7838 C   0  0  0  0  0  0  0  0  0  0  0  0
   -2.7933    0.3806   -2.1472 C   0  0  0  0  0  0  0  0  0  0  0  0
   -1.7596    0.1735   -1.2284 C   0  0  0  0  0  0  0  0  0  0  0  0
   -1.8345    0.7069    0.0664 C   0  0  0  0  0  0  0  0  0  0  0  0
   -0.7138    0.4842    1.0602 C   0  0  0  0  0  0  0  0  0  0  0  0
    0.3648    1.4968    1.1092 N   0  0  0  0  0  0  0  0  0  0  0  0
   -0.1257    2.8059    1.5399 C   0  0  0  0  0  0  0  0  0  0  0  0
    1.1083    1.6300   -0.1676 C   0  0  0  0  0  0  0  0  0  0  0  0
    1.9156    0.3626   -0.4822 C   0  0  0  0  0  0  0  0  0  0  0  0
    2.0303   -0.0505   -1.6318 O   0  0  0  0  0  0  0  0  0  0  0  0
    2.4929   -0.1763    0.6556 N   0  0  0  0  0  0  0  0  0  0  0  0
    3.3249   -1.3036    0.7631 C   0  0  0  0  0  0  0  0  0  0  0  0
    3.7816   -2.0389   -0.3329 C   0  0  0  0  0  0  0  0  0  0  0  0
    4.6099   -3.1508   -0.1469 C   0  0  0  0  0  0  0  0  0  0  0  0
    4.9895   -3.5359    1.1370 C   0  0  0  0  0  0  0  0  0  0  0  0
    4.5381   -2.8032    2.2308 C   0  0  0  0  0  0  0  0  0  0  0  0
    5.0493   -3.3173    3.9776 Br  0  0  0  0  0  0  0  0  0  0  0  0
    3.7116   -1.6925    2.0513 C   0  0  0  0  0  0  0  0  0  0  0  0
   -2.9733    1.4423    0.4228 C   0  0  0  0  0  0  0  0  0  0  0  0
   -4.0066    1.6469   -0.4966 C   0  0  0  0  0  0  0  0  0  0  0  0
   -4.8185   -0.7031   -4.0350 H   0  0  0  0  0  0  0  0  0  0  0  0
   -5.8181   -0.9210   -2.5709 H   0  0  0  0  0  0  0  0  0  0  0  0
   -6.5381   -0.2793   -4.0602 H   0  0  0  0  0  0  0  0  0  0  0  0
   -2.6891   -0.0239   -3.1506 H   0  0  0  0  0  0  0  0  0  0  0  0
   -0.8888   -0.4023   -1.5390 H   0  0  0  0  0  0  0  0  0  0  0  0
   -1.1505    0.3923    2.0643 H   0  0  0  0  0  0  0  0  0  0  0  0
   -0.2804   -0.5079    0.8793 H   0  0  0  0  0  0  0  0  0  0  0  0
   -0.7673    3.2855    0.7932 H   0  0  0  0  0  0  0  0  0  0  0  0
   -0.6807    2.7246    2.4811 H   0  0  0  0  0  0  0  0  0  0  0  0
    0.7177    3.4776    1.7372 H   0  0  0  0  0  0  0  0  0  0  0  0
    0.4537    1.8714   -1.0108 H   0  0  0  0  0  0  0  0  0  0  0  0
    1.8477    2.4374   -0.0857 H   0  0  0  0  0  0  0  0  0  0  0  0
    2.1960    0.2787    1.5158 H   0  0  0  0  0  0  0  0  0  0  0  0
    3.5132   -1.7703   -1.3503 H   0  0  0  0  0  0  0  0  0  0  0  0
    4.9575   -3.7135   -1.0101 H   0  0  0  0  0  0  0  0  0  0  0  0
    5.6332   -4.4008    1.2714 H   0  0  0  0  0  0  0  0  0  0  0  0
    3.3711   -1.1342    2.9189 H   0  0  0  0  0  0  0  0  0  0  0  0
   -3.0653    1.8645    1.4210 H   0  0  0  0  0  0  0  0  0  0  0  0
   -4.8759    2.2277   -0.1963 H   0  0  0  0  0  0  0  0  0  0  0  0
  1  2  1  0
  2  3  1  0
  3  4  2  0
  4  5  1  0
  5  6  2  0
  6  7  1  0
  7  8  1  0
  8  9  1  0
  8 10  1  0
 10 11  1  0
 11 12  2  0
 11 13  1  0
 13 14  1  0
 14 15  2  0
 15 16  1  0
 16 17  2  0
 17 18  1  0
 18 19  1  0
 18 20  2  0
  6 21  1  0
 21 22  2  0
 22  3  1  0
 20 14  1  0
  1 23  1  0
  1 24  1  0
  1 25  1  0
  4 26  1  0
  5 27  1  0
  7 28  1  0
  7 29  1  0
  9 30  1  0
  9 31  1  0
  9 32  1  0
 10 33  1  0
 10 34  1  0
 13 35  1  0
 15 36  1  0
 16 37  1  0
 17 38  1  0
 20 39  1  0
 21 40  1  0
 22 41  1  0
M  END
$$$$
