
     RDKit          3D

 33 33  0  0  0  0  0  0  0  0999 V2000
    6.1329    1.2246    3.3216 C   0  0  0  0  0  0  0  0  0  0  0  0
    5.5501    0.5030    2.3554 C   0  0  0  0  0  0  0  0  0  0  0  0
    4.2568   -0.2333    2.5007 C   0  0  0  0  0  0  0  0  0  0  0  0
    3.2479    0.5168    1.7783 N   0  0  0  0  0  0  0  0  0  0  0  0
    1.9711    0.0661    1.5054 C   0  0  0  0  0  0  0  0  0  0  0  0
    1.4093   -1.4860    1.7938 S   0  0  0  0  0  0  0  0  0  0  0  0
    1.1939    1.0777    0.9614 N   0  0  0  0  0  0  0  0  0  0  0  0
   -0.0932    0.8152    0.4708 N   0  0  0  0  0  0  0  0  0  0  0  0
   -0.6256    1.6940   -0.4531 C   0  0  0  0  0  0  0  0  0  0  0  0
   -0.1196    2.7867   -0.7088 O   0  0  0  0  0  0  0  0  0  0  0  0
   -1.9426    1.2361   -1.0695 C   0  0  0  0  0  0  0  0  0  0  0  0
   -2.0517   -0.1850   -1.0281 O   0  0  0  0  0  0  0  0  0  0  0  0
   -3.0403   -0.7217   -1.8138 C   0  0  0  0  0  0  0  0  0  0  0  0
   -4.2853   -0.1094   -1.9999 C   0  0  0  0  0  0  0  0  0  0  0  0
   -5.2560   -0.7247   -2.7973 C   0  0  0  0  0  0  0  0  0  0  0  0
   -4.9882   -1.9541   -3.4005 C   0  0  0  0  0  0  0  0  0  0  0  0
   -6.1886   -2.6982   -4.3830 Cl  0  0  0  0  0  0  0  0  0  0  0  0
   -3.7624   -2.5841   -3.2081 C   0  0  0  0  0  0  0  0  0  0  0  0
   -2.7952   -1.9718   -2.4081 C   0  0  0  0  0  0  0  0  0  0  0  0
   -1.2848   -2.7821   -2.1885 Cl  0  0  0  0  0  0  0  0  0  0  0  0
    5.6821    1.3403    4.3030 H   0  0  0  0  0  0  0  0  0  0  0  0
    7.0863    1.7147    3.1482 H   0  0  0  0  0  0  0  0  0  0  0  0
    6.0507    0.4066    1.3940 H   0  0  0  0  0  0  0  0  0  0  0  0
    4.3513   -1.2427    2.0878 H   0  0  0  0  0  0  0  0  0  0  0  0
    3.9408   -0.3075    3.5466 H   0  0  0  0  0  0  0  0  0  0  0  0
    3.3462    1.5223    1.8325 H   0  0  0  0  0  0  0  0  0  0  0  0
    1.6327    1.9125    0.5761 H   0  0  0  0  0  0  0  0  0  0  0  0
   -0.4028   -0.1587    0.4773 H   0  0  0  0  0  0  0  0  0  0  0  0
   -1.9576    1.5909   -2.1064 H   0  0  0  0  0  0  0  0  0  0  0  0
   -2.7471    1.7010   -0.4901 H   0  0  0  0  0  0  0  0  0  0  0  0
   -4.5325    0.8352   -1.5263 H   0  0  0  0  0  0  0  0  0  0  0  0
   -6.2214   -0.2420   -2.9369 H   0  0  0  0  0  0  0  0  0  0  0  0
   -3.5571   -3.5425   -3.6806 H   0  0  0  0  0  0  0  0  0  0  0  0
  1  2  2  0
  2  3  1  0
  3  4  1  0
  4  5  1  0
  5  6  2  0
  5  7  1  0
  7  8  1  0
  8  9  1  0
  9 10  2  0
  9 11  1  0
 11 12  1  0
 12 13  1  0
 13 14  2  0
 14 15  1  0
 15 16  2  0
 16 17  1  0
 16 18  1  0
 18 19  2  0
 19 20  1  0
 19 13  1  0
  1 21  1  0
  1 22  1  0
  2 23  1  0
  3 24  1  0
  3 25  1  0
  4 26  1  0
  7 27  1  0
  8 28  1  0
 11 29  1  0
 11 30  1  0
 14 31  1  0
 15 32  1  0
 18 33  1  0
M  END
$$$$
