
     RDKit          3D

 49 52  0  0  0  0  0  0  0  0999 V2000
   -7.5610   -0.0260   -2.9268 C   0  0  0  0  0  0  0  0  0  0  0  0
   -7.1012    0.7131   -1.8028 O   0  0  0  0  0  0  0  0  0  0  0  0
   -6.3390    0.0389   -0.8890 C   0  0  0  0  0  0  0  0  0  0  0  0
   -5.9239    0.8036    0.2030 C   0  0  0  0  0  0  0  0  0  0  0  0
   -5.1396    0.2397    1.2117 C   0  0  0  0  0  0  0  0  0  0  0  0
   -4.7612   -1.1067    1.1453 C   0  0  0  0  0  0  0  0  0  0  0  0
   -3.8938   -1.7060    2.2214 C   0  0  0  0  0  0  0  0  0  0  0  0
   -2.5049   -1.3997    1.9839 N   0  0  0  0  0  0  0  0  0  0  0  0
   -1.8449   -0.3888    2.6484 C   0  0  0  0  0  0  0  0  0  0  0  0
   -2.3687    0.2240    3.5765 O   0  0  0  0  0  0  0  0  0  0  0  0
   -0.4966   -0.0951    2.1759 C   0  0  0  0  0  0  0  0  0  0  0  0
    0.3770    0.8555    2.7005 C   0  0  0  0  0  0  0  0  0  0  0  0
    1.5965    0.8705    1.9945 C   0  0  0  0  0  0  0  0  0  0  0  0
    1.6121   -0.0395    0.9840 C   0  0  0  0  0  0  0  0  0  0  0  0
    0.2137   -0.9322    0.8301 S   0  0  0  0  0  0  0  0  0  0  0  0
    2.8867   -0.0267    0.2423 C   0  0  0  0  0  0  0  0  0  0  0  0
    3.7489    0.8108    1.1321 N   0  0  0  0  0  0  0  0  0  0  0  0
    4.6895    1.6517    0.3939 C   0  0  0  0  0  0  0  0  0  0  0  0
    5.7071    0.8524   -0.3919 C   0  0  0  0  0  0  0  0  0  0  0  0
    6.5624   -0.0485    0.2605 C   0  0  0  0  0  0  0  0  0  0  0  0
    7.5062   -0.7810   -0.4607 C   0  0  0  0  0  0  0  0  0  0  0  0
    7.6080   -0.6186   -1.8408 C   0  0  0  0  0  0  0  0  0  0  0  0
    6.7666    0.2755   -2.5006 C   0  0  0  0  0  0  0  0  0  0  0  0
    5.8212    1.0087   -1.7808 C   0  0  0  0  0  0  0  0  0  0  0  0
    2.8755    1.6141    2.0428 C   0  0  0  0  0  0  0  0  0  0  0  0
   -5.1709   -1.8689    0.0434 C   0  0  0  0  0  0  0  0  0  0  0  0
   -5.9578   -1.3007   -0.9657 C   0  0  0  0  0  0  0  0  0  0  0  0
   -8.1562    0.6487   -3.5497 H   0  0  0  0  0  0  0  0  0  0  0  0
   -8.2095   -0.8526   -2.6179 H   0  0  0  0  0  0  0  0  0  0  0  0
   -6.7226   -0.3854   -3.5326 H   0  0  0  0  0  0  0  0  0  0  0  0
   -6.2117    1.8500    0.2689 H   0  0  0  0  0  0  0  0  0  0  0  0
   -4.8212    0.8581    2.0496 H   0  0  0  0  0  0  0  0  0  0  0  0
   -4.2128   -1.3514    3.2078 H   0  0  0  0  0  0  0  0  0  0  0  0
   -3.9896   -2.7974    2.2242 H   0  0  0  0  0  0  0  0  0  0  0  0
   -2.0628   -1.7812    1.1587 H   0  0  0  0  0  0  0  0  0  0  0  0
    0.1243    1.4872    3.5442 H   0  0  0  0  0  0  0  0  0  0  0  0
    2.7361    0.4313   -0.7422 H   0  0  0  0  0  0  0  0  0  0  0  0
    3.3148   -1.0270    0.1296 H   0  0  0  0  0  0  0  0  0  0  0  0
    4.1518    2.3395   -0.2720 H   0  0  0  0  0  0  0  0  0  0  0  0
    5.2521    2.2805    1.0968 H   0  0  0  0  0  0  0  0  0  0  0  0
    6.4857   -0.1864    1.3373 H   0  0  0  0  0  0  0  0  0  0  0  0
    8.1600   -1.4789    0.0554 H   0  0  0  0  0  0  0  0  0  0  0  0
    8.3431   -1.1892   -2.4021 H   0  0  0  0  0  0  0  0  0  0  0  0
    6.8474    0.4022   -3.5770 H   0  0  0  0  0  0  0  0  0  0  0  0
    5.1741    1.7022   -2.3128 H   0  0  0  0  0  0  0  0  0  0  0  0
    2.7218    2.6355    1.6753 H   0  0  0  0  0  0  0  0  0  0  0  0
    3.3021    1.6402    3.0494 H   0  0  0  0  0  0  0  0  0  0  0  0
   -4.8817   -2.9143   -0.0391 H   0  0  0  0  0  0  0  0  0  0  0  0
   -6.2533   -1.9317   -1.7971 H   0  0  0  0  0  0  0  0  0  0  0  0
  1  2  1  0
  2  3  1  0
  3  4  2  0
  4  5  1  0
  5  6  2  0
  6  7  1  0
  7  8  1  0
  8  9  1  0
  9 10  2  0
  9 11  1  0
 11 12  2  0
 12 13  1  0
 13 14  2  0
 14 15  1  0
 14 16  1  0
 16 17  1  0
 17 18  1  0
 18 19  1  0
 19 20  2  0
 20 21  1  0
 21 22  2  0
 22 23  1  0
 23 24  2  0
 17 25  1  0
  6 26  1  0
 26 27  2  0
 27  3  1  0
 15 11  1  0
 24 19  1  0
 25 13  1  0
  1 28  1  0
  1 29  1  0
  1 30  1  0
  4 31  1  0
  5 32  1  0
  7 33  1  0
  7 34  1  0
  8 35  1  0
 12 36  1  0
 16 37  1  0
 16 38  1  0
 18 39  1  0
 18 40  1  0
 20 41  1  0
 21 42  1  0
 22 43  1  0
 23 44  1  0
 24 45  1  0
 25 46  1  0
 25 47  1  0
 26 48  1  0
 27 49  1  0
M  END
$$$$
