
     RDKit          3D

 39 40  0  0  0  0  0  0  0  0999 V2000
    7.6088   -0.3047    0.7948 C   0  0  0  0  0  0  0  0  0  0  0  0
    6.7655   -0.5432   -0.3248 O   0  0  0  0  0  0  0  0  0  0  0  0
    5.4176   -0.5462   -0.0935 C   0  0  0  0  0  0  0  0  0  0  0  0
    4.7939   -0.3215    1.1336 C   0  0  0  0  0  0  0  0  0  0  0  0
    3.3979   -0.3522    1.2307 C   0  0  0  0  0  0  0  0  0  0  0  0
    2.6095   -0.6119    0.1033 C   0  0  0  0  0  0  0  0  0  0  0  0
    1.1069   -0.6243    0.2015 C   0  0  0  0  0  0  0  0  0  0  0  0
    0.4991    0.7289   -0.1642 C   0  0  0  0  0  0  0  0  0  0  0  0
   -0.9292    0.7022    0.0068 O   0  0  0  0  0  0  0  0  0  0  0  0
   -1.6323    0.1917   -1.0329 C   0  0  0  0  0  0  0  0  0  0  0  0
   -1.1645   -0.2475   -2.0706 O   0  0  0  0  0  0  0  0  0  0  0  0
   -3.0921    0.2312   -0.7444 C   0  0  0  0  0  0  0  0  0  0  0  0
   -3.9715   -0.2577   -1.7172 C   0  0  0  0  0  0  0  0  0  0  0  0
   -5.3544   -0.2473   -1.4978 C   0  0  0  0  0  0  0  0  0  0  0  0
   -5.9026    0.2862   -0.3234 C   0  0  0  0  0  0  0  0  0  0  0  0
   -7.2831    0.1323   -0.1150 N   0  0  0  0  0  0  0  0  0  0  0  0
   -5.0014    0.7267    0.6666 C   0  0  0  0  0  0  0  0  0  0  0  0
   -5.4914    1.2343    1.9492 N   0  0  0  0  0  4  0  0  0  0  0  0
   -6.5917    1.8084    1.9641 O   0  0  0  0  0  0  0  0  0  0  0  0
   -4.7627    1.0801    2.9403 O   0  0  0  0  0  1  0  0  0  0  0  0
   -3.6095    0.7201    0.4589 C   0  0  0  0  0  0  0  0  0  0  0  0
    3.2392   -0.8321   -1.1264 C   0  0  0  0  0  0  0  0  0  0  0  0
    4.6323   -0.8001   -1.2199 C   0  0  0  0  0  0  0  0  0  0  0  0
    8.6455   -0.3425    0.4465 H   0  0  0  0  0  0  0  0  0  0  0  0
    7.4848   -1.0824    1.5557 H   0  0  0  0  0  0  0  0  0  0  0  0
    7.4349    0.6915    1.2146 H   0  0  0  0  0  0  0  0  0  0  0  0
    5.3622   -0.1188    2.0349 H   0  0  0  0  0  0  0  0  0  0  0  0
    2.9319   -0.1725    2.1973 H   0  0  0  0  0  0  0  0  0  0  0  0
    0.7959   -0.9064    1.2158 H   0  0  0  0  0  0  0  0  0  0  0  0
    0.7026   -1.4151   -0.4426 H   0  0  0  0  0  0  0  0  0  0  0  0
    0.8806    1.5085    0.5053 H   0  0  0  0  0  0  0  0  0  0  0  0
    0.7613    1.0383   -1.1838 H   0  0  0  0  0  0  0  0  0  0  0  0
   -3.5852   -0.6658   -2.6509 H   0  0  0  0  0  0  0  0  0  0  0  0
   -6.0051   -0.6699   -2.2617 H   0  0  0  0  0  0  0  0  0  0  0  0
   -7.8438    0.1204   -0.9626 H   0  0  0  0  0  0  0  0  0  0  0  0
   -7.6703    0.7790    0.5787 H   0  0  0  0  0  0  0  0  0  0  0  0
   -2.9412    1.0880    1.2351 H   0  0  0  0  0  0  0  0  0  0  0  0
    2.6511   -1.0307   -2.0203 H   0  0  0  0  0  0  0  0  0  0  0  0
    5.1105   -0.9751   -2.1806 H   0  0  0  0  0  0  0  0  0  0  0  0
  1  2  1  0
  2  3  1  0
  3  4  2  0
  4  5  1  0
  5  6  2  0
  6  7  1  0
  7  8  1  0
  8  9  1  0
  9 10  1  0
 10 11  2  0
 10 12  1  0
 12 13  2  0
 13 14  1  0
 14 15  2  0
 15 16  1  0
 15 17  1  0
 17 18  1  0
 18 19  2  0
 18 20  1  0
 17 21  2  0
  6 22  1  0
 22 23  2  0
 23  3  1  0
 21 12  1  0
  1 24  1  0
  1 25  1  0
  1 26  1  0
  4 27  1  0
  5 28  1  0
  7 29  1  0
  7 30  1  0
  8 31  1  0
  8 32  1  0
 13 33  1  0
 14 34  1  0
 16 35  1  0
 16 36  1  0
 21 37  1  0
 22 38  1  0
 23 39  1  0
M  CHG  2  18   1  20  -1
M  END
$$$$
