
     RDKit          3D

 52 55  0  0  0  0  0  0  0  0999 V2000
   -3.1873    3.3755   -0.3184 C   0  0  0  0  0  0  0  0  0  0  0  0
   -4.4629    2.5849   -0.2216 C   0  0  0  0  0  0  0  0  0  0  0  0
   -5.5132    3.1250    0.5458 C   0  0  0  0  0  0  0  0  0  0  0  0
   -6.7333    2.4578    0.6804 C   0  0  0  0  0  0  0  0  0  0  0  0
   -6.9215    1.2312    0.0390 C   0  0  0  0  0  0  0  0  0  0  0  0
   -8.2000    0.5239    0.1824 N   0  0  0  0  0  4  0  0  0  0  0  0
   -8.2817   -0.6181   -0.2901 O   0  0  0  0  0  0  0  0  0  0  0  0
   -9.1176    1.1082    0.7757 O   0  0  0  0  0  1  0  0  0  0  0  0
   -5.8995    0.6718   -0.7336 C   0  0  0  0  0  0  0  0  0  0  0  0
   -4.6702    1.3454   -0.8603 C   0  0  0  0  0  0  0  0  0  0  0  0
   -3.4442    0.5427   -1.8893 S   0  0  0  0  0  6  0  0  0  0  0  0
   -4.1616   -0.0235   -3.0130 O   0  0  0  0  0  0  0  0  0  0  0  0
   -2.3099    1.4102   -2.1051 O   0  0  0  0  0  0  0  0  0  0  0  0
   -2.9772   -0.7705   -0.9270 N   0  0  0  0  0  0  0  0  0  0  0  0
   -1.9946   -0.5397    0.0755 C   0  0  0  0  0  0  0  0  0  0  0  0
   -2.3835   -0.0989    1.3365 C   0  0  0  0  0  0  0  0  0  0  0  0
   -1.4158    0.1654    2.3018 C   0  0  0  0  0  0  0  0  0  0  0  0
   -0.0607   -0.0030    1.9994 C   0  0  0  0  0  0  0  0  0  0  0  0
    0.3571   -0.4357    0.7267 C   0  0  0  0  0  0  0  0  0  0  0  0
    1.7797   -0.6191    0.3919 C   0  0  0  0  0  0  0  0  0  0  0  0
    2.8040    0.1651    0.8973 C   0  0  0  0  0  0  0  0  0  0  0  0
    4.1230   -0.0959    0.5137 C   0  0  0  0  0  0  0  0  0  0  0  0
    4.4122   -1.1340   -0.3617 C   0  0  0  0  0  0  0  0  0  0  0  0
    5.6995   -1.4043   -0.7724 N   0  0  0  0  0  0  0  0  0  0  0  0
    5.9304   -2.5478   -1.6488 C   0  0  0  0  0  0  0  0  0  0  0  0
    7.4515   -2.5972   -1.7496 C   0  0  0  0  0  0  0  0  0  0  0  0
    7.8877   -2.1831   -0.3531 C   0  0  0  0  0  0  0  0  0  0  0  0
    6.8737   -1.1069    0.0396 C   0  0  0  0  0  0  0  0  0  0  0  0
    3.3836   -1.8612   -0.8453 N   0  0  0  0  0  0  0  0  0  0  0  0
    2.0710   -1.6133   -0.4695 N   0  0  0  0  0  0  0  0  0  0  0  0
   -0.6417   -0.7005   -0.2296 C   0  0  0  0  0  0  0  0  0  0  0  0
   -2.3345    2.7830    0.0245 H   0  0  0  0  0  0  0  0  0  0  0  0
   -3.0290    3.7220   -1.3440 H   0  0  0  0  0  0  0  0  0  0  0  0
   -3.2211    4.2674    0.3176 H   0  0  0  0  0  0  0  0  0  0  0  0
   -5.3876    4.0843    1.0483 H   0  0  0  0  0  0  0  0  0  0  0  0
   -7.5198    2.9089    1.2829 H   0  0  0  0  0  0  0  0  0  0  0  0
   -6.0477   -0.2813   -1.2410 H   0  0  0  0  0  0  0  0  0  0  0  0
   -2.8535   -1.6016   -1.5073 H   0  0  0  0  0  0  0  0  0  0  0  0
   -3.4339    0.0225    1.5834 H   0  0  0  0  0  0  0  0  0  0  0  0
   -1.7137    0.4945    3.2944 H   0  0  0  0  0  0  0  0  0  0  0  0
    0.6684    0.1910    2.7839 H   0  0  0  0  0  0  0  0  0  0  0  0
    2.6006    0.9940    1.5661 H   0  0  0  0  0  0  0  0  0  0  0  0
    4.9135    0.5413    0.8943 H   0  0  0  0  0  0  0  0  0  0  0  0
    5.5549   -3.4734   -1.1950 H   0  0  0  0  0  0  0  0  0  0  0  0
    5.4735   -2.4147   -2.6351 H   0  0  0  0  0  0  0  0  0  0  0  0
    7.8219   -3.5853   -2.0359 H   0  0  0  0  0  0  0  0  0  0  0  0
    7.8074   -1.8662   -2.4856 H   0  0  0  0  0  0  0  0  0  0  0  0
    7.8067   -3.0375    0.3300 H   0  0  0  0  0  0  0  0  0  0  0  0
    8.9182   -1.8185   -0.3190 H   0  0  0  0  0  0  0  0  0  0  0  0
    7.2516   -0.1097   -0.2113 H   0  0  0  0  0  0  0  0  0  0  0  0
    6.6793   -1.1542    1.1170 H   0  0  0  0  0  0  0  0  0  0  0  0
   -0.3523   -1.0210   -1.2296 H   0  0  0  0  0  0  0  0  0  0  0  0
  1  2  1  0
  2  3  2  0
  3  4  1  0
  4  5  2  0
  5  6  1  0
  6  7  2  0
  6  8  1  0
  5  9  1  0
  9 10  2  0
 10 11  1  0
 11 12  2  0
 11 13  2  0
 11 14  1  0
 14 15  1  0
 15 16  2  0
 16 17  1  0
 17 18  2  0
 18 19  1  0
 19 20  1  0
 20 21  2  0
 21 22  1  0
 22 23  2  0
 23 24  1  0
 24 25  1  0
 25 26  1  0
 26 27  1  0
 27 28  1  0
 23 29  1  0
 29 30  2  0
 19 31  2  0
 10  2  1  0
 31 15  1  0
 30 20  1  0
 28 24  1  0
  1 32  1  0
  1 33  1  0
  1 34  1  0
  3 35  1  0
  4 36  1  0
  9 37  1  0
 14 38  1  0
 16 39  1  0
 17 40  1  0
 18 41  1  0
 21 42  1  0
 22 43  1  0
 25 44  1  0
 25 45  1  0
 26 46  1  0
 26 47  1  0
 27 48  1  0
 27 49  1  0
 28 50  1  0
 28 51  1  0
 31 52  1  0
M  CHG  2   6   1   8  -1
M  END
$$$$
