
     RDKit          3D

 62 64  0  0  0  0  0  0  0  0999 V2000
    6.8996    2.6796    0.2240 C   0  0  0  0  0  0  0  0  0  0  0  0
    7.1751    1.2905    0.7342 C   0  0  0  0  0  0  0  0  0  0  0  0
    8.1992    1.1741    1.6943 C   0  0  0  0  0  0  0  0  0  0  0  0
    8.4657   -0.0370    2.3222 C   0  0  0  0  0  0  0  0  0  0  0  0
    7.7064   -1.1557    2.0059 C   0  0  0  0  0  0  0  0  0  0  0  0
    6.6962   -1.0851    1.0319 C   0  0  0  0  0  0  0  0  0  0  0  0
    5.9265   -2.3456    0.7271 C   0  0  0  0  0  0  0  0  0  0  0  0
    6.4532    0.1378    0.3546 C   0  0  0  0  0  0  0  0  0  0  0  0
    5.4428    0.1359   -0.6384 N   0  0  0  0  0  0  0  0  0  0  0  0
    5.4498    0.8326   -1.8349 C   0  0  0  0  0  0  0  0  0  0  0  0
    6.3716    1.5151   -2.2730 O   0  0  0  0  0  0  0  0  0  0  0  0
    4.1858    0.6072   -2.6752 C   0  0  0  0  0  0  0  0  0  0  0  0
    2.9561    0.9229   -2.0187 O   0  0  0  0  0  0  0  0  0  0  0  0
    2.4399   -0.0573   -1.2335 C   0  0  0  0  0  0  0  0  0  0  0  0
    2.9885   -1.1316   -1.0186 O   0  0  0  0  0  0  0  0  0  0  0  0
    1.1232    0.3662   -0.6413 C   0  0  0  0  0  0  0  0  0  0  0  0
    0.0744   -0.7139   -0.8787 C   0  0  0  0  0  0  0  0  0  0  0  0
   -1.2720   -0.3132   -0.3282 C   0  0  0  0  0  0  0  0  0  0  0  0
   -1.6691   -0.7351    0.9491 C   0  0  0  0  0  0  0  0  0  0  0  0
   -2.9047   -0.3477    1.4712 C   0  0  0  0  0  0  0  0  0  0  0  0
   -3.7445    0.4675    0.7106 C   0  0  0  0  0  0  0  0  0  0  0  0
   -5.3212    0.9729    1.3512 S   0  0  0  0  0  6  0  0  0  0  0  0
   -5.3585    2.4188    1.2945 O   0  0  0  0  0  0  0  0  0  0  0  0
   -5.5702    0.2606    2.5873 O   0  0  0  0  0  0  0  0  0  0  0  0
   -6.4112    0.3606    0.1853 N   0  0  0  0  0  0  0  0  0  0  0  0
   -6.4592   -1.1232    0.0455 C   0  0  0  0  0  0  0  0  0  0  0  0
   -7.7821   -1.6936    0.5379 C   0  0  0  0  0  0  0  0  0  0  0  0
   -8.9677   -1.1213   -0.2366 C   0  0  0  0  0  0  0  0  0  0  0  0
   -8.7182    0.3108   -0.7051 C   0  0  0  0  0  0  0  0  0  0  0  0
   -7.7397    1.0324    0.2125 C   0  0  0  0  0  0  0  0  0  0  0  0
   -3.3608    0.9033   -0.5603 C   0  0  0  0  0  0  0  0  0  0  0  0
   -2.1258    0.5114   -1.0768 C   0  0  0  0  0  0  0  0  0  0  0  0
    5.8489    2.8119   -0.0503 H   0  0  0  0  0  0  0  0  0  0  0  0
    7.0937    3.4209    1.0088 H   0  0  0  0  0  0  0  0  0  0  0  0
    7.5490    2.9148   -0.6241 H   0  0  0  0  0  0  0  0  0  0  0  0
    8.7834    2.0489    1.9755 H   0  0  0  0  0  0  0  0  0  0  0  0
    9.2524   -0.1022    3.0689 H   0  0  0  0  0  0  0  0  0  0  0  0
    7.9145   -2.0927    2.5181 H   0  0  0  0  0  0  0  0  0  0  0  0
    6.0232   -2.6058   -0.3316 H   0  0  0  0  0  0  0  0  0  0  0  0
    4.8707   -2.2150    0.9831 H   0  0  0  0  0  0  0  0  0  0  0  0
    6.2993   -3.1978    1.3053 H   0  0  0  0  0  0  0  0  0  0  0  0
    4.8076   -0.6597   -0.6285 H   0  0  0  0  0  0  0  0  0  0  0  0
    4.2481    1.2673   -3.5475 H   0  0  0  0  0  0  0  0  0  0  0  0
    4.1841   -0.4200   -3.0603 H   0  0  0  0  0  0  0  0  0  0  0  0
    0.8043    1.3118   -1.0966 H   0  0  0  0  0  0  0  0  0  0  0  0
    1.2760    0.5573    0.4272 H   0  0  0  0  0  0  0  0  0  0  0  0
    0.3905   -1.6622   -0.4248 H   0  0  0  0  0  0  0  0  0  0  0  0
   -0.0214   -0.9224   -1.9523 H   0  0  0  0  0  0  0  0  0  0  0  0
   -1.0157   -1.3666    1.5477 H   0  0  0  0  0  0  0  0  0  0  0  0
   -3.1992   -0.6792    2.4648 H   0  0  0  0  0  0  0  0  0  0  0  0
   -6.3110   -1.3646   -1.0141 H   0  0  0  0  0  0  0  0  0  0  0  0
   -5.6373   -1.6020    0.5868 H   0  0  0  0  0  0  0  0  0  0  0  0
   -7.9031   -1.4629    1.6043 H   0  0  0  0  0  0  0  0  0  0  0  0
   -7.7804   -2.7859    0.4517 H   0  0  0  0  0  0  0  0  0  0  0  0
   -9.8589   -1.1584    0.4014 H   0  0  0  0  0  0  0  0  0  0  0  0
   -9.1860   -1.7492   -1.1087 H   0  0  0  0  0  0  0  0  0  0  0  0
   -9.6685    0.8543   -0.7549 H   0  0  0  0  0  0  0  0  0  0  0  0
   -8.3124    0.2914   -1.7249 H   0  0  0  0  0  0  0  0  0  0  0  0
   -8.1334    1.0618    1.2354 H   0  0  0  0  0  0  0  0  0  0  0  0
   -7.6199    2.0621   -0.1419 H   0  0  0  0  0  0  0  0  0  0  0  0
   -4.0168    1.5470   -1.1427 H   0  0  0  0  0  0  0  0  0  0  0  0
   -1.8311    0.8575   -2.0651 H   0  0  0  0  0  0  0  0  0  0  0  0
  1  2  1  0
  2  3  2  0
  3  4  1  0
  4  5  2  0
  5  6  1  0
  6  7  1  0
  6  8  2  0
  8  9  1  0
  9 10  1  0
 10 11  2  0
 10 12  1  0
 12 13  1  0
 13 14  1  0
 14 15  2  0
 14 16  1  0
 16 17  1  0
 17 18  1  0
 18 19  2  0
 19 20  1  0
 20 21  2  0
 21 22  1  0
 22 23  2  0
 22 24  2  0
 22 25  1  0
 25 26  1  0
 26 27  1  0
 27 28  1  0
 28 29  1  0
 29 30  1  0
 21 31  1  0
 31 32  2  0
  8  2  1  0
 32 18  1  0
 30 25  1  0
  1 33  1  0
  1 34  1  0
  1 35  1  0
  3 36  1  0
  4 37  1  0
  5 38  1  0
  7 39  1  0
  7 40  1  0
  7 41  1  0
  9 42  1  0
 12 43  1  0
 12 44  1  0
 16 45  1  0
 16 46  1  0
 17 47  1  0
 17 48  1  0
 19 49  1  0
 20 50  1  0
 26 51  1  0
 26 52  1  0
 27 53  1  0
 27 54  1  0
 28 55  1  0
 28 56  1  0
 29 57  1  0
 29 58  1  0
 30 59  1  0
 30 60  1  0
 31 61  1  0
 32 62  1  0
M  END
$$$$
