
     RDKit          3D

 41 44  0  0  0  0  0  0  0  0999 V2000
    1.2506   -2.7294   -2.3024 O   0  0  0  0  0  0  0  0  0  0  0  0
    1.2754   -1.7621   -1.5418 C   0  0  0  0  0  0  0  0  0  0  0  0
    2.5207   -1.1457   -1.1396 C   0  0  0  0  0  0  0  0  0  0  0  0
    3.4495   -0.3361   -2.3161 S   0  0  0  0  0  0  0  0  0  0  0  0
    4.6663    0.0890   -1.1756 C   0  0  0  0  0  0  0  0  0  0  0  0
    5.8332    0.8372   -1.4293 C   0  0  0  0  0  0  0  0  0  0  0  0
    6.7221    1.0838   -0.3817 C   0  0  0  0  0  0  0  0  0  0  0  0
    6.4625    0.5975    0.8907 C   0  0  0  0  0  0  0  0  0  0  0  0
    5.3042   -0.1456    1.1381 C   0  0  0  0  0  0  0  0  0  0  0  0
    4.3756   -0.4120    0.0974 C   0  0  0  0  0  0  0  0  0  0  0  0
    3.1326   -1.1396    0.0936 C   0  0  0  0  0  0  0  0  0  0  0  0
    2.5156   -1.9123    1.4998 Cl  0  0  0  0  0  0  0  0  0  0  0  0
    0.0949   -1.2166   -1.0372 N   0  0  0  0  0  0  0  0  0  0  0  0
   -0.0077    0.0503   -0.3021 C   0  0  0  0  0  0  0  0  0  0  0  0
   -1.3262    0.8007   -0.5769 C   0  0  0  0  0  0  0  0  0  0  0  0
   -2.5025   -0.0478   -0.3272 N   0  0  0  0  0  0  0  0  0  0  0  0
   -3.7064    0.4976    0.1076 C   0  0  0  0  0  0  0  0  0  0  0  0
   -4.0385    1.8352   -0.1786 C   0  0  0  0  0  0  0  0  0  0  0  0
   -5.2470    2.4115    0.2383 C   0  0  0  0  0  0  0  0  0  0  0  0
   -6.1689    1.6616    0.9587 C   0  0  0  0  0  0  0  0  0  0  0  0
   -5.8797    0.3363    1.2576 C   0  0  0  0  0  0  0  0  0  0  0  0
   -4.6728   -0.2285    0.8362 C   0  0  0  0  0  0  0  0  0  0  0  0
   -4.4508   -1.5069    1.1849 F   0  0  0  0  0  0  0  0  0  0  0  0
   -2.3122   -1.5076   -0.3958 C   0  0  0  0  0  0  0  0  0  0  0  0
   -1.1703   -1.8802   -1.3577 C   0  0  0  0  0  0  0  0  0  0  0  0
    6.0429    1.2146   -2.4266 H   0  0  0  0  0  0  0  0  0  0  0  0
    7.6267    1.6583   -0.5683 H   0  0  0  0  0  0  0  0  0  0  0  0
    7.1624    0.7905    1.7004 H   0  0  0  0  0  0  0  0  0  0  0  0
    5.1197   -0.5220    2.1421 H   0  0  0  0  0  0  0  0  0  0  0  0
    0.8349    0.7044   -0.5435 H   0  0  0  0  0  0  0  0  0  0  0  0
    0.0520   -0.1990    0.7636 H   0  0  0  0  0  0  0  0  0  0  0  0
   -1.3472    1.1329   -1.6218 H   0  0  0  0  0  0  0  0  0  0  0  0
   -1.3347    1.6899    0.0648 H   0  0  0  0  0  0  0  0  0  0  0  0
   -3.3659    2.4562   -0.7644 H   0  0  0  0  0  0  0  0  0  0  0  0
   -5.4645    3.4474   -0.0107 H   0  0  0  0  0  0  0  0  0  0  0  0
   -7.1062    2.1055    1.2825 H   0  0  0  0  0  0  0  0  0  0  0  0
   -6.5811   -0.2706    1.8213 H   0  0  0  0  0  0  0  0  0  0  0  0
   -3.2205   -2.0021   -0.7596 H   0  0  0  0  0  0  0  0  0  0  0  0
   -2.0818   -1.8885    0.6066 H   0  0  0  0  0  0  0  0  0  0  0  0
   -1.4322   -1.5814   -2.3804 H   0  0  0  0  0  0  0  0  0  0  0  0
   -1.0250   -2.9663   -1.3584 H   0  0  0  0  0  0  0  0  0  0  0  0
  1  2  2  0
  2  3  1  0
  3  4  1  0
  4  5  1  0
  5  6  2  0
  6  7  1  0
  7  8  2  0
  8  9  1  0
  9 10  2  0
 10 11  1  0
 11 12  1  0
  2 13  1  0
 13 14  1  0
 14 15  1  0
 15 16  1  0
 16 17  1  0
 17 18  2  0
 18 19  1  0
 19 20  2  0
 20 21  1  0
 21 22  2  0
 22 23  1  0
 16 24  1  0
 24 25  1  0
 11  3  2  0
 25 13  1  0
 10  5  1  0
 22 17  1  0
  6 26  1  0
  7 27  1  0
  8 28  1  0
  9 29  1  0
 14 30  1  0
 14 31  1  0
 15 32  1  0
 15 33  1  0
 18 34  1  0
 19 35  1  0
 20 36  1  0
 21 37  1  0
 24 38  1  0
 24 39  1  0
 25 40  1  0
 25 41  1  0
M  END
$$$$
