
     RDKit          3D

 53 56  0  0  0  0  0  0  0  0999 V2000
    1.2546   -2.6173   -1.6231 O   0  0  0  0  0  0  0  0  0  0  0  0
    1.1557   -1.7426   -0.7634 C   0  0  0  0  0  0  0  0  0  0  0  0
    0.1797   -1.8676    0.3975 C   0  0  0  0  0  0  0  0  0  0  0  0
   -0.6998   -3.1145    0.3214 C   0  0  0  0  0  0  0  0  0  0  0  0
   -2.1035   -2.9385   -0.8395 S   0  0  0  0  0  0  0  0  0  0  0  0
   -3.2915   -2.0954    0.1729 C   0  0  0  0  0  0  0  0  0  0  0  0
   -4.5624   -2.1393   -0.2408 N   0  0  0  0  0  0  0  0  0  0  0  0
   -5.4740   -1.4889    0.5075 C   0  0  0  0  0  0  0  0  0  0  0  0
   -6.8394   -1.5738    0.0085 C   0  0  0  0  0  0  0  0  0  0  0  0
   -7.4198   -2.1906   -1.0833 C   0  0  0  0  0  0  0  0  0  0  0  0
   -8.8047   -1.9040   -1.0260 C   0  0  0  0  0  0  0  0  0  0  0  0
   -8.9875   -1.1305    0.0955 C   0  0  0  0  0  0  0  0  0  0  0  0
   -7.8042   -0.9240    0.7302 O   0  0  0  0  0  0  0  0  0  0  0  0
   -5.1439   -0.7958    1.6515 C   0  0  0  0  0  0  0  0  0  0  0  0
   -3.8092   -0.7963    2.0078 C   0  0  0  0  0  0  0  0  0  0  0  0
   -3.3813   -0.0379    3.2519 C   0  0  0  0  0  0  0  0  0  0  0  0
   -2.0505   -0.1393    3.5317 F   0  0  0  0  0  0  0  0  0  0  0  0
   -4.0319   -0.4633    4.3727 F   0  0  0  0  0  0  0  0  0  0  0  0
   -3.6401    1.2985    3.1599 F   0  0  0  0  0  0  0  0  0  0  0  0
   -2.8737   -1.4466    1.2695 N   0  0  0  0  0  0  0  0  0  0  0  0
    1.9527   -0.6059   -0.7805 N   0  0  0  0  0  0  0  0  0  0  0  0
    2.9644   -0.4544   -1.8299 C   0  0  0  0  0  0  0  0  0  0  0  0
    4.2924    0.1109   -1.2933 C   0  0  0  0  0  0  0  0  0  0  0  0
    4.1013    1.3707   -0.5447 N   0  0  0  0  0  0  0  0  0  0  0  0
    5.1143    2.3215   -0.5309 C   0  0  0  0  0  0  0  0  0  0  0  0
    6.4665    1.9498   -0.6311 C   0  0  0  0  0  0  0  0  0  0  0  0
    7.5017    2.8928   -0.6107 C   0  0  0  0  0  0  0  0  0  0  0  0
    7.2090    4.2446   -0.4848 C   0  0  0  0  0  0  0  0  0  0  0  0
    5.8837    4.6466   -0.3762 C   0  0  0  0  0  0  0  0  0  0  0  0
    4.8553    3.6953   -0.3960 C   0  0  0  0  0  0  0  0  0  0  0  0
    2.7282    1.7052   -0.1402 C   0  0  0  0  0  0  0  0  0  0  0  0
    1.9351    0.4417    0.2475 C   0  0  0  0  0  0  0  0  0  0  0  0
   -0.4320   -0.9640    0.4618 H   0  0  0  0  0  0  0  0  0  0  0  0
    0.7832   -1.9360    1.3108 H   0  0  0  0  0  0  0  0  0  0  0  0
   -0.1139   -3.9810   -0.0039 H   0  0  0  0  0  0  0  0  0  0  0  0
   -1.0877   -3.3645    1.3150 H   0  0  0  0  0  0  0  0  0  0  0  0
   -6.8939   -2.7755   -1.8263 H   0  0  0  0  0  0  0  0  0  0  0  0
   -9.5733   -2.2218   -1.7166 H   0  0  0  0  0  0  0  0  0  0  0  0
   -9.8516   -0.6712    0.5555 H   0  0  0  0  0  0  0  0  0  0  0  0
   -5.8906   -0.2751    2.2406 H   0  0  0  0  0  0  0  0  0  0  0  0
    2.5412    0.2313   -2.5745 H   0  0  0  0  0  0  0  0  0  0  0  0
    3.1516   -1.4078   -2.3347 H   0  0  0  0  0  0  0  0  0  0  0  0
    4.9577    0.2586   -2.1528 H   0  0  0  0  0  0  0  0  0  0  0  0
    4.7551   -0.6244   -0.6238 H   0  0  0  0  0  0  0  0  0  0  0  0
    6.7440    0.9016   -0.7030 H   0  0  0  0  0  0  0  0  0  0  0  0
    8.5342    2.5631   -0.6873 H   0  0  0  0  0  0  0  0  0  0  0  0
    8.0082    4.9797   -0.4691 H   0  0  0  0  0  0  0  0  0  0  0  0
    5.6415    5.7015   -0.2794 H   0  0  0  0  0  0  0  0  0  0  0  0
    3.8366    4.0646   -0.3254 H   0  0  0  0  0  0  0  0  0  0  0  0
    2.2217    2.2198   -0.9661 H   0  0  0  0  0  0  0  0  0  0  0  0
    2.7270    2.3712    0.7309 H   0  0  0  0  0  0  0  0  0  0  0  0
    0.9002    0.7193    0.4669 H   0  0  0  0  0  0  0  0  0  0  0  0
    2.3635   -0.0003    1.1551 H   0  0  0  0  0  0  0  0  0  0  0  0
  1  2  2  0
  2  3  1  0
  3  4  1  0
  4  5  1  0
  5  6  1  0
  6  7  2  0
  7  8  1  0
  8  9  1  0
  9 10  2  0
 10 11  1  0
 11 12  2  0
 12 13  1  0
  8 14  2  0
 14 15  1  0
 15 16  1  0
 16 17  1  0
 16 18  1  0
 16 19  1  0
 15 20  2  0
  2 21  1  0
 21 22  1  0
 22 23  1  0
 23 24  1  0
 24 25  1  0
 25 26  2  0
 26 27  1  0
 27 28  2  0
 28 29  1  0
 29 30  2  0
 24 31  1  0
 31 32  1  0
 20  6  1  0
 32 21  1  0
 13  9  1  0
 30 25  1  0
  3 33  1  0
  3 34  1  0
  4 35  1  0
  4 36  1  0
 10 37  1  0
 11 38  1  0
 12 39  1  0
 14 40  1  0
 22 41  1  0
 22 42  1  0
 23 43  1  0
 23 44  1  0
 26 45  1  0
 27 46  1  0
 28 47  1  0
 29 48  1  0
 30 49  1  0
 31 50  1  0
 31 51  1  0
 32 52  1  0
 32 53  1  0
M  END
$$$$
