
     RDKit          3D

 45 47  0  0  0  0  0  0  0  0999 V2000
   -1.4473    3.7108   -0.2778 C   0  0  0  0  0  0  0  0  0  0  0  0
   -0.5097    2.5580   -0.1875 C   0  0  0  0  0  0  0  0  0  0  0  0
    1.1881    2.8396   -0.1311 S   0  0  0  0  0  0  0  0  0  0  0  0
    1.4528    1.1637    0.0306 C   0  0  0  0  0  0  0  0  0  0  0  0
    2.7730    0.8240    0.1438 N   0  0  0  0  0  0  0  0  0  0  0  0
    3.2939   -0.4319    0.3084 C   0  0  0  0  0  0  0  0  0  0  0  0
    2.5084   -1.9034    0.4429 S   0  0  0  0  0  0  0  0  0  0  0  0
    4.6783   -0.4901    0.3744 N   0  0  0  0  0  0  0  0  0  0  0  0
    5.6064    0.5458    0.3033 C   0  0  0  0  0  0  0  0  0  0  0  0
    5.2328    1.7151    0.1895 O   0  0  0  0  0  0  0  0  0  0  0  0
    7.0058    0.1363    0.3822 C   0  0  0  0  0  0  0  0  0  0  0  0
    7.5842   -1.1231    0.3888 C   0  0  0  0  0  0  0  0  0  0  0  0
    9.0081   -1.0753    0.4821 C   0  0  0  0  0  0  0  0  0  0  0  0
    9.4782    0.2153    0.5405 C   0  0  0  0  0  0  0  0  0  0  0  0
    8.2130    1.3591    0.4797 S   0  0  0  0  0  0  0  0  0  0  0  0
    0.3891    0.4085    0.0296 N   0  0  0  0  0  0  0  0  0  0  0  0
   -0.7454    1.1915   -0.1250 C   0  0  0  0  0  0  0  0  0  0  0  0
   -2.0588    0.5617   -0.1621 C   0  0  0  0  0  0  0  0  0  0  0  0
   -3.0299    0.9307   -1.0991 C   0  0  0  0  0  0  0  0  0  0  0  0
   -4.2802    0.3026   -1.1116 C   0  0  0  0  0  0  0  0  0  0  0  0
   -4.5822   -0.7151   -0.1954 C   0  0  0  0  0  0  0  0  0  0  0  0
   -5.9442   -1.3852   -0.2319 C   0  0  0  0  0  0  0  0  0  0  0  0
   -6.7034   -1.1915    1.0832 C   0  0  0  0  0  0  0  0  0  0  0  0
   -5.8294   -2.8709   -0.5818 C   0  0  0  0  0  0  0  0  0  0  0  0
   -3.5982   -1.0962    0.7277 C   0  0  0  0  0  0  0  0  0  0  0  0
   -2.3491   -0.4680    0.7397 C   0  0  0  0  0  0  0  0  0  0  0  0
   -1.0069    4.6268    0.1305 H   0  0  0  0  0  0  0  0  0  0  0  0
   -2.3643    3.5164    0.2877 H   0  0  0  0  0  0  0  0  0  0  0  0
   -1.7164    3.9012   -1.3216 H   0  0  0  0  0  0  0  0  0  0  0  0
    3.4242    1.6055    0.1068 H   0  0  0  0  0  0  0  0  0  0  0  0
    5.0189   -1.4307    0.5019 H   0  0  0  0  0  0  0  0  0  0  0  0
    7.0375   -2.0553    0.3234 H   0  0  0  0  0  0  0  0  0  0  0  0
    9.6541   -1.9453    0.5022 H   0  0  0  0  0  0  0  0  0  0  0  0
   10.5062    0.5446    0.6128 H   0  0  0  0  0  0  0  0  0  0  0  0
   -2.8216    1.6941   -1.8435 H   0  0  0  0  0  0  0  0  0  0  0  0
   -5.0142    0.6102   -1.8533 H   0  0  0  0  0  0  0  0  0  0  0  0
   -6.5442   -0.9131   -1.0212 H   0  0  0  0  0  0  0  0  0  0  0  0
   -6.7948   -0.1277    1.3293 H   0  0  0  0  0  0  0  0  0  0  0  0
   -7.7145   -1.6062    1.0081 H   0  0  0  0  0  0  0  0  0  0  0  0
   -6.2032   -1.6866    1.9226 H   0  0  0  0  0  0  0  0  0  0  0  0
   -5.2986   -3.0099   -1.5302 H   0  0  0  0  0  0  0  0  0  0  0  0
   -6.8233   -3.3198   -0.6851 H   0  0  0  0  0  0  0  0  0  0  0  0
   -5.2894   -3.4327    0.1882 H   0  0  0  0  0  0  0  0  0  0  0  0
   -3.7879   -1.8922    1.4439 H   0  0  0  0  0  0  0  0  0  0  0  0
   -1.5959   -0.7911    1.4564 H   0  0  0  0  0  0  0  0  0  0  0  0
  1  2  1  0
  2  3  1  0
  3  4  1  0
  4  5  1  0
  5  6  1  0
  6  7  2  0
  6  8  1  0
  8  9  1  0
  9 10  2  0
  9 11  1  0
 11 12  2  0
 12 13  1  0
 13 14  2  0
 14 15  1  0
  4 16  2  0
 16 17  1  0
 17 18  1  0
 18 19  2  0
 19 20  1  0
 20 21  2  0
 21 22  1  0
 22 23  1  0
 22 24  1  0
 21 25  1  0
 25 26  2  0
 17  2  2  0
 26 18  1  0
 15 11  1  0
  1 27  1  0
  1 28  1  0
  1 29  1  0
  5 30  1  0
  8 31  1  0
 12 32  1  0
 13 33  1  0
 14 34  1  0
 19 35  1  0
 20 36  1  0
 22 37  1  0
 23 38  1  0
 23 39  1  0
 23 40  1  0
 24 41  1  0
 24 42  1  0
 24 43  1  0
 25 44  1  0
 26 45  1  0
M  END
$$$$
