
     RDKit          3D

 32 34  0  0  0  0  0  0  0  0999 V2000
    0.4021   -2.5250    2.1259 N   0  0  0  0  0  0  0  0  0  0  0  0
    0.8568   -1.7138    1.0665 C   0  0  0  0  0  0  0  0  0  0  0  0
    2.2236   -1.4204    0.9796 C   0  0  0  0  0  0  0  0  0  0  0  0
    2.7000   -0.5229    0.0232 C   0  0  0  0  0  0  0  0  0  0  0  0
    1.8132    0.0994   -0.8586 C   0  0  0  0  0  0  0  0  0  0  0  0
    0.4447   -0.1250   -0.7456 C   0  0  0  0  0  0  0  0  0  0  0  0
   -0.0356   -1.0031    0.2369 C   0  0  0  0  0  0  0  0  0  0  0  0
   -1.4981   -1.2357    0.3531 C   0  0  0  0  0  0  0  0  0  0  0  0
   -1.9152   -2.3852    0.4814 O   0  0  0  0  0  0  0  0  0  0  0  0
   -2.4637   -0.1071    0.3211 C   0  0  0  0  0  0  0  0  0  0  0  0
   -2.1301    1.1605    0.8164 C   0  0  0  0  0  0  0  0  0  0  0  0
   -3.0691    2.1934    0.7793 C   0  0  0  0  0  0  0  0  0  0  0  0
   -4.3429    1.9612    0.2591 C   0  0  0  0  0  0  0  0  0  0  0  0
   -4.6773    0.6931   -0.2153 C   0  0  0  0  0  0  0  0  0  0  0  0
   -6.4084    0.3803   -0.9078 Br  0  0  0  0  0  0  0  0  0  0  0  0
   -3.7480   -0.3446   -0.1827 C   0  0  0  0  0  0  0  0  0  0  0  0
    2.2158    0.9598   -1.8473 O   0  0  0  0  0  0  0  0  0  0  0  0
    3.6256    0.8596   -2.0837 C   0  0  0  0  0  0  0  0  0  0  0  0
    4.3889    0.8536   -0.7695 C   0  0  0  0  0  0  0  0  0  0  0  0
    4.0540   -0.3039    0.0048 O   0  0  0  0  0  0  0  0  0  0  0  0
    1.0605   -3.2489    2.3967 H   0  0  0  0  0  0  0  0  0  0  0  0
   -0.5201   -2.9243    1.9144 H   0  0  0  0  0  0  0  0  0  0  0  0
    2.9278   -1.8858    1.6641 H   0  0  0  0  0  0  0  0  0  0  0  0
   -0.2330    0.3736   -1.4330 H   0  0  0  0  0  0  0  0  0  0  0  0
   -1.1525    1.3550    1.2514 H   0  0  0  0  0  0  0  0  0  0  0  0
   -2.8111    3.1773    1.1643 H   0  0  0  0  0  0  0  0  0  0  0  0
   -5.0689    2.7702    0.2364 H   0  0  0  0  0  0  0  0  0  0  0  0
   -4.0137   -1.3351   -0.5457 H   0  0  0  0  0  0  0  0  0  0  0  0
    3.8180   -0.0508   -2.6648 H   0  0  0  0  0  0  0  0  0  0  0  0
    3.9220    1.7210   -2.6902 H   0  0  0  0  0  0  0  0  0  0  0  0
    4.1679    1.7473   -0.1729 H   0  0  0  0  0  0  0  0  0  0  0  0
    5.4668    0.8264   -0.9576 H   0  0  0  0  0  0  0  0  0  0  0  0
  1  2  1  0
  2  3  2  0
  3  4  1  0
  4  5  2  0
  5  6  1  0
  6  7  2  0
  7  8  1  0
  8  9  2  0
  8 10  1  0
 10 11  2  0
 11 12  1  0
 12 13  2  0
 13 14  1  0
 14 15  1  0
 14 16  2  0
  5 17  1  0
 17 18  1  0
 18 19  1  0
 19 20  1  0
  7  2  1  0
 16 10  1  0
 20  4  1  0
  1 21  1  0
  1 22  1  0
  3 23  1  0
  6 24  1  0
 11 25  1  0
 12 26  1  0
 13 27  1  0
 16 28  1  0
 18 29  1  0
 18 30  1  0
 19 31  1  0
 19 32  1  0
M  END
$$$$
