
     RDKit          3D

 37 38  0  0  0  0  0  0  0  0999 V2000
   -3.2595   -0.5490   -2.2979 C   0  0  0  0  0  0  0  0  0  0  0  0
   -3.7577   -0.8944   -0.8945 C   0  0  0  0  0  0  0  0  0  0  0  0
   -5.2842   -1.0617   -0.9239 C   0  0  0  0  0  0  0  0  0  0  0  0
   -3.3227    0.0842    0.2302 C   0  0  0  0  0  0  0  0  0  0  0  0
   -3.6573    1.5688    0.0154 C   0  0  0  0  0  0  0  0  0  0  0  0
   -4.6005    2.0206   -0.6148 O   0  0  0  0  0  0  0  0  0  0  0  0
   -2.8739    2.4097    0.7284 O   0  0  0  0  0  0  0  0  0  0  0  0
   -1.9262   -0.1238    0.6825 N   0  0  0  0  0  0  0  0  0  0  0  0
   -0.8829    0.3670   -0.0859 C   0  0  0  0  0  0  0  0  0  0  0  0
   -0.9870    1.0136   -1.1193 O   0  0  0  0  0  0  0  0  0  0  0  0
    0.4277    0.0212    0.5258 C   0  0  0  0  0  0  0  0  0  0  0  0
    1.5877    0.3886   -0.0371 C   0  0  0  0  0  0  0  0  0  0  0  0
    2.9204    0.1096    0.4664 C   0  0  0  0  0  0  0  0  0  0  0  0
    4.0294    0.5186   -0.1693 C   0  0  0  0  0  0  0  0  0  0  0  0
    5.3427    0.2533    0.3114 C   0  0  0  0  0  0  0  0  0  0  0  0
    5.7997   -0.4210    1.4406 C   0  0  0  0  0  0  0  0  0  0  0  0
    7.2150   -0.3880    1.4316 C   0  0  0  0  0  0  0  0  0  0  0  0
    7.5639    0.3027    0.3013 C   0  0  0  0  0  0  0  0  0  0  0  0
    6.4571    0.6903   -0.3748 O   0  0  0  0  0  0  0  0  0  0  0  0
    0.1858   -0.8651    1.9725 S   0  0  0  0  0  0  0  0  0  0  0  0
   -1.5668   -0.8260    1.8154 C   0  0  0  0  0  0  0  0  0  0  0  0
   -2.5529   -1.5867    2.9268 S   0  0  0  0  0  0  0  0  0  0  0  0
   -3.4963    0.4816   -2.5773 H   0  0  0  0  0  0  0  0  0  0  0  0
   -3.7186   -1.2071   -3.0445 H   0  0  0  0  0  0  0  0  0  0  0  0
   -2.1802   -0.6975   -2.3822 H   0  0  0  0  0  0  0  0  0  0  0  0
   -3.3496   -1.8842   -0.6463 H   0  0  0  0  0  0  0  0  0  0  0  0
   -5.5696   -1.8591   -1.6191 H   0  0  0  0  0  0  0  0  0  0  0  0
   -5.6688   -1.3374    0.0636 H   0  0  0  0  0  0  0  0  0  0  0  0
   -5.7903   -0.1470   -1.2460 H   0  0  0  0  0  0  0  0  0  0  0  0
   -3.9572   -0.1553    1.0915 H   0  0  0  0  0  0  0  0  0  0  0  0
   -3.2098    3.3010    0.4927 H   0  0  0  0  0  0  0  0  0  0  0  0
    1.5445    0.9563   -0.9682 H   0  0  0  0  0  0  0  0  0  0  0  0
    2.9954   -0.4521    1.3937 H   0  0  0  0  0  0  0  0  0  0  0  0
    3.9645    1.0810   -1.0970 H   0  0  0  0  0  0  0  0  0  0  0  0
    5.1790   -0.8879    2.1925 H   0  0  0  0  0  0  0  0  0  0  0  0
    7.8919   -0.8144    2.1581 H   0  0  0  0  0  0  0  0  0  0  0  0
    8.5071    0.5895   -0.1421 H   0  0  0  0  0  0  0  0  0  0  0  0
  1  2  1  0
  2  3  1  0
  2  4  1  0
  4  5  1  0
  5  6  2  0
  5  7  1  0
  4  8  1  0
  8  9  1  0
  9 10  2  0
  9 11  1  0
 11 12  2  3
 12 13  1  0
 13 14  2  3
 14 15  1  0
 15 16  2  0
 16 17  1  0
 17 18  2  0
 18 19  1  0
 11 20  1  0
 20 21  1  0
 21 22  2  0
 21  8  1  0
 19 15  1  0
  1 23  1  0
  1 24  1  0
  1 25  1  0
  2 26  1  0
  3 27  1  0
  3 28  1  0
  3 29  1  0
  4 30  1  0
  7 31  1  0
 12 32  1  0
 13 33  1  0
 14 34  1  0
 16 35  1  0
 17 36  1  0
 18 37  1  0
M  END
$$$$
