
     RDKit          3D

 45 47  0  0  0  0  0  0  0  0999 V2000
    7.0237    1.3199    0.2801 C   0  0  0  0  0  0  0  0  0  0  0  0
    6.3071    0.0999    0.4051 O   0  0  0  0  0  0  0  0  0  0  0  0
    4.9476    0.1407    0.2201 C   0  0  0  0  0  0  0  0  0  0  0  0
    4.2190    1.3042   -0.0385 C   0  0  0  0  0  0  0  0  0  0  0  0
    2.8317    1.2507   -0.2125 C   0  0  0  0  0  0  0  0  0  0  0  0
    2.1545    0.0356   -0.1368 C   0  0  0  0  0  0  0  0  0  0  0  0
    0.7571   -0.0864   -0.2828 N   0  0  0  0  0  0  0  0  0  0  0  0
   -0.1192    0.8586   -0.7724 C   0  0  0  0  0  0  0  0  0  0  0  0
    0.2125    1.9037   -1.3242 O   0  0  0  0  0  0  0  0  0  0  0  0
   -1.4686    0.4912   -0.6272 N   0  0  0  0  0  0  0  0  0  0  0  0
   -2.4408    1.4090   -1.2213 C   0  0  0  0  0  0  0  0  0  0  0  0
   -3.7779    0.7316   -1.4833 C   0  0  0  0  0  0  0  0  0  0  0  0
   -4.3085    0.0522   -0.2242 C   0  0  0  0  0  0  0  0  0  0  0  0
   -3.2654   -0.9035    0.3487 C   0  0  0  0  0  0  0  0  0  0  0  0
   -1.9396   -0.1935    0.5816 C   0  0  0  0  0  0  0  0  0  0  0  0
   -5.4923   -0.6909   -0.5668 O   0  0  0  0  0  0  0  0  0  0  0  0
   -6.4595   -0.3184    0.4142 C   0  0  0  0  0  0  0  0  0  0  0  0
   -6.0680    1.0882    0.7708 C   0  0  0  0  0  0  0  0  0  0  0  0
   -4.6415    1.0392    0.7680 O   0  0  0  0  0  0  0  0  0  0  0  0
    2.8807   -1.1323    0.1338 C   0  0  0  0  0  0  0  0  0  0  0  0
    4.2710   -1.0910    0.3082 C   0  0  0  0  0  0  0  0  0  0  0  0
    5.0533   -2.1890    0.5727 O   0  0  0  0  0  0  0  0  0  0  0  0
    4.4245   -3.4614    0.5977 C   0  0  0  0  0  0  0  0  0  0  0  0
    6.7177    2.0377    1.0482 H   0  0  0  0  0  0  0  0  0  0  0  0
    8.0848    1.1016    0.4344 H   0  0  0  0  0  0  0  0  0  0  0  0
    6.9145    1.7424   -0.7242 H   0  0  0  0  0  0  0  0  0  0  0  0
    4.6955    2.2762   -0.1091 H   0  0  0  0  0  0  0  0  0  0  0  0
    2.3054    2.1827   -0.3983 H   0  0  0  0  0  0  0  0  0  0  0  0
    0.3839   -1.0221   -0.2532 H   0  0  0  0  0  0  0  0  0  0  0  0
   -2.5561    2.2630   -0.5424 H   0  0  0  0  0  0  0  0  0  0  0  0
   -2.0493    1.7985   -2.1683 H   0  0  0  0  0  0  0  0  0  0  0  0
   -4.4958    1.4758   -1.8483 H   0  0  0  0  0  0  0  0  0  0  0  0
   -3.6677   -0.0123   -2.2830 H   0  0  0  0  0  0  0  0  0  0  0  0
   -3.6191   -1.3288    1.2958 H   0  0  0  0  0  0  0  0  0  0  0  0
   -3.1215   -1.7474   -0.3383 H   0  0  0  0  0  0  0  0  0  0  0  0
   -2.0331    0.5648    1.3691 H   0  0  0  0  0  0  0  0  0  0  0  0
   -1.2066   -0.9201    0.9413 H   0  0  0  0  0  0  0  0  0  0  0  0
   -6.3545   -0.9952    1.2690 H   0  0  0  0  0  0  0  0  0  0  0  0
   -7.4717   -0.3991    0.0106 H   0  0  0  0  0  0  0  0  0  0  0  0
   -6.4426    1.4099    1.7455 H   0  0  0  0  0  0  0  0  0  0  0  0
   -6.3868    1.8035    0.0049 H   0  0  0  0  0  0  0  0  0  0  0  0
    2.3464   -2.0724    0.2055 H   0  0  0  0  0  0  0  0  0  0  0  0
    5.1976   -4.2134    0.7826 H   0  0  0  0  0  0  0  0  0  0  0  0
    3.6975   -3.5254    1.4139 H   0  0  0  0  0  0  0  0  0  0  0  0
    3.9598   -3.6931   -0.3664 H   0  0  0  0  0  0  0  0  0  0  0  0
  1  2  1  0
  2  3  1  0
  3  4  2  0
  4  5  1  0
  5  6  2  0
  6  7  1  0
  7  8  1  0
  8  9  2  0
  8 10  1  0
 10 11  1  0
 11 12  1  0
 12 13  1  0
 13 14  1  0
 14 15  1  0
 13 16  1  0
 16 17  1  0
 17 18  1  0
 18 19  1  0
  6 20  1  0
 20 21  2  0
 21 22  1  0
 22 23  1  0
 21  3  1  0
 15 10  1  0
 19 13  1  0
  1 24  1  0
  1 25  1  0
  1 26  1  0
  4 27  1  0
  5 28  1  0
  7 29  1  0
 11 30  1  0
 11 31  1  0
 12 32  1  0
 12 33  1  0
 14 34  1  0
 14 35  1  0
 15 36  1  0
 15 37  1  0
 17 38  1  0
 17 39  1  0
 18 40  1  0
 18 41  1  0
 20 42  1  0
 23 43  1  0
 23 44  1  0
 23 45  1  0
M  END
$$$$
