
     RDKit          3D

 50 53  0  0  0  0  0  0  0  0999 V2000
   -9.4129    1.2930   -1.3697 C   0  0  0  0  0  0  0  0  0  0  0  0
   -8.0035    0.7777   -1.3064 C   0  0  0  0  0  0  0  0  0  0  0  0
   -7.5326   -0.1106   -2.2763 C   0  0  0  0  0  0  0  0  0  0  0  0
   -6.2301   -0.6199   -2.2110 C   0  0  0  0  0  0  0  0  0  0  0  0
   -5.3825   -0.2456   -1.1500 C   0  0  0  0  0  0  0  0  0  0  0  0
   -4.0784   -0.6696   -0.9629 N   0  0  0  0  0  0  0  0  0  0  0  0
   -3.5705   -0.1456    0.1366 C   0  0  0  0  0  0  0  0  0  0  0  0
   -2.1913   -0.4016    0.6024 C   0  0  0  0  0  0  0  0  0  0  0  0
   -1.7309   -0.0725    1.8859 C   0  0  0  0  0  0  0  0  0  0  0  0
   -0.4088   -0.3380    2.2765 C   0  0  0  0  0  0  0  0  0  0  0  0
    0.4856   -0.9398    1.3941 C   0  0  0  0  0  0  0  0  0  0  0  0
    1.8295   -1.2355    1.7027 N   0  0  0  0  0  0  0  0  0  0  0  0
    2.5148   -0.9249    2.8587 C   0  0  0  0  0  0  0  0  0  0  0  0
    2.0720   -0.3160    3.8285 O   0  0  0  0  0  0  0  0  0  0  0  0
    3.9640   -1.3768    2.8579 C   0  0  0  0  0  0  0  0  0  0  0  0
    4.8172   -0.4858    1.9682 C   0  0  0  0  0  0  0  0  0  0  0  0
    5.0585   -1.2236    0.3655 S   0  0  0  0  0  6  0  0  0  0  0  0
    3.7525   -1.5330   -0.1914 O   0  0  0  0  0  0  0  0  0  0  0  0
    6.0572   -2.2656    0.5020 O   0  0  0  0  0  0  0  0  0  0  0  0
    5.7611    0.0909   -0.5960 C   0  0  0  0  0  0  0  0  0  0  0  0
    4.9151    1.0233   -1.2042 C   0  0  0  0  0  0  0  0  0  0  0  0
    5.4680    2.0551   -1.9618 C   0  0  0  0  0  0  0  0  0  0  0  0
    6.8529    2.1447   -2.1156 C   0  0  0  0  0  0  0  0  0  0  0  0
    7.6908    1.2011   -1.5177 C   0  0  0  0  0  0  0  0  0  0  0  0
    7.1470    0.1660   -0.7576 C   0  0  0  0  0  0  0  0  0  0  0  0
    0.0360   -1.2822    0.1157 C   0  0  0  0  0  0  0  0  0  0  0  0
   -1.2832   -1.0173   -0.2725 C   0  0  0  0  0  0  0  0  0  0  0  0
   -4.6399    0.9043    0.9869 S   0  0  0  0  0  0  0  0  0  0  0  0
   -5.8692    0.6288   -0.1814 C   0  0  0  0  0  0  0  0  0  0  0  0
   -7.1742    1.1485   -0.2359 C   0  0  0  0  0  0  0  0  0  0  0  0
   -9.4621    2.3284   -1.0160 H   0  0  0  0  0  0  0  0  0  0  0  0
  -10.0661    0.6722   -0.7484 H   0  0  0  0  0  0  0  0  0  0  0  0
   -9.7908    1.2825   -2.3977 H   0  0  0  0  0  0  0  0  0  0  0  0
   -8.1751   -0.4186   -3.0989 H   0  0  0  0  0  0  0  0  0  0  0  0
   -5.8662   -1.3066   -2.9687 H   0  0  0  0  0  0  0  0  0  0  0  0
   -2.3859    0.3896    2.6203 H   0  0  0  0  0  0  0  0  0  0  0  0
   -0.1176   -0.0648    3.2860 H   0  0  0  0  0  0  0  0  0  0  0  0
    2.3559   -1.6762    0.9452 H   0  0  0  0  0  0  0  0  0  0  0  0
    4.0168   -2.4366    2.5853 H   0  0  0  0  0  0  0  0  0  0  0  0
    4.3195   -1.2982    3.8929 H   0  0  0  0  0  0  0  0  0  0  0  0
    5.8144   -0.3537    2.4002 H   0  0  0  0  0  0  0  0  0  0  0  0
    4.3596    0.4972    1.8224 H   0  0  0  0  0  0  0  0  0  0  0  0
    3.8342    0.9538   -1.1010 H   0  0  0  0  0  0  0  0  0  0  0  0
    4.8203    2.7872   -2.4405 H   0  0  0  0  0  0  0  0  0  0  0  0
    7.2804    2.9478   -2.7119 H   0  0  0  0  0  0  0  0  0  0  0  0
    8.7680    1.2696   -1.6516 H   0  0  0  0  0  0  0  0  0  0  0  0
    7.8067   -0.5723   -0.3059 H   0  0  0  0  0  0  0  0  0  0  0  0
    0.7026   -1.7578   -0.6009 H   0  0  0  0  0  0  0  0  0  0  0  0
   -1.6005   -1.2972   -1.2767 H   0  0  0  0  0  0  0  0  0  0  0  0
   -7.5285    1.8239    0.5379 H   0  0  0  0  0  0  0  0  0  0  0  0
  1  2  1  0
  2  3  2  0
  3  4  1  0
  4  5  2  0
  5  6  1  0
  6  7  2  0
  7  8  1  0
  8  9  2  0
  9 10  1  0
 10 11  2  0
 11 12  1  0
 12 13  1  0
 13 14  2  0
 13 15  1  0
 15 16  1  0
 16 17  1  0
 17 18  2  0
 17 19  2  0
 17 20  1  0
 20 21  2  0
 21 22  1  0
 22 23  2  0
 23 24  1  0
 24 25  2  0
 11 26  1  0
 26 27  2  0
  7 28  1  0
 28 29  1  0
 29 30  2  0
 30  2  1  0
 29  5  1  0
 27  8  1  0
 25 20  1  0
  1 31  1  0
  1 32  1  0
  1 33  1  0
  3 34  1  0
  4 35  1  0
  9 36  1  0
 10 37  1  0
 12 38  1  0
 15 39  1  0
 15 40  1  0
 16 41  1  0
 16 42  1  0
 21 43  1  0
 22 44  1  0
 23 45  1  0
 24 46  1  0
 25 47  1  0
 26 48  1  0
 27 49  1  0
 30 50  1  0
M  END
$$$$
