
     RDKit          3D

 40 43  0  0  0  0  0  0  0  0999 V2000
   -4.0832    1.1774    2.3496 C   0  0  0  0  0  0  0  0  0  0  0  0
   -2.9772    0.9997    3.3232 C   0  0  0  0  0  0  0  0  0  0  0  0
   -3.2936    1.1076    4.6745 N   0  0  0  0  0  0  0  0  0  0  0  0
   -2.2288    0.9798    5.4459 N   0  0  0  0  0  0  0  0  0  0  0  0
   -0.8223    0.7410    4.5766 S   0  0  0  0  0  0  0  0  0  0  0  0
   -1.6371    0.7438    3.0654 C   0  0  0  0  0  0  0  0  0  0  0  0
   -0.9411    0.5372    1.8423 C   0  0  0  0  0  0  0  0  0  0  0  0
    0.1208    1.2248    1.4641 N   0  0  0  0  0  0  0  0  0  0  0  0
    0.4925    0.7891    0.2099 N   0  0  0  0  0  0  0  0  0  0  0  0
   -0.3290   -0.1748   -0.1349 C   0  0  0  0  0  0  0  0  0  0  0  0
   -0.3345   -0.9954   -1.6535 S   0  0  0  0  0  0  0  0  0  0  0  0
    1.2052   -1.9449   -1.5472 C   0  0  0  0  0  0  0  0  0  0  0  0
    2.4334   -1.1097   -1.2565 C   0  0  0  0  0  0  0  0  0  0  0  0
    3.1625   -1.3778   -0.3002 O   0  0  0  0  0  0  0  0  0  0  0  0
    2.8171    0.0144   -2.1586 C   0  0  0  0  0  0  0  0  0  0  0  0
    2.4673    0.0403   -3.5135 C   0  0  0  0  0  0  0  0  0  0  0  0
    2.8574    1.1194   -4.3152 C   0  0  0  0  0  0  0  0  0  0  0  0
    3.6009    2.1733   -3.7709 C   0  0  0  0  0  0  0  0  0  0  0  0
    3.9957    3.2767   -4.5973 C   0  0  0  0  0  0  0  0  0  0  0  0
    4.3128    4.1641   -5.2747 N   0  0  0  0  0  0  0  0  0  0  0  0
    3.9584    2.1427   -2.4200 C   0  0  0  0  0  0  0  0  0  0  0  0
    3.5710    1.0652   -1.6185 C   0  0  0  0  0  0  0  0  0  0  0  0
   -1.2263   -0.3910    0.8725 N   0  0  0  0  0  0  0  0  0  0  0  0
   -2.3082   -1.4031    0.8913 C   0  0  0  0  0  0  0  0  0  0  0  0
   -2.0205   -2.8873    0.8264 C   0  0  0  0  0  0  0  0  0  0  0  0
   -2.5858   -2.2968    2.0796 C   0  0  0  0  0  0  0  0  0  0  0  0
   -3.7143    1.5206    1.3784 H   0  0  0  0  0  0  0  0  0  0  0  0
   -4.7982    1.9219    2.7144 H   0  0  0  0  0  0  0  0  0  0  0  0
   -4.6176    0.2335    2.2071 H   0  0  0  0  0  0  0  0  0  0  0  0
    1.0941   -2.6807   -0.7428 H   0  0  0  0  0  0  0  0  0  0  0  0
    1.3620   -2.5091   -2.4715 H   0  0  0  0  0  0  0  0  0  0  0  0
    1.9015   -0.7661   -3.9711 H   0  0  0  0  0  0  0  0  0  0  0  0
    2.5779    1.1314   -5.3678 H   0  0  0  0  0  0  0  0  0  0  0  0
    4.5350    2.9540   -1.9787 H   0  0  0  0  0  0  0  0  0  0  0  0
    3.8456    1.0546   -0.5640 H   0  0  0  0  0  0  0  0  0  0  0  0
   -3.1748   -1.0640    0.3283 H   0  0  0  0  0  0  0  0  0  0  0  0
   -0.9924   -3.2313    0.8593 H   0  0  0  0  0  0  0  0  0  0  0  0
   -2.6710   -3.5045    0.2162 H   0  0  0  0  0  0  0  0  0  0  0  0
   -3.6205   -2.5145    2.3227 H   0  0  0  0  0  0  0  0  0  0  0  0
   -1.9345   -2.2615    2.9464 H   0  0  0  0  0  0  0  0  0  0  0  0
  1  2  1  0
  2  3  1  0
  3  4  2  0
  4  5  1  0
  5  6  1  0
  6  7  1  0
  7  8  2  0
  8  9  1  0
  9 10  2  0
 10 11  1  0
 11 12  1  0
 12 13  1  0
 13 14  2  0
 13 15  1  0
 15 16  2  0
 16 17  1  0
 17 18  2  0
 18 19  1  0
 19 20  3  0
 18 21  1  0
 21 22  2  0
 10 23  1  0
 23 24  1  0
 24 25  1  0
 25 26  1  0
  6  2  2  0
 23  7  1  0
 26 24  1  0
 22 15  1  0
  1 27  1  0
  1 28  1  0
  1 29  1  0
 12 30  1  0
 12 31  1  0
 16 32  1  0
 17 33  1  0
 21 34  1  0
 22 35  1  0
 24 36  1  0
 25 37  1  0
 25 38  1  0
 26 39  1  0
 26 40  1  0
M  END
$$$$
