
     RDKit          3D

 30 31  0  0  0  0  0  0  0  0999 V2000
    0.9167    1.0745   -0.1231 O   0  0  0  0  0  0  0  0  0  0  0  0
    1.4087    0.1276   -0.7382 C   0  0  0  0  0  0  0  0  0  0  0  0
    2.9138    0.0011   -0.9637 C   0  0  0  0  0  0  0  0  0  0  0  0
    3.6734    0.4238    0.2550 C   0  0  0  0  0  0  0  0  0  0  0  0
    4.4497   -0.3576    1.0207 C   0  0  0  0  0  0  0  0  0  0  0  0
    4.9191    0.5224    2.1094 C   0  0  0  0  0  0  0  0  0  0  0  0
    5.7536    0.2225    2.9421 O   0  0  0  0  0  0  0  0  0  0  0  0
    4.2535    1.7283    1.9658 N   0  0  0  0  0  0  0  0  0  0  0  0
    3.6076    1.7322    0.7254 N   0  0  0  0  0  0  0  0  0  0  0  0
    0.6945   -0.9197   -1.3209 N   0  0  0  0  0  0  0  0  0  0  0  0
   -0.6729   -0.9658   -1.4091 N   0  0  0  0  0  0  0  0  0  0  0  0
   -1.3587   -0.5861   -0.3794 C   0  0  0  0  0  0  0  0  0  0  0  0
   -2.8375   -0.5132   -0.3719 C   0  0  0  0  0  0  0  0  0  0  0  0
   -3.3756    0.4050    0.5473 C   0  0  0  0  0  0  0  0  0  0  0  0
   -4.7531    0.5881    0.6430 C   0  0  0  0  0  0  0  0  0  0  0  0
   -5.6032   -0.1477   -0.1765 C   0  0  0  0  0  0  0  0  0  0  0  0
   -5.0790   -1.0734   -1.0871 C   0  0  0  0  0  0  0  0  0  0  0  0
   -6.2240   -1.9497   -2.0484 Cl  0  0  0  0  0  0  0  0  0  0  0  0
   -3.6900   -1.2711   -1.1931 C   0  0  0  0  0  0  0  0  0  0  0  0
   -3.0834   -2.4813   -2.2788 Cl  0  0  0  0  0  0  0  0  0  0  0  0
    3.1678   -1.0327   -1.2259 H   0  0  0  0  0  0  0  0  0  0  0  0
    3.1827    0.6329   -1.8176 H   0  0  0  0  0  0  0  0  0  0  0  0
    4.7094   -1.3944    0.9264 H   0  0  0  0  0  0  0  0  0  0  0  0
    4.6816    2.5759    2.3205 H   0  0  0  0  0  0  0  0  0  0  0  0
    2.6310    2.0639    0.7554 H   0  0  0  0  0  0  0  0  0  0  0  0
    1.1470   -1.4338   -2.0723 H   0  0  0  0  0  0  0  0  0  0  0  0
   -0.8704   -0.2780    0.5623 H   0  0  0  0  0  0  0  0  0  0  0  0
   -2.7214    1.0002    1.1834 H   0  0  0  0  0  0  0  0  0  0  0  0
   -5.1621    1.3067    1.3500 H   0  0  0  0  0  0  0  0  0  0  0  0
   -6.6787   -0.0004   -0.1008 H   0  0  0  0  0  0  0  0  0  0  0  0
  1  2  2  0
  2  3  1  0
  3  4  1  0
  4  5  2  0
  5  6  1  0
  6  7  2  0
  6  8  1  0
  8  9  1  0
  2 10  1  0
 10 11  1  0
 11 12  2  3
 12 13  1  0
 13 14  2  0
 14 15  1  0
 15 16  2  0
 16 17  1  0
 17 18  1  0
 17 19  2  0
 19 20  1  0
  9  4  1  0
 19 13  1  0
  3 21  1  0
  3 22  1  0
  5 23  1  0
  8 24  1  0
  9 25  1  0
 10 26  1  0
 12 27  1  0
 14 28  1  0
 15 29  1  0
 16 30  1  0
M  END
$$$$
