
     RDKit          3D

 52 55  0  0  0  0  0  0  0  0999 V2000
   -5.1276    2.2196   -0.5614 C   0  0  0  0  0  0  0  0  0  0  0  0
   -4.4652    0.9124   -0.9010 C   0  0  0  0  0  0  0  0  0  0  0  0
   -3.9992    0.7358   -2.2177 C   0  0  0  0  0  0  0  0  0  0  0  0
   -3.3851   -0.4527   -2.6202 C   0  0  0  0  0  0  0  0  0  0  0  0
   -3.2476   -1.4978   -1.7071 C   0  0  0  0  0  0  0  0  0  0  0  0
   -2.6156   -2.7581   -2.1291 N   0  0  0  0  0  4  0  0  0  0  0  0
   -2.2504   -2.8515   -3.3086 O   0  0  0  0  0  0  0  0  0  0  0  0
   -2.4908   -3.6523   -1.2801 O   0  0  0  0  0  1  0  0  0  0  0  0
   -3.7006   -1.3533   -0.3931 C   0  0  0  0  0  0  0  0  0  0  0  0
   -4.2891   -0.1426    0.0158 C   0  0  0  0  0  0  0  0  0  0  0  0
   -4.7751   -0.0605    1.7420 S   0  0  0  0  0  6  0  0  0  0  0  0
   -5.4142   -1.3225    2.0521 O   0  0  0  0  0  0  0  0  0  0  0  0
   -5.4409    1.1933    2.0151 O   0  0  0  0  0  0  0  0  0  0  0  0
   -3.2897   -0.0711    2.5476 N   0  0  0  0  0  0  0  0  0  0  0  0
   -2.2853    0.8676    2.1826 C   0  0  0  0  0  0  0  0  0  0  0  0
   -2.4910    2.2353    2.3273 C   0  0  0  0  0  0  0  0  0  0  0  0
   -1.5028    3.1289    1.9222 C   0  0  0  0  0  0  0  0  0  0  0  0
   -0.3088    2.6530    1.3695 C   0  0  0  0  0  0  0  0  0  0  0  0
   -0.0733    1.2747    1.2117 C   0  0  0  0  0  0  0  0  0  0  0  0
    1.1762    0.7496    0.6278 C   0  0  0  0  0  0  0  0  0  0  0  0
    1.9552    1.4300   -0.2945 C   0  0  0  0  0  0  0  0  0  0  0  0
    3.1172    0.8290   -0.7910 C   0  0  0  0  0  0  0  0  0  0  0  0
    3.4966   -0.4376   -0.3653 C   0  0  0  0  0  0  0  0  0  0  0  0
    4.6256   -1.0634   -0.8490 N   0  0  0  0  0  0  0  0  0  0  0  0
    5.8082   -0.3329   -1.2911 C   0  0  0  0  0  0  0  0  0  0  0  0
    6.9766   -1.2532   -0.9361 C   0  0  0  0  0  0  0  0  0  0  0  0
    6.3492   -2.6385   -0.9228 C   0  0  0  0  0  0  0  0  0  0  0  0
    4.9775   -2.3748   -0.3116 C   0  0  0  0  0  0  0  0  0  0  0  0
    2.6985   -1.0750    0.5156 N   0  0  0  0  0  0  0  0  0  0  0  0
    1.5468   -0.4867    1.0178 N   0  0  0  0  0  0  0  0  0  0  0  0
   -1.0865    0.3937    1.6414 C   0  0  0  0  0  0  0  0  0  0  0  0
   -6.1616    2.0554   -0.2430 H   0  0  0  0  0  0  0  0  0  0  0  0
   -4.5638    2.7491    0.2105 H   0  0  0  0  0  0  0  0  0  0  0  0
   -5.1708    2.8856   -1.4313 H   0  0  0  0  0  0  0  0  0  0  0  0
   -4.1206    1.5326   -2.9520 H   0  0  0  0  0  0  0  0  0  0  0  0
   -3.0348   -0.5467   -3.6462 H   0  0  0  0  0  0  0  0  0  0  0  0
   -3.5940   -2.1721    0.3193 H   0  0  0  0  0  0  0  0  0  0  0  0
   -2.9978   -1.0093    2.8182 H   0  0  0  0  0  0  0  0  0  0  0  0
   -3.4111    2.6165    2.7653 H   0  0  0  0  0  0  0  0  0  0  0  0
   -1.6581    4.1984    2.0443 H   0  0  0  0  0  0  0  0  0  0  0  0
    0.4468    3.3827    1.0847 H   0  0  0  0  0  0  0  0  0  0  0  0
    1.6728    2.4119   -0.6608 H   0  0  0  0  0  0  0  0  0  0  0  0
    3.7043    1.3598   -1.5325 H   0  0  0  0  0  0  0  0  0  0  0  0
    5.9338    0.6368   -0.7956 H   0  0  0  0  0  0  0  0  0  0  0  0
    5.7557   -0.1763   -2.3730 H   0  0  0  0  0  0  0  0  0  0  0  0
    7.8071   -1.1677   -1.6414 H   0  0  0  0  0  0  0  0  0  0  0  0
    7.3533   -1.0050    0.0636 H   0  0  0  0  0  0  0  0  0  0  0  0
    6.9318   -3.3630   -0.3490 H   0  0  0  0  0  0  0  0  0  0  0  0
    6.2425   -3.0133   -1.9476 H   0  0  0  0  0  0  0  0  0  0  0  0
    4.2565   -3.1474   -0.6062 H   0  0  0  0  0  0  0  0  0  0  0  0
    5.0545   -2.3465    0.7830 H   0  0  0  0  0  0  0  0  0  0  0  0
   -0.9352   -0.6801    1.5370 H   0  0  0  0  0  0  0  0  0  0  0  0
  1  2  1  0
  2  3  2  0
  3  4  1  0
  4  5  2  0
  5  6  1  0
  6  7  2  0
  6  8  1  0
  5  9  1  0
  9 10  2  0
 10 11  1  0
 11 12  2  0
 11 13  2  0
 11 14  1  0
 14 15  1  0
 15 16  2  0
 16 17  1  0
 17 18  2  0
 18 19  1  0
 19 20  1  0
 20 21  2  0
 21 22  1  0
 22 23  2  0
 23 24  1  0
 24 25  1  0
 25 26  1  0
 26 27  1  0
 27 28  1  0
 23 29  1  0
 29 30  2  0
 19 31  2  0
 10  2  1  0
 31 15  1  0
 30 20  1  0
 28 24  1  0
  1 32  1  0
  1 33  1  0
  1 34  1  0
  3 35  1  0
  4 36  1  0
  9 37  1  0
 14 38  1  0
 16 39  1  0
 17 40  1  0
 18 41  1  0
 21 42  1  0
 22 43  1  0
 25 44  1  0
 25 45  1  0
 26 46  1  0
 26 47  1  0
 27 48  1  0
 27 49  1  0
 28 50  1  0
 28 51  1  0
 31 52  1  0
M  CHG  2   6   1   8  -1
M  END
$$$$
