
     RDKit          3D

 40 41  0  0  0  0  0  0  0  0999 V2000
   -5.1132   -0.3380   -1.4572 C   0  0  0  0  0  0  0  0  0  0  0  0
   -3.9499   -0.2180   -0.4747 C   0  0  0  0  0  0  0  0  0  0  0  0
   -3.2694    1.1561   -0.6014 C   0  0  0  0  0  0  0  0  0  0  0  0
   -1.8159    1.1760   -0.1113 C   0  0  0  0  0  0  0  0  0  0  0  0
   -1.5528    0.0929    0.9403 C   0  0  0  0  0  0  0  0  0  0  0  0
   -0.2440    0.1796    1.6077 N   0  0  0  0  0  0  0  0  0  0  0  0
    0.9121    0.2813    0.6897 C   0  0  0  0  0  0  0  0  0  0  0  0
    2.2248    0.1197    1.4952 C   0  0  0  0  0  0  0  0  0  0  0  0
    2.1554   -1.0977    2.2475 O   0  0  0  0  0  0  0  0  0  0  0  0
    3.4390    0.1248    0.5937 C   0  0  0  0  0  0  0  0  0  0  0  0
    4.0718    1.3377    0.2784 C   0  0  0  0  0  0  0  0  0  0  0  0
    5.1754    1.3641   -0.5767 C   0  0  0  0  0  0  0  0  0  0  0  0
    5.6574    0.1800   -1.1308 C   0  0  0  0  0  0  0  0  0  0  0  0
    5.0367   -1.0308   -0.8311 C   0  0  0  0  0  0  0  0  0  0  0  0
    3.9338   -1.0580    0.0243 C   0  0  0  0  0  0  0  0  0  0  0  0
   -1.8186   -1.3166    0.3770 C   0  0  0  0  0  0  0  0  0  0  0  0
   -2.9396   -1.3507   -0.6695 C   0  0  0  0  0  0  0  0  0  0  0  0
   -5.6386   -1.2889   -1.3218 H   0  0  0  0  0  0  0  0  0  0  0  0
   -4.7651   -0.2900   -2.4944 H   0  0  0  0  0  0  0  0  0  0  0  0
   -5.8362    0.4696   -1.3031 H   0  0  0  0  0  0  0  0  0  0  0  0
   -4.3666   -0.3041    0.5380 H   0  0  0  0  0  0  0  0  0  0  0  0
   -3.2874    1.5075   -1.6412 H   0  0  0  0  0  0  0  0  0  0  0  0
   -3.8548    1.8863   -0.0273 H   0  0  0  0  0  0  0  0  0  0  0  0
   -1.1588    1.0226   -0.9771 H   0  0  0  0  0  0  0  0  0  0  0  0
   -1.5855    2.1722    0.2858 H   0  0  0  0  0  0  0  0  0  0  0  0
   -2.2874    0.2471    1.7432 H   0  0  0  0  0  0  0  0  0  0  0  0
   -0.2434    1.0095    2.2046 H   0  0  0  0  0  0  0  0  0  0  0  0
    0.8616   -0.5124   -0.0633 H   0  0  0  0  0  0  0  0  0  0  0  0
    0.9137    1.2461    0.1701 H   0  0  0  0  0  0  0  0  0  0  0  0
    2.3145    0.9296    2.2298 H   0  0  0  0  0  0  0  0  0  0  0  0
    1.2083   -1.1776    2.4820 H   0  0  0  0  0  0  0  0  0  0  0  0
    3.7102    2.2727    0.7007 H   0  0  0  0  0  0  0  0  0  0  0  0
    5.6604    2.3085   -0.8094 H   0  0  0  0  0  0  0  0  0  0  0  0
    6.5179    0.1995   -1.7942 H   0  0  0  0  0  0  0  0  0  0  0  0
    5.4115   -1.9564   -1.2596 H   0  0  0  0  0  0  0  0  0  0  0  0
    3.4611   -2.0111    0.2539 H   0  0  0  0  0  0  0  0  0  0  0  0
   -2.0824   -1.9793    1.2117 H   0  0  0  0  0  0  0  0  0  0  0  0
   -0.9233   -1.7558   -0.0769 H   0  0  0  0  0  0  0  0  0  0  0  0
   -2.4950   -1.2710   -1.6704 H   0  0  0  0  0  0  0  0  0  0  0  0
   -3.4377   -2.3269   -0.6306 H   0  0  0  0  0  0  0  0  0  0  0  0
  1  2  1  0
  2  3  1  0
  3  4  1  0
  4  5  1  0
  5  6  1  0
  6  7  1  0
  7  8  1  0
  8  9  1  0
  8 10  1  0
 10 11  2  0
 11 12  1  0
 12 13  2  0
 13 14  1  0
 14 15  2  0
  5 16  1  0
 16 17  1  0
 17  2  1  0
 15 10  1  0
  1 18  1  0
  1 19  1  0
  1 20  1  0
  2 21  1  0
  3 22  1  0
  3 23  1  0
  4 24  1  0
  4 25  1  0
  5 26  1  0
  6 27  1  0
  7 28  1  0
  7 29  1  0
  8 30  1  0
  9 31  1  0
 11 32  1  0
 12 33  1  0
 13 34  1  0
 14 35  1  0
 15 36  1  0
 16 37  1  0
 16 38  1  0
 17 39  1  0
 17 40  1  0
M  END
$$$$
