
     RDKit          3D

 43 45  0  0  0  0  0  0  0  0999 V2000
    4.4728   -1.2968    1.0422 O   0  0  0  0  0  0  0  0  0  0  0  0
    3.6718   -0.4525    0.6233 C   0  0  0  0  0  0  0  0  0  0  0  0
    4.2121    0.9306    0.1947 C   0  0  0  0  0  0  0  0  0  0  0  0
    4.3227    1.0618   -1.3152 C   0  0  0  0  0  0  0  0  0  0  0  0
    4.4725    2.5533   -1.4790 C   0  0  0  0  0  0  0  0  0  0  0  0
    3.5856    3.0966   -0.3786 C   0  0  0  0  0  0  0  0  0  0  0  0
    3.5086    2.0923    0.6461 O   0  0  0  0  0  0  0  0  0  0  0  0
    2.3195   -0.7595    0.4652 N   0  0  0  0  0  0  0  0  0  0  0  0
    1.8684   -2.0129    1.0790 C   0  0  0  0  0  0  0  0  0  0  0  0
    0.5521   -2.5425    0.4997 C   0  0  0  0  0  0  0  0  0  0  0  0
   -0.4962   -1.5062    0.4499 N   0  0  0  0  0  0  0  0  0  0  0  0
   -1.8715   -1.8510    0.4096 C   0  0  0  0  0  0  0  0  0  0  0  0
   -2.4363   -3.4236    0.2331 S   0  0  0  0  0  0  0  0  0  0  0  0
   -2.6709   -0.7337    0.6270 N   0  0  0  0  0  0  0  0  0  0  0  0
   -4.0369   -0.5009    0.3617 C   0  0  0  0  0  0  0  0  0  0  0  0
   -4.6645    0.5202    1.0913 C   0  0  0  0  0  0  0  0  0  0  0  0
   -6.0068    0.8352    0.8652 C   0  0  0  0  0  0  0  0  0  0  0  0
   -6.7173    0.1411   -0.1042 C   0  0  0  0  0  0  0  0  0  0  0  0
   -8.0026    0.4447   -0.3257 F   0  0  0  0  0  0  0  0  0  0  0  0
   -6.1071   -0.8535   -0.8558 C   0  0  0  0  0  0  0  0  0  0  0  0
   -4.7635   -1.1686   -0.6286 C   0  0  0  0  0  0  0  0  0  0  0  0
   -0.0413   -0.2804   -0.2279 C   0  0  0  0  0  0  0  0  0  0  0  0
    1.2814    0.2637    0.3285 C   0  0  0  0  0  0  0  0  0  0  0  0
    5.2161    1.0112    0.6341 H   0  0  0  0  0  0  0  0  0  0  0  0
    5.1648    0.4977   -1.7272 H   0  0  0  0  0  0  0  0  0  0  0  0
    3.4124    0.7164   -1.8180 H   0  0  0  0  0  0  0  0  0  0  0  0
    4.1932    2.9176   -2.4711 H   0  0  0  0  0  0  0  0  0  0  0  0
    5.5135    2.8437   -1.2934 H   0  0  0  0  0  0  0  0  0  0  0  0
    2.5699    3.2819   -0.7426 H   0  0  0  0  0  0  0  0  0  0  0  0
    3.9738    4.0258    0.0485 H   0  0  0  0  0  0  0  0  0  0  0  0
    2.6383   -2.7857    0.9774 H   0  0  0  0  0  0  0  0  0  0  0  0
    1.7465   -1.8112    2.1509 H   0  0  0  0  0  0  0  0  0  0  0  0
    0.7075   -2.9004   -0.5257 H   0  0  0  0  0  0  0  0  0  0  0  0
    0.2237   -3.3886    1.1109 H   0  0  0  0  0  0  0  0  0  0  0  0
   -2.2384   -0.0764    1.2636 H   0  0  0  0  0  0  0  0  0  0  0  0
   -4.1235    1.0718    1.8558 H   0  0  0  0  0  0  0  0  0  0  0  0
   -6.4993    1.6145    1.4376 H   0  0  0  0  0  0  0  0  0  0  0  0
   -6.6736   -1.3745   -1.6212 H   0  0  0  0  0  0  0  0  0  0  0  0
   -4.3042   -1.9184   -1.2641 H   0  0  0  0  0  0  0  0  0  0  0  0
    0.0866   -0.5448   -1.2859 H   0  0  0  0  0  0  0  0  0  0  0  0
   -0.7966    0.5097   -0.1968 H   0  0  0  0  0  0  0  0  0  0  0  0
    1.1223    0.6950    1.3239 H   0  0  0  0  0  0  0  0  0  0  0  0
    1.6144    1.0576   -0.3390 H   0  0  0  0  0  0  0  0  0  0  0  0
  1  2  2  0
  2  3  1  0
  3  4  1  0
  4  5  1  0
  5  6  1  0
  6  7  1  0
  2  8  1  0
  8  9  1  0
  9 10  1  0
 10 11  1  0
 11 12  1  0
 12 13  2  0
 12 14  1  0
 14 15  1  0
 15 16  2  0
 16 17  1  0
 17 18  2  0
 18 19  1  0
 18 20  1  0
 20 21  2  0
 11 22  1  0
 22 23  1  0
  7  3  1  0
 23  8  1  0
 21 15  1  0
  3 24  1  0
  4 25  1  0
  4 26  1  0
  5 27  1  0
  5 28  1  0
  6 29  1  0
  6 30  1  0
  9 31  1  0
  9 32  1  0
 10 33  1  0
 10 34  1  0
 14 35  1  0
 16 36  1  0
 17 37  1  0
 20 38  1  0
 21 39  1  0
 22 40  1  0
 22 41  1  0
 23 42  1  0
 23 43  1  0
M  END
$$$$
