
     RDKit          3D

 33 35  0  0  0  0  0  0  0  0999 V2000
    1.1931   -0.5000    1.7967 O   0  0  0  0  0  0  0  0  0  0  0  0
    1.5632   -0.0551    0.7144 C   0  0  0  0  0  0  0  0  0  0  0  0
    0.7547    0.2382   -0.3616 N   0  0  0  0  0  0  0  0  0  0  0  0
   -0.6211    0.1665   -0.3423 C   0  0  0  0  0  0  0  0  0  0  0  0
   -1.2570    0.0019   -1.9384 S   0  0  0  0  0  0  0  0  0  0  0  0
   -2.7901   -0.2208   -1.3232 C   0  0  0  0  0  0  0  0  0  0  0  0
   -2.8604   -0.1118    0.0367 C   0  0  0  0  0  0  0  0  0  0  0  0
   -1.6046    0.1882    0.6401 C   0  0  0  0  0  0  0  0  0  0  0  0
   -1.4316    0.4902    2.0464 C   0  0  0  0  0  0  0  0  0  0  0  0
   -2.0643   -0.0210    2.9612 O   0  0  0  0  0  0  0  0  0  0  0  0
   -0.5864    1.5164    2.2997 O   0  0  0  0  0  0  0  0  0  0  0  0
   -4.2590   -0.2706    0.5130 C   0  0  0  0  0  0  0  0  0  0  0  0
   -4.9740   -0.8494   -0.7486 C   0  0  0  0  0  0  0  0  0  0  0  0
   -4.0923   -0.4756   -1.9797 C   0  0  0  0  0  0  0  0  0  0  0  0
    3.0299    0.0667    0.4732 C   0  0  0  0  0  0  0  0  0  0  0  0
    3.8438   -0.9091    1.0771 C   0  0  0  0  0  0  0  0  0  0  0  0
    5.2291   -0.8905    0.9073 C   0  0  0  0  0  0  0  0  0  0  0  0
    5.8193    0.1077    0.1386 C   0  0  0  0  0  0  0  0  0  0  0  0
    5.0250    1.0908   -0.4530 C   0  0  0  0  0  0  0  0  0  0  0  0
    3.6334    1.0789   -0.2862 C   0  0  0  0  0  0  0  0  0  0  0  0
    2.7572    2.3731   -1.0239 Cl  0  0  0  0  0  0  0  0  0  0  0  0
    1.1726    0.3608   -1.2756 H   0  0  0  0  0  0  0  0  0  0  0  0
   -0.5401    1.5121    3.2758 H   0  0  0  0  0  0  0  0  0  0  0  0
   -4.3440   -0.9542    1.3620 H   0  0  0  0  0  0  0  0  0  0  0  0
   -4.6846    0.7016    0.7826 H   0  0  0  0  0  0  0  0  0  0  0  0
   -5.0187   -1.9432   -0.6614 H   0  0  0  0  0  0  0  0  0  0  0  0
   -6.0017   -0.4861   -0.8470 H   0  0  0  0  0  0  0  0  0  0  0  0
   -4.4706    0.4319   -2.4611 H   0  0  0  0  0  0  0  0  0  0  0  0
   -4.0595   -1.2920   -2.7062 H   0  0  0  0  0  0  0  0  0  0  0  0
    3.3942   -1.6941    1.6847 H   0  0  0  0  0  0  0  0  0  0  0  0
    5.8442   -1.6537    1.3789 H   0  0  0  0  0  0  0  0  0  0  0  0
    6.8989    0.1276    0.0071 H   0  0  0  0  0  0  0  0  0  0  0  0
    5.5015    1.8746   -1.0385 H   0  0  0  0  0  0  0  0  0  0  0  0
  1  2  2  0
  2  3  1  0
  3  4  1  0
  4  5  1  0
  5  6  1  0
  6  7  2  0
  7  8  1  0
  8  9  1  0
  9 10  2  0
  9 11  1  0
  7 12  1  0
 12 13  1  0
 13 14  1  0
  2 15  1  0
 15 16  2  0
 16 17  1  0
 17 18  2  0
 18 19  1  0
 19 20  2  0
 20 21  1  0
  8  4  2  0
 20 15  1  0
 14  6  1  0
  3 22  1  0
 11 23  1  0
 12 24  1  0
 12 25  1  0
 13 26  1  0
 13 27  1  0
 14 28  1  0
 14 29  1  0
 16 30  1  0
 17 31  1  0
 18 32  1  0
 19 33  1  0
M  END
$$$$
