
     RDKit          3D

 57 60  0  0  0  0  0  0  0  0999 V2000
   -4.3603    2.8639   -2.3771 C   0  0  0  0  0  0  0  0  0  0  0  0
   -4.0006    1.7071   -1.6304 O   0  0  0  0  0  0  0  0  0  0  0  0
   -2.8343    1.7371   -0.9206 C   0  0  0  0  0  0  0  0  0  0  0  0
   -2.1026    2.9067   -0.6749 C   0  0  0  0  0  0  0  0  0  0  0  0
   -0.9224    2.8656    0.0747 C   0  0  0  0  0  0  0  0  0  0  0  0
   -0.4561    1.6471    0.5682 C   0  0  0  0  0  0  0  0  0  0  0  0
    0.7896    1.6201    1.3587 C   0  0  0  0  0  0  0  0  0  0  0  0
    0.7942    2.2210    2.4318 O   0  0  0  0  0  0  0  0  0  0  0  0
    1.8759    0.9172    0.8534 N   0  0  0  0  0  0  0  0  0  0  0  0
    3.0889    0.8325    1.6704 C   0  0  0  0  0  0  0  0  0  0  0  0
    3.9973   -0.3473    1.2769 C   0  0  0  0  0  0  0  0  0  0  0  0
    4.3561   -0.2979   -0.1523 N   0  0  0  0  0  0  0  0  0  0  0  0
    5.4678   -0.9651   -0.6451 C   0  0  0  0  0  0  0  0  0  0  0  0
    6.0882   -2.0065    0.0652 C   0  0  0  0  0  0  0  0  0  0  0  0
    7.2105   -2.6796   -0.4344 C   0  0  0  0  0  0  0  0  0  0  0  0
    7.7498   -2.3202   -1.6641 C   0  0  0  0  0  0  0  0  0  0  0  0
    7.1662   -1.2895   -2.3897 C   0  0  0  0  0  0  0  0  0  0  0  0
    6.0421   -0.6251   -1.8831 C   0  0  0  0  0  0  0  0  0  0  0  0
    3.4000    0.3560   -1.0641 C   0  0  0  0  0  0  0  0  0  0  0  0
    1.9650    0.3422   -0.4978 C   0  0  0  0  0  0  0  0  0  0  0  0
   -1.1782    0.4741    0.3571 C   0  0  0  0  0  0  0  0  0  0  0  0
   -2.3678    0.5265   -0.3831 C   0  0  0  0  0  0  0  0  0  0  0  0
   -3.2688   -0.9882   -0.6270 S   0  0  0  0  0  6  0  0  0  0  0  0
   -2.6295   -2.0203    0.1696 O   0  0  0  0  0  0  0  0  0  0  0  0
   -3.4515   -1.1824   -2.0506 O   0  0  0  0  0  0  0  0  0  0  0  0
   -4.7715   -0.6836    0.0965 N   0  0  0  0  0  0  0  0  0  0  0  0
   -4.7937   -0.3927    1.5537 C   0  0  0  0  0  0  0  0  0  0  0  0
   -5.8645   -1.3107    2.1331 C   0  0  0  0  0  0  0  0  0  0  0  0
   -6.8021   -1.5362    0.9630 C   0  0  0  0  0  0  0  0  0  0  0  0
   -5.8319   -1.6759   -0.2026 C   0  0  0  0  0  0  0  0  0  0  0  0
   -5.2406    2.6122   -2.9777 H   0  0  0  0  0  0  0  0  0  0  0  0
   -4.6372    3.6890   -1.7110 H   0  0  0  0  0  0  0  0  0  0  0  0
   -3.5591    3.1603   -3.0651 H   0  0  0  0  0  0  0  0  0  0  0  0
   -2.4306    3.8732   -1.0428 H   0  0  0  0  0  0  0  0  0  0  0  0
   -0.3700    3.7818    0.2744 H   0  0  0  0  0  0  0  0  0  0  0  0
    3.6282    1.7800    1.5324 H   0  0  0  0  0  0  0  0  0  0  0  0
    2.8144    0.7599    2.7305 H   0  0  0  0  0  0  0  0  0  0  0  0
    3.4796   -1.2927    1.4857 H   0  0  0  0  0  0  0  0  0  0  0  0
    4.8954   -0.2988    1.9039 H   0  0  0  0  0  0  0  0  0  0  0  0
    5.6922   -2.3380    1.0214 H   0  0  0  0  0  0  0  0  0  0  0  0
    7.6566   -3.4869    0.1410 H   0  0  0  0  0  0  0  0  0  0  0  0
    8.6205   -2.8410   -2.0535 H   0  0  0  0  0  0  0  0  0  0  0  0
    7.5834   -0.9920   -3.3489 H   0  0  0  0  0  0  0  0  0  0  0  0
    5.6362    0.1925   -2.4728 H   0  0  0  0  0  0  0  0  0  0  0  0
    3.3705   -0.1476   -2.0382 H   0  0  0  0  0  0  0  0  0  0  0  0
    3.7190    1.3946   -1.2240 H   0  0  0  0  0  0  0  0  0  0  0  0
    1.2985    0.8754   -1.1854 H   0  0  0  0  0  0  0  0  0  0  0  0
    1.6117   -0.6954   -0.4195 H   0  0  0  0  0  0  0  0  0  0  0  0
   -0.8200   -0.4641    0.7756 H   0  0  0  0  0  0  0  0  0  0  0  0
   -5.0701    0.6603    1.6858 H   0  0  0  0  0  0  0  0  0  0  0  0
   -3.8312   -0.5596    2.0460 H   0  0  0  0  0  0  0  0  0  0  0  0
   -6.3644   -0.8717    3.0024 H   0  0  0  0  0  0  0  0  0  0  0  0
   -5.4152   -2.2642    2.4418 H   0  0  0  0  0  0  0  0  0  0  0  0
   -7.4368   -2.4197    1.0908 H   0  0  0  0  0  0  0  0  0  0  0  0
   -7.4493   -0.6598    0.8212 H   0  0  0  0  0  0  0  0  0  0  0  0
   -5.4208   -2.6928   -0.2320 H   0  0  0  0  0  0  0  0  0  0  0  0
   -6.3171   -1.4510   -1.1567 H   0  0  0  0  0  0  0  0  0  0  0  0
  1  2  1  0
  2  3  1  0
  3  4  2  0
  4  5  1  0
  5  6  2  0
  6  7  1  0
  7  8  2  0
  7  9  1  0
  9 10  1  0
 10 11  1  0
 11 12  1  0
 12 13  1  0
 13 14  2  0
 14 15  1  0
 15 16  2  0
 16 17  1  0
 17 18  2  0
 12 19  1  0
 19 20  1  0
  6 21  1  0
 21 22  2  0
 22 23  1  0
 23 24  2  0
 23 25  2  0
 23 26  1  0
 26 27  1  0
 27 28  1  0
 28 29  1  0
 29 30  1  0
 22  3  1  0
 30 26  1  0
 20  9  1  0
 18 13  1  0
  1 31  1  0
  1 32  1  0
  1 33  1  0
  4 34  1  0
  5 35  1  0
 10 36  1  0
 10 37  1  0
 11 38  1  0
 11 39  1  0
 14 40  1  0
 15 41  1  0
 16 42  1  0
 17 43  1  0
 18 44  1  0
 19 45  1  0
 19 46  1  0
 20 47  1  0
 20 48  1  0
 21 49  1  0
 27 50  1  0
 27 51  1  0
 28 52  1  0
 28 53  1  0
 29 54  1  0
 29 55  1  0
 30 56  1  0
 30 57  1  0
M  END
$$$$
