
     RDKit          3D

 48 51  0  0  0  0  0  0  0  0999 V2000
    2.1593    0.4202    1.6534 O   0  0  0  0  0  0  0  0  0  0  0  0
    2.6672    0.2767    0.3046 S   0  0  0  0  0  6  0  0  0  0  0  0
    3.1899    1.4138   -0.4263 O   0  0  0  0  0  0  0  0  0  0  0  0
    3.8660   -1.0655    0.2376 C   0  0  0  0  0  0  0  0  0  0  0  0
    5.1195   -0.6516    0.9639 C   0  0  0  0  0  0  0  0  0  0  0  0
    5.2461   -0.8619    2.3448 C   0  0  0  0  0  0  0  0  0  0  0  0
    6.4075   -0.4763    3.0159 C   0  0  0  0  0  0  0  0  0  0  0  0
    7.4517    0.1245    2.3162 C   0  0  0  0  0  0  0  0  0  0  0  0
    7.3345    0.3448    0.9455 C   0  0  0  0  0  0  0  0  0  0  0  0
    6.1744   -0.0396    0.2717 C   0  0  0  0  0  0  0  0  0  0  0  0
    1.3814   -0.3517   -0.6372 N   0  0  0  0  0  0  0  0  0  0  0  0
    0.7490   -1.6078   -0.1146 C   0  0  0  0  0  0  0  0  0  0  0  0
   -0.6306   -1.8400   -0.7574 C   0  0  0  0  0  0  0  0  0  0  0  0
   -1.6131   -0.7944   -0.4083 N   0  0  0  0  0  0  0  0  0  0  0  0
   -2.7045   -0.7704   -1.3939 C   0  0  0  0  0  0  0  0  0  0  0  0
   -3.9176    0.0108   -0.9296 C   0  0  0  0  0  0  0  0  0  0  0  0
   -4.5058   -0.2585    0.3298 C   0  0  0  0  0  0  0  0  0  0  0  0
   -5.6370    0.4394    0.7643 C   0  0  0  0  0  0  0  0  0  0  0  0
   -6.1627    1.3926   -0.0788 C   0  0  0  0  0  0  0  0  0  0  0  0
   -5.6059    1.6575   -1.3074 C   0  0  0  0  0  0  0  0  0  0  0  0
   -4.4907    0.9857   -1.7632 C   0  0  0  0  0  0  0  0  0  0  0  0
   -6.2770    2.6288   -1.9830 O   0  0  0  0  0  0  0  0  0  0  0  0
   -7.3157    2.9493   -1.0340 C   0  0  0  0  0  0  0  0  0  0  0  0
   -7.2535    2.1640    0.1742 O   0  0  0  0  0  0  0  0  0  0  0  0
   -0.9559    0.5221   -0.2425 C   0  0  0  0  0  0  0  0  0  0  0  0
    0.3600    0.6847   -1.0252 C   0  0  0  0  0  0  0  0  0  0  0  0
    4.0736   -1.2822   -0.8148 H   0  0  0  0  0  0  0  0  0  0  0  0
    3.4290   -1.9505    0.7081 H   0  0  0  0  0  0  0  0  0  0  0  0
    4.4362   -1.3161    2.9128 H   0  0  0  0  0  0  0  0  0  0  0  0
    6.4939   -0.6373    4.0874 H   0  0  0  0  0  0  0  0  0  0  0  0
    8.3531    0.4300    2.8409 H   0  0  0  0  0  0  0  0  0  0  0  0
    8.1441    0.8247    0.4015 H   0  0  0  0  0  0  0  0  0  0  0  0
    6.0961    0.1555   -0.7964 H   0  0  0  0  0  0  0  0  0  0  0  0
    0.6459   -1.5712    0.9756 H   0  0  0  0  0  0  0  0  0  0  0  0
    1.3981   -2.4516   -0.3713 H   0  0  0  0  0  0  0  0  0  0  0  0
   -0.4942   -1.8958   -1.8463 H   0  0  0  0  0  0  0  0  0  0  0  0
   -1.0203   -2.8104   -0.4289 H   0  0  0  0  0  0  0  0  0  0  0  0
   -2.3418   -0.3798   -2.3538 H   0  0  0  0  0  0  0  0  0  0  0  0
   -3.0559   -1.7936   -1.5848 H   0  0  0  0  0  0  0  0  0  0  0  0
   -4.0662   -1.0154    0.9777 H   0  0  0  0  0  0  0  0  0  0  0  0
   -6.0837    0.2388    1.7312 H   0  0  0  0  0  0  0  0  0  0  0  0
   -4.0778    1.2165   -2.7391 H   0  0  0  0  0  0  0  0  0  0  0  0
   -8.2887    2.7825   -1.5105 H   0  0  0  0  0  0  0  0  0  0  0  0
   -7.2323    4.0094   -0.7680 H   0  0  0  0  0  0  0  0  0  0  0  0
   -1.6286    1.3494   -0.4956 H   0  0  0  0  0  0  0  0  0  0  0  0
   -0.7381    0.6397    0.8270 H   0  0  0  0  0  0  0  0  0  0  0  0
    0.7421    1.6989   -0.8709 H   0  0  0  0  0  0  0  0  0  0  0  0
    0.1789    0.5858   -2.1024 H   0  0  0  0  0  0  0  0  0  0  0  0
  1  2  2  0
  2  3  2  0
  2  4  1  0
  4  5  1  0
  5  6  2  0
  6  7  1  0
  7  8  2  0
  8  9  1  0
  9 10  2  0
  2 11  1  0
 11 12  1  0
 12 13  1  0
 13 14  1  0
 14 15  1  0
 15 16  1  0
 16 17  2  0
 17 18  1  0
 18 19  2  0
 19 20  1  0
 20 21  2  0
 20 22  1  0
 22 23  1  0
 23 24  1  0
 14 25  1  0
 25 26  1  0
 10  5  1  0
 26 11  1  0
 21 16  1  0
 24 19  1  0
  4 27  1  0
  4 28  1  0
  6 29  1  0
  7 30  1  0
  8 31  1  0
  9 32  1  0
 10 33  1  0
 12 34  1  0
 12 35  1  0
 13 36  1  0
 13 37  1  0
 15 38  1  0
 15 39  1  0
 17 40  1  0
 18 41  1  0
 21 42  1  0
 23 43  1  0
 23 44  1  0
 25 45  1  0
 25 46  1  0
 26 47  1  0
 26 48  1  0
M  END
$$$$
