
     RDKit          3D

 51 54  0  0  0  0  0  0  0  0999 V2000
   -6.8053    1.5971   -0.0772 C   0  0  0  0  0  0  0  0  0  0  0  0
   -6.1871    0.4993    0.7899 C   0  0  0  0  0  0  0  0  0  0  0  0
   -6.0498    0.9482    2.2457 C   0  0  0  0  0  0  0  0  0  0  0  0
   -4.9169    0.0362    0.2312 N   0  0  0  0  0  0  0  0  0  0  0  0
   -3.7613    0.7767    0.2110 C   0  0  0  0  0  0  0  0  0  0  0  0
   -2.7566    0.0244   -0.3678 C   0  0  0  0  0  0  0  0  0  0  0  0
   -1.3931    0.5003   -0.5173 C   0  0  0  0  0  0  0  0  0  0  0  0
   -0.5170   -0.2362   -1.1247 N   0  0  0  0  0  0  0  0  0  0  0  0
    0.7824    0.2118   -1.1850 N   0  0  0  0  0  0  0  0  0  0  0  0
    1.4443    0.8510   -0.1269 C   0  0  0  0  0  0  0  0  0  0  0  0
    0.8998    1.2904    0.8837 O   0  0  0  0  0  0  0  0  0  0  0  0
    2.9556    0.9217   -0.3735 C   0  0  0  0  0  0  0  0  0  0  0  0
    3.6284    1.4753    0.7489 O   0  0  0  0  0  0  0  0  0  0  0  0
    4.9117    1.0203    0.9609 C   0  0  0  0  0  0  0  0  0  0  0  0
    5.2478    0.9535    2.3217 C   0  0  0  0  0  0  0  0  0  0  0  0
    6.4963    0.4948    2.7181 C   0  0  0  0  0  0  0  0  0  0  0  0
    7.4197    0.1149    1.7506 C   0  0  0  0  0  0  0  0  0  0  0  0
    7.1060    0.2122    0.3820 C   0  0  0  0  0  0  0  0  0  0  0  0
    8.0506   -0.1567   -0.5885 C   0  0  0  0  0  0  0  0  0  0  0  0
    7.7460   -0.0443   -1.9374 C   0  0  0  0  0  0  0  0  0  0  0  0
    6.4974    0.4366   -2.2735 C   0  0  0  0  0  0  0  0  0  0  0  0
    5.5583    0.7897   -1.3694 N   0  0  0  0  0  0  0  0  0  0  0  0
    5.8387    0.6814   -0.0437 C   0  0  0  0  0  0  0  0  0  0  0  0
   -3.3444   -1.2294   -0.7362 C   0  0  0  0  0  0  0  0  0  0  0  0
   -2.8497   -2.4007   -1.3554 C   0  0  0  0  0  0  0  0  0  0  0  0
   -3.6973   -3.4877   -1.5836 C   0  0  0  0  0  0  0  0  0  0  0  0
   -5.0319   -3.4270   -1.2059 C   0  0  0  0  0  0  0  0  0  0  0  0
   -5.5526   -2.2846   -0.5899 C   0  0  0  0  0  0  0  0  0  0  0  0
   -4.6938   -1.1949   -0.3583 C   0  0  0  0  0  0  0  0  0  0  0  0
   -6.1849    2.4996   -0.0913 H   0  0  0  0  0  0  0  0  0  0  0  0
   -6.9230    1.2587   -1.1123 H   0  0  0  0  0  0  0  0  0  0  0  0
   -7.7935    1.8744    0.2997 H   0  0  0  0  0  0  0  0  0  0  0  0
   -6.8715   -0.3551    0.7853 H   0  0  0  0  0  0  0  0  0  0  0  0
   -5.5744    0.1711    2.8540 H   0  0  0  0  0  0  0  0  0  0  0  0
   -7.0357    1.1551    2.6747 H   0  0  0  0  0  0  0  0  0  0  0  0
   -5.4499    1.8596    2.3392 H   0  0  0  0  0  0  0  0  0  0  0  0
   -3.7341    1.7790    0.6213 H   0  0  0  0  0  0  0  0  0  0  0  0
   -1.1764    1.5054   -0.1180 H   0  0  0  0  0  0  0  0  0  0  0  0
    1.3545   -0.3307   -1.8274 H   0  0  0  0  0  0  0  0  0  0  0  0
    3.2838   -0.1056   -0.5728 H   0  0  0  0  0  0  0  0  0  0  0  0
    3.1165    1.5636   -1.2446 H   0  0  0  0  0  0  0  0  0  0  0  0
    4.5178    1.2539    3.0719 H   0  0  0  0  0  0  0  0  0  0  0  0
    6.7436    0.4281    3.7729 H   0  0  0  0  0  0  0  0  0  0  0  0
    8.3954   -0.2495    2.0693 H   0  0  0  0  0  0  0  0  0  0  0  0
    9.0292   -0.5280   -0.2954 H   0  0  0  0  0  0  0  0  0  0  0  0
    8.4603   -0.3252   -2.7034 H   0  0  0  0  0  0  0  0  0  0  0  0
    6.2066    0.5539   -3.3146 H   0  0  0  0  0  0  0  0  0  0  0  0
   -1.8067   -2.4608   -1.6543 H   0  0  0  0  0  0  0  0  0  0  0  0
   -3.3053   -4.3835   -2.0594 H   0  0  0  0  0  0  0  0  0  0  0  0
   -5.6811   -4.2786   -1.3878 H   0  0  0  0  0  0  0  0  0  0  0  0
   -6.5979   -2.2597   -0.3015 H   0  0  0  0  0  0  0  0  0  0  0  0
  1  2  1  0
  2  3  1  0
  2  4  1  0
  4  5  1  0
  5  6  2  0
  6  7  1  0
  7  8  2  3
  8  9  1  0
  9 10  1  0
 10 11  2  0
 10 12  1  0
 12 13  1  0
 13 14  1  0
 14 15  2  0
 15 16  1  0
 16 17  2  0
 17 18  1  0
 18 19  2  0
 19 20  1  0
 20 21  2  0
 21 22  1  0
 22 23  2  0
  6 24  1  0
 24 25  2  0
 25 26  1  0
 26 27  2  0
 27 28  1  0
 28 29  2  0
 29  4  1  0
 23 14  1  0
 29 24  1  0
 23 18  1  0
  1 30  1  0
  1 31  1  0
  1 32  1  0
  2 33  1  0
  3 34  1  0
  3 35  1  0
  3 36  1  0
  5 37  1  0
  7 38  1  0
  9 39  1  0
 12 40  1  0
 12 41  1  0
 15 42  1  0
 16 43  1  0
 17 44  1  0
 19 45  1  0
 20 46  1  0
 21 47  1  0
 25 48  1  0
 26 49  1  0
 27 50  1  0
 28 51  1  0
M  END
$$$$
