
     RDKit          3D

 60 63  0  0  0  0  0  0  0  0999 V2000
   -8.4170   -1.3577   -1.2605 C   0  0  0  0  0  0  0  0  0  0  0  0
   -7.9679    0.0828   -1.0304 C   0  0  0  0  0  0  0  0  0  0  0  0
   -8.9421    1.0467   -1.7052 C   0  0  0  0  0  0  0  0  0  0  0  0
   -6.6901    0.2993   -1.6369 O   0  0  0  0  0  0  0  0  0  0  0  0
   -5.5577    0.0372   -0.9207 C   0  0  0  0  0  0  0  0  0  0  0  0
   -5.4874   -0.5305    0.3463 C   0  0  0  0  0  0  0  0  0  0  0  0
   -4.2421   -0.7447    0.9550 C   0  0  0  0  0  0  0  0  0  0  0  0
   -3.0332   -0.4080    0.3190 C   0  0  0  0  0  0  0  0  0  0  0  0
   -1.7356   -0.6552    0.9855 C   0  0  0  0  0  0  0  0  0  0  0  0
   -0.5605   -0.8950    0.2955 C   0  0  0  0  0  0  0  0  0  0  0  0
    0.6101   -1.1088    1.0247 C   0  0  0  0  0  0  0  0  0  0  0  0
    1.8436   -1.2906    0.2291 C   0  0  0  0  0  0  0  0  0  0  0  0
    1.8956   -2.1676   -0.6225 O   0  0  0  0  0  0  0  0  0  0  0  0
    2.8460   -0.3814    0.4855 N   0  0  0  0  0  0  0  0  0  0  0  0
    4.1633   -0.5042   -0.1183 C   0  0  0  0  0  0  0  0  0  0  0  0
    4.7902    0.8746   -0.3946 C   0  0  0  0  0  0  0  0  0  0  0  0
    6.1779    0.7954   -0.8741 N   0  0  0  0  0  0  0  0  0  0  0  0
    6.2849    0.3277   -2.2765 C   0  0  0  0  0  0  0  0  0  0  0  0
    6.5373    1.4589   -3.2889 C   0  0  0  0  0  0  0  0  0  0  0  0
    7.7318    2.2052   -3.0198 O   0  0  0  0  0  0  0  0  0  0  0  0
    8.0847    2.2192   -1.6289 C   0  0  0  0  0  0  0  0  0  0  0  0
    6.8602    2.0991   -0.7111 C   0  0  0  0  0  0  0  0  0  0  0  0
    0.6012   -1.1376    2.4354 C   0  0  0  0  0  0  0  0  0  0  0  0
    1.7215   -1.4279    3.2573 C   0  0  0  0  0  0  0  0  0  0  0  0
    1.6166   -1.4182    4.6467 C   0  0  0  0  0  0  0  0  0  0  0  0
    0.3943   -1.1301    5.2353 C   0  0  0  0  0  0  0  0  0  0  0  0
   -0.7160   -0.8686    4.4298 C   0  0  0  0  0  0  0  0  0  0  0  0
   -0.6388   -0.8762    3.0432 C   0  0  0  0  0  0  0  0  0  0  0  0
   -1.7600   -0.6363    2.3427 N   0  0  0  0  0  0  0  0  0  0  0  0
   -3.1284    0.1681   -0.9586 C   0  0  0  0  0  0  0  0  0  0  0  0
   -4.3715    0.3831   -1.5677 C   0  0  0  0  0  0  0  0  0  0  0  0
   -9.4161   -1.5301   -0.8490 H   0  0  0  0  0  0  0  0  0  0  0  0
   -8.4328   -1.5956   -2.3302 H   0  0  0  0  0  0  0  0  0  0  0  0
   -7.7270   -2.0678   -0.7942 H   0  0  0  0  0  0  0  0  0  0  0  0
   -7.9587    0.3291    0.0379 H   0  0  0  0  0  0  0  0  0  0  0  0
   -8.9766    0.8801   -2.7880 H   0  0  0  0  0  0  0  0  0  0  0  0
   -9.9528    0.9396   -1.2996 H   0  0  0  0  0  0  0  0  0  0  0  0
   -8.6155    2.0822   -1.5571 H   0  0  0  0  0  0  0  0  0  0  0  0
   -6.3726   -0.8310    0.8947 H   0  0  0  0  0  0  0  0  0  0  0  0
   -4.2206   -1.1927    1.9474 H   0  0  0  0  0  0  0  0  0  0  0  0
   -0.5333   -0.9276   -0.7891 H   0  0  0  0  0  0  0  0  0  0  0  0
    2.7312    0.2668    1.2550 H   0  0  0  0  0  0  0  0  0  0  0  0
    4.0880   -1.0984   -1.0341 H   0  0  0  0  0  0  0  0  0  0  0  0
    4.7806   -1.0658    0.5925 H   0  0  0  0  0  0  0  0  0  0  0  0
    4.7721    1.4313    0.5526 H   0  0  0  0  0  0  0  0  0  0  0  0
    4.1624    1.4404   -1.0958 H   0  0  0  0  0  0  0  0  0  0  0  0
    7.1399   -0.3604   -2.3120 H   0  0  0  0  0  0  0  0  0  0  0  0
    5.4110   -0.2535   -2.5897 H   0  0  0  0  0  0  0  0  0  0  0  0
    5.6947    2.1599   -3.3032 H   0  0  0  0  0  0  0  0  0  0  0  0
    6.6320    1.0448   -4.2988 H   0  0  0  0  0  0  0  0  0  0  0  0
    8.7950    1.4039   -1.4445 H   0  0  0  0  0  0  0  0  0  0  0  0
    8.6112    3.1595   -1.4340 H   0  0  0  0  0  0  0  0  0  0  0  0
    7.1710    2.2095    0.3336 H   0  0  0  0  0  0  0  0  0  0  0  0
    6.1721    2.9213   -0.9484 H   0  0  0  0  0  0  0  0  0  0  0  0
    2.6833   -1.6864    2.8184 H   0  0  0  0  0  0  0  0  0  0  0  0
    2.4826   -1.6436    5.2640 H   0  0  0  0  0  0  0  0  0  0  0  0
    0.2938   -1.1201    6.3177 H   0  0  0  0  0  0  0  0  0  0  0  0
   -1.6750   -0.6582    4.8991 H   0  0  0  0  0  0  0  0  0  0  0  0
   -2.2381    0.4747   -1.5024 H   0  0  0  0  0  0  0  0  0  0  0  0
   -4.4125    0.8292   -2.5592 H   0  0  0  0  0  0  0  0  0  0  0  0
  1  2  1  0
  2  3  1  0
  2  4  1  0
  4  5  1  0
  5  6  2  0
  6  7  1  0
  7  8  2  0
  8  9  1  0
  9 10  2  0
 10 11  1  0
 11 12  1  0
 12 13  2  0
 12 14  1  0
 14 15  1  0
 15 16  1  0
 16 17  1  0
 17 18  1  0
 18 19  1  0
 19 20  1  0
 20 21  1  0
 21 22  1  0
 11 23  2  0
 23 24  1  0
 24 25  2  0
 25 26  1  0
 26 27  2  0
 27 28  1  0
 28 29  2  0
  8 30  1  0
 30 31  2  0
 31  5  1  0
 29  9  1  0
 22 17  1  0
 28 23  1  0
  1 32  1  0
  1 33  1  0
  1 34  1  0
  2 35  1  0
  3 36  1  0
  3 37  1  0
  3 38  1  0
  6 39  1  0
  7 40  1  0
 10 41  1  0
 14 42  1  0
 15 43  1  0
 15 44  1  0
 16 45  1  0
 16 46  1  0
 18 47  1  0
 18 48  1  0
 19 49  1  0
 19 50  1  0
 21 51  1  0
 21 52  1  0
 22 53  1  0
 22 54  1  0
 24 55  1  0
 25 56  1  0
 26 57  1  0
 27 58  1  0
 30 59  1  0
 31 60  1  0
M  END
$$$$
