
     RDKit          3D

 54 56  0  0  0  0  0  0  0  0999 V2000
   -6.3975    1.3115    1.7368 C   0  0  0  0  0  0  0  0  0  0  0  0
   -5.8581    0.0119    1.1394 C   0  0  0  0  0  0  0  0  0  0  0  0
   -5.6651   -1.0392    2.2319 C   0  0  0  0  0  0  0  0  0  0  0  0
   -4.5814    0.2319    0.3018 C   0  0  0  0  0  0  0  0  0  0  0  0
   -3.3532    0.7092    1.0945 C   0  0  0  0  0  0  0  0  0  0  0  0
   -2.2108    1.0579    0.2266 N   0  0  0  0  0  0  0  0  0  0  0  0
   -1.6245   -0.1266   -0.4234 C   0  0  0  0  0  0  0  0  0  0  0  0
   -0.4567    0.2518   -1.3323 C   0  0  0  0  0  0  0  0  0  0  0  0
    0.6158    0.9964   -0.5370 C   0  0  0  0  0  0  0  0  0  0  0  0
    1.7690    1.3323   -1.3653 N   0  0  0  0  0  0  0  0  0  0  0  0
    1.6260    2.3577   -2.2464 N   0  0  0  0  0  0  0  0  0  0  0  0
    2.8660    2.6392   -2.6339 C   0  0  0  0  0  0  0  0  0  0  0  0
    3.8085    1.7878   -2.0461 C   0  0  0  0  0  0  0  0  0  0  0  0
    3.0800    0.8919   -1.2862 C   0  0  0  0  0  0  0  0  0  0  0  0
    3.6367   -0.1698   -0.5898 N   0  0  0  0  0  0  0  0  0  0  0  0
    2.9919   -1.3257   -0.1974 C   0  0  0  0  0  0  0  0  0  0  0  0
    1.8133   -1.6016   -0.4023 O   0  0  0  0  0  0  0  0  0  0  0  0
    3.8979   -2.3685    0.4569 C   0  0  0  0  0  0  0  0  0  0  0  0
    4.7551   -3.0817   -0.5693 C   0  0  0  0  0  0  0  0  0  0  0  0
    6.0956   -2.3697   -0.5109 C   0  0  0  0  0  0  0  0  0  0  0  0
    6.0175   -1.3949    0.5406 O   0  0  0  0  0  0  0  0  0  0  0  0
    4.9193   -1.7618    1.3910 C   0  0  0  0  0  0  0  0  0  0  0  0
   -0.0181    2.2239    0.1338 C   0  0  0  0  0  0  0  0  0  0  0  0
   -1.1993    1.7949    1.0024 C   0  0  0  0  0  0  0  0  0  0  0  0
   -6.5190    2.0763    0.9630 H   0  0  0  0  0  0  0  0  0  0  0  0
   -7.3782    1.1434    2.1955 H   0  0  0  0  0  0  0  0  0  0  0  0
   -5.7365    1.7106    2.5122 H   0  0  0  0  0  0  0  0  0  0  0  0
   -6.6239   -0.3694    0.4509 H   0  0  0  0  0  0  0  0  0  0  0  0
   -6.6224   -1.2754    2.7092 H   0  0  0  0  0  0  0  0  0  0  0  0
   -5.2639   -1.9677    1.8128 H   0  0  0  0  0  0  0  0  0  0  0  0
   -4.9830   -0.6915    3.0142 H   0  0  0  0  0  0  0  0  0  0  0  0
   -4.8040    0.9592   -0.4899 H   0  0  0  0  0  0  0  0  0  0  0  0
   -4.3521   -0.7145   -0.2012 H   0  0  0  0  0  0  0  0  0  0  0  0
   -3.6433    1.6042    1.6569 H   0  0  0  0  0  0  0  0  0  0  0  0
   -3.0527   -0.0481    1.8292 H   0  0  0  0  0  0  0  0  0  0  0  0
   -2.3697   -0.6261   -1.0512 H   0  0  0  0  0  0  0  0  0  0  0  0
   -1.2882   -0.8545    0.3265 H   0  0  0  0  0  0  0  0  0  0  0  0
   -0.8237    0.8777   -2.1571 H   0  0  0  0  0  0  0  0  0  0  0  0
   -0.0460   -0.6506   -1.7986 H   0  0  0  0  0  0  0  0  0  0  0  0
    0.9835    0.3768    0.2844 H   0  0  0  0  0  0  0  0  0  0  0  0
    3.0271    3.4527   -3.3292 H   0  0  0  0  0  0  0  0  0  0  0  0
    4.8775    1.7918   -2.2001 H   0  0  0  0  0  0  0  0  0  0  0  0
    4.6550   -0.1797   -0.5485 H   0  0  0  0  0  0  0  0  0  0  0  0
    3.2441   -3.0594    1.0014 H   0  0  0  0  0  0  0  0  0  0  0  0
    4.8902   -4.1338   -0.2911 H   0  0  0  0  0  0  0  0  0  0  0  0
    4.3369   -3.0680   -1.5814 H   0  0  0  0  0  0  0  0  0  0  0  0
    6.3278   -1.8520   -1.4463 H   0  0  0  0  0  0  0  0  0  0  0  0
    6.9114   -3.0649   -0.2887 H   0  0  0  0  0  0  0  0  0  0  0  0
    4.5659   -0.8779    1.9307 H   0  0  0  0  0  0  0  0  0  0  0  0
    5.2848   -2.4965    2.1178 H   0  0  0  0  0  0  0  0  0  0  0  0
   -0.3646    2.9473   -0.6156 H   0  0  0  0  0  0  0  0  0  0  0  0
    0.7248    2.7428    0.7521 H   0  0  0  0  0  0  0  0  0  0  0  0
   -1.6477    2.7010    1.4276 H   0  0  0  0  0  0  0  0  0  0  0  0
   -0.8380    1.1873    1.8427 H   0  0  0  0  0  0  0  0  0  0  0  0
  1  2  1  0
  2  3  1  0
  2  4  1  0
  4  5  1  0
  5  6  1  0
  6  7  1  0
  7  8  1  0
  8  9  1  0
  9 10  1  0
 10 11  1  0
 11 12  2  0
 12 13  1  0
 13 14  2  0
 14 15  1  0
 15 16  1  0
 16 17  2  0
 16 18  1  0
 18 19  1  0
 19 20  1  0
 20 21  1  0
 21 22  1  0
  9 23  1  0
 23 24  1  0
 24  6  1  0
 14 10  1  0
 22 18  1  0
  1 25  1  0
  1 26  1  0
  1 27  1  0
  2 28  1  0
  3 29  1  0
  3 30  1  0
  3 31  1  0
  4 32  1  0
  4 33  1  0
  5 34  1  0
  5 35  1  0
  7 36  1  0
  7 37  1  0
  8 38  1  0
  8 39  1  0
  9 40  1  0
 12 41  1  0
 13 42  1  0
 15 43  1  0
 18 44  1  0
 19 45  1  0
 19 46  1  0
 20 47  1  0
 20 48  1  0
 22 49  1  0
 22 50  1  0
 23 51  1  0
 23 52  1  0
 24 53  1  0
 24 54  1  0
M  END
$$$$
