
     RDKit          3D

 47 49  0  0  0  0  0  0  0  0999 V2000
    5.8177   -2.9883    0.2576 C   0  0  0  0  0  0  0  0  0  0  0  0
    5.2588   -1.6860    0.8221 C   0  0  0  0  0  0  0  0  0  0  0  0
    3.9129   -1.8413    1.3893 N   0  0  0  0  0  0  0  0  0  0  0  0
    2.9216   -2.2474    0.3682 C   0  0  0  0  0  0  0  0  0  0  0  0
    1.4679   -1.8316    0.6906 C   0  0  0  0  0  0  0  0  0  0  0  0
    1.3355   -0.3559    0.7798 N   0  0  0  0  0  0  0  0  0  0  0  0
    0.1870    0.3347    0.3497 C   0  0  0  0  0  0  0  0  0  0  0  0
   -1.0136   -0.2606    0.1758 C   0  0  0  0  0  0  0  0  0  0  0  0
   -2.1884    0.4366   -0.3182 C   0  0  0  0  0  0  0  0  0  0  0  0
   -3.4299   -0.0135   -0.0649 C   0  0  0  0  0  0  0  0  0  0  0  0
   -4.6317    0.7525   -0.4014 C   0  0  0  0  0  0  0  0  0  0  0  0
   -5.8709    0.2045   -0.4598 C   0  0  0  0  0  0  0  0  0  0  0  0
   -6.0944   -1.1871   -0.2401 C   0  0  0  0  0  0  0  0  0  0  0  0
   -6.2661   -2.3202   -0.0558 N   0  0  0  0  0  0  0  0  0  0  0  0
   -7.0216    0.9934   -0.7525 C   0  0  0  0  0  0  0  0  0  0  0  0
   -7.9507    1.6470   -0.9909 N   0  0  0  0  0  0  0  0  0  0  0  0
   -4.3481    2.2330   -0.6211 C   0  0  0  0  0  0  0  0  0  0  0  0
   -3.1655    2.4338   -1.5646 C   0  0  0  0  0  0  0  0  0  0  0  0
   -1.8994    1.7038   -1.0928 C   0  0  0  0  0  0  0  0  0  0  0  0
   -0.9898    2.5747   -0.2279 C   0  0  0  0  0  0  0  0  0  0  0  0
    0.3246    1.8349    0.0735 C   0  0  0  0  0  0  0  0  0  0  0  0
    2.5610    0.3271    1.2567 C   0  0  0  0  0  0  0  0  0  0  0  0
    3.4683   -0.6134    2.0826 C   0  0  0  0  0  0  0  0  0  0  0  0
    6.8577   -2.8437   -0.0534 H   0  0  0  0  0  0  0  0  0  0  0  0
    5.8006   -3.7836    1.0102 H   0  0  0  0  0  0  0  0  0  0  0  0
    5.2559   -3.3277   -0.6181 H   0  0  0  0  0  0  0  0  0  0  0  0
    5.2743   -0.9103    0.0463 H   0  0  0  0  0  0  0  0  0  0  0  0
    5.9456   -1.3611    1.6138 H   0  0  0  0  0  0  0  0  0  0  0  0
    2.9568   -3.3373    0.2586 H   0  0  0  0  0  0  0  0  0  0  0  0
    3.1781   -1.8116   -0.6073 H   0  0  0  0  0  0  0  0  0  0  0  0
    0.8338   -2.2293   -0.1103 H   0  0  0  0  0  0  0  0  0  0  0  0
    1.1381   -2.2828    1.6340 H   0  0  0  0  0  0  0  0  0  0  0  0
   -1.1483   -1.3033    0.4475 H   0  0  0  0  0  0  0  0  0  0  0  0
   -3.5516   -0.9578    0.4645 H   0  0  0  0  0  0  0  0  0  0  0  0
   -4.1331    2.7019    0.3482 H   0  0  0  0  0  0  0  0  0  0  0  0
   -5.2090    2.7652   -1.0383 H   0  0  0  0  0  0  0  0  0  0  0  0
   -2.9700    3.5040   -1.7003 H   0  0  0  0  0  0  0  0  0  0  0  0
   -3.4443    2.0467   -2.5547 H   0  0  0  0  0  0  0  0  0  0  0  0
   -1.3394    1.4370   -2.0015 H   0  0  0  0  0  0  0  0  0  0  0  0
   -0.7603    3.5210   -0.7321 H   0  0  0  0  0  0  0  0  0  0  0  0
   -1.4906    2.8322    0.7151 H   0  0  0  0  0  0  0  0  0  0  0  0
    0.7884    2.3437    0.9250 H   0  0  0  0  0  0  0  0  0  0  0  0
    0.9996    1.9570   -0.7837 H   0  0  0  0  0  0  0  0  0  0  0  0
    2.2929    1.1666    1.9072 H   0  0  0  0  0  0  0  0  0  0  0  0
    3.1138    0.7240    0.3970 H   0  0  0  0  0  0  0  0  0  0  0  0
    4.3217   -0.0461    2.4746 H   0  0  0  0  0  0  0  0  0  0  0  0
    2.9042   -0.9353    2.9683 H   0  0  0  0  0  0  0  0  0  0  0  0
  1  2  1  0
  2  3  1  0
  3  4  1  0
  4  5  1  0
  5  6  1  0
  6  7  1  0
  7  8  2  0
  8  9  1  0
  9 10  2  0
 10 11  1  0
 11 12  2  3
 12 13  1  0
 13 14  3  0
 12 15  1  0
 15 16  3  0
 11 17  1  0
 17 18  1  0
 18 19  1  0
 19 20  1  0
 20 21  1  0
  6 22  1  0
 22 23  1  0
 23  3  1  0
 21  7  1  0
 19  9  1  0
  1 24  1  0
  1 25  1  0
  1 26  1  0
  2 27  1  0
  2 28  1  0
  4 29  1  0
  4 30  1  0
  5 31  1  0
  5 32  1  0
  8 33  1  0
 10 34  1  0
 17 35  1  0
 17 36  1  0
 18 37  1  0
 18 38  1  0
 19 39  1  0
 20 40  1  0
 20 41  1  0
 21 42  1  0
 21 43  1  0
 22 44  1  0
 22 45  1  0
 23 46  1  0
 23 47  1  0
M  END
$$$$
