
     RDKit          3D

 42 44  0  0  0  0  0  0  0  0999 V2000
    3.4216   -0.1542    2.6785 C   0  0  0  0  0  0  0  0  0  0  0  0
    3.7841    0.1402    1.2311 C   0  0  0  0  0  0  0  0  0  0  0  0
    2.6035    0.6468    0.3965 C   0  0  0  0  0  0  0  0  0  0  0  0
    1.4906   -0.3935    0.2331 C   0  0  0  0  0  0  0  0  0  0  0  0
    0.3904   -0.0167   -0.7965 C   0  0  0  0  0  0  0  0  0  0  0  0
   -0.5108   -1.2232   -0.9858 C   0  0  0  0  0  0  0  0  0  0  0  0
   -1.7333   -1.2911   -0.4274 C   0  0  0  0  0  0  0  0  0  0  0  0
   -2.6692   -2.4550   -0.5757 C   0  0  0  0  0  0  0  0  0  0  0  0
   -2.3489   -3.2859   -1.8128 C   0  0  0  0  0  0  0  0  0  0  0  0
   -0.8675   -3.6175   -1.8813 C   0  0  0  0  0  0  0  0  0  0  0  0
   -0.0191   -2.3660   -1.8075 C   0  0  0  0  0  0  0  0  0  0  0  0
    1.0758   -2.3091   -2.3632 O   0  0  0  0  0  0  0  0  0  0  0  0
   -2.2527   -0.2419    0.3215 O   0  0  0  0  0  0  0  0  0  0  0  0
   -1.6569    1.0088    0.2100 C   0  0  0  0  0  0  0  0  0  0  0  0
   -0.4359    1.1683   -0.3355 C   0  0  0  0  0  0  0  0  0  0  0  0
    0.0509    2.5528   -0.6034 C   0  0  0  0  0  0  0  0  0  0  0  0
    1.0769    2.7384   -1.2551 O   0  0  0  0  0  0  0  0  0  0  0  0
   -0.7877    3.7264   -0.1410 C   0  0  0  0  0  0  0  0  0  0  0  0
   -1.6623    3.3640    1.0468 C   0  0  0  0  0  0  0  0  0  0  0  0
   -2.5006    2.1291    0.7438 C   0  0  0  0  0  0  0  0  0  0  0  0
    2.9655    0.7192    3.1552 H   0  0  0  0  0  0  0  0  0  0  0  0
    2.7248   -0.9941    2.7545 H   0  0  0  0  0  0  0  0  0  0  0  0
    4.3208   -0.4181    3.2445 H   0  0  0  0  0  0  0  0  0  0  0  0
    4.2083   -0.7597    0.7709 H   0  0  0  0  0  0  0  0  0  0  0  0
    4.5713    0.9036    1.2172 H   0  0  0  0  0  0  0  0  0  0  0  0
    2.9840    0.9251   -0.5933 H   0  0  0  0  0  0  0  0  0  0  0  0
    2.2081    1.5544    0.8650 H   0  0  0  0  0  0  0  0  0  0  0  0
    1.0243   -0.5781    1.2101 H   0  0  0  0  0  0  0  0  0  0  0  0
    1.9589   -1.3407   -0.0640 H   0  0  0  0  0  0  0  0  0  0  0  0
    0.8482    0.2244   -1.7643 H   0  0  0  0  0  0  0  0  0  0  0  0
   -2.6068   -3.0773    0.3249 H   0  0  0  0  0  0  0  0  0  0  0  0
   -3.7030   -2.0975   -0.6513 H   0  0  0  0  0  0  0  0  0  0  0  0
   -2.9413   -4.2076   -1.8071 H   0  0  0  0  0  0  0  0  0  0  0  0
   -2.6385   -2.7246   -2.7110 H   0  0  0  0  0  0  0  0  0  0  0  0
   -0.6554   -4.1273   -2.8274 H   0  0  0  0  0  0  0  0  0  0  0  0
   -0.5740   -4.2792   -1.0590 H   0  0  0  0  0  0  0  0  0  0  0  0
   -0.1150    4.5430    0.1425 H   0  0  0  0  0  0  0  0  0  0  0  0
   -1.4005    4.0588   -0.9863 H   0  0  0  0  0  0  0  0  0  0  0  0
   -2.3145    4.2057    1.3052 H   0  0  0  0  0  0  0  0  0  0  0  0
   -1.0285    3.1690    1.9219 H   0  0  0  0  0  0  0  0  0  0  0  0
   -3.2808    2.3693    0.0118 H   0  0  0  0  0  0  0  0  0  0  0  0
   -3.0045    1.8110    1.6641 H   0  0  0  0  0  0  0  0  0  0  0  0
  1  2  1  0
  2  3  1  0
  3  4  1  0
  4  5  1  0
  5  6  1  0
  6  7  2  0
  7  8  1  0
  8  9  1  0
  9 10  1  0
 10 11  1  0
 11 12  2  0
  7 13  1  0
 13 14  1  0
 14 15  2  0
 15 16  1  0
 16 17  2  0
 16 18  1  0
 18 19  1  0
 19 20  1  0
 15  5  1  0
 11  6  1  0
 20 14  1  0
  1 21  1  0
  1 22  1  0
  1 23  1  0
  2 24  1  0
  2 25  1  0
  3 26  1  0
  3 27  1  0
  4 28  1  0
  4 29  1  0
  5 30  1  0
  8 31  1  0
  8 32  1  0
  9 33  1  0
  9 34  1  0
 10 35  1  0
 10 36  1  0
 18 37  1  0
 18 38  1  0
 19 39  1  0
 19 40  1  0
 20 41  1  0
 20 42  1  0
M  END
$$$$
