
     RDKit          3D

 48 49  0  0  0  0  0  0  0  0999 V2000
    0.7128   -1.8772    2.6160 C   0  0  0  0  0  0  0  0  0  0  0  0
    1.3037   -1.1246    1.5636 O   0  0  0  0  0  0  0  0  0  0  0  0
    0.5300   -0.8696    0.4608 C   0  0  0  0  0  0  0  0  0  0  0  0
   -0.7230   -1.4441    0.2209 C   0  0  0  0  0  0  0  0  0  0  0  0
   -1.4772   -1.0969   -0.9151 C   0  0  0  0  0  0  0  0  0  0  0  0
   -2.8395   -1.7063   -1.1500 C   0  0  0  0  0  0  0  0  0  0  0  0
   -3.8314   -1.4341   -0.1151 N   0  0  0  0  0  0  0  0  0  0  0  0
   -4.3993   -0.0717   -0.0092 C   0  0  0  0  0  0  0  0  0  0  0  0
   -4.7647    0.5598   -1.3608 C   0  0  0  0  0  0  0  0  0  0  0  0
   -5.7043   -0.2585    0.7968 C   0  0  0  0  0  0  0  0  0  0  0  0
   -3.4691    0.8843    0.7881 C   0  0  0  0  0  0  0  0  0  0  0  0
   -3.0196    0.2601    1.9953 O   0  0  0  0  0  0  0  0  0  0  0  0
   -0.9432   -0.1814   -1.8315 C   0  0  0  0  0  0  0  0  0  0  0  0
    0.3113    0.3883   -1.6086 C   0  0  0  0  0  0  0  0  0  0  0  0
    0.9659    1.6374   -2.8791 Br  0  0  0  0  0  0  0  0  0  0  0  0
    1.0550    0.0350   -0.4770 C   0  0  0  0  0  0  0  0  0  0  0  0
    2.2681    0.6439   -0.2576 O   0  0  0  0  0  0  0  0  0  0  0  0
    3.3449   -0.2499   -0.5552 C   0  0  0  0  0  0  0  0  0  0  0  0
    4.6080    0.5703   -0.6631 C   0  0  0  0  0  0  0  0  0  0  0  0
    5.0693    1.0102   -1.9122 C   0  0  0  0  0  0  0  0  0  0  0  0
    6.2269    1.7865   -2.0053 C   0  0  0  0  0  0  0  0  0  0  0  0
    6.9228    2.1334   -0.8492 C   0  0  0  0  0  0  0  0  0  0  0  0
    8.3477    3.0912   -0.9642 Cl  0  0  0  0  0  0  0  0  0  0  0  0
    6.4698    1.7145    0.3999 C   0  0  0  0  0  0  0  0  0  0  0  0
    5.3123    0.9386    0.4931 C   0  0  0  0  0  0  0  0  0  0  0  0
   -0.2051   -1.4024    2.9794 H   0  0  0  0  0  0  0  0  0  0  0  0
    0.5291   -2.9102    2.3030 H   0  0  0  0  0  0  0  0  0  0  0  0
    1.4244   -1.9041    3.4469 H   0  0  0  0  0  0  0  0  0  0  0  0
   -1.1512   -2.1608    0.9158 H   0  0  0  0  0  0  0  0  0  0  0  0
   -2.6982   -2.7941   -1.1934 H   0  0  0  0  0  0  0  0  0  0  0  0
   -3.2245   -1.4434   -2.1416 H   0  0  0  0  0  0  0  0  0  0  0  0
   -3.4411   -1.6592    0.8037 H   0  0  0  0  0  0  0  0  0  0  0  0
   -3.8777    0.7974   -1.9560 H   0  0  0  0  0  0  0  0  0  0  0  0
   -5.3139    1.4976   -1.2176 H   0  0  0  0  0  0  0  0  0  0  0  0
   -5.4029   -0.1060   -1.9528 H   0  0  0  0  0  0  0  0  0  0  0  0
   -6.4087   -0.9122    0.2682 H   0  0  0  0  0  0  0  0  0  0  0  0
   -5.5177   -0.7009    1.7825 H   0  0  0  0  0  0  0  0  0  0  0  0
   -6.2078    0.7016    0.9598 H   0  0  0  0  0  0  0  0  0  0  0  0
   -2.5906    1.1721    0.2046 H   0  0  0  0  0  0  0  0  0  0  0  0
   -4.0004    1.8027    1.0628 H   0  0  0  0  0  0  0  0  0  0  0  0
   -2.3751    0.8706    2.3936 H   0  0  0  0  0  0  0  0  0  0  0  0
   -1.5130    0.0941   -2.7162 H   0  0  0  0  0  0  0  0  0  0  0  0
    3.1726   -0.7881   -1.4972 H   0  0  0  0  0  0  0  0  0  0  0  0
    3.4663   -0.9937    0.2411 H   0  0  0  0  0  0  0  0  0  0  0  0
    4.5244    0.7570   -2.8192 H   0  0  0  0  0  0  0  0  0  0  0  0
    6.5739    2.1219   -2.9782 H   0  0  0  0  0  0  0  0  0  0  0  0
    7.0062    1.9931    1.3027 H   0  0  0  0  0  0  0  0  0  0  0  0
    4.9537    0.6280    1.4724 H   0  0  0  0  0  0  0  0  0  0  0  0
  1  2  1  0
  2  3  1  0
  3  4  2  0
  4  5  1  0
  5  6  1  0
  6  7  1  0
  7  8  1  0
  8  9  1  0
  8 10  1  0
  8 11  1  0
 11 12  1  0
  5 13  2  0
 13 14  1  0
 14 15  1  0
 14 16  2  0
 16 17  1  0
 17 18  1  0
 18 19  1  0
 19 20  2  0
 20 21  1  0
 21 22  2  0
 22 23  1  0
 22 24  1  0
 24 25  2  0
 16  3  1  0
 25 19  1  0
  1 26  1  0
  1 27  1  0
  1 28  1  0
  4 29  1  0
  6 30  1  0
  6 31  1  0
  7 32  1  0
  9 33  1  0
  9 34  1  0
  9 35  1  0
 10 36  1  0
 10 37  1  0
 10 38  1  0
 11 39  1  0
 11 40  1  0
 12 41  1  0
 13 42  1  0
 18 43  1  0
 18 44  1  0
 20 45  1  0
 21 46  1  0
 24 47  1  0
 25 48  1  0
M  END
$$$$
