
     RDKit          3D

 53 56  0  0  0  0  0  0  0  0999 V2000
    7.1541    0.9802    2.2450 C   0  0  0  0  0  0  0  0  0  0  0  0
    7.1403   -0.3029    1.4324 C   0  0  0  0  0  0  0  0  0  0  0  0
    5.9781   -1.0761    1.7258 O   0  0  0  0  0  0  0  0  0  0  0  0
    4.8474   -0.8708    0.9886 C   0  0  0  0  0  0  0  0  0  0  0  0
    3.8170   -1.7749    1.2440 C   0  0  0  0  0  0  0  0  0  0  0  0
    2.5941   -1.6833    0.5673 C   0  0  0  0  0  0  0  0  0  0  0  0
    2.3601   -0.6746   -0.3818 C   0  0  0  0  0  0  0  0  0  0  0  0
    1.0747   -0.5456   -1.1027 C   0  0  0  0  0  0  0  0  0  0  0  0
   -0.1361   -0.9517   -0.5694 C   0  0  0  0  0  0  0  0  0  0  0  0
   -1.2904   -0.7705   -1.3318 C   0  0  0  0  0  0  0  0  0  0  0  0
   -2.5704   -1.1997   -0.7359 C   0  0  0  0  0  0  0  0  0  0  0  0
   -3.1050   -2.2100   -1.1827 O   0  0  0  0  0  0  0  0  0  0  0  0
   -3.0885   -0.4464    0.3081 N   0  0  0  0  0  0  0  0  0  0  0  0
   -2.5616    0.8511    0.7533 C   0  0  0  0  0  0  0  0  0  0  0  0
   -3.6444    1.7083    1.4339 C   0  0  0  0  0  0  0  0  0  0  0  0
   -4.2521    1.0503    2.6062 N   0  0  0  0  0  0  0  0  0  0  0  0
   -5.5099    1.6969    2.9688 C   0  0  0  0  0  0  0  0  0  0  0  0
   -4.4145   -0.4069    2.4182 C   0  0  0  0  0  0  0  0  0  0  0  0
   -4.3149   -0.9014    0.9635 C   0  0  0  0  0  0  0  0  0  0  0  0
   -1.2403   -0.2161   -2.6244 C   0  0  0  0  0  0  0  0  0  0  0  0
   -2.3644   -0.0225   -3.4655 C   0  0  0  0  0  0  0  0  0  0  0  0
   -2.2232    0.5501   -4.7275 C   0  0  0  0  0  0  0  0  0  0  0  0
   -0.9636    0.9358   -5.1636 C   0  0  0  0  0  0  0  0  0  0  0  0
    0.1453    0.7434   -4.3353 C   0  0  0  0  0  0  0  0  0  0  0  0
    0.0319    0.1736   -3.0739 C   0  0  0  0  0  0  0  0  0  0  0  0
    1.1447    0.0245   -2.3330 N   0  0  0  0  0  0  0  0  0  0  0  0
    3.4150    0.2236   -0.6276 C   0  0  0  0  0  0  0  0  0  0  0  0
    4.6406    0.1324    0.0480 C   0  0  0  0  0  0  0  0  0  0  0  0
    7.0613    0.7576    3.3131 H   0  0  0  0  0  0  0  0  0  0  0  0
    6.3137    1.6295    1.9829 H   0  0  0  0  0  0  0  0  0  0  0  0
    8.0838    1.5323    2.0798 H   0  0  0  0  0  0  0  0  0  0  0  0
    7.9997   -0.9117    1.7351 H   0  0  0  0  0  0  0  0  0  0  0  0
    7.2657   -0.1207    0.3593 H   0  0  0  0  0  0  0  0  0  0  0  0
    3.9680   -2.5680    1.9731 H   0  0  0  0  0  0  0  0  0  0  0  0
    1.8363   -2.4312    0.7874 H   0  0  0  0  0  0  0  0  0  0  0  0
   -0.2052   -1.3882    0.4208 H   0  0  0  0  0  0  0  0  0  0  0  0
   -1.7434    0.6485    1.4541 H   0  0  0  0  0  0  0  0  0  0  0  0
   -2.1485    1.3955   -0.1015 H   0  0  0  0  0  0  0  0  0  0  0  0
   -3.2014    2.6604    1.7485 H   0  0  0  0  0  0  0  0  0  0  0  0
   -4.4145    1.9386    0.6845 H   0  0  0  0  0  0  0  0  0  0  0  0
   -5.3571    2.7679    3.1419 H   0  0  0  0  0  0  0  0  0  0  0  0
   -5.8997    1.2808    3.9044 H   0  0  0  0  0  0  0  0  0  0  0  0
   -6.2729    1.5766    2.1913 H   0  0  0  0  0  0  0  0  0  0  0  0
   -3.6084   -0.8850    2.9898 H   0  0  0  0  0  0  0  0  0  0  0  0
   -5.3497   -0.7707    2.8620 H   0  0  0  0  0  0  0  0  0  0  0  0
   -5.1583   -0.5220    0.3741 H   0  0  0  0  0  0  0  0  0  0  0  0
   -4.3629   -1.9957    0.9396 H   0  0  0  0  0  0  0  0  0  0  0  0
   -3.3575   -0.3306   -3.1421 H   0  0  0  0  0  0  0  0  0  0  0  0
   -3.0920    0.6872   -5.3663 H   0  0  0  0  0  0  0  0  0  0  0  0
   -0.8357    1.3807   -6.1471 H   0  0  0  0  0  0  0  0  0  0  0  0
    1.1298    1.0445   -4.6868 H   0  0  0  0  0  0  0  0  0  0  0  0
    3.2841    1.0200   -1.3596 H   0  0  0  0  0  0  0  0  0  0  0  0
    5.4007    0.8691   -0.1865 H   0  0  0  0  0  0  0  0  0  0  0  0
  1  2  1  0
  2  3  1  0
  3  4  1  0
  4  5  2  0
  5  6  1  0
  6  7  2  0
  7  8  1  0
  8  9  2  0
  9 10  1  0
 10 11  1  0
 11 12  2  0
 11 13  1  0
 13 14  1  0
 14 15  1  0
 15 16  1  0
 16 17  1  0
 16 18  1  0
 18 19  1  0
 10 20  2  0
 20 21  1  0
 21 22  2  0
 22 23  1  0
 23 24  2  0
 24 25  1  0
 25 26  2  0
  7 27  1  0
 27 28  2  0
 28  4  1  0
 26  8  1  0
 19 13  1  0
 25 20  1  0
  1 29  1  0
  1 30  1  0
  1 31  1  0
  2 32  1  0
  2 33  1  0
  5 34  1  0
  6 35  1  0
  9 36  1  0
 14 37  1  0
 14 38  1  0
 15 39  1  0
 15 40  1  0
 17 41  1  0
 17 42  1  0
 17 43  1  0
 18 44  1  0
 18 45  1  0
 19 46  1  0
 19 47  1  0
 21 48  1  0
 22 49  1  0
 23 50  1  0
 24 51  1  0
 27 52  1  0
 28 53  1  0
M  END
$$$$
