
     RDKit          3D

 42 44  0  0  0  0  0  0  0  0999 V2000
    5.8240    0.5151   -1.9051 C   0  0  0  0  0  0  0  0  0  0  0  0
    4.8704   -0.6709   -1.8936 C   0  0  0  0  0  0  0  0  0  0  0  0
    3.5263   -0.2884   -1.2785 C   0  0  0  0  0  0  0  0  0  0  0  0
    2.4127   -1.7332   -1.2818 S   0  0  0  0  0  0  0  0  0  0  0  0
    0.9558   -1.0297   -0.5177 C   0  0  0  0  0  0  0  0  0  0  0  0
   -0.1337   -1.8468   -0.3051 C   0  0  0  0  0  0  0  0  0  0  0  0
   -1.2482   -1.2842    0.2802 C   0  0  0  0  0  0  0  0  0  0  0  0
   -2.3779   -2.0233    0.5446 N   0  0  0  0  0  0  0  0  0  0  0  0
   -3.5505   -1.3722    1.1175 C   0  0  0  0  0  0  0  0  0  0  0  0
   -4.5736   -2.5019    1.1812 C   0  0  0  0  0  0  0  0  0  0  0  0
   -4.2602   -3.3041   -0.0718 C   0  0  0  0  0  0  0  0  0  0  0  0
   -2.7346   -3.2472   -0.1641 C   0  0  0  0  0  0  0  0  0  0  0  0
   -1.2402    0.0103    0.6410 N   0  0  0  0  0  0  0  0  0  0  0  0
   -0.1370    0.7420    0.3985 C   0  0  0  0  0  0  0  0  0  0  0  0
   -0.1532    2.1660    0.7947 C   0  0  0  0  0  0  0  0  0  0  0  0
    0.9483    3.0110    0.5537 C   0  0  0  0  0  0  0  0  0  0  0  0
    0.9339    4.3590    0.9275 C   0  0  0  0  0  0  0  0  0  0  0  0
   -0.1863    4.8961    1.5540 C   0  0  0  0  0  0  0  0  0  0  0  0
   -1.2901    4.0875    1.8064 C   0  0  0  0  0  0  0  0  0  0  0  0
   -1.2716    2.7401    1.4307 C   0  0  0  0  0  0  0  0  0  0  0  0
    0.9750    0.2660   -0.1804 N   0  0  0  0  0  0  0  0  0  0  0  0
    6.0149    0.8746   -0.8889 H   0  0  0  0  0  0  0  0  0  0  0  0
    5.4132    1.3432   -2.4914 H   0  0  0  0  0  0  0  0  0  0  0  0
    6.7820    0.2268   -2.3490 H   0  0  0  0  0  0  0  0  0  0  0  0
    5.3323   -1.4875   -1.3255 H   0  0  0  0  0  0  0  0  0  0  0  0
    4.7335   -1.0221   -2.9236 H   0  0  0  0  0  0  0  0  0  0  0  0
    3.6725    0.0536   -0.2483 H   0  0  0  0  0  0  0  0  0  0  0  0
    3.0698    0.5222   -1.8567 H   0  0  0  0  0  0  0  0  0  0  0  0
   -0.1016   -2.8926   -0.5769 H   0  0  0  0  0  0  0  0  0  0  0  0
   -3.9128   -0.5723    0.4600 H   0  0  0  0  0  0  0  0  0  0  0  0
   -3.3557   -0.9629    2.1145 H   0  0  0  0  0  0  0  0  0  0  0  0
   -5.6033   -2.1351    1.2057 H   0  0  0  0  0  0  0  0  0  0  0  0
   -4.4034   -3.1178    2.0725 H   0  0  0  0  0  0  0  0  0  0  0  0
   -4.6382   -4.3293   -0.0275 H   0  0  0  0  0  0  0  0  0  0  0  0
   -4.7049   -2.8148   -0.9470 H   0  0  0  0  0  0  0  0  0  0  0  0
   -2.4249   -3.2432   -1.2151 H   0  0  0  0  0  0  0  0  0  0  0  0
   -2.2840   -4.1099    0.3388 H   0  0  0  0  0  0  0  0  0  0  0  0
    1.8382    2.6176    0.0650 H   0  0  0  0  0  0  0  0  0  0  0  0
    1.7991    4.9854    0.7274 H   0  0  0  0  0  0  0  0  0  0  0  0
   -0.1991    5.9429    1.8452 H   0  0  0  0  0  0  0  0  0  0  0  0
   -2.1682    4.5005    2.2960 H   0  0  0  0  0  0  0  0  0  0  0  0
   -2.1486    2.1294    1.6409 H   0  0  0  0  0  0  0  0  0  0  0  0
  1  2  1  0
  2  3  1  0
  3  4  1  0
  4  5  1  0
  5  6  2  0
  6  7  1  0
  7  8  1  0
  8  9  1  0
  9 10  1  0
 10 11  1  0
 11 12  1  0
  7 13  2  0
 13 14  1  0
 14 15  1  0
 15 16  2  0
 16 17  1  0
 17 18  2  0
 18 19  1  0
 19 20  2  0
 14 21  2  0
 21  5  1  0
 12  8  1  0
 20 15  1  0
  1 22  1  0
  1 23  1  0
  1 24  1  0
  2 25  1  0
  2 26  1  0
  3 27  1  0
  3 28  1  0
  6 29  1  0
  9 30  1  0
  9 31  1  0
 10 32  1  0
 10 33  1  0
 11 34  1  0
 11 35  1  0
 12 36  1  0
 12 37  1  0
 16 38  1  0
 17 39  1  0
 18 40  1  0
 19 41  1  0
 20 42  1  0
M  END
$$$$
