
     RDKit          3D

 64 68  0  0  0  0  0  0  0  0999 V2000
   -3.3304    1.2337   -5.3480 C   0  0  0  0  0  0  0  0  0  0  0  0
   -3.9362    0.3677   -4.2270 C   0  0  0  0  0  0  0  0  0  0  0  0
   -5.1520   -0.3867   -4.7827 C   0  0  0  0  0  0  0  0  0  0  0  0
   -4.3804    1.3022   -3.0920 C   0  0  0  0  0  0  0  0  0  0  0  0
   -2.8712   -0.6674   -3.7992 C   0  0  0  0  0  0  0  0  0  0  0  0
   -2.1394   -1.2232   -4.6224 O   0  0  0  0  0  0  0  0  0  0  0  0
   -2.7481   -1.0738   -2.3687 C   0  0  0  0  0  0  0  0  0  0  0  0
   -3.8391   -1.8306   -1.8683 C   0  0  0  0  0  0  0  0  0  0  0  0
   -4.7689   -2.4109   -1.4880 N   0  0  0  0  0  0  0  0  0  0  0  0
   -1.6768   -0.6712   -1.6477 C   0  0  0  0  0  0  0  0  0  0  0  0
   -0.5520    0.5179   -2.2818 S   0  0  0  0  0  0  0  0  0  0  0  0
    0.2701    0.6572   -0.7717 C   0  0  0  0  0  0  0  0  0  0  0  0
    1.3882    1.3909   -0.6434 C   0  0  0  0  0  0  0  0  0  0  0  0
    2.2524    1.4818    0.4868 C   0  0  0  0  0  0  0  0  0  0  0  0
    2.6339    2.6667    1.0686 C   0  0  0  0  0  0  0  0  0  0  0  0
    3.4550    2.3461    2.1275 N   0  0  0  0  0  0  0  0  0  0  0  0
    4.0713    3.2325    3.0567 C   0  0  0  0  0  0  0  0  0  0  0  0
    3.8680    4.6182    2.9887 C   0  0  0  0  0  0  0  0  0  0  0  0
    4.4867    5.4633    3.9154 C   0  0  0  0  0  0  0  0  0  0  0  0
    5.3077    4.9350    4.9102 C   0  0  0  0  0  0  0  0  0  0  0  0
    5.5133    3.5595    4.9844 C   0  0  0  0  0  0  0  0  0  0  0  0
    4.8988    2.7090    4.0628 C   0  0  0  0  0  0  0  0  0  0  0  0
    3.6559    1.0071    2.2093 N   0  0  0  0  0  0  0  0  0  0  0  0
    2.9345    0.4675    1.2159 C   0  0  0  0  0  0  0  0  0  0  0  0
    2.9282   -0.9760    1.0042 C   0  0  0  0  0  0  0  0  0  0  0  0
    2.7680   -1.8585    2.0751 C   0  0  0  0  0  0  0  0  0  0  0  0
    2.7054   -3.2299    1.8386 C   0  0  0  0  0  0  0  0  0  0  0  0
    2.8099   -3.6769    0.5315 C   0  0  0  0  0  0  0  0  0  0  0  0
    2.9775   -2.8601   -0.5314 N   0  0  0  0  0  0  0  0  0  0  0  0
    3.0454   -1.5315   -0.2658 C   0  0  0  0  0  0  0  0  0  0  0  0
   -0.3873   -0.1715    0.2776 C   0  0  0  0  0  0  0  0  0  0  0  0
   -0.0703   -0.1358    1.4581 O   0  0  0  0  0  0  0  0  0  0  0  0
   -1.3807   -0.9743   -0.3146 N   0  0  0  0  0  0  0  0  0  0  0  0
   -1.8290   -2.1187    0.4178 C   0  0  0  0  0  0  0  0  0  0  0  0
   -1.8073   -3.3921   -0.1782 C   0  0  0  0  0  0  0  0  0  0  0  0
   -2.2132   -4.5196    0.5409 C   0  0  0  0  0  0  0  0  0  0  0  0
   -2.6285   -4.3799    1.8585 C   0  0  0  0  0  0  0  0  0  0  0  0
   -3.0138   -5.4614    2.5482 F   0  0  0  0  0  0  0  0  0  0  0  0
   -2.6363   -3.1356    2.4746 C   0  0  0  0  0  0  0  0  0  0  0  0
   -2.2288   -2.0072    1.7581 C   0  0  0  0  0  0  0  0  0  0  0  0
   -2.4269    1.7485   -5.0023 H   0  0  0  0  0  0  0  0  0  0  0  0
   -3.0485    0.6289   -6.2175 H   0  0  0  0  0  0  0  0  0  0  0  0
   -4.0407    1.9936   -5.6930 H   0  0  0  0  0  0  0  0  0  0  0  0
   -4.8601   -1.0777   -5.5815 H   0  0  0  0  0  0  0  0  0  0  0  0
   -5.8950    0.3063   -5.1935 H   0  0  0  0  0  0  0  0  0  0  0  0
   -5.6474   -0.9795   -4.0069 H   0  0  0  0  0  0  0  0  0  0  0  0
   -4.8987    0.7620   -2.2936 H   0  0  0  0  0  0  0  0  0  0  0  0
   -5.0738    2.0675   -3.4613 H   0  0  0  0  0  0  0  0  0  0  0  0
   -3.5271    1.8207   -2.6429 H   0  0  0  0  0  0  0  0  0  0  0  0
    1.7148    1.9721   -1.5057 H   0  0  0  0  0  0  0  0  0  0  0  0
    2.3735    3.6866    0.8330 H   0  0  0  0  0  0  0  0  0  0  0  0
    3.2354    5.0746    2.2346 H   0  0  0  0  0  0  0  0  0  0  0  0
    4.3270    6.5375    3.8615 H   0  0  0  0  0  0  0  0  0  0  0  0
    5.7867    5.5950    5.6290 H   0  0  0  0  0  0  0  0  0  0  0  0
    6.1528    3.1450    5.7598 H   0  0  0  0  0  0  0  0  0  0  0  0
    5.0740    1.6376    4.1427 H   0  0  0  0  0  0  0  0  0  0  0  0
    2.6699   -1.4762    3.0886 H   0  0  0  0  0  0  0  0  0  0  0  0
    2.5703   -3.9294    2.6557 H   0  0  0  0  0  0  0  0  0  0  0  0
    2.7622   -4.7369    0.2990 H   0  0  0  0  0  0  0  0  0  0  0  0
    3.2054   -0.9120   -1.1438 H   0  0  0  0  0  0  0  0  0  0  0  0
   -1.4401   -3.5332   -1.1923 H   0  0  0  0  0  0  0  0  0  0  0  0
   -2.1988   -5.5043    0.0845 H   0  0  0  0  0  0  0  0  0  0  0  0
   -2.9545   -3.0491    3.5088 H   0  0  0  0  0  0  0  0  0  0  0  0
   -2.2411   -1.0415    2.2589 H   0  0  0  0  0  0  0  0  0  0  0  0
  1  2  1  0
  2  3  1  0
  2  4  1  0
  2  5  1  0
  5  6  2  0
  5  7  1  0
  7  8  1  0
  8  9  3  0
  7 10  2  3
 10 11  1  0
 11 12  1  0
 12 13  2  3
 13 14  1  0
 14 15  2  0
 15 16  1  0
 16 17  1  0
 17 18  2  0
 18 19  1  0
 19 20  2  0
 20 21  1  0
 21 22  2  0
 16 23  1  0
 23 24  2  0
 24 25  1  0
 25 26  2  0
 26 27  1  0
 27 28  2  0
 28 29  1  0
 29 30  2  0
 12 31  1  0
 31 32  2  0
 31 33  1  0
 33 34  1  0
 34 35  2  0
 35 36  1  0
 36 37  2  0
 37 38  1  0
 37 39  1  0
 39 40  2  0
 33 10  1  0
 40 34  1  0
 24 14  1  0
 30 25  1  0
 22 17  1  0
  1 41  1  0
  1 42  1  0
  1 43  1  0
  3 44  1  0
  3 45  1  0
  3 46  1  0
  4 47  1  0
  4 48  1  0
  4 49  1  0
 13 50  1  0
 15 51  1  0
 18 52  1  0
 19 53  1  0
 20 54  1  0
 21 55  1  0
 22 56  1  0
 26 57  1  0
 27 58  1  0
 28 59  1  0
 30 60  1  0
 35 61  1  0
 36 62  1  0
 39 63  1  0
 40 64  1  0
M  END
$$$$
