
     RDKit          3D

 36 37  0  0  0  0  0  0  0  0999 V2000
    4.9075   -1.9793   -1.6135 C   0  0  0  0  0  0  0  0  0  0  0  0
    3.6991   -1.3790   -1.0784 N   0  0  0  0  0  0  0  0  0  0  0  0
    3.6405   -0.1994   -0.3538 C   0  0  0  0  0  0  0  0  0  0  0  0
    4.9935    0.7359   -0.0127 S   0  0  0  0  0  0  0  0  0  0  0  0
    2.3243    0.1082    0.0513 N   0  0  0  0  0  0  0  0  0  0  0  0
    2.0680    1.1708    1.0340 C   0  0  0  0  0  0  0  0  0  0  0  0
    0.7931    0.8979    1.8291 C   0  0  0  0  0  0  0  0  0  0  0  0
   -0.3778    0.6074    0.9296 C   0  0  0  0  0  0  0  0  0  0  0  0
   -1.6875    0.7734    1.4057 C   0  0  0  0  0  0  0  0  0  0  0  0
   -2.7876    0.4826    0.5919 C   0  0  0  0  0  0  0  0  0  0  0  0
   -4.0980    0.6232    0.9776 O   0  0  0  0  0  0  0  0  0  0  0  0
   -4.3525    1.1034    2.2894 C   0  0  0  0  0  0  0  0  0  0  0  0
   -2.5756    0.0111   -0.7174 C   0  0  0  0  0  0  0  0  0  0  0  0
   -3.7045   -0.2481   -1.4551 O   0  0  0  0  0  0  0  0  0  0  0  0
   -3.5343   -0.6888   -2.7939 C   0  0  0  0  0  0  0  0  0  0  0  0
   -1.2677   -0.1681   -1.1831 C   0  0  0  0  0  0  0  0  0  0  0  0
   -0.1611    0.1165   -0.3644 C   0  0  0  0  0  0  0  0  0  0  0  0
    1.2324   -0.0861   -0.9165 C   0  0  0  0  0  0  0  0  0  0  0  0
    5.5363   -2.3217   -0.7873 H   0  0  0  0  0  0  0  0  0  0  0  0
    5.4506   -1.2547   -2.2254 H   0  0  0  0  0  0  0  0  0  0  0  0
    4.6181   -2.8330   -2.2314 H   0  0  0  0  0  0  0  0  0  0  0  0
    2.9884   -2.0448   -0.8065 H   0  0  0  0  0  0  0  0  0  0  0  0
    2.8969    1.2489    1.7442 H   0  0  0  0  0  0  0  0  0  0  0  0
    1.9988    2.1212    0.4893 H   0  0  0  0  0  0  0  0  0  0  0  0
    0.9439    0.0288    2.4813 H   0  0  0  0  0  0  0  0  0  0  0  0
    0.5788    1.7646    2.4651 H   0  0  0  0  0  0  0  0  0  0  0  0
   -1.8214    1.1331    2.4209 H   0  0  0  0  0  0  0  0  0  0  0  0
   -3.9521    2.1134    2.4255 H   0  0  0  0  0  0  0  0  0  0  0  0
   -5.4375    1.1563    2.4216 H   0  0  0  0  0  0  0  0  0  0  0  0
   -3.9595    0.4154    3.0452 H   0  0  0  0  0  0  0  0  0  0  0  0
   -3.0219   -1.6558   -2.8289 H   0  0  0  0  0  0  0  0  0  0  0  0
   -3.0081    0.0610   -3.3938 H   0  0  0  0  0  0  0  0  0  0  0  0
   -4.5285   -0.8246   -3.2305 H   0  0  0  0  0  0  0  0  0  0  0  0
   -1.0795   -0.5340   -2.1877 H   0  0  0  0  0  0  0  0  0  0  0  0
    1.3977    0.6345   -1.7278 H   0  0  0  0  0  0  0  0  0  0  0  0
    1.2872   -1.0903   -1.3475 H   0  0  0  0  0  0  0  0  0  0  0  0
  1  2  1  0
  2  3  1  0
  3  4  2  0
  3  5  1  0
  5  6  1  0
  6  7  1  0
  7  8  1  0
  8  9  2  0
  9 10  1  0
 10 11  1  0
 11 12  1  0
 10 13  2  0
 13 14  1  0
 14 15  1  0
 13 16  1  0
 16 17  2  0
 17 18  1  0
 18  5  1  0
 17  8  1  0
  1 19  1  0
  1 20  1  0
  1 21  1  0
  2 22  1  0
  6 23  1  0
  6 24  1  0
  7 25  1  0
  7 26  1  0
  9 27  1  0
 12 28  1  0
 12 29  1  0
 12 30  1  0
 15 31  1  0
 15 32  1  0
 15 33  1  0
 16 34  1  0
 18 35  1  0
 18 36  1  0
M  END
$$$$
