
     RDKit          3D

 26 28  0  0  0  0  0  0  0  0999 V2000
   -1.2642   -1.1227   -4.5074 N   0  0  0  0  0  0  0  0  0  0  0  0
   -0.6784   -0.8568   -3.5412 C   0  0  0  0  0  0  0  0  0  0  0  0
    0.0620   -0.5449   -2.3585 C   0  0  0  0  0  0  0  0  0  0  0  0
    1.3922   -0.3655   -2.4747 C   0  0  0  0  0  0  0  0  0  0  0  0
    2.3397   -0.0719   -1.4516 C   0  0  0  0  0  0  0  0  0  0  0  0
    2.3353   -0.2384   -0.0697 C   0  0  0  0  0  0  0  0  0  0  0  0
    3.5769    0.2158    0.4385 C   0  0  0  0  0  0  0  0  0  0  0  0
    4.2972    0.6245   -0.6512 C   0  0  0  0  0  0  0  0  0  0  0  0
    3.5773    0.4468   -1.7828 O   0  0  0  0  0  0  0  0  0  0  0  0
   -0.6560   -0.3822   -1.1361 C   0  0  0  0  0  0  0  0  0  0  0  0
   -0.6830    0.7002   -0.3822 N   0  0  0  0  0  0  0  0  0  0  0  0
   -1.4893    0.5146    0.7276 C   0  0  0  0  0  0  0  0  0  0  0  0
   -1.7382    1.4671    1.7359 C   0  0  0  0  0  0  0  0  0  0  0  0
   -2.5754    1.1417    2.8080 C   0  0  0  0  0  0  0  0  0  0  0  0
   -3.1637   -0.1167    2.8850 C   0  0  0  0  0  0  0  0  0  0  0  0
   -2.9312   -1.0785    1.8968 C   0  0  0  0  0  0  0  0  0  0  0  0
   -2.0883   -0.7398    0.8252 C   0  0  0  0  0  0  0  0  0  0  0  0
   -1.6147   -1.6920   -0.5247 S   0  0  0  0  0  0  0  0  0  0  0  0
    1.8355   -0.4438   -3.4677 H   0  0  0  0  0  0  0  0  0  0  0  0
    1.5297   -0.6448    0.5245 H   0  0  0  0  0  0  0  0  0  0  0  0
    3.9018    0.2361    1.4689 H   0  0  0  0  0  0  0  0  0  0  0  0
    5.2861    1.0400   -0.7851 H   0  0  0  0  0  0  0  0  0  0  0  0
   -1.2776    2.4481    1.6711 H   0  0  0  0  0  0  0  0  0  0  0  0
   -2.7668    1.8797    3.5837 H   0  0  0  0  0  0  0  0  0  0  0  0
   -3.8145   -0.3568    3.7236 H   0  0  0  0  0  0  0  0  0  0  0  0
   -3.3925   -2.0597    1.9580 H   0  0  0  0  0  0  0  0  0  0  0  0
  1  2  3  0
  2  3  1  0
  3  4  2  3
  4  5  1  0
  5  6  2  0
  6  7  1  0
  7  8  2  0
  8  9  1  0
  3 10  1  0
 10 11  2  0
 11 12  1  0
 12 13  2  0
 13 14  1  0
 14 15  2  0
 15 16  1  0
 16 17  2  0
 17 18  1  0
  9  5  1  0
 18 10  1  0
 17 12  1  0
  4 19  1  0
  6 20  1  0
  7 21  1  0
  8 22  1  0
 13 23  1  0
 14 24  1  0
 15 25  1  0
 16 26  1  0
M  END
$$$$
