
     RDKit          3D

 54 57  0  0  0  0  0  0  0  0999 V2000
   -7.7336   -1.5293    2.2122 C   0  0  0  0  0  0  0  0  0  0  0  0
   -7.0517   -0.3287    2.5517 O   0  0  0  0  0  0  0  0  0  0  0  0
   -5.8658   -0.0893    1.9159 C   0  0  0  0  0  0  0  0  0  0  0  0
   -5.2321    1.0956    2.2848 C   0  0  0  0  0  0  0  0  0  0  0  0
   -4.0111    1.4609    1.7089 C   0  0  0  0  0  0  0  0  0  0  0  0
   -3.3903    0.6367    0.7550 C   0  0  0  0  0  0  0  0  0  0  0  0
   -2.1392    1.0516    0.1985 N   0  0  0  0  0  0  0  0  0  0  0  0
   -1.7073    2.3263    0.4354 N   0  0  0  0  0  0  0  0  0  0  0  0
   -0.5909    2.4644   -0.2738 C   0  0  0  0  0  0  0  0  0  0  0  0
   -0.2268    1.2828   -0.9258 C   0  0  0  0  0  0  0  0  0  0  0  0
   -1.2150    0.3738   -0.5896 C   0  0  0  0  0  0  0  0  0  0  0  0
   -1.2268   -1.0558   -1.0203 C   0  0  0  0  0  0  0  0  0  0  0  0
    0.1683   -1.5106   -1.5518 C   0  0  0  0  0  0  0  0  0  0  0  0
   -0.0218   -2.7768   -2.4124 C   0  0  0  0  0  0  0  0  0  0  0  0
    1.0860   -1.8860   -0.3707 C   0  0  0  0  0  0  0  0  0  0  0  0
    0.8120   -0.4032   -2.4454 C   0  0  0  0  0  0  0  0  0  0  0  0
    0.9600    0.9822   -1.7713 C   0  0  0  0  0  0  0  0  0  0  0  0
    2.1338    1.0630   -0.9323 N   0  0  0  0  0  0  0  0  0  0  0  0
    3.4067    1.1934   -1.4399 C   0  0  0  0  0  0  0  0  0  0  0  0
    3.6615    1.3188   -2.6312 O   0  0  0  0  0  0  0  0  0  0  0  0
    4.4832    1.1610   -0.4116 C   0  0  0  0  0  0  0  0  0  0  0  0
    5.8090    1.3057   -0.7851 C   0  0  0  0  0  0  0  0  0  0  0  0
    6.8214    1.2777    0.1198 N   0  0  0  0  0  0  0  0  0  0  0  0
    6.4551    1.0992    1.4145 C   0  0  0  0  0  0  0  0  0  0  0  0
    7.5345    1.0638    2.4503 C   0  0  0  0  0  0  0  0  0  0  0  0
    5.1175    0.9543    1.7783 C   0  0  0  0  0  0  0  0  0  0  0  0
    4.0994    0.9786    0.8850 N   0  0  0  0  0  0  0  0  0  0  0  0
   -4.0401   -0.5422    0.3765 C   0  0  0  0  0  0  0  0  0  0  0  0
   -5.2675   -0.9032    0.9562 C   0  0  0  0  0  0  0  0  0  0  0  0
   -7.1311   -2.4096    2.4595 H   0  0  0  0  0  0  0  0  0  0  0  0
   -8.6494   -1.5741    2.8097 H   0  0  0  0  0  0  0  0  0  0  0  0
   -8.0250   -1.5321    1.1567 H   0  0  0  0  0  0  0  0  0  0  0  0
   -5.6907    1.7462    3.0258 H   0  0  0  0  0  0  0  0  0  0  0  0
   -3.5511    2.3950    2.0281 H   0  0  0  0  0  0  0  0  0  0  0  0
   -0.0774    3.4177   -0.2657 H   0  0  0  0  0  0  0  0  0  0  0  0
   -1.5238   -1.7110   -0.1938 H   0  0  0  0  0  0  0  0  0  0  0  0
   -1.9657   -1.1587   -1.8251 H   0  0  0  0  0  0  0  0  0  0  0  0
   -0.4971   -3.5791   -1.8369 H   0  0  0  0  0  0  0  0  0  0  0  0
   -0.6553   -2.5742   -3.2832 H   0  0  0  0  0  0  0  0  0  0  0  0
    0.9396   -3.1523   -2.7808 H   0  0  0  0  0  0  0  0  0  0  0  0
    0.7100   -2.7753    0.1490 H   0  0  0  0  0  0  0  0  0  0  0  0
    1.1508   -1.0913    0.3775 H   0  0  0  0  0  0  0  0  0  0  0  0
    2.1012   -2.1116   -0.7160 H   0  0  0  0  0  0  0  0  0  0  0  0
    0.1669   -0.2709   -3.3265 H   0  0  0  0  0  0  0  0  0  0  0  0
    1.7809   -0.7469   -2.8293 H   0  0  0  0  0  0  0  0  0  0  0  0
    1.0616    1.7413   -2.5568 H   0  0  0  0  0  0  0  0  0  0  0  0
    2.0568    0.9198    0.0716 H   0  0  0  0  0  0  0  0  0  0  0  0
    6.1006    1.4484   -1.8201 H   0  0  0  0  0  0  0  0  0  0  0  0
    7.5192    0.1066    2.9807 H   0  0  0  0  0  0  0  0  0  0  0  0
    8.5204    1.1821    1.9894 H   0  0  0  0  0  0  0  0  0  0  0  0
    7.3948    1.8760    3.1702 H   0  0  0  0  0  0  0  0  0  0  0  0
    4.8261    0.8134    2.8145 H   0  0  0  0  0  0  0  0  0  0  0  0
   -3.6575   -1.1984   -0.3929 H   0  0  0  0  0  0  0  0  0  0  0  0
   -5.7330   -1.8255    0.6238 H   0  0  0  0  0  0  0  0  0  0  0  0
  1  2  1  0
  2  3  1  0
  3  4  2  0
  4  5  1  0
  5  6  2  0
  6  7  1  0
  7  8  1  0
  8  9  2  0
  9 10  1  0
 10 11  2  0
 11 12  1  0
 12 13  1  0
 13 14  1  0
 13 15  1  0
 13 16  1  0
 16 17  1  0
 17 18  1  0
 18 19  1  0
 19 20  2  0
 19 21  1  0
 21 22  2  0
 22 23  1  0
 23 24  2  0
 24 25  1  0
 24 26  1  0
 26 27  2  0
  6 28  1  0
 28 29  2  0
 29  3  1  0
 11  7  1  0
 27 21  1  0
 17 10  1  0
  1 30  1  0
  1 31  1  0
  1 32  1  0
  4 33  1  0
  5 34  1  0
  9 35  1  0
 12 36  1  0
 12 37  1  0
 14 38  1  0
 14 39  1  0
 14 40  1  0
 15 41  1  0
 15 42  1  0
 15 43  1  0
 16 44  1  0
 16 45  1  0
 17 46  1  0
 18 47  1  0
 22 48  1  0
 25 49  1  0
 25 50  1  0
 25 51  1  0
 26 52  1  0
 28 53  1  0
 29 54  1  0
M  END
$$$$
