
     RDKit          3D

 46 49  0  0  0  0  0  0  0  0999 V2000
    6.4402   -1.0752   -0.1253 C   0  0  0  0  0  0  0  0  0  0  0  0
    5.2602   -1.9880    0.1508 C   0  0  0  0  0  0  0  0  0  0  0  0
    4.0289   -1.2725   -0.0237 O   0  0  0  0  0  0  0  0  0  0  0  0
    3.5799   -0.5832    1.0609 C   0  0  0  0  0  0  0  0  0  0  0  0
    4.1574   -0.5559    2.1407 O   0  0  0  0  0  0  0  0  0  0  0  0
    2.3897    0.0749    0.8034 N   0  0  0  0  0  0  0  0  0  0  0  0
    1.7581    0.0611   -0.5120 C   0  0  0  0  0  0  0  0  0  0  0  0
    0.7355    1.1796   -0.6779 C   0  0  0  0  0  0  0  0  0  0  0  0
   -0.3436    1.1900    0.4376 C   0  0  0  0  0  0  0  0  0  0  0  0
    0.2150    0.6519    1.7795 C   0  0  0  0  0  0  0  0  0  0  0  0
    1.7268    0.8090    1.8730 C   0  0  0  0  0  0  0  0  0  0  0  0
   -0.7372    2.6255    0.5643 N   0  0  0  0  0  0  0  0  0  0  0  0
   -2.0692    2.8505    1.1565 C   0  0  0  0  0  0  0  0  0  0  0  0
   -3.2095    2.2359    0.3202 C   0  0  0  0  0  0  0  0  0  0  0  0
   -2.8651    0.8344   -0.0332 C   0  0  0  0  0  0  0  0  0  0  0  0
   -1.5581    0.3866    0.0187 C   0  0  0  0  0  0  0  0  0  0  0  0
   -1.5683   -0.9366   -0.3421 N   0  0  0  0  0  0  0  0  0  0  0  0
   -2.8512   -1.3405   -0.6445 C   0  0  0  0  0  0  0  0  0  0  0  0
   -3.3272   -2.5897   -1.0608 C   0  0  0  0  0  0  0  0  0  0  0  0
   -4.6997   -2.7140   -1.2973 C   0  0  0  0  0  0  0  0  0  0  0  0
   -5.5595   -1.6318   -1.1228 C   0  0  0  0  0  0  0  0  0  0  0  0
   -5.0679   -0.3899   -0.7041 C   0  0  0  0  0  0  0  0  0  0  0  0
   -3.6891   -0.2398   -0.4597 C   0  0  0  0  0  0  0  0  0  0  0  0
    6.4684   -0.2429    0.5850 H   0  0  0  0  0  0  0  0  0  0  0  0
    7.3819   -1.6266   -0.0545 H   0  0  0  0  0  0  0  0  0  0  0  0
    6.3614   -0.6373   -1.1258 H   0  0  0  0  0  0  0  0  0  0  0  0
    5.2559   -2.8106   -0.5718 H   0  0  0  0  0  0  0  0  0  0  0  0
    5.3239   -2.4382    1.1480 H   0  0  0  0  0  0  0  0  0  0  0  0
    2.5312    0.1591   -1.2828 H   0  0  0  0  0  0  0  0  0  0  0  0
    1.2988   -0.9235   -0.6427 H   0  0  0  0  0  0  0  0  0  0  0  0
    1.3005    2.1238   -0.6632 H   0  0  0  0  0  0  0  0  0  0  0  0
    0.2786    1.1211   -1.6744 H   0  0  0  0  0  0  0  0  0  0  0  0
   -0.0224   -0.4145    1.8961 H   0  0  0  0  0  0  0  0  0  0  0  0
   -0.2565    1.1485    2.6361 H   0  0  0  0  0  0  0  0  0  0  0  0
    2.0754    0.4537    2.8486 H   0  0  0  0  0  0  0  0  0  0  0  0
    2.0207    1.8615    1.7865 H   0  0  0  0  0  0  0  0  0  0  0  0
   -0.0376    3.1258    1.1084 H   0  0  0  0  0  0  0  0  0  0  0  0
   -2.2385    3.9302    1.2366 H   0  0  0  0  0  0  0  0  0  0  0  0
   -2.0963    2.4538    2.1787 H   0  0  0  0  0  0  0  0  0  0  0  0
   -4.1454    2.2761    0.8878 H   0  0  0  0  0  0  0  0  0  0  0  0
   -3.3489    2.8148   -0.6007 H   0  0  0  0  0  0  0  0  0  0  0  0
   -0.7669   -1.5493   -0.3720 H   0  0  0  0  0  0  0  0  0  0  0  0
   -2.6612   -3.4349   -1.1980 H   0  0  0  0  0  0  0  0  0  0  0  0
   -5.1012   -3.6708   -1.6230 H   0  0  0  0  0  0  0  0  0  0  0  0
   -6.6232   -1.7503   -1.3131 H   0  0  0  0  0  0  0  0  0  0  0  0
   -5.7446    0.4483   -0.5706 H   0  0  0  0  0  0  0  0  0  0  0  0
  1  2  1  0
  2  3  1  0
  3  4  1  0
  4  5  2  0
  4  6  1  0
  6  7  1  0
  7  8  1  0
  8  9  1  0
  9 10  1  0
 10 11  1  0
  9 12  1  0
 12 13  1  0
 13 14  1  0
 14 15  1  0
 15 16  2  0
 16 17  1  0
 17 18  1  0
 18 19  2  0
 19 20  1  0
 20 21  2  0
 21 22  1  0
 22 23  2  0
 11  6  1  0
 23 15  1  0
 16  9  1  0
 23 18  1  0
  1 24  1  0
  1 25  1  0
  1 26  1  0
  2 27  1  0
  2 28  1  0
  7 29  1  0
  7 30  1  0
  8 31  1  0
  8 32  1  0
 10 33  1  0
 10 34  1  0
 11 35  1  0
 11 36  1  0
 12 37  1  0
 13 38  1  0
 13 39  1  0
 14 40  1  0
 14 41  1  0
 17 42  1  0
 19 43  1  0
 20 44  1  0
 21 45  1  0
 22 46  1  0
M  END
$$$$
