
     RDKit          3D

 46 48  0  0  0  0  0  0  0  0999 V2000
    5.9896    2.2950    1.9118 C   0  0  0  0  0  0  0  0  0  0  0  0
    4.6672    1.6886    1.4844 C   0  0  0  0  0  0  0  0  0  0  0  0
    4.9439    0.5053    0.7238 O   0  0  0  0  0  0  0  0  0  0  0  0
    3.8428   -0.1563    0.2891 C   0  0  0  0  0  0  0  0  0  0  0  0
    2.6864    0.1810    0.5041 O   0  0  0  0  0  0  0  0  0  0  0  0
    4.2149   -1.3675   -0.5066 C   0  0  0  0  0  0  0  0  0  0  0  0
    5.5715   -1.7096   -0.6689 C   0  0  0  0  0  0  0  0  0  0  0  0
    5.9372   -2.8357   -1.4045 C   0  0  0  0  0  0  0  0  0  0  0  0
    4.9545   -3.6274   -1.9854 C   0  0  0  0  0  0  0  0  0  0  0  0
    3.6037   -3.2994   -1.8338 C   0  0  0  0  0  0  0  0  0  0  0  0
    3.2102   -2.1736   -1.0983 C   0  0  0  0  0  0  0  0  0  0  0  0
    1.8456   -1.8304   -0.9268 N   0  0  0  0  0  0  0  0  0  0  0  0
    0.7221   -2.4385   -1.4616 C   0  0  0  0  0  0  0  0  0  0  0  0
    0.7087   -3.4054   -2.2183 O   0  0  0  0  0  0  0  0  0  0  0  0
   -0.5735   -1.7942   -0.9934 C   0  0  0  0  0  0  0  0  0  0  0  0
   -0.7758   -0.1718   -1.8001 S   0  0  0  0  0  0  0  0  0  0  0  0
   -2.2882    0.3680   -1.0388 C   0  0  0  0  0  0  0  0  0  0  0  0
   -2.7893    1.6264   -1.3207 C   0  0  0  0  0  0  0  0  0  0  0  0
   -3.9763    2.0369   -0.7112 C   0  0  0  0  0  0  0  0  0  0  0  0
   -4.6273    1.1794    0.1685 C   0  0  0  0  0  0  0  0  0  0  0  0
   -5.8797    1.5078    0.8640 C   0  0  0  0  0  0  0  0  0  0  0  0
   -6.8027    0.5156    1.2316 C   0  0  0  0  0  0  0  0  0  0  0  0
   -7.9892    0.8499    1.8840 C   0  0  0  0  0  0  0  0  0  0  0  0
   -8.2318    2.1830    2.1595 C   0  0  0  0  0  0  0  0  0  0  0  0
   -7.3787    3.1766    1.8376 N   0  0  0  0  0  0  0  0  0  0  0  0
   -6.2317    2.8147    1.2088 C   0  0  0  0  0  0  0  0  0  0  0  0
   -4.1115   -0.0482    0.4096 N   0  0  0  0  0  0  0  0  0  0  0  0
   -2.9383   -0.4534   -0.1933 N   0  0  0  0  0  0  0  0  0  0  0  0
    6.6092    2.5224    1.0382 H   0  0  0  0  0  0  0  0  0  0  0  0
    5.8326    3.2155    2.4823 H   0  0  0  0  0  0  0  0  0  0  0  0
    6.5551    1.5888    2.5281 H   0  0  0  0  0  0  0  0  0  0  0  0
    4.1158    2.4040    0.8633 H   0  0  0  0  0  0  0  0  0  0  0  0
    4.0729    1.4320    2.3690 H   0  0  0  0  0  0  0  0  0  0  0  0
    6.3605   -1.1067   -0.2245 H   0  0  0  0  0  0  0  0  0  0  0  0
    6.9866   -3.0940   -1.5237 H   0  0  0  0  0  0  0  0  0  0  0  0
    5.2321   -4.5078   -2.5613 H   0  0  0  0  0  0  0  0  0  0  0  0
    2.8787   -3.9541   -2.3075 H   0  0  0  0  0  0  0  0  0  0  0  0
    1.6768   -0.9857   -0.3735 H   0  0  0  0  0  0  0  0  0  0  0  0
   -0.5419   -1.6875    0.0967 H   0  0  0  0  0  0  0  0  0  0  0  0
   -1.4063   -2.4550   -1.2570 H   0  0  0  0  0  0  0  0  0  0  0  0
   -2.2759    2.2894   -2.0111 H   0  0  0  0  0  0  0  0  0  0  0  0
   -4.3774    3.0177   -0.9484 H   0  0  0  0  0  0  0  0  0  0  0  0
   -6.6023   -0.5312    1.0065 H   0  0  0  0  0  0  0  0  0  0  0  0
   -8.7042    0.0848    2.1679 H   0  0  0  0  0  0  0  0  0  0  0  0
   -9.1415    2.4951    2.6643 H   0  0  0  0  0  0  0  0  0  0  0  0
   -5.5751    3.6560    0.9979 H   0  0  0  0  0  0  0  0  0  0  0  0
  1  2  1  0
  2  3  1  0
  3  4  1  0
  4  5  2  0
  4  6  1  0
  6  7  2  0
  7  8  1  0
  8  9  2  0
  9 10  1  0
 10 11  2  0
 11 12  1  0
 12 13  1  0
 13 14  2  0
 13 15  1  0
 15 16  1  0
 16 17  1  0
 17 18  2  0
 18 19  1  0
 19 20  2  0
 20 21  1  0
 21 22  2  0
 22 23  1  0
 23 24  2  0
 24 25  1  0
 25 26  2  0
 20 27  1  0
 27 28  2  0
 11  6  1  0
 28 17  1  0
 26 21  1  0
  1 29  1  0
  1 30  1  0
  1 31  1  0
  2 32  1  0
  2 33  1  0
  7 34  1  0
  8 35  1  0
  9 36  1  0
 10 37  1  0
 12 38  1  0
 15 39  1  0
 15 40  1  0
 18 41  1  0
 19 42  1  0
 22 43  1  0
 23 44  1  0
 24 45  1  0
 26 46  1  0
M  END
$$$$
