
     RDKit          3D

 40 41  0  0  0  0  0  0  0  0999 V2000
    0.3186    1.4962   -3.4323 C   0  0  0  0  0  0  0  0  0  0  0  0
   -0.4590    2.1738   -2.3142 C   0  0  0  0  0  0  0  0  0  0  0  0
   -0.7065    1.2812   -1.1144 C   0  0  0  0  0  0  0  0  0  0  0  0
   -1.8387    0.4645   -1.0736 C   0  0  0  0  0  0  0  0  0  0  0  0
   -2.8388    0.3975   -2.1935 C   0  0  0  0  0  0  0  0  0  0  0  0
   -2.1445   -0.3119   -0.0110 N   0  0  0  0  0  0  0  0  0  0  0  0
   -1.3882   -0.2943    1.1022 C   0  0  0  0  0  0  0  0  0  0  0  0
   -1.7745   -1.0682    2.2173 C   0  0  0  0  0  0  0  0  0  0  0  0
   -2.9133   -1.8293    2.0476 O   0  0  0  0  0  0  0  0  0  0  0  0
   -3.4132   -2.5444    3.1672 C   0  0  0  0  0  0  0  0  0  0  0  0
   -1.0366   -1.0486    3.4056 C   0  0  0  0  0  0  0  0  0  0  0  0
    0.0862   -0.2435    3.5060 C   0  0  0  0  0  0  0  0  0  0  0  0
    0.4812    0.5206    2.4121 C   0  0  0  0  0  0  0  0  0  0  0  0
   -0.2239    0.4956    1.1788 C   0  0  0  0  0  0  0  0  0  0  0  0
    0.1477    1.2373    0.0124 C   0  0  0  0  0  0  0  0  0  0  0  0
    1.7099    2.1674   -0.0303 S   0  0  0  0  0  0  0  0  0  0  0  0
    2.9363    0.8057    0.0597 C   0  0  0  0  0  0  0  0  0  0  0  0
    3.0177    0.0017   -1.2232 C   0  0  0  0  0  0  0  0  0  0  0  0
    4.0559   -1.0665   -1.0599 C   0  0  0  0  0  0  0  0  0  0  0  0
    5.2606   -0.9224   -1.1806 O   0  0  0  0  0  0  0  0  0  0  0  0
    3.5348   -2.2556   -0.7085 O   0  0  0  0  0  0  0  0  0  0  0  0
    0.3794    2.1597   -4.3011 H   0  0  0  0  0  0  0  0  0  0  0  0
    1.3396    1.2639   -3.1253 H   0  0  0  0  0  0  0  0  0  0  0  0
   -0.1536    0.5630   -3.7528 H   0  0  0  0  0  0  0  0  0  0  0  0
   -1.4170    2.5274   -2.7135 H   0  0  0  0  0  0  0  0  0  0  0  0
    0.0483    3.0978   -2.0166 H   0  0  0  0  0  0  0  0  0  0  0  0
   -3.3531    1.3568   -2.3042 H   0  0  0  0  0  0  0  0  0  0  0  0
   -2.3564    0.1257   -3.1360 H   0  0  0  0  0  0  0  0  0  0  0  0
   -3.6002   -0.3625   -1.9872 H   0  0  0  0  0  0  0  0  0  0  0  0
   -2.7124   -3.3260    3.4783 H   0  0  0  0  0  0  0  0  0  0  0  0
   -4.3426   -3.0350    2.8621 H   0  0  0  0  0  0  0  0  0  0  0  0
   -3.6512   -1.8698    3.9963 H   0  0  0  0  0  0  0  0  0  0  0  0
   -1.3199   -1.6401    4.2691 H   0  0  0  0  0  0  0  0  0  0  0  0
    0.6525   -0.2042    4.4330 H   0  0  0  0  0  0  0  0  0  0  0  0
    1.3505    1.1614    2.5424 H   0  0  0  0  0  0  0  0  0  0  0  0
    3.9073    1.2720    0.2630 H   0  0  0  0  0  0  0  0  0  0  0  0
    2.7303    0.1520    0.9115 H   0  0  0  0  0  0  0  0  0  0  0  0
    3.3153    0.6233   -2.0747 H   0  0  0  0  0  0  0  0  0  0  0  0
    2.0626   -0.4699   -1.4793 H   0  0  0  0  0  0  0  0  0  0  0  0
    4.3088   -2.8525   -0.6326 H   0  0  0  0  0  0  0  0  0  0  0  0
  1  2  1  0
  2  3  1  0
  3  4  2  0
  4  5  1  0
  4  6  1  0
  6  7  2  0
  7  8  1  0
  8  9  1  0
  9 10  1  0
  8 11  2  0
 11 12  1  0
 12 13  2  0
 13 14  1  0
 14 15  2  0
 15 16  1  0
 16 17  1  0
 17 18  1  0
 18 19  1  0
 19 20  2  0
 19 21  1  0
 15  3  1  0
 14  7  1  0
  1 22  1  0
  1 23  1  0
  1 24  1  0
  2 25  1  0
  2 26  1  0
  5 27  1  0
  5 28  1  0
  5 29  1  0
 10 30  1  0
 10 31  1  0
 10 32  1  0
 11 33  1  0
 12 34  1  0
 13 35  1  0
 17 36  1  0
 17 37  1  0
 18 38  1  0
 18 39  1  0
 21 40  1  0
M  END
$$$$
