
     RDKit          3D

 52 54  0  0  0  0  0  0  0  0999 V2000
    5.2852    0.7363   -0.1397 C   0  0  0  0  0  0  0  0  0  0  0  0
    5.7419    0.1937   -1.4133 N   0  0  0  0  0  0  0  0  0  0  0  0
    6.6943    1.0023   -2.1824 C   0  0  0  0  0  0  0  0  0  0  0  0
    8.1232    0.4541   -2.1641 C   0  0  0  0  0  0  0  0  0  0  0  0
    8.7507    0.6501   -0.8527 C   0  0  0  0  0  0  0  0  0  0  0  0
    9.2373    0.8220    0.1869 N   0  0  0  0  0  0  0  0  0  0  0  0
    5.2613   -0.9781   -1.9931 C   0  0  0  0  0  0  0  0  0  0  0  0
    5.7046   -1.3845   -3.0710 O   0  0  0  0  0  0  0  0  0  0  0  0
    4.1810   -1.7668   -1.2572 C   0  0  0  0  0  0  0  0  0  0  0  0
    2.9963   -0.9759   -1.1446 O   0  0  0  0  0  0  0  0  0  0  0  0
    2.0120   -1.5684   -0.4300 C   0  0  0  0  0  0  0  0  0  0  0  0
    2.0830   -2.6551    0.1183 O   0  0  0  0  0  0  0  0  0  0  0  0
    0.8031   -0.7006   -0.3809 C   0  0  0  0  0  0  0  0  0  0  0  0
    0.7311    0.5307   -1.0817 C   0  0  0  0  0  0  0  0  0  0  0  0
   -0.4186    1.3291   -1.0214 C   0  0  0  0  0  0  0  0  0  0  0  0
   -1.4696    0.8682   -0.2534 C   0  0  0  0  0  0  0  0  0  0  0  0
   -1.4061   -0.3306    0.4291 C   0  0  0  0  0  0  0  0  0  0  0  0
   -0.2875   -1.1414    0.3868 C   0  0  0  0  0  0  0  0  0  0  0  0
   -2.6818   -0.5129    1.1178 C   0  0  0  0  0  0  0  0  0  0  0  0
   -2.9538   -1.5049    1.7649 O   0  0  0  0  0  0  0  0  0  0  0  0
   -3.4352    0.6016    0.8570 N   0  0  0  0  0  0  0  0  0  0  0  0
   -4.8208    0.8049    1.2813 C   0  0  0  0  0  0  0  0  0  0  0  0
   -5.7773   -0.0984    0.4848 C   0  0  0  0  0  0  0  0  0  0  0  0
   -7.1720   -0.0894    1.0973 C   0  0  0  0  0  0  0  0  0  0  0  0
   -7.1784   -0.5991    2.5391 C   0  0  0  0  0  0  0  0  0  0  0  0
   -5.8108   -0.5468    3.2190 C   0  0  0  0  0  0  0  0  0  0  0  0
   -5.0074    0.6832    2.8075 C   0  0  0  0  0  0  0  0  0  0  0  0
   -2.7843    1.4514    0.0005 C   0  0  0  0  0  0  0  0  0  0  0  0
   -3.1665    2.4909   -0.5017 O   0  0  0  0  0  0  0  0  0  0  0  0
    6.1383    1.1409    0.4113 H   0  0  0  0  0  0  0  0  0  0  0  0
    4.5722    1.5399   -0.3458 H   0  0  0  0  0  0  0  0  0  0  0  0
    4.8045   -0.0179    0.4840 H   0  0  0  0  0  0  0  0  0  0  0  0
    6.6603    2.0360   -1.8164 H   0  0  0  0  0  0  0  0  0  0  0  0
    6.3448    1.0255   -3.2222 H   0  0  0  0  0  0  0  0  0  0  0  0
    8.7136    0.9844   -2.9204 H   0  0  0  0  0  0  0  0  0  0  0  0
    8.1424   -0.6082   -2.4289 H   0  0  0  0  0  0  0  0  0  0  0  0
    4.5636   -2.0692   -0.2759 H   0  0  0  0  0  0  0  0  0  0  0  0
    3.9589   -2.6656   -1.8445 H   0  0  0  0  0  0  0  0  0  0  0  0
    1.5696    0.8737   -1.6860 H   0  0  0  0  0  0  0  0  0  0  0  0
   -0.4870    2.2708   -1.5578 H   0  0  0  0  0  0  0  0  0  0  0  0
   -0.2649   -2.0829    0.9296 H   0  0  0  0  0  0  0  0  0  0  0  0
   -5.0711    1.8432    1.0233 H   0  0  0  0  0  0  0  0  0  0  0  0
   -5.4046   -1.1298    0.4481 H   0  0  0  0  0  0  0  0  0  0  0  0
   -5.8244    0.2455   -0.5558 H   0  0  0  0  0  0  0  0  0  0  0  0
   -7.5649    0.9350    1.0762 H   0  0  0  0  0  0  0  0  0  0  0  0
   -7.8555   -0.6939    0.4901 H   0  0  0  0  0  0  0  0  0  0  0  0
   -7.5424   -1.6335    2.5636 H   0  0  0  0  0  0  0  0  0  0  0  0
   -7.9015   -0.0104    3.1170 H   0  0  0  0  0  0  0  0  0  0  0  0
   -5.9433   -0.5604    4.3070 H   0  0  0  0  0  0  0  0  0  0  0  0
   -5.2498   -1.4540    2.9675 H   0  0  0  0  0  0  0  0  0  0  0  0
   -5.5496    1.5711    3.1602 H   0  0  0  0  0  0  0  0  0  0  0  0
   -4.0441    0.6941    3.3308 H   0  0  0  0  0  0  0  0  0  0  0  0
  1  2  1  0
  2  3  1  0
  3  4  1  0
  4  5  1  0
  5  6  3  0
  2  7  1  0
  7  8  2  0
  7  9  1  0
  9 10  1  0
 10 11  1  0
 11 12  2  0
 11 13  1  0
 13 14  2  0
 14 15  1  0
 15 16  2  0
 16 17  1  0
 17 18  2  0
 17 19  1  0
 19 20  2  0
 19 21  1  0
 21 22  1  0
 22 23  1  0
 23 24  1  0
 24 25  1  0
 25 26  1  0
 26 27  1  0
 21 28  1  0
 28 29  2  0
 18 13  1  0
 27 22  1  0
 28 16  1  0
  1 30  1  0
  1 31  1  0
  1 32  1  0
  3 33  1  0
  3 34  1  0
  4 35  1  0
  4 36  1  0
  9 37  1  0
  9 38  1  0
 14 39  1  0
 15 40  1  0
 18 41  1  0
 22 42  1  0
 23 43  1  0
 23 44  1  0
 24 45  1  0
 24 46  1  0
 25 47  1  0
 25 48  1  0
 26 49  1  0
 26 50  1  0
 27 51  1  0
 27 52  1  0
M  END
$$$$
