
     RDKit          3D

 28 29  0  0  0  0  0  0  0  0999 V2000
    5.3377   -0.6056    0.6461 O   0  0  0  0  0  0  0  0  0  0  0  0
    4.2632   -1.0342    0.2682 C   0  0  0  0  0  0  0  0  0  0  0  0
    4.1789   -2.1693   -0.4482 O   0  0  0  0  0  0  0  0  0  0  0  0
    2.9408   -0.4175    0.5293 C   0  0  0  0  0  0  0  0  0  0  0  0
    2.8954    0.7535    1.2910 C   0  0  0  0  0  0  0  0  0  0  0  0
    1.6711    1.3652    1.5496 C   0  0  0  0  0  0  0  0  0  0  0  0
    0.4900    0.8080    1.0512 C   0  0  0  0  0  0  0  0  0  0  0  0
    0.5117   -0.3711    0.2960 C   0  0  0  0  0  0  0  0  0  0  0  0
   -0.6462   -0.9441   -0.2741 N   0  0  0  0  0  0  0  0  0  0  0  0
   -1.9495   -0.4195   -0.3638 C   0  0  0  0  0  0  0  0  0  0  0  0
   -2.9969   -1.1343    0.2318 C   0  0  0  0  0  0  0  0  0  0  0  0
   -4.2775   -0.5949    0.2353 C   0  0  0  0  0  0  0  0  0  0  0  0
   -4.5906    0.6019   -0.3059 N   0  0  0  0  0  0  0  0  0  0  0  0
   -3.5785    1.2897   -0.8831 C   0  0  0  0  0  0  0  0  0  0  0  0
   -2.2750    0.8185   -0.9286 C   0  0  0  0  0  0  0  0  0  0  0  0
   -1.3149    1.6140   -1.6509 N   0  0  0  0  0  4  0  0  0  0  0  0
   -0.7460    1.0915   -2.6186 O   0  0  0  0  0  0  0  0  0  0  0  0
   -1.1738    2.7890   -1.2817 O   0  0  0  0  0  1  0  0  0  0  0  0
    1.7523   -0.9703    0.0314 C   0  0  0  0  0  0  0  0  0  0  0  0
    5.1130   -2.4497   -0.5489 H   0  0  0  0  0  0  0  0  0  0  0  0
    3.8114    1.1951    1.6786 H   0  0  0  0  0  0  0  0  0  0  0  0
    1.6336    2.2799    2.1368 H   0  0  0  0  0  0  0  0  0  0  0  0
   -0.4463    1.3072    1.2858 H   0  0  0  0  0  0  0  0  0  0  0  0
   -0.6037   -1.9605   -0.2803 H   0  0  0  0  0  0  0  0  0  0  0  0
   -2.8224   -2.0922    0.7118 H   0  0  0  0  0  0  0  0  0  0  0  0
   -5.1068   -1.1261    0.6960 H   0  0  0  0  0  0  0  0  0  0  0  0
   -3.8640    2.2422   -1.3231 H   0  0  0  0  0  0  0  0  0  0  0  0
    1.7931   -1.8664   -0.5834 H   0  0  0  0  0  0  0  0  0  0  0  0
  1  2  2  0
  2  3  1  0
  2  4  1  0
  4  5  2  0
  5  6  1  0
  6  7  2  0
  7  8  1  0
  8  9  1  0
  9 10  1  0
 10 11  2  0
 11 12  1  0
 12 13  2  0
 13 14  1  0
 14 15  2  0
 15 16  1  0
 16 17  2  0
 16 18  1  0
  8 19  2  0
 19  4  1  0
 15 10  1  0
  3 20  1  0
  5 21  1  0
  6 22  1  0
  7 23  1  0
  9 24  1  0
 11 25  1  0
 12 26  1  0
 14 27  1  0
 19 28  1  0
M  CHG  2  16   1  18  -1
M  END
$$$$
