
     RDKit          3D

 49 52  0  0  0  0  0  0  0  0999 V2000
    3.7603    2.4795   -0.7519 O   0  0  0  0  0  0  0  0  0  0  0  0
    3.3347    1.8698    0.2275 C   0  0  0  0  0  0  0  0  0  0  0  0
    2.7204    2.6314    1.3909 C   0  0  0  0  0  0  0  0  0  0  0  0
    0.9325    2.8379    1.1225 S   0  0  0  0  0  0  0  0  0  0  0  0
    0.3587    1.2973    1.6525 C   0  0  0  0  0  0  0  0  0  0  0  0
    1.0490    0.4361    2.3586 N   0  0  0  0  0  0  0  0  0  0  0  0
    0.2300   -0.6268    2.6283 N   0  0  0  0  0  0  0  0  0  0  0  0
   -0.9387   -0.4153    2.0491 C   0  0  0  0  0  0  0  0  0  0  0  0
   -2.0928   -1.2964    2.1457 C   0  0  0  0  0  0  0  0  0  0  0  0
   -2.5426   -2.0200    1.0447 C   0  0  0  0  0  0  0  0  0  0  0  0
   -3.6522   -2.8311    1.2022 C   0  0  0  0  0  0  0  0  0  0  0  0
   -4.3246   -2.9672    2.3643 N   0  0  0  0  0  0  0  0  0  0  0  0
   -3.8506   -2.2804    3.4238 C   0  0  0  0  0  0  0  0  0  0  0  0
   -2.7499   -1.4443    3.3668 C   0  0  0  0  0  0  0  0  0  0  0  0
   -0.8947    0.8060    1.4069 N   0  0  0  0  0  0  0  0  0  0  0  0
   -1.9849    1.4807    0.7271 C   0  0  0  0  0  0  0  0  0  0  0  0
   -1.8507    1.4553   -0.7956 C   0  0  0  0  0  0  0  0  0  0  0  0
   -2.8141    2.4115   -1.4800 C   0  0  0  0  0  0  0  0  0  0  0  0
   -2.9172    1.8084   -2.8576 C   0  0  0  0  0  0  0  0  0  0  0  0
   -2.8773    0.3245   -2.5623 C   0  0  0  0  0  0  0  0  0  0  0  0
   -2.1805    0.1560   -1.3155 O   0  0  0  0  0  0  0  0  0  0  0  0
    3.3421    0.4961    0.3974 N   0  0  0  0  0  0  0  0  0  0  0  0
    3.8343   -0.4863   -0.4980 C   0  0  0  0  0  0  0  0  0  0  0  0
    4.4477   -0.1740   -1.7164 C   0  0  0  0  0  0  0  0  0  0  0  0
    4.9053   -1.1851   -2.5717 C   0  0  0  0  0  0  0  0  0  0  0  0
    4.7603   -2.5247   -2.2209 C   0  0  0  0  0  0  0  0  0  0  0  0
    4.1622   -2.8565   -1.0075 C   0  0  0  0  0  0  0  0  0  0  0  0
    3.7064   -1.8454   -0.1524 C   0  0  0  0  0  0  0  0  0  0  0  0
    2.9997   -2.3295    1.3475 Cl  0  0  0  0  0  0  0  0  0  0  0  0
    2.9456    2.1474    2.3465 H   0  0  0  0  0  0  0  0  0  0  0  0
    3.1821    3.6245    1.4255 H   0  0  0  0  0  0  0  0  0  0  0  0
   -2.0390   -1.9673    0.0865 H   0  0  0  0  0  0  0  0  0  0  0  0
   -4.0383   -3.4147    0.3725 H   0  0  0  0  0  0  0  0  0  0  0  0
   -4.3961   -2.4256    4.3511 H   0  0  0  0  0  0  0  0  0  0  0  0
   -2.4096   -0.9235    4.2561 H   0  0  0  0  0  0  0  0  0  0  0  0
   -2.0059    2.5110    1.1026 H   0  0  0  0  0  0  0  0  0  0  0  0
   -2.9241    1.0092    1.0394 H   0  0  0  0  0  0  0  0  0  0  0  0
   -0.8254    1.6725   -1.1137 H   0  0  0  0  0  0  0  0  0  0  0  0
   -2.4560    3.4445   -1.4851 H   0  0  0  0  0  0  0  0  0  0  0  0
   -3.7993    2.3879   -0.9962 H   0  0  0  0  0  0  0  0  0  0  0  0
   -2.0459    2.0937   -3.4586 H   0  0  0  0  0  0  0  0  0  0  0  0
   -3.8158    2.1105   -3.4023 H   0  0  0  0  0  0  0  0  0  0  0  0
   -3.8850   -0.0867   -2.4390 H   0  0  0  0  0  0  0  0  0  0  0  0
   -2.3652   -0.2394   -3.3468 H   0  0  0  0  0  0  0  0  0  0  0  0
    2.8642    0.1214    1.2201 H   0  0  0  0  0  0  0  0  0  0  0  0
    4.5905    0.8524   -2.0376 H   0  0  0  0  0  0  0  0  0  0  0  0
    5.3786   -0.9173   -3.5156 H   0  0  0  0  0  0  0  0  0  0  0  0
    5.1133   -3.3060   -2.8894 H   0  0  0  0  0  0  0  0  0  0  0  0
    4.0585   -3.9020   -0.7265 H   0  0  0  0  0  0  0  0  0  0  0  0
  1  2  2  0
  2  3  1  0
  3  4  1  0
  4  5  1  0
  5  6  2  0
  6  7  1  0
  7  8  2  0
  8  9  1  0
  9 10  2  0
 10 11  1  0
 11 12  2  0
 12 13  1  0
 13 14  2  0
  8 15  1  0
 15 16  1  0
 16 17  1  0
 17 18  1  0
 18 19  1  0
 19 20  1  0
 20 21  1  0
  2 22  1  0
 22 23  1  0
 23 24  2  0
 24 25  1  0
 25 26  2  0
 26 27  1  0
 27 28  2  0
 28 29  1  0
 15  5  1  0
 21 17  1  0
 28 23  1  0
 14  9  1  0
  3 30  1  0
  3 31  1  0
 10 32  1  0
 11 33  1  0
 13 34  1  0
 14 35  1  0
 16 36  1  0
 16 37  1  0
 17 38  1  0
 18 39  1  0
 18 40  1  0
 19 41  1  0
 19 42  1  0
 20 43  1  0
 20 44  1  0
 22 45  1  0
 24 46  1  0
 25 47  1  0
 26 48  1  0
 27 49  1  0
M  END
$$$$
