
     RDKit          3D

 46 48  0  0  0  0  0  0  0  0999 V2000
    2.6294    0.5577   -2.7653 C   0  0  0  0  0  0  0  0  0  0  0  0
    2.8410    0.9959   -1.3285 C   0  0  0  0  0  0  0  0  0  0  0  0
    3.0801   -0.1467   -0.4878 O   0  0  0  0  0  0  0  0  0  0  0  0
    4.3700   -0.5712   -0.4157 C   0  0  0  0  0  0  0  0  0  0  0  0
    5.3041   -0.0741   -1.0266 O   0  0  0  0  0  0  0  0  0  0  0  0
    4.5256   -1.7392    0.5088 C   0  0  0  0  0  0  0  0  0  0  0  0
    5.8073   -2.3251    0.5197 C   0  0  0  0  0  0  0  0  0  0  0  0
    6.0961   -3.4059    1.3520 C   0  0  0  0  0  0  0  0  0  0  0  0
    5.1093   -3.9111    2.1870 C   0  0  0  0  0  0  0  0  0  0  0  0
    3.8320   -3.3436    2.1886 C   0  0  0  0  0  0  0  0  0  0  0  0
    3.5146   -2.2598    1.3552 C   0  0  0  0  0  0  0  0  0  0  0  0
    2.2208   -1.6874    1.3524 N   0  0  0  0  0  0  0  0  0  0  0  0
    1.0881   -2.0726    2.0523 C   0  0  0  0  0  0  0  0  0  0  0  0
    0.9952   -3.0089    2.8405 O   0  0  0  0  0  0  0  0  0  0  0  0
   -0.1094   -1.1891    1.7373 C   0  0  0  0  0  0  0  0  0  0  0  0
   -0.8392   -1.7281    0.1540 S   0  0  0  0  0  0  0  0  0  0  0  0
   -2.1001   -0.4924   -0.0219 C   0  0  0  0  0  0  0  0  0  0  0  0
   -3.2843   -0.7936   -0.6698 C   0  0  0  0  0  0  0  0  0  0  0  0
   -4.2462    0.2059   -0.8190 C   0  0  0  0  0  0  0  0  0  0  0  0
   -3.9903    1.4788   -0.3255 C   0  0  0  0  0  0  0  0  0  0  0  0
   -4.9290    2.6019   -0.4354 C   0  0  0  0  0  0  0  0  0  0  0  0
   -6.3222    2.4375   -0.4041 C   0  0  0  0  0  0  0  0  0  0  0  0
   -7.1697    3.5399   -0.5198 C   0  0  0  0  0  0  0  0  0  0  0  0
   -6.6045    4.7910   -0.6691 C   0  0  0  0  0  0  0  0  0  0  0  0
   -5.2749    5.0058   -0.7005 N   0  0  0  0  0  0  0  0  0  0  0  0
   -4.4765    3.9155   -0.5751 C   0  0  0  0  0  0  0  0  0  0  0  0
   -2.8099    1.7396    0.2842 N   0  0  0  0  0  0  0  0  0  0  0  0
   -1.8633    0.7502    0.4383 N   0  0  0  0  0  0  0  0  0  0  0  0
    3.5262    0.0691   -3.1614 H   0  0  0  0  0  0  0  0  0  0  0  0
    1.8141   -0.1690   -2.8337 H   0  0  0  0  0  0  0  0  0  0  0  0
    2.3908    1.4166   -3.4003 H   0  0  0  0  0  0  0  0  0  0  0  0
    3.6552    1.7266   -1.2461 H   0  0  0  0  0  0  0  0  0  0  0  0
    1.9340    1.4808   -0.9560 H   0  0  0  0  0  0  0  0  0  0  0  0
    6.5933   -1.9382   -0.1297 H   0  0  0  0  0  0  0  0  0  0  0  0
    7.0882   -3.8481    1.3505 H   0  0  0  0  0  0  0  0  0  0  0  0
    5.3258   -4.7525    2.8437 H   0  0  0  0  0  0  0  0  0  0  0  0
    3.1008   -3.7796    2.8636 H   0  0  0  0  0  0  0  0  0  0  0  0
    2.0916   -0.9331    0.6791 H   0  0  0  0  0  0  0  0  0  0  0  0
   -0.8454   -1.2839    2.5454 H   0  0  0  0  0  0  0  0  0  0  0  0
    0.2204   -0.1466    1.6914 H   0  0  0  0  0  0  0  0  0  0  0  0
   -3.4692   -1.7898   -1.0657 H   0  0  0  0  0  0  0  0  0  0  0  0
   -5.1714   -0.0203   -1.3382 H   0  0  0  0  0  0  0  0  0  0  0  0
   -6.7673    1.4541   -0.2701 H   0  0  0  0  0  0  0  0  0  0  0  0
   -8.2476    3.4215   -0.4918 H   0  0  0  0  0  0  0  0  0  0  0  0
   -7.2216    5.6798   -0.7648 H   0  0  0  0  0  0  0  0  0  0  0  0
   -3.4124    4.1420   -0.6001 H   0  0  0  0  0  0  0  0  0  0  0  0
  1  2  1  0
  2  3  1  0
  3  4  1  0
  4  5  2  0
  4  6  1  0
  6  7  2  0
  7  8  1  0
  8  9  2  0
  9 10  1  0
 10 11  2  0
 11 12  1  0
 12 13  1  0
 13 14  2  0
 13 15  1  0
 15 16  1  0
 16 17  1  0
 17 18  2  0
 18 19  1  0
 19 20  2  0
 20 21  1  0
 21 22  2  0
 22 23  1  0
 23 24  2  0
 24 25  1  0
 25 26  2  0
 20 27  1  0
 27 28  2  0
 11  6  1  0
 28 17  1  0
 26 21  1  0
  1 29  1  0
  1 30  1  0
  1 31  1  0
  2 32  1  0
  2 33  1  0
  7 34  1  0
  8 35  1  0
  9 36  1  0
 10 37  1  0
 12 38  1  0
 15 39  1  0
 15 40  1  0
 18 41  1  0
 19 42  1  0
 22 43  1  0
 23 44  1  0
 24 45  1  0
 26 46  1  0
M  END
$$$$
