
     RDKit          3D

 46 46  0  0  0  0  0  0  0  0999 V2000
   -1.2223    1.5470    1.3472 O   0  0  0  0  0  0  0  0  0  0  0  0
   -1.4501    0.5352    0.6942 C   0  0  0  0  0  0  0  0  0  0  0  0
   -0.3780   -0.2492   -0.0284 C   0  0  0  0  0  0  0  0  0  0  0  0
    0.9878    0.3985    0.1288 C   0  0  0  0  0  0  0  0  0  0  0  0
    2.0068   -0.3680   -0.6627 C   0  0  0  0  0  0  0  0  0  0  0  0
    2.3098   -0.1095   -1.8186 O   0  0  0  0  0  0  0  0  0  0  0  0
    2.5079   -1.3977    0.0763 O   0  0  0  0  0  0  0  0  0  0  0  0
    3.4527   -2.2591   -0.5777 C   0  0  0  0  0  0  0  0  0  0  0  0
    4.8667   -1.9759   -0.0787 C   0  0  0  0  0  0  0  0  0  0  0  0
    5.3640   -0.5743   -0.4564 C   0  0  0  0  0  0  0  0  0  0  0  0
    6.8145   -0.3640   -0.0343 C   0  0  0  0  0  0  0  0  0  0  0  0
    6.9227   -0.6127    1.3031 F   0  0  0  0  0  0  0  0  0  0  0  0
    7.5880   -1.2992   -0.6568 F   0  0  0  0  0  0  0  0  0  0  0  0
    7.3125    1.0479   -0.3569 C   0  0  0  0  0  0  0  0  0  0  0  0
    7.2343    1.3138   -1.6847 F   0  0  0  0  0  0  0  0  0  0  0  0
    6.5754    1.9936    0.2777 F   0  0  0  0  0  0  0  0  0  0  0  0
    8.6015    1.2324    0.0136 F   0  0  0  0  0  0  0  0  0  0  0  0
   -2.7068   -0.0174    0.5468 N   0  0  0  0  0  0  0  0  0  0  0  0
   -3.8994    0.6471    1.0637 C   0  0  0  0  0  0  0  0  0  0  0  0
   -4.3784    1.7494    0.0997 C   0  0  0  0  0  0  0  0  0  0  0  0
   -5.4077    1.2227   -0.8956 C   0  0  0  0  0  0  0  0  0  0  0  0
   -6.6553    0.6812   -0.1945 C   0  0  0  0  0  0  0  0  0  0  0  0
   -6.3885    0.1804    1.2267 C   0  0  0  0  0  0  0  0  0  0  0  0
   -4.9866   -0.3997    1.3628 C   0  0  0  0  0  0  0  0  0  0  0  0
   -0.3633   -1.2707    0.3723 H   0  0  0  0  0  0  0  0  0  0  0  0
   -0.6468   -0.3102   -1.0910 H   0  0  0  0  0  0  0  0  0  0  0  0
    1.2985    0.4461    1.1797 H   0  0  0  0  0  0  0  0  0  0  0  0
    0.9832    1.4330   -0.2363 H   0  0  0  0  0  0  0  0  0  0  0  0
    3.1771   -3.2849   -0.3087 H   0  0  0  0  0  0  0  0  0  0  0  0
    3.3963   -2.1930   -1.6703 H   0  0  0  0  0  0  0  0  0  0  0  0
    4.8874   -2.0743    1.0149 H   0  0  0  0  0  0  0  0  0  0  0  0
    5.5423   -2.7336   -0.4923 H   0  0  0  0  0  0  0  0  0  0  0  0
    4.7351    0.1784    0.0325 H   0  0  0  0  0  0  0  0  0  0  0  0
    5.2757   -0.4421   -1.5419 H   0  0  0  0  0  0  0  0  0  0  0  0
   -2.8344   -0.7174   -0.1746 H   0  0  0  0  0  0  0  0  0  0  0  0
   -3.6152    1.1356    2.0054 H   0  0  0  0  0  0  0  0  0  0  0  0
   -4.8409    2.5568    0.6820 H   0  0  0  0  0  0  0  0  0  0  0  0
   -3.5360    2.1992   -0.4382 H   0  0  0  0  0  0  0  0  0  0  0  0
   -4.9532    0.4248   -1.4967 H   0  0  0  0  0  0  0  0  0  0  0  0
   -5.6962    2.0147   -1.5970 H   0  0  0  0  0  0  0  0  0  0  0  0
   -7.0743   -0.1307   -0.8011 H   0  0  0  0  0  0  0  0  0  0  0  0
   -7.4267    1.4604   -0.1536 H   0  0  0  0  0  0  0  0  0  0  0  0
   -7.1394   -0.5708    1.4979 H   0  0  0  0  0  0  0  0  0  0  0  0
   -6.5065    1.0104    1.9350 H   0  0  0  0  0  0  0  0  0  0  0  0
   -4.8393   -0.7937    2.3756 H   0  0  0  0  0  0  0  0  0  0  0  0
   -4.8949   -1.2604    0.6873 H   0  0  0  0  0  0  0  0  0  0  0  0
  1  2  2  0
  2  3  1  0
  3  4  1  0
  4  5  1  0
  5  6  2  0
  5  7  1  0
  7  8  1  0
  8  9  1  0
  9 10  1  0
 10 11  1  0
 11 12  1  0
 11 13  1  0
 11 14  1  0
 14 15  1  0
 14 16  1  0
 14 17  1  0
  2 18  1  0
 18 19  1  0
 19 20  1  0
 20 21  1  0
 21 22  1  0
 22 23  1  0
 23 24  1  0
 24 19  1  0
  3 25  1  0
  3 26  1  0
  4 27  1  0
  4 28  1  0
  8 29  1  0
  8 30  1  0
  9 31  1  0
  9 32  1  0
 10 33  1  0
 10 34  1  0
 18 35  1  0
 19 36  1  0
 20 37  1  0
 20 38  1  0
 21 39  1  0
 21 40  1  0
 22 41  1  0
 22 42  1  0
 23 43  1  0
 23 44  1  0
 24 45  1  0
 24 46  1  0
M  END
$$$$
