
     RDKit          3D

 46 49  0  0  0  0  0  0  0  0999 V2000
    7.6367    1.0418   -2.4614 O   0  0  0  0  0  0  0  0  0  0  0  0
    7.2389    1.0125   -1.2877 N   0  0  0  0  0  4  0  0  0  0  0  0
    7.7402    1.6640   -0.3602 O   0  0  0  0  0  1  0  0  0  0  0  0
    6.0964    0.1453   -0.9753 C   0  0  0  0  0  0  0  0  0  0  0  0
    5.6184    0.0731    0.3382 C   0  0  0  0  0  0  0  0  0  0  0  0
    4.5305   -0.7537    0.6290 C   0  0  0  0  0  0  0  0  0  0  0  0
    3.9069   -1.5018   -0.3826 C   0  0  0  0  0  0  0  0  0  0  0  0
    2.7433   -2.4185   -0.0672 C   0  0  0  0  0  0  0  0  0  0  0  0
    1.8805   -1.8961    0.9465 O   0  0  0  0  0  0  0  0  0  0  0  0
    0.9042   -1.0099    0.5856 C   0  0  0  0  0  0  0  0  0  0  0  0
    0.0370   -0.6523    1.6218 C   0  0  0  0  0  0  0  0  0  0  0  0
   -1.0024    0.2573    1.4054 C   0  0  0  0  0  0  0  0  0  0  0  0
   -1.1919    0.8252    0.1420 C   0  0  0  0  0  0  0  0  0  0  0  0
   -2.2503    1.8101   -0.0572 C   0  0  0  0  0  0  0  0  0  0  0  0
   -1.9648    3.1024   -0.4304 N   0  0  0  0  0  0  0  0  0  0  0  0
   -3.0470    3.8825   -0.5722 N   0  0  0  0  0  0  0  0  0  0  0  0
   -4.0550    3.0833   -0.2203 C   0  0  0  0  0  0  0  0  0  0  0  0
   -3.6264    1.7764    0.1117 C   0  0  0  0  0  0  0  0  0  0  0  0
   -4.4119    0.6346    0.5442 C   0  0  0  0  0  0  0  0  0  0  0  0
   -5.3862    0.7984    1.5389 C   0  0  0  0  0  0  0  0  0  0  0  0
   -6.1547   -0.2894    1.9642 C   0  0  0  0  0  0  0  0  0  0  0  0
   -5.9548   -1.5439    1.3928 C   0  0  0  0  0  0  0  0  0  0  0  0
   -6.8989   -2.8827    1.9170 Cl  0  0  0  0  0  0  0  0  0  0  0  0
   -4.9956   -1.7200    0.3984 C   0  0  0  0  0  0  0  0  0  0  0  0
   -4.2275   -0.6320   -0.0272 C   0  0  0  0  0  0  0  0  0  0  0  0
   -0.3268    0.4477   -0.8946 C   0  0  0  0  0  0  0  0  0  0  0  0
   -0.4648    0.9201   -2.1737 O   0  0  0  0  0  0  0  0  0  0  0  0
    0.7206   -0.4498   -0.6768 C   0  0  0  0  0  0  0  0  0  0  0  0
    4.4088   -1.4304   -1.6918 C   0  0  0  0  0  0  0  0  0  0  0  0
    5.4966   -0.6065   -1.9932 C   0  0  0  0  0  0  0  0  0  0  0  0
    6.0760    0.6477    1.1408 H   0  0  0  0  0  0  0  0  0  0  0  0
    4.1633   -0.8079    1.6533 H   0  0  0  0  0  0  0  0  0  0  0  0
    2.1753   -2.6989   -0.9628 H   0  0  0  0  0  0  0  0  0  0  0  0
    3.1619   -3.3520    0.3283 H   0  0  0  0  0  0  0  0  0  0  0  0
    0.1742   -1.0823    2.6116 H   0  0  0  0  0  0  0  0  0  0  0  0
   -1.6529    0.5243    2.2356 H   0  0  0  0  0  0  0  0  0  0  0  0
   -1.0499    3.5055   -0.6085 H   0  0  0  0  0  0  0  0  0  0  0  0
   -5.0630    3.4791   -0.2273 H   0  0  0  0  0  0  0  0  0  0  0  0
   -5.5486    1.7697    2.0019 H   0  0  0  0  0  0  0  0  0  0  0  0
   -6.9029   -0.1504    2.7402 H   0  0  0  0  0  0  0  0  0  0  0  0
   -4.8405   -2.6972   -0.0510 H   0  0  0  0  0  0  0  0  0  0  0  0
   -3.4909   -0.7869   -0.8120 H   0  0  0  0  0  0  0  0  0  0  0  0
   -1.3823    1.2252   -2.2926 H   0  0  0  0  0  0  0  0  0  0  0  0
    1.3668   -0.6856   -1.5143 H   0  0  0  0  0  0  0  0  0  0  0  0
    3.9519   -2.0142   -2.4893 H   0  0  0  0  0  0  0  0  0  0  0  0
    5.8613   -0.5635   -3.0176 H   0  0  0  0  0  0  0  0  0  0  0  0
  1  2  2  0
  2  3  1  0
  2  4  1  0
  4  5  2  0
  5  6  1  0
  6  7  2  0
  7  8  1  0
  8  9  1  0
  9 10  1  0
 10 11  2  0
 11 12  1  0
 12 13  2  0
 13 14  1  0
 14 15  1  0
 15 16  1  0
 16 17  2  0
 17 18  1  0
 18 19  1  0
 19 20  2  0
 20 21  1  0
 21 22  2  0
 22 23  1  0
 22 24  1  0
 24 25  2  0
 13 26  1  0
 26 27  1  0
 26 28  2  0
  7 29  1  0
 29 30  2  0
 30  4  1  0
 28 10  1  0
 18 14  2  0
 25 19  1  0
  5 31  1  0
  6 32  1  0
  8 33  1  0
  8 34  1  0
 11 35  1  0
 12 36  1  0
 15 37  1  0
 17 38  1  0
 20 39  1  0
 21 40  1  0
 24 41  1  0
 25 42  1  0
 27 43  1  0
 28 44  1  0
 29 45  1  0
 30 46  1  0
M  CHG  2   2   1   3  -1
M  END
$$$$
