
     RDKit          3D

 46 48  0  0  0  0  0  0  0  0999 V2000
   -1.5915   -1.8000   -2.6594 N   0  0  0  0  0  0  0  0  0  0  0  0
   -0.5598   -1.6513   -1.8095 C   0  0  0  0  0  0  0  0  0  0  0  0
    0.2630   -2.6145   -1.5210 N   0  0  0  0  0  0  0  0  0  0  0  0
    1.1977   -2.0079   -0.5284 C   0  0  0  0  0  0  0  0  0  0  0  0
    0.8726   -0.4979   -0.4537 C   0  0  0  0  0  0  0  0  0  0  0  0
    1.9687    0.3783   -1.0805 C   0  0  0  0  0  0  0  0  0  0  0  0
    3.2047    0.4888   -0.2178 C   0  0  0  0  0  0  0  0  0  0  0  0
    4.3793   -0.1953   -0.5625 C   0  0  0  0  0  0  0  0  0  0  0  0
    5.5178   -0.1017    0.2415 C   0  0  0  0  0  0  0  0  0  0  0  0
    5.4812    0.6800    1.3910 C   0  0  0  0  0  0  0  0  0  0  0  0
    6.5686    0.7991    2.2046 O   0  0  0  0  0  0  0  0  0  0  0  0
    4.3282    1.3682    1.7468 C   0  0  0  0  0  0  0  0  0  0  0  0
    3.1907    1.2744    0.9440 C   0  0  0  0  0  0  0  0  0  0  0  0
   -0.3458   -0.4322   -1.2568 N   0  0  0  0  0  0  0  0  0  0  0  0
   -1.3359    0.6035   -1.0119 C   0  0  0  0  0  0  0  0  0  0  0  0
   -2.1131    0.4208    0.3083 C   0  0  0  0  0  0  0  0  0  0  0  0
   -3.0114   -0.8273    0.3031 C   0  0  0  0  0  0  0  0  0  0  0  0
   -3.8445   -0.9409    1.5788 C   0  0  0  0  0  0  0  0  0  0  0  0
   -4.6636    0.3181    1.8357 C   0  0  0  0  0  0  0  0  0  0  0  0
   -3.7797    1.5591    1.8580 C   0  0  0  0  0  0  0  0  0  0  0  0
   -2.9551    1.6819    0.5798 C   0  0  0  0  0  0  0  0  0  0  0  0
   -1.5284   -2.6981   -3.1271 H   0  0  0  0  0  0  0  0  0  0  0  0
   -1.6575   -1.0457   -3.3287 H   0  0  0  0  0  0  0  0  0  0  0  0
    1.0259   -2.4834    0.4441 H   0  0  0  0  0  0  0  0  0  0  0  0
    2.2293   -2.2130   -0.8279 H   0  0  0  0  0  0  0  0  0  0  0  0
    0.6914   -0.2129    0.5882 H   0  0  0  0  0  0  0  0  0  0  0  0
    1.5874    1.3939   -1.2504 H   0  0  0  0  0  0  0  0  0  0  0  0
    2.2356    0.0024   -2.0773 H   0  0  0  0  0  0  0  0  0  0  0  0
    4.4150   -0.8090   -1.4606 H   0  0  0  0  0  0  0  0  0  0  0  0
    6.4147   -0.6417   -0.0445 H   0  0  0  0  0  0  0  0  0  0  0  0
    7.2913    0.2669    1.8337 H   0  0  0  0  0  0  0  0  0  0  0  0
    4.3158    1.9773    2.6462 H   0  0  0  0  0  0  0  0  0  0  0  0
    2.2960    1.8222    1.2312 H   0  0  0  0  0  0  0  0  0  0  0  0
   -0.8170    1.5699   -0.9868 H   0  0  0  0  0  0  0  0  0  0  0  0
   -2.0364    0.6711   -1.8531 H   0  0  0  0  0  0  0  0  0  0  0  0
   -1.3987    0.3173    1.1349 H   0  0  0  0  0  0  0  0  0  0  0  0
   -2.4040   -1.7338    0.2128 H   0  0  0  0  0  0  0  0  0  0  0  0
   -3.6824   -0.7994   -0.5646 H   0  0  0  0  0  0  0  0  0  0  0  0
   -4.5129   -1.8062    1.5049 H   0  0  0  0  0  0  0  0  0  0  0  0
   -3.1794   -1.1240    2.4318 H   0  0  0  0  0  0  0  0  0  0  0  0
   -5.4257    0.4249    1.0539 H   0  0  0  0  0  0  0  0  0  0  0  0
   -5.1947    0.2253    2.7896 H   0  0  0  0  0  0  0  0  0  0  0  0
   -3.1074    1.5151    2.7237 H   0  0  0  0  0  0  0  0  0  0  0  0
   -4.4020    2.4525    1.9820 H   0  0  0  0  0  0  0  0  0  0  0  0
   -3.6288    1.8679   -0.2667 H   0  0  0  0  0  0  0  0  0  0  0  0
   -2.2994    2.5572    0.6615 H   0  0  0  0  0  0  0  0  0  0  0  0
  1  2  1  0
  2  3  2  0
  3  4  1  0
  4  5  1  0
  5  6  1  0
  6  7  1  0
  7  8  2  0
  8  9  1  0
  9 10  2  0
 10 11  1  0
 10 12  1  0
 12 13  2  0
  5 14  1  0
 14 15  1  0
 15 16  1  0
 16 17  1  0
 17 18  1  0
 18 19  1  0
 19 20  1  0
 20 21  1  0
 14  2  1  0
 21 16  1  0
 13  7  1  0
  1 22  1  0
  1 23  1  0
  4 24  1  0
  4 25  1  0
  5 26  1  0
  6 27  1  0
  6 28  1  0
  8 29  1  0
  9 30  1  0
 11 31  1  0
 12 32  1  0
 13 33  1  0
 15 34  1  0
 15 35  1  0
 16 36  1  0
 17 37  1  0
 17 38  1  0
 18 39  1  0
 18 40  1  0
 19 41  1  0
 19 42  1  0
 20 43  1  0
 20 44  1  0
 21 45  1  0
 21 46  1  0
M  END
$$$$
