
     RDKit          3D

 63 67  0  0  0  0  0  0  0  0999 V2000
   -3.3272   -5.6603   -1.8958 C   0  0  0  0  0  0  0  0  0  0  0  0
   -3.5090   -4.2508   -1.8487 O   0  0  0  0  0  0  0  0  0  0  0  0
   -3.2807   -3.6373   -0.6472 C   0  0  0  0  0  0  0  0  0  0  0  0
   -2.8568   -4.2635    0.5250 C   0  0  0  0  0  0  0  0  0  0  0  0
   -2.6550   -3.5139    1.6866 C   0  0  0  0  0  0  0  0  0  0  0  0
   -2.8765   -2.1365    1.6812 C   0  0  0  0  0  0  0  0  0  0  0  0
   -3.3037   -1.4936    0.5137 C   0  0  0  0  0  0  0  0  0  0  0  0
   -3.5170   -0.0410    0.5038 C   0  0  0  0  0  0  0  0  0  0  0  0
   -5.1023    0.5458    0.2377 S   0  0  0  0  0  0  0  0  0  0  0  0
   -4.6193    2.1860    0.3862 C   0  0  0  0  0  0  0  0  0  0  0  0
   -5.4441    3.3222    0.2776 C   0  0  0  0  0  0  0  0  0  0  0  0
   -4.8799    4.5948    0.4216 C   0  0  0  0  0  0  0  0  0  0  0  0
   -3.5216    4.7422    0.6659 C   0  0  0  0  0  0  0  0  0  0  0  0
   -2.8555    5.9271    0.8217 O   0  0  0  0  0  0  0  0  0  0  0  0
   -3.6221    7.1188    0.7024 C   0  0  0  0  0  0  0  0  0  0  0  0
   -2.7133    3.6040    0.7724 C   0  0  0  0  0  0  0  0  0  0  0  0
   -3.2519    2.2968    0.6386 C   0  0  0  0  0  0  0  0  0  0  0  0
   -2.6194    0.9965    0.7101 C   0  0  0  0  0  0  0  0  0  0  0  0
   -1.2029    0.7497    0.9655 C   0  0  0  0  0  0  0  0  0  0  0  0
   -0.3879    0.1889   -0.0234 C   0  0  0  0  0  0  0  0  0  0  0  0
    0.9684   -0.0512    0.2264 C   0  0  0  0  0  0  0  0  0  0  0  0
    1.5217    0.2700    1.4658 C   0  0  0  0  0  0  0  0  0  0  0  0
    2.8233    0.0954    1.8436 O   0  0  0  0  0  0  0  0  0  0  0  0
    3.7090   -0.5967    0.9575 C   0  0  0  0  0  0  0  0  0  0  0  0
    4.3755    0.3861   -0.0236 C   0  0  0  0  0  0  0  0  0  0  0  0
    5.3188   -0.1571   -1.0119 N   0  0  0  0  0  0  0  0  0  0  0  0
    6.4850   -0.8221   -0.4037 C   0  0  0  0  0  0  0  0  0  0  0  0
    7.4626   -1.3099   -1.4862 C   0  0  0  0  0  0  0  0  0  0  0  0
    6.8146   -2.2048   -2.4019 O   0  0  0  0  0  0  0  0  0  0  0  0
    5.7049   -1.5465   -3.0293 C   0  0  0  0  0  0  0  0  0  0  0  0
    4.6842   -1.0639   -1.9848 C   0  0  0  0  0  0  0  0  0  0  0  0
    0.7077    0.8419    2.4477 C   0  0  0  0  0  0  0  0  0  0  0  0
   -0.6469    1.0813    2.2038 C   0  0  0  0  0  0  0  0  0  0  0  0
   -3.5013   -2.2562   -0.6463 C   0  0  0  0  0  0  0  0  0  0  0  0
   -4.0147   -6.1705   -1.2130 H   0  0  0  0  0  0  0  0  0  0  0  0
   -2.2870   -5.9309   -1.6862 H   0  0  0  0  0  0  0  0  0  0  0  0
   -3.5591   -5.9935   -2.9121 H   0  0  0  0  0  0  0  0  0  0  0  0
   -2.6723   -5.3314    0.5698 H   0  0  0  0  0  0  0  0  0  0  0  0
   -2.3224   -4.0037    2.5983 H   0  0  0  0  0  0  0  0  0  0  0  0
   -2.7135   -1.5673    2.5938 H   0  0  0  0  0  0  0  0  0  0  0  0
   -6.5077    3.2142    0.0828 H   0  0  0  0  0  0  0  0  0  0  0  0
   -5.5410    5.4508    0.3335 H   0  0  0  0  0  0  0  0  0  0  0  0
   -4.3893    7.1740    1.4819 H   0  0  0  0  0  0  0  0  0  0  0  0
   -2.9451    7.9671    0.8414 H   0  0  0  0  0  0  0  0  0  0  0  0
   -4.0644    7.2058   -0.2955 H   0  0  0  0  0  0  0  0  0  0  0  0
   -1.6487    3.7293    0.9581 H   0  0  0  0  0  0  0  0  0  0  0  0
   -0.8020   -0.0660   -0.9967 H   0  0  0  0  0  0  0  0  0  0  0  0
    1.5578   -0.4824   -0.5749 H   0  0  0  0  0  0  0  0  0  0  0  0
    4.4787   -1.0408    1.5984 H   0  0  0  0  0  0  0  0  0  0  0  0
    3.2104   -1.4369    0.4634 H   0  0  0  0  0  0  0  0  0  0  0  0
    4.8932    1.1560    0.5646 H   0  0  0  0  0  0  0  0  0  0  0  0
    3.6014    0.9491   -0.5598 H   0  0  0  0  0  0  0  0  0  0  0  0
    6.1646   -1.6882    0.1879 H   0  0  0  0  0  0  0  0  0  0  0  0
    7.0107   -0.1282    0.2617 H   0  0  0  0  0  0  0  0  0  0  0  0
    8.2887   -1.8562   -1.0200 H   0  0  0  0  0  0  0  0  0  0  0  0
    7.8919   -0.4690   -2.0443 H   0  0  0  0  0  0  0  0  0  0  0  0
    6.0756   -0.7135   -3.6390 H   0  0  0  0  0  0  0  0  0  0  0  0
    5.2317   -2.2674   -3.7037 H   0  0  0  0  0  0  0  0  0  0  0  0
    3.8656   -0.5503   -2.5014 H   0  0  0  0  0  0  0  0  0  0  0  0
    4.2688   -1.9413   -1.4750 H   0  0  0  0  0  0  0  0  0  0  0  0
    1.1323    1.1018    3.4145 H   0  0  0  0  0  0  0  0  0  0  0  0
   -1.2603    1.5220    2.9861 H   0  0  0  0  0  0  0  0  0  0  0  0
   -3.8253   -1.7748   -1.5665 H   0  0  0  0  0  0  0  0  0  0  0  0
  1  2  1  0
  2  3  1  0
  3  4  2  0
  4  5  1  0
  5  6  2  0
  6  7  1  0
  7  8  1  0
  8  9  1  0
  9 10  1  0
 10 11  2  0
 11 12  1  0
 12 13  2  0
 13 14  1  0
 14 15  1  0
 13 16  1  0
 16 17  2  0
 17 18  1  0
 18 19  1  0
 19 20  2  0
 20 21  1  0
 21 22  2  0
 22 23  1  0
 23 24  1  0
 24 25  1  0
 25 26  1  0
 26 27  1  0
 27 28  1  0
 28 29  1  0
 29 30  1  0
 30 31  1  0
 22 32  1  0
 32 33  2  0
  7 34  2  0
 34  3  1  0
 18  8  2  0
 33 19  1  0
 17 10  1  0
 31 26  1  0
  1 35  1  0
  1 36  1  0
  1 37  1  0
  4 38  1  0
  5 39  1  0
  6 40  1  0
 11 41  1  0
 12 42  1  0
 15 43  1  0
 15 44  1  0
 15 45  1  0
 16 46  1  0
 20 47  1  0
 21 48  1  0
 24 49  1  0
 24 50  1  0
 25 51  1  0
 25 52  1  0
 27 53  1  0
 27 54  1  0
 28 55  1  0
 28 56  1  0
 30 57  1  0
 30 58  1  0
 31 59  1  0
 31 60  1  0
 32 61  1  0
 33 62  1  0
 34 63  1  0
M  END
$$$$
