
     RDKit          3D

 56 59  0  0  0  0  0  0  0  0999 V2000
    3.3338    0.9868   -4.5144 C   0  0  0  0  0  0  0  0  0  0  0  0
    2.7826    0.5933   -3.1560 C   0  0  0  0  0  0  0  0  0  0  0  0
    3.8232    0.7861   -2.1878 O   0  0  0  0  0  0  0  0  0  0  0  0
    3.5156    0.1272   -1.0223 C   0  0  0  0  0  0  0  0  0  0  0  0
    2.5453    0.6607   -0.1705 C   0  0  0  0  0  0  0  0  0  0  0  0
    2.2270    0.0018    1.0185 C   0  0  0  0  0  0  0  0  0  0  0  0
    1.2005    0.5253    1.9228 C   0  0  0  0  0  0  0  0  0  0  0  0
   -0.1216    0.5612    1.6939 C   0  0  0  0  0  0  0  0  0  0  0  0
   -1.2224    1.1944    2.8505 S   0  0  0  0  0  0  0  0  0  0  0  0
   -2.6296    0.7626    1.8936 C   0  0  0  0  0  0  0  0  0  0  0  0
   -3.8584    0.8926    2.2825 N   0  0  0  0  0  0  0  0  0  0  0  0
   -4.1753    1.4378    3.5322 C   0  0  0  0  0  0  0  0  0  0  0  0
   -4.3691    2.8152    3.6741 C   0  0  0  0  0  0  0  0  0  0  0  0
   -4.7214    3.3554    4.9122 C   0  0  0  0  0  0  0  0  0  0  0  0
   -4.8963    2.5168    6.0129 C   0  0  0  0  0  0  0  0  0  0  0  0
   -4.7249    1.1396    5.8746 C   0  0  0  0  0  0  0  0  0  0  0  0
   -4.3726    0.6023    4.6351 C   0  0  0  0  0  0  0  0  0  0  0  0
   -2.2437    0.2169    0.6767 N   0  0  0  0  0  0  0  0  0  0  0  0
   -3.1797   -0.1860   -0.3451 C   0  0  0  0  0  0  0  0  0  0  0  0
   -2.8632   -1.2014   -1.2657 C   0  0  0  0  0  0  0  0  0  0  0  0
   -3.7624   -1.5948   -2.2650 C   0  0  0  0  0  0  0  0  0  0  0  0
   -5.0052   -0.9817   -2.3679 C   0  0  0  0  0  0  0  0  0  0  0  0
   -5.3450    0.0258   -1.4737 C   0  0  0  0  0  0  0  0  0  0  0  0
   -4.4416    0.4190   -0.4777 C   0  0  0  0  0  0  0  0  0  0  0  0
   -0.8669    0.0865    0.4879 C   0  0  0  0  0  0  0  0  0  0  0  0
   -0.2876   -0.3071   -0.5172 O   0  0  0  0  0  0  0  0  0  0  0  0
    2.9226   -1.1626    1.3634 C   0  0  0  0  0  0  0  0  0  0  0  0
    3.9167   -1.6772    0.5203 C   0  0  0  0  0  0  0  0  0  0  0  0
    4.2248   -1.0332   -0.6800 C   0  0  0  0  0  0  0  0  0  0  0  0
    5.1584   -1.4571   -1.5868 O   0  0  0  0  0  0  0  0  0  0  0  0
    6.0451   -2.4884   -1.1785 C   0  0  0  0  0  0  0  0  0  0  0  0
    7.0904   -2.7240   -2.2490 C   0  0  0  0  0  0  0  0  0  0  0  0
    8.2951   -2.8169   -2.0666 O   0  0  0  0  0  0  0  0  0  0  0  0
    6.5776   -2.8891   -3.4866 O   0  0  0  0  0  0  0  0  0  0  0  0
    3.6795    2.0273   -4.5045 H   0  0  0  0  0  0  0  0  0  0  0  0
    4.1992    0.3642   -4.7745 H   0  0  0  0  0  0  0  0  0  0  0  0
    2.5697    0.8740   -5.2919 H   0  0  0  0  0  0  0  0  0  0  0  0
    2.4546   -0.4555   -3.1876 H   0  0  0  0  0  0  0  0  0  0  0  0
    1.9258    1.2344   -2.9113 H   0  0  0  0  0  0  0  0  0  0  0  0
    2.0353    1.5785   -0.4495 H   0  0  0  0  0  0  0  0  0  0  0  0
    1.5982    0.8942    2.8670 H   0  0  0  0  0  0  0  0  0  0  0  0
   -4.2488    3.4697    2.8152 H   0  0  0  0  0  0  0  0  0  0  0  0
   -4.8672    4.4277    5.0152 H   0  0  0  0  0  0  0  0  0  0  0  0
   -5.1761    2.9356    6.9760 H   0  0  0  0  0  0  0  0  0  0  0  0
   -4.8744    0.4833    6.7279 H   0  0  0  0  0  0  0  0  0  0  0  0
   -4.2564   -0.4725    4.5253 H   0  0  0  0  0  0  0  0  0  0  0  0
   -1.9195   -1.7393   -1.2167 H   0  0  0  0  0  0  0  0  0  0  0  0
   -3.4859   -2.3855   -2.9586 H   0  0  0  0  0  0  0  0  0  0  0  0
   -5.7043   -1.2860   -3.1422 H   0  0  0  0  0  0  0  0  0  0  0  0
   -6.3125    0.5169   -1.5485 H   0  0  0  0  0  0  0  0  0  0  0  0
   -4.7512    1.2385    0.1648 H   0  0  0  0  0  0  0  0  0  0  0  0
    2.6942   -1.6853    2.2903 H   0  0  0  0  0  0  0  0  0  0  0  0
    4.4199   -2.5873    0.8283 H   0  0  0  0  0  0  0  0  0  0  0  0
    6.5741   -2.1936   -0.2638 H   0  0  0  0  0  0  0  0  0  0  0  0
    5.5117   -3.4332   -1.0240 H   0  0  0  0  0  0  0  0  0  0  0  0
    7.3624   -2.9937   -4.0623 H   0  0  0  0  0  0  0  0  0  0  0  0
  1  2  1  0
  2  3  1  0
  3  4  1  0
  4  5  2  0
  5  6  1  0
  6  7  1  0
  7  8  2  3
  8  9  1  0
  9 10  1  0
 10 11  2  3
 11 12  1  0
 12 13  2  0
 13 14  1  0
 14 15  2  0
 15 16  1  0
 16 17  2  0
 10 18  1  0
 18 19  1  0
 19 20  2  0
 20 21  1  0
 21 22  2  0
 22 23  1  0
 23 24  2  0
 18 25  1  0
 25 26  2  0
  6 27  2  0
 27 28  1  0
 28 29  2  0
 29 30  1  0
 30 31  1  0
 31 32  1  0
 32 33  2  0
 32 34  1  0
 29  4  1  0
 25  8  1  0
 17 12  1  0
 24 19  1  0
  1 35  1  0
  1 36  1  0
  1 37  1  0
  2 38  1  0
  2 39  1  0
  5 40  1  0
  7 41  1  0
 13 42  1  0
 14 43  1  0
 15 44  1  0
 16 45  1  0
 17 46  1  0
 20 47  1  0
 21 48  1  0
 22 49  1  0
 23 50  1  0
 24 51  1  0
 27 52  1  0
 28 53  1  0
 31 54  1  0
 31 55  1  0
 34 56  1  0
M  END
$$$$
