
     RDKit          3D

 57 59  0  0  0  0  0  0  0  0999 V2000
    5.9700   -1.6970   -0.7018 C   0  0  0  0  0  0  0  0  0  0  0  0
    6.5250   -0.7269    0.3049 C   0  0  0  0  0  0  0  0  0  0  0  0
    7.9080   -0.4970    0.3596 C   0  0  0  0  0  0  0  0  0  0  0  0
    8.4393    0.4112    1.2735 C   0  0  0  0  0  0  0  0  0  0  0  0
    7.5935    1.0986    2.1384 C   0  0  0  0  0  0  0  0  0  0  0  0
    6.2139    0.8828    2.0901 C   0  0  0  0  0  0  0  0  0  0  0  0
    5.6712   -0.0232    1.1737 C   0  0  0  0  0  0  0  0  0  0  0  0
    4.3367   -0.3079    1.0527 O   0  0  0  0  0  0  0  0  0  0  0  0
    3.4171    0.5344    1.7524 C   0  0  0  0  0  0  0  0  0  0  0  0
    1.9912    0.1155    1.3666 C   0  0  0  0  0  0  0  0  0  0  0  0
    1.7535    0.3859   -0.0579 N   0  0  0  0  0  0  0  0  0  0  0  0
    0.5725   -0.0818   -0.6655 C   0  0  0  0  0  0  0  0  0  0  0  0
   -0.6162   -0.2493    0.0747 C   0  0  0  0  0  0  0  0  0  0  0  0
   -1.8531   -0.6290   -0.4966 C   0  0  0  0  0  0  0  0  0  0  0  0
   -2.9724   -0.7815    0.3303 N   0  0  0  0  0  0  0  0  0  0  0  0
   -3.3170    0.4375    1.1062 C   0  0  0  0  0  0  0  0  0  0  0  0
   -4.7779    0.4043    1.6139 C   0  0  0  0  0  0  0  0  0  0  0  0
   -5.8129    0.2126    0.5685 N   0  0  0  0  0  0  0  0  0  0  0  0
   -6.3048    1.5103    0.0548 C   0  0  0  0  0  0  0  0  0  0  0  0
   -7.5513    1.3400   -0.8286 C   0  0  0  0  0  0  0  0  0  0  0  0
   -8.5338    0.5726   -0.1355 O   0  0  0  0  0  0  0  0  0  0  0  0
   -5.3003   -0.6481   -0.5315 C   0  0  0  0  0  0  0  0  0  0  0  0
   -4.1372   -1.5743   -0.1137 C   0  0  0  0  0  0  0  0  0  0  0  0
   -1.8874   -0.8274   -1.8798 C   0  0  0  0  0  0  0  0  0  0  0  0
   -0.7493   -0.6313   -2.6632 C   0  0  0  0  0  0  0  0  0  0  0  0
    0.4584   -0.2496   -2.0595 C   0  0  0  0  0  0  0  0  0  0  0  0
    1.6078   -0.0487   -2.9406 N   0  0  0  0  0  4  0  0  0  0  0  0
    2.7254   -0.3918   -2.5249 O   0  0  0  0  0  0  0  0  0  0  0  0
    1.3892    0.4278   -4.0650 O   0  0  0  0  0  1  0  0  0  0  0  0
    5.3762   -1.1631   -1.4500 H   0  0  0  0  0  0  0  0  0  0  0  0
    6.7689   -2.2324   -1.2256 H   0  0  0  0  0  0  0  0  0  0  0  0
    5.3443   -2.4470   -0.2069 H   0  0  0  0  0  0  0  0  0  0  0  0
    8.5794   -1.0258   -0.3133 H   0  0  0  0  0  0  0  0  0  0  0  0
    9.5120    0.5815    1.3090 H   0  0  0  0  0  0  0  0  0  0  0  0
    8.0072    1.8054    2.8529 H   0  0  0  0  0  0  0  0  0  0  0  0
    5.5921    1.4356    2.7854 H   0  0  0  0  0  0  0  0  0  0  0  0
    3.5786    1.5847    1.4806 H   0  0  0  0  0  0  0  0  0  0  0  0
    3.5407    0.3991    2.8329 H   0  0  0  0  0  0  0  0  0  0  0  0
    1.2879    0.6863    1.9819 H   0  0  0  0  0  0  0  0  0  0  0  0
    1.8640   -0.9556    1.5638 H   0  0  0  0  0  0  0  0  0  0  0  0
    2.5834    0.1148   -0.6060 H   0  0  0  0  0  0  0  0  0  0  0  0
   -0.5950   -0.1014    1.1505 H   0  0  0  0  0  0  0  0  0  0  0  0
   -2.6524    0.5203    1.9739 H   0  0  0  0  0  0  0  0  0  0  0  0
   -3.1833    1.3352    0.4876 H   0  0  0  0  0  0  0  0  0  0  0  0
   -4.8756   -0.4321    2.3187 H   0  0  0  0  0  0  0  0  0  0  0  0
   -4.9805    1.3032    2.2090 H   0  0  0  0  0  0  0  0  0  0  0  0
   -6.6070    2.1256    0.9118 H   0  0  0  0  0  0  0  0  0  0  0  0
   -5.5239    2.0572   -0.4867 H   0  0  0  0  0  0  0  0  0  0  0  0
   -7.3152    0.8291   -1.7670 H   0  0  0  0  0  0  0  0  0  0  0  0
   -7.9851    2.3148   -1.0705 H   0  0  0  0  0  0  0  0  0  0  0  0
   -8.0216   -0.0566    0.4120 H   0  0  0  0  0  0  0  0  0  0  0  0
   -6.1284   -1.2637   -0.9007 H   0  0  0  0  0  0  0  0  0  0  0  0
   -4.9516   -0.0323   -1.3711 H   0  0  0  0  0  0  0  0  0  0  0  0
   -4.4598   -2.2064    0.7239 H   0  0  0  0  0  0  0  0  0  0  0  0
   -3.8901   -2.2746   -0.9188 H   0  0  0  0  0  0  0  0  0  0  0  0
   -2.8066   -1.1000   -2.3887 H   0  0  0  0  0  0  0  0  0  0  0  0
   -0.8175   -0.7708   -3.7403 H   0  0  0  0  0  0  0  0  0  0  0  0
  1  2  1  0
  2  3  2  0
  3  4  1  0
  4  5  2  0
  5  6  1  0
  6  7  2  0
  7  8  1  0
  8  9  1  0
  9 10  1  0
 10 11  1  0
 11 12  1  0
 12 13  2  0
 13 14  1  0
 14 15  1  0
 15 16  1  0
 16 17  1  0
 17 18  1  0
 18 19  1  0
 19 20  1  0
 20 21  1  0
 18 22  1  0
 22 23  1  0
 14 24  2  0
 24 25  1  0
 25 26  2  0
 26 27  1  0
 27 28  2  0
 27 29  1  0
  7  2  1  0
 26 12  1  0
 23 15  1  0
  1 30  1  0
  1 31  1  0
  1 32  1  0
  3 33  1  0
  4 34  1  0
  5 35  1  0
  6 36  1  0
  9 37  1  0
  9 38  1  0
 10 39  1  0
 10 40  1  0
 11 41  1  0
 13 42  1  0
 16 43  1  0
 16 44  1  0
 17 45  1  0
 17 46  1  0
 19 47  1  0
 19 48  1  0
 20 49  1  0
 20 50  1  0
 21 51  1  0
 22 52  1  0
 22 53  1  0
 23 54  1  0
 23 55  1  0
 24 56  1  0
 25 57  1  0
M  CHG  2  27   1  29  -1
M  END
$$$$
