
     RDKit          3D

 63 64  0  0  0  0  0  0  0  0999 V2000
   -3.4680   -3.8531    0.9180 C   0  0  0  0  0  0  0  0  0  0  0  0
   -2.8249   -2.4871    1.1966 C   0  0  0  0  0  0  0  0  0  0  0  0
   -3.8278   -1.6075    1.9424 C   0  0  0  0  0  0  0  0  0  0  0  0
   -2.3438   -1.8675   -0.1324 C   0  0  0  0  0  0  0  0  0  0  0  0
   -1.4679   -0.6014   -0.0477 C   0  0  0  0  0  0  0  0  0  0  0  0
   -0.3796   -0.6608    0.9268 N   0  0  0  0  0  0  0  0  0  0  0  0
    0.5845   -1.6319    0.9297 C   0  0  0  0  0  0  0  0  0  0  0  0
    0.4962   -2.6681    0.2813 O   0  0  0  0  0  0  0  0  0  0  0  0
    1.7203   -1.3716    1.7696 C   0  0  0  0  0  0  0  0  0  0  0  0
    2.3195   -2.3380    2.5447 N   0  0  0  0  0  0  0  0  0  0  0  0
    3.3913   -1.7721    3.1714 C   0  0  0  0  0  0  0  0  0  0  0  0
    3.5462   -0.5160    2.8240 N   0  0  0  0  0  0  0  0  0  0  0  0
    2.5236   -0.2483    1.9251 C   0  0  0  0  0  0  0  0  0  0  0  0
    2.3493    1.0329    1.2292 C   0  0  0  0  0  0  0  0  0  0  0  0
    1.2280    1.5372    1.1597 O   0  0  0  0  0  0  0  0  0  0  0  0
    3.4596    1.6217    0.6214 N   0  0  0  0  0  0  0  0  0  0  0  0
    3.2593    2.8744   -0.0887 C   0  0  0  0  0  0  0  0  0  0  0  0
    4.7324    0.9346    0.3850 C   0  0  0  0  0  0  0  0  0  0  0  0
    4.8874    0.4360   -1.0369 C   0  0  0  0  0  0  0  0  0  0  0  0
    5.9478    0.8966   -1.8342 C   0  0  0  0  0  0  0  0  0  0  0  0
    6.1343    0.4007   -3.1287 C   0  0  0  0  0  0  0  0  0  0  0  0
    5.2594   -0.5528   -3.6424 C   0  0  0  0  0  0  0  0  0  0  0  0
    4.1972   -1.0110   -2.8648 C   0  0  0  0  0  0  0  0  0  0  0  0
    4.0114   -0.5206   -1.5701 C   0  0  0  0  0  0  0  0  0  0  0  0
   -2.3122    0.6578    0.2023 C   0  0  0  0  0  0  0  0  0  0  0  0
   -2.2564    1.3345    1.2201 O   0  0  0  0  0  0  0  0  0  0  0  0
   -3.1341    0.8941   -0.8579 O   0  0  0  0  0  0  0  0  0  0  0  0
   -4.1110    1.9641   -0.8106 C   0  0  0  0  0  0  0  0  0  0  0  0
   -4.8140    1.9214   -2.1778 C   0  0  0  0  0  0  0  0  0  0  0  0
   -5.1555    1.6982    0.2804 C   0  0  0  0  0  0  0  0  0  0  0  0
   -3.4521    3.3354   -0.6406 C   0  0  0  0  0  0  0  0  0  0  0  0
   -2.7514   -4.5332    0.4407 H   0  0  0  0  0  0  0  0  0  0  0  0
   -4.3381   -3.7548    0.2589 H   0  0  0  0  0  0  0  0  0  0  0  0
   -3.8030   -4.3258    1.8473 H   0  0  0  0  0  0  0  0  0  0  0  0
   -1.9662   -2.6615    1.8547 H   0  0  0  0  0  0  0  0  0  0  0  0
   -4.6689   -1.3400    1.2983 H   0  0  0  0  0  0  0  0  0  0  0  0
   -4.2311   -2.1316    2.8186 H   0  0  0  0  0  0  0  0  0  0  0  0
   -3.3627   -0.6905    2.3143 H   0  0  0  0  0  0  0  0  0  0  0  0
   -1.7700   -2.6302   -0.6741 H   0  0  0  0  0  0  0  0  0  0  0  0
   -3.2170   -1.6689   -0.7662 H   0  0  0  0  0  0  0  0  0  0  0  0
   -0.9760   -0.4507   -1.0174 H   0  0  0  0  0  0  0  0  0  0  0  0
   -0.1498    0.2317    1.3737 H   0  0  0  0  0  0  0  0  0  0  0  0
    2.0208   -3.3018    2.6108 H   0  0  0  0  0  0  0  0  0  0  0  0
    4.0229   -2.3233    3.8534 H   0  0  0  0  0  0  0  0  0  0  0  0
    4.1648    3.4829   -0.0208 H   0  0  0  0  0  0  0  0  0  0  0  0
    3.0370    2.6568   -1.1373 H   0  0  0  0  0  0  0  0  0  0  0  0
    2.4212    3.4422    0.3265 H   0  0  0  0  0  0  0  0  0  0  0  0
    4.8870    0.0848    1.0478 H   0  0  0  0  0  0  0  0  0  0  0  0
    5.5281    1.6523    0.6269 H   0  0  0  0  0  0  0  0  0  0  0  0
    6.6442    1.6349   -1.4450 H   0  0  0  0  0  0  0  0  0  0  0  0
    6.9666    0.7526   -3.7347 H   0  0  0  0  0  0  0  0  0  0  0  0
    5.4137   -0.9473   -4.6453 H   0  0  0  0  0  0  0  0  0  0  0  0
    3.5124   -1.7584   -3.2593 H   0  0  0  0  0  0  0  0  0  0  0  0
    3.1852   -0.9076   -0.9797 H   0  0  0  0  0  0  0  0  0  0  0  0
   -5.5994    2.6809   -2.2561 H   0  0  0  0  0  0  0  0  0  0  0  0
   -5.2708    0.9403   -2.3528 H   0  0  0  0  0  0  0  0  0  0  0  0
   -4.0951    2.0790   -2.9902 H   0  0  0  0  0  0  0  0  0  0  0  0
   -5.9473    2.4555    0.2667 H   0  0  0  0  0  0  0  0  0  0  0  0
   -5.6149    0.7146    0.1429 H   0  0  0  0  0  0  0  0  0  0  0  0
   -4.7087    1.7033    1.2799 H   0  0  0  0  0  0  0  0  0  0  0  0
   -2.6181    3.4636   -1.3349 H   0  0  0  0  0  0  0  0  0  0  0  0
   -4.1725    4.1432   -0.8070 H   0  0  0  0  0  0  0  0  0  0  0  0
   -3.0430    3.4751    0.3641 H   0  0  0  0  0  0  0  0  0  0  0  0
  1  2  1  0
  2  3  1  0
  2  4  1  0
  4  5  1  0
  5  6  1  0
  6  7  1  0
  7  8  2  0
  7  9  1  0
  9 10  1  0
 10 11  1  0
 11 12  2  0
 12 13  1  0
 13 14  1  0
 14 15  2  0
 14 16  1  0
 16 17  1  0
 16 18  1  0
 18 19  1  0
 19 20  2  0
 20 21  1  0
 21 22  2  0
 22 23  1  0
 23 24  2  0
  5 25  1  0
 25 26  2  0
 25 27  1  0
 27 28  1  0
 28 29  1  0
 28 30  1  0
 28 31  1  0
 13  9  2  0
 24 19  1  0
  1 32  1  0
  1 33  1  0
  1 34  1  0
  2 35  1  0
  3 36  1  0
  3 37  1  0
  3 38  1  0
  4 39  1  0
  4 40  1  0
  5 41  1  0
  6 42  1  0
 10 43  1  0
 11 44  1  0
 17 45  1  0
 17 46  1  0
 17 47  1  0
 18 48  1  0
 18 49  1  0
 20 50  1  0
 21 51  1  0
 22 52  1  0
 23 53  1  0
 24 54  1  0
 29 55  1  0
 29 56  1  0
 29 57  1  0
 30 58  1  0
 30 59  1  0
 30 60  1  0
 31 61  1  0
 31 62  1  0
 31 63  1  0
M  END
$$$$
