
     RDKit          3D

 53 57  0  0  0  0  0  0  0  0999 V2000
    4.4981    0.7976   -0.5908 C   0  0  0  0  0  0  0  0  0  0  0  0
    4.2938    0.3575    0.8310 C   0  0  0  0  0  0  0  0  0  0  0  0
    5.2011    0.8130    1.8040 C   0  0  0  0  0  0  0  0  0  0  0  0
    5.0858    0.4221    3.1388 C   0  0  0  0  0  0  0  0  0  0  0  0
    4.0571   -0.4286    3.5297 C   0  0  0  0  0  0  0  0  0  0  0  0
    3.1396   -0.8852    2.5858 C   0  0  0  0  0  0  0  0  0  0  0  0
    3.2459   -0.4894    1.2423 C   0  0  0  0  0  0  0  0  0  0  0  0
    2.0211   -1.1203    0.1067 S   0  0  0  0  0  6  0  0  0  0  0  0
    1.8960   -0.2502   -1.0438 O   0  0  0  0  0  0  0  0  0  0  0  0
    2.3211   -2.5266   -0.0695 O   0  0  0  0  0  0  0  0  0  0  0  0
    0.5724   -1.0605    0.9577 N   0  0  0  0  0  0  0  0  0  0  0  0
   -0.0698    0.2044    0.9565 C   0  0  0  0  0  0  0  0  0  0  0  0
    0.5808    1.1920    1.5948 N   0  0  0  0  0  0  0  0  0  0  0  0
   -0.0467    2.3797    1.6153 C   0  0  0  0  0  0  0  0  0  0  0  0
    0.5656    3.4569    2.2431 C   0  0  0  0  0  0  0  0  0  0  0  0
   -0.0453    4.7110    2.2907 C   0  0  0  0  0  0  0  0  0  0  0  0
   -1.2918    4.8917    1.7013 C   0  0  0  0  0  0  0  0  0  0  0  0
   -1.9181    3.8159    1.0689 C   0  0  0  0  0  0  0  0  0  0  0  0
   -1.3219    2.5623    1.0132 C   0  0  0  0  0  0  0  0  0  0  0  0
   -1.9650    1.5536    0.3891 N   0  0  0  0  0  0  0  0  0  0  0  0
   -1.3355    0.3583    0.3477 C   0  0  0  0  0  0  0  0  0  0  0  0
   -1.9339   -0.7546   -0.3115 N   0  0  0  0  0  0  0  0  0  0  0  0
   -3.4007   -0.7370   -0.1611 C   0  0  0  0  0  0  0  0  0  0  0  0
   -3.9704   -2.0555   -0.6982 C   0  0  0  0  0  0  0  0  0  0  0  0
   -3.4188   -2.4075   -2.0593 C   0  0  0  0  0  0  0  0  0  0  0  0
   -4.0449   -3.3948   -2.8328 C   0  0  0  0  0  0  0  0  0  0  0  0
   -3.5225   -3.7538   -4.0752 C   0  0  0  0  0  0  0  0  0  0  0  0
   -2.3674   -3.1392   -4.5506 C   0  0  0  0  0  0  0  0  0  0  0  0
   -1.7299   -2.1637   -3.7841 C   0  0  0  0  0  0  0  0  0  0  0  0
   -2.2394   -1.7964   -2.5292 C   0  0  0  0  0  0  0  0  0  0  0  0
   -1.5565   -0.6927   -1.7439 C   0  0  0  0  0  0  0  0  0  0  0  0
    5.4702    1.2866   -0.7214 H   0  0  0  0  0  0  0  0  0  0  0  0
    4.4914   -0.0633   -1.2684 H   0  0  0  0  0  0  0  0  0  0  0  0
    3.7280    1.5195   -0.8816 H   0  0  0  0  0  0  0  0  0  0  0  0
    6.0189    1.4745    1.5245 H   0  0  0  0  0  0  0  0  0  0  0  0
    5.8042    0.7804    3.8721 H   0  0  0  0  0  0  0  0  0  0  0  0
    3.9696   -0.7371    4.5674 H   0  0  0  0  0  0  0  0  0  0  0  0
    2.3416   -1.5536    2.9041 H   0  0  0  0  0  0  0  0  0  0  0  0
   -0.0490   -1.8154    0.6592 H   0  0  0  0  0  0  0  0  0  0  0  0
    1.5404    3.3147    2.7061 H   0  0  0  0  0  0  0  0  0  0  0  0
    0.4530    5.5403    2.7878 H   0  0  0  0  0  0  0  0  0  0  0  0
   -1.7779    5.8638    1.7302 H   0  0  0  0  0  0  0  0  0  0  0  0
   -2.8930    3.9582    0.6061 H   0  0  0  0  0  0  0  0  0  0  0  0
   -3.6875   -0.6366    0.8931 H   0  0  0  0  0  0  0  0  0  0  0  0
   -3.8459    0.1036   -0.7120 H   0  0  0  0  0  0  0  0  0  0  0  0
   -5.0639   -1.9782   -0.7459 H   0  0  0  0  0  0  0  0  0  0  0  0
   -3.7171   -2.8706   -0.0073 H   0  0  0  0  0  0  0  0  0  0  0  0
   -4.9432   -3.8880   -2.4701 H   0  0  0  0  0  0  0  0  0  0  0  0
   -4.0147   -4.5180   -4.6714 H   0  0  0  0  0  0  0  0  0  0  0  0
   -1.9614   -3.4196   -5.5192 H   0  0  0  0  0  0  0  0  0  0  0  0
   -0.8321   -1.6856   -4.1733 H   0  0  0  0  0  0  0  0  0  0  0  0
   -0.4722   -0.8032   -1.8592 H   0  0  0  0  0  0  0  0  0  0  0  0
   -1.8592    0.2678   -2.1872 H   0  0  0  0  0  0  0  0  0  0  0  0
  1  2  1  0
  2  3  2  0
  3  4  1  0
  4  5  2  0
  5  6  1  0
  6  7  2  0
  7  8  1  0
  8  9  2  0
  8 10  2  0
  8 11  1  0
 11 12  1  0
 12 13  2  0
 13 14  1  0
 14 15  2  0
 15 16  1  0
 16 17  2  0
 17 18  1  0
 18 19  2  0
 19 20  1  0
 20 21  2  0
 21 22  1  0
 22 23  1  0
 23 24  1  0
 24 25  1  0
 25 26  2  0
 26 27  1  0
 27 28  2  0
 28 29  1  0
 29 30  2  0
 30 31  1  0
  7  2  1  0
 21 12  1  0
 31 22  1  0
 19 14  1  0
 30 25  1  0
  1 32  1  0
  1 33  1  0
  1 34  1  0
  3 35  1  0
  4 36  1  0
  5 37  1  0
  6 38  1  0
 11 39  1  0
 15 40  1  0
 16 41  1  0
 17 42  1  0
 18 43  1  0
 23 44  1  0
 23 45  1  0
 24 46  1  0
 24 47  1  0
 26 48  1  0
 27 49  1  0
 28 50  1  0
 29 51  1  0
 31 52  1  0
 31 53  1  0
M  END
$$$$
