
     RDKit          3D

 43 45  0  0  0  0  0  0  0  0999 V2000
   -5.7193   -0.4700    0.4599 C   0  0  0  0  0  0  0  0  0  0  0  0
   -4.8626   -1.5491   -0.0296 N   0  0  0  0  0  0  0  0  0  0  0  0
   -4.1111   -1.1431   -1.2403 C   0  0  0  0  0  0  0  0  0  0  0  0
   -2.9637   -0.1320   -0.9930 C   0  0  0  0  0  0  0  0  0  0  0  0
   -2.0477   -0.6514    0.0426 N   0  0  0  0  0  0  0  0  0  0  0  0
   -0.8101   -0.0324    0.2334 C   0  0  0  0  0  0  0  0  0  0  0  0
    0.2984   -0.8956    0.3393 C   0  0  0  0  0  0  0  0  0  0  0  0
    1.6054   -0.4188    0.5057 C   0  0  0  0  0  0  0  0  0  0  0  0
    1.8441    0.9555    0.5640 C   0  0  0  0  0  0  0  0  0  0  0  0
    3.2070    1.5072    0.7600 C   0  0  0  0  0  0  0  0  0  0  0  0
    3.3397    2.5262    1.4321 O   0  0  0  0  0  0  0  0  0  0  0  0
    4.4070    0.8625    0.1701 C   0  0  0  0  0  0  0  0  0  0  0  0
    4.3692    0.2429   -1.0855 C   0  0  0  0  0  0  0  0  0  0  0  0
    5.5264   -0.3395   -1.6105 C   0  0  0  0  0  0  0  0  0  0  0  0
    6.7182   -0.2899   -0.8870 C   0  0  0  0  0  0  0  0  0  0  0  0
    8.2805   -1.0782   -1.6012 Br  0  0  0  0  0  0  0  0  0  0  0  0
    6.7683    0.3435    0.3537 C   0  0  0  0  0  0  0  0  0  0  0  0
    5.6130    0.9261    0.8798 C   0  0  0  0  0  0  0  0  0  0  0  0
    0.7699    1.8435    0.5004 C   0  0  0  0  0  0  0  0  0  0  0  0
   -0.5320    1.3411    0.3384 C   0  0  0  0  0  0  0  0  0  0  0  0
   -1.5889    2.3248    0.3356 N   0  0  0  0  0  4  0  0  0  0  0  0
   -1.6946    3.0279   -0.6793 O   0  0  0  0  0  0  0  0  0  0  0  0
   -2.2947    2.4079    1.3498 O   0  0  0  0  0  1  0  0  0  0  0  0
   -2.7342   -1.0216    1.3015 C   0  0  0  0  0  0  0  0  0  0  0  0
   -3.9051   -1.9934    1.0091 C   0  0  0  0  0  0  0  0  0  0  0  0
   -6.3045   -0.8121    1.3207 H   0  0  0  0  0  0  0  0  0  0  0  0
   -5.1651    0.4243    0.7614 H   0  0  0  0  0  0  0  0  0  0  0  0
   -6.4419   -0.1791   -0.3107 H   0  0  0  0  0  0  0  0  0  0  0  0
   -4.8007   -0.7398   -1.9920 H   0  0  0  0  0  0  0  0  0  0  0  0
   -3.6836   -2.0510   -1.6861 H   0  0  0  0  0  0  0  0  0  0  0  0
   -3.4005    0.8260   -0.6978 H   0  0  0  0  0  0  0  0  0  0  0  0
   -2.4183    0.0174   -1.9324 H   0  0  0  0  0  0  0  0  0  0  0  0
    0.1369   -1.9721    0.2799 H   0  0  0  0  0  0  0  0  0  0  0  0
    2.4154   -1.1380    0.6019 H   0  0  0  0  0  0  0  0  0  0  0  0
    3.4569    0.2212   -1.6763 H   0  0  0  0  0  0  0  0  0  0  0  0
    5.4916   -0.8191   -2.5858 H   0  0  0  0  0  0  0  0  0  0  0  0
    7.6980    0.3957    0.9149 H   0  0  0  0  0  0  0  0  0  0  0  0
    5.6552    1.4316    1.8432 H   0  0  0  0  0  0  0  0  0  0  0  0
    0.9438    2.9155    0.5863 H   0  0  0  0  0  0  0  0  0  0  0  0
   -2.0386   -1.5225    1.9865 H   0  0  0  0  0  0  0  0  0  0  0  0
   -3.1092   -0.1256    1.8091 H   0  0  0  0  0  0  0  0  0  0  0  0
   -3.4805   -2.9499    0.6758 H   0  0  0  0  0  0  0  0  0  0  0  0
   -4.4379   -2.2168    1.9415 H   0  0  0  0  0  0  0  0  0  0  0  0
  1  2  1  0
  2  3  1  0
  3  4  1  0
  4  5  1  0
  5  6  1  0
  6  7  2  0
  7  8  1  0
  8  9  2  0
  9 10  1  0
 10 11  2  0
 10 12  1  0
 12 13  2  0
 13 14  1  0
 14 15  2  0
 15 16  1  0
 15 17  1  0
 17 18  2  0
  9 19  1  0
 19 20  2  0
 20 21  1  0
 21 22  2  0
 21 23  1  0
  5 24  1  0
 24 25  1  0
 25  2  1  0
 20  6  1  0
 18 12  1  0
  1 26  1  0
  1 27  1  0
  1 28  1  0
  3 29  1  0
  3 30  1  0
  4 31  1  0
  4 32  1  0
  7 33  1  0
  8 34  1  0
 13 35  1  0
 14 36  1  0
 17 37  1  0
 18 38  1  0
 19 39  1  0
 24 40  1  0
 24 41  1  0
 25 42  1  0
 25 43  1  0
M  CHG  2  21   1  23  -1
M  END
$$$$
