
     RDKit          3D

 39 41  0  0  0  0  0  0  0  0999 V2000
    4.1297   -2.8900    0.0476 C   0  0  0  0  0  0  0  0  0  0  0  0
    4.3673   -1.4267    0.1160 C   0  0  0  0  0  0  0  0  0  0  0  0
    5.6047   -0.9560    0.3210 N   0  0  0  0  0  0  0  0  0  0  0  0
    5.4510    0.3791    0.3121 N   0  0  0  0  0  0  0  0  0  0  0  0
    6.6040    1.2271    0.4879 C   0  0  0  0  0  0  0  0  0  0  0  0
    4.1630    0.7758    0.1241 C   0  0  0  0  0  0  0  0  0  0  0  0
    3.4159   -0.3777   -0.0099 C   0  0  0  0  0  0  0  0  0  0  0  0
    1.9914   -0.4806   -0.2287 C   0  0  0  0  0  0  0  0  0  0  0  0
    1.2896    0.6045   -0.3125 N   0  0  0  0  0  0  0  0  0  0  0  0
   -0.0608    0.4950   -0.5514 N   0  0  0  0  0  0  0  0  0  0  0  0
   -0.6762   -0.4865   -1.3189 C   0  0  0  0  0  0  0  0  0  0  0  0
   -0.1010   -1.4349   -1.8444 O   0  0  0  0  0  0  0  0  0  0  0  0
   -2.1117   -0.2572   -1.5213 C   0  0  0  0  0  0  0  0  0  0  0  0
   -2.7014   -0.5397   -2.7432 C   0  0  0  0  0  0  0  0  0  0  0  0
   -4.3703   -0.1942   -2.7829 S   0  0  0  0  0  0  0  0  0  0  0  0
   -4.3611    0.2739   -1.1511 C   0  0  0  0  0  0  0  0  0  0  0  0
   -3.1034    0.2090   -0.5732 C   0  0  0  0  0  0  0  0  0  0  0  0
   -2.9106    0.5059    0.8913 C   0  0  0  0  0  0  0  0  0  0  0  0
   -4.1120    1.2446    1.5027 C   0  0  0  0  0  0  0  0  0  0  0  0
   -5.4447    0.6295    1.0629 C   0  0  0  0  0  0  0  0  0  0  0  0
   -5.6186    0.7056   -0.4592 C   0  0  0  0  0  0  0  0  0  0  0  0
    3.4600   -3.2046    0.8545 H   0  0  0  0  0  0  0  0  0  0  0  0
    5.0625   -3.4558    0.1421 H   0  0  0  0  0  0  0  0  0  0  0  0
    3.6688   -3.1575   -0.9087 H   0  0  0  0  0  0  0  0  0  0  0  0
    7.2835    1.0617   -0.3515 H   0  0  0  0  0  0  0  0  0  0  0  0
    6.2864    2.2727    0.5116 H   0  0  0  0  0  0  0  0  0  0  0  0
    7.0869    0.9635    1.4323 H   0  0  0  0  0  0  0  0  0  0  0  0
    3.8785    1.8185    0.0944 H   0  0  0  0  0  0  0  0  0  0  0  0
    1.5718   -1.4981   -0.2782 H   0  0  0  0  0  0  0  0  0  0  0  0
   -0.5537    1.3786   -0.4699 H   0  0  0  0  0  0  0  0  0  0  0  0
   -2.2131   -0.9256   -3.6292 H   0  0  0  0  0  0  0  0  0  0  0  0
   -2.0172    1.1120    1.0618 H   0  0  0  0  0  0  0  0  0  0  0  0
   -2.7659   -0.4458    1.4172 H   0  0  0  0  0  0  0  0  0  0  0  0
   -4.0859    2.2990    1.1980 H   0  0  0  0  0  0  0  0  0  0  0  0
   -4.0334    1.2255    2.5956 H   0  0  0  0  0  0  0  0  0  0  0  0
   -5.4814   -0.4186    1.3867 H   0  0  0  0  0  0  0  0  0  0  0  0
   -6.2771    1.1465    1.5532 H   0  0  0  0  0  0  0  0  0  0  0  0
   -6.4693    0.0827   -0.7583 H   0  0  0  0  0  0  0  0  0  0  0  0
   -5.8462    1.7388   -0.7498 H   0  0  0  0  0  0  0  0  0  0  0  0
  1  2  1  0
  2  3  2  0
  3  4  1  0
  4  5  1  0
  4  6  1  0
  6  7  2  0
  7  8  1  0
  8  9  2  3
  9 10  1  0
 10 11  1  0
 11 12  2  0
 11 13  1  0
 13 14  2  0
 14 15  1  0
 15 16  1  0
 16 17  2  0
 17 18  1  0
 18 19  1  0
 19 20  1  0
 20 21  1  0
  7  2  1  0
 17 13  1  0
 21 16  1  0
  1 22  1  0
  1 23  1  0
  1 24  1  0
  5 25  1  0
  5 26  1  0
  5 27  1  0
  6 28  1  0
  8 29  1  0
 10 30  1  0
 14 31  1  0
 18 32  1  0
 18 33  1  0
 19 34  1  0
 19 35  1  0
 20 36  1  0
 20 37  1  0
 21 38  1  0
 21 39  1  0
M  END
$$$$
