
     RDKit          3D

 58 62  0  0  0  0  0  0  0  0999 V2000
   -2.0874   -1.1400   -3.8480 C   0  0  0  0  0  0  0  0  0  0  0  0
   -3.3237   -1.4343   -3.1933 O   0  0  0  0  0  0  0  0  0  0  0  0
   -3.8847   -0.3344   -2.5938 C   0  0  0  0  0  0  0  0  0  0  0  0
   -4.1545    0.8262   -3.3296 C   0  0  0  0  0  0  0  0  0  0  0  0
   -4.7599    1.9227   -2.7174 C   0  0  0  0  0  0  0  0  0  0  0  0
   -5.1092    1.8577   -1.3718 C   0  0  0  0  0  0  0  0  0  0  0  0
   -4.8671    0.6902   -0.6423 C   0  0  0  0  0  0  0  0  0  0  0  0
   -4.2537   -0.4257   -1.2428 C   0  0  0  0  0  0  0  0  0  0  0  0
   -3.9713   -1.6685   -0.4205 C   0  0  0  0  0  0  0  0  0  0  0  0
   -2.7360   -1.5625    0.3599 N   0  0  0  0  0  0  0  0  0  0  0  0
   -2.7650   -0.9578    1.6103 C   0  0  0  0  0  0  0  0  0  0  0  0
   -3.7972   -0.5588    2.1517 O   0  0  0  0  0  0  0  0  0  0  0  0
   -1.4738   -0.7868    2.3377 C   0  0  0  0  0  0  0  0  0  0  0  0
   -1.4896   -0.1366    3.5818 C   0  0  0  0  0  0  0  0  0  0  0  0
   -0.3088    0.0436    4.2973 C   0  0  0  0  0  0  0  0  0  0  0  0
    0.8897   -0.4249    3.7753 C   0  0  0  0  0  0  0  0  0  0  0  0
    0.9170   -1.0753    2.5373 C   0  0  0  0  0  0  0  0  0  0  0  0
   -0.2632   -1.2553    1.8078 C   0  0  0  0  0  0  0  0  0  0  0  0
   -0.3317   -1.9007    0.5531 N   0  0  0  0  0  0  0  0  0  0  0  0
    0.5912   -2.4934   -0.2886 C   0  0  0  0  0  0  0  0  0  0  0  0
    2.3101   -2.5702   -0.0974 S   0  0  0  0  0  0  0  0  0  0  0  0
    2.8057   -1.5637   -1.5302 C   0  0  0  0  0  0  0  0  0  0  0  0
    2.4344   -0.1045   -1.2926 C   0  0  0  0  0  0  0  0  0  0  0  0
    1.3777    0.3370   -1.7556 O   0  0  0  0  0  0  0  0  0  0  0  0
    3.2822    0.6931   -0.5164 N   0  0  0  0  0  0  0  0  0  0  0  0
    4.6581    0.3142   -0.1781 C   0  0  0  0  0  0  0  0  0  0  0  0
    5.1649    0.9921    1.0931 C   0  0  0  0  0  0  0  0  0  0  0  0
    4.9240    2.4978    1.0705 C   0  0  0  0  0  0  0  0  0  0  0  0
    3.4467    2.7852    0.8219 C   0  0  0  0  0  0  0  0  0  0  0  0
    2.9767    2.1273   -0.4706 C   0  0  0  0  0  0  0  0  0  0  0  0
   -0.0108   -3.0027   -1.3400 N   0  0  0  0  0  0  0  0  0  0  0  0
   -1.3442   -2.7315   -1.2289 N   0  0  0  0  0  0  0  0  0  0  0  0
   -1.5332   -2.0523   -0.1190 C   0  0  0  0  0  0  0  0  0  0  0  0
   -2.2684   -0.7086   -4.8418 H   0  0  0  0  0  0  0  0  0  0  0  0
   -1.5486   -2.0828   -3.9908 H   0  0  0  0  0  0  0  0  0  0  0  0
   -1.4530   -0.4702   -3.2477 H   0  0  0  0  0  0  0  0  0  0  0  0
   -3.9107    0.8776   -4.3862 H   0  0  0  0  0  0  0  0  0  0  0  0
   -4.9575    2.8246   -3.2894 H   0  0  0  0  0  0  0  0  0  0  0  0
   -5.5653    2.7162   -0.8875 H   0  0  0  0  0  0  0  0  0  0  0  0
   -5.1593    0.6550    0.4058 H   0  0  0  0  0  0  0  0  0  0  0  0
   -3.9265   -2.5643   -1.0556 H   0  0  0  0  0  0  0  0  0  0  0  0
   -4.8167   -1.8439    0.2620 H   0  0  0  0  0  0  0  0  0  0  0  0
   -2.4246    0.2339    3.9985 H   0  0  0  0  0  0  0  0  0  0  0  0
   -0.3271    0.5489    5.2586 H   0  0  0  0  0  0  0  0  0  0  0  0
    1.8114   -0.2884    4.3363 H   0  0  0  0  0  0  0  0  0  0  0  0
    1.8841   -1.4197    2.1994 H   0  0  0  0  0  0  0  0  0  0  0  0
    3.8755   -1.6741   -1.7249 H   0  0  0  0  0  0  0  0  0  0  0  0
    2.2971   -1.9175   -2.4334 H   0  0  0  0  0  0  0  0  0  0  0  0
    5.2909    0.5755   -1.0371 H   0  0  0  0  0  0  0  0  0  0  0  0
    4.7370   -0.7678   -0.0322 H   0  0  0  0  0  0  0  0  0  0  0  0
    6.2353    0.7846    1.2191 H   0  0  0  0  0  0  0  0  0  0  0  0
    4.6485    0.5571    1.9596 H   0  0  0  0  0  0  0  0  0  0  0  0
    5.5321    2.9595    0.2810 H   0  0  0  0  0  0  0  0  0  0  0  0
    5.2357    2.9399    2.0225 H   0  0  0  0  0  0  0  0  0  0  0  0
    2.8522    2.4001    1.6654 H   0  0  0  0  0  0  0  0  0  0  0  0
    3.2770    3.8701    0.7725 H   0  0  0  0  0  0  0  0  0  0  0  0
    1.8990    2.2964   -0.5801 H   0  0  0  0  0  0  0  0  0  0  0  0
    3.4683    2.5907   -1.3369 H   0  0  0  0  0  0  0  0  0  0  0  0
  1  2  1  0
  2  3  1  0
  3  4  2  0
  4  5  1  0
  5  6  2  0
  6  7  1  0
  7  8  2  0
  8  9  1  0
  9 10  1  0
 10 11  1  0
 11 12  2  0
 11 13  1  0
 13 14  2  0
 14 15  1  0
 15 16  2  0
 16 17  1  0
 17 18  2  0
 18 19  1  0
 19 20  1  0
 20 21  1  0
 21 22  1  0
 22 23  1  0
 23 24  2  0
 23 25  1  0
 25 26  1  0
 26 27  1  0
 27 28  1  0
 28 29  1  0
 29 30  1  0
 20 31  2  0
 31 32  1  0
 32 33  2  0
  8  3  1  0
 33 10  1  0
 18 13  1  0
 33 19  1  0
 30 25  1  0
  1 34  1  0
  1 35  1  0
  1 36  1  0
  4 37  1  0
  5 38  1  0
  6 39  1  0
  7 40  1  0
  9 41  1  0
  9 42  1  0
 14 43  1  0
 15 44  1  0
 16 45  1  0
 17 46  1  0
 22 47  1  0
 22 48  1  0
 26 49  1  0
 26 50  1  0
 27 51  1  0
 27 52  1  0
 28 53  1  0
 28 54  1  0
 29 55  1  0
 29 56  1  0
 30 57  1  0
 30 58  1  0
M  END
$$$$
