
     RDKit          3D

 39 41  0  0  0  0  0  0  0  0999 V2000
   -0.2626   -3.0024    0.4660 O   0  0  0  0  0  0  0  0  0  0  0  0
   -0.9577   -2.0066    0.6610 C   0  0  0  0  0  0  0  0  0  0  0  0
   -2.2901   -1.7904   -0.0509 C   0  0  0  0  0  0  0  0  0  0  0  0
   -2.7708   -0.4735    0.1985 O   0  0  0  0  0  0  0  0  0  0  0  0
   -3.9732   -0.1129   -0.3470 C   0  0  0  0  0  0  0  0  0  0  0  0
   -4.7461   -0.9270   -1.1801 C   0  0  0  0  0  0  0  0  0  0  0  0
   -5.9655   -0.4621   -1.6849 C   0  0  0  0  0  0  0  0  0  0  0  0
   -6.4178    0.8149   -1.3569 C   0  0  0  0  0  0  0  0  0  0  0  0
   -7.9235    1.3713   -1.9753 Cl  0  0  0  0  0  0  0  0  0  0  0  0
   -5.6627    1.6389   -0.5296 C   0  0  0  0  0  0  0  0  0  0  0  0
   -4.4430    1.1759   -0.0316 C   0  0  0  0  0  0  0  0  0  0  0  0
   -3.5298    2.2297    0.9928 Cl  0  0  0  0  0  0  0  0  0  0  0  0
   -0.6240   -1.0009    1.5531 N   0  0  0  0  0  0  0  0  0  0  0  0
    0.7129   -0.9690    1.9885 N   0  0  0  0  0  0  0  0  0  0  0  0
    1.6592   -0.3652    1.1753 C   0  0  0  0  0  0  0  0  0  0  0  0
    1.4154    0.2392    0.1401 O   0  0  0  0  0  0  0  0  0  0  0  0
    3.0102   -0.5487    1.7850 C   0  0  0  0  0  0  0  0  0  0  0  0
    4.1959   -0.1471    1.3057 C   0  0  0  0  0  0  0  0  0  0  0  0
    4.4349    0.5497    0.0397 C   0  0  0  0  0  0  0  0  0  0  0  0
    4.1721   -0.0671   -1.1897 C   0  0  0  0  0  0  0  0  0  0  0  0
    4.4395    0.6028   -2.3861 C   0  0  0  0  0  0  0  0  0  0  0  0
    4.9816    1.8861   -2.3554 C   0  0  0  0  0  0  0  0  0  0  0  0
    5.3239    2.7065   -3.8296 Cl  0  0  0  0  0  0  0  0  0  0  0  0
    5.2599    2.5044   -1.1386 C   0  0  0  0  0  0  0  0  0  0  0  0
    4.9888    1.8358    0.0584 C   0  0  0  0  0  0  0  0  0  0  0  0
    2.8670   -1.3873    3.2983 S   0  0  0  0  0  0  0  0  0  0  0  0
    1.1211   -1.5690    3.1601 C   0  0  0  0  0  0  0  0  0  0  0  0
    0.1842   -2.3235    4.3142 S   0  0  0  0  0  0  0  0  0  0  0  0
   -2.1114   -1.9310   -1.1229 H   0  0  0  0  0  0  0  0  0  0  0  0
   -2.9918   -2.5361    0.3384 H   0  0  0  0  0  0  0  0  0  0  0  0
   -4.4357   -1.9288   -1.4584 H   0  0  0  0  0  0  0  0  0  0  0  0
   -6.5580   -1.1021   -2.3360 H   0  0  0  0  0  0  0  0  0  0  0  0
   -6.0200    2.6327   -0.2715 H   0  0  0  0  0  0  0  0  0  0  0  0
   -1.0519   -0.0913    1.3842 H   0  0  0  0  0  0  0  0  0  0  0  0
    5.1020   -0.3307    1.8814 H   0  0  0  0  0  0  0  0  0  0  0  0
    3.7490   -1.0687   -1.2294 H   0  0  0  0  0  0  0  0  0  0  0  0
    4.2215    0.1185   -3.3335 H   0  0  0  0  0  0  0  0  0  0  0  0
    5.6851    3.5043   -1.1139 H   0  0  0  0  0  0  0  0  0  0  0  0
    5.2116    2.3308    1.0018 H   0  0  0  0  0  0  0  0  0  0  0  0
  1  2  2  0
  2  3  1  0
  3  4  1  0
  4  5  1  0
  5  6  2  0
  6  7  1  0
  7  8  2  0
  8  9  1  0
  8 10  1  0
 10 11  2  0
 11 12  1  0
  2 13  1  0
 13 14  1  0
 14 15  1  0
 15 16  2  0
 15 17  1  0
 17 18  2  3
 18 19  1  0
 19 20  2  0
 20 21  1  0
 21 22  2  0
 22 23  1  0
 22 24  1  0
 24 25  2  0
 17 26  1  0
 26 27  1  0
 27 28  2  0
 11  5  1  0
 27 14  1  0
 25 19  1  0
  3 29  1  0
  3 30  1  0
  6 31  1  0
  7 32  1  0
 10 33  1  0
 13 34  1  0
 18 35  1  0
 20 36  1  0
 21 37  1  0
 24 38  1  0
 25 39  1  0
M  END
$$$$
