
     RDKit          3D

 30 31  0  0  0  0  0  0  0  0999 V2000
   -4.8477   -0.3949    0.3173 C   0  0  0  0  0  0  0  0  0  0  0  0
   -4.0978    0.1695   -0.8746 C   0  0  0  0  0  0  0  0  0  0  0  0
   -2.6928   -0.0802   -0.7392 O   0  0  0  0  0  0  0  0  0  0  0  0
   -1.9856    0.8472   -0.0293 C   0  0  0  0  0  0  0  0  0  0  0  0
   -2.4755    1.8461    0.4854 O   0  0  0  0  0  0  0  0  0  0  0  0
   -0.5855    0.4771    0.0271 C   0  0  0  0  0  0  0  0  0  0  0  0
   -0.1641   -0.6711   -0.6014 O   0  0  0  0  0  0  0  0  0  0  0  0
    1.1652   -0.7615   -0.3931 C   0  0  0  0  0  0  0  0  0  0  0  0
    1.6343    0.2888    0.3584 C   0  0  0  0  0  0  0  0  0  0  0  0
    0.5009    1.1061    0.6390 C   0  0  0  0  0  0  0  0  0  0  0  0
    0.4588    2.3720    1.4174 C   0  0  0  0  0  0  0  0  0  0  0  0
    3.0481    0.3709    0.6880 C   0  0  0  0  0  0  0  0  0  0  0  0
    3.5252    1.3022    1.3303 O   0  0  0  0  0  0  0  0  0  0  0  0
    3.9092   -0.8180    0.2500 C   0  0  0  0  0  0  0  0  0  0  0  0
    3.4057   -1.4801   -1.0451 C   0  0  0  0  0  0  0  0  0  0  0  0
    1.9272   -1.8954   -0.9588 C   0  0  0  0  0  0  0  0  0  0  0  0
   -5.9263   -0.2622    0.1952 H   0  0  0  0  0  0  0  0  0  0  0  0
   -4.6341   -1.4624    0.4354 H   0  0  0  0  0  0  0  0  0  0  0  0
   -4.5381    0.0961    1.2453 H   0  0  0  0  0  0  0  0  0  0  0  0
   -4.4259   -0.3371   -1.7882 H   0  0  0  0  0  0  0  0  0  0  0  0
   -4.3029    1.2378   -1.0092 H   0  0  0  0  0  0  0  0  0  0  0  0
    0.1788    3.2077    0.7678 H   0  0  0  0  0  0  0  0  0  0  0  0
   -0.2760    2.2999    2.2259 H   0  0  0  0  0  0  0  0  0  0  0  0
    1.4240    2.6092    1.8715 H   0  0  0  0  0  0  0  0  0  0  0  0
    4.9347   -0.4635    0.0991 H   0  0  0  0  0  0  0  0  0  0  0  0
    3.9149   -1.5464    1.0690 H   0  0  0  0  0  0  0  0  0  0  0  0
    3.5278   -0.7678   -1.8722 H   0  0  0  0  0  0  0  0  0  0  0  0
    4.0221   -2.3545   -1.2821 H   0  0  0  0  0  0  0  0  0  0  0  0
    1.5542   -2.1667   -1.9516 H   0  0  0  0  0  0  0  0  0  0  0  0
    1.8215   -2.7688   -0.3057 H   0  0  0  0  0  0  0  0  0  0  0  0
  1  2  1  0
  2  3  1  0
  3  4  1  0
  4  5  2  0
  4  6  1  0
  6  7  1  0
  7  8  1  0
  8  9  2  0
  9 10  1  0
 10 11  1  0
  9 12  1  0
 12 13  2  0
 12 14  1  0
 14 15  1  0
 15 16  1  0
 10  6  2  0
 16  8  1  0
  1 17  1  0
  1 18  1  0
  1 19  1  0
  2 20  1  0
  2 21  1  0
 11 22  1  0
 11 23  1  0
 11 24  1  0
 14 25  1  0
 14 26  1  0
 15 27  1  0
 15 28  1  0
 16 29  1  0
 16 30  1  0
M  END
$$$$
