
     RDKit          3D

 53 57  0  0  0  0  0  0  0  0999 V2000
    3.8815    1.9869    0.3607 C   0  0  0  0  0  0  0  0  0  0  0  0
    4.0196    0.8633    1.3469 C   0  0  0  0  0  0  0  0  0  0  0  0
    4.7930    1.0872    2.5020 C   0  0  0  0  0  0  0  0  0  0  0  0
    4.9655    0.0901    3.4649 C   0  0  0  0  0  0  0  0  0  0  0  0
    4.3722   -1.1560    3.2932 C   0  0  0  0  0  0  0  0  0  0  0  0
    3.6024   -1.4024    2.1585 C   0  0  0  0  0  0  0  0  0  0  0  0
    3.4156   -0.3984    1.1895 C   0  0  0  0  0  0  0  0  0  0  0  0
    2.4012   -0.8501   -0.2120 S   0  0  0  0  0  6  0  0  0  0  0  0
    2.8710   -2.1476   -0.6583 O   0  0  0  0  0  0  0  0  0  0  0  0
    2.2943    0.2405   -1.1572 O   0  0  0  0  0  0  0  0  0  0  0  0
    0.8884   -1.1236    0.4830 N   0  0  0  0  0  0  0  0  0  0  0  0
    0.1380    0.0652    0.6858 C   0  0  0  0  0  0  0  0  0  0  0  0
    0.5694    0.8756    1.6663 N   0  0  0  0  0  0  0  0  0  0  0  0
   -0.0961    2.0355    1.7899 C   0  0  0  0  0  0  0  0  0  0  0  0
    0.2980    2.9384    2.7687 C   0  0  0  0  0  0  0  0  0  0  0  0
   -0.3557    4.1596    2.9352 C   0  0  0  0  0  0  0  0  0  0  0  0
   -1.4235    4.4836    2.1086 C   0  0  0  0  0  0  0  0  0  0  0  0
   -1.8298    3.5841    1.1213 C   0  0  0  0  0  0  0  0  0  0  0  0
   -1.1878    2.3659    0.9424 C   0  0  0  0  0  0  0  0  0  0  0  0
   -1.6151    1.5295   -0.0264 N   0  0  0  0  0  0  0  0  0  0  0  0
   -0.9431    0.3672   -0.1659 C   0  0  0  0  0  0  0  0  0  0  0  0
   -1.3282   -0.5884   -1.1484 N   0  0  0  0  0  0  0  0  0  0  0  0
   -1.5432    0.0732   -2.4457 C   0  0  0  0  0  0  0  0  0  0  0  0
   -1.7271   -1.0072   -3.5164 C   0  0  0  0  0  0  0  0  0  0  0  0
   -2.7518   -2.0388   -3.1102 C   0  0  0  0  0  0  0  0  0  0  0  0
   -3.3099   -2.8856   -4.0772 C   0  0  0  0  0  0  0  0  0  0  0  0
   -4.2246   -3.8689   -3.7087 C   0  0  0  0  0  0  0  0  0  0  0  0
   -4.5865   -4.0199   -2.3705 C   0  0  0  0  0  0  0  0  0  0  0  0
   -4.0301   -3.1882   -1.3988 C   0  0  0  0  0  0  0  0  0  0  0  0
   -3.0994   -2.1985   -1.7547 C   0  0  0  0  0  0  0  0  0  0  0  0
   -2.5450   -1.2797   -0.6818 C   0  0  0  0  0  0  0  0  0  0  0  0
    2.8361    2.2877    0.2602 H   0  0  0  0  0  0  0  0  0  0  0  0
    4.4356    2.8710    0.6859 H   0  0  0  0  0  0  0  0  0  0  0  0
    4.2927    1.6995   -0.6109 H   0  0  0  0  0  0  0  0  0  0  0  0
    5.2707    2.0538    2.6621 H   0  0  0  0  0  0  0  0  0  0  0  0
    5.5649    0.2883    4.3501 H   0  0  0  0  0  0  0  0  0  0  0  0
    4.5050   -1.9350    4.0412 H   0  0  0  0  0  0  0  0  0  0  0  0
    3.1409   -2.3809    2.0325 H   0  0  0  0  0  0  0  0  0  0  0  0
    0.3865   -1.7840   -0.1147 H   0  0  0  0  0  0  0  0  0  0  0  0
    1.1359    2.6836    3.4142 H   0  0  0  0  0  0  0  0  0  0  0  0
   -0.0288    4.8517    3.7073 H   0  0  0  0  0  0  0  0  0  0  0  0
   -1.9403    5.4329    2.2270 H   0  0  0  0  0  0  0  0  0  0  0  0
   -2.6646    3.8398    0.4736 H   0  0  0  0  0  0  0  0  0  0  0  0
   -2.4277    0.7255   -2.4206 H   0  0  0  0  0  0  0  0  0  0  0  0
   -0.6776    0.6904   -2.7174 H   0  0  0  0  0  0  0  0  0  0  0  0
   -0.7738   -1.5258   -3.6791 H   0  0  0  0  0  0  0  0  0  0  0  0
   -2.0194   -0.5318   -4.4599 H   0  0  0  0  0  0  0  0  0  0  0  0
   -3.0323   -2.7826   -5.1241 H   0  0  0  0  0  0  0  0  0  0  0  0
   -4.6545   -4.5200   -4.4648 H   0  0  0  0  0  0  0  0  0  0  0  0
   -5.3041   -4.7870   -2.0846 H   0  0  0  0  0  0  0  0  0  0  0  0
   -4.3283   -3.3168   -0.3572 H   0  0  0  0  0  0  0  0  0  0  0  0
   -3.3363   -0.5686   -0.4063 H   0  0  0  0  0  0  0  0  0  0  0  0
   -2.2937   -1.8844    0.2009 H   0  0  0  0  0  0  0  0  0  0  0  0
  1  2  1  0
  2  3  2  0
  3  4  1  0
  4  5  2  0
  5  6  1  0
  6  7  2  0
  7  8  1  0
  8  9  2  0
  8 10  2  0
  8 11  1  0
 11 12  1  0
 12 13  2  0
 13 14  1  0
 14 15  2  0
 15 16  1  0
 16 17  2  0
 17 18  1  0
 18 19  2  0
 19 20  1  0
 20 21  2  0
 21 22  1  0
 22 23  1  0
 23 24  1  0
 24 25  1  0
 25 26  2  0
 26 27  1  0
 27 28  2  0
 28 29  1  0
 29 30  2  0
 30 31  1  0
  7  2  1  0
 21 12  1  0
 31 22  1  0
 19 14  1  0
 30 25  1  0
  1 32  1  0
  1 33  1  0
  1 34  1  0
  3 35  1  0
  4 36  1  0
  5 37  1  0
  6 38  1  0
 11 39  1  0
 15 40  1  0
 16 41  1  0
 17 42  1  0
 18 43  1  0
 23 44  1  0
 23 45  1  0
 24 46  1  0
 24 47  1  0
 26 48  1  0
 27 49  1  0
 28 50  1  0
 29 51  1  0
 31 52  1  0
 31 53  1  0
M  END
$$$$
