
     RDKit          3D

 71 74  0  0  0  0  0  0  0  0999 V2000
    8.7445    0.4297    0.7914 C   0  0  0  0  0  0  0  0  0  0  0  0
    8.2503   -1.0028    0.9426 C   0  0  0  0  0  0  0  0  0  0  0  0
    7.2187   -1.3273   -0.0523 N   0  0  0  0  0  0  0  0  0  0  0  0
    7.5685   -2.3395   -1.0585 C   0  0  0  0  0  0  0  0  0  0  0  0
    8.3500   -1.7253   -2.2109 C   0  0  0  0  0  0  0  0  0  0  0  0
    5.9432   -0.7763   -0.0025 C   0  0  0  0  0  0  0  0  0  0  0  0
    5.4209   -0.1986    1.1675 C   0  0  0  0  0  0  0  0  0  0  0  0
    4.1290    0.3457    1.2232 C   0  0  0  0  0  0  0  0  0  0  0  0
    3.3086    0.3340    0.0980 C   0  0  0  0  0  0  0  0  0  0  0  0
    1.9671    0.9143    0.1713 C   0  0  0  0  0  0  0  0  0  0  0  0
    0.8224    0.2230    0.0322 C   0  0  0  0  0  0  0  0  0  0  0  0
    0.6913   -1.2561   -0.2406 C   0  0  0  0  0  0  0  0  0  0  0  0
   -0.7968   -1.4888   -0.4907 C   0  0  0  0  0  0  0  0  0  0  0  0
   -1.4173   -0.1710   -0.1666 C   0  0  0  0  0  0  0  0  0  0  0  0
   -2.8789   -0.0231   -0.1244 C   0  0  0  0  0  0  0  0  0  0  0  0
   -3.6789   -0.9671   -0.5034 N   0  0  0  0  0  0  0  0  0  0  0  0
   -5.0109   -0.6968   -0.3846 N   0  0  0  0  0  0  0  0  0  0  0  0
   -5.9431   -1.6729   -0.6990 C   0  0  0  0  0  0  0  0  0  0  0  0
   -5.6983   -2.8014   -1.1138 O   0  0  0  0  0  0  0  0  0  0  0  0
   -7.3480   -1.2409   -0.4232 C   0  0  0  0  0  0  0  0  0  0  0  0
   -7.8547    0.0706   -0.7697 C   0  0  0  0  0  0  0  0  0  0  0  0
   -9.1162    0.4098   -0.4739 C   0  0  0  0  0  0  0  0  0  0  0  0
  -10.0241   -0.5584    0.2067 C   0  0  0  0  0  0  0  0  0  0  0  0
  -11.1633   -0.2035    0.4913 O   0  0  0  0  0  0  0  0  0  0  0  0
   -9.4812   -1.8165    0.4656 N   0  0  0  0  0  0  0  0  0  0  0  0
  -10.3061   -2.8330    1.1002 C   0  0  0  0  0  0  0  0  0  0  0  0
   -8.1692   -2.1375    0.1464 C   0  0  0  0  0  0  0  0  0  0  0  0
   -0.5233    0.7866    0.1139 C   0  0  0  0  0  0  0  0  0  0  0  0
   -0.7020    2.1174    0.4450 N   0  0  0  0  0  0  0  0  0  0  0  0
   -1.4514    3.0475   -0.4230 C   0  0  0  0  0  0  0  0  0  0  0  0
   -0.9467    4.4813   -0.2035 C   0  0  0  0  0  0  0  0  0  0  0  0
   -1.0590    4.8663    1.1784 O   0  0  0  0  0  0  0  0  0  0  0  0
   -0.2713    3.9879    2.0001 C   0  0  0  0  0  0  0  0  0  0  0  0
   -0.7296    2.5288    1.8655 C   0  0  0  0  0  0  0  0  0  0  0  0
    3.8064   -0.2076   -1.0837 C   0  0  0  0  0  0  0  0  0  0  0  0
    5.0971   -0.7558   -1.1247 C   0  0  0  0  0  0  0  0  0  0  0  0
    9.5665    0.6179    1.4901 H   0  0  0  0  0  0  0  0  0  0  0  0
    9.1119    0.6171   -0.2227 H   0  0  0  0  0  0  0  0  0  0  0  0
    7.9557    1.1596    0.9999 H   0  0  0  0  0  0  0  0  0  0  0  0
    9.1164   -1.6648    0.8128 H   0  0  0  0  0  0  0  0  0  0  0  0
    7.8963   -1.1923    1.9627 H   0  0  0  0  0  0  0  0  0  0  0  0
    6.6824   -2.8650   -1.4338 H   0  0  0  0  0  0  0  0  0  0  0  0
    8.1799   -3.1232   -0.5911 H   0  0  0  0  0  0  0  0  0  0  0  0
    8.5894   -2.4930   -2.9542 H   0  0  0  0  0  0  0  0  0  0  0  0
    7.7811   -0.9336   -2.7113 H   0  0  0  0  0  0  0  0  0  0  0  0
    9.2910   -1.2903   -1.8608 H   0  0  0  0  0  0  0  0  0  0  0  0
    6.0033   -0.1743    2.0840 H   0  0  0  0  0  0  0  0  0  0  0  0
    3.7741    0.7676    2.1602 H   0  0  0  0  0  0  0  0  0  0  0  0
    1.9435    1.9824    0.3690 H   0  0  0  0  0  0  0  0  0  0  0  0
    1.0252   -1.8355    0.6290 H   0  0  0  0  0  0  0  0  0  0  0  0
    1.2715   -1.5746   -1.1130 H   0  0  0  0  0  0  0  0  0  0  0  0
   -1.1764   -2.2903    0.1518 H   0  0  0  0  0  0  0  0  0  0  0  0
   -0.9805   -1.7615   -1.5359 H   0  0  0  0  0  0  0  0  0  0  0  0
   -3.2597    0.9366    0.2606 H   0  0  0  0  0  0  0  0  0  0  0  0
   -5.2993    0.1622    0.0676 H   0  0  0  0  0  0  0  0  0  0  0  0
   -7.2130    0.7630   -1.3052 H   0  0  0  0  0  0  0  0  0  0  0  0
   -9.5443    1.3721   -0.7262 H   0  0  0  0  0  0  0  0  0  0  0  0
  -10.4076   -3.6851    0.4201 H   0  0  0  0  0  0  0  0  0  0  0  0
   -9.8224   -3.1587    2.0271 H   0  0  0  0  0  0  0  0  0  0  0  0
  -11.3045   -2.4563    1.3406 H   0  0  0  0  0  0  0  0  0  0  0  0
   -7.8348   -3.1427    0.3954 H   0  0  0  0  0  0  0  0  0  0  0  0
   -2.5175    3.0016   -0.1727 H   0  0  0  0  0  0  0  0  0  0  0  0
   -1.3293    2.7748   -1.4782 H   0  0  0  0  0  0  0  0  0  0  0  0
   -1.5474    5.1816   -0.7923 H   0  0  0  0  0  0  0  0  0  0  0  0
    0.0983    4.5857   -0.5200 H   0  0  0  0  0  0  0  0  0  0  0  0
   -0.3817    4.3179    3.0387 H   0  0  0  0  0  0  0  0  0  0  0  0
    0.7850    4.0955    1.7238 H   0  0  0  0  0  0  0  0  0  0  0  0
   -0.0831    1.8874    2.4758 H   0  0  0  0  0  0  0  0  0  0  0  0
   -1.7562    2.4270    2.2381 H   0  0  0  0  0  0  0  0  0  0  0  0
    3.2045   -0.2046   -1.9880 H   0  0  0  0  0  0  0  0  0  0  0  0
    5.4337   -1.1469   -2.0800 H   0  0  0  0  0  0  0  0  0  0  0  0
  1  2  1  0
  2  3  1  0
  3  4  1  0
  4  5  1  0
  3  6  1  0
  6  7  2  0
  7  8  1  0
  8  9  2  0
  9 10  1  0
 10 11  2  3
 11 12  1  0
 12 13  1  0
 13 14  1  0
 14 15  1  0
 15 16  2  3
 16 17  1  0
 17 18  1  0
 18 19  2  0
 18 20  1  0
 20 21  1  0
 21 22  2  0
 22 23  1  0
 23 24  2  0
 23 25  1  0
 25 26  1  0
 25 27  1  0
 14 28  2  0
 28 29  1  0
 29 30  1  0
 30 31  1  0
 31 32  1  0
 32 33  1  0
 33 34  1  0
  9 35  1  0
 35 36  2  0
 36  6  1  0
 28 11  1  0
 34 29  1  0
 27 20  2  0
  1 37  1  0
  1 38  1  0
  1 39  1  0
  2 40  1  0
  2 41  1  0
  4 42  1  0
  4 43  1  0
  5 44  1  0
  5 45  1  0
  5 46  1  0
  7 47  1  0
  8 48  1  0
 10 49  1  0
 12 50  1  0
 12 51  1  0
 13 52  1  0
 13 53  1  0
 15 54  1  0
 17 55  1  0
 21 56  1  0
 22 57  1  0
 26 58  1  0
 26 59  1  0
 26 60  1  0
 27 61  1  0
 30 62  1  0
 30 63  1  0
 31 64  1  0
 31 65  1  0
 33 66  1  0
 33 67  1  0
 34 68  1  0
 34 69  1  0
 35 70  1  0
 36 71  1  0
M  END
$$$$
