
     RDKit          3D

 56 59  0  0  0  0  0  0  0  0999 V2000
   -2.6360   -0.6616    2.0285 O   0  0  0  0  0  0  0  0  0  0  0  0
   -2.5052   -0.6497    0.8027 C   0  0  0  0  0  0  0  0  0  0  0  0
   -1.1765   -0.9990    0.0974 C   0  0  0  0  0  0  0  0  0  0  0  0
   -0.1315    0.0091    0.3515 N   0  0  0  0  0  0  0  0  0  0  0  0
    0.9273   -0.0798   -0.6746 C   0  0  0  0  0  0  0  0  0  0  0  0
    2.2317    0.6127   -0.2307 C   0  0  0  0  0  0  0  0  0  0  0  0
    2.8604   -0.0618    0.9200 N   0  0  0  0  0  0  0  0  0  0  0  0
    3.7713    0.8268    1.6657 C   0  0  0  0  0  0  0  0  0  0  0  0
    4.9380    1.4055    0.8408 C   0  0  0  0  0  0  0  0  0  0  0  0
    5.7763    0.3483    0.3635 O   0  0  0  0  0  0  0  0  0  0  0  0
    6.8502    0.8463   -0.4415 C   0  0  0  0  0  0  0  0  0  0  0  0
    7.6331   -0.3501   -0.9694 C   0  0  0  0  0  0  0  0  0  0  0  0
    8.1495   -1.1083    0.1215 O   0  0  0  0  0  0  0  0  0  0  0  0
    1.8533   -0.6850    1.8011 C   0  0  0  0  0  0  0  0  0  0  0  0
    0.4350   -0.0721    1.7150 C   0  0  0  0  0  0  0  0  0  0  0  0
   -3.5599   -0.4165   -0.0929 N   0  0  0  0  0  0  0  0  0  0  0  0
   -4.6400   -1.3662   -0.1793 C   0  0  0  0  0  0  0  0  0  0  0  0
   -4.6952   -2.4493    0.7279 C   0  0  0  0  0  0  0  0  0  0  0  0
   -5.7164   -3.4037    0.6879 C   0  0  0  0  0  0  0  0  0  0  0  0
   -6.7105   -3.3123   -0.2720 C   0  0  0  0  0  0  0  0  0  0  0  0
   -6.6694   -2.2707   -1.1931 C   0  0  0  0  0  0  0  0  0  0  0  0
   -5.6448   -1.3041   -1.1575 C   0  0  0  0  0  0  0  0  0  0  0  0
   -5.6844   -0.1024   -2.4569 S   0  0  0  0  0  0  0  0  0  0  0  0
   -4.4967    1.0712   -1.8795 C   0  0  0  0  0  0  0  0  0  0  0  0
   -4.4698    2.3025   -2.5656 C   0  0  0  0  0  0  0  0  0  0  0  0
   -3.5757    3.3073   -2.2070 C   0  0  0  0  0  0  0  0  0  0  0  0
   -2.7108    3.0896   -1.1490 C   0  0  0  0  0  0  0  0  0  0  0  0
   -1.6119    4.3260   -0.6759 Cl  0  0  0  0  0  0  0  0  0  0  0  0
   -2.7292    1.8738   -0.4632 C   0  0  0  0  0  0  0  0  0  0  0  0
   -3.6045    0.8254   -0.8257 C   0  0  0  0  0  0  0  0  0  0  0  0
   -0.8681   -1.9996    0.4237 H   0  0  0  0  0  0  0  0  0  0  0  0
   -1.3732   -1.0691   -0.9804 H   0  0  0  0  0  0  0  0  0  0  0  0
    1.1517   -1.1269   -0.9212 H   0  0  0  0  0  0  0  0  0  0  0  0
    0.5662    0.3981   -1.5928 H   0  0  0  0  0  0  0  0  0  0  0  0
    2.9322    0.6081   -1.0737 H   0  0  0  0  0  0  0  0  0  0  0  0
    2.0050    1.6620    0.0017 H   0  0  0  0  0  0  0  0  0  0  0  0
    4.2167    0.2481    2.4858 H   0  0  0  0  0  0  0  0  0  0  0  0
    3.2062    1.6553    2.1121 H   0  0  0  0  0  0  0  0  0  0  0  0
    5.5336    2.0623    1.4854 H   0  0  0  0  0  0  0  0  0  0  0  0
    4.5672    2.0010   -0.0014 H   0  0  0  0  0  0  0  0  0  0  0  0
    6.4540    1.4338   -1.2766 H   0  0  0  0  0  0  0  0  0  0  0  0
    7.4956    1.4736    0.1831 H   0  0  0  0  0  0  0  0  0  0  0  0
    6.9874   -1.0129   -1.5547 H   0  0  0  0  0  0  0  0  0  0  0  0
    8.4707   -0.0253   -1.5921 H   0  0  0  0  0  0  0  0  0  0  0  0
    7.3904   -1.2258    0.7259 H   0  0  0  0  0  0  0  0  0  0  0  0
    2.1818   -0.6883    2.8477 H   0  0  0  0  0  0  0  0  0  0  0  0
    1.7835   -1.7427    1.5148 H   0  0  0  0  0  0  0  0  0  0  0  0
    0.4830    0.9533    2.1017 H   0  0  0  0  0  0  0  0  0  0  0  0
   -0.2174   -0.6177    2.4033 H   0  0  0  0  0  0  0  0  0  0  0  0
   -3.9545   -2.5721    1.5154 H   0  0  0  0  0  0  0  0  0  0  0  0
   -5.7312   -4.2118    1.4154 H   0  0  0  0  0  0  0  0  0  0  0  0
   -7.5097   -4.0474   -0.3106 H   0  0  0  0  0  0  0  0  0  0  0  0
   -7.4472   -2.2202   -1.9538 H   0  0  0  0  0  0  0  0  0  0  0  0
   -5.1535    2.4865   -3.3933 H   0  0  0  0  0  0  0  0  0  0  0  0
   -3.5701    4.2507   -2.7483 H   0  0  0  0  0  0  0  0  0  0  0  0
   -2.0579    1.7752    0.3848 H   0  0  0  0  0  0  0  0  0  0  0  0
  1  2  2  0
  2  3  1  0
  3  4  1  0
  4  5  1  0
  5  6  1  0
  6  7  1  0
  7  8  1  0
  8  9  1  0
  9 10  1  0
 10 11  1  0
 11 12  1  0
 12 13  1  0
  7 14  1  0
 14 15  1  0
  2 16  1  0
 16 17  1  0
 17 18  2  0
 18 19  1  0
 19 20  2  0
 20 21  1  0
 21 22  2  0
 22 23  1  0
 23 24  1  0
 24 25  2  0
 25 26  1  0
 26 27  2  0
 27 28  1  0
 27 29  1  0
 29 30  2  0
 15  4  1  0
 30 16  1  0
 22 17  1  0
 30 24  1  0
  3 31  1  0
  3 32  1  0
  5 33  1  0
  5 34  1  0
  6 35  1  0
  6 36  1  0
  8 37  1  0
  8 38  1  0
  9 39  1  0
  9 40  1  0
 11 41  1  0
 11 42  1  0
 12 43  1  0
 12 44  1  0
 13 45  1  0
 14 46  1  0
 14 47  1  0
 15 48  1  0
 15 49  1  0
 18 50  1  0
 19 51  1  0
 20 52  1  0
 21 53  1  0
 25 54  1  0
 26 55  1  0
 29 56  1  0
M  END
$$$$
