
     RDKit          3D

 34 36  0  0  0  0  0  0  0  0999 V2000
   -0.2691    0.6453    2.2249 O   0  0  0  0  0  0  0  0  0  0  0  0
   -0.5298   -0.1742    1.3484 C   0  0  0  0  0  0  0  0  0  0  0  0
   -1.9201   -0.7899    1.2611 C   0  0  0  0  0  0  0  0  0  0  0  0
   -2.8458   -0.0160    0.3488 C   0  0  0  0  0  0  0  0  0  0  0  0
   -3.3830    1.1933    0.8270 C   0  0  0  0  0  0  0  0  0  0  0  0
   -4.2614    1.9529    0.0487 C   0  0  0  0  0  0  0  0  0  0  0  0
   -4.6252    1.5234   -1.2256 C   0  0  0  0  0  0  0  0  0  0  0  0
   -4.1027    0.3354   -1.7317 C   0  0  0  0  0  0  0  0  0  0  0  0
   -3.2138   -0.4201   -0.9500 C   0  0  0  0  0  0  0  0  0  0  0  0
   -2.6785   -1.6378   -1.5499 N   0  0  0  0  0  4  0  0  0  0  0  0
   -1.4552   -1.8266   -1.4612 O   0  0  0  0  0  0  0  0  0  0  0  0
   -3.4778   -2.3959   -2.1135 O   0  0  0  0  0  1  0  0  0  0  0  0
    0.3259   -0.6273    0.3613 N   0  0  0  0  0  0  0  0  0  0  0  0
    1.6766   -0.2774    0.1592 C   0  0  0  0  0  0  0  0  0  0  0  0
    2.3984    0.5851    1.0066 C   0  0  0  0  0  0  0  0  0  0  0  0
    3.7424    0.8900    0.7511 C   0  0  0  0  0  0  0  0  0  0  0  0
    4.3336    0.3187   -0.3522 C   0  0  0  0  0  0  0  0  0  0  0  0
    3.6380   -0.5249   -1.1827 C   0  0  0  0  0  0  0  0  0  0  0  0
    2.3143   -0.8417   -0.9561 C   0  0  0  0  0  0  0  0  0  0  0  0
    4.4000   -0.9846   -2.2116 O   0  0  0  0  0  0  0  0  0  0  0  0
    5.6583   -0.3383   -1.9261 C   0  0  0  0  0  0  0  0  0  0  0  0
    5.6199    0.4987   -0.7517 O   0  0  0  0  0  0  0  0  0  0  0  0
   -2.3437   -0.8011    2.2748 H   0  0  0  0  0  0  0  0  0  0  0  0
   -1.8512   -1.8482    0.9901 H   0  0  0  0  0  0  0  0  0  0  0  0
   -3.1145    1.5572    1.8198 H   0  0  0  0  0  0  0  0  0  0  0  0
   -4.6620    2.8853    0.4418 H   0  0  0  0  0  0  0  0  0  0  0  0
   -5.3113    2.1182   -1.8245 H   0  0  0  0  0  0  0  0  0  0  0  0
   -4.3867    0.0107   -2.7311 H   0  0  0  0  0  0  0  0  0  0  0  0
   -0.0738   -1.2559   -0.3358 H   0  0  0  0  0  0  0  0  0  0  0  0
    1.9391    1.0355    1.8813 H   0  0  0  0  0  0  0  0  0  0  0  0
    4.2978    1.5538    1.4040 H   0  0  0  0  0  0  0  0  0  0  0  0
    1.7982   -1.5117   -1.6351 H   0  0  0  0  0  0  0  0  0  0  0  0
    5.9395    0.2782   -2.7880 H   0  0  0  0  0  0  0  0  0  0  0  0
    6.4234   -1.1100   -1.7810 H   0  0  0  0  0  0  0  0  0  0  0  0
  1  2  2  0
  2  3  1  0
  3  4  1  0
  4  5  2  0
  5  6  1  0
  6  7  2  0
  7  8  1  0
  8  9  2  0
  9 10  1  0
 10 11  2  0
 10 12  1  0
  2 13  1  0
 13 14  1  0
 14 15  2  0
 15 16  1  0
 16 17  2  0
 17 18  1  0
 18 19  2  0
 18 20  1  0
 20 21  1  0
 21 22  1  0
  9  4  1  0
 19 14  1  0
 22 17  1  0
  3 23  1  0
  3 24  1  0
  5 25  1  0
  6 26  1  0
  7 27  1  0
  8 28  1  0
 13 29  1  0
 15 30  1  0
 16 31  1  0
 19 32  1  0
 21 33  1  0
 21 34  1  0
M  CHG  2  10   1  12  -1
M  END
$$$$
