
     RDKit          3D

 44 46  0  0  0  0  0  0  0  0999 V2000
    5.8180    2.2831   -1.4406 C   0  0  0  0  0  0  0  0  0  0  0  0
    4.9550    1.8949   -0.3801 O   0  0  0  0  0  0  0  0  0  0  0  0
    3.9477    0.9669   -0.7902 C   0  0  0  0  0  0  0  0  0  0  0  0
    4.4732   -0.4641   -0.7052 C   0  0  0  0  0  0  0  0  0  0  0  0
    3.4572   -1.5166   -1.1606 C   0  0  0  0  0  0  0  0  0  0  0  0
    2.2957   -1.6455   -0.2654 N   0  0  0  0  0  0  0  0  0  0  0  0
    2.3364   -2.4536    0.8722 C   0  0  0  0  0  0  0  0  0  0  0  0
    3.6207   -3.3945    1.4044 S   0  0  0  0  0  0  0  0  0  0  0  0
    1.2063   -2.4941    1.6432 N   0  0  0  0  0  0  0  0  0  0  0  0
    0.0407   -1.7913    1.3572 C   0  0  0  0  0  0  0  0  0  0  0  0
   -1.0609   -1.8911    2.1963 C   0  0  0  0  0  0  0  0  0  0  0  0
   -2.2277   -1.1760    1.8937 C   0  0  0  0  0  0  0  0  0  0  0  0
   -2.3293   -0.3491    0.7605 C   0  0  0  0  0  0  0  0  0  0  0  0
   -3.4879    0.3477    0.4723 N   0  0  0  0  0  0  0  0  0  0  0  0
   -4.4871    0.6673    1.5070 C   0  0  0  0  0  0  0  0  0  0  0  0
   -5.2133    1.9783    1.1596 C   0  0  0  0  0  0  0  0  0  0  0  0
   -5.8933    1.9519   -0.1022 O   0  0  0  0  0  0  0  0  0  0  0  0
   -5.2643    1.0975   -1.0676 C   0  0  0  0  0  0  0  0  0  0  0  0
   -3.7504    0.9193   -0.8602 C   0  0  0  0  0  0  0  0  0  0  0  0
   -1.1955   -0.2784   -0.0642 C   0  0  0  0  0  0  0  0  0  0  0  0
   -0.0238   -0.9916    0.2324 C   0  0  0  0  0  0  0  0  0  0  0  0
    1.1623   -0.9027   -0.6375 C   0  0  0  0  0  0  0  0  0  0  0  0
    1.1115   -0.1851   -1.6355 O   0  0  0  0  0  0  0  0  0  0  0  0
    6.3573    1.4225   -1.8450 H   0  0  0  0  0  0  0  0  0  0  0  0
    5.2499    2.7785   -2.2338 H   0  0  0  0  0  0  0  0  0  0  0  0
    6.5489    2.9931   -1.0440 H   0  0  0  0  0  0  0  0  0  0  0  0
    3.5842    1.2103   -1.7953 H   0  0  0  0  0  0  0  0  0  0  0  0
    3.1132    1.0957   -0.0940 H   0  0  0  0  0  0  0  0  0  0  0  0
    4.8097   -0.6578    0.3197 H   0  0  0  0  0  0  0  0  0  0  0  0
    5.3686   -0.5591   -1.3304 H   0  0  0  0  0  0  0  0  0  0  0  0
    3.1220   -1.2816   -2.1779 H   0  0  0  0  0  0  0  0  0  0  0  0
    3.9590   -2.4871   -1.2376 H   0  0  0  0  0  0  0  0  0  0  0  0
    1.2468   -3.0815    2.4690 H   0  0  0  0  0  0  0  0  0  0  0  0
   -1.0384   -2.5187    3.0826 H   0  0  0  0  0  0  0  0  0  0  0  0
   -3.0775   -1.3002    2.5606 H   0  0  0  0  0  0  0  0  0  0  0  0
   -4.0182    0.7960    2.4891 H   0  0  0  0  0  0  0  0  0  0  0  0
   -5.2093   -0.1552    1.5652 H   0  0  0  0  0  0  0  0  0  0  0  0
   -4.5006    2.8113    1.1346 H   0  0  0  0  0  0  0  0  0  0  0  0
   -5.9572    2.2103    1.9284 H   0  0  0  0  0  0  0  0  0  0  0  0
   -5.4611    1.5204   -2.0580 H   0  0  0  0  0  0  0  0  0  0  0  0
   -5.7683    0.1247   -1.0226 H   0  0  0  0  0  0  0  0  0  0  0  0
   -3.3787    0.2599   -1.6528 H   0  0  0  0  0  0  0  0  0  0  0  0
   -3.2457    1.8893   -0.9391 H   0  0  0  0  0  0  0  0  0  0  0  0
   -1.1959    0.3557   -0.9472 H   0  0  0  0  0  0  0  0  0  0  0  0
  1  2  1  0
  2  3  1  0
  3  4  1  0
  4  5  1  0
  5  6  1  0
  6  7  1  0
  7  8  2  0
  7  9  1  0
  9 10  1  0
 10 11  2  0
 11 12  1  0
 12 13  2  0
 13 14  1  0
 14 15  1  0
 15 16  1  0
 16 17  1  0
 17 18  1  0
 18 19  1  0
 13 20  1  0
 20 21  2  0
 21 22  1  0
 22 23  2  0
 22  6  1  0
 21 10  1  0
 19 14  1  0
  1 24  1  0
  1 25  1  0
  1 26  1  0
  3 27  1  0
  3 28  1  0
  4 29  1  0
  4 30  1  0
  5 31  1  0
  5 32  1  0
  9 33  1  0
 11 34  1  0
 12 35  1  0
 15 36  1  0
 15 37  1  0
 16 38  1  0
 16 39  1  0
 18 40  1  0
 18 41  1  0
 19 42  1  0
 19 43  1  0
 20 44  1  0
M  END
$$$$
