
     RDKit          3D

 43 45  0  0  0  0  0  0  0  0999 V2000
    4.2206    0.0953   -0.4032 C   0  0  0  0  0  0  0  0  0  0  0  0
    3.9263    0.0142    1.0927 C   0  0  0  0  0  0  0  0  0  0  0  0
    5.2269   -0.1375    1.8805 C   0  0  0  0  0  0  0  0  0  0  0  0
    2.8624   -1.4359    1.4634 S   0  0  0  0  0  0  0  0  0  0  0  0
    1.2506   -0.8568    0.9482 C   0  0  0  0  0  0  0  0  0  0  0  0
    0.2078   -1.7561    0.9321 C   0  0  0  0  0  0  0  0  0  0  0  0
   -1.0289   -1.2865    0.5351 C   0  0  0  0  0  0  0  0  0  0  0  0
   -2.1258   -2.1711    0.4989 N   0  0  0  0  0  0  0  0  0  0  0  0
   -3.4480   -1.5204    0.3449 C   0  0  0  0  0  0  0  0  0  0  0  0
   -3.8996   -1.5534   -1.1216 C   0  0  0  0  0  0  0  0  0  0  0  0
   -4.0473   -2.8886   -1.6401 O   0  0  0  0  0  0  0  0  0  0  0  0
   -3.2463   -3.8581   -0.9458 C   0  0  0  0  0  0  0  0  0  0  0  0
   -1.9062   -3.2895   -0.4531 C   0  0  0  0  0  0  0  0  0  0  0  0
   -1.1966    0.0009    0.1955 N   0  0  0  0  0  0  0  0  0  0  0  0
   -0.1264    0.8164    0.2420 C   0  0  0  0  0  0  0  0  0  0  0  0
   -0.3194    2.2299   -0.1445 C   0  0  0  0  0  0  0  0  0  0  0  0
    0.7479    3.1497   -0.1307 C   0  0  0  0  0  0  0  0  0  0  0  0
    0.5677    4.4875   -0.4977 C   0  0  0  0  0  0  0  0  0  0  0  0
   -0.6888    4.9393   -0.8888 C   0  0  0  0  0  0  0  0  0  0  0  0
   -1.7632    4.0557   -0.9128 C   0  0  0  0  0  0  0  0  0  0  0  0
   -1.5787    2.7187   -0.5449 C   0  0  0  0  0  0  0  0  0  0  0  0
    1.1054    0.4299    0.6070 N   0  0  0  0  0  0  0  0  0  0  0  0
    4.8670    0.9542   -0.6160 H   0  0  0  0  0  0  0  0  0  0  0  0
    3.3089    0.2246   -0.9949 H   0  0  0  0  0  0  0  0  0  0  0  0
    4.7372   -0.8012   -0.7646 H   0  0  0  0  0  0  0  0  0  0  0  0
    3.4354    0.9325    1.4314 H   0  0  0  0  0  0  0  0  0  0  0  0
    5.8837    0.7208    1.6990 H   0  0  0  0  0  0  0  0  0  0  0  0
    5.7785   -1.0398    1.5924 H   0  0  0  0  0  0  0  0  0  0  0  0
    5.0374   -0.1785    2.9590 H   0  0  0  0  0  0  0  0  0  0  0  0
    0.3459   -2.7848    1.2372 H   0  0  0  0  0  0  0  0  0  0  0  0
   -3.4752   -0.5001    0.7444 H   0  0  0  0  0  0  0  0  0  0  0  0
   -4.1618   -2.0950    0.9487 H   0  0  0  0  0  0  0  0  0  0  0  0
   -3.1846   -1.0259   -1.7631 H   0  0  0  0  0  0  0  0  0  0  0  0
   -4.8682   -1.0554   -1.2297 H   0  0  0  0  0  0  0  0  0  0  0  0
   -3.8356   -4.2474   -0.1073 H   0  0  0  0  0  0  0  0  0  0  0  0
   -3.0710   -4.6907   -1.6346 H   0  0  0  0  0  0  0  0  0  0  0  0
   -1.3341   -4.0844    0.0382 H   0  0  0  0  0  0  0  0  0  0  0  0
   -1.3418   -2.9412   -1.3289 H   0  0  0  0  0  0  0  0  0  0  0  0
    1.7422    2.8246    0.1714 H   0  0  0  0  0  0  0  0  0  0  0  0
    1.4109    5.1731   -0.4763 H   0  0  0  0  0  0  0  0  0  0  0  0
   -0.8305    5.9783   -1.1739 H   0  0  0  0  0  0  0  0  0  0  0  0
   -2.7472    4.4028   -1.2170 H   0  0  0  0  0  0  0  0  0  0  0  0
   -2.4374    2.0499   -0.5728 H   0  0  0  0  0  0  0  0  0  0  0  0
  1  2  1  0
  2  3  1  0
  2  4  1  0
  4  5  1  0
  5  6  2  0
  6  7  1  0
  7  8  1  0
  8  9  1  0
  9 10  1  0
 10 11  1  0
 11 12  1  0
 12 13  1  0
  7 14  2  0
 14 15  1  0
 15 16  1  0
 16 17  2  0
 17 18  1  0
 18 19  2  0
 19 20  1  0
 20 21  2  0
 15 22  2  0
 22  5  1  0
 13  8  1  0
 21 16  1  0
  1 23  1  0
  1 24  1  0
  1 25  1  0
  2 26  1  0
  3 27  1  0
  3 28  1  0
  3 29  1  0
  6 30  1  0
  9 31  1  0
  9 32  1  0
 10 33  1  0
 10 34  1  0
 12 35  1  0
 12 36  1  0
 13 37  1  0
 13 38  1  0
 17 39  1  0
 18 40  1  0
 19 41  1  0
 20 42  1  0
 21 43  1  0
M  END
$$$$
