
     RDKit          3D

 49 52  0  0  0  0  0  0  0  0999 V2000
    6.5829   -0.7849    2.7682 C   0  0  0  0  0  0  0  0  0  0  0  0
    6.4904   -0.7488    1.2699 C   0  0  0  0  0  0  0  0  0  0  0  0
    7.6563   -0.6916    0.4913 C   0  0  0  0  0  0  0  0  0  0  0  0
    7.5720   -0.6672   -0.9018 C   0  0  0  0  0  0  0  0  0  0  0  0
    9.0118   -0.5977   -1.8423 Cl  0  0  0  0  0  0  0  0  0  0  0  0
    6.3333   -0.7061   -1.5375 C   0  0  0  0  0  0  0  0  0  0  0  0
    5.1669   -0.7646   -0.7742 C   0  0  0  0  0  0  0  0  0  0  0  0
    5.2437   -0.7675    0.6233 C   0  0  0  0  0  0  0  0  0  0  0  0
    4.1137   -0.8756    1.4004 O   0  0  0  0  0  0  0  0  0  0  0  0
    3.0898   -0.0295    1.2534 C   0  0  0  0  0  0  0  0  0  0  0  0
    3.1134    1.0418    0.4887 N   0  0  0  0  0  0  0  0  0  0  0  0
    1.9051    1.7023    0.5794 C   0  0  0  0  0  0  0  0  0  0  0  0
    0.9669    1.1293    1.4144 C   0  0  0  0  0  0  0  0  0  0  0  0
   -0.4192    1.5926    1.7381 C   0  0  0  0  0  0  0  0  0  0  0  0
   -1.4549    0.7256    1.1552 N   0  0  0  0  0  0  0  0  0  0  0  0
   -2.7798    1.0646    1.7261 C   0  0  0  0  0  0  0  0  0  0  0  0
   -3.9236    0.2100    1.1338 C   0  0  0  0  0  0  0  0  0  0  0  0
   -3.9643    0.3572   -0.3346 N   0  0  0  0  0  0  0  0  0  0  0  0
   -5.0651   -0.1842   -1.0201 C   0  0  0  0  0  0  0  0  0  0  0  0
   -5.3203    0.2206   -2.3421 C   0  0  0  0  0  0  0  0  0  0  0  0
   -6.4059   -0.2774   -3.0699 C   0  0  0  0  0  0  0  0  0  0  0  0
   -7.2712   -1.1940   -2.4849 C   0  0  0  0  0  0  0  0  0  0  0  0
   -7.0516   -1.6028   -1.1738 C   0  0  0  0  0  0  0  0  0  0  0  0
   -5.9636   -1.0983   -0.4503 C   0  0  0  0  0  0  0  0  0  0  0  0
   -2.6608    0.0246   -0.9575 C   0  0  0  0  0  0  0  0  0  0  0  0
   -1.5256    0.8622   -0.3196 C   0  0  0  0  0  0  0  0  0  0  0  0
    1.6353   -0.2828    2.1268 S   0  0  0  0  0  0  0  0  0  0  0  0
    6.0503    0.0677    3.2018 H   0  0  0  0  0  0  0  0  0  0  0  0
    6.1521   -1.7154    3.1514 H   0  0  0  0  0  0  0  0  0  0  0  0
    7.6228   -0.7337    3.1081 H   0  0  0  0  0  0  0  0  0  0  0  0
    8.6324   -0.6669    0.9699 H   0  0  0  0  0  0  0  0  0  0  0  0
    6.2677   -0.6924   -2.6219 H   0  0  0  0  0  0  0  0  0  0  0  0
    4.2020   -0.8024   -1.2724 H   0  0  0  0  0  0  0  0  0  0  0  0
    1.7586    2.6099    0.0059 H   0  0  0  0  0  0  0  0  0  0  0  0
   -0.5169    1.5995    2.8323 H   0  0  0  0  0  0  0  0  0  0  0  0
   -0.5521    2.6334    1.4139 H   0  0  0  0  0  0  0  0  0  0  0  0
   -2.7626    0.9002    2.8104 H   0  0  0  0  0  0  0  0  0  0  0  0
   -3.0040    2.1267    1.5573 H   0  0  0  0  0  0  0  0  0  0  0  0
   -4.8668    0.5526    1.5770 H   0  0  0  0  0  0  0  0  0  0  0  0
   -3.7685   -0.8406    1.4125 H   0  0  0  0  0  0  0  0  0  0  0  0
   -4.6783    0.9610   -2.8128 H   0  0  0  0  0  0  0  0  0  0  0  0
   -6.5750    0.0605   -4.0884 H   0  0  0  0  0  0  0  0  0  0  0  0
   -8.1166   -1.5833   -3.0452 H   0  0  0  0  0  0  0  0  0  0  0  0
   -7.7253   -2.3165   -0.7073 H   0  0  0  0  0  0  0  0  0  0  0  0
   -5.8307   -1.4556    0.5658 H   0  0  0  0  0  0  0  0  0  0  0  0
   -2.4489   -1.0450   -0.8255 H   0  0  0  0  0  0  0  0  0  0  0  0
   -2.6598    0.2323   -2.0336 H   0  0  0  0  0  0  0  0  0  0  0  0
   -0.5833    0.5341   -0.7727 H   0  0  0  0  0  0  0  0  0  0  0  0
   -1.6726    1.9161   -0.5927 H   0  0  0  0  0  0  0  0  0  0  0  0
  1  2  1  0
  2  3  2  0
  3  4  1  0
  4  5  1  0
  4  6  2  0
  6  7  1  0
  7  8  2  0
  8  9  1  0
  9 10  1  0
 10 11  2  0
 11 12  1  0
 12 13  2  0
 13 14  1  0
 14 15  1  0
 15 16  1  0
 16 17  1  0
 17 18  1  0
 18 19  1  0
 19 20  2  0
 20 21  1  0
 21 22  2  0
 22 23  1  0
 23 24  2  0
 18 25  1  0
 25 26  1  0
 13 27  1  0
  8  2  1  0
 27 10  1  0
 26 15  1  0
 24 19  1  0
  1 28  1  0
  1 29  1  0
  1 30  1  0
  3 31  1  0
  6 32  1  0
  7 33  1  0
 12 34  1  0
 14 35  1  0
 14 36  1  0
 16 37  1  0
 16 38  1  0
 17 39  1  0
 17 40  1  0
 20 41  1  0
 21 42  1  0
 22 43  1  0
 23 44  1  0
 24 45  1  0
 25 46  1  0
 25 47  1  0
 26 48  1  0
 26 49  1  0
M  END
$$$$
