
     RDKit          3D

 44 46  0  0  0  0  0  0  0  0999 V2000
    7.7752   -0.8449    0.7944 C   0  0  0  0  0  0  0  0  0  0  0  0
    6.6808    0.0428    1.3537 C   0  0  0  0  0  0  0  0  0  0  0  0
    5.4859   -0.1937    0.5994 O   0  0  0  0  0  0  0  0  0  0  0  0
    4.4224    0.5495    0.9963 C   0  0  0  0  0  0  0  0  0  0  0  0
    4.4212    1.3635    1.9060 O   0  0  0  0  0  0  0  0  0  0  0  0
    3.2282    0.2405    0.1637 C   0  0  0  0  0  0  0  0  0  0  0  0
    3.2525   -0.7036   -0.8683 C   0  0  0  0  0  0  0  0  0  0  0  0
    2.0974   -0.9556   -1.6194 C   0  0  0  0  0  0  0  0  0  0  0  0
    0.8910   -0.2929   -1.3446 C   0  0  0  0  0  0  0  0  0  0  0  0
   -0.2304   -0.5408   -2.1665 N   0  0  0  0  0  0  0  0  0  0  0  0
   -1.6031   -0.3854   -1.8487 C   0  0  0  0  0  0  0  0  0  0  0  0
   -2.5132   -0.4597   -2.8878 C   0  0  0  0  0  0  0  0  0  0  0  0
   -3.8473   -0.3013   -2.5741 C   0  0  0  0  0  0  0  0  0  0  0  0
   -4.8908   -0.3595   -3.6480 C   0  0  0  0  0  0  0  0  0  0  0  0
   -4.2661   -0.0838   -1.3152 N   0  0  0  0  0  0  0  0  0  0  0  0
   -3.3202   -0.0180   -0.3591 C   0  0  0  0  0  0  0  0  0  0  0  0
   -3.7553    0.2257    1.0319 C   0  0  0  0  0  0  0  0  0  0  0  0
   -5.1105    0.4362    1.3540 C   0  0  0  0  0  0  0  0  0  0  0  0
   -5.5236    0.6683    2.6703 C   0  0  0  0  0  0  0  0  0  0  0  0
   -4.5878    0.6949    3.6997 C   0  0  0  0  0  0  0  0  0  0  0  0
   -3.2417    0.4896    3.4141 C   0  0  0  0  0  0  0  0  0  0  0  0
   -2.8328    0.2581    2.0965 C   0  0  0  0  0  0  0  0  0  0  0  0
   -2.0017   -0.1596   -0.5881 N   0  0  0  0  0  0  0  0  0  0  0  0
    0.8917    0.6755   -0.3339 C   0  0  0  0  0  0  0  0  0  0  0  0
    2.0414    0.9331    0.4225 C   0  0  0  0  0  0  0  0  0  0  0  0
    8.7111   -0.7033    1.3421 H   0  0  0  0  0  0  0  0  0  0  0  0
    7.4854   -1.8990    0.8548 H   0  0  0  0  0  0  0  0  0  0  0  0
    7.9479   -0.6230   -0.2640 H   0  0  0  0  0  0  0  0  0  0  0  0
    6.9746    1.0945    1.2620 H   0  0  0  0  0  0  0  0  0  0  0  0
    6.5073   -0.2026    2.4075 H   0  0  0  0  0  0  0  0  0  0  0  0
    4.1619   -1.2499   -1.1054 H   0  0  0  0  0  0  0  0  0  0  0  0
    2.1522   -1.6865   -2.4226 H   0  0  0  0  0  0  0  0  0  0  0  0
   -0.1080   -1.3744   -2.7307 H   0  0  0  0  0  0  0  0  0  0  0  0
   -2.1919   -0.6202   -3.9088 H   0  0  0  0  0  0  0  0  0  0  0  0
   -4.8504   -1.3240   -4.1637 H   0  0  0  0  0  0  0  0  0  0  0  0
   -4.7316    0.4434   -4.3742 H   0  0  0  0  0  0  0  0  0  0  0  0
   -5.8935   -0.2425   -3.2243 H   0  0  0  0  0  0  0  0  0  0  0  0
   -5.8638    0.4211    0.5676 H   0  0  0  0  0  0  0  0  0  0  0  0
   -6.5766    0.8278    2.8865 H   0  0  0  0  0  0  0  0  0  0  0  0
   -4.9070    0.8748    4.7227 H   0  0  0  0  0  0  0  0  0  0  0  0
   -2.5053    0.5075    4.2136 H   0  0  0  0  0  0  0  0  0  0  0  0
   -1.7730    0.0981    1.9021 H   0  0  0  0  0  0  0  0  0  0  0  0
   -0.0045    1.2537   -0.1228 H   0  0  0  0  0  0  0  0  0  0  0  0
    2.0019    1.6847    1.2088 H   0  0  0  0  0  0  0  0  0  0  0  0
  1  2  1  0
  2  3  1  0
  3  4  1  0
  4  5  2  0
  4  6  1  0
  6  7  2  0
  7  8  1  0
  8  9  2  0
  9 10  1  0
 10 11  1  0
 11 12  2  0
 12 13  1  0
 13 14  1  0
 13 15  2  0
 15 16  1  0
 16 17  1  0
 17 18  2  0
 18 19  1  0
 19 20  2  0
 20 21  1  0
 21 22  2  0
 16 23  2  0
  9 24  1  0
 24 25  2  0
 25  6  1  0
 23 11  1  0
 22 17  1  0
  1 26  1  0
  1 27  1  0
  1 28  1  0
  2 29  1  0
  2 30  1  0
  7 31  1  0
  8 32  1  0
 10 33  1  0
 12 34  1  0
 14 35  1  0
 14 36  1  0
 14 37  1  0
 18 38  1  0
 19 39  1  0
 20 40  1  0
 21 41  1  0
 22 42  1  0
 24 43  1  0
 25 44  1  0
M  END
$$$$
