
     RDKit          3D

 50 53  0  0  0  0  0  0  0  0999 V2000
   -6.5904    2.4532    2.0464 C   0  0  0  0  0  0  0  0  0  0  0  0
   -5.4200    1.8380    1.3346 C   0  0  0  0  0  0  0  0  0  0  0  0
   -4.4880    2.6472    0.6768 C   0  0  0  0  0  0  0  0  0  0  0  0
   -3.3755    2.0812    0.0484 C   0  0  0  0  0  0  0  0  0  0  0  0
   -3.1805    0.6949    0.0739 C   0  0  0  0  0  0  0  0  0  0  0  0
   -1.9194    0.0692   -0.6215 C   0  0  0  0  0  0  0  0  0  0  0  0
   -0.8696    0.7671   -1.2085 C   0  0  0  0  0  0  0  0  0  0  0  0
    0.0809   -0.1443   -1.6683 N   0  0  0  0  0  4  0  0  0  0  0  0
    1.3515    0.1617   -2.3414 C   0  0  0  0  0  0  0  0  0  0  0  0
    2.5269   -0.4902   -1.6066 C   0  0  0  0  0  0  0  0  0  0  0  0
    2.8142   -1.6601   -1.8523 O   0  0  0  0  0  0  0  0  0  0  0  0
    3.1042    0.3254   -0.6464 N   0  0  0  0  0  0  0  0  0  0  0  0
    4.1835    0.0128    0.2193 C   0  0  0  0  0  0  0  0  0  0  0  0
    4.8882   -1.1948    0.1368 C   0  0  0  0  0  0  0  0  0  0  0  0
    5.9437   -1.4743    1.0096 C   0  0  0  0  0  0  0  0  0  0  0  0
    6.3099   -0.5508    1.9798 C   0  0  0  0  0  0  0  0  0  0  0  0
    5.6257    0.6584    2.0741 C   0  0  0  0  0  0  0  0  0  0  0  0
    4.5655    0.9592    1.1986 C   0  0  0  0  0  0  0  0  0  0  0  0
    3.8799    2.2908    1.3580 C   0  0  0  0  0  0  0  0  0  0  0  0
   -0.3796   -1.3673   -1.4071 C   0  0  0  0  0  0  0  0  0  0  0  0
   -1.5610   -1.2538   -0.8030 N   0  0  0  0  0  0  0  0  0  0  0  0
   -2.1527   -2.5562   -0.5197 C   0  0  0  0  0  0  0  0  0  0  0  0
   -1.2944   -3.5326   -1.3684 C   0  0  0  0  0  0  0  0  0  0  0  0
    0.0259   -2.7780   -1.6215 C   0  0  0  0  0  0  0  0  0  0  0  0
   -4.1018   -0.1148    0.7397 C   0  0  0  0  0  0  0  0  0  0  0  0
   -5.2118    0.4552    1.3712 C   0  0  0  0  0  0  0  0  0  0  0  0
   -6.9553    3.3313    1.5057 H   0  0  0  0  0  0  0  0  0  0  0  0
   -6.2938    2.7557    3.0559 H   0  0  0  0  0  0  0  0  0  0  0  0
   -7.4236    1.7473    2.1215 H   0  0  0  0  0  0  0  0  0  0  0  0
   -4.6257    3.7281    0.6531 H   0  0  0  0  0  0  0  0  0  0  0  0
   -2.6878    2.7537   -0.4540 H   0  0  0  0  0  0  0  0  0  0  0  0
   -0.6701    1.8171   -1.3427 H   0  0  0  0  0  0  0  0  0  0  0  0
    1.3062   -0.2250   -3.3647 H   0  0  0  0  0  0  0  0  0  0  0  0
    1.4878    1.2472   -2.3946 H   0  0  0  0  0  0  0  0  0  0  0  0
    2.6998    1.2422   -0.5096 H   0  0  0  0  0  0  0  0  0  0  0  0
    4.6565   -1.9507   -0.6064 H   0  0  0  0  0  0  0  0  0  0  0  0
    6.4812   -2.4162    0.9261 H   0  0  0  0  0  0  0  0  0  0  0  0
    7.1305   -0.7692    2.6595 H   0  0  0  0  0  0  0  0  0  0  0  0
    5.9301    1.3698    2.8413 H   0  0  0  0  0  0  0  0  0  0  0  0
    4.3370    2.8902    2.1531 H   0  0  0  0  0  0  0  0  0  0  0  0
    2.8266    2.1469    1.6200 H   0  0  0  0  0  0  0  0  0  0  0  0
    3.9546    2.8702    0.4316 H   0  0  0  0  0  0  0  0  0  0  0  0
   -2.0477   -2.7618    0.5501 H   0  0  0  0  0  0  0  0  0  0  0  0
   -3.2016   -2.5884   -0.8242 H   0  0  0  0  0  0  0  0  0  0  0  0
   -1.7973   -3.7043   -2.3288 H   0  0  0  0  0  0  0  0  0  0  0  0
   -1.1497   -4.5033   -0.8849 H   0  0  0  0  0  0  0  0  0  0  0  0
    0.7781   -3.0070   -0.8640 H   0  0  0  0  0  0  0  0  0  0  0  0
    0.4057   -2.8935   -2.6363 H   0  0  0  0  0  0  0  0  0  0  0  0
   -3.9815   -1.1887    0.8127 H   0  0  0  0  0  0  0  0  0  0  0  0
   -5.9146   -0.1882    1.9023 H   0  0  0  0  0  0  0  0  0  0  0  0
  1  2  1  0
  2  3  2  0
  3  4  1  0
  4  5  2  0
  5  6  1  0
  6  7  2  0
  7  8  1  0
  8  9  1  0
  9 10  1  0
 10 11  2  0
 10 12  1  0
 12 13  1  0
 13 14  2  0
 14 15  1  0
 15 16  2  0
 16 17  1  0
 17 18  2  0
 18 19  1  0
  8 20  2  0
 20 21  1  0
 21 22  1  0
 22 23  1  0
 23 24  1  0
  5 25  1  0
 25 26  2  0
 26  2  1  0
 21  6  1  0
 18 13  1  0
 24 20  1  0
  1 27  1  0
  1 28  1  0
  1 29  1  0
  3 30  1  0
  4 31  1  0
  7 32  1  0
  9 33  1  0
  9 34  1  0
 12 35  1  0
 14 36  1  0
 15 37  1  0
 16 38  1  0
 17 39  1  0
 19 40  1  0
 19 41  1  0
 19 42  1  0
 22 43  1  0
 22 44  1  0
 23 45  1  0
 23 46  1  0
 24 47  1  0
 24 48  1  0
 25 49  1  0
 26 50  1  0
M  CHG  1   8   1
M  END
$$$$
