
     RDKit          3D

 43 45  0  0  0  0  0  0  0  0999 V2000
    5.6148    2.2566   -1.8844 C   0  0  0  0  0  0  0  0  0  0  0  0
    5.0176    0.8619   -1.9831 C   0  0  0  0  0  0  0  0  0  0  0  0
    3.9676    0.6244   -0.8986 C   0  0  0  0  0  0  0  0  0  0  0  0
    3.3680   -0.7795   -1.0057 C   0  0  0  0  0  0  0  0  0  0  0  0
    2.3856   -1.0507    0.0400 N   0  0  0  0  0  0  0  0  0  0  0  0
    1.0488   -0.5077   -0.1334 C   0  0  0  0  0  0  0  0  0  0  0  0
    0.0643   -1.0136    0.8651 C   0  0  0  0  0  0  0  0  0  0  0  0
   -1.3179   -0.8797    0.6953 C   0  0  0  0  0  0  0  0  0  0  0  0
   -2.1737   -1.2980    1.7157 C   0  0  0  0  0  0  0  0  0  0  0  0
   -3.6477   -1.2234    1.6211 C   0  0  0  0  0  0  0  0  0  0  0  0
   -4.3296   -2.0440    2.2307 O   0  0  0  0  0  0  0  0  0  0  0  0
   -4.3355   -0.2172    0.7811 C   0  0  0  0  0  0  0  0  0  0  0  0
   -5.4025   -0.6580   -0.0097 C   0  0  0  0  0  0  0  0  0  0  0  0
   -6.0905    0.2557   -0.7973 C   0  0  0  0  0  0  0  0  0  0  0  0
   -7.1027   -0.1655   -1.5658 F   0  0  0  0  0  0  0  0  0  0  0  0
   -5.7452    1.6035   -0.8030 C   0  0  0  0  0  0  0  0  0  0  0  0
   -4.6977    2.0540    0.0018 C   0  0  0  0  0  0  0  0  0  0  0  0
   -3.9992    1.1437    0.7984 C   0  0  0  0  0  0  0  0  0  0  0  0
   -2.9984    1.5942    1.6110 O   0  0  0  0  0  0  0  0  0  0  0  0
   -1.6036   -1.8475    2.8572 C   0  0  0  0  0  0  0  0  0  0  0  0
   -0.2665   -1.9760    3.0500 N   0  0  0  0  0  0  0  0  0  0  0  0
    0.5310   -1.5606    2.0474 C   0  0  0  0  0  0  0  0  0  0  0  0
    1.8927   -1.6990    2.2269 N   0  0  0  0  0  0  0  0  0  0  0  0
    2.8359   -1.4836    1.2728 C   0  0  0  0  0  0  0  0  0  0  0  0
    4.0198   -1.7041    1.5209 O   0  0  0  0  0  0  0  0  0  0  0  0
    6.1032    2.4066   -0.9163 H   0  0  0  0  0  0  0  0  0  0  0  0
    4.8425    3.0234   -2.0025 H   0  0  0  0  0  0  0  0  0  0  0  0
    6.3633    2.4048   -2.6691 H   0  0  0  0  0  0  0  0  0  0  0  0
    5.8200    0.1204   -1.8936 H   0  0  0  0  0  0  0  0  0  0  0  0
    4.5655    0.7335   -2.9735 H   0  0  0  0  0  0  0  0  0  0  0  0
    4.4210    0.7616    0.0907 H   0  0  0  0  0  0  0  0  0  0  0  0
    3.1738    1.3757   -0.9866 H   0  0  0  0  0  0  0  0  0  0  0  0
    4.1690   -1.5254   -0.9361 H   0  0  0  0  0  0  0  0  0  0  0  0
    2.8829   -0.9219   -1.9783 H   0  0  0  0  0  0  0  0  0  0  0  0
    0.7118   -0.7691   -1.1430 H   0  0  0  0  0  0  0  0  0  0  0  0
    1.1125    0.5832   -0.0514 H   0  0  0  0  0  0  0  0  0  0  0  0
   -1.7097   -0.4518   -0.2224 H   0  0  0  0  0  0  0  0  0  0  0  0
   -5.7024   -1.7024   -0.0131 H   0  0  0  0  0  0  0  0  0  0  0  0
   -6.3033    2.2949   -1.4278 H   0  0  0  0  0  0  0  0  0  0  0  0
   -4.4467    3.1109   -0.0017 H   0  0  0  0  0  0  0  0  0  0  0  0
   -3.0199    2.5664    1.6468 H   0  0  0  0  0  0  0  0  0  0  0  0
   -2.2206   -2.2074    3.6776 H   0  0  0  0  0  0  0  0  0  0  0  0
    2.2015   -2.0892    3.1044 H   0  0  0  0  0  0  0  0  0  0  0  0
  1  2  1  0
  2  3  1  0
  3  4  1  0
  4  5  1  0
  5  6  1  0
  6  7  1  0
  7  8  2  0
  8  9  1  0
  9 10  1  0
 10 11  2  0
 10 12  1  0
 12 13  2  0
 13 14  1  0
 14 15  1  0
 14 16  2  0
 16 17  1  0
 17 18  2  0
 18 19  1  0
  9 20  2  0
 20 21  1  0
 21 22  2  0
 22 23  1  0
 23 24  1  0
 24 25  2  0
 24  5  1  0
 22  7  1  0
 18 12  1  0
  1 26  1  0
  1 27  1  0
  1 28  1  0
  2 29  1  0
  2 30  1  0
  3 31  1  0
  3 32  1  0
  4 33  1  0
  4 34  1  0
  6 35  1  0
  6 36  1  0
  8 37  1  0
 13 38  1  0
 16 39  1  0
 17 40  1  0
 19 41  1  0
 20 42  1  0
 23 43  1  0
M  END
$$$$
