
     RDKit          3D

 38 40  0  0  0  0  0  0  0  0999 V2000
   -2.8965    2.7715   -0.8619 C   0  0  0  0  0  0  0  0  0  0  0  0
   -3.5114    1.5246   -0.3196 C   0  0  0  0  0  0  0  0  0  0  0  0
   -4.8548    1.3070   -0.0805 C   0  0  0  0  0  0  0  0  0  0  0  0
   -5.0122   -0.0318    0.3109 C   0  0  0  0  0  0  0  0  0  0  0  0
   -3.7611   -0.6179    0.3322 C   0  0  0  0  0  0  0  0  0  0  0  0
   -3.4347   -2.0006    0.7867 C   0  0  0  0  0  0  0  0  0  0  0  0
   -2.8225    0.3390   -0.0578 N   0  0  0  0  0  0  0  0  0  0  0  0
   -1.4197    0.1403   -0.1691 C   0  0  0  0  0  0  0  0  0  0  0  0
   -0.8913   -1.0140   -0.7355 C   0  0  0  0  0  0  0  0  0  0  0  0
    0.4953   -1.1558   -0.8236 C   0  0  0  0  0  0  0  0  0  0  0  0
    1.3388   -0.1545   -0.3374 C   0  0  0  0  0  0  0  0  0  0  0  0
    2.7347   -0.3052   -0.4520 N   0  0  0  0  0  0  0  0  0  0  0  0
    3.4762    0.9274   -0.1001 C   0  0  0  0  0  0  0  0  0  0  0  0
    4.9801    0.7061   -0.3242 C   0  0  0  0  0  0  0  0  0  0  0  0
    5.4668   -0.4105    0.4400 O   0  0  0  0  0  0  0  0  0  0  0  0
    4.7665   -1.6068    0.0647 C   0  0  0  0  0  0  0  0  0  0  0  0
    3.2506   -1.4756    0.2918 C   0  0  0  0  0  0  0  0  0  0  0  0
    0.8240    0.9724    0.1999 N   0  0  0  0  0  0  0  0  0  0  0  0
   -0.5246    1.0965    0.2808 C   0  0  0  0  0  0  0  0  0  0  0  0
   -3.6540    3.3805   -1.3680 H   0  0  0  0  0  0  0  0  0  0  0  0
   -2.1181    2.5543   -1.5995 H   0  0  0  0  0  0  0  0  0  0  0  0
   -2.4757    3.3789   -0.0553 H   0  0  0  0  0  0  0  0  0  0  0  0
   -5.6423    2.0402   -0.2042 H   0  0  0  0  0  0  0  0  0  0  0  0
   -5.9409   -0.5222    0.5750 H   0  0  0  0  0  0  0  0  0  0  0  0
   -3.3225   -2.6737   -0.0682 H   0  0  0  0  0  0  0  0  0  0  0  0
   -4.2439   -2.3975    1.4102 H   0  0  0  0  0  0  0  0  0  0  0  0
   -2.5245   -2.0257    1.3932 H   0  0  0  0  0  0  0  0  0  0  0  0
   -1.5247   -1.7841   -1.1631 H   0  0  0  0  0  0  0  0  0  0  0  0
    0.9099   -2.0340   -1.3072 H   0  0  0  0  0  0  0  0  0  0  0  0
    3.1504    1.7685   -0.7238 H   0  0  0  0  0  0  0  0  0  0  0  0
    3.3118    1.1787    0.9563 H   0  0  0  0  0  0  0  0  0  0  0  0
    5.5379    1.5926   -0.0063 H   0  0  0  0  0  0  0  0  0  0  0  0
    5.2003    0.5339   -1.3846 H   0  0  0  0  0  0  0  0  0  0  0  0
    5.1625   -2.4264    0.6725 H   0  0  0  0  0  0  0  0  0  0  0  0
    4.9876   -1.8326   -0.9855 H   0  0  0  0  0  0  0  0  0  0  0  0
    3.0555   -1.3436    1.3643 H   0  0  0  0  0  0  0  0  0  0  0  0
    2.7749   -2.4066   -0.0345 H   0  0  0  0  0  0  0  0  0  0  0  0
   -0.8487    2.0070    0.7743 H   0  0  0  0  0  0  0  0  0  0  0  0
  1  2  1  0
  2  3  2  0
  3  4  1  0
  4  5  2  0
  5  6  1  0
  5  7  1  0
  7  8  1  0
  8  9  2  0
  9 10  1  0
 10 11  2  0
 11 12  1  0
 12 13  1  0
 13 14  1  0
 14 15  1  0
 15 16  1  0
 16 17  1  0
 11 18  1  0
 18 19  2  0
  7  2  1  0
 19  8  1  0
 17 12  1  0
  1 20  1  0
  1 21  1  0
  1 22  1  0
  3 23  1  0
  4 24  1  0
  6 25  1  0
  6 26  1  0
  6 27  1  0
  9 28  1  0
 10 29  1  0
 13 30  1  0
 13 31  1  0
 14 32  1  0
 14 33  1  0
 16 34  1  0
 16 35  1  0
 17 36  1  0
 17 37  1  0
 19 38  1  0
M  END
$$$$
