
     RDKit          3D

 44 46  0  0  0  0  0  0  0  0999 V2000
   -4.2429   -2.1708    0.0391 C   0  0  0  0  0  0  0  0  0  0  0  0
   -5.2774   -1.0832   -0.0592 C   0  0  0  0  0  0  0  0  0  0  0  0
   -6.6393   -1.4212   -0.0606 C   0  0  0  0  0  0  0  0  0  0  0  0
   -7.6150   -0.4297   -0.1421 C   0  0  0  0  0  0  0  0  0  0  0  0
   -7.2389    0.9075   -0.2189 C   0  0  0  0  0  0  0  0  0  0  0  0
   -5.8866    1.2585   -0.2129 C   0  0  0  0  0  0  0  0  0  0  0  0
   -4.8999    0.2705   -0.1324 C   0  0  0  0  0  0  0  0  0  0  0  0
   -3.5508    0.5097   -0.1165 O   0  0  0  0  0  0  0  0  0  0  0  0
   -3.1233    1.8669   -0.1921 C   0  0  0  0  0  0  0  0  0  0  0  0
   -1.5942    1.9591   -0.1773 C   0  0  0  0  0  0  0  0  0  0  0  0
   -1.0402    3.0543   -0.2099 O   0  0  0  0  0  0  0  0  0  0  0  0
   -0.9884    0.7255   -0.1308 N   0  0  0  0  0  0  0  0  0  0  0  0
    0.3524    0.4501   -0.1111 C   0  0  0  0  0  0  0  0  0  0  0  0
    0.8148   -0.7796   -0.0670 N   0  0  0  0  0  0  0  0  0  0  0  0
    2.1943   -0.8184   -0.0564 N   0  0  0  0  0  0  0  0  0  0  0  0
    2.7226    0.3885   -0.0926 C   0  0  0  0  0  0  0  0  0  0  0  0
    4.1978    0.6884   -0.0888 C   0  0  0  0  0  0  0  0  0  0  0  0
    4.9201   -0.0538   -1.2324 C   0  0  0  0  0  0  0  0  0  0  0  0
    5.5675   -1.3533   -0.7635 C   0  0  0  0  0  0  0  0  0  0  0  0
    6.6015   -1.1124    0.3379 C   0  0  0  0  0  0  0  0  0  0  0  0
    6.2944    0.1064    1.2091 C   0  0  0  0  0  0  0  0  0  0  0  0
    4.7973    0.3743    1.2960 C   0  0  0  0  0  0  0  0  0  0  0  0
    1.5579    1.6517   -0.1406 S   0  0  0  0  0  0  0  0  0  0  0  0
   -4.6994   -3.1654   -0.0012 H   0  0  0  0  0  0  0  0  0  0  0  0
   -3.6988   -2.0877    0.9853 H   0  0  0  0  0  0  0  0  0  0  0  0
   -3.5351   -2.1003   -0.7936 H   0  0  0  0  0  0  0  0  0  0  0  0
   -6.9478   -2.4622    0.0030 H   0  0  0  0  0  0  0  0  0  0  0  0
   -8.6677   -0.7013   -0.1440 H   0  0  0  0  0  0  0  0  0  0  0  0
   -8.0001    1.6814   -0.2819 H   0  0  0  0  0  0  0  0  0  0  0  0
   -5.6428    2.3140   -0.2717 H   0  0  0  0  0  0  0  0  0  0  0  0
   -3.4880    2.4270    0.6767 H   0  0  0  0  0  0  0  0  0  0  0  0
   -3.4621    2.3203   -1.1307 H   0  0  0  0  0  0  0  0  0  0  0  0
   -1.5898   -0.0910   -0.1058 H   0  0  0  0  0  0  0  0  0  0  0  0
    4.3378    1.7617   -0.2791 H   0  0  0  0  0  0  0  0  0  0  0  0
    4.2409   -0.2547   -2.0700 H   0  0  0  0  0  0  0  0  0  0  0  0
    5.7108    0.5967   -1.6301 H   0  0  0  0  0  0  0  0  0  0  0  0
    4.7911   -2.0327   -0.3909 H   0  0  0  0  0  0  0  0  0  0  0  0
    6.0454   -1.8633   -1.6078 H   0  0  0  0  0  0  0  0  0  0  0  0
    6.6621   -2.0110    0.9637 H   0  0  0  0  0  0  0  0  0  0  0  0
    7.5955   -0.9841   -0.1072 H   0  0  0  0  0  0  0  0  0  0  0  0
    6.7138   -0.0420    2.2110 H   0  0  0  0  0  0  0  0  0  0  0  0
    6.7942    0.9889    0.7901 H   0  0  0  0  0  0  0  0  0  0  0  0
    4.6074    1.2150    1.9747 H   0  0  0  0  0  0  0  0  0  0  0  0
    4.3088   -0.4984    1.7493 H   0  0  0  0  0  0  0  0  0  0  0  0
  1  2  1  0
  2  3  2  0
  3  4  1  0
  4  5  2  0
  5  6  1  0
  6  7  2  0
  7  8  1  0
  8  9  1  0
  9 10  1  0
 10 11  2  0
 10 12  1  0
 12 13  1  0
 13 14  2  0
 14 15  1  0
 15 16  2  0
 16 17  1  0
 17 18  1  0
 18 19  1  0
 19 20  1  0
 20 21  1  0
 21 22  1  0
 16 23  1  0
  7  2  1  0
 23 13  1  0
 22 17  1  0
  1 24  1  0
  1 25  1  0
  1 26  1  0
  3 27  1  0
  4 28  1  0
  5 29  1  0
  6 30  1  0
  9 31  1  0
  9 32  1  0
 12 33  1  0
 17 34  1  0
 18 35  1  0
 18 36  1  0
 19 37  1  0
 19 38  1  0
 20 39  1  0
 20 40  1  0
 21 41  1  0
 21 42  1  0
 22 43  1  0
 22 44  1  0
M  END
$$$$
