
     RDKit          3D

 51 54  0  0  0  0  0  0  0  0999 V2000
   -2.8822   -3.2508   -4.1398 C   0  0  0  0  0  0  0  0  0  0  0  0
   -2.7247   -3.0695   -2.7386 O   0  0  0  0  0  0  0  0  0  0  0  0
   -2.2788   -1.8470   -2.3173 C   0  0  0  0  0  0  0  0  0  0  0  0
   -1.9057   -0.7819   -3.1409 C   0  0  0  0  0  0  0  0  0  0  0  0
   -1.4630    0.4192   -2.5776 C   0  0  0  0  0  0  0  0  0  0  0  0
   -1.3853    0.5439   -1.1891 C   0  0  0  0  0  0  0  0  0  0  0  0
   -0.9156    1.8176   -0.6064 C   0  0  0  0  0  0  0  0  0  0  0  0
   -1.7627    2.7955   -0.5530 N   0  0  0  0  0  0  0  0  0  0  0  0
   -1.3495    4.0143   -0.0062 C   0  0  0  0  0  0  0  0  0  0  0  0
   -2.2549    5.0777    0.0324 C   0  0  0  0  0  0  0  0  0  0  0  0
   -1.8829    6.3115    0.5743 C   0  0  0  0  0  0  0  0  0  0  0  0
   -0.5979    6.4910    1.0858 C   0  0  0  0  0  0  0  0  0  0  0  0
    0.3142    5.4368    1.0536 C   0  0  0  0  0  0  0  0  0  0  0  0
   -0.0697    4.2066    0.5054 C   0  0  0  0  0  0  0  0  0  0  0  0
    0.8677    3.0733    0.4473 C   0  0  0  0  0  0  0  0  0  0  0  0
    1.9923    3.1897    0.9299 O   0  0  0  0  0  0  0  0  0  0  0  0
    0.3991    1.9070   -0.1558 N   0  0  0  0  0  0  0  0  0  0  0  0
    1.3587    0.8001   -0.2517 C   0  0  0  0  0  0  0  0  0  0  0  0
    1.5340    0.0561    1.0758 C   0  0  0  0  0  0  0  0  0  0  0  0
    2.1648   -1.1963    0.7969 O   0  0  0  0  0  0  0  0  0  0  0  0
    2.1569   -2.1231    1.8067 C   0  0  0  0  0  0  0  0  0  0  0  0
    2.0241   -1.8085    3.1628 C   0  0  0  0  0  0  0  0  0  0  0  0
    2.0397   -2.8204    4.1255 C   0  0  0  0  0  0  0  0  0  0  0  0
    2.1954   -4.1493    3.7405 C   0  0  0  0  0  0  0  0  0  0  0  0
    2.3435   -4.4699    2.3914 C   0  0  0  0  0  0  0  0  0  0  0  0
    2.3300   -3.4628    1.4146 C   0  0  0  0  0  0  0  0  0  0  0  0
    2.4943   -3.8253   -0.0360 C   0  0  0  0  0  0  0  0  0  0  0  0
   -1.7743   -0.5043   -0.3562 C   0  0  0  0  0  0  0  0  0  0  0  0
   -2.2108   -1.7006   -0.9269 C   0  0  0  0  0  0  0  0  0  0  0  0
   -3.2691   -4.2611   -4.3049 H   0  0  0  0  0  0  0  0  0  0  0  0
   -1.9206   -3.1732   -4.6584 H   0  0  0  0  0  0  0  0  0  0  0  0
   -3.6109   -2.5438   -4.5498 H   0  0  0  0  0  0  0  0  0  0  0  0
   -1.9500   -0.8527   -4.2223 H   0  0  0  0  0  0  0  0  0  0  0  0
   -1.1825    1.2504   -3.2188 H   0  0  0  0  0  0  0  0  0  0  0  0
   -3.2577    4.9397   -0.3646 H   0  0  0  0  0  0  0  0  0  0  0  0
   -2.5976    7.1313    0.5952 H   0  0  0  0  0  0  0  0  0  0  0  0
   -0.3074    7.4503    1.5076 H   0  0  0  0  0  0  0  0  0  0  0  0
    1.3179    5.5733    1.4497 H   0  0  0  0  0  0  0  0  0  0  0  0
    1.0701    0.1007   -1.0420 H   0  0  0  0  0  0  0  0  0  0  0  0
    2.3318    1.2000   -0.5655 H   0  0  0  0  0  0  0  0  0  0  0  0
    0.5548   -0.1085    1.5412 H   0  0  0  0  0  0  0  0  0  0  0  0
    2.1601    0.6480    1.7529 H   0  0  0  0  0  0  0  0  0  0  0  0
    1.9257   -0.7831    3.5030 H   0  0  0  0  0  0  0  0  0  0  0  0
    1.9382   -2.5687    5.1781 H   0  0  0  0  0  0  0  0  0  0  0  0
    2.2109   -4.9359    4.4907 H   0  0  0  0  0  0  0  0  0  0  0  0
    2.4765   -5.5109    2.1055 H   0  0  0  0  0  0  0  0  0  0  0  0
    1.6101   -3.5215   -0.6054 H   0  0  0  0  0  0  0  0  0  0  0  0
    2.6191   -4.9046   -0.1692 H   0  0  0  0  0  0  0  0  0  0  0  0
    3.3813   -3.3364   -0.4514 H   0  0  0  0  0  0  0  0  0  0  0  0
   -1.7479   -0.3982    0.7244 H   0  0  0  0  0  0  0  0  0  0  0  0
   -2.5097   -2.5257   -0.2847 H   0  0  0  0  0  0  0  0  0  0  0  0
  1  2  1  0
  2  3  1  0
  3  4  2  0
  4  5  1  0
  5  6  2  0
  6  7  1  0
  7  8  2  0
  8  9  1  0
  9 10  2  0
 10 11  1  0
 11 12  2  0
 12 13  1  0
 13 14  2  0
 14 15  1  0
 15 16  2  0
 15 17  1  0
 17 18  1  0
 18 19  1  0
 19 20  1  0
 20 21  1  0
 21 22  2  0
 22 23  1  0
 23 24  2  0
 24 25  1  0
 25 26  2  0
 26 27  1  0
  6 28  1  0
 28 29  2  0
 29  3  1  0
 17  7  1  0
 26 21  1  0
 14  9  1  0
  1 30  1  0
  1 31  1  0
  1 32  1  0
  4 33  1  0
  5 34  1  0
 10 35  1  0
 11 36  1  0
 12 37  1  0
 13 38  1  0
 18 39  1  0
 18 40  1  0
 19 41  1  0
 19 42  1  0
 22 43  1  0
 23 44  1  0
 24 45  1  0
 25 46  1  0
 27 47  1  0
 27 48  1  0
 27 49  1  0
 28 50  1  0
 29 51  1  0
M  END
$$$$
