
     RDKit          3D

 53 56  0  0  0  0  0  0  0  0999 V2000
    7.2744   -0.4810    0.2108 C   0  0  0  0  0  0  0  0  0  0  0  0
    5.9912   -1.0329    0.4776 O   0  0  0  0  0  0  0  0  0  0  0  0
    5.1006   -0.0584    1.0280 C   0  0  0  0  0  0  0  0  0  0  0  0
    3.7006   -0.6518    1.1653 C   0  0  0  0  0  0  0  0  0  0  0  0
    2.8822   -0.4677   -0.0340 N   0  0  0  0  0  0  0  0  0  0  0  0
    2.8078   -1.3493   -1.0913 C   0  0  0  0  0  0  0  0  0  0  0  0
    3.6411   -2.5764   -1.2196 C   0  0  0  0  0  0  0  0  0  0  0  0
    1.8570   -0.8646   -1.9632 C   0  0  0  0  0  0  0  0  0  0  0  0
    1.3175    0.3403   -1.4309 C   0  0  0  0  0  0  0  0  0  0  0  0
    0.2432    1.1182   -2.0706 C   0  0  0  0  0  0  0  0  0  0  0  0
    0.1021    1.0791   -3.2954 O   0  0  0  0  0  0  0  0  0  0  0  0
   -0.6652    1.9839   -1.2139 C   0  0  0  0  0  0  0  0  0  0  0  0
   -2.4282    1.6966   -1.5726 S   0  0  0  0  0  0  0  0  0  0  0  0
   -2.6651    0.2252   -0.6226 C   0  0  0  0  0  0  0  0  0  0  0  0
   -1.7357   -0.7487   -0.6926 N   0  0  0  0  0  0  0  0  0  0  0  0
   -1.9073   -1.8658    0.0368 C   0  0  0  0  0  0  0  0  0  0  0  0
   -0.8530   -2.9290   -0.0863 C   0  0  0  0  0  0  0  0  0  0  0  0
   -2.9083   -2.1008    0.8950 N   0  0  0  0  0  0  0  0  0  0  0  0
   -3.8073   -1.1031    0.9463 C   0  0  0  0  0  0  0  0  0  0  0  0
   -5.1605   -1.2110    2.0046 S   0  0  0  0  0  0  0  0  0  0  0  0
   -5.7016    0.2827    1.4928 C   0  0  0  0  0  0  0  0  0  0  0  0
   -4.9148    0.8690    0.5398 C   0  0  0  0  0  0  0  0  0  0  0  0
   -3.7740    0.0857    0.2149 C   0  0  0  0  0  0  0  0  0  0  0  0
   -5.4832    2.1767    0.1174 C   0  0  0  0  0  0  0  0  0  0  0  0
   -6.9126    2.1383    0.7415 C   0  0  0  0  0  0  0  0  0  0  0  0
   -6.8804    1.0836    1.8867 C   0  0  0  0  0  0  0  0  0  0  0  0
    2.0314    0.6084   -0.2634 C   0  0  0  0  0  0  0  0  0  0  0  0
    1.9929    1.7944    0.6432 C   0  0  0  0  0  0  0  0  0  0  0  0
    7.1992    0.3089   -0.5442 H   0  0  0  0  0  0  0  0  0  0  0  0
    7.9186   -1.2744   -0.1796 H   0  0  0  0  0  0  0  0  0  0  0  0
    7.7217   -0.0856    1.1284 H   0  0  0  0  0  0  0  0  0  0  0  0
    5.0978    0.8422    0.4049 H   0  0  0  0  0  0  0  0  0  0  0  0
    5.4726    0.2065    2.0244 H   0  0  0  0  0  0  0  0  0  0  0  0
    3.1626   -0.1710    1.9891 H   0  0  0  0  0  0  0  0  0  0  0  0
    3.7333   -1.7234    1.3905 H   0  0  0  0  0  0  0  0  0  0  0  0
    4.6804   -2.3079   -1.4305 H   0  0  0  0  0  0  0  0  0  0  0  0
    3.6048   -3.1877   -0.3126 H   0  0  0  0  0  0  0  0  0  0  0  0
    3.2865   -3.1989   -2.0476 H   0  0  0  0  0  0  0  0  0  0  0  0
    1.5551   -1.3344   -2.8925 H   0  0  0  0  0  0  0  0  0  0  0  0
   -0.4275    3.0302   -1.4301 H   0  0  0  0  0  0  0  0  0  0  0  0
   -0.5080    1.8191   -0.1472 H   0  0  0  0  0  0  0  0  0  0  0  0
   -1.3033   -3.9221   -0.0089 H   0  0  0  0  0  0  0  0  0  0  0  0
   -0.3416   -2.8617   -1.0523 H   0  0  0  0  0  0  0  0  0  0  0  0
   -0.1137   -2.8111    0.7079 H   0  0  0  0  0  0  0  0  0  0  0  0
   -5.5428    2.2833   -0.9656 H   0  0  0  0  0  0  0  0  0  0  0  0
   -4.9066    3.0061    0.5333 H   0  0  0  0  0  0  0  0  0  0  0  0
   -7.6241    1.8049   -0.0243 H   0  0  0  0  0  0  0  0  0  0  0  0
   -7.2428    3.1238    1.0852 H   0  0  0  0  0  0  0  0  0  0  0  0
   -6.7102    1.5720    2.8525 H   0  0  0  0  0  0  0  0  0  0  0  0
   -7.8086    0.5086    1.9241 H   0  0  0  0  0  0  0  0  0  0  0  0
    2.9715    2.0040    1.0850 H   0  0  0  0  0  0  0  0  0  0  0  0
    1.7054    2.6959    0.0918 H   0  0  0  0  0  0  0  0  0  0  0  0
    1.2750    1.6312    1.4535 H   0  0  0  0  0  0  0  0  0  0  0  0
  1  2  1  0
  2  3  1  0
  3  4  1  0
  4  5  1  0
  5  6  1  0
  6  7  1  0
  6  8  2  0
  8  9  1  0
  9 10  1  0
 10 11  2  0
 10 12  1  0
 12 13  1  0
 13 14  1  0
 14 15  2  0
 15 16  1  0
 16 17  1  0
 16 18  2  0
 18 19  1  0
 19 20  1  0
 20 21  1  0
 21 22  2  0
 22 23  1  0
 22 24  1  0
 24 25  1  0
 25 26  1  0
  9 27  2  0
 27 28  1  0
 27  5  1  0
 23 14  1  0
 23 19  2  0
 26 21  1  0
  1 29  1  0
  1 30  1  0
  1 31  1  0
  3 32  1  0
  3 33  1  0
  4 34  1  0
  4 35  1  0
  7 36  1  0
  7 37  1  0
  7 38  1  0
  8 39  1  0
 12 40  1  0
 12 41  1  0
 17 42  1  0
 17 43  1  0
 17 44  1  0
 24 45  1  0
 24 46  1  0
 25 47  1  0
 25 48  1  0
 26 49  1  0
 26 50  1  0
 28 51  1  0
 28 52  1  0
 28 53  1  0
M  END
$$$$
