
     RDKit          3D

 44 47  0  0  0  0  0  0  0  0999 V2000
   -5.9679    1.9118   -1.6039 C   0  0  0  0  0  0  0  0  0  0  0  0
   -5.9395    0.4186   -1.3160 C   0  0  0  0  0  0  0  0  0  0  0  0
   -4.6953    0.0158   -0.5674 C   0  0  0  0  0  0  0  0  0  0  0  0
   -4.6711    0.0304    0.8315 C   0  0  0  0  0  0  0  0  0  0  0  0
   -3.5126   -0.3270    1.5309 C   0  0  0  0  0  0  0  0  0  0  0  0
   -2.3593   -0.7018    0.8432 C   0  0  0  0  0  0  0  0  0  0  0  0
   -1.1557   -1.0682    1.4698 N   0  0  0  0  0  0  0  0  0  0  0  0
   -0.8898   -1.1849    2.8234 C   0  0  0  0  0  0  0  0  0  0  0  0
   -1.7110   -1.0870    3.7322 O   0  0  0  0  0  0  0  0  0  0  0  0
    0.5465   -1.6291    3.1141 C   0  0  0  0  0  0  0  0  0  0  0  0
    1.4882   -1.1958    2.0789 N   0  0  0  0  0  0  0  0  0  0  0  0
    1.5951   -2.0088    0.9451 N   0  0  0  0  0  0  0  0  0  0  0  0
    2.4432   -1.6708    0.0169 C   0  0  0  0  0  0  0  0  0  0  0  0
    3.2065   -0.5164    0.1155 N   0  0  0  0  0  0  0  0  0  0  0  0
    3.0950    0.3212    1.1896 C   0  0  0  0  0  0  0  0  0  0  0  0
    3.9540    1.3812    0.9980 C   0  0  0  0  0  0  0  0  0  0  0  0
    4.6164    1.1758   -0.2426 C   0  0  0  0  0  0  0  0  0  0  0  0
    5.5862    1.9048   -0.9573 C   0  0  0  0  0  0  0  0  0  0  0  0
    6.0458    1.4185   -2.1853 C   0  0  0  0  0  0  0  0  0  0  0  0
    5.5538    0.2243   -2.7040 C   0  0  0  0  0  0  0  0  0  0  0  0
    4.5905   -0.5188   -2.0148 C   0  0  0  0  0  0  0  0  0  0  0  0
    4.1344   -0.0227   -0.7819 C   0  0  0  0  0  0  0  0  0  0  0  0
    2.1899    0.0102    2.2613 C   0  0  0  0  0  0  0  0  0  0  0  0
    2.0475    0.7309    3.2436 O   0  0  0  0  0  0  0  0  0  0  0  0
   -2.3789   -0.7079   -0.5563 C   0  0  0  0  0  0  0  0  0  0  0  0
   -3.5354   -0.3512   -1.2568 C   0  0  0  0  0  0  0  0  0  0  0  0
   -5.9442    2.4957   -0.6775 H   0  0  0  0  0  0  0  0  0  0  0  0
   -5.1103    2.2153   -2.2140 H   0  0  0  0  0  0  0  0  0  0  0  0
   -6.8808    2.1751   -2.1474 H   0  0  0  0  0  0  0  0  0  0  0  0
   -6.0013   -0.1415   -2.2570 H   0  0  0  0  0  0  0  0  0  0  0  0
   -6.8267    0.1359   -0.7364 H   0  0  0  0  0  0  0  0  0  0  0  0
   -5.5552    0.3230    1.3941 H   0  0  0  0  0  0  0  0  0  0  0  0
   -3.5447   -0.2956    2.6155 H   0  0  0  0  0  0  0  0  0  0  0  0
   -0.3718   -1.3097    0.8681 H   0  0  0  0  0  0  0  0  0  0  0  0
    0.8458   -1.2166    4.0830 H   0  0  0  0  0  0  0  0  0  0  0  0
    0.5695   -2.7225    3.1738 H   0  0  0  0  0  0  0  0  0  0  0  0
    2.5575   -2.3061   -0.8750 H   0  0  0  0  0  0  0  0  0  0  0  0
    4.0889    2.2119    1.6803 H   0  0  0  0  0  0  0  0  0  0  0  0
    5.9765    2.8381   -0.5604 H   0  0  0  0  0  0  0  0  0  0  0  0
    6.7951    1.9807   -2.7380 H   0  0  0  0  0  0  0  0  0  0  0  0
    5.9256   -0.1366   -3.6610 H   0  0  0  0  0  0  0  0  0  0  0  0
    4.2191   -1.4486   -2.4342 H   0  0  0  0  0  0  0  0  0  0  0  0
   -1.4959   -0.9905   -1.1226 H   0  0  0  0  0  0  0  0  0  0  0  0
   -3.5239   -0.3610   -2.3442 H   0  0  0  0  0  0  0  0  0  0  0  0
  1  2  1  0
  2  3  1  0
  3  4  2  0
  4  5  1  0
  5  6  2  0
  6  7  1  0
  7  8  1  0
  8  9  2  0
  8 10  1  0
 10 11  1  0
 11 12  1  0
 12 13  2  0
 13 14  1  0
 14 15  1  0
 15 16  2  0
 16 17  1  0
 17 18  2  0
 18 19  1  0
 19 20  2  0
 20 21  1  0
 21 22  2  0
 15 23  1  0
 23 24  2  0
  6 25  1  0
 25 26  2  0
 26  3  1  0
 23 11  1  0
 22 14  1  0
 22 17  1  0
  1 27  1  0
  1 28  1  0
  1 29  1  0
  2 30  1  0
  2 31  1  0
  4 32  1  0
  5 33  1  0
  7 34  1  0
 10 35  1  0
 10 36  1  0
 13 37  1  0
 16 38  1  0
 18 39  1  0
 19 40  1  0
 20 41  1  0
 21 42  1  0
 25 43  1  0
 26 44  1  0
M  END
$$$$
