
     RDKit          3D

 66 68  0  0  0  0  0  0  0  0999 V2000
    2.9146   -3.8773    2.7726 C   0  0  0  0  0  0  0  0  0  0  0  0
    2.1531   -3.1974    1.6498 C   0  0  0  0  0  0  0  0  0  0  0  0
    1.5463   -1.8745    2.0960 C   0  0  0  0  0  0  0  0  0  0  0  0
    0.8701   -1.2979    0.9884 O   0  0  0  0  0  0  0  0  0  0  0  0
    0.4028    0.2601    1.1450 P   0  0  0  0  0  5  0  0  0  0  0  0
   -0.2228    0.4977    2.4988 O   0  0  0  0  0  0  0  0  0  0  0  0
    1.8606    1.2155    0.8067 C   0  0  0  0  0  0  0  0  0  0  0  0
    2.7021    0.9280   -0.2666 C   0  0  0  0  0  0  0  0  0  0  0  0
    3.8560    1.6904   -0.4986 C   0  0  0  0  0  0  0  0  0  0  0  0
    4.2286    2.7619    0.3318 C   0  0  0  0  0  0  0  0  0  0  0  0
    5.3792    3.5218    0.0781 N   0  0  0  0  0  0  0  0  0  0  0  0
    5.7464    4.5893    1.0067 C   0  0  0  0  0  0  0  0  0  0  0  0
    6.5065    2.8455   -0.5681 C   0  0  0  0  0  0  0  0  0  0  0  0
    3.3560    3.0431    1.3955 C   0  0  0  0  0  0  0  0  0  0  0  0
    2.2001    2.2866    1.6348 C   0  0  0  0  0  0  0  0  0  0  0  0
   -0.8234    0.4460   -0.2502 C   0  0  0  0  0  0  0  0  0  0  0  0
   -0.2186   -0.1792   -1.4464 N   0  0  0  0  0  0  0  0  0  0  0  0
   -0.7318    0.0358   -2.7252 C   0  0  0  0  0  0  0  0  0  0  0  0
   -0.4411   -0.9007   -3.7283 C   0  0  0  0  0  0  0  0  0  0  0  0
   -0.8754   -0.7203   -5.0452 C   0  0  0  0  0  0  0  0  0  0  0  0
   -1.5876    0.4223   -5.3913 C   0  0  0  0  0  0  0  0  0  0  0  0
   -1.8482    1.3855   -4.4223 C   0  0  0  0  0  0  0  0  0  0  0  0
   -1.4100    1.1980   -3.1058 C   0  0  0  0  0  0  0  0  0  0  0  0
   -2.1913   -0.1518    0.0377 C   0  0  0  0  0  0  0  0  0  0  0  0
   -3.3310    0.6552    0.0375 C   0  0  0  0  0  0  0  0  0  0  0  0
   -4.5973    0.1122    0.3027 C   0  0  0  0  0  0  0  0  0  0  0  0
   -4.7883   -1.2496    0.5914 C   0  0  0  0  0  0  0  0  0  0  0  0
   -6.0602   -1.7805    0.8462 N   0  0  0  0  0  0  0  0  0  0  0  0
   -7.0921   -0.8767    1.3542 C   0  0  0  0  0  0  0  0  0  0  0  0
   -6.1758   -3.1708    1.2794 C   0  0  0  0  0  0  0  0  0  0  0  0
   -3.6307   -2.0443    0.5652 C   0  0  0  0  0  0  0  0  0  0  0  0
   -2.3594   -1.5127    0.3033 C   0  0  0  0  0  0  0  0  0  0  0  0
    3.7231   -3.2377    3.1405 H   0  0  0  0  0  0  0  0  0  0  0  0
    2.2508   -4.1099    3.6117 H   0  0  0  0  0  0  0  0  0  0  0  0
    3.3580   -4.8143    2.4191 H   0  0  0  0  0  0  0  0  0  0  0  0
    1.3607   -3.8599    1.2815 H   0  0  0  0  0  0  0  0  0  0  0  0
    2.8223   -3.0251    0.7978 H   0  0  0  0  0  0  0  0  0  0  0  0
    0.8256   -2.0334    2.9052 H   0  0  0  0  0  0  0  0  0  0  0  0
    2.3292   -1.1939    2.4481 H   0  0  0  0  0  0  0  0  0  0  0  0
    2.4672    0.1080   -0.9425 H   0  0  0  0  0  0  0  0  0  0  0  0
    4.4477    1.4305   -1.3706 H   0  0  0  0  0  0  0  0  0  0  0  0
    6.6027    5.1592    0.6265 H   0  0  0  0  0  0  0  0  0  0  0  0
    6.0229    4.1837    1.9863 H   0  0  0  0  0  0  0  0  0  0  0  0
    4.9336    5.3138    1.1249 H   0  0  0  0  0  0  0  0  0  0  0  0
    6.2695    2.5764   -1.6026 H   0  0  0  0  0  0  0  0  0  0  0  0
    6.8006    1.9474   -0.0121 H   0  0  0  0  0  0  0  0  0  0  0  0
    7.3833    3.5010   -0.6220 H   0  0  0  0  0  0  0  0  0  0  0  0
    3.5549    3.8591    2.0837 H   0  0  0  0  0  0  0  0  0  0  0  0
    1.5669    2.5363    2.4850 H   0  0  0  0  0  0  0  0  0  0  0  0
   -0.9005    1.5318   -0.3763 H   0  0  0  0  0  0  0  0  0  0  0  0
   -0.0085   -1.1616   -1.2711 H   0  0  0  0  0  0  0  0  0  0  0  0
    0.1265   -1.7958   -3.4879 H   0  0  0  0  0  0  0  0  0  0  0  0
   -0.6516   -1.4722   -5.7966 H   0  0  0  0  0  0  0  0  0  0  0  0
   -1.9282    0.5677   -6.4130 H   0  0  0  0  0  0  0  0  0  0  0  0
   -2.3870    2.2910   -4.6878 H   0  0  0  0  0  0  0  0  0  0  0  0
   -1.6124    1.9887   -2.3922 H   0  0  0  0  0  0  0  0  0  0  0  0
   -3.2565    1.7186   -0.1760 H   0  0  0  0  0  0  0  0  0  0  0  0
   -5.4403    0.7953    0.2641 H   0  0  0  0  0  0  0  0  0  0  0  0
   -6.7584   -0.3636    2.2638 H   0  0  0  0  0  0  0  0  0  0  0  0
   -7.3786   -0.1376    0.5985 H   0  0  0  0  0  0  0  0  0  0  0  0
   -8.0092   -1.4216    1.6039 H   0  0  0  0  0  0  0  0  0  0  0  0
   -5.6878   -3.3245    2.2484 H   0  0  0  0  0  0  0  0  0  0  0  0
   -7.2264   -3.4636    1.3851 H   0  0  0  0  0  0  0  0  0  0  0  0
   -5.7489   -3.8550    0.5377 H   0  0  0  0  0  0  0  0  0  0  0  0
   -3.6804   -3.1115    0.7564 H   0  0  0  0  0  0  0  0  0  0  0  0
   -1.5082   -2.1885    0.3090 H   0  0  0  0  0  0  0  0  0  0  0  0
  1  2  1  0
  2  3  1  0
  3  4  1  0
  4  5  1  0
  5  6  2  0
  5  7  1  0
  7  8  2  0
  8  9  1  0
  9 10  2  0
 10 11  1  0
 11 12  1  0
 11 13  1  0
 10 14  1  0
 14 15  2  0
  5 16  1  0
 16 17  1  0
 17 18  1  0
 18 19  2  0
 19 20  1  0
 20 21  2  0
 21 22  1  0
 22 23  2  0
 16 24  1  0
 24 25  2  0
 25 26  1  0
 26 27  2  0
 27 28  1  0
 28 29  1  0
 28 30  1  0
 27 31  1  0
 31 32  2  0
 15  7  1  0
 23 18  1  0
 32 24  1  0
  1 33  1  0
  1 34  1  0
  1 35  1  0
  2 36  1  0
  2 37  1  0
  3 38  1  0
  3 39  1  0
  8 40  1  0
  9 41  1  0
 12 42  1  0
 12 43  1  0
 12 44  1  0
 13 45  1  0
 13 46  1  0
 13 47  1  0
 14 48  1  0
 15 49  1  0
 16 50  1  0
 17 51  1  0
 19 52  1  0
 20 53  1  0
 21 54  1  0
 22 55  1  0
 23 56  1  0
 25 57  1  0
 26 58  1  0
 29 59  1  0
 29 60  1  0
 29 61  1  0
 30 62  1  0
 30 63  1  0
 30 64  1  0
 31 65  1  0
 32 66  1  0
M  END
$$$$
