
     RDKit          3D

 46 48  0  0  0  0  0  0  0  0999 V2000
    7.9409    1.8431   -0.4600 C   0  0  0  0  0  0  0  0  0  0  0  0
    6.6281    1.7271    0.2515 C   0  0  0  0  0  0  0  0  0  0  0  0
    6.4986    1.3688    1.4128 O   0  0  0  0  0  0  0  0  0  0  0  0
    5.6115    2.0791   -0.5836 O   0  0  0  0  0  0  0  0  0  0  0  0
    4.2938    2.0129   -0.0166 C   0  0  0  0  0  0  0  0  0  0  0  0
    3.7322    0.6036   -0.1625 C   0  0  0  0  0  0  0  0  0  0  0  0
    2.3374    0.4965    0.4474 C   0  0  0  0  0  0  0  0  0  0  0  0
    1.8061   -0.8470    0.2161 N   0  0  0  0  0  0  0  0  0  0  0  0
    0.5763   -1.2504    0.7722 C   0  0  0  0  0  0  0  0  0  0  0  0
   -0.3821   -0.2900    1.2138 C   0  0  0  0  0  0  0  0  0  0  0  0
   -1.6670   -0.6060    1.7236 C   0  0  0  0  0  0  0  0  0  0  0  0
   -2.8015    0.6257    2.2809 S   0  0  0  0  0  0  0  0  0  0  0  0
   -3.9223    0.6734    0.8950 C   0  0  0  0  0  0  0  0  0  0  0  0
   -5.1423   -0.0044    0.9574 C   0  0  0  0  0  0  0  0  0  0  0  0
   -6.0228    0.0261   -0.1273 C   0  0  0  0  0  0  0  0  0  0  0  0
   -5.6929    0.7338   -1.2889 C   0  0  0  0  0  0  0  0  0  0  0  0
   -6.6483    0.7928   -2.4437 C   0  0  0  0  0  0  0  0  0  0  0  0
   -4.4814    1.4333   -1.3381 C   0  0  0  0  0  0  0  0  0  0  0  0
   -3.5995    1.4004   -0.2541 C   0  0  0  0  0  0  0  0  0  0  0  0
   -1.9841   -1.9823    1.7762 C   0  0  0  0  0  0  0  0  0  0  0  0
   -3.0806   -2.6102    2.2244 N   0  0  0  0  0  0  0  0  0  0  0  0
   -2.8575   -3.9587    2.0357 O   0  0  0  0  0  0  0  0  0  0  0  0
   -1.6167   -4.1964    1.4797 N   0  0  0  0  0  0  0  0  0  0  0  0
   -1.0509   -2.9950    1.2964 C   0  0  0  0  0  0  0  0  0  0  0  0
    0.2011   -2.6202    0.7740 C   0  0  0  0  0  0  0  0  0  0  0  0
    1.0640   -3.6602    0.2878 N   0  0  0  0  0  4  0  0  0  0  0  0
    0.6081   -4.4449   -0.5532 O   0  0  0  0  0  0  0  0  0  0  0  0
    2.2263   -3.6701    0.7214 O   0  0  0  0  0  1  0  0  0  0  0  0
    7.9390    1.2059   -1.3475 H   0  0  0  0  0  0  0  0  0  0  0  0
    8.7438    1.5089    0.2036 H   0  0  0  0  0  0  0  0  0  0  0  0
    8.1233    2.8852   -0.7340 H   0  0  0  0  0  0  0  0  0  0  0  0
    3.6731    2.7237   -0.5734 H   0  0  0  0  0  0  0  0  0  0  0  0
    4.2985    2.3458    1.0284 H   0  0  0  0  0  0  0  0  0  0  0  0
    3.7086    0.3293   -1.2248 H   0  0  0  0  0  0  0  0  0  0  0  0
    4.4060   -0.1212    0.3106 H   0  0  0  0  0  0  0  0  0  0  0  0
    1.6863    1.2420   -0.0232 H   0  0  0  0  0  0  0  0  0  0  0  0
    2.3908    0.7020    1.5235 H   0  0  0  0  0  0  0  0  0  0  0  0
    2.5302   -1.5681    0.3301 H   0  0  0  0  0  0  0  0  0  0  0  0
   -0.1326    0.7696    1.1668 H   0  0  0  0  0  0  0  0  0  0  0  0
   -5.4159   -0.5684    1.8465 H   0  0  0  0  0  0  0  0  0  0  0  0
   -6.9662   -0.5114   -0.0585 H   0  0  0  0  0  0  0  0  0  0  0  0
   -7.2471    1.7069   -2.3874 H   0  0  0  0  0  0  0  0  0  0  0  0
   -6.1065    0.7768   -3.3949 H   0  0  0  0  0  0  0  0  0  0  0  0
   -7.3242   -0.0685   -2.4397 H   0  0  0  0  0  0  0  0  0  0  0  0
   -4.2172    2.0100   -2.2217 H   0  0  0  0  0  0  0  0  0  0  0  0
   -2.6645    1.9509   -0.3165 H   0  0  0  0  0  0  0  0  0  0  0  0
  1  2  1  0
  2  3  2  0
  2  4  1  0
  4  5  1  0
  5  6  1  0
  6  7  1  0
  7  8  1  0
  8  9  1  0
  9 10  1  0
 10 11  2  0
 11 12  1  0
 12 13  1  0
 13 14  2  0
 14 15  1  0
 15 16  2  0
 16 17  1  0
 16 18  1  0
 18 19  2  0
 11 20  1  0
 20 21  2  0
 21 22  1  0
 22 23  1  0
 23 24  2  0
 24 25  1  0
 25 26  1  0
 26 27  2  0
 26 28  1  0
 25  9  2  0
 19 13  1  0
 24 20  1  0
  1 29  1  0
  1 30  1  0
  1 31  1  0
  5 32  1  0
  5 33  1  0
  6 34  1  0
  6 35  1  0
  7 36  1  0
  7 37  1  0
  8 38  1  0
 10 39  1  0
 14 40  1  0
 15 41  1  0
 17 42  1  0
 17 43  1  0
 17 44  1  0
 18 45  1  0
 19 46  1  0
M  CHG  2  26   1  28  -1
M  END
$$$$
