
     RDKit          3D

 46 49  0  0  0  0  0  0  0  0999 V2000
   -5.9961   -1.4932    1.6670 C   0  0  0  0  0  0  0  0  0  0  0  0
   -4.5925   -1.3252    1.8147 O   0  0  0  0  0  0  0  0  0  0  0  0
   -3.9214   -0.7441    0.7743 C   0  0  0  0  0  0  0  0  0  0  0  0
   -4.4783   -0.3572   -0.4424 C   0  0  0  0  0  0  0  0  0  0  0  0
   -3.6740    0.2071   -1.4385 C   0  0  0  0  0  0  0  0  0  0  0  0
   -2.3074    0.3953   -1.2180 C   0  0  0  0  0  0  0  0  0  0  0  0
   -1.4270    0.9345   -2.1290 O   0  0  0  0  0  0  0  0  0  0  0  0
   -1.9594    1.3274   -3.3890 C   0  0  0  0  0  0  0  0  0  0  0  0
   -1.7344    0.0311    0.0213 C   0  0  0  0  0  0  0  0  0  0  0  0
   -0.3396    0.1871    0.1894 N   0  0  0  0  0  0  0  0  0  0  0  0
    0.4319    0.4239    1.3617 C   0  0  0  0  0  0  0  0  0  0  0  0
   -0.1959    0.5488    2.5612 N   0  0  0  0  0  0  0  0  0  0  0  0
    0.6769    0.8190    3.5657 C   0  0  0  0  0  0  0  0  0  0  0  0
    0.3733    1.0089    4.8495 N   0  0  0  0  0  0  0  0  0  0  0  0
    1.5971    1.2599    5.4686 O   0  0  0  0  0  0  0  0  0  0  0  0
    2.6605    1.2207    4.5674 N   0  0  0  0  0  0  0  0  0  0  0  0
    2.0943    0.9513    3.3907 C   0  0  0  0  0  0  0  0  0  0  0  0
    2.7371    0.8141    2.2009 N   0  0  0  0  0  0  0  0  0  0  0  0
    1.8794    0.5239    1.1852 C   0  0  0  0  0  0  0  0  0  0  0  0
    2.4271    0.3505   -0.1166 N   0  0  0  0  0  0  0  0  0  0  0  0
    2.2430   -1.0175   -0.6497 C   0  0  0  0  0  0  0  0  0  0  0  0
    3.5685   -1.6558   -1.0606 C   0  0  0  0  0  0  0  0  0  0  0  0
    4.3477   -0.7806   -2.0403 C   0  0  0  0  0  0  0  0  0  0  0  0
    4.2311    0.7101   -1.7209 C   0  0  0  0  0  0  0  0  0  0  0  0
    3.7622    0.9440   -0.2865 C   0  0  0  0  0  0  0  0  0  0  0  0
   -2.5537   -0.5530    0.9945 C   0  0  0  0  0  0  0  0  0  0  0  0
   -6.3768   -1.9400    2.5907 H   0  0  0  0  0  0  0  0  0  0  0  0
   -6.2276   -2.1783    0.8449 H   0  0  0  0  0  0  0  0  0  0  0  0
   -6.4980   -0.5297    1.5334 H   0  0  0  0  0  0  0  0  0  0  0  0
   -5.5341   -0.4889   -0.6539 H   0  0  0  0  0  0  0  0  0  0  0  0
   -4.1475    0.4843   -2.3742 H   0  0  0  0  0  0  0  0  0  0  0  0
   -1.1375    1.7339   -3.9858 H   0  0  0  0  0  0  0  0  0  0  0  0
   -2.3688    0.4680   -3.9303 H   0  0  0  0  0  0  0  0  0  0  0  0
   -2.7078    2.1196   -3.2731 H   0  0  0  0  0  0  0  0  0  0  0  0
    0.0618    0.7162   -0.5875 H   0  0  0  0  0  0  0  0  0  0  0  0
    1.7523   -1.6862    0.0697 H   0  0  0  0  0  0  0  0  0  0  0  0
    1.5923   -0.9547   -1.5302 H   0  0  0  0  0  0  0  0  0  0  0  0
    3.3895   -2.6400   -1.5081 H   0  0  0  0  0  0  0  0  0  0  0  0
    4.1788   -1.8288   -0.1650 H   0  0  0  0  0  0  0  0  0  0  0  0
    3.9910   -0.9543   -3.0633 H   0  0  0  0  0  0  0  0  0  0  0  0
    5.4011   -1.0855   -2.0278 H   0  0  0  0  0  0  0  0  0  0  0  0
    5.1944    1.2027   -1.8926 H   0  0  0  0  0  0  0  0  0  0  0  0
    3.5150    1.1693   -2.4147 H   0  0  0  0  0  0  0  0  0  0  0  0
    3.7113    2.0251   -0.1065 H   0  0  0  0  0  0  0  0  0  0  0  0
    4.4937    0.5171    0.4127 H   0  0  0  0  0  0  0  0  0  0  0  0
   -2.1334   -0.8810    1.9409 H   0  0  0  0  0  0  0  0  0  0  0  0
  1  2  1  0
  2  3  1  0
  3  4  2  0
  4  5  1  0
  5  6  2  0
  6  7  1  0
  7  8  1  0
  6  9  1  0
  9 10  1  0
 10 11  1  0
 11 12  2  0
 12 13  1  0
 13 14  2  0
 14 15  1  0
 15 16  1  0
 16 17  2  0
 17 18  1  0
 18 19  2  0
 19 20  1  0
 20 21  1  0
 21 22  1  0
 22 23  1  0
 23 24  1  0
 24 25  1  0
  9 26  2  0
 26  3  1  0
 19 11  1  0
 25 20  1  0
 17 13  1  0
  1 27  1  0
  1 28  1  0
  1 29  1  0
  4 30  1  0
  5 31  1  0
  8 32  1  0
  8 33  1  0
  8 34  1  0
 10 35  1  0
 21 36  1  0
 21 37  1  0
 22 38  1  0
 22 39  1  0
 23 40  1  0
 23 41  1  0
 24 42  1  0
 24 43  1  0
 25 44  1  0
 25 45  1  0
 26 46  1  0
M  END
$$$$
