
     RDKit          3D

 67 71  0  0  0  0  0  0  0  0999 V2000
   -7.0725    4.7366   -0.4998 C   0  0  0  0  0  0  0  0  0  0  0  0
   -5.7740    4.7745    0.0742 O   0  0  0  0  0  0  0  0  0  0  0  0
   -4.9925    3.6485   -0.0383 C   0  0  0  0  0  0  0  0  0  0  0  0
   -5.3847    2.4882   -0.7167 C   0  0  0  0  0  0  0  0  0  0  0  0
   -4.5033    1.3882   -0.7703 C   0  0  0  0  0  0  0  0  0  0  0  0
   -4.7900   -0.1156   -1.5510 S   0  0  0  0  0  0  0  0  0  0  0  0
   -3.2670   -0.7452   -1.0947 C   0  0  0  0  0  0  0  0  0  0  0  0
   -2.9281   -2.1168   -1.5042 C   0  0  0  0  0  0  0  0  0  0  0  0
   -2.6378   -2.3729   -2.8557 C   0  0  0  0  0  0  0  0  0  0  0  0
   -2.2842   -3.6541   -3.2777 C   0  0  0  0  0  0  0  0  0  0  0  0
   -2.2206   -4.6934   -2.3546 C   0  0  0  0  0  0  0  0  0  0  0  0
   -2.5063   -4.4550   -1.0080 C   0  0  0  0  0  0  0  0  0  0  0  0
   -2.8494   -3.1695   -0.5711 C   0  0  0  0  0  0  0  0  0  0  0  0
   -3.1696   -2.8774    0.7319 O   0  0  0  0  0  0  0  0  0  0  0  0
   -2.5540   -3.6928    1.7220 C   0  0  0  0  0  0  0  0  0  0  0  0
   -2.5374    0.1724   -0.3546 C   0  0  0  0  0  0  0  0  0  0  0  0
   -1.2085   -0.1401    0.1629 C   0  0  0  0  0  0  0  0  0  0  0  0
   -0.1249   -0.3053   -0.7053 C   0  0  0  0  0  0  0  0  0  0  0  0
    1.1455   -0.6115   -0.2032 C   0  0  0  0  0  0  0  0  0  0  0  0
    1.3425   -0.7528    1.1708 C   0  0  0  0  0  0  0  0  0  0  0  0
    2.5226   -1.0458    1.7949 O   0  0  0  0  0  0  0  0  0  0  0  0
    3.6442   -1.4263    0.9923 C   0  0  0  0  0  0  0  0  0  0  0  0
    4.4825   -0.1933    0.6103 C   0  0  0  0  0  0  0  0  0  0  0  0
    5.6138   -0.4933   -0.2851 N   0  0  0  0  0  0  0  0  0  0  0  0
    6.5910   -1.4107    0.3452 C   0  0  0  0  0  0  0  0  0  0  0  0
    7.9928   -1.2687   -0.2671 C   0  0  0  0  0  0  0  0  0  0  0  0
    8.5593    0.0294   -0.0447 O   0  0  0  0  0  0  0  0  0  0  0  0
    7.5729    1.0675    0.0335 C   0  0  0  0  0  0  0  0  0  0  0  0
    6.2876    0.7429   -0.7441 C   0  0  0  0  0  0  0  0  0  0  0  0
    0.2609   -0.5711    2.0371 C   0  0  0  0  0  0  0  0  0  0  0  0
   -1.0086   -0.2679    1.5401 C   0  0  0  0  0  0  0  0  0  0  0  0
   -3.2492    1.4187   -0.1639 C   0  0  0  0  0  0  0  0  0  0  0  0
   -2.8704    2.6098    0.5117 C   0  0  0  0  0  0  0  0  0  0  0  0
   -3.7327    3.7130    0.5750 C   0  0  0  0  0  0  0  0  0  0  0  0
   -3.4310    4.8918    1.2135 O   0  0  0  0  0  0  0  0  0  0  0  0
   -2.1575    5.0008    1.8322 C   0  0  0  0  0  0  0  0  0  0  0  0
   -7.5558    5.6973   -0.2970 H   0  0  0  0  0  0  0  0  0  0  0  0
   -7.6856    3.9536   -0.0416 H   0  0  0  0  0  0  0  0  0  0  0  0
   -7.0199    4.6147   -1.5868 H   0  0  0  0  0  0  0  0  0  0  0  0
   -6.3482    2.4059   -1.2057 H   0  0  0  0  0  0  0  0  0  0  0  0
   -2.6831   -1.5680   -3.5861 H   0  0  0  0  0  0  0  0  0  0  0  0
   -2.0638   -3.8402   -4.3257 H   0  0  0  0  0  0  0  0  0  0  0  0
   -1.9556   -5.6953   -2.6830 H   0  0  0  0  0  0  0  0  0  0  0  0
   -2.4709   -5.2946   -0.3217 H   0  0  0  0  0  0  0  0  0  0  0  0
   -1.4801   -3.8124    1.5396 H   0  0  0  0  0  0  0  0  0  0  0  0
   -2.6734   -3.1917    2.6874 H   0  0  0  0  0  0  0  0  0  0  0  0
   -3.0530   -4.6647    1.7882 H   0  0  0  0  0  0  0  0  0  0  0  0
   -0.2606   -0.1993   -1.7792 H   0  0  0  0  0  0  0  0  0  0  0  0
    1.9549   -0.7253   -0.9167 H   0  0  0  0  0  0  0  0  0  0  0  0
    4.2458   -2.0928    1.6210 H   0  0  0  0  0  0  0  0  0  0  0  0
    3.3488   -2.0241    0.1220 H   0  0  0  0  0  0  0  0  0  0  0  0
    4.8252    0.3083    1.5251 H   0  0  0  0  0  0  0  0  0  0  0  0
    3.8184    0.5258    0.1154 H   0  0  0  0  0  0  0  0  0  0  0  0
    6.6703   -1.2017    1.4205 H   0  0  0  0  0  0  0  0  0  0  0  0
    6.2456   -2.4430    0.2232 H   0  0  0  0  0  0  0  0  0  0  0  0
    8.6732   -2.0027    0.1763 H   0  0  0  0  0  0  0  0  0  0  0  0
    7.9712   -1.4564   -1.3470 H   0  0  0  0  0  0  0  0  0  0  0  0
    8.0292    1.9809   -0.3612 H   0  0  0  0  0  0  0  0  0  0  0  0
    7.3503    1.2469    1.0920 H   0  0  0  0  0  0  0  0  0  0  0  0
    5.6105    1.6048   -0.7275 H   0  0  0  0  0  0  0  0  0  0  0  0
    6.5542    0.5859   -1.7969 H   0  0  0  0  0  0  0  0  0  0  0  0
    0.4059   -0.6746    3.1097 H   0  0  0  0  0  0  0  0  0  0  0  0
   -1.8404   -0.1485    2.2304 H   0  0  0  0  0  0  0  0  0  0  0  0
   -1.8902    2.6341    0.9742 H   0  0  0  0  0  0  0  0  0  0  0  0
   -2.0880    5.9966    2.2808 H   0  0  0  0  0  0  0  0  0  0  0  0
   -2.0443    4.2663    2.6363 H   0  0  0  0  0  0  0  0  0  0  0  0
   -1.3515    4.9116    1.0964 H   0  0  0  0  0  0  0  0  0  0  0  0
  1  2  1  0
  2  3  1  0
  3  4  2  0
  4  5  1  0
  5  6  1  0
  6  7  1  0
  7  8  1  0
  8  9  2  0
  9 10  1  0
 10 11  2  0
 11 12  1  0
 12 13  2  0
 13 14  1  0
 14 15  1  0
  7 16  2  0
 16 17  1  0
 17 18  2  0
 18 19  1  0
 19 20  2  0
 20 21  1  0
 21 22  1  0
 22 23  1  0
 23 24  1  0
 24 25  1  0
 25 26  1  0
 26 27  1  0
 27 28  1  0
 28 29  1  0
 20 30  1  0
 30 31  2  0
 16 32  1  0
 32 33  1  0
 33 34  2  0
 34 35  1  0
 35 36  1  0
 34  3  1  0
 32  5  2  0
 13  8  1  0
 31 17  1  0
 29 24  1  0
  1 37  1  0
  1 38  1  0
  1 39  1  0
  4 40  1  0
  9 41  1  0
 10 42  1  0
 11 43  1  0
 12 44  1  0
 15 45  1  0
 15 46  1  0
 15 47  1  0
 18 48  1  0
 19 49  1  0
 22 50  1  0
 22 51  1  0
 23 52  1  0
 23 53  1  0
 25 54  1  0
 25 55  1  0
 26 56  1  0
 26 57  1  0
 28 58  1  0
 28 59  1  0
 29 60  1  0
 29 61  1  0
 30 62  1  0
 31 63  1  0
 33 64  1  0
 36 65  1  0
 36 66  1  0
 36 67  1  0
M  END
$$$$
