
     RDKit          3D

 60 64  0  0  0  0  0  0  0  0999 V2000
   -4.0611   -5.3866    0.7385 C   0  0  0  0  0  0  0  0  0  0  0  0
   -3.8712   -3.9019    0.6724 C   0  0  0  0  0  0  0  0  0  0  0  0
   -4.9216   -3.0804    0.2646 C   0  0  0  0  0  0  0  0  0  0  0  0
   -4.7514   -1.6948    0.2036 C   0  0  0  0  0  0  0  0  0  0  0  0
   -3.5347   -1.0878    0.5516 C   0  0  0  0  0  0  0  0  0  0  0  0
   -3.4289    0.3037    0.4431 N   0  0  0  0  0  0  0  0  0  0  0  0
   -2.3714    1.1990    0.5821 C   0  0  0  0  0  0  0  0  0  0  0  0
   -1.1232    0.7785    0.6698 N   0  0  0  0  0  0  0  0  0  0  0  0
   -0.2139    1.7354    0.7777 C   0  0  0  0  0  0  0  0  0  0  0  0
    1.1264    1.3990    0.8793 O   0  0  0  0  0  0  0  0  0  0  0  0
    1.4732    0.1620    0.3963 C   0  0  0  0  0  0  0  0  0  0  0  0
    1.3212   -0.1650   -0.9421 C   0  0  0  0  0  0  0  0  0  0  0  0
    1.7744   -1.4059   -1.3727 C   0  0  0  0  0  0  0  0  0  0  0  0
    2.3889   -2.2329   -0.4531 C   0  0  0  0  0  0  0  0  0  0  0  0
    2.8034   -3.4688   -0.9019 O   0  0  0  0  0  0  0  0  0  0  0  0
    3.8978   -4.0123   -0.1630 C   0  0  0  0  0  0  0  0  0  0  0  0
    5.2096   -3.4644   -0.6719 C   0  0  0  0  0  0  0  0  0  0  0  0
    5.9869   -2.6152    0.1264 C   0  0  0  0  0  0  0  0  0  0  0  0
    7.1925   -2.0982   -0.3550 C   0  0  0  0  0  0  0  0  0  0  0  0
    7.6314   -2.4230   -1.6373 C   0  0  0  0  0  0  0  0  0  0  0  0
    6.8644   -3.2636   -2.4416 C   0  0  0  0  0  0  0  0  0  0  0  0
    5.6567   -3.7802   -1.9636 C   0  0  0  0  0  0  0  0  0  0  0  0
    2.5320   -1.8887    0.8435 N   0  0  0  0  0  0  0  0  0  0  0  0
    2.0847   -0.6663    1.2702 N   0  0  0  0  0  0  0  0  0  0  0  0
   -0.4600    3.0379    0.8050 N   0  0  0  0  0  0  0  0  0  0  0  0
   -1.7347    3.3836    0.6924 C   0  0  0  0  0  0  0  0  0  0  0  0
   -2.0695    4.7433    0.7210 N   0  0  0  0  0  0  0  0  0  0  0  0
   -3.3344    5.0573    0.0359 C   0  0  0  0  0  0  0  0  0  0  0  0
   -3.6469    6.5573    0.1472 C   0  0  0  0  0  0  0  0  0  0  0  0
   -2.5546    7.3606   -0.3235 O   0  0  0  0  0  0  0  0  0  0  0  0
   -1.3870    7.1047    0.4686 C   0  0  0  0  0  0  0  0  0  0  0  0
   -0.9526    5.6370    0.3586 C   0  0  0  0  0  0  0  0  0  0  0  0
   -2.7113    2.4848    0.5741 N   0  0  0  0  0  0  0  0  0  0  0  0
   -2.4811   -1.9262    0.9293 C   0  0  0  0  0  0  0  0  0  0  0  0
   -2.6461   -3.3139    0.9935 C   0  0  0  0  0  0  0  0  0  0  0  0
   -3.2055   -5.8772    1.2128 H   0  0  0  0  0  0  0  0  0  0  0  0
   -4.1758   -5.7991   -0.2706 H   0  0  0  0  0  0  0  0  0  0  0  0
   -4.9510   -5.6293    1.3294 H   0  0  0  0  0  0  0  0  0  0  0  0
   -5.8821   -3.5114   -0.0052 H   0  0  0  0  0  0  0  0  0  0  0  0
   -5.5939   -1.0884   -0.1133 H   0  0  0  0  0  0  0  0  0  0  0  0
   -4.2994    0.8131    0.3977 H   0  0  0  0  0  0  0  0  0  0  0  0
    0.8585    0.5222   -1.6411 H   0  0  0  0  0  0  0  0  0  0  0  0
    1.6701   -1.7116   -2.4068 H   0  0  0  0  0  0  0  0  0  0  0  0
    3.8919   -5.0960   -0.3389 H   0  0  0  0  0  0  0  0  0  0  0  0
    3.7879   -3.8992    0.9230 H   0  0  0  0  0  0  0  0  0  0  0  0
    5.6505   -2.3402    1.1247 H   0  0  0  0  0  0  0  0  0  0  0  0
    7.7852   -1.4361    0.2686 H   0  0  0  0  0  0  0  0  0  0  0  0
    8.5669   -2.0128   -2.0138 H   0  0  0  0  0  0  0  0  0  0  0  0
    7.2024   -3.5112   -3.4444 H   0  0  0  0  0  0  0  0  0  0  0  0
    5.0591   -4.4260   -2.6055 H   0  0  0  0  0  0  0  0  0  0  0  0
   -3.2538    4.7838   -1.0227 H   0  0  0  0  0  0  0  0  0  0  0  0
   -4.1726    4.5037    0.4780 H   0  0  0  0  0  0  0  0  0  0  0  0
   -4.5253    6.8024   -0.4595 H   0  0  0  0  0  0  0  0  0  0  0  0
   -3.8731    6.8358    1.1853 H   0  0  0  0  0  0  0  0  0  0  0  0
   -0.5858    7.7578    0.1013 H   0  0  0  0  0  0  0  0  0  0  0  0
   -1.5905    7.3811    1.5100 H   0  0  0  0  0  0  0  0  0  0  0  0
   -0.0903    5.4878    1.0198 H   0  0  0  0  0  0  0  0  0  0  0  0
   -0.6434    5.4334   -0.6761 H   0  0  0  0  0  0  0  0  0  0  0  0
   -1.5106   -1.5230    1.2096 H   0  0  0  0  0  0  0  0  0  0  0  0
   -1.8072   -3.9257    1.3181 H   0  0  0  0  0  0  0  0  0  0  0  0
  1  2  1  0
  2  3  2  0
  3  4  1  0
  4  5  2  0
  5  6  1  0
  6  7  1  0
  7  8  2  0
  8  9  1  0
  9 10  1  0
 10 11  1  0
 11 12  2  0
 12 13  1  0
 13 14  2  0
 14 15  1  0
 15 16  1  0
 16 17  1  0
 17 18  2  0
 18 19  1  0
 19 20  2  0
 20 21  1  0
 21 22  2  0
 14 23  1  0
 23 24  2  0
  9 25  2  0
 25 26  1  0
 26 27  1  0
 27 28  1  0
 28 29  1  0
 29 30  1  0
 30 31  1  0
 31 32  1  0
 26 33  2  0
  5 34  1  0
 34 35  2  0
 35  2  1  0
 33  7  1  0
 24 11  1  0
 32 27  1  0
 22 17  1  0
  1 36  1  0
  1 37  1  0
  1 38  1  0
  3 39  1  0
  4 40  1  0
  6 41  1  0
 12 42  1  0
 13 43  1  0
 16 44  1  0
 16 45  1  0
 18 46  1  0
 19 47  1  0
 20 48  1  0
 21 49  1  0
 22 50  1  0
 28 51  1  0
 28 52  1  0
 29 53  1  0
 29 54  1  0
 31 55  1  0
 31 56  1  0
 32 57  1  0
 32 58  1  0
 34 59  1  0
 35 60  1  0
M  END
$$$$
