
     RDKit          3D

 45 48  0  0  0  0  0  0  0  0999 V2000
   -5.2910    1.3637   -2.1493 C   0  0  0  0  0  0  0  0  0  0  0  0
   -4.2178    0.3759   -1.6866 C   0  0  0  0  0  0  0  0  0  0  0  0
   -3.1783    0.1829   -2.7929 C   0  0  0  0  0  0  0  0  0  0  0  0
   -3.5794    0.8739   -0.3775 C   0  0  0  0  0  0  0  0  0  0  0  0
   -2.6873   -0.1091    0.2350 N   0  0  0  0  0  0  0  0  0  0  0  0
   -1.3489    0.0357   -0.0358 N   0  0  0  0  0  0  0  0  0  0  0  0
   -0.5102   -0.8366    0.4434 C   0  0  0  0  0  0  0  0  0  0  0  0
    0.9538   -0.5970    0.0794 C   0  0  0  0  0  0  0  0  0  0  0  0
    1.6559   -1.5443   -0.2297 O   0  0  0  0  0  0  0  0  0  0  0  0
    1.2697    0.7357    0.1414 N   0  0  0  0  0  0  0  0  0  0  0  0
    2.4860    1.3075   -0.1179 C   0  0  0  0  0  0  0  0  0  0  0  0
    2.6695    2.6099   -0.1008 N   0  0  0  0  0  0  0  0  0  0  0  0
    3.9782    2.9544   -0.3838 N   0  0  0  0  0  0  0  0  0  0  0  0
    4.7199    1.8895   -0.5905 C   0  0  0  0  0  0  0  0  0  0  0  0
    6.2333    1.9871   -0.9515 C   0  0  0  0  0  0  0  0  0  0  0  0
    7.2634    1.4859    0.0285 C   0  0  0  0  0  0  0  0  0  0  0  0
    7.1059    2.9605   -0.2016 C   0  0  0  0  0  0  0  0  0  0  0  0
    3.8897    0.4022   -0.4609 S   0  0  0  0  0  0  0  0  0  0  0  0
   -0.9055   -1.9649    1.3036 C   0  0  0  0  0  0  0  0  0  0  0  0
    0.0047   -2.8611    1.8784 C   0  0  0  0  0  0  0  0  0  0  0  0
   -0.4541   -3.9029    2.6908 C   0  0  0  0  0  0  0  0  0  0  0  0
   -1.8170   -4.0518    2.9384 C   0  0  0  0  0  0  0  0  0  0  0  0
   -2.7249   -3.1553    2.3764 C   0  0  0  0  0  0  0  0  0  0  0  0
   -2.2656   -2.1102    1.5620 C   0  0  0  0  0  0  0  0  0  0  0  0
   -3.2268   -1.1489    0.9888 C   0  0  0  0  0  0  0  0  0  0  0  0
   -4.4279   -1.2933    1.2022 O   0  0  0  0  0  0  0  0  0  0  0  0
   -4.8629    2.3522   -2.3501 H   0  0  0  0  0  0  0  0  0  0  0  0
   -5.7752    1.0114   -3.0663 H   0  0  0  0  0  0  0  0  0  0  0  0
   -6.0676    1.4787   -1.3856 H   0  0  0  0  0  0  0  0  0  0  0  0
   -4.7041   -0.5912   -1.5080 H   0  0  0  0  0  0  0  0  0  0  0  0
   -3.6600   -0.1119   -3.7312 H   0  0  0  0  0  0  0  0  0  0  0  0
   -2.6179    1.1059   -2.9768 H   0  0  0  0  0  0  0  0  0  0  0  0
   -2.4639   -0.6043   -2.5326 H   0  0  0  0  0  0  0  0  0  0  0  0
   -4.3664    1.1062    0.3500 H   0  0  0  0  0  0  0  0  0  0  0  0
   -3.0163    1.8001   -0.5454 H   0  0  0  0  0  0  0  0  0  0  0  0
    0.5132    1.3923    0.3014 H   0  0  0  0  0  0  0  0  0  0  0  0
    6.4408    1.8591   -2.0091 H   0  0  0  0  0  0  0  0  0  0  0  0
    6.9354    1.0917    0.9840 H   0  0  0  0  0  0  0  0  0  0  0  0
    8.1460    1.0004   -0.3721 H   0  0  0  0  0  0  0  0  0  0  0  0
    6.6549    3.5586    0.5832 H   0  0  0  0  0  0  0  0  0  0  0  0
    7.8789    3.4765   -0.7591 H   0  0  0  0  0  0  0  0  0  0  0  0
    1.0757   -2.7809    1.7111 H   0  0  0  0  0  0  0  0  0  0  0  0
    0.2560   -4.6014    3.1295 H   0  0  0  0  0  0  0  0  0  0  0  0
   -2.1729   -4.8633    3.5698 H   0  0  0  0  0  0  0  0  0  0  0  0
   -3.7891   -3.2696    2.5762 H   0  0  0  0  0  0  0  0  0  0  0  0
  1  2  1  0
  2  3  1  0
  2  4  1  0
  4  5  1  0
  5  6  1  0
  6  7  2  0
  7  8  1  0
  8  9  2  0
  8 10  1  0
 10 11  1  0
 11 12  2  0
 12 13  1  0
 13 14  2  0
 14 15  1  0
 15 16  1  0
 16 17  1  0
 14 18  1  0
  7 19  1  0
 19 20  2  0
 20 21  1  0
 21 22  2  0
 22 23  1  0
 23 24  2  0
 24 25  1  0
 25 26  2  0
 25  5  1  0
 18 11  1  0
 24 19  1  0
 17 15  1  0
  1 27  1  0
  1 28  1  0
  1 29  1  0
  2 30  1  0
  3 31  1  0
  3 32  1  0
  3 33  1  0
  4 34  1  0
  4 35  1  0
 10 36  1  0
 15 37  1  0
 16 38  1  0
 16 39  1  0
 17 40  1  0
 17 41  1  0
 20 42  1  0
 21 43  1  0
 22 44  1  0
 23 45  1  0
M  END
$$$$
