
     RDKit          3D

 44 46  0  0  0  0  0  0  0  0999 V2000
   -0.7201   -0.4611   -4.6459 C   0  0  0  0  0  0  0  0  0  0  0  0
    0.2283   -0.8129   -3.6476 O   0  0  0  0  0  0  0  0  0  0  0  0
   -0.2625   -1.1914   -2.4228 C   0  0  0  0  0  0  0  0  0  0  0  0
   -1.5738   -0.9610   -1.9917 C   0  0  0  0  0  0  0  0  0  0  0  0
   -1.9717   -1.3402   -0.7036 C   0  0  0  0  0  0  0  0  0  0  0  0
   -3.3242   -1.0129   -0.2374 C   0  0  0  0  0  0  0  0  0  0  0  0
   -3.6130   -0.1446    0.7560 C   0  0  0  0  0  0  0  0  0  0  0  0
   -4.9753    0.0624    1.1269 C   0  0  0  0  0  0  0  0  0  0  0  0
   -6.0980    0.2253    1.3742 N   0  0  0  0  0  0  0  0  0  0  0  0
   -2.5863    0.6150    1.4898 C   0  0  0  0  0  0  0  0  0  0  0  0
   -1.7972    1.5733    0.8551 C   0  0  0  0  0  0  0  0  0  0  0  0
   -0.8304    2.2450    1.5981 C   0  0  0  0  0  0  0  0  0  0  0  0
   -0.6815    1.9480    2.9466 C   0  0  0  0  0  0  0  0  0  0  0  0
   -1.5119    0.9881    3.5003 C   0  0  0  0  0  0  0  0  0  0  0  0
   -2.4577    0.3174    2.8055 N   0  0  0  0  0  0  0  0  0  0  0  0
   -1.0691   -1.9990    0.1352 C   0  0  0  0  0  0  0  0  0  0  0  0
    0.2395   -2.2328   -0.2869 C   0  0  0  0  0  0  0  0  0  0  0  0
    0.6566   -1.7987   -1.5474 C   0  0  0  0  0  0  0  0  0  0  0  0
    1.9423   -1.9496   -2.0074 O   0  0  0  0  0  0  0  0  0  0  0  0
    2.9950   -1.7787   -1.0508 C   0  0  0  0  0  0  0  0  0  0  0  0
    3.0299   -0.4056   -0.4103 C   0  0  0  0  0  0  0  0  0  0  0  0
    3.2102   -0.2730    0.9746 C   0  0  0  0  0  0  0  0  0  0  0  0
    3.2313    0.9921    1.5671 C   0  0  0  0  0  0  0  0  0  0  0  0
    3.0819    2.1294    0.7764 C   0  0  0  0  0  0  0  0  0  0  0  0
    3.0918    3.6853    1.5119 Cl  0  0  0  0  0  0  0  0  0  0  0  0
    2.9187    2.0153   -0.6025 C   0  0  0  0  0  0  0  0  0  0  0  0
    2.8975    0.7514   -1.1941 C   0  0  0  0  0  0  0  0  0  0  0  0
   -0.1805   -0.3356   -5.5893 H   0  0  0  0  0  0  0  0  0  0  0  0
   -1.4629   -1.2534   -4.7897 H   0  0  0  0  0  0  0  0  0  0  0  0
   -1.2006    0.4938   -4.4090 H   0  0  0  0  0  0  0  0  0  0  0  0
   -2.2909   -0.4541   -2.6297 H   0  0  0  0  0  0  0  0  0  0  0  0
   -4.1235   -1.5377   -0.7599 H   0  0  0  0  0  0  0  0  0  0  0  0
   -1.9197    1.7943   -0.2001 H   0  0  0  0  0  0  0  0  0  0  0  0
   -0.1969    2.9912    1.1266 H   0  0  0  0  0  0  0  0  0  0  0  0
    0.0634    2.4542    3.5508 H   0  0  0  0  0  0  0  0  0  0  0  0
   -1.4364    0.7236    4.5513 H   0  0  0  0  0  0  0  0  0  0  0  0
   -1.3696   -2.3155    1.1326 H   0  0  0  0  0  0  0  0  0  0  0  0
    0.9131   -2.7487    0.3889 H   0  0  0  0  0  0  0  0  0  0  0  0
    3.9381   -1.9103   -1.5950 H   0  0  0  0  0  0  0  0  0  0  0  0
    2.9677   -2.5835   -0.3072 H   0  0  0  0  0  0  0  0  0  0  0  0
    3.3252   -1.1526    1.6039 H   0  0  0  0  0  0  0  0  0  0  0  0
    3.3628    1.0817    2.6427 H   0  0  0  0  0  0  0  0  0  0  0  0
    2.8030    2.9001   -1.2219 H   0  0  0  0  0  0  0  0  0  0  0  0
    2.7572    0.6658   -2.2707 H   0  0  0  0  0  0  0  0  0  0  0  0
  1  2  1  0
  2  3  1  0
  3  4  2  0
  4  5  1  0
  5  6  1  0
  6  7  2  3
  7  8  1  0
  8  9  3  0
  7 10  1  0
 10 11  2  0
 11 12  1  0
 12 13  2  0
 13 14  1  0
 14 15  2  0
  5 16  2  0
 16 17  1  0
 17 18  2  0
 18 19  1  0
 19 20  1  0
 20 21  1  0
 21 22  2  0
 22 23  1  0
 23 24  2  0
 24 25  1  0
 24 26  1  0
 26 27  2  0
 18  3  1  0
 27 21  1  0
 15 10  1  0
  1 28  1  0
  1 29  1  0
  1 30  1  0
  4 31  1  0
  6 32  1  0
 11 33  1  0
 12 34  1  0
 13 35  1  0
 14 36  1  0
 16 37  1  0
 17 38  1  0
 20 39  1  0
 20 40  1  0
 22 41  1  0
 23 42  1  0
 26 43  1  0
 27 44  1  0
M  END
$$$$
