
     RDKit          3D

 49 52  0  0  0  0  0  0  0  0999 V2000
    0.7503    1.9079    1.5531 O   0  0  0  0  0  0  0  0  0  0  0  0
    0.8803    0.6996    1.7396 C   0  0  0  0  0  0  0  0  0  0  0  0
    2.1643    0.1339    2.3539 C   0  0  0  0  0  0  0  0  0  0  0  0
    2.8290   -0.8173    1.4663 N   0  0  0  0  0  0  0  0  0  0  0  0
    3.9007   -0.3347    0.7496 N   0  0  0  0  0  0  0  0  0  0  0  0
    4.5461   -1.1583   -0.0182 C   0  0  0  0  0  0  0  0  0  0  0  0
    5.7072   -0.6515   -0.8044 C   0  0  0  0  0  0  0  0  0  0  0  0
    6.8359   -1.4453   -1.0565 C   0  0  0  0  0  0  0  0  0  0  0  0
    7.9044   -0.9246   -1.7916 C   0  0  0  0  0  0  0  0  0  0  0  0
    7.8456    0.3828   -2.2626 C   0  0  0  0  0  0  0  0  0  0  0  0
    8.8730    0.8760   -2.9655 F   0  0  0  0  0  0  0  0  0  0  0  0
    6.7406    1.1860   -2.0082 C   0  0  0  0  0  0  0  0  0  0  0  0
    5.6707    0.6710   -1.2736 C   0  0  0  0  0  0  0  0  0  0  0  0
    4.1872   -2.5846   -0.1839 C   0  0  0  0  0  0  0  0  0  0  0  0
    3.1485   -3.0334    0.5224 C   0  0  0  0  0  0  0  0  0  0  0  0
    2.3960   -2.1309    1.4131 C   0  0  0  0  0  0  0  0  0  0  0  0
    1.4165   -2.5562    2.0241 O   0  0  0  0  0  0  0  0  0  0  0  0
   -0.0950   -0.2622    1.5224 N   0  0  0  0  0  0  0  0  0  0  0  0
   -1.3784   -0.0887    0.9720 C   0  0  0  0  0  0  0  0  0  0  0  0
   -2.1902   -1.2263    0.8828 C   0  0  0  0  0  0  0  0  0  0  0  0
   -3.4790   -1.1429    0.3467 C   0  0  0  0  0  0  0  0  0  0  0  0
   -3.9768    0.0846   -0.1011 C   0  0  0  0  0  0  0  0  0  0  0  0
   -5.3549    0.1274   -0.6635 C   0  0  0  0  0  0  0  0  0  0  0  0
   -5.8338   -0.8751   -1.1835 O   0  0  0  0  0  0  0  0  0  0  0  0
   -6.0317    1.3259   -0.5285 N   0  0  0  0  0  0  0  0  0  0  0  0
   -7.3828    1.4842   -0.9662 C   0  0  0  0  0  0  0  0  0  0  0  0
   -8.5090    1.4965    0.0295 C   0  0  0  0  0  0  0  0  0  0  0  0
   -8.1347    2.7579   -0.6918 C   0  0  0  0  0  0  0  0  0  0  0  0
   -3.1624    1.2200   -0.0330 C   0  0  0  0  0  0  0  0  0  0  0  0
   -1.8715    1.1311    0.5051 C   0  0  0  0  0  0  0  0  0  0  0  0
    2.8498    0.9596    2.5751 H   0  0  0  0  0  0  0  0  0  0  0  0
    1.9119   -0.3599    3.2993 H   0  0  0  0  0  0  0  0  0  0  0  0
    6.9156   -2.4569   -0.6692 H   0  0  0  0  0  0  0  0  0  0  0  0
    8.7864   -1.5253   -1.9924 H   0  0  0  0  0  0  0  0  0  0  0  0
    6.7187    2.2065   -2.3779 H   0  0  0  0  0  0  0  0  0  0  0  0
    4.8083    1.3041   -1.0717 H   0  0  0  0  0  0  0  0  0  0  0  0
    4.7244   -3.2227   -0.8711 H   0  0  0  0  0  0  0  0  0  0  0  0
    2.8003   -4.0561    0.4592 H   0  0  0  0  0  0  0  0  0  0  0  0
    0.1462   -1.2145    1.8016 H   0  0  0  0  0  0  0  0  0  0  0  0
   -1.8312   -2.1939    1.2273 H   0  0  0  0  0  0  0  0  0  0  0  0
   -4.0942   -2.0385    0.2821 H   0  0  0  0  0  0  0  0  0  0  0  0
   -5.6335    2.0537    0.0502 H   0  0  0  0  0  0  0  0  0  0  0  0
   -7.5807    1.0027   -1.9226 H   0  0  0  0  0  0  0  0  0  0  0  0
   -8.2661    1.4148    1.0821 H   0  0  0  0  0  0  0  0  0  0  0  0
   -9.4292    0.9975   -0.2520 H   0  0  0  0  0  0  0  0  0  0  0  0
   -8.8070    3.1203   -1.4612 H   0  0  0  0  0  0  0  0  0  0  0  0
   -7.6501    3.5415   -0.1228 H   0  0  0  0  0  0  0  0  0  0  0  0
   -3.4954    2.1792   -0.4190 H   0  0  0  0  0  0  0  0  0  0  0  0
   -1.2703    2.0349    0.5321 H   0  0  0  0  0  0  0  0  0  0  0  0
  1  2  2  0
  2  3  1  0
  3  4  1  0
  4  5  1  0
  5  6  2  0
  6  7  1  0
  7  8  2  0
  8  9  1  0
  9 10  2  0
 10 11  1  0
 10 12  1  0
 12 13  2  0
  6 14  1  0
 14 15  2  0
 15 16  1  0
 16 17  2  0
  2 18  1  0
 18 19  1  0
 19 20  2  0
 20 21  1  0
 21 22  2  0
 22 23  1  0
 23 24  2  0
 23 25  1  0
 25 26  1  0
 26 27  1  0
 27 28  1  0
 22 29  1  0
 29 30  2  0
 16  4  1  0
 30 19  1  0
 13  7  1  0
 28 26  1  0
  3 31  1  0
  3 32  1  0
  8 33  1  0
  9 34  1  0
 12 35  1  0
 13 36  1  0
 14 37  1  0
 15 38  1  0
 18 39  1  0
 20 40  1  0
 21 41  1  0
 25 42  1  0
 26 43  1  0
 27 44  1  0
 27 45  1  0
 28 46  1  0
 28 47  1  0
 29 48  1  0
 30 49  1  0
M  END
$$$$
