
     RDKit          3D

 46 49  0  0  0  0  0  0  0  0999 V2000
   -6.2511    0.4039    1.5657 C   0  0  0  0  0  0  0  0  0  0  0  0
   -4.8941    0.8237    1.5124 O   0  0  0  0  0  0  0  0  0  0  0  0
   -4.0131    0.0061    0.8568 C   0  0  0  0  0  0  0  0  0  0  0  0
   -4.3206   -1.2251    0.2778 C   0  0  0  0  0  0  0  0  0  0  0  0
   -3.3233   -1.9635   -0.3599 C   0  0  0  0  0  0  0  0  0  0  0  0
   -2.0251   -1.4563   -0.4306 C   0  0  0  0  0  0  0  0  0  0  0  0
   -1.0230   -2.1803   -1.0375 O   0  0  0  0  0  0  0  0  0  0  0  0
   -1.2498   -2.2860   -2.4445 C   0  0  0  0  0  0  0  0  0  0  0  0
   -1.6833   -0.2244    0.1598 C   0  0  0  0  0  0  0  0  0  0  0  0
   -0.3409    0.1911    0.1127 N   0  0  0  0  0  0  0  0  0  0  0  0
    0.2765    1.4631    0.2463 C   0  0  0  0  0  0  0  0  0  0  0  0
   -0.4710    2.5616    0.5253 N   0  0  0  0  0  0  0  0  0  0  0  0
    0.2888    3.6852    0.6048 C   0  0  0  0  0  0  0  0  0  0  0  0
   -0.1457    4.9189    0.8618 N   0  0  0  0  0  0  0  0  0  0  0  0
    1.0005    5.7133    0.8290 O   0  0  0  0  0  0  0  0  0  0  0  0
    2.1479    4.9693    0.5539 N   0  0  0  0  0  0  0  0  0  0  0  0
    1.7128    3.7157    0.4196 C   0  0  0  0  0  0  0  0  0  0  0  0
    2.4768    2.6235    0.1473 N   0  0  0  0  0  0  0  0  0  0  0  0
    1.7260    1.4916    0.0791 C   0  0  0  0  0  0  0  0  0  0  0  0
    2.3803    0.2455   -0.2054 N   0  0  0  0  0  0  0  0  0  0  0  0
    2.6353   -0.4723    1.0626 C   0  0  0  0  0  0  0  0  0  0  0  0
    3.1810   -1.8651    0.7430 C   0  0  0  0  0  0  0  0  0  0  0  0
    4.4301   -1.7848   -0.1337 C   0  0  0  0  0  0  0  0  0  0  0  0
    4.1733   -0.9322   -1.3752 C   0  0  0  0  0  0  0  0  0  0  0  0
    3.6108    0.4386   -0.9945 C   0  0  0  0  0  0  0  0  0  0  0  0
   -2.6975    0.4896    0.8039 C   0  0  0  0  0  0  0  0  0  0  0  0
   -6.3538   -0.5171    2.1481 H   0  0  0  0  0  0  0  0  0  0  0  0
   -6.8239    1.1865    2.0717 H   0  0  0  0  0  0  0  0  0  0  0  0
   -6.6709    0.2855    0.5608 H   0  0  0  0  0  0  0  0  0  0  0  0
   -5.3209   -1.6424    0.3167 H   0  0  0  0  0  0  0  0  0  0  0  0
   -3.5605   -2.9341   -0.7846 H   0  0  0  0  0  0  0  0  0  0  0  0
   -2.0618   -2.9897   -2.6621 H   0  0  0  0  0  0  0  0  0  0  0  0
   -1.4572   -1.3063   -2.8919 H   0  0  0  0  0  0  0  0  0  0  0  0
   -0.3346   -2.6789   -2.8984 H   0  0  0  0  0  0  0  0  0  0  0  0
    0.2421   -0.4233   -0.4586 H   0  0  0  0  0  0  0  0  0  0  0  0
    1.7196   -0.5899    1.6529 H   0  0  0  0  0  0  0  0  0  0  0  0
    3.3576    0.0800    1.6795 H   0  0  0  0  0  0  0  0  0  0  0  0
    2.4116   -2.4471    0.2206 H   0  0  0  0  0  0  0  0  0  0  0  0
    3.4135   -2.3963    1.6727 H   0  0  0  0  0  0  0  0  0  0  0  0
    4.7432   -2.7920   -0.4304 H   0  0  0  0  0  0  0  0  0  0  0  0
    5.2539   -1.3485    0.4440 H   0  0  0  0  0  0  0  0  0  0  0  0
    3.4610   -1.4522   -2.0290 H   0  0  0  0  0  0  0  0  0  0  0  0
    5.1037   -0.8100   -1.9410 H   0  0  0  0  0  0  0  0  0  0  0  0
    4.3688    0.9981   -0.4304 H   0  0  0  0  0  0  0  0  0  0  0  0
    3.3883    0.9927   -1.9154 H   0  0  0  0  0  0  0  0  0  0  0  0
   -2.4810    1.4344    1.2942 H   0  0  0  0  0  0  0  0  0  0  0  0
  1  2  1  0
  2  3  1  0
  3  4  2  0
  4  5  1  0
  5  6  2  0
  6  7  1  0
  7  8  1  0
  6  9  1  0
  9 10  1  0
 10 11  1  0
 11 12  2  0
 12 13  1  0
 13 14  2  0
 14 15  1  0
 15 16  1  0
 16 17  2  0
 17 18  1  0
 18 19  2  0
 19 20  1  0
 20 21  1  0
 21 22  1  0
 22 23  1  0
 23 24  1  0
 24 25  1  0
  9 26  2  0
 26  3  1  0
 19 11  1  0
 25 20  1  0
 17 13  1  0
  1 27  1  0
  1 28  1  0
  1 29  1  0
  4 30  1  0
  5 31  1  0
  8 32  1  0
  8 33  1  0
  8 34  1  0
 10 35  1  0
 21 36  1  0
 21 37  1  0
 22 38  1  0
 22 39  1  0
 23 40  1  0
 23 41  1  0
 24 42  1  0
 24 43  1  0
 25 44  1  0
 25 45  1  0
 26 46  1  0
M  END
$$$$
