
     RDKit          3D

 52 55  0  0  0  0  0  0  0  0999 V2000
    7.5449   -0.8009    3.0800 C   0  0  0  0  0  0  0  0  0  0  0  0
    6.1982   -0.7544    2.4135 C   0  0  0  0  0  0  0  0  0  0  0  0
    5.3503   -1.8713    2.4782 C   0  0  0  0  0  0  0  0  0  0  0  0
    4.0930   -1.8723    1.8640 C   0  0  0  0  0  0  0  0  0  0  0  0
    3.7309   -0.7080    1.1915 C   0  0  0  0  0  0  0  0  0  0  0  0
    2.5534   -0.5113    0.5491 O   0  0  0  0  0  0  0  0  0  0  0  0
    2.5628    0.7575    0.0308 C   0  0  0  0  0  0  0  0  0  0  0  0
    1.4233    1.2450   -0.7400 C   0  0  0  0  0  0  0  0  0  0  0  0
    1.5353    2.2152   -1.4947 O   0  0  0  0  0  0  0  0  0  0  0  0
    0.1811    0.6000   -0.6264 N   0  0  0  0  0  0  0  0  0  0  0  0
   -0.1882   -0.3149    0.4565 C   0  0  0  0  0  0  0  0  0  0  0  0
   -1.6890   -0.2616    0.7420 C   0  0  0  0  0  0  0  0  0  0  0  0
   -2.5046   -0.6659   -0.5074 C   0  0  0  0  0  0  0  0  0  0  0  0
   -2.5421   -2.1078   -0.4888 O   0  0  0  0  0  0  0  0  0  0  0  0
   -3.9524   -0.1581   -0.5145 C   0  0  0  0  0  0  0  0  0  0  0  0
   -4.3096    1.1110   -0.0331 C   0  0  0  0  0  0  0  0  0  0  0  0
   -5.6335    1.5594   -0.0831 C   0  0  0  0  0  0  0  0  0  0  0  0
   -6.6290    0.7563   -0.6340 C   0  0  0  0  0  0  0  0  0  0  0  0
   -6.3093   -0.5029   -1.1520 C   0  0  0  0  0  0  0  0  0  0  0  0
   -7.3623   -1.3782   -1.7867 C   0  0  0  0  0  0  0  0  0  0  0  0
   -7.1648   -1.5437   -3.1235 F   0  0  0  0  0  0  0  0  0  0  0  0
   -8.6282   -0.8904   -1.6563 F   0  0  0  0  0  0  0  0  0  0  0  0
   -7.3910   -2.6314   -1.2535 F   0  0  0  0  0  0  0  0  0  0  0  0
   -4.9729   -0.9414   -1.0952 C   0  0  0  0  0  0  0  0  0  0  0  0
   -1.7976   -0.2580   -1.8184 C   0  0  0  0  0  0  0  0  0  0  0  0
   -0.8547    0.9201   -1.6056 C   0  0  0  0  0  0  0  0  0  0  0  0
    3.7880    1.3622    0.3113 C   0  0  0  0  0  0  0  0  0  0  0  0
    4.2201    2.7254   -0.0972 C   0  0  0  0  0  0  0  0  0  0  0  0
    4.5347    0.4164    1.0810 C   0  0  0  0  0  0  0  0  0  0  0  0
    5.8034    0.3885    1.6926 C   0  0  0  0  0  0  0  0  0  0  0  0
    7.9641    0.2032    3.1981 H   0  0  0  0  0  0  0  0  0  0  0  0
    7.4584   -1.2369    4.0819 H   0  0  0  0  0  0  0  0  0  0  0  0
    8.2416   -1.4037    2.4863 H   0  0  0  0  0  0  0  0  0  0  0  0
    5.6669   -2.7612    3.0177 H   0  0  0  0  0  0  0  0  0  0  0  0
    3.4305   -2.7292    1.9105 H   0  0  0  0  0  0  0  0  0  0  0  0
    0.1172   -1.3263    0.1645 H   0  0  0  0  0  0  0  0  0  0  0  0
    0.3472   -0.0319    1.3688 H   0  0  0  0  0  0  0  0  0  0  0  0
   -1.9206   -0.9230    1.5876 H   0  0  0  0  0  0  0  0  0  0  0  0
   -1.9136    0.7582    1.0726 H   0  0  0  0  0  0  0  0  0  0  0  0
   -3.0936   -2.3667    0.2700 H   0  0  0  0  0  0  0  0  0  0  0  0
   -3.5683    1.7948    0.3709 H   0  0  0  0  0  0  0  0  0  0  0  0
   -5.8829    2.5476    0.2962 H   0  0  0  0  0  0  0  0  0  0  0  0
   -7.6519    1.1262   -0.6718 H   0  0  0  0  0  0  0  0  0  0  0  0
   -4.7304   -1.9154   -1.5232 H   0  0  0  0  0  0  0  0  0  0  0  0
   -1.2171   -1.1048   -2.2114 H   0  0  0  0  0  0  0  0  0  0  0  0
   -2.5204   -0.0043   -2.6042 H   0  0  0  0  0  0  0  0  0  0  0  0
   -0.3902    1.1956   -2.5598 H   0  0  0  0  0  0  0  0  0  0  0  0
   -1.3982    1.7997   -1.2408 H   0  0  0  0  0  0  0  0  0  0  0  0
    4.0898    2.8727   -1.1773 H   0  0  0  0  0  0  0  0  0  0  0  0
    5.2797    2.8923    0.1301 H   0  0  0  0  0  0  0  0  0  0  0  0
    3.6343    3.4859    0.4364 H   0  0  0  0  0  0  0  0  0  0  0  0
    6.4671    1.2428    1.6074 H   0  0  0  0  0  0  0  0  0  0  0  0
  1  2  1  0
  2  3  2  0
  3  4  1  0
  4  5  2  0
  5  6  1  0
  6  7  1  0
  7  8  1  0
  8  9  2  0
  8 10  1  0
 10 11  1  0
 11 12  1  0
 12 13  1  0
 13 14  1  0
 13 15  1  0
 15 16  2  0
 16 17  1  0
 17 18  2  0
 18 19  1  0
 19 20  1  0
 20 21  1  0
 20 22  1  0
 20 23  1  0
 19 24  2  0
 13 25  1  0
 25 26  1  0
  7 27  2  0
 27 28  1  0
 27 29  1  0
 29 30  2  0
 30  2  1  0
 29  5  1  0
 26 10  1  0
 24 15  1  0
  1 31  1  0
  1 32  1  0
  1 33  1  0
  3 34  1  0
  4 35  1  0
 11 36  1  0
 11 37  1  0
 12 38  1  0
 12 39  1  0
 14 40  1  0
 16 41  1  0
 17 42  1  0
 18 43  1  0
 24 44  1  0
 25 45  1  0
 25 46  1  0
 26 47  1  0
 26 48  1  0
 28 49  1  0
 28 50  1  0
 28 51  1  0
 30 52  1  0
M  END
$$$$
