
     RDKit          3D

 32 32  0  0  0  0  0  0  0  0999 V2000
    6.1016   -1.1886   -0.0395 C   0  0  0  0  0  0  0  0  0  0  0  0
    4.6729   -0.6738   -0.0219 C   0  0  0  0  0  0  0  0  0  0  0  0
    3.6325   -1.7669    0.9894 S   0  0  0  0  0  0  0  0  0  0  0  0
    2.0891   -0.9557    0.8646 C   0  0  0  0  0  0  0  0  0  0  0  0
    1.8921    0.0996    0.1062 N   0  0  0  0  0  0  0  0  0  0  0  0
    0.5939    0.5575    0.1866 N   0  0  0  0  0  0  0  0  0  0  0  0
   -0.1522   -0.1666    0.9908 C   0  0  0  0  0  0  0  0  0  0  0  0
   -1.4679    0.0169    1.2425 N   0  0  0  0  0  0  0  0  0  0  0  0
   -2.3057    0.9382    0.4163 C   0  0  0  0  0  0  0  0  0  0  0  0
   -2.1564    0.4651   -0.9861 N   0  0  0  0  0  0  0  0  0  0  0  0
   -2.6633   -0.7226   -1.4346 C   0  0  0  0  0  0  0  0  0  0  0  0
   -2.2716   -1.0743   -2.8437 C   0  0  0  0  0  0  0  0  0  0  0  0
   -3.3551   -1.4569   -0.7423 O   0  0  0  0  0  0  0  0  0  0  0  0
   -1.9176    2.4462    0.5274 C   0  0  0  0  0  0  0  0  0  0  0  0
   -1.7032    2.8424    1.8022 F   0  0  0  0  0  0  0  0  0  0  0  0
   -2.8704    3.2566    0.0044 F   0  0  0  0  0  0  0  0  0  0  0  0
   -0.7865    2.7252   -0.1696 F   0  0  0  0  0  0  0  0  0  0  0  0
   -3.7750    0.9639    0.9606 C   0  0  0  0  0  0  0  0  0  0  0  0
   -4.6523    1.4429    0.0481 F   0  0  0  0  0  0  0  0  0  0  0  0
   -3.8987    1.7271    2.0743 F   0  0  0  0  0  0  0  0  0  0  0  0
   -4.2031   -0.2707    1.3250 F   0  0  0  0  0  0  0  0  0  0  0  0
    0.6967   -1.4812    1.7101 S   0  0  0  0  0  0  0  0  0  0  0  0
    6.1621   -2.1934   -0.4715 H   0  0  0  0  0  0  0  0  0  0  0  0
    6.7272   -0.5285   -0.6495 H   0  0  0  0  0  0  0  0  0  0  0  0
    6.5325   -1.2148    0.9672 H   0  0  0  0  0  0  0  0  0  0  0  0
    4.2836   -0.6387   -1.0445 H   0  0  0  0  0  0  0  0  0  0  0  0
    4.6533    0.3392    0.3931 H   0  0  0  0  0  0  0  0  0  0  0  0
   -1.9868   -0.8169    1.5242 H   0  0  0  0  0  0  0  0  0  0  0  0
   -1.3340    0.8246   -1.4630 H   0  0  0  0  0  0  0  0  0  0  0  0
   -3.1448   -1.4684   -3.3708 H   0  0  0  0  0  0  0  0  0  0  0  0
   -1.4824   -1.8301   -2.8179 H   0  0  0  0  0  0  0  0  0  0  0  0
   -1.9105   -0.1974   -3.3885 H   0  0  0  0  0  0  0  0  0  0  0  0
  1  2  1  0
  2  3  1  0
  3  4  1  0
  4  5  2  0
  5  6  1  0
  6  7  2  0
  7  8  1  0
  8  9  1  0
  9 10  1  0
 10 11  1  0
 11 12  1  0
 11 13  2  0
  9 14  1  0
 14 15  1  0
 14 16  1  0
 14 17  1  0
  9 18  1  0
 18 19  1  0
 18 20  1  0
 18 21  1  0
  7 22  1  0
 22  4  1  0
  1 23  1  0
  1 24  1  0
  1 25  1  0
  2 26  1  0
  2 27  1  0
  8 28  1  0
 10 29  1  0
 12 30  1  0
 12 31  1  0
 12 32  1  0
M  END
$$$$
