
     RDKit          3D

 53 55  0  0  0  0  0  0  0  0999 V2000
    6.2335   -2.8544    2.7446 C   0  0  0  0  0  0  0  0  0  0  0  0
    6.3299   -1.7386    1.8712 O   0  0  0  0  0  0  0  0  0  0  0  0
    5.3178   -1.5720    0.9664 C   0  0  0  0  0  0  0  0  0  0  0  0
    5.4882   -0.4958    0.0963 C   0  0  0  0  0  0  0  0  0  0  0  0
    4.5313   -0.2118   -0.8804 C   0  0  0  0  0  0  0  0  0  0  0  0
    3.3806   -1.0031   -1.0022 C   0  0  0  0  0  0  0  0  0  0  0  0
    2.4080   -0.7362   -1.9813 C   0  0  0  0  0  0  0  0  0  0  0  0
    1.2474   -1.5225   -2.1055 C   0  0  0  0  0  0  0  0  0  0  0  0
    0.2356   -1.1594   -3.1879 C   0  0  0  0  0  0  0  0  0  0  0  0
   -0.9118   -2.1533   -3.3931 C   0  0  0  0  0  0  0  0  0  0  0  0
   -0.3599    0.2429   -2.9850 C   0  0  0  0  0  0  0  0  0  0  0  0
   -0.3460    1.0581   -3.9055 O   0  0  0  0  0  0  0  0  0  0  0  0
   -0.9214    0.4380   -1.7327 N   0  0  0  0  0  0  0  0  0  0  0  0
   -1.5743    1.5910   -1.2517 C   0  0  0  0  0  0  0  0  0  0  0  0
   -1.8305    2.7272   -2.0254 C   0  0  0  0  0  0  0  0  0  0  0  0
   -2.4787    3.8402   -1.4744 C   0  0  0  0  0  0  0  0  0  0  0  0
   -2.8885    3.8250   -0.1432 C   0  0  0  0  0  0  0  0  0  0  0  0
   -2.6469    2.6876    0.6242 C   0  0  0  0  0  0  0  0  0  0  0  0
   -3.1527    2.6321    2.3230 S   0  0  0  0  0  6  0  0  0  0  0  0
   -3.8621    3.8557    2.6368 O   0  0  0  0  0  0  0  0  0  0  0  0
   -2.0022    2.2090    3.0950 O   0  0  0  0  0  0  0  0  0  0  0  0
   -4.3025    1.3578    2.3323 N   0  0  0  0  0  0  0  0  0  0  0  0
   -5.5317    1.6226    1.5477 C   0  0  0  0  0  0  0  0  0  0  0  0
   -4.6274    0.8919    3.7011 C   0  0  0  0  0  0  0  0  0  0  0  0
   -1.9895    1.5763    0.0831 C   0  0  0  0  0  0  0  0  0  0  0  0
    1.0820   -2.5982   -1.2252 C   0  0  0  0  0  0  0  0  0  0  0  0
    2.0431   -2.8764   -0.2473 C   0  0  0  0  0  0  0  0  0  0  0  0
    3.1977   -2.0898   -0.1222 C   0  0  0  0  0  0  0  0  0  0  0  0
    4.1729   -2.3636    0.8566 C   0  0  0  0  0  0  0  0  0  0  0  0
    7.1239   -2.8616    3.3795 H   0  0  0  0  0  0  0  0  0  0  0  0
    6.2157   -3.7959    2.1849 H   0  0  0  0  0  0  0  0  0  0  0  0
    5.3617   -2.7682    3.3981 H   0  0  0  0  0  0  0  0  0  0  0  0
    6.3754    0.1284    0.1778 H   0  0  0  0  0  0  0  0  0  0  0  0
    4.6941    0.6344   -1.5442 H   0  0  0  0  0  0  0  0  0  0  0  0
    2.5577    0.1031   -2.6612 H   0  0  0  0  0  0  0  0  0  0  0  0
    0.7993   -1.1291   -4.1320 H   0  0  0  0  0  0  0  0  0  0  0  0
   -1.5563   -1.8317   -4.2195 H   0  0  0  0  0  0  0  0  0  0  0  0
   -1.5486   -2.2387   -2.5049 H   0  0  0  0  0  0  0  0  0  0  0  0
   -0.5291   -3.1509   -3.6401 H   0  0  0  0  0  0  0  0  0  0  0  0
   -0.7732   -0.3023   -1.0557 H   0  0  0  0  0  0  0  0  0  0  0  0
   -1.5305    2.7865   -3.0674 H   0  0  0  0  0  0  0  0  0  0  0  0
   -2.6550    4.7180   -2.0898 H   0  0  0  0  0  0  0  0  0  0  0  0
   -3.3854    4.6939    0.2804 H   0  0  0  0  0  0  0  0  0  0  0  0
   -5.2913    1.8810    0.5140 H   0  0  0  0  0  0  0  0  0  0  0  0
   -6.1226    2.4260    1.9977 H   0  0  0  0  0  0  0  0  0  0  0  0
   -6.1468    0.7164    1.5137 H   0  0  0  0  0  0  0  0  0  0  0  0
   -5.2977    0.0282    3.6503 H   0  0  0  0  0  0  0  0  0  0  0  0
   -5.1179    1.6817    4.2781 H   0  0  0  0  0  0  0  0  0  0  0  0
   -3.7215    0.5641    4.2204 H   0  0  0  0  0  0  0  0  0  0  0  0
   -1.8041    0.7111    0.7170 H   0  0  0  0  0  0  0  0  0  0  0  0
    0.2129   -3.2480   -1.2786 H   0  0  0  0  0  0  0  0  0  0  0  0
    1.8837   -3.7229    0.4177 H   0  0  0  0  0  0  0  0  0  0  0  0
    4.0133   -3.2036    1.5248 H   0  0  0  0  0  0  0  0  0  0  0  0
  1  2  1  0
  2  3  1  0
  3  4  2  0
  4  5  1  0
  5  6  2  0
  6  7  1  0
  7  8  2  0
  8  9  1  0
  9 10  1  0
  9 11  1  0
 11 12  2  0
 11 13  1  0
 13 14  1  0
 14 15  2  0
 15 16  1  0
 16 17  2  0
 17 18  1  0
 18 19  1  0
 19 20  2  0
 19 21  2  0
 19 22  1  0
 22 23  1  0
 22 24  1  0
 18 25  2  0
  8 26  1  0
 26 27  2  0
 27 28  1  0
 28 29  2  0
 29  3  1  0
 28  6  1  0
 25 14  1  0
  1 30  1  0
  1 31  1  0
  1 32  1  0
  4 33  1  0
  5 34  1  0
  7 35  1  0
  9 36  1  0
 10 37  1  0
 10 38  1  0
 10 39  1  0
 13 40  1  0
 15 41  1  0
 16 42  1  0
 17 43  1  0
 23 44  1  0
 23 45  1  0
 23 46  1  0
 24 47  1  0
 24 48  1  0
 24 49  1  0
 25 50  1  0
 26 51  1  0
 27 52  1  0
 29 53  1  0
M  END
$$$$
