
     RDKit          3D

 39 41  0  0  0  0  0  0  0  0999 V2000
   -2.0081   -1.0463   -2.7853 C   0  0  0  0  0  0  0  0  0  0  0  0
   -2.6078   -0.5639   -1.4912 C   0  0  0  0  0  0  0  0  0  0  0  0
   -4.0122   -0.6214   -1.3987 C   0  0  0  0  0  0  0  0  0  0  0  0
   -4.6847   -0.1027   -0.2988 C   0  0  0  0  0  0  0  0  0  0  0  0
   -3.9639    0.4917    0.7282 C   0  0  0  0  0  0  0  0  0  0  0  0
   -2.5602    0.5443    0.6838 C   0  0  0  0  0  0  0  0  0  0  0  0
   -1.8489    1.1834    1.8487 C   0  0  0  0  0  0  0  0  0  0  0  0
   -1.8672   -0.0295   -0.4135 C   0  0  0  0  0  0  0  0  0  0  0  0
   -0.4494    0.0273   -0.3902 N   0  0  0  0  0  0  0  0  0  0  0  0
    0.4199   -0.9417   -0.8480 C   0  0  0  0  0  0  0  0  0  0  0  0
    0.0955   -2.0676   -1.2205 O   0  0  0  0  0  0  0  0  0  0  0  0
    1.9036   -0.5803   -0.7803 C   0  0  0  0  0  0  0  0  0  0  0  0
    2.3127    0.9065   -0.8345 C   0  0  0  0  0  0  0  0  0  0  0  0
    3.2563    1.0431    0.3769 C   0  0  0  0  0  0  0  0  0  0  0  0
    2.4258    0.9915    1.6704 C   0  0  0  0  0  0  0  0  0  0  0  0
    2.0323   -0.4894    1.7679 C   0  0  0  0  0  0  0  0  0  0  0  0
    2.6288   -1.0922    0.4855 C   0  0  0  0  0  0  0  0  0  0  0  0
    3.9491   -0.3201    0.3948 C   0  0  0  0  0  0  0  0  0  0  0  0
   -2.6871   -0.8406   -3.6215 H   0  0  0  0  0  0  0  0  0  0  0  0
   -1.0797   -0.5206   -3.0259 H   0  0  0  0  0  0  0  0  0  0  0  0
   -1.8378   -2.1259   -2.7523 H   0  0  0  0  0  0  0  0  0  0  0  0
   -4.5930   -1.0582   -2.2093 H   0  0  0  0  0  0  0  0  0  0  0  0
   -5.7693   -0.1488   -0.2515 H   0  0  0  0  0  0  0  0  0  0  0  0
   -4.5061    0.9070    1.5750 H   0  0  0  0  0  0  0  0  0  0  0  0
   -1.2508    2.0353    1.5097 H   0  0  0  0  0  0  0  0  0  0  0  0
   -2.5542    1.5614    2.5967 H   0  0  0  0  0  0  0  0  0  0  0  0
   -1.2053    0.4530    2.3482 H   0  0  0  0  0  0  0  0  0  0  0  0
   -0.0528    0.6626    0.2847 H   0  0  0  0  0  0  0  0  0  0  0  0
    2.3532   -1.0630   -1.6613 H   0  0  0  0  0  0  0  0  0  0  0  0
    2.8701    1.0973   -1.7600 H   0  0  0  0  0  0  0  0  0  0  0  0
    1.4880    1.6226   -0.8022 H   0  0  0  0  0  0  0  0  0  0  0  0
    3.9198    1.9080    0.3165 H   0  0  0  0  0  0  0  0  0  0  0  0
    3.0343    1.2754    2.5364 H   0  0  0  0  0  0  0  0  0  0  0  0
    1.5544    1.6523    1.6370 H   0  0  0  0  0  0  0  0  0  0  0  0
    2.5005   -0.9383    2.6523 H   0  0  0  0  0  0  0  0  0  0  0  0
    0.9548   -0.6374    1.8623 H   0  0  0  0  0  0  0  0  0  0  0  0
    2.7287   -2.1793    0.5234 H   0  0  0  0  0  0  0  0  0  0  0  0
    4.5138   -0.5310   -0.5196 H   0  0  0  0  0  0  0  0  0  0  0  0
    4.5970   -0.4646    1.2661 H   0  0  0  0  0  0  0  0  0  0  0  0
  1  2  1  0
  2  3  2  0
  3  4  1  0
  4  5  2  0
  5  6  1  0
  6  7  1  0
  6  8  2  0
  8  9  1  0
  9 10  1  0
 10 11  2  0
 10 12  1  0
 12 13  1  0
 13 14  1  0
 14 15  1  0
 15 16  1  0
 16 17  1  0
 17 18  1  0
  8  2  1  0
 17 12  1  0
 18 14  1  0
  1 19  1  0
  1 20  1  0
  1 21  1  0
  3 22  1  0
  4 23  1  0
  5 24  1  0
  7 25  1  0
  7 26  1  0
  7 27  1  0
  9 28  1  0
 12 29  1  0
 13 30  1  0
 13 31  1  0
 14 32  1  0
 15 33  1  0
 15 34  1  0
 16 35  1  0
 16 36  1  0
 17 37  1  0
 18 38  1  0
 18 39  1  0
M  END
$$$$
