
     RDKit          3D

 39 40  0  0  0  0  0  0  0  0999 V2000
   -7.0963    0.9903    1.5164 N   0  0  0  0  0  0  0  0  0  0  0  0
   -6.7380    0.4271   -0.0301 S   0  0  0  0  0  6  0  0  0  0  0  0
   -7.4750   -0.8078   -0.1721 O   0  0  0  0  0  0  0  0  0  0  0  0
   -6.8803    1.5278   -0.9524 O   0  0  0  0  0  0  0  0  0  0  0  0
   -5.0147    0.0427    0.1238 C   0  0  0  0  0  0  0  0  0  0  0  0
   -4.6109   -1.2756    0.3459 C   0  0  0  0  0  0  0  0  0  0  0  0
   -3.2507   -1.5663    0.4626 C   0  0  0  0  0  0  0  0  0  0  0  0
   -2.2946   -0.5458    0.3557 C   0  0  0  0  0  0  0  0  0  0  0  0
   -0.8213   -0.8605    0.4584 C   0  0  0  0  0  0  0  0  0  0  0  0
   -0.1825   -1.0306   -0.9235 C   0  0  0  0  0  0  0  0  0  0  0  0
    1.2288   -1.3757   -0.8527 N   0  0  0  0  0  0  0  0  0  0  0  0
    2.1555   -0.4089   -0.5036 C   0  0  0  0  0  0  0  0  0  0  0  0
    1.8362    0.7282   -0.1868 O   0  0  0  0  0  0  0  0  0  0  0  0
    3.4316   -0.9273   -0.5492 N   0  0  0  0  0  0  0  0  0  0  0  0
    4.6438   -0.2414   -0.3365 C   0  0  0  0  0  0  0  0  0  0  0  0
    4.7383    1.1457   -0.2088 C   0  0  0  0  0  0  0  0  0  0  0  0
    5.9806    1.7585   -0.0072 C   0  0  0  0  0  0  0  0  0  0  0  0
    7.1429    0.9898    0.0643 C   0  0  0  0  0  0  0  0  0  0  0  0
    8.6413    1.8107    0.3138 Cl  0  0  0  0  0  0  0  0  0  0  0  0
    7.0585   -0.3983   -0.0693 C   0  0  0  0  0  0  0  0  0  0  0  0
    8.4495   -1.4223    0.0024 Cl  0  0  0  0  0  0  0  0  0  0  0  0
    5.8136   -1.0083   -0.2708 C   0  0  0  0  0  0  0  0  0  0  0  0
   -2.7164    0.7712    0.1180 C   0  0  0  0  0  0  0  0  0  0  0  0
   -4.0742    1.0680   -0.0016 C   0  0  0  0  0  0  0  0  0  0  0  0
   -7.7641    0.3522    1.9525 H   0  0  0  0  0  0  0  0  0  0  0  0
   -6.2684    1.1289    2.0950 H   0  0  0  0  0  0  0  0  0  0  0  0
   -5.3410   -2.0783    0.4242 H   0  0  0  0  0  0  0  0  0  0  0  0
   -2.9403   -2.5953    0.6341 H   0  0  0  0  0  0  0  0  0  0  0  0
   -0.3256   -0.0649    1.0276 H   0  0  0  0  0  0  0  0  0  0  0  0
   -0.6771   -1.7742    1.0494 H   0  0  0  0  0  0  0  0  0  0  0  0
   -0.2864   -0.1175   -1.5219 H   0  0  0  0  0  0  0  0  0  0  0  0
   -0.6778   -1.8416   -1.4700 H   0  0  0  0  0  0  0  0  0  0  0  0
    1.5518   -2.0157   -1.5637 H   0  0  0  0  0  0  0  0  0  0  0  0
    3.4787   -1.9345   -0.5980 H   0  0  0  0  0  0  0  0  0  0  0  0
    3.8615    1.7850   -0.2665 H   0  0  0  0  0  0  0  0  0  0  0  0
    6.0280    2.8407    0.0915 H   0  0  0  0  0  0  0  0  0  0  0  0
    5.7675   -2.0896   -0.3729 H   0  0  0  0  0  0  0  0  0  0  0  0
   -1.9837    1.5716    0.0194 H   0  0  0  0  0  0  0  0  0  0  0  0
   -4.3889    2.0914   -0.1974 H   0  0  0  0  0  0  0  0  0  0  0  0
  1  2  1  0
  2  3  2  0
  2  4  2  0
  2  5  1  0
  5  6  2  0
  6  7  1  0
  7  8  2  0
  8  9  1  0
  9 10  1  0
 10 11  1  0
 11 12  1  0
 12 13  2  0
 12 14  1  0
 14 15  1  0
 15 16  2  0
 16 17  1  0
 17 18  2  0
 18 19  1  0
 18 20  1  0
 20 21  1  0
 20 22  2  0
  8 23  1  0
 23 24  2  0
 24  5  1  0
 22 15  1  0
  1 25  1  0
  1 26  1  0
  6 27  1  0
  7 28  1  0
  9 29  1  0
  9 30  1  0
 10 31  1  0
 10 32  1  0
 11 33  1  0
 14 34  1  0
 16 35  1  0
 17 36  1  0
 22 37  1  0
 23 38  1  0
 24 39  1  0
M  END
$$$$
