
     RDKit          3D

 42 45  0  0  0  0  0  0  0  0999 V2000
    6.0312   -2.7978    3.0594 O   0  0  0  0  0  0  0  0  0  0  0  0
    6.2301   -1.6465    3.4047 C   0  0  0  0  0  0  0  0  0  0  0  0
    6.8744   -1.3739    4.5557 O   0  0  0  0  0  0  0  0  0  0  0  0
    5.8341   -0.3921    2.6755 C   0  0  0  0  0  0  0  0  0  0  0  0
    5.0863   -0.7098    1.3834 C   0  0  0  0  0  0  0  0  0  0  0  0
    4.6858    0.5687    0.6460 C   0  0  0  0  0  0  0  0  0  0  0  0
    3.9580    0.2695   -0.5889 N   0  0  0  0  0  0  0  0  0  0  0  0
    2.5854    0.0774   -0.5161 C   0  0  0  0  0  0  0  0  0  0  0  0
    1.9288    0.1739    0.5103 O   0  0  0  0  0  0  0  0  0  0  0  0
    2.0284   -0.2553   -1.8599 C   0  0  0  0  0  0  0  0  0  0  0  0
    0.7667   -0.5037   -2.2379 C   0  0  0  0  0  0  0  0  0  0  0  0
   -0.3814   -0.5521   -1.4035 C   0  0  0  0  0  0  0  0  0  0  0  0
   -0.5924   -1.0920   -0.1431 C   0  0  0  0  0  0  0  0  0  0  0  0
   -1.9510   -0.8911    0.1958 C   0  0  0  0  0  0  0  0  0  0  0  0
   -2.5466   -0.2552   -0.8756 C   0  0  0  0  0  0  0  0  0  0  0  0
   -3.9177    0.1553   -1.0114 C   0  0  0  0  0  0  0  0  0  0  0  0
   -4.8109   -0.0557   -0.0674 N   0  0  0  0  0  0  0  0  0  0  0  0
   -6.0409    0.4406   -0.4653 C   0  0  0  0  0  0  0  0  0  0  0  0
   -7.2325    0.3952    0.2866 C   0  0  0  0  0  0  0  0  0  0  0  0
   -8.4095    0.9374   -0.2403 C   0  0  0  0  0  0  0  0  0  0  0  0
   -8.4122    1.5219   -1.5029 C   0  0  0  0  0  0  0  0  0  0  0  0
   -7.2438    1.5797   -2.2689 C   0  0  0  0  0  0  0  0  0  0  0  0
   -6.0677    1.0321   -1.7298 C   0  0  0  0  0  0  0  0  0  0  0  0
   -4.4922    0.9504   -2.4177 S   0  0  0  0  0  0  0  0  0  0  0  0
   -1.5945   -0.0706   -1.8437 O   0  0  0  0  0  0  0  0  0  0  0  0
    3.3158   -0.2522   -3.0217 S   0  0  0  0  0  0  0  0  0  0  0  0
    4.5455    0.1149   -1.8250 C   0  0  0  0  0  0  0  0  0  0  0  0
    6.1603    0.2392   -2.2246 S   0  0  0  0  0  0  0  0  0  0  0  0
    7.0769   -2.2562    4.9326 H   0  0  0  0  0  0  0  0  0  0  0  0
    6.7439    0.1748    2.4499 H   0  0  0  0  0  0  0  0  0  0  0  0
    5.1957    0.2027    3.3379 H   0  0  0  0  0  0  0  0  0  0  0  0
    5.7121   -1.3366    0.7360 H   0  0  0  0  0  0  0  0  0  0  0  0
    4.1926   -1.3054    1.6096 H   0  0  0  0  0  0  0  0  0  0  0  0
    5.5723    1.1697    0.4197 H   0  0  0  0  0  0  0  0  0  0  0  0
    4.0454    1.1805    1.2928 H   0  0  0  0  0  0  0  0  0  0  0  0
    0.5564   -0.6563   -3.2947 H   0  0  0  0  0  0  0  0  0  0  0  0
    0.1514   -1.5803    0.4719 H   0  0  0  0  0  0  0  0  0  0  0  0
   -2.4502   -1.1793    1.1112 H   0  0  0  0  0  0  0  0  0  0  0  0
   -7.2261   -0.0616    1.2713 H   0  0  0  0  0  0  0  0  0  0  0  0
   -9.3263    0.9002    0.3434 H   0  0  0  0  0  0  0  0  0  0  0  0
   -9.3346    1.9401   -1.9010 H   0  0  0  0  0  0  0  0  0  0  0  0
   -7.2471    2.0362   -3.2541 H   0  0  0  0  0  0  0  0  0  0  0  0
  1  2  2  0
  2  3  1  0
  2  4  1  0
  4  5  1  0
  5  6  1  0
  6  7  1  0
  7  8  1  0
  8  9  2  0
  8 10  1  0
 10 11  2  3
 11 12  1  0
 12 13  2  0
 13 14  1  0
 14 15  2  0
 15 16  1  0
 16 17  2  0
 17 18  1  0
 18 19  2  0
 19 20  1  0
 20 21  2  0
 21 22  1  0
 22 23  2  0
 23 24  1  0
 15 25  1  0
 10 26  1  0
 26 27  1  0
 27 28  2  0
 27  7  1  0
 25 12  1  0
 24 16  1  0
 23 18  1  0
  3 29  1  0
  4 30  1  0
  4 31  1  0
  5 32  1  0
  5 33  1  0
  6 34  1  0
  6 35  1  0
 11 36  1  0
 13 37  1  0
 14 38  1  0
 19 39  1  0
 20 40  1  0
 21 41  1  0
 22 42  1  0
M  END
$$$$
