
     RDKit          3D

 46 49  0  0  0  0  0  0  0  0999 V2000
    2.0737    1.8843   -0.1833 O   0  0  0  0  0  0  0  0  0  0  0  0
    2.1623    0.9780    0.6393 C   0  0  0  0  0  0  0  0  0  0  0  0
    1.4037    1.0684    1.9676 C   0  0  0  0  0  0  0  0  0  0  0  0
   -0.0085    1.1783    1.7540 O   0  0  0  0  0  0  0  0  0  0  0  0
   -0.5900    0.0156    1.3565 C   0  0  0  0  0  0  0  0  0  0  0  0
   -0.0469   -1.0778    1.2640 O   0  0  0  0  0  0  0  0  0  0  0  0
   -2.0220    0.2781    1.1029 C   0  0  0  0  0  0  0  0  0  0  0  0
   -2.9626   -0.1076    2.0996 C   0  0  0  0  0  0  0  0  0  0  0  0
   -2.6206   -0.7379    3.3276 C   0  0  0  0  0  0  0  0  0  0  0  0
   -3.5963   -1.0903    4.2633 C   0  0  0  0  0  0  0  0  0  0  0  0
   -4.9355   -0.8188    4.0032 C   0  0  0  0  0  0  0  0  0  0  0  0
   -5.2993   -0.2017    2.8029 C   0  0  0  0  0  0  0  0  0  0  0  0
   -4.3287    0.1588    1.8515 C   0  0  0  0  0  0  0  0  0  0  0  0
   -4.7137    0.7813    0.6519 C   0  0  0  0  0  0  0  0  0  0  0  0
   -3.7796    1.1470   -0.3312 C   0  0  0  0  0  0  0  0  0  0  0  0
   -4.2089    1.7625   -1.5192 C   0  0  0  0  0  0  0  0  0  0  0  0
   -3.2998    2.1155   -2.5150 C   0  0  0  0  0  0  0  0  0  0  0  0
   -1.9414    1.8604   -2.3267 C   0  0  0  0  0  0  0  0  0  0  0  0
   -1.4983    1.2643   -1.1455 C   0  0  0  0  0  0  0  0  0  0  0  0
   -2.4031    0.8934   -0.1201 C   0  0  0  0  0  0  0  0  0  0  0  0
    2.8869   -0.1906    0.5059 N   0  0  0  0  0  0  0  0  0  0  0  0
    3.6837   -0.5439   -0.5974 C   0  0  0  0  0  0  0  0  0  0  0  0
    3.7925    0.3077   -1.6494 N   0  0  0  0  0  0  0  0  0  0  0  0
    4.5744   -0.0642   -2.6903 C   0  0  0  0  0  0  0  0  0  0  0  0
    5.2782   -1.2670   -2.7471 C   0  0  0  0  0  0  0  0  0  0  0  0
    6.1301   -1.6041   -3.9332 C   0  0  0  0  0  0  0  0  0  0  0  0
    6.1404   -0.6353   -4.8912 F   0  0  0  0  0  0  0  0  0  0  0  0
    5.7219   -2.7490   -4.5562 F   0  0  0  0  0  0  0  0  0  0  0  0
    7.4353   -1.8084   -3.5928 F   0  0  0  0  0  0  0  0  0  0  0  0
    5.1700   -2.1354   -1.6532 C   0  0  0  0  0  0  0  0  0  0  0  0
    4.3648   -1.7776   -0.5697 C   0  0  0  0  0  0  0  0  0  0  0  0
    4.2488   -2.8687    0.7697 Cl  0  0  0  0  0  0  0  0  0  0  0  0
    1.6247    0.2199    2.6316 H   0  0  0  0  0  0  0  0  0  0  0  0
    1.7460    1.9763    2.4850 H   0  0  0  0  0  0  0  0  0  0  0  0
   -1.5772   -0.9670    3.5716 H   0  0  0  0  0  0  0  0  0  0  0  0
   -3.3069   -1.5762    5.1910 H   0  0  0  0  0  0  0  0  0  0  0  0
   -5.7017   -1.0934    4.7237 H   0  0  0  0  0  0  0  0  0  0  0  0
   -6.3577   -0.0074    2.6130 H   0  0  0  0  0  0  0  0  0  0  0  0
   -5.7739    0.9809    0.4720 H   0  0  0  0  0  0  0  0  0  0  0  0
   -5.2620    1.9784   -1.6759 H   0  0  0  0  0  0  0  0  0  0  0  0
   -3.6536    2.5800   -3.4343 H   0  0  0  0  0  0  0  0  0  0  0  0
   -1.2212    2.1332   -3.0958 H   0  0  0  0  0  0  0  0  0  0  0  0
   -0.4227    1.0945   -1.0375 H   0  0  0  0  0  0  0  0  0  0  0  0
    2.7858   -0.9075    1.2138 H   0  0  0  0  0  0  0  0  0  0  0  0
    4.5889    0.6522   -3.5132 H   0  0  0  0  0  0  0  0  0  0  0  0
    5.7203   -3.0793   -1.6411 H   0  0  0  0  0  0  0  0  0  0  0  0
  1  2  2  0
  2  3  1  0
  3  4  1  0
  4  5  1  0
  5  6  2  0
  5  7  1  0
  7  8  1  0
  8  9  2  0
  9 10  1  0
 10 11  2  0
 11 12  1  0
 12 13  2  0
 13 14  1  0
 14 15  2  0
 15 16  1  0
 16 17  2  0
 17 18  1  0
 18 19  2  0
 19 20  1  0
  2 21  1  0
 21 22  1  0
 22 23  2  0
 23 24  1  0
 24 25  2  0
 25 26  1  0
 26 27  1  0
 26 28  1  0
 26 29  1  0
 25 30  1  0
 30 31  2  0
 31 32  1  0
 20  7  2  0
 31 22  1  0
 13  8  1  0
 20 15  1  0
  3 33  1  0
  3 34  1  0
  9 35  1  0
 10 36  1  0
 11 37  1  0
 12 38  1  0
 14 39  1  0
 16 40  1  0
 17 41  1  0
 18 42  1  0
 19 43  1  0
 21 44  1  0
 24 45  1  0
 30 46  1  0
M  END
$$$$
