
     RDKit          3D

 50 53  0  0  0  0  0  0  0  0999 V2000
   -7.6027    2.4218    0.2591 C   0  0  0  0  0  0  0  0  0  0  0  0
   -6.2424    1.7856    0.2943 C   0  0  0  0  0  0  0  0  0  0  0  0
   -5.1946    2.3941    0.9919 C   0  0  0  0  0  0  0  0  0  0  0  0
   -3.9358    1.7879    1.0538 C   0  0  0  0  0  0  0  0  0  0  0  0
   -3.7162    0.5549    0.4291 C   0  0  0  0  0  0  0  0  0  0  0  0
   -2.3000   -0.1212    0.5090 C   0  0  0  0  0  0  0  0  0  0  0  0
   -1.1555    0.4248    1.0807 C   0  0  0  0  0  0  0  0  0  0  0  0
   -0.1005   -0.4764    0.9362 N   0  0  0  0  0  4  0  0  0  0  0  0
    1.2951   -0.2804    1.3573 C   0  0  0  0  0  0  0  0  0  0  0  0
    2.2601   -0.2185    0.1629 C   0  0  0  0  0  0  0  0  0  0  0  0
    1.8847   -0.5500   -0.9586 O   0  0  0  0  0  0  0  0  0  0  0  0
    3.5339    0.2028    0.5192 N   0  0  0  0  0  0  0  0  0  0  0  0
    4.6714    0.3289   -0.3202 C   0  0  0  0  0  0  0  0  0  0  0  0
    4.6336    0.0322   -1.6887 C   0  0  0  0  0  0  0  0  0  0  0  0
    5.7750    0.1568   -2.4862 C   0  0  0  0  0  0  0  0  0  0  0  0
    6.9739    0.5813   -1.9278 C   0  0  0  0  0  0  0  0  0  0  0  0
    7.0293    0.8902   -0.5715 C   0  0  0  0  0  0  0  0  0  0  0  0
    5.8904    0.7674    0.2470 C   0  0  0  0  0  0  0  0  0  0  0  0
    6.0328    1.1246    1.7025 C   0  0  0  0  0  0  0  0  0  0  0  0
   -0.5694   -1.5323    0.2739 C   0  0  0  0  0  0  0  0  0  0  0  0
   -1.8703   -1.3540    0.0549 N   0  0  0  0  0  0  0  0  0  0  0  0
   -2.4667   -2.4970   -0.6220 C   0  0  0  0  0  0  0  0  0  0  0  0
   -1.3846   -3.6023   -0.4863 C   0  0  0  0  0  0  0  0  0  0  0  0
   -0.0714   -2.8392   -0.2210 C   0  0  0  0  0  0  0  0  0  0  0  0
   -4.7623   -0.0599   -0.2598 C   0  0  0  0  0  0  0  0  0  0  0  0
   -6.0194    0.5505   -0.3229 C   0  0  0  0  0  0  0  0  0  0  0  0
   -7.5198    3.5128    0.2110 H   0  0  0  0  0  0  0  0  0  0  0  0
   -8.1661    2.0971   -0.6227 H   0  0  0  0  0  0  0  0  0  0  0  0
   -8.1657    2.1465    1.1562 H   0  0  0  0  0  0  0  0  0  0  0  0
   -5.3558    3.3464    1.4942 H   0  0  0  0  0  0  0  0  0  0  0  0
   -3.1563    2.3016    1.6091 H   0  0  0  0  0  0  0  0  0  0  0  0
   -0.9542    1.3629    1.5704 H   0  0  0  0  0  0  0  0  0  0  0  0
    1.3647    0.6506    1.9316 H   0  0  0  0  0  0  0  0  0  0  0  0
    1.5779   -1.1219    1.9999 H   0  0  0  0  0  0  0  0  0  0  0  0
    3.6948    0.4461    1.4885 H   0  0  0  0  0  0  0  0  0  0  0  0
    3.7281   -0.3017   -2.1854 H   0  0  0  0  0  0  0  0  0  0  0  0
    5.7240   -0.0773   -3.5457 H   0  0  0  0  0  0  0  0  0  0  0  0
    7.8618    0.6812   -2.5482 H   0  0  0  0  0  0  0  0  0  0  0  0
    7.9731    1.2408   -0.1550 H   0  0  0  0  0  0  0  0  0  0  0  0
    7.0588    1.4199    1.9484 H   0  0  0  0  0  0  0  0  0  0  0  0
    5.3807    1.9671    1.9526 H   0  0  0  0  0  0  0  0  0  0  0  0
    5.7836    0.2641    2.3332 H   0  0  0  0  0  0  0  0  0  0  0  0
   -2.6365   -2.2355   -1.6714 H   0  0  0  0  0  0  0  0  0  0  0  0
   -3.3981   -2.7997   -0.1387 H   0  0  0  0  0  0  0  0  0  0  0  0
   -1.3314   -4.2536   -1.3626 H   0  0  0  0  0  0  0  0  0  0  0  0
   -1.6196   -4.2256    0.3844 H   0  0  0  0  0  0  0  0  0  0  0  0
    0.4818   -2.6508   -1.1423 H   0  0  0  0  0  0  0  0  0  0  0  0
    0.5522   -3.2975    0.5478 H   0  0  0  0  0  0  0  0  0  0  0  0
   -4.6385   -1.0040   -0.7734 H   0  0  0  0  0  0  0  0  0  0  0  0
   -6.8277    0.0580   -0.8635 H   0  0  0  0  0  0  0  0  0  0  0  0
  1  2  1  0
  2  3  2  0
  3  4  1  0
  4  5  2  0
  5  6  1  0
  6  7  2  0
  7  8  1  0
  8  9  1  0
  9 10  1  0
 10 11  2  0
 10 12  1  0
 12 13  1  0
 13 14  2  0
 14 15  1  0
 15 16  2  0
 16 17  1  0
 17 18  2  0
 18 19  1  0
  8 20  2  0
 20 21  1  0
 21 22  1  0
 22 23  1  0
 23 24  1  0
  5 25  1  0
 25 26  2  0
 26  2  1  0
 21  6  1  0
 18 13  1  0
 24 20  1  0
  1 27  1  0
  1 28  1  0
  1 29  1  0
  3 30  1  0
  4 31  1  0
  7 32  1  0
  9 33  1  0
  9 34  1  0
 12 35  1  0
 14 36  1  0
 15 37  1  0
 16 38  1  0
 17 39  1  0
 19 40  1  0
 19 41  1  0
 19 42  1  0
 22 43  1  0
 22 44  1  0
 23 45  1  0
 23 46  1  0
 24 47  1  0
 24 48  1  0
 25 49  1  0
 26 50  1  0
M  CHG  1   8   1
M  END
$$$$
