
     RDKit          3D

 45 47  0  0  0  0  0  0  0  0999 V2000
    5.0276   -1.6332    0.3691 O   0  0  0  0  0  0  0  0  0  0  0  0
    3.9541   -1.0411    0.3617 C   0  0  0  0  0  0  0  0  0  0  0  0
    3.7943    0.4078    0.8211 C   0  0  0  0  0  0  0  0  0  0  0  0
    2.4284    0.9129    0.7651 N   0  0  0  0  0  0  0  0  0  0  0  0
    1.5754    0.7050    1.8299 C   0  0  0  0  0  0  0  0  0  0  0  0
    1.9367    0.2060    2.8892 O   0  0  0  0  0  0  0  0  0  0  0  0
    0.1474    1.0695    1.6147 C   0  0  0  0  0  0  0  0  0  0  0  0
   -0.8286    0.4169    2.3741 C   0  0  0  0  0  0  0  0  0  0  0  0
   -2.1816    0.7257    2.1988 C   0  0  0  0  0  0  0  0  0  0  0  0
   -2.5883    1.6982    1.2709 C   0  0  0  0  0  0  0  0  0  0  0  0
   -4.0127    2.0225    1.0879 C   0  0  0  0  0  0  0  0  0  0  0  0
   -4.9528    1.0181    0.8025 C   0  0  0  0  0  0  0  0  0  0  0  0
   -6.3050    1.3249    0.6272 C   0  0  0  0  0  0  0  0  0  0  0  0
   -6.7406    2.6429    0.7358 C   0  0  0  0  0  0  0  0  0  0  0  0
   -5.8260    3.6537    1.0195 C   0  0  0  0  0  0  0  0  0  0  0  0
   -4.4740    3.3455    1.1935 C   0  0  0  0  0  0  0  0  0  0  0  0
   -1.5946    2.3578    0.5277 C   0  0  0  0  0  0  0  0  0  0  0  0
   -0.2390    2.0518    0.6970 C   0  0  0  0  0  0  0  0  0  0  0  0
    2.7809   -1.5573   -0.0996 O   0  0  0  0  0  0  0  0  0  0  0  0
    2.8354   -2.9035   -0.5815 C   0  0  0  0  0  0  0  0  0  0  0  0
    2.9248   -2.8791   -2.0859 C   0  0  0  0  0  0  0  0  0  0  0  0
    1.7691   -2.7205   -2.8649 C   0  0  0  0  0  0  0  0  0  0  0  0
    1.8567   -2.6723   -4.2581 C   0  0  0  0  0  0  0  0  0  0  0  0
    3.1007   -2.7737   -4.8776 C   0  0  0  0  0  0  0  0  0  0  0  0
    3.2078   -2.7103   -6.5937 Cl  0  0  0  0  0  0  0  0  0  0  0  0
    4.2581   -2.9200   -4.1164 C   0  0  0  0  0  0  0  0  0  0  0  0
    4.1708   -2.9688   -2.7234 C   0  0  0  0  0  0  0  0  0  0  0  0
    4.1742    0.4905    1.8438 H   0  0  0  0  0  0  0  0  0  0  0  0
    4.3867    1.0381    0.1515 H   0  0  0  0  0  0  0  0  0  0  0  0
    2.0172    0.9984   -0.1550 H   0  0  0  0  0  0  0  0  0  0  0  0
   -0.5404   -0.3346    3.1068 H   0  0  0  0  0  0  0  0  0  0  0  0
   -2.9206    0.2087    2.8087 H   0  0  0  0  0  0  0  0  0  0  0  0
   -4.6335   -0.0174    0.7037 H   0  0  0  0  0  0  0  0  0  0  0  0
   -7.0161    0.5336    0.4045 H   0  0  0  0  0  0  0  0  0  0  0  0
   -7.7923    2.8819    0.6010 H   0  0  0  0  0  0  0  0  0  0  0  0
   -6.1634    4.6830    1.1097 H   0  0  0  0  0  0  0  0  0  0  0  0
   -3.7793    4.1497    1.4276 H   0  0  0  0  0  0  0  0  0  0  0  0
   -1.8749    3.1201   -0.1975 H   0  0  0  0  0  0  0  0  0  0  0  0
    0.4967    2.6074    0.1229 H   0  0  0  0  0  0  0  0  0  0  0  0
    1.9086   -3.4017   -0.2740 H   0  0  0  0  0  0  0  0  0  0  0  0
    3.6520   -3.4854   -0.1372 H   0  0  0  0  0  0  0  0  0  0  0  0
    0.7944   -2.6321   -2.3891 H   0  0  0  0  0  0  0  0  0  0  0  0
    0.9544   -2.5536   -4.8519 H   0  0  0  0  0  0  0  0  0  0  0  0
    5.2296   -2.9933   -4.5980 H   0  0  0  0  0  0  0  0  0  0  0  0
    5.0819   -3.0727   -2.1352 H   0  0  0  0  0  0  0  0  0  0  0  0
  1  2  2  0
  2  3  1  0
  3  4  1  0
  4  5  1  0
  5  6  2  0
  5  7  1  0
  7  8  2  0
  8  9  1  0
  9 10  2  0
 10 11  1  0
 11 12  2  0
 12 13  1  0
 13 14  2  0
 14 15  1  0
 15 16  2  0
 10 17  1  0
 17 18  2  0
  2 19  1  0
 19 20  1  0
 20 21  1  0
 21 22  2  0
 22 23  1  0
 23 24  2  0
 24 25  1  0
 24 26  1  0
 26 27  2  0
 18  7  1  0
 27 21  1  0
 16 11  1  0
  3 28  1  0
  3 29  1  0
  4 30  1  0
  8 31  1  0
  9 32  1  0
 12 33  1  0
 13 34  1  0
 14 35  1  0
 15 36  1  0
 16 37  1  0
 17 38  1  0
 18 39  1  0
 20 40  1  0
 20 41  1  0
 22 42  1  0
 23 43  1  0
 26 44  1  0
 27 45  1  0
M  END
$$$$
