
     RDKit          3D

 55 59  0  0  0  0  0  0  0  0999 V2000
    4.0494   -2.1209   -1.4610 C   0  0  0  0  0  0  0  0  0  0  0  0
    4.0353   -0.9997   -0.5541 N   0  0  0  0  0  0  0  0  0  0  0  0
    2.9555   -0.5550    0.1814 C   0  0  0  0  0  0  0  0  0  0  0  0
    1.7101   -1.0905    0.0465 N   0  0  0  0  0  0  0  0  0  0  0  0
    0.8138   -0.8887    1.2042 C   0  0  0  0  0  0  0  0  0  0  0  0
   -0.6097   -1.3970    0.8898 C   0  0  0  0  0  0  0  0  0  0  0  0
   -1.2861   -0.7226   -0.2540 N   0  0  0  0  0  0  0  0  0  0  0  0
   -2.2750    0.2992    0.2048 C   0  0  0  0  0  0  0  0  0  0  0  0
   -2.8764    1.1222   -0.9437 C   0  0  0  0  0  0  0  0  0  0  0  0
   -3.5257    0.5082   -2.0287 C   0  0  0  0  0  0  0  0  0  0  0  0
   -4.0718    1.2738   -3.0603 C   0  0  0  0  0  0  0  0  0  0  0  0
   -3.9788    2.6632   -3.0221 C   0  0  0  0  0  0  0  0  0  0  0  0
   -3.3408    3.2888   -1.9532 C   0  0  0  0  0  0  0  0  0  0  0  0
   -2.7943    2.5251   -0.9197 C   0  0  0  0  0  0  0  0  0  0  0  0
   -3.4104   -0.2869    1.0586 C   0  0  0  0  0  0  0  0  0  0  0  0
   -3.9829   -1.5399    0.7782 C   0  0  0  0  0  0  0  0  0  0  0  0
   -5.0248   -2.0410    1.5605 C   0  0  0  0  0  0  0  0  0  0  0  0
   -5.5158   -1.2948    2.6294 C   0  0  0  0  0  0  0  0  0  0  0  0
   -4.9682   -0.0463    2.9158 C   0  0  0  0  0  0  0  0  0  0  0  0
   -3.9254    0.4565    2.1351 C   0  0  0  0  0  0  0  0  0  0  0  0
   -0.2639   -0.1192   -1.1511 C   0  0  0  0  0  0  0  0  0  0  0  0
    1.0400   -0.9405   -1.2635 C   0  0  0  0  0  0  0  0  0  0  0  0
    3.3264    0.3804    1.0275 N   0  0  0  0  0  0  0  0  0  0  0  0
    4.6555    0.6068    0.7808 C   0  0  0  0  0  0  0  0  0  0  0  0
    5.5286    1.5271    1.3802 C   0  0  0  0  0  0  0  0  0  0  0  0
    6.8603    1.5724    0.9511 C   0  0  0  0  0  0  0  0  0  0  0  0
    7.3148    0.7163   -0.0533 C   0  0  0  0  0  0  0  0  0  0  0  0
    6.4595   -0.2114   -0.6598 C   0  0  0  0  0  0  0  0  0  0  0  0
    5.1309   -0.2377   -0.2168 C   0  0  0  0  0  0  0  0  0  0  0  0
    5.0393   -2.5840   -1.4540 H   0  0  0  0  0  0  0  0  0  0  0  0
    3.3170   -2.8658   -1.1403 H   0  0  0  0  0  0  0  0  0  0  0  0
    3.8132   -1.7547   -2.4628 H   0  0  0  0  0  0  0  0  0  0  0  0
    0.7626    0.1716    1.4861 H   0  0  0  0  0  0  0  0  0  0  0  0
    1.2071   -1.4451    2.0639 H   0  0  0  0  0  0  0  0  0  0  0  0
   -0.5427   -2.4617    0.6292 H   0  0  0  0  0  0  0  0  0  0  0  0
   -1.2016   -1.3588    1.8103 H   0  0  0  0  0  0  0  0  0  0  0  0
   -1.7189    0.9937    0.8526 H   0  0  0  0  0  0  0  0  0  0  0  0
   -3.6016   -0.5756   -2.0743 H   0  0  0  0  0  0  0  0  0  0  0  0
   -4.5713    0.7841   -3.8918 H   0  0  0  0  0  0  0  0  0  0  0  0
   -4.4060    3.2586   -3.8245 H   0  0  0  0  0  0  0  0  0  0  0  0
   -3.2705    4.3730   -1.9224 H   0  0  0  0  0  0  0  0  0  0  0  0
   -2.3025    3.0337   -0.0936 H   0  0  0  0  0  0  0  0  0  0  0  0
   -3.6111   -2.1342   -0.0537 H   0  0  0  0  0  0  0  0  0  0  0  0
   -5.4540   -3.0130    1.3324 H   0  0  0  0  0  0  0  0  0  0  0  0
   -6.3288   -1.6843    3.2361 H   0  0  0  0  0  0  0  0  0  0  0  0
   -5.3564    0.5394    3.7449 H   0  0  0  0  0  0  0  0  0  0  0  0
   -3.5186    1.4377    2.3686 H   0  0  0  0  0  0  0  0  0  0  0  0
   -0.6825   -0.0224   -2.1589 H   0  0  0  0  0  0  0  0  0  0  0  0
    0.0063    0.8886   -0.8063 H   0  0  0  0  0  0  0  0  0  0  0  0
    0.8126   -1.9404   -1.6527 H   0  0  0  0  0  0  0  0  0  0  0  0
    1.6918   -0.4517   -1.9985 H   0  0  0  0  0  0  0  0  0  0  0  0
    5.1669    2.1875    2.1602 H   0  0  0  0  0  0  0  0  0  0  0  0
    7.5452    2.2827    1.4076 H   0  0  0  0  0  0  0  0  0  0  0  0
    8.3545    0.7689   -0.3698 H   0  0  0  0  0  0  0  0  0  0  0  0
    6.8201   -0.8753   -1.4376 H   0  0  0  0  0  0  0  0  0  0  0  0
  1  2  1  0
  2  3  1  0
  3  4  1  0
  4  5  1  0
  5  6  1  0
  6  7  1  0
  7  8  1  0
  8  9  1  0
  9 10  2  0
 10 11  1  0
 11 12  2  0
 12 13  1  0
 13 14  2  0
  8 15  1  0
 15 16  2  0
 16 17  1  0
 17 18  2  0
 18 19  1  0
 19 20  2  0
  7 21  1  0
 21 22  1  0
  3 23  2  0
 23 24  1  0
 24 25  2  0
 25 26  1  0
 26 27  2  0
 27 28  1  0
 28 29  2  0
 29  2  1  0
 22  4  1  0
 29 24  1  0
 14  9  1  0
 20 15  1  0
  1 30  1  0
  1 31  1  0
  1 32  1  0
  5 33  1  0
  5 34  1  0
  6 35  1  0
  6 36  1  0
  8 37  1  0
 10 38  1  0
 11 39  1  0
 12 40  1  0
 13 41  1  0
 14 42  1  0
 16 43  1  0
 17 44  1  0
 18 45  1  0
 19 46  1  0
 20 47  1  0
 21 48  1  0
 21 49  1  0
 22 50  1  0
 22 51  1  0
 25 52  1  0
 26 53  1  0
 27 54  1  0
 28 55  1  0
M  END
$$$$
