
     RDKit          3D

 47 49  0  0  0  0  0  0  0  0999 V2000
    5.1632   -1.7259    2.6163 C   0  0  0  0  0  0  0  0  0  0  0  0
    4.5296   -1.1133    1.3765 C   0  0  0  0  0  0  0  0  0  0  0  0
    5.5447   -0.2930    0.5787 C   0  0  0  0  0  0  0  0  0  0  0  0
    4.9802    0.2619   -0.7357 C   0  0  0  0  0  0  0  0  0  0  0  0
    3.9306    1.2652   -0.5402 N   0  0  0  0  0  0  0  0  0  0  0  0
    2.6032    0.8671   -0.6115 C   0  0  0  0  0  0  0  0  0  0  0  0
    2.2235   -0.2723   -0.8451 O   0  0  0  0  0  0  0  0  0  0  0  0
    1.6941    2.0258   -0.3660 C   0  0  0  0  0  0  0  0  0  0  0  0
    0.3512    2.0541   -0.3351 C   0  0  0  0  0  0  0  0  0  0  0  0
   -0.5560    0.9308   -0.5183 C   0  0  0  0  0  0  0  0  0  0  0  0
   -1.9123    0.9135   -0.5611 C   0  0  0  0  0  0  0  0  0  0  0  0
   -2.6700    2.1613   -0.4427 C   0  0  0  0  0  0  0  0  0  0  0  0
   -4.0050    2.2021   -0.3666 C   0  0  0  0  0  0  0  0  0  0  0  0
   -4.7692    0.9587   -0.3880 C   0  0  0  0  0  0  0  0  0  0  0  0
   -6.1640    1.0143   -0.2351 C   0  0  0  0  0  0  0  0  0  0  0  0
   -6.9192   -0.1532   -0.2482 C   0  0  0  0  0  0  0  0  0  0  0  0
   -6.2823   -1.3762   -0.4100 C   0  0  0  0  0  0  0  0  0  0  0  0
   -4.8911   -1.4332   -0.5658 C   0  0  0  0  0  0  0  0  0  0  0  0
   -4.0952   -0.2716   -0.5697 C   0  0  0  0  0  0  0  0  0  0  0  0
   -2.6712   -0.2795   -0.7263 N   0  0  0  0  0  0  0  0  0  0  0  0
   -2.0529   -1.5621   -1.1212 C   0  0  0  0  0  0  0  0  0  0  0  0
   -1.6448   -2.3817    0.0966 C   0  0  0  0  0  0  0  0  0  0  0  0
    2.6394    3.4500   -0.1059 S   0  0  0  0  0  0  0  0  0  0  0  0
    4.1657    2.6010   -0.2912 C   0  0  0  0  0  0  0  0  0  0  0  0
    5.6308    3.3910   -0.1720 S   0  0  0  0  0  0  0  0  0  0  0  0
    5.9846   -2.3973    2.3465 H   0  0  0  0  0  0  0  0  0  0  0  0
    5.5570   -0.9493    3.2797 H   0  0  0  0  0  0  0  0  0  0  0  0
    4.4207   -2.3051    3.1742 H   0  0  0  0  0  0  0  0  0  0  0  0
    3.6921   -0.4800    1.6886 H   0  0  0  0  0  0  0  0  0  0  0  0
    4.1211   -1.9144    0.7499 H   0  0  0  0  0  0  0  0  0  0  0  0
    5.9220    0.5224    1.2059 H   0  0  0  0  0  0  0  0  0  0  0  0
    6.4048   -0.9297    0.3367 H   0  0  0  0  0  0  0  0  0  0  0  0
    5.7954    0.7137   -1.3113 H   0  0  0  0  0  0  0  0  0  0  0  0
    4.5911   -0.5630   -1.3439 H   0  0  0  0  0  0  0  0  0  0  0  0
   -0.1121    3.0162   -0.1353 H   0  0  0  0  0  0  0  0  0  0  0  0
   -0.0470   -0.0229   -0.5997 H   0  0  0  0  0  0  0  0  0  0  0  0
   -2.1488    3.1097   -0.4252 H   0  0  0  0  0  0  0  0  0  0  0  0
   -4.5318    3.1452   -0.2838 H   0  0  0  0  0  0  0  0  0  0  0  0
   -6.6672    1.9685   -0.1020 H   0  0  0  0  0  0  0  0  0  0  0  0
   -7.9979   -0.1084   -0.1270 H   0  0  0  0  0  0  0  0  0  0  0  0
   -6.8634   -2.2950   -0.4117 H   0  0  0  0  0  0  0  0  0  0  0  0
   -4.4584   -2.4223   -0.6672 H   0  0  0  0  0  0  0  0  0  0  0  0
   -1.1713   -1.3858   -1.7497 H   0  0  0  0  0  0  0  0  0  0  0  0
   -2.7058   -2.1477   -1.7788 H   0  0  0  0  0  0  0  0  0  0  0  0
   -2.5039   -2.6244    0.7291 H   0  0  0  0  0  0  0  0  0  0  0  0
   -1.1823   -3.3215   -0.2208 H   0  0  0  0  0  0  0  0  0  0  0  0
   -0.9222   -1.8438    0.7182 H   0  0  0  0  0  0  0  0  0  0  0  0
  1  2  1  0
  2  3  1  0
  3  4  1  0
  4  5  1  0
  5  6  1  0
  6  7  2  0
  6  8  1  0
  8  9  2  3
  9 10  1  0
 10 11  2  3
 11 12  1  0
 12 13  2  0
 13 14  1  0
 14 15  2  0
 15 16  1  0
 16 17  2  0
 17 18  1  0
 18 19  2  0
 19 20  1  0
 20 21  1  0
 21 22  1  0
  8 23  1  0
 23 24  1  0
 24 25  2  0
 24  5  1  0
 20 11  1  0
 19 14  1  0
  1 26  1  0
  1 27  1  0
  1 28  1  0
  2 29  1  0
  2 30  1  0
  3 31  1  0
  3 32  1  0
  4 33  1  0
  4 34  1  0
  9 35  1  0
 10 36  1  0
 12 37  1  0
 13 38  1  0
 15 39  1  0
 16 40  1  0
 17 41  1  0
 18 42  1  0
 21 43  1  0
 21 44  1  0
 22 45  1  0
 22 46  1  0
 22 47  1  0
M  END
$$$$
