
     RDKit          3D

 37 39  0  0  0  0  0  0  0  0999 V2000
   -3.8946   -3.0544   -1.1550 C   0  0  0  0  0  0  0  0  0  0  0  0
   -4.0524   -1.9127   -1.9841 O   0  0  0  0  0  0  0  0  0  0  0  0
   -3.1602   -0.8858   -1.8269 C   0  0  0  0  0  0  0  0  0  0  0  0
   -2.0837   -0.8837   -0.9360 C   0  0  0  0  0  0  0  0  0  0  0  0
   -1.2200    0.2220   -0.8564 C   0  0  0  0  0  0  0  0  0  0  0  0
   -0.0949    0.2548    0.0885 C   0  0  0  0  0  0  0  0  0  0  0  0
    0.7520   -0.7719    0.2692 C   0  0  0  0  0  0  0  0  0  0  0  0
    1.8340   -0.6681    1.1917 C   0  0  0  0  0  0  0  0  0  0  0  0
    2.1367    0.3743    1.9407 N   0  0  0  0  0  0  0  0  0  0  0  0
    3.2532    0.1162    2.7172 C   0  0  0  0  0  0  0  0  0  0  0  0
    3.8485    1.0091    3.6313 C   0  0  0  0  0  0  0  0  0  0  0  0
    4.9798    0.6148    4.3533 C   0  0  0  0  0  0  0  0  0  0  0  0
    5.5217   -0.6540    4.1747 C   0  0  0  0  0  0  0  0  0  0  0  0
    4.9492   -1.5576    3.2739 C   0  0  0  0  0  0  0  0  0  0  0  0
    3.8131   -1.1499    2.5548 C   0  0  0  0  0  0  0  0  0  0  0  0
    2.8948   -2.0202    1.3917 S   0  0  0  0  0  0  0  0  0  0  0  0
   -1.4544    1.3483   -1.6597 C   0  0  0  0  0  0  0  0  0  0  0  0
   -2.5225    1.3624   -2.5553 C   0  0  0  0  0  0  0  0  0  0  0  0
   -2.8533    2.3918   -3.4012 O   0  0  0  0  0  0  0  0  0  0  0  0
   -2.0263    3.5491   -3.3553 C   0  0  0  0  0  0  0  0  0  0  0  0
   -3.3622    0.2418   -2.6307 C   0  0  0  0  0  0  0  0  0  0  0  0
   -4.4126    0.2645   -3.5179 O   0  0  0  0  0  0  0  0  0  0  0  0
   -2.9379   -3.5516   -1.3459 H   0  0  0  0  0  0  0  0  0  0  0  0
   -4.0006   -2.7926   -0.0970 H   0  0  0  0  0  0  0  0  0  0  0  0
   -4.6917   -3.7617   -1.4036 H   0  0  0  0  0  0  0  0  0  0  0  0
   -1.9052   -1.7315   -0.2830 H   0  0  0  0  0  0  0  0  0  0  0  0
    0.0406    1.1878    0.6343 H   0  0  0  0  0  0  0  0  0  0  0  0
    0.6357   -1.6928   -0.2943 H   0  0  0  0  0  0  0  0  0  0  0  0
    3.4217    1.9977    3.7672 H   0  0  0  0  0  0  0  0  0  0  0  0
    5.4358    1.3066    5.0576 H   0  0  0  0  0  0  0  0  0  0  0  0
    6.4021   -0.9488    4.7423 H   0  0  0  0  0  0  0  0  0  0  0  0
    5.3729   -2.5476    3.1354 H   0  0  0  0  0  0  0  0  0  0  0  0
   -0.7827    2.1966   -1.5730 H   0  0  0  0  0  0  0  0  0  0  0  0
   -2.4189    4.2685   -4.0803 H   0  0  0  0  0  0  0  0  0  0  0  0
   -2.0609    4.0196   -2.3671 H   0  0  0  0  0  0  0  0  0  0  0  0
   -0.9979    3.3108   -3.6461 H   0  0  0  0  0  0  0  0  0  0  0  0
   -4.3589    1.1346   -3.9553 H   0  0  0  0  0  0  0  0  0  0  0  0
  1  2  1  0
  2  3  1  0
  3  4  2  0
  4  5  1  0
  5  6  1  0
  6  7  2  3
  7  8  1  0
  8  9  2  0
  9 10  1  0
 10 11  2  0
 11 12  1  0
 12 13  2  0
 13 14  1  0
 14 15  2  0
 15 16  1  0
  5 17  2  0
 17 18  1  0
 18 19  1  0
 19 20  1  0
 18 21  2  0
 21 22  1  0
 21  3  1  0
 16  8  1  0
 15 10  1  0
  1 23  1  0
  1 24  1  0
  1 25  1  0
  4 26  1  0
  6 27  1  0
  7 28  1  0
 11 29  1  0
 12 30  1  0
 13 31  1  0
 14 32  1  0
 17 33  1  0
 20 34  1  0
 20 35  1  0
 20 36  1  0
 22 37  1  0
M  END
$$$$
