
     RDKit          3D

 53 57  0  0  0  0  0  0  0  0999 V2000
    8.0011    1.7222    1.0165 C   0  0  0  0  0  0  0  0  0  0  0  0
    7.4667    0.8087    0.0661 O   0  0  0  0  0  0  0  0  0  0  0  0
    6.1066    0.6809    0.0309 C   0  0  0  0  0  0  0  0  0  0  0  0
    5.1951    1.3593    0.8326 C   0  0  0  0  0  0  0  0  0  0  0  0
    3.8162    1.1356    0.6904 C   0  0  0  0  0  0  0  0  0  0  0  0
    3.3212    0.2295   -0.2566 C   0  0  0  0  0  0  0  0  0  0  0  0
    1.9090   -0.0062   -0.4133 N   0  0  0  0  0  0  0  0  0  0  0  0
    1.3439   -0.7848   -1.4123 C   0  0  0  0  0  0  0  0  0  0  0  0
   -0.0271   -0.7952   -1.2771 C   0  0  0  0  0  0  0  0  0  0  0  0
   -0.8830   -1.4994   -2.2095 C   0  0  0  0  0  0  0  0  0  0  0  0
   -0.8784   -2.8978   -2.2537 C   0  0  0  0  0  0  0  0  0  0  0  0
   -1.7221   -3.5706   -3.1388 C   0  0  0  0  0  0  0  0  0  0  0  0
   -2.5690   -2.8500   -3.9817 C   0  0  0  0  0  0  0  0  0  0  0  0
   -2.5728   -1.4571   -3.9438 C   0  0  0  0  0  0  0  0  0  0  0  0
   -1.7330   -0.7804   -3.0585 C   0  0  0  0  0  0  0  0  0  0  0  0
   -0.3513   -0.0066   -0.1397 C   0  0  0  0  0  0  0  0  0  0  0  0
   -1.5421    0.3547    0.5336 C   0  0  0  0  0  0  0  0  0  0  0  0
   -2.8065   -0.1125    0.1079 N   0  0  0  0  0  0  0  0  0  0  0  0
   -3.9945   -0.0098    0.8549 N   0  0  0  0  0  0  0  0  0  0  0  0
   -3.9236   -0.6172    2.1943 C   0  0  0  0  0  0  0  0  0  0  0  0
   -4.1944    0.3852    3.3270 C   0  0  0  0  0  0  0  0  0  0  0  0
   -5.4417    1.0775    3.1790 O   0  0  0  0  0  0  0  0  0  0  0  0
   -5.7403    1.4186    1.8162 C   0  0  0  0  0  0  0  0  0  0  0  0
   -4.5315    1.3565    0.8710 C   0  0  0  0  0  0  0  0  0  0  0  0
   -1.4318    1.1656    1.6160 N   0  0  0  0  0  0  0  0  0  0  0  0
   -0.2177    1.5723    2.0054 C   0  0  0  0  0  0  0  0  0  0  0  0
    0.9607    1.2731    1.4539 N   0  0  0  0  0  0  0  0  0  0  0  0
    0.8540    0.4786    0.3701 C   0  0  0  0  0  0  0  0  0  0  0  0
    4.2514   -0.4493   -1.0597 C   0  0  0  0  0  0  0  0  0  0  0  0
    5.6262   -0.2227   -0.9132 C   0  0  0  0  0  0  0  0  0  0  0  0
    7.6616    2.7435    0.8135 H   0  0  0  0  0  0  0  0  0  0  0  0
    9.0909    1.7078    0.9186 H   0  0  0  0  0  0  0  0  0  0  0  0
    7.7549    1.4164    2.0385 H   0  0  0  0  0  0  0  0  0  0  0  0
    5.5152    2.0787    1.5800 H   0  0  0  0  0  0  0  0  0  0  0  0
    3.1662    1.7131    1.3384 H   0  0  0  0  0  0  0  0  0  0  0  0
    1.9466   -1.2571   -2.1738 H   0  0  0  0  0  0  0  0  0  0  0  0
   -0.2261   -3.4705   -1.5979 H   0  0  0  0  0  0  0  0  0  0  0  0
   -1.7195   -4.6576   -3.1709 H   0  0  0  0  0  0  0  0  0  0  0  0
   -3.2249   -3.3753   -4.6709 H   0  0  0  0  0  0  0  0  0  0  0  0
   -3.2297   -0.8977   -4.6041 H   0  0  0  0  0  0  0  0  0  0  0  0
   -1.7476    0.3082   -3.0358 H   0  0  0  0  0  0  0  0  0  0  0  0
   -2.7447   -0.9169   -0.5137 H   0  0  0  0  0  0  0  0  0  0  0  0
   -2.9771   -1.1394    2.3767 H   0  0  0  0  0  0  0  0  0  0  0  0
   -4.7073   -1.3845    2.2263 H   0  0  0  0  0  0  0  0  0  0  0  0
   -4.2265   -0.1391    4.2871 H   0  0  0  0  0  0  0  0  0  0  0  0
   -3.3980    1.1315    3.4016 H   0  0  0  0  0  0  0  0  0  0  0  0
   -6.1640    2.4280    1.8181 H   0  0  0  0  0  0  0  0  0  0  0  0
   -6.5291    0.7382    1.4749 H   0  0  0  0  0  0  0  0  0  0  0  0
   -4.8448    1.6434   -0.1391 H   0  0  0  0  0  0  0  0  0  0  0  0
   -3.7859    2.0858    1.2053 H   0  0  0  0  0  0  0  0  0  0  0  0
   -0.1895    2.2205    2.8759 H   0  0  0  0  0  0  0  0  0  0  0  0
    3.9594   -1.1745   -1.8114 H   0  0  0  0  0  0  0  0  0  0  0  0
    6.3287   -0.7611   -1.5451 H   0  0  0  0  0  0  0  0  0  0  0  0
  1  2  1  0
  2  3  1  0
  3  4  2  0
  4  5  1  0
  5  6  2  0
  6  7  1  0
  7  8  1  0
  8  9  2  0
  9 10  1  0
 10 11  2  0
 11 12  1  0
 12 13  2  0
 13 14  1  0
 14 15  2  0
  9 16  1  0
 16 17  2  0
 17 18  1  0
 18 19  1  0
 19 20  1  0
 20 21  1  0
 21 22  1  0
 22 23  1  0
 23 24  1  0
 17 25  1  0
 25 26  2  0
 26 27  1  0
 27 28  2  0
  6 29  1  0
 29 30  2  0
 30  3  1  0
 28  7  1  0
 15 10  1  0
 28 16  1  0
 24 19  1  0
  1 31  1  0
  1 32  1  0
  1 33  1  0
  4 34  1  0
  5 35  1  0
  8 36  1  0
 11 37  1  0
 12 38  1  0
 13 39  1  0
 14 40  1  0
 15 41  1  0
 18 42  1  0
 20 43  1  0
 20 44  1  0
 21 45  1  0
 21 46  1  0
 23 47  1  0
 23 48  1  0
 24 49  1  0
 24 50  1  0
 26 51  1  0
 29 52  1  0
 30 53  1  0
M  END
$$$$
