
     RDKit          3D

 50 53  0  0  0  0  0  0  0  0999 V2000
   -4.5817   -4.5650   -1.2723 C   0  0  0  0  0  0  0  0  0  0  0  0
   -3.8440   -3.5413   -1.9272 O   0  0  0  0  0  0  0  0  0  0  0  0
   -3.1037   -2.7081   -1.1353 C   0  0  0  0  0  0  0  0  0  0  0  0
   -2.3485   -1.7613   -1.8284 C   0  0  0  0  0  0  0  0  0  0  0  0
   -1.5462   -0.8459   -1.1428 C   0  0  0  0  0  0  0  0  0  0  0  0
   -1.4798   -0.8632    0.2577 C   0  0  0  0  0  0  0  0  0  0  0  0
   -0.6401    0.1357    1.0403 C   0  0  0  0  0  0  0  0  0  0  0  0
   -1.3699    1.4731    1.1799 C   0  0  0  0  0  0  0  0  0  0  0  0
   -0.5144    2.3421    0.2999 C   0  0  0  0  0  0  0  0  0  0  0  0
   -0.9008    3.7323   -0.0372 C   0  0  0  0  0  0  0  0  0  0  0  0
   -2.0475    4.3251    0.5033 C   0  0  0  0  0  0  0  0  0  0  0  0
   -2.3826    5.6386    0.1628 C   0  0  0  0  0  0  0  0  0  0  0  0
   -1.5764    6.3627   -0.7147 C   0  0  0  0  0  0  0  0  0  0  0  0
   -0.4326    5.7774   -1.2544 C   0  0  0  0  0  0  0  0  0  0  0  0
   -0.0944    4.4657   -0.9167 C   0  0  0  0  0  0  0  0  0  0  0  0
    0.5891    1.7928   -0.1092 N   0  0  0  0  0  0  0  0  0  0  0  0
    0.6039    0.5115    0.3640 N   0  0  0  0  0  0  0  0  0  0  0  0
    1.7337   -0.2905    0.2152 C   0  0  0  0  0  0  0  0  0  0  0  0
    2.8635    0.1840   -0.4790 C   0  0  0  0  0  0  0  0  0  0  0  0
    4.0151   -0.5925   -0.6454 C   0  0  0  0  0  0  0  0  0  0  0  0
    4.0563   -1.8728   -0.1009 C   0  0  0  0  0  0  0  0  0  0  0  0
    5.5088   -2.8673   -0.2926 S   0  0  0  0  0  6  0  0  0  0  0  0
    6.3954   -2.4249    1.0714 N   0  0  0  0  0  0  0  0  0  0  0  0
    5.1425   -4.2561   -0.1482 O   0  0  0  0  0  0  0  0  0  0  0  0
    6.2623   -2.3741   -1.4224 O   0  0  0  0  0  0  0  0  0  0  0  0
    2.9537   -2.3847    0.5803 C   0  0  0  0  0  0  0  0  0  0  0  0
    1.8082   -1.5940    0.7350 C   0  0  0  0  0  0  0  0  0  0  0  0
   -2.2502   -1.8128    0.9482 C   0  0  0  0  0  0  0  0  0  0  0  0
   -3.0529   -2.7293    0.2577 C   0  0  0  0  0  0  0  0  0  0  0  0
   -5.0890   -5.1557   -2.0412 H   0  0  0  0  0  0  0  0  0  0  0  0
   -3.9190   -5.2381   -0.7184 H   0  0  0  0  0  0  0  0  0  0  0  0
   -5.3502   -4.1396   -0.6185 H   0  0  0  0  0  0  0  0  0  0  0  0
   -2.3798   -1.7372   -2.9152 H   0  0  0  0  0  0  0  0  0  0  0  0
   -0.9641   -0.1243   -1.7142 H   0  0  0  0  0  0  0  0  0  0  0  0
   -0.4228   -0.2627    2.0396 H   0  0  0  0  0  0  0  0  0  0  0  0
   -1.3098    1.8472    2.2075 H   0  0  0  0  0  0  0  0  0  0  0  0
   -2.4122    1.4521    0.8502 H   0  0  0  0  0  0  0  0  0  0  0  0
   -2.6942    3.7898    1.1914 H   0  0  0  0  0  0  0  0  0  0  0  0
   -3.2741    6.0986    0.5825 H   0  0  0  0  0  0  0  0  0  0  0  0
   -1.8395    7.3842   -0.9787 H   0  0  0  0  0  0  0  0  0  0  0  0
    0.1971    6.3401   -1.9390 H   0  0  0  0  0  0  0  0  0  0  0  0
    0.8006    4.0196   -1.3459 H   0  0  0  0  0  0  0  0  0  0  0  0
    2.8443    1.1834   -0.9106 H   0  0  0  0  0  0  0  0  0  0  0  0
    4.8579   -0.1883   -1.2008 H   0  0  0  0  0  0  0  0  0  0  0  0
    5.8608   -1.8524    1.7239 H   0  0  0  0  0  0  0  0  0  0  0  0
    7.2496   -1.9554    0.7659 H   0  0  0  0  0  0  0  0  0  0  0  0
    2.9695   -3.3936    0.9879 H   0  0  0  0  0  0  0  0  0  0  0  0
    0.9669   -2.0295    1.2662 H   0  0  0  0  0  0  0  0  0  0  0  0
   -2.2324   -1.8506    2.0355 H   0  0  0  0  0  0  0  0  0  0  0  0
   -3.6263   -3.4443    0.8381 H   0  0  0  0  0  0  0  0  0  0  0  0
  1  2  1  0
  2  3  1  0
  3  4  2  0
  4  5  1  0
  5  6  2  0
  6  7  1  0
  7  8  1  0
  8  9  1  0
  9 10  1  0
 10 11  2  0
 11 12  1  0
 12 13  2  0
 13 14  1  0
 14 15  2  0
  9 16  2  0
 16 17  1  0
 17 18  1  0
 18 19  2  0
 19 20  1  0
 20 21  2  0
 21 22  1  0
 22 23  1  0
 22 24  2  0
 22 25  2  0
 21 26  1  0
 26 27  2  0
  6 28  1  0
 28 29  2  0
 29  3  1  0
 17  7  1  0
 27 18  1  0
 15 10  1  0
  1 30  1  0
  1 31  1  0
  1 32  1  0
  4 33  1  0
  5 34  1  0
  7 35  1  0
  8 36  1  0
  8 37  1  0
 11 38  1  0
 12 39  1  0
 13 40  1  0
 14 41  1  0
 15 42  1  0
 19 43  1  0
 20 44  1  0
 23 45  1  0
 23 46  1  0
 26 47  1  0
 27 48  1  0
 28 49  1  0
 29 50  1  0
M  END
$$$$
