
     RDKit          3D

 47 50  0  0  0  0  0  0  0  0999 V2000
    2.8823    2.1814    0.5100 C   0  0  0  0  0  0  0  0  0  0  0  0
    2.6834    0.9870   -0.2779 N   0  0  0  0  0  0  0  0  0  0  0  0
    3.0910   -0.2933    0.0489 C   0  0  0  0  0  0  0  0  0  0  0  0
    3.8787   -0.6720    1.2139 C   0  0  0  0  0  0  0  0  0  0  0  0
    5.1860   -0.1971    1.3762 C   0  0  0  0  0  0  0  0  0  0  0  0
    5.9381   -0.5682    2.4927 C   0  0  0  0  0  0  0  0  0  0  0  0
    5.3901   -1.4192    3.4513 C   0  0  0  0  0  0  0  0  0  0  0  0
    4.0922   -1.9028    3.2932 C   0  0  0  0  0  0  0  0  0  0  0  0
    3.3397   -1.5331    2.1765 C   0  0  0  0  0  0  0  0  0  0  0  0
    2.5579   -1.0824   -0.9551 C   0  0  0  0  0  0  0  0  0  0  0  0
    1.8842   -0.3347   -1.8835 N   0  0  0  0  0  0  0  0  0  0  0  0
    1.9959    0.9023   -1.4613 C   0  0  0  0  0  0  0  0  0  0  0  0
    1.3204    2.2748   -2.2759 S   0  0  0  0  0  0  0  0  0  0  0  0
   -0.3509    1.6197   -2.5827 C   0  0  0  0  0  0  0  0  0  0  0  0
   -1.1326    1.3800   -1.2845 C   0  0  0  0  0  0  0  0  0  0  0  0
   -0.7783    1.9169   -0.2307 O   0  0  0  0  0  0  0  0  0  0  0  0
   -2.2868    0.5653   -1.4055 N   0  0  0  0  0  0  0  0  0  0  0  0
   -2.9547    0.4498   -2.7096 C   0  0  0  0  0  0  0  0  0  0  0  0
   -4.0443   -0.6043   -2.7814 C   0  0  0  0  0  0  0  0  0  0  0  0
   -5.0503   -0.3568   -1.6792 C   0  0  0  0  0  0  0  0  0  0  0  0
   -4.3397   -0.3516   -0.3553 C   0  0  0  0  0  0  0  0  0  0  0  0
   -5.0493   -0.7770    0.7830 C   0  0  0  0  0  0  0  0  0  0  0  0
   -4.4364   -0.8073    2.0307 C   0  0  0  0  0  0  0  0  0  0  0  0
   -3.1098   -0.4173    2.1488 C   0  0  0  0  0  0  0  0  0  0  0  0
   -2.4038    0.0234    1.0239 C   0  0  0  0  0  0  0  0  0  0  0  0
   -3.0064    0.0973   -0.2420 C   0  0  0  0  0  0  0  0  0  0  0  0
    1.9509    2.7515    0.5480 H   0  0  0  0  0  0  0  0  0  0  0  0
    3.1604    1.9188    1.5328 H   0  0  0  0  0  0  0  0  0  0  0  0
    3.6777    2.7690    0.0448 H   0  0  0  0  0  0  0  0  0  0  0  0
    5.6307    0.4556    0.6286 H   0  0  0  0  0  0  0  0  0  0  0  0
    6.9530   -0.1977    2.6111 H   0  0  0  0  0  0  0  0  0  0  0  0
    5.9761   -1.7092    4.3197 H   0  0  0  0  0  0  0  0  0  0  0  0
    3.6649   -2.5687    4.0386 H   0  0  0  0  0  0  0  0  0  0  0  0
    2.3270   -1.9148    2.0664 H   0  0  0  0  0  0  0  0  0  0  0  0
    2.6401   -2.1571   -1.0560 H   0  0  0  0  0  0  0  0  0  0  0  0
   -0.8966    2.3501   -3.1874 H   0  0  0  0  0  0  0  0  0  0  0  0
   -0.2432    0.6901   -3.1467 H   0  0  0  0  0  0  0  0  0  0  0  0
   -3.3620    1.4402   -2.9501 H   0  0  0  0  0  0  0  0  0  0  0  0
   -2.2207    0.2126   -3.4838 H   0  0  0  0  0  0  0  0  0  0  0  0
   -4.5374   -0.5700   -3.7591 H   0  0  0  0  0  0  0  0  0  0  0  0
   -3.6018   -1.6033   -2.6745 H   0  0  0  0  0  0  0  0  0  0  0  0
   -5.8103   -1.1463   -1.7077 H   0  0  0  0  0  0  0  0  0  0  0  0
   -5.5584    0.6045   -1.8195 H   0  0  0  0  0  0  0  0  0  0  0  0
   -6.0858   -1.0960    0.6959 H   0  0  0  0  0  0  0  0  0  0  0  0
   -4.9876   -1.1434    2.9044 H   0  0  0  0  0  0  0  0  0  0  0  0
   -2.6132   -0.4527    3.1148 H   0  0  0  0  0  0  0  0  0  0  0  0
   -1.3605    0.2861    1.1725 H   0  0  0  0  0  0  0  0  0  0  0  0
  1  2  1  0
  2  3  1  0
  3  4  1  0
  4  5  2  0
  5  6  1  0
  6  7  2  0
  7  8  1  0
  8  9  2  0
  3 10  2  0
 10 11  1  0
 11 12  2  0
 12 13  1  0
 13 14  1  0
 14 15  1  0
 15 16  2  0
 15 17  1  0
 17 18  1  0
 18 19  1  0
 19 20  1  0
 20 21  1  0
 21 22  2  0
 22 23  1  0
 23 24  2  0
 24 25  1  0
 25 26  2  0
 12  2  1  0
 26 17  1  0
  9  4  1  0
 26 21  1  0
  1 27  1  0
  1 28  1  0
  1 29  1  0
  5 30  1  0
  6 31  1  0
  7 32  1  0
  8 33  1  0
  9 34  1  0
 10 35  1  0
 14 36  1  0
 14 37  1  0
 18 38  1  0
 18 39  1  0
 19 40  1  0
 19 41  1  0
 20 42  1  0
 20 43  1  0
 22 44  1  0
 23 45  1  0
 24 46  1  0
 25 47  1  0
M  END
$$$$
