
     RDKit          3D

 49 51  0  0  0  0  0  0  0  0999 V2000
   -1.2086    1.7338    1.7179 O   0  0  0  0  0  0  0  0  0  0  0  0
   -0.7186    0.8927    0.9728 C   0  0  0  0  0  0  0  0  0  0  0  0
   -1.5437    0.1301   -0.0501 C   0  0  0  0  0  0  0  0  0  0  0  0
   -3.0071    0.5782   -0.0340 C   0  0  0  0  0  0  0  0  0  0  0  0
   -3.8108   -0.1169   -1.0558 N   0  0  0  0  0  0  0  0  0  0  0  0
   -5.0189    0.6600   -1.3753 C   0  0  0  0  0  0  0  0  0  0  0  0
   -6.0074   -0.1502   -2.2101 C   0  0  0  0  0  0  0  0  0  0  0  0
   -6.5037   -1.3812   -1.4541 C   0  0  0  0  0  0  0  0  0  0  0  0
   -5.5455   -1.8027   -0.3436 C   0  0  0  0  0  0  0  0  0  0  0  0
   -4.0903   -1.5225   -0.7171 C   0  0  0  0  0  0  0  0  0  0  0  0
    0.6102    0.5110    0.9349 N   0  0  0  0  0  0  0  0  0  0  0  0
    1.6787    0.9365    1.7612 C   0  0  0  0  0  0  0  0  0  0  0  0
    1.4927    1.8181    2.8323 C   0  0  0  0  0  0  0  0  0  0  0  0
    2.5626    2.1842    3.6559 C   0  0  0  0  0  0  0  0  0  0  0  0
    3.8295    1.6631    3.4208 C   0  0  0  0  0  0  0  0  0  0  0  0
    5.2665    2.1401    4.5516 Br  0  0  0  0  0  0  0  0  0  0  0  0
    4.0467    0.7911    2.3581 C   0  0  0  0  0  0  0  0  0  0  0  0
    2.9820    0.4444    1.5097 C   0  0  0  0  0  0  0  0  0  0  0  0
    3.2354   -0.4667    0.3546 C   0  0  0  0  0  0  0  0  0  0  0  0
    2.3446   -1.2266   -0.0237 O   0  0  0  0  0  0  0  0  0  0  0  0
    4.5276   -0.4664   -0.3739 C   0  0  0  0  0  0  0  0  0  0  0  0
    5.2111    0.7235   -0.6520 C   0  0  0  0  0  0  0  0  0  0  0  0
    6.4198    0.6824   -1.3496 C   0  0  0  0  0  0  0  0  0  0  0  0
    6.9383   -0.5398   -1.7796 C   0  0  0  0  0  0  0  0  0  0  0  0
    6.2460   -1.7235   -1.5241 C   0  0  0  0  0  0  0  0  0  0  0  0
    5.0376   -1.6880   -0.8274 C   0  0  0  0  0  0  0  0  0  0  0  0
   -1.4538   -0.9374    0.1781 H   0  0  0  0  0  0  0  0  0  0  0  0
   -1.1112    0.3069   -1.0427 H   0  0  0  0  0  0  0  0  0  0  0  0
   -3.4480    0.4435    0.9625 H   0  0  0  0  0  0  0  0  0  0  0  0
   -3.0206    1.6579   -0.2355 H   0  0  0  0  0  0  0  0  0  0  0  0
   -4.7293    1.5535   -1.9408 H   0  0  0  0  0  0  0  0  0  0  0  0
   -5.5200    1.0042   -0.4603 H   0  0  0  0  0  0  0  0  0  0  0  0
   -5.5239   -0.4656   -3.1438 H   0  0  0  0  0  0  0  0  0  0  0  0
   -6.8606    0.4739   -2.4994 H   0  0  0  0  0  0  0  0  0  0  0  0
   -7.4897   -1.1823   -1.0168 H   0  0  0  0  0  0  0  0  0  0  0  0
   -6.6430   -2.2047   -2.1649 H   0  0  0  0  0  0  0  0  0  0  0  0
   -5.7933   -1.2633    0.5797 H   0  0  0  0  0  0  0  0  0  0  0  0
   -5.6817   -2.8682   -0.1263 H   0  0  0  0  0  0  0  0  0  0  0  0
   -3.4474   -1.8886    0.0910 H   0  0  0  0  0  0  0  0  0  0  0  0
   -3.8345   -2.1271   -1.5965 H   0  0  0  0  0  0  0  0  0  0  0  0
    0.8582   -0.2193    0.2615 H   0  0  0  0  0  0  0  0  0  0  0  0
    0.5163    2.2318    3.0681 H   0  0  0  0  0  0  0  0  0  0  0  0
    2.3849    2.8658    4.4848 H   0  0  0  0  0  0  0  0  0  0  0  0
    5.0403    0.3781    2.2037 H   0  0  0  0  0  0  0  0  0  0  0  0
    4.8098    1.6874   -0.3503 H   0  0  0  0  0  0  0  0  0  0  0  0
    6.9546    1.6040   -1.5669 H   0  0  0  0  0  0  0  0  0  0  0  0
    7.8782   -0.5689   -2.3261 H   0  0  0  0  0  0  0  0  0  0  0  0
    6.6443   -2.6733   -1.8730 H   0  0  0  0  0  0  0  0  0  0  0  0
    4.4956   -2.6127   -0.6396 H   0  0  0  0  0  0  0  0  0  0  0  0
  1  2  2  0
  2  3  1  0
  3  4  1  0
  4  5  1  0
  5  6  1  0
  6  7  1  0
  7  8  1  0
  8  9  1  0
  9 10  1  0
  2 11  1  0
 11 12  1  0
 12 13  2  0
 13 14  1  0
 14 15  2  0
 15 16  1  0
 15 17  1  0
 17 18  2  0
 18 19  1  0
 19 20  2  0
 19 21  1  0
 21 22  2  0
 22 23  1  0
 23 24  2  0
 24 25  1  0
 25 26  2  0
 10  5  1  0
 18 12  1  0
 26 21  1  0
  3 27  1  0
  3 28  1  0
  4 29  1  0
  4 30  1  0
  6 31  1  0
  6 32  1  0
  7 33  1  0
  7 34  1  0
  8 35  1  0
  8 36  1  0
  9 37  1  0
  9 38  1  0
 10 39  1  0
 10 40  1  0
 11 41  1  0
 13 42  1  0
 14 43  1  0
 17 44  1  0
 22 45  1  0
 23 46  1  0
 24 47  1  0
 25 48  1  0
 26 49  1  0
M  END
$$$$
