
     RDKit          3D

 63 67  0  0  0  0  0  0  0  0999 V2000
   -4.0783    6.6355    1.6906 C   0  0  0  0  0  0  0  0  0  0  0  0
   -3.2256    5.6447    2.2500 O   0  0  0  0  0  0  0  0  0  0  0  0
   -3.3499    4.3741    1.7601 C   0  0  0  0  0  0  0  0  0  0  0  0
   -4.2377    3.9595    0.7678 C   0  0  0  0  0  0  0  0  0  0  0  0
   -4.2598    2.6205    0.3579 C   0  0  0  0  0  0  0  0  0  0  0  0
   -3.3970    1.6793    0.9354 C   0  0  0  0  0  0  0  0  0  0  0  0
   -3.4092    0.2782    0.4967 C   0  0  0  0  0  0  0  0  0  0  0  0
   -4.8255   -0.6442    0.7645 S   0  0  0  0  0  0  0  0  0  0  0  0
   -4.1436   -2.0645    0.0791 C   0  0  0  0  0  0  0  0  0  0  0  0
   -4.7766   -3.3210   -0.0547 C   0  0  0  0  0  0  0  0  0  0  0  0
   -4.0765   -4.3750   -0.6450 C   0  0  0  0  0  0  0  0  0  0  0  0
   -4.5557   -5.6422   -0.8417 O   0  0  0  0  0  0  0  0  0  0  0  0
   -5.8820   -5.9054   -0.4008 C   0  0  0  0  0  0  0  0  0  0  0  0
   -2.7761   -4.1745   -1.0924 C   0  0  0  0  0  0  0  0  0  0  0  0
   -2.1530   -2.9296   -0.9573 C   0  0  0  0  0  0  0  0  0  0  0  0
   -2.8367   -1.8433   -0.3560 C   0  0  0  0  0  0  0  0  0  0  0  0
   -2.4160   -0.4814   -0.1034 C   0  0  0  0  0  0  0  0  0  0  0  0
   -1.1073    0.0779   -0.4282 C   0  0  0  0  0  0  0  0  0  0  0  0
    0.0314   -0.3672    0.2520 C   0  0  0  0  0  0  0  0  0  0  0  0
    1.2920    0.1598   -0.0534 C   0  0  0  0  0  0  0  0  0  0  0  0
    1.4241    1.1346   -1.0423 C   0  0  0  0  0  0  0  0  0  0  0  0
    2.5857    1.7300   -1.4462 O   0  0  0  0  0  0  0  0  0  0  0  0
    3.7984    1.4162   -0.7541 C   0  0  0  0  0  0  0  0  0  0  0  0
    4.4675    0.1727   -1.3644 C   0  0  0  0  0  0  0  0  0  0  0  0
    5.7888   -0.1390   -0.7880 N   0  0  0  0  0  0  0  0  0  0  0  0
    5.6856   -0.6364    0.6017 C   0  0  0  0  0  0  0  0  0  0  0  0
    7.0591   -1.0537    1.1548 C   0  0  0  0  0  0  0  0  0  0  0  0
    7.6647   -2.0611    0.3355 O   0  0  0  0  0  0  0  0  0  0  0  0
    7.8216   -1.5716   -1.0025 C   0  0  0  0  0  0  0  0  0  0  0  0
    6.4667   -1.1713   -1.6065 C   0  0  0  0  0  0  0  0  0  0  0  0
    0.2851    1.5714   -1.7250 C   0  0  0  0  0  0  0  0  0  0  0  0
   -0.9749    1.0487   -1.4238 C   0  0  0  0  0  0  0  0  0  0  0  0
   -2.5081    2.1024    1.9296 C   0  0  0  0  0  0  0  0  0  0  0  0
   -2.4873    3.4393    2.3365 C   0  0  0  0  0  0  0  0  0  0  0  0
   -3.8542    7.5863    2.1837 H   0  0  0  0  0  0  0  0  0  0  0  0
   -5.1314    6.4025    1.8797 H   0  0  0  0  0  0  0  0  0  0  0  0
   -3.8868    6.7625    0.6200 H   0  0  0  0  0  0  0  0  0  0  0  0
   -4.9253    4.6490    0.2900 H   0  0  0  0  0  0  0  0  0  0  0  0
   -4.9549    2.3194   -0.4231 H   0  0  0  0  0  0  0  0  0  0  0  0
   -5.7931   -3.4346    0.3038 H   0  0  0  0  0  0  0  0  0  0  0  0
   -6.6069   -5.2847   -0.9379 H   0  0  0  0  0  0  0  0  0  0  0  0
   -5.9717   -5.7723    0.6823 H   0  0  0  0  0  0  0  0  0  0  0  0
   -6.1079   -6.9519   -0.6272 H   0  0  0  0  0  0  0  0  0  0  0  0
   -2.2335   -4.9952   -1.5565 H   0  0  0  0  0  0  0  0  0  0  0  0
   -1.1370   -2.8005   -1.3227 H   0  0  0  0  0  0  0  0  0  0  0  0
   -0.0551   -1.1246    1.0283 H   0  0  0  0  0  0  0  0  0  0  0  0
    2.1437   -0.2195    0.4997 H   0  0  0  0  0  0  0  0  0  0  0  0
    3.6367    1.3446    0.3264 H   0  0  0  0  0  0  0  0  0  0  0  0
    4.4626    2.2769   -0.8993 H   0  0  0  0  0  0  0  0  0  0  0  0
    4.5807    0.3716   -2.4390 H   0  0  0  0  0  0  0  0  0  0  0  0
    3.7980   -0.6941   -1.3001 H   0  0  0  0  0  0  0  0  0  0  0  0
    5.2785    0.1398    1.2573 H   0  0  0  0  0  0  0  0  0  0  0  0
    5.0110   -1.5017    0.6387 H   0  0  0  0  0  0  0  0  0  0  0  0
    6.9408   -1.4723    2.1594 H   0  0  0  0  0  0  0  0  0  0  0  0
    7.7350   -0.1932    1.2308 H   0  0  0  0  0  0  0  0  0  0  0  0
    8.5221   -0.7278   -1.0007 H   0  0  0  0  0  0  0  0  0  0  0  0
    8.2695   -2.3741   -1.5974 H   0  0  0  0  0  0  0  0  0  0  0  0
    6.6346   -0.7917   -2.6209 H   0  0  0  0  0  0  0  0  0  0  0  0
    5.8326   -2.0649   -1.6782 H   0  0  0  0  0  0  0  0  0  0  0  0
    0.3792    2.3299   -2.4986 H   0  0  0  0  0  0  0  0  0  0  0  0
   -1.8447    1.4059   -1.9695 H   0  0  0  0  0  0  0  0  0  0  0  0
   -1.8256    1.3965    2.3963 H   0  0  0  0  0  0  0  0  0  0  0  0
   -1.7908    3.7545    3.1095 H   0  0  0  0  0  0  0  0  0  0  0  0
  1  2  1  0
  2  3  1  0
  3  4  2  0
  4  5  1  0
  5  6  2  0
  6  7  1  0
  7  8  1  0
  8  9  1  0
  9 10  2  0
 10 11  1  0
 11 12  1  0
 12 13  1  0
 11 14  2  0
 14 15  1  0
 15 16  2  0
 16 17  1  0
 17 18  1  0
 18 19  2  0
 19 20  1  0
 20 21  2  0
 21 22  1  0
 22 23  1  0
 23 24  1  0
 24 25  1  0
 25 26  1  0
 26 27  1  0
 27 28  1  0
 28 29  1  0
 29 30  1  0
 21 31  1  0
 31 32  2  0
  6 33  1  0
 33 34  2  0
 34  3  1  0
 17  7  2  0
 32 18  1  0
 16  9  1  0
 30 25  1  0
  1 35  1  0
  1 36  1  0
  1 37  1  0
  4 38  1  0
  5 39  1  0
 10 40  1  0
 13 41  1  0
 13 42  1  0
 13 43  1  0
 14 44  1  0
 15 45  1  0
 19 46  1  0
 20 47  1  0
 23 48  1  0
 23 49  1  0
 24 50  1  0
 24 51  1  0
 26 52  1  0
 26 53  1  0
 27 54  1  0
 27 55  1  0
 29 56  1  0
 29 57  1  0
 30 58  1  0
 30 59  1  0
 31 60  1  0
 32 61  1  0
 33 62  1  0
 34 63  1  0
M  END
$$$$
