
     RDKit          3D

 33 35  0  0  0  0  0  0  0  0999 V2000
   -2.7572   -2.5460    1.0199 C   0  0  0  0  0  0  0  0  0  0  0  0
   -2.9882   -1.1534    0.5171 C   0  0  0  0  0  0  0  0  0  0  0  0
   -3.7098   -0.2505    1.2717 C   0  0  0  0  0  0  0  0  0  0  0  0
   -3.8688    1.0026    0.7274 C   0  0  0  0  0  0  0  0  0  0  0  0
   -3.3634    1.3656   -0.4632 N   0  0  0  0  0  0  0  0  0  0  0  0
   -2.6583    0.4249   -1.1127 C   0  0  0  0  0  0  0  0  0  0  0  0
   -1.9515    0.8615   -2.6754 S   0  0  0  0  0  0  0  0  0  0  0  0
   -0.7816    2.1112   -2.0707 C   0  0  0  0  0  0  0  0  0  0  0  0
    0.2959    1.5292   -1.2179 C   0  0  0  0  0  0  0  0  0  0  0  0
    1.2326    0.5638   -1.5334 C   0  0  0  0  0  0  0  0  0  0  0  0
    1.9765    0.3624   -0.3956 N   0  0  0  0  0  0  0  0  0  0  0  0
    3.0441   -0.5207   -0.1516 C   0  0  0  0  0  0  0  0  0  0  0  0
    3.5124   -1.4342   -1.2426 C   0  0  0  0  0  0  0  0  0  0  0  0
    3.6073   -0.5076    1.0751 C   0  0  0  0  0  0  0  0  0  0  0  0
    3.1049    0.4032    2.0911 C   0  0  0  0  0  0  0  0  0  0  0  0
    2.0815    1.2405    1.8414 C   0  0  0  0  0  0  0  0  0  0  0  0
    1.4699    1.2433    0.5577 C   0  0  0  0  0  0  0  0  0  0  0  0
    0.4702    1.9544    0.0813 N   0  0  0  0  0  0  0  0  0  0  0  0
   -2.4627   -0.8338   -0.6822 N   0  0  0  0  0  0  0  0  0  0  0  0
   -2.2050   -2.5201    1.9645 H   0  0  0  0  0  0  0  0  0  0  0  0
   -3.7130   -3.0559    1.1755 H   0  0  0  0  0  0  0  0  0  0  0  0
   -2.1734   -3.1288    0.3002 H   0  0  0  0  0  0  0  0  0  0  0  0
   -4.1290   -0.5055    2.2356 H   0  0  0  0  0  0  0  0  0  0  0  0
   -4.4234    1.7758    1.2507 H   0  0  0  0  0  0  0  0  0  0  0  0
   -0.3217    2.5869   -2.9439 H   0  0  0  0  0  0  0  0  0  0  0  0
   -1.3202    2.8973   -1.5306 H   0  0  0  0  0  0  0  0  0  0  0  0
    1.4050    0.0057   -2.4417 H   0  0  0  0  0  0  0  0  0  0  0  0
    2.7033   -2.0985   -1.5641 H   0  0  0  0  0  0  0  0  0  0  0  0
    3.8588   -0.8581   -2.1070 H   0  0  0  0  0  0  0  0  0  0  0  0
    4.3448   -2.0660   -0.9140 H   0  0  0  0  0  0  0  0  0  0  0  0
    4.4338   -1.1597    1.3394 H   0  0  0  0  0  0  0  0  0  0  0  0
    3.5826    0.3895    3.0661 H   0  0  0  0  0  0  0  0  0  0  0  0
    1.7034    1.9211    2.5950 H   0  0  0  0  0  0  0  0  0  0  0  0
  1  2  1  0
  2  3  2  0
  3  4  1  0
  4  5  2  0
  5  6  1  0
  6  7  1  0
  7  8  1  0
  8  9  1  0
  9 10  2  0
 10 11  1  0
 11 12  1  0
 12 13  1  0
 12 14  2  0
 14 15  1  0
 15 16  2  0
 16 17  1  0
 17 18  2  0
  6 19  2  0
 19  2  1  0
 18  9  1  0
 17 11  1  0
  1 20  1  0
  1 21  1  0
  1 22  1  0
  3 23  1  0
  4 24  1  0
  8 25  1  0
  8 26  1  0
 10 27  1  0
 13 28  1  0
 13 29  1  0
 13 30  1  0
 14 31  1  0
 15 32  1  0
 16 33  1  0
M  END
$$$$
