
     RDKit          3D

 56 59  0  0  0  0  0  0  0  0999 V2000
    0.3060   -2.5093   -2.3158 O   0  0  0  0  0  0  0  0  0  0  0  0
   -0.4021   -1.4527   -1.6592 C   0  0  0  0  0  0  0  0  0  0  0  0
   -1.2066   -2.0456   -0.4874 C   0  0  0  0  0  0  0  0  0  0  0  0
   -2.0565   -1.1051    0.1702 O   0  0  0  0  0  0  0  0  0  0  0  0
   -3.2102   -0.7575   -0.5961 C   0  0  0  0  0  0  0  0  0  0  0  0
   -4.2350   -0.0270    0.2766 C   0  0  0  0  0  0  0  0  0  0  0  0
   -4.7375   -0.9228    1.4080 C   0  0  0  0  0  0  0  0  0  0  0  0
   -5.6685   -0.2236    2.2488 O   0  0  0  0  0  0  0  0  0  0  0  0
   -6.5737    0.4951    1.5133 C   0  0  0  0  0  0  0  0  0  0  0  0
   -7.6990    0.9613    2.1935 C   0  0  0  0  0  0  0  0  0  0  0  0
   -8.6794    1.6823    1.5102 C   0  0  0  0  0  0  0  0  0  0  0  0
   -8.5300    1.9383    0.1457 C   0  0  0  0  0  0  0  0  0  0  0  0
   -7.3932    1.4857   -0.5344 C   0  0  0  0  0  0  0  0  0  0  0  0
   -6.4113    0.7742    0.1517 C   0  0  0  0  0  0  0  0  0  0  0  0
   -5.3239    0.3648   -0.5771 O   0  0  0  0  0  0  0  0  0  0  0  0
    0.5707   -0.3320   -1.2096 C   0  0  0  0  0  0  0  0  0  0  0  0
    1.7437   -0.8443   -0.4639 N   0  0  0  0  0  0  0  0  0  0  0  0
    2.8956   -1.1489   -1.3544 C   0  0  0  0  0  0  0  0  0  0  0  0
    4.0523   -0.1191   -1.3673 C   0  0  0  0  0  0  0  0  0  0  0  0
    4.5639    0.1171   -0.0097 N   0  0  0  0  0  0  0  0  0  0  0  0
    5.8647    0.5363    0.2214 C   0  0  0  0  0  0  0  0  0  0  0  0
    6.4585    0.4364    1.4921 C   0  0  0  0  0  0  0  0  0  0  0  0
    7.7716    0.8591    1.7364 C   0  0  0  0  0  0  0  0  0  0  0  0
    8.5339    1.3995    0.7048 C   0  0  0  0  0  0  0  0  0  0  0  0
    7.9821    1.5040   -0.5664 C   0  0  0  0  0  0  0  0  0  0  0  0
    6.6672    1.0781   -0.7978 C   0  0  0  0  0  0  0  0  0  0  0  0
    3.5990   -0.0589    1.0903 C   0  0  0  0  0  0  0  0  0  0  0  0
    2.1520    0.1324    0.5783 C   0  0  0  0  0  0  0  0  0  0  0  0
    0.9761   -2.8009   -1.6685 H   0  0  0  0  0  0  0  0  0  0  0  0
   -1.0885   -1.0273   -2.3969 H   0  0  0  0  0  0  0  0  0  0  0  0
   -0.5179   -2.4429    0.2699 H   0  0  0  0  0  0  0  0  0  0  0  0
   -1.7946   -2.9107   -0.8259 H   0  0  0  0  0  0  0  0  0  0  0  0
   -2.9153   -0.1037   -1.4219 H   0  0  0  0  0  0  0  0  0  0  0  0
   -3.6679   -1.6548   -1.0326 H   0  0  0  0  0  0  0  0  0  0  0  0
   -3.7803    0.8803    0.6972 H   0  0  0  0  0  0  0  0  0  0  0  0
   -3.9111   -1.2478    2.0485 H   0  0  0  0  0  0  0  0  0  0  0  0
   -5.2344   -1.8221    1.0185 H   0  0  0  0  0  0  0  0  0  0  0  0
   -7.8181    0.7567    3.2557 H   0  0  0  0  0  0  0  0  0  0  0  0
   -9.5630    2.0344    2.0387 H   0  0  0  0  0  0  0  0  0  0  0  0
   -9.2948    2.4965   -0.3874 H   0  0  0  0  0  0  0  0  0  0  0  0
   -7.2730    1.6919   -1.5952 H   0  0  0  0  0  0  0  0  0  0  0  0
   -0.0051    0.3692   -0.5912 H   0  0  0  0  0  0  0  0  0  0  0  0
    0.9075    0.2415   -2.0824 H   0  0  0  0  0  0  0  0  0  0  0  0
    3.3073   -2.1063   -1.0041 H   0  0  0  0  0  0  0  0  0  0  0  0
    2.5734   -1.3277   -2.3865 H   0  0  0  0  0  0  0  0  0  0  0  0
    3.7073    0.8265   -1.7976 H   0  0  0  0  0  0  0  0  0  0  0  0
    4.8359   -0.5253   -2.0181 H   0  0  0  0  0  0  0  0  0  0  0  0
    5.9130    0.0015    2.3229 H   0  0  0  0  0  0  0  0  0  0  0  0
    8.1940    0.7633    2.7333 H   0  0  0  0  0  0  0  0  0  0  0  0
    9.5531    1.7281    0.8886 H   0  0  0  0  0  0  0  0  0  0  0  0
    8.5681    1.9204   -1.3845 H   0  0  0  0  0  0  0  0  0  0  0  0
    6.2769    1.2016   -1.8028 H   0  0  0  0  0  0  0  0  0  0  0  0
    3.7188   -1.0599    1.5292 H   0  0  0  0  0  0  0  0  0  0  0  0
    3.7654    0.6875    1.8784 H   0  0  0  0  0  0  0  0  0  0  0  0
    2.0774    1.1545    0.1809 H   0  0  0  0  0  0  0  0  0  0  0  0
    1.4551    0.0578    1.4259 H   0  0  0  0  0  0  0  0  0  0  0  0
  1  2  1  0
  2  3  1  0
  3  4  1  0
  4  5  1  0
  5  6  1  0
  6  7  1  0
  7  8  1  0
  8  9  1  0
  9 10  2  0
 10 11  1  0
 11 12  2  0
 12 13  1  0
 13 14  2  0
 14 15  1  0
  2 16  1  0
 16 17  1  0
 17 18  1  0
 18 19  1  0
 19 20  1  0
 20 21  1  0
 21 22  2  0
 22 23  1  0
 23 24  2  0
 24 25  1  0
 25 26  2  0
 20 27  1  0
 27 28  1  0
 15  6  1  0
 28 17  1  0
 14  9  1  0
 26 21  1  0
  1 29  1  0
  2 30  1  0
  3 31  1  0
  3 32  1  0
  5 33  1  0
  5 34  1  0
  6 35  1  0
  7 36  1  0
  7 37  1  0
 10 38  1  0
 11 39  1  0
 12 40  1  0
 13 41  1  0
 16 42  1  0
 16 43  1  0
 18 44  1  0
 18 45  1  0
 19 46  1  0
 19 47  1  0
 22 48  1  0
 23 49  1  0
 24 50  1  0
 25 51  1  0
 26 52  1  0
 27 53  1  0
 27 54  1  0
 28 55  1  0
 28 56  1  0
M  END
$$$$
