
     RDKit          3D

 63 67  0  0  0  0  0  0  0  0999 V2000
   -3.8565    6.3881    0.5579 C   0  0  0  0  0  0  0  0  0  0  0  0
   -3.1629    5.3937    1.3009 O   0  0  0  0  0  0  0  0  0  0  0  0
   -3.3163    4.0978    0.8922 C   0  0  0  0  0  0  0  0  0  0  0  0
   -2.6093    3.1601    1.6478 C   0  0  0  0  0  0  0  0  0  0  0  0
   -2.6757    1.7985    1.3398 C   0  0  0  0  0  0  0  0  0  0  0  0
   -3.4549    1.3533    0.2663 C   0  0  0  0  0  0  0  0  0  0  0  0
   -3.5121   -0.0751   -0.0681 C   0  0  0  0  0  0  0  0  0  0  0  0
   -5.0133   -0.8837    0.0761 S   0  0  0  0  0  0  0  0  0  0  0  0
   -4.3532   -2.3938   -0.4097 C   0  0  0  0  0  0  0  0  0  0  0  0
   -5.0524   -3.6156   -0.5353 C   0  0  0  0  0  0  0  0  0  0  0  0
   -4.3602   -4.7548   -0.9511 C   0  0  0  0  0  0  0  0  0  0  0  0
   -4.9001   -6.0017   -1.1182 O   0  0  0  0  0  0  0  0  0  0  0  0
   -6.2863   -6.1472   -0.8353 C   0  0  0  0  0  0  0  0  0  0  0  0
   -3.0026   -4.6714   -1.2363 C   0  0  0  0  0  0  0  0  0  0  0  0
   -2.3142   -3.4605   -1.1097 C   0  0  0  0  0  0  0  0  0  0  0  0
   -2.9893   -2.2893   -0.6835 C   0  0  0  0  0  0  0  0  0  0  0  0
   -2.5079   -0.9401   -0.4763 C   0  0  0  0  0  0  0  0  0  0  0  0
   -1.1322   -0.4896   -0.6655 C   0  0  0  0  0  0  0  0  0  0  0  0
   -0.8068    0.3862   -1.7044 C   0  0  0  0  0  0  0  0  0  0  0  0
    0.5141    0.8079   -1.8737 C   0  0  0  0  0  0  0  0  0  0  0  0
    1.5218    0.3614   -1.0148 C   0  0  0  0  0  0  0  0  0  0  0  0
    2.7669    0.8529   -1.2940 O   0  0  0  0  0  0  0  0  0  0  0  0
    3.8299    0.4744   -0.4143 C   0  0  0  0  0  0  0  0  0  0  0  0
    5.1163    1.1695   -0.8966 C   0  0  0  0  0  0  0  0  0  0  0  0
    6.3386    0.9599   -0.1119 N   0  0  0  0  0  0  0  0  0  0  0  0
    6.8684   -0.4107   -0.1964 C   0  0  0  0  0  0  0  0  0  0  0  0
    7.9109   -0.6671    0.9024 C   0  0  0  0  0  0  0  0  0  0  0  0
    7.3546   -0.5877    2.2228 O   0  0  0  0  0  0  0  0  0  0  0  0
    6.2360    0.3045    2.3156 C   0  0  0  0  0  0  0  0  0  0  0  0
    6.2667    1.4395    1.2787 C   0  0  0  0  0  0  0  0  0  0  0  0
    1.1985   -0.5189    0.0185 C   0  0  0  0  0  0  0  0  0  0  0  0
   -0.1239   -0.9437    0.1918 C   0  0  0  0  0  0  0  0  0  0  0  0
   -4.1620    2.2971   -0.4905 C   0  0  0  0  0  0  0  0  0  0  0  0
   -4.0944    3.6611   -0.1796 C   0  0  0  0  0  0  0  0  0  0  0  0
   -4.9401    6.2405    0.6160 H   0  0  0  0  0  0  0  0  0  0  0  0
   -3.5154    6.4135   -0.4824 H   0  0  0  0  0  0  0  0  0  0  0  0
   -3.6288    7.3600    1.0064 H   0  0  0  0  0  0  0  0  0  0  0  0
   -1.9994    3.4924    2.4842 H   0  0  0  0  0  0  0  0  0  0  0  0
   -2.1151    1.0906    1.9454 H   0  0  0  0  0  0  0  0  0  0  0  0
   -6.1116   -3.6373   -0.3068 H   0  0  0  0  0  0  0  0  0  0  0  0
   -6.5558   -7.1926   -1.0141 H   0  0  0  0  0  0  0  0  0  0  0  0
   -6.8927   -5.5279   -1.5045 H   0  0  0  0  0  0  0  0  0  0  0  0
   -6.5005   -5.9231    0.2149 H   0  0  0  0  0  0  0  0  0  0  0  0
   -2.4656   -5.5585   -1.5647 H   0  0  0  0  0  0  0  0  0  0  0  0
   -1.2533   -3.4241   -1.3461 H   0  0  0  0  0  0  0  0  0  0  0  0
   -1.5732    0.7473   -2.3857 H   0  0  0  0  0  0  0  0  0  0  0  0
    0.7589    1.4930   -2.6818 H   0  0  0  0  0  0  0  0  0  0  0  0
    3.9575   -0.6129   -0.4450 H   0  0  0  0  0  0  0  0  0  0  0  0
    3.5928    0.7966    0.6059 H   0  0  0  0  0  0  0  0  0  0  0  0
    4.9238    2.2493   -0.9587 H   0  0  0  0  0  0  0  0  0  0  0  0
    5.3050    0.8760   -1.9381 H   0  0  0  0  0  0  0  0  0  0  0  0
    7.3270   -0.5614   -1.1798 H   0  0  0  0  0  0  0  0  0  0  0  0
    6.0681   -1.1500   -0.0798 H   0  0  0  0  0  0  0  0  0  0  0  0
    8.7374    0.0502    0.8345 H   0  0  0  0  0  0  0  0  0  0  0  0
    8.3396   -1.6681    0.7884 H   0  0  0  0  0  0  0  0  0  0  0  0
    5.3216   -0.2906    2.2099 H   0  0  0  0  0  0  0  0  0  0  0  0
    6.2341    0.7217    3.3278 H   0  0  0  0  0  0  0  0  0  0  0  0
    5.4211    2.1192    1.4357 H   0  0  0  0  0  0  0  0  0  0  0  0
    7.1720    2.0345    1.4542 H   0  0  0  0  0  0  0  0  0  0  0  0
    1.9469   -0.8958    0.7071 H   0  0  0  0  0  0  0  0  0  0  0  0
   -0.3615   -1.6273    1.0041 H   0  0  0  0  0  0  0  0  0  0  0  0
   -4.7687    1.9780   -1.3354 H   0  0  0  0  0  0  0  0  0  0  0  0
   -4.6601    4.3516   -0.7957 H   0  0  0  0  0  0  0  0  0  0  0  0
  1  2  1  0
  2  3  1  0
  3  4  2  0
  4  5  1  0
  5  6  2  0
  6  7  1  0
  7  8  1  0
  8  9  1  0
  9 10  2  0
 10 11  1  0
 11 12  1  0
 12 13  1  0
 11 14  2  0
 14 15  1  0
 15 16  2  0
 16 17  1  0
 17 18  1  0
 18 19  2  0
 19 20  1  0
 20 21  2  0
 21 22  1  0
 22 23  1  0
 23 24  1  0
 24 25  1  0
 25 26  1  0
 26 27  1  0
 27 28  1  0
 28 29  1  0
 29 30  1  0
 21 31  1  0
 31 32  2  0
  6 33  1  0
 33 34  2  0
 34  3  1  0
 17  7  2  0
 32 18  1  0
 16  9  1  0
 30 25  1  0
  1 35  1  0
  1 36  1  0
  1 37  1  0
  4 38  1  0
  5 39  1  0
 10 40  1  0
 13 41  1  0
 13 42  1  0
 13 43  1  0
 14 44  1  0
 15 45  1  0
 19 46  1  0
 20 47  1  0
 23 48  1  0
 23 49  1  0
 24 50  1  0
 24 51  1  0
 26 52  1  0
 26 53  1  0
 27 54  1  0
 27 55  1  0
 29 56  1  0
 29 57  1  0
 30 58  1  0
 30 59  1  0
 31 60  1  0
 32 61  1  0
 33 62  1  0
 34 63  1  0
M  END
$$$$
