
     RDKit          3D

 60 64  0  0  0  0  0  0  0  0999 V2000
    3.1855   -1.9696    0.0370 O   0  0  0  0  0  0  0  0  0  0  0  0
    2.9046   -0.7779    0.0472 C   0  0  0  0  0  0  0  0  0  0  0  0
    3.7794    0.2913    0.0735 N   0  0  0  0  0  0  0  0  0  0  0  0
    5.1881    0.2403    0.0001 C   0  0  0  0  0  0  0  0  0  0  0  0
    5.8797    1.4513    0.1392 C   0  0  0  0  0  0  0  0  0  0  0  0
    7.2772    1.4917    0.0700 C   0  0  0  0  0  0  0  0  0  0  0  0
    8.0000    0.3158   -0.1414 C   0  0  0  0  0  0  0  0  0  0  0  0
    9.4830    0.3389   -0.2197 C   0  0  0  0  0  0  0  0  0  0  0  0
   10.1589   -0.6827   -0.6845 N   0  0  0  0  0  0  0  0  0  0  0  0
   11.5832   -0.2597   -0.6073 C   0  0  0  0  0  0  0  0  0  0  0  0
   11.6123    0.9930    0.2680 C   0  0  0  0  0  0  0  0  0  0  0  0
   10.2293    1.4149    0.2103 N   0  0  0  0  0  0  0  0  0  0  0  0
    7.3151   -0.8922   -0.2924 C   0  0  0  0  0  0  0  0  0  0  0  0
    5.9168   -0.9295   -0.2195 C   0  0  0  0  0  0  0  0  0  0  0  0
    1.4605   -0.4156    0.0777 C   0  0  0  0  0  0  0  0  0  0  0  0
    0.9658    0.7130   -0.5903 C   0  0  0  0  0  0  0  0  0  0  0  0
   -0.4023    1.0104   -0.5481 C   0  0  0  0  0  0  0  0  0  0  0  0
   -1.2991    0.1752    0.1386 C   0  0  0  0  0  0  0  0  0  0  0  0
   -2.7194    0.6065    0.1700 C   0  0  0  0  0  0  0  0  0  0  0  0
   -2.9229    1.7860    0.4322 O   0  0  0  0  0  0  0  0  0  0  0  0
   -3.6567   -0.3538   -0.1477 N   0  0  0  0  0  0  0  0  0  0  0  0
   -5.0573   -0.1865   -0.2217 C   0  0  0  0  0  0  0  0  0  0  0  0
   -5.8155   -1.3205   -0.5447 C   0  0  0  0  0  0  0  0  0  0  0  0
   -7.2092   -1.2456   -0.6511 C   0  0  0  0  0  0  0  0  0  0  0  0
   -7.8626   -0.0318   -0.4281 C   0  0  0  0  0  0  0  0  0  0  0  0
   -9.3404    0.0698   -0.5441 C   0  0  0  0  0  0  0  0  0  0  0  0
   -9.9476    1.2318   -0.5625 N   0  0  0  0  0  0  0  0  0  0  0  0
  -11.3910    0.9009   -0.7087 C   0  0  0  0  0  0  0  0  0  0  0  0
  -11.5185   -0.5966   -0.4291 C   0  0  0  0  0  0  0  0  0  0  0  0
  -10.1551   -1.0392   -0.6178 N   0  0  0  0  0  0  0  0  0  0  0  0
   -7.1108    1.1023   -0.1086 C   0  0  0  0  0  0  0  0  0  0  0  0
   -5.7161    1.0246   -0.0038 C   0  0  0  0  0  0  0  0  0  0  0  0
   -0.7854   -0.9467    0.7917 C   0  0  0  0  0  0  0  0  0  0  0  0
   -1.6498   -1.8300    1.5330 N   0  0  0  0  0  4  0  0  0  0  0  0
   -2.3737   -2.5789    0.8623 O   0  0  0  0  0  0  0  0  0  0  0  0
   -1.5833   -1.7832    2.7653 O   0  0  0  0  0  1  0  0  0  0  0  0
    0.5802   -1.2578    0.7665 C   0  0  0  0  0  0  0  0  0  0  0  0
    3.3868    1.2112    0.2241 H   0  0  0  0  0  0  0  0  0  0  0  0
    5.3443    2.3835    0.2991 H   0  0  0  0  0  0  0  0  0  0  0  0
    7.7845    2.4478    0.1602 H   0  0  0  0  0  0  0  0  0  0  0  0
   11.9448   -0.0443   -1.6191 H   0  0  0  0  0  0  0  0  0  0  0  0
   12.1987   -1.0576   -0.1800 H   0  0  0  0  0  0  0  0  0  0  0  0
   11.8876    0.7432    1.2977 H   0  0  0  0  0  0  0  0  0  0  0  0
   12.2948    1.7558   -0.1155 H   0  0  0  0  0  0  0  0  0  0  0  0
    9.8831    1.8992    1.0304 H   0  0  0  0  0  0  0  0  0  0  0  0
    7.8647   -1.8147   -0.4692 H   0  0  0  0  0  0  0  0  0  0  0  0
    5.4317   -1.8920   -0.3488 H   0  0  0  0  0  0  0  0  0  0  0  0
    1.6234    1.3586   -1.1682 H   0  0  0  0  0  0  0  0  0  0  0  0
   -0.7729    1.9003   -1.0584 H   0  0  0  0  0  0  0  0  0  0  0  0
   -3.3342   -1.2995   -0.3430 H   0  0  0  0  0  0  0  0  0  0  0  0
   -5.3335   -2.2793   -0.7230 H   0  0  0  0  0  0  0  0  0  0  0  0
   -7.7640   -2.1360   -0.9295 H   0  0  0  0  0  0  0  0  0  0  0  0
  -11.9945    1.4882   -0.0098 H   0  0  0  0  0  0  0  0  0  0  0  0
  -11.7076    1.1400   -1.7303 H   0  0  0  0  0  0  0  0  0  0  0  0
  -11.8339   -0.7765    0.6045 H   0  0  0  0  0  0  0  0  0  0  0  0
  -12.2131   -1.0926   -1.1122 H   0  0  0  0  0  0  0  0  0  0  0  0
   -9.8707   -1.8462   -0.0751 H   0  0  0  0  0  0  0  0  0  0  0  0
   -7.6048    2.0571    0.0594 H   0  0  0  0  0  0  0  0  0  0  0  0
   -5.1791    1.9350    0.2446 H   0  0  0  0  0  0  0  0  0  0  0  0
    0.9609   -2.1412    1.2792 H   0  0  0  0  0  0  0  0  0  0  0  0
  1  2  2  0
  2  3  1  0
  3  4  1  0
  4  5  2  0
  5  6  1  0
  6  7  2  0
  7  8  1  0
  8  9  2  0
  9 10  1  0
 10 11  1  0
 11 12  1  0
  7 13  1  0
 13 14  2  0
  2 15  1  0
 15 16  2  0
 16 17  1  0
 17 18  2  0
 18 19  1  0
 19 20  2  0
 19 21  1  0
 21 22  1  0
 22 23  2  0
 23 24  1  0
 24 25  2  0
 25 26  1  0
 26 27  2  0
 27 28  1  0
 28 29  1  0
 29 30  1  0
 25 31  1  0
 31 32  2  0
 18 33  1  0
 33 34  1  0
 34 35  2  0
 34 36  1  0
 33 37  2  0
 14  4  1  0
 37 15  1  0
 12  8  1  0
 32 22  1  0
 30 26  1  0
  3 38  1  0
  5 39  1  0
  6 40  1  0
 10 41  1  0
 10 42  1  0
 11 43  1  0
 11 44  1  0
 12 45  1  0
 13 46  1  0
 14 47  1  0
 16 48  1  0
 17 49  1  0
 21 50  1  0
 23 51  1  0
 24 52  1  0
 28 53  1  0
 28 54  1  0
 29 55  1  0
 29 56  1  0
 30 57  1  0
 31 58  1  0
 32 59  1  0
 37 60  1  0
M  CHG  2  34   1  36  -1
M  END
$$$$
