
     RDKit          3D

 52 54  0  0  0  0  0  0  0  0999 V2000
    2.2184    1.4449    1.3231 C   0  0  0  0  0  0  0  0  0  0  0  0
    2.2108    0.0126    0.7929 C   0  0  0  0  0  0  0  0  0  0  0  0
    1.0599   -0.3786   -0.0470 N   0  0  0  0  0  0  0  0  0  0  0  0
    1.0089    0.3851   -1.3107 C   0  0  0  0  0  0  0  0  0  0  0  0
    2.2040    0.1515   -2.2120 C   0  0  0  0  0  0  0  0  0  0  0  0
    3.0518    1.2079   -2.5743 C   0  0  0  0  0  0  0  0  0  0  0  0
    4.1442    0.9807   -3.4136 C   0  0  0  0  0  0  0  0  0  0  0  0
    4.3975   -0.3007   -3.9006 C   0  0  0  0  0  0  0  0  0  0  0  0
    3.5594   -1.3575   -3.5503 C   0  0  0  0  0  0  0  0  0  0  0  0
    2.4673   -1.1330   -2.7118 C   0  0  0  0  0  0  0  0  0  0  0  0
   -0.2493   -0.3845    0.6724 C   0  0  0  0  0  0  0  0  0  0  0  0
   -0.1960   -1.2241    1.9563 C   0  0  0  0  0  0  0  0  0  0  0  0
    0.0352   -2.6069    1.9098 C   0  0  0  0  0  0  0  0  0  0  0  0
    0.0812   -3.3227    3.0949 C   0  0  0  0  0  0  0  0  0  0  0  0
   -0.0762   -2.7654    4.3141 N   0  0  0  0  0  0  0  0  0  0  0  0
   -0.2823   -1.4338    4.3473 C   0  0  0  0  0  0  0  0  0  0  0  0
   -0.3477   -0.6320    3.2170 C   0  0  0  0  0  0  0  0  0  0  0  0
   -1.3828   -0.8894   -0.2010 C   0  0  0  0  0  0  0  0  0  0  0  0
   -1.3546   -2.0091   -0.9090 N   0  0  0  0  0  0  0  0  0  0  0  0
   -2.5432   -2.0973   -1.5657 N   0  0  0  0  0  0  0  0  0  0  0  0
   -3.3064   -1.0567   -1.2930 N   0  0  0  0  0  0  0  0  0  0  0  0
   -2.6036   -0.2849   -0.4348 N   0  0  0  0  0  0  0  0  0  0  0  0
   -3.1839    0.9898    0.0122 C   0  0  0  0  0  0  0  0  0  0  0  0
   -3.2415    1.0717    1.5477 C   0  0  0  0  0  0  0  0  0  0  0  0
   -4.6465    1.1542   -0.4872 C   0  0  0  0  0  0  0  0  0  0  0  0
   -2.3834    2.1736   -0.5624 C   0  0  0  0  0  0  0  0  0  0  0  0
    1.3421    1.6610    1.9397 H   0  0  0  0  0  0  0  0  0  0  0  0
    3.1038    1.5988    1.9493 H   0  0  0  0  0  0  0  0  0  0  0  0
    2.2625    2.1799    0.5146 H   0  0  0  0  0  0  0  0  0  0  0  0
    2.3049   -0.6730    1.6427 H   0  0  0  0  0  0  0  0  0  0  0  0
    3.1419   -0.1512    0.2366 H   0  0  0  0  0  0  0  0  0  0  0  0
    0.1420    0.0985   -1.9178 H   0  0  0  0  0  0  0  0  0  0  0  0
    0.8803    1.4563   -1.1142 H   0  0  0  0  0  0  0  0  0  0  0  0
    2.8693    2.2136   -2.2047 H   0  0  0  0  0  0  0  0  0  0  0  0
    4.7985    1.8036   -3.6890 H   0  0  0  0  0  0  0  0  0  0  0  0
    5.2479   -0.4766   -4.5539 H   0  0  0  0  0  0  0  0  0  0  0  0
    3.7542   -2.3574   -3.9286 H   0  0  0  0  0  0  0  0  0  0  0  0
    1.8173   -1.9635   -2.4398 H   0  0  0  0  0  0  0  0  0  0  0  0
   -0.4608    0.6473    0.9581 H   0  0  0  0  0  0  0  0  0  0  0  0
    0.1834   -3.1198    0.9632 H   0  0  0  0  0  0  0  0  0  0  0  0
    0.2540   -4.3952    3.0917 H   0  0  0  0  0  0  0  0  0  0  0  0
   -0.3941   -1.0104    5.3416 H   0  0  0  0  0  0  0  0  0  0  0  0
   -0.4998    0.4347    3.3342 H   0  0  0  0  0  0  0  0  0  0  0  0
   -3.6856    0.1669    1.9782 H   0  0  0  0  0  0  0  0  0  0  0  0
   -2.2547    1.2053    1.9918 H   0  0  0  0  0  0  0  0  0  0  0  0
   -3.8418    1.9281    1.8771 H   0  0  0  0  0  0  0  0  0  0  0  0
   -5.2898    0.3484   -0.1137 H   0  0  0  0  0  0  0  0  0  0  0  0
   -5.0783    2.1027   -0.1458 H   0  0  0  0  0  0  0  0  0  0  0  0
   -4.7029    1.1511   -1.5823 H   0  0  0  0  0  0  0  0  0  0  0  0
   -2.3213    2.1136   -1.6554 H   0  0  0  0  0  0  0  0  0  0  0  0
   -2.8543    3.1298   -0.3062 H   0  0  0  0  0  0  0  0  0  0  0  0
   -1.3601    2.2120   -0.1815 H   0  0  0  0  0  0  0  0  0  0  0  0
  1  2  1  0
  2  3  1  0
  3  4  1  0
  4  5  1  0
  5  6  2  0
  6  7  1  0
  7  8  2  0
  8  9  1  0
  9 10  2  0
  3 11  1  0
 11 12  1  0
 12 13  2  0
 13 14  1  0
 14 15  2  0
 15 16  1  0
 16 17  2  0
 11 18  1  0
 18 19  2  0
 19 20  1  0
 20 21  2  0
 21 22  1  0
 22 23  1  0
 23 24  1  0
 23 25  1  0
 23 26  1  0
 10  5  1  0
 17 12  1  0
 22 18  1  0
  1 27  1  0
  1 28  1  0
  1 29  1  0
  2 30  1  0
  2 31  1  0
  4 32  1  0
  4 33  1  0
  6 34  1  0
  7 35  1  0
  8 36  1  0
  9 37  1  0
 10 38  1  0
 11 39  1  0
 13 40  1  0
 14 41  1  0
 16 42  1  0
 17 43  1  0
 24 44  1  0
 24 45  1  0
 24 46  1  0
 25 47  1  0
 25 48  1  0
 25 49  1  0
 26 50  1  0
 26 51  1  0
 26 52  1  0
M  END
$$$$
