
     RDKit          3D

 30 31  0  0  0  0  0  0  0  0999 V2000
   -3.6417    0.4653   -1.5920 C   0  0  0  0  0  0  0  0  0  0  0  0
   -2.5285    0.8246   -0.6761 C   0  0  0  0  0  0  0  0  0  0  0  0
   -2.7938    1.1464    0.5978 N   0  0  0  0  0  0  0  0  0  0  0  0
   -1.5864    1.4363    1.1279 N   0  0  0  0  0  0  0  0  0  0  0  0
   -1.5244    1.8714    2.5060 C   0  0  0  0  0  0  0  0  0  0  0  0
   -0.5507    1.2594    0.2454 C   0  0  0  0  0  0  0  0  0  0  0  0
    1.1037    1.4916    0.7361 S   0  0  0  0  0  0  0  0  0  0  0  0
    1.6567   -0.2149    0.6221 C   0  0  0  0  0  0  0  0  0  0  0  0
    1.2411   -1.1282    1.6039 C   0  0  0  0  0  0  0  0  0  0  0  0
    1.6794   -2.4518    1.5710 C   0  0  0  0  0  0  0  0  0  0  0  0
    2.5548   -2.8662    0.5725 C   0  0  0  0  0  0  0  0  0  0  0  0
    2.9808   -1.9616   -0.4019 C   0  0  0  0  0  0  0  0  0  0  0  0
    2.5051   -0.6441   -0.4205 C   0  0  0  0  0  0  0  0  0  0  0  0
    3.0536    0.2572   -1.3532 N   0  0  0  0  0  0  0  0  0  0  0  0
   -1.1401    0.9040   -0.9522 C   0  0  0  0  0  0  0  0  0  0  0  0
   -0.4958    0.6675   -2.2051 N   0  0  0  0  0  4  0  0  0  0  0  0
    0.5108    1.3395   -2.4674 O   0  0  0  0  0  0  0  0  0  0  0  0
   -1.0129   -0.1744   -2.9499 O   0  0  0  0  0  1  0  0  0  0  0  0
   -4.6165    0.6671   -1.1355 H   0  0  0  0  0  0  0  0  0  0  0  0
   -3.6011   -0.5995   -1.8418 H   0  0  0  0  0  0  0  0  0  0  0  0
   -3.5826    1.0454   -2.5184 H   0  0  0  0  0  0  0  0  0  0  0  0
   -1.0113    2.8353    2.5464 H   0  0  0  0  0  0  0  0  0  0  0  0
   -0.9896    1.1157    3.0858 H   0  0  0  0  0  0  0  0  0  0  0  0
   -2.5392    1.9842    2.8977 H   0  0  0  0  0  0  0  0  0  0  0  0
    0.5854   -0.8149    2.4114 H   0  0  0  0  0  0  0  0  0  0  0  0
    1.3556   -3.1528    2.3362 H   0  0  0  0  0  0  0  0  0  0  0  0
    2.9220   -3.8893    0.5588 H   0  0  0  0  0  0  0  0  0  0  0  0
    3.6925   -2.2941   -1.1536 H   0  0  0  0  0  0  0  0  0  0  0  0
    3.3326   -0.1767   -2.2274 H   0  0  0  0  0  0  0  0  0  0  0  0
    2.4406    1.0575   -1.5239 H   0  0  0  0  0  0  0  0  0  0  0  0
  1  2  1  0
  2  3  2  0
  3  4  1  0
  4  5  1  0
  4  6  1  0
  6  7  1  0
  7  8  1  0
  8  9  2  0
  9 10  1  0
 10 11  2  0
 11 12  1  0
 12 13  2  0
 13 14  1  0
  6 15  2  0
 15 16  1  0
 16 17  2  0
 16 18  1  0
 15  2  1  0
 13  8  1  0
  1 19  1  0
  1 20  1  0
  1 21  1  0
  5 22  1  0
  5 23  1  0
  5 24  1  0
  9 25  1  0
 10 26  1  0
 11 27  1  0
 12 28  1  0
 14 29  1  0
 14 30  1  0
M  CHG  2  16   1  18  -1
M  END
$$$$
