
     RDKit          3D

 48 50  0  0  0  0  0  0  0  0999 V2000
    3.4257   -2.7020    0.0231 O   0  0  0  0  0  0  0  0  0  0  0  0
    3.0014   -1.6108   -0.3438 C   0  0  0  0  0  0  0  0  0  0  0  0
    1.6353   -1.4868   -1.0365 C   0  0  0  0  0  0  0  0  0  0  0  0
    0.9839   -0.1837   -0.7366 N   0  0  0  0  0  0  0  0  0  0  0  0
    0.5515   -0.1356    0.6895 C   0  0  0  0  0  0  0  0  0  0  0  0
   -0.6474    0.7951    0.9356 C   0  0  0  0  0  0  0  0  0  0  0  0
   -1.8254    0.3762    0.1748 N   0  0  0  0  0  0  0  0  0  0  0  0
   -2.9978    1.0825    0.3937 C   0  0  0  0  0  0  0  0  0  0  0  0
   -3.0219    2.0975    1.0890 O   0  0  0  0  0  0  0  0  0  0  0  0
   -4.1364    0.5963   -0.2370 N   0  0  0  0  0  0  0  0  0  0  0  0
   -5.2947    1.4925   -0.2468 C   0  0  0  0  0  0  0  0  0  0  0  0
   -6.3674    0.9977   -1.2198 C   0  0  0  0  0  0  0  0  0  0  0  0
   -6.7488   -0.3566   -0.9304 O   0  0  0  0  0  0  0  0  0  0  0  0
   -5.6118   -1.2289   -1.0107 C   0  0  0  0  0  0  0  0  0  0  0  0
   -4.5199   -0.8042   -0.0257 C   0  0  0  0  0  0  0  0  0  0  0  0
   -1.5420   -0.3223   -1.0851 C   0  0  0  0  0  0  0  0  0  0  0  0
   -0.1589    0.0580   -1.6508 C   0  0  0  0  0  0  0  0  0  0  0  0
    3.6564   -0.3945   -0.2640 N   0  0  0  0  0  0  0  0  0  0  0  0
    4.9284   -0.1194    0.2630 C   0  0  0  0  0  0  0  0  0  0  0  0
    5.7964   -1.0986    0.7506 C   0  0  0  0  0  0  0  0  0  0  0  0
    7.0508   -0.7443    1.2603 C   0  0  0  0  0  0  0  0  0  0  0  0
    7.4394    0.5924    1.2815 C   0  0  0  0  0  0  0  0  0  0  0  0
    9.1332    1.0695    1.9699 Br  0  0  0  0  0  0  0  0  0  0  0  0
    6.5857    1.5791    0.7969 C   0  0  0  0  0  0  0  0  0  0  0  0
    5.3334    1.2216    0.2884 C   0  0  0  0  0  0  0  0  0  0  0  0
    0.9996   -2.3308   -0.7453 H   0  0  0  0  0  0  0  0  0  0  0  0
    1.8431   -1.5678   -2.1107 H   0  0  0  0  0  0  0  0  0  0  0  0
    0.2695   -1.1380    1.0393 H   0  0  0  0  0  0  0  0  0  0  0  0
    1.3921    0.1996    1.3067 H   0  0  0  0  0  0  0  0  0  0  0  0
   -0.9080    0.8083    2.0002 H   0  0  0  0  0  0  0  0  0  0  0  0
   -0.3970    1.8233    0.6447 H   0  0  0  0  0  0  0  0  0  0  0  0
   -5.6952    1.5247    0.7742 H   0  0  0  0  0  0  0  0  0  0  0  0
   -4.9732    2.5038   -0.5197 H   0  0  0  0  0  0  0  0  0  0  0  0
   -6.0123    1.0502   -2.2560 H   0  0  0  0  0  0  0  0  0  0  0  0
   -7.2629    1.6217   -1.1402 H   0  0  0  0  0  0  0  0  0  0  0  0
   -5.9525   -2.2425   -0.7781 H   0  0  0  0  0  0  0  0  0  0  0  0
   -5.2351   -1.2279   -2.0404 H   0  0  0  0  0  0  0  0  0  0  0  0
   -4.8965   -0.8747    1.0029 H   0  0  0  0  0  0  0  0  0  0  0  0
   -3.6616   -1.4739   -0.0961 H   0  0  0  0  0  0  0  0  0  0  0  0
   -1.5647   -1.3978   -0.8767 H   0  0  0  0  0  0  0  0  0  0  0  0
   -2.3114   -0.0984   -1.8307 H   0  0  0  0  0  0  0  0  0  0  0  0
   -0.0075   -0.4348   -2.6187 H   0  0  0  0  0  0  0  0  0  0  0  0
   -0.1660    1.1342   -1.8691 H   0  0  0  0  0  0  0  0  0  0  0  0
    3.0894    0.3923   -0.5723 H   0  0  0  0  0  0  0  0  0  0  0  0
    5.5281   -2.1506    0.7471 H   0  0  0  0  0  0  0  0  0  0  0  0
    7.7111   -1.5218    1.6355 H   0  0  0  0  0  0  0  0  0  0  0  0
    6.8818    2.6245    0.8094 H   0  0  0  0  0  0  0  0  0  0  0  0
    4.6803    2.0060   -0.0860 H   0  0  0  0  0  0  0  0  0  0  0  0
  1  2  2  0
  2  3  1  0
  3  4  1  0
  4  5  1  0
  5  6  1  0
  6  7  1  0
  7  8  1  0
  8  9  2  0
  8 10  1  0
 10 11  1  0
 11 12  1  0
 12 13  1  0
 13 14  1  0
 14 15  1  0
  7 16  1  0
 16 17  1  0
  2 18  1  0
 18 19  1  0
 19 20  2  0
 20 21  1  0
 21 22  2  0
 22 23  1  0
 22 24  1  0
 24 25  2  0
 17  4  1  0
 25 19  1  0
 15 10  1  0
  3 26  1  0
  3 27  1  0
  5 28  1  0
  5 29  1  0
  6 30  1  0
  6 31  1  0
 11 32  1  0
 11 33  1  0
 12 34  1  0
 12 35  1  0
 14 36  1  0
 14 37  1  0
 15 38  1  0
 15 39  1  0
 16 40  1  0
 16 41  1  0
 17 42  1  0
 17 43  1  0
 18 44  1  0
 20 45  1  0
 21 46  1  0
 24 47  1  0
 25 48  1  0
M  END
$$$$
