
     RDKit          3D

 57 60  0  0  0  0  0  0  0  0999 V2000
    5.8125    1.2825   -2.0508 C   0  0  0  0  0  0  0  0  0  0  0  0
    4.5741    0.8459   -1.5066 O   0  0  0  0  0  0  0  0  0  0  0  0
    4.5478    0.5233   -0.1739 C   0  0  0  0  0  0  0  0  0  0  0  0
    5.6673    0.5158    0.6640 C   0  0  0  0  0  0  0  0  0  0  0  0
    5.5418    0.1623    2.0099 C   0  0  0  0  0  0  0  0  0  0  0  0
    4.2993   -0.2023    2.5255 C   0  0  0  0  0  0  0  0  0  0  0  0
    3.1666   -0.2204    1.7003 C   0  0  0  0  0  0  0  0  0  0  0  0
    1.8762   -0.6311    2.3253 C   0  0  0  0  0  0  0  0  0  0  0  0
    1.7018   -0.4684    3.5292 O   0  0  0  0  0  0  0  0  0  0  0  0
    0.9330   -1.1892    1.4920 N   0  0  0  0  0  0  0  0  0  0  0  0
   -0.4423   -1.3625    1.9104 C   0  0  0  0  0  0  0  0  0  0  0  0
   -1.0701   -2.6581    1.3534 C   0  0  0  0  0  0  0  0  0  0  0  0
   -1.6514   -2.5769   -0.0931 C   0  0  0  0  0  0  0  0  0  0  0  0
   -2.4109   -3.8897   -0.3768 C   0  0  0  0  0  0  0  0  0  0  0  0
   -0.5335   -2.4545   -1.1482 C   0  0  0  0  0  0  0  0  0  0  0  0
   -2.6473   -1.3836   -0.2488 C   0  0  0  0  0  0  0  0  0  0  0  0
   -2.1488   -0.1554    0.4429 C   0  0  0  0  0  0  0  0  0  0  0  0
   -1.2077   -0.1689    1.4586 C   0  0  0  0  0  0  0  0  0  0  0  0
   -1.2129    1.1305    1.9777 C   0  0  0  0  0  0  0  0  0  0  0  0
   -2.0739    1.9211    1.3450 N   0  0  0  0  0  0  0  0  0  0  0  0
   -2.6188    1.1505    0.3550 N   0  0  0  0  0  0  0  0  0  0  0  0
   -3.5283    1.7680   -0.5541 C   0  0  0  0  0  0  0  0  0  0  0  0
   -4.1560    2.9691   -0.1689 C   0  0  0  0  0  0  0  0  0  0  0  0
   -5.0453    3.6245   -1.0247 C   0  0  0  0  0  0  0  0  0  0  0  0
   -5.3042    3.0975   -2.2841 C   0  0  0  0  0  0  0  0  0  0  0  0
   -4.6647    1.9274   -2.6743 C   0  0  0  0  0  0  0  0  0  0  0  0
   -4.8799    1.4402   -3.9031 F   0  0  0  0  0  0  0  0  0  0  0  0
   -3.7815    1.2599   -1.8281 C   0  0  0  0  0  0  0  0  0  0  0  0
    3.2911    0.1736    0.3572 C   0  0  0  0  0  0  0  0  0  0  0  0
    2.1851    0.1783   -0.4639 O   0  0  0  0  0  0  0  0  0  0  0  0
    1.6503    1.5042   -0.5614 C   0  0  0  0  0  0  0  0  0  0  0  0
    5.6483    1.5264   -3.1054 H   0  0  0  0  0  0  0  0  0  0  0  0
    6.5645    0.4880   -2.0061 H   0  0  0  0  0  0  0  0  0  0  0  0
    6.1643    2.1908   -1.5510 H   0  0  0  0  0  0  0  0  0  0  0  0
    6.6560    0.7792    0.3016 H   0  0  0  0  0  0  0  0  0  0  0  0
    6.4159    0.1646    2.6568 H   0  0  0  0  0  0  0  0  0  0  0  0
    4.2144   -0.4813    3.5743 H   0  0  0  0  0  0  0  0  0  0  0  0
    1.1228   -1.1207    0.4994 H   0  0  0  0  0  0  0  0  0  0  0  0
   -0.4705   -1.4179    3.0059 H   0  0  0  0  0  0  0  0  0  0  0  0
   -1.9028   -2.9203    2.0213 H   0  0  0  0  0  0  0  0  0  0  0  0
   -0.3508   -3.4830    1.4296 H   0  0  0  0  0  0  0  0  0  0  0  0
   -2.8481   -3.8856   -1.3814 H   0  0  0  0  0  0  0  0  0  0  0  0
   -1.7442   -4.7578   -0.3034 H   0  0  0  0  0  0  0  0  0  0  0  0
   -3.2288   -4.0363    0.3369 H   0  0  0  0  0  0  0  0  0  0  0  0
   -0.0682   -1.4663   -1.1468 H   0  0  0  0  0  0  0  0  0  0  0  0
    0.2483   -3.2063   -0.9907 H   0  0  0  0  0  0  0  0  0  0  0  0
   -0.9338   -2.6054   -2.1587 H   0  0  0  0  0  0  0  0  0  0  0  0
   -3.6112   -1.6464    0.2076 H   0  0  0  0  0  0  0  0  0  0  0  0
   -2.8274   -1.2350   -1.3110 H   0  0  0  0  0  0  0  0  0  0  0  0
   -0.6351    1.5288    2.8049 H   0  0  0  0  0  0  0  0  0  0  0  0
   -3.9675    3.4031    0.8117 H   0  0  0  0  0  0  0  0  0  0  0  0
   -5.5266    4.5455   -0.7057 H   0  0  0  0  0  0  0  0  0  0  0  0
   -5.9815    3.5978   -2.9687 H   0  0  0  0  0  0  0  0  0  0  0  0
   -3.2703    0.4032   -2.2393 H   0  0  0  0  0  0  0  0  0  0  0  0
    2.3105    2.1529   -1.1441 H   0  0  0  0  0  0  0  0  0  0  0  0
    0.6956    1.4355   -1.0906 H   0  0  0  0  0  0  0  0  0  0  0  0
    1.4568    1.9328    0.4260 H   0  0  0  0  0  0  0  0  0  0  0  0
  1  2  1  0
  2  3  1  0
  3  4  2  0
  4  5  1  0
  5  6  2  0
  6  7  1  0
  7  8  1  0
  8  9  2  0
  8 10  1  0
 10 11  1  0
 11 12  1  0
 12 13  1  0
 13 14  1  0
 13 15  1  0
 13 16  1  0
 16 17  1  0
 17 18  2  0
 18 19  1  0
 19 20  2  0
 20 21  1  0
 21 22  1  0
 22 23  2  0
 23 24  1  0
 24 25  2  0
 25 26  1  0
 26 27  1  0
 26 28  2  0
  7 29  2  0
 29 30  1  0
 30 31  1  0
 29  3  1  0
 18 11  1  0
 28 22  1  0
 21 17  1  0
  1 32  1  0
  1 33  1  0
  1 34  1  0
  4 35  1  0
  5 36  1  0
  6 37  1  0
 10 38  1  0
 11 39  1  0
 12 40  1  0
 12 41  1  0
 14 42  1  0
 14 43  1  0
 14 44  1  0
 15 45  1  0
 15 46  1  0
 15 47  1  0
 16 48  1  0
 16 49  1  0
 19 50  1  0
 23 51  1  0
 24 52  1  0
 25 53  1  0
 28 54  1  0
 31 55  1  0
 31 56  1  0
 31 57  1  0
M  END
$$$$
