
     RDKit          3D

 70 75  0  0  0  0  0  0  0  0999 V2000
   -0.6937   -6.8396   -0.9499 C   0  0  0  0  0  0  0  0  0  0  0  0
   -0.5482   -5.4481   -0.4103 C   0  0  0  0  0  0  0  0  0  0  0  0
   -1.2072   -5.0619    0.7602 C   0  0  0  0  0  0  0  0  0  0  0  0
   -1.0504   -3.7698    1.2679 C   0  0  0  0  0  0  0  0  0  0  0  0
   -0.2237   -2.8404    0.6199 C   0  0  0  0  0  0  0  0  0  0  0  0
   -0.0679   -1.4359    1.1669 C   0  0  0  0  0  0  0  0  0  0  0  0
   -1.1409   -0.5414    0.7362 N   0  0  0  0  0  0  0  0  0  0  0  0
   -2.2925   -0.4992    1.5326 C   0  0  0  0  0  0  0  0  0  0  0  0
   -2.3423   -0.9726    2.6710 O   0  0  0  0  0  0  0  0  0  0  0  0
   -3.4927    0.2768    0.9677 C   0  0  0  0  0  0  0  0  0  0  0  0
   -3.3890    1.7529    1.3898 C   0  0  0  0  0  0  0  0  0  0  0  0
   -4.6513    2.5364    1.1141 C   0  0  0  0  0  0  0  0  0  0  0  0
   -4.7794    3.2909   -0.0603 C   0  0  0  0  0  0  0  0  0  0  0  0
   -5.9537    3.9984   -0.3199 C   0  0  0  0  0  0  0  0  0  0  0  0
   -7.0088    3.9581    0.5894 C   0  0  0  0  0  0  0  0  0  0  0  0
   -6.8924    3.2088    1.7590 C   0  0  0  0  0  0  0  0  0  0  0  0
   -5.7200    2.4990    2.0205 C   0  0  0  0  0  0  0  0  0  0  0  0
   -3.5931    0.1021   -0.4825 N   0  0  0  0  0  0  0  0  0  0  0  0
   -2.4045    0.3205   -1.1738 C   0  0  0  0  0  0  0  0  0  0  0  0
   -2.5571    0.8039   -2.4139 N   0  0  0  0  0  0  0  0  0  0  0  0
   -1.4340    0.9735   -3.1099 C   0  0  0  0  0  0  0  0  0  0  0  0
   -0.1916    0.7686   -2.6611 N   0  0  0  0  0  0  0  0  0  0  0  0
   -0.0490    0.3275   -1.3923 C   0  0  0  0  0  0  0  0  0  0  0  0
    1.2649    0.3086   -0.8701 N   0  0  0  0  0  0  0  0  0  0  0  0
    1.5029    1.5109   -0.0234 C   0  0  0  0  0  0  0  0  0  0  0  0
    2.8971    1.4277    0.6444 C   0  0  0  0  0  0  0  0  0  0  0  0
    3.9624    1.2630   -0.3710 N   0  0  0  0  0  0  0  0  0  0  0  0
    5.2977    1.3560    0.0569 C   0  0  0  0  0  0  0  0  0  0  0  0
    5.6943    1.2535    1.3979 C   0  0  0  0  0  0  0  0  0  0  0  0
    7.0406    1.3563    1.7713 C   0  0  0  0  0  0  0  0  0  0  0  0
    8.0202    1.5760    0.8086 C   0  0  0  0  0  0  0  0  0  0  0  0
    7.6532    1.6959   -0.5265 C   0  0  0  0  0  0  0  0  0  0  0  0
    6.3076    1.5885   -0.8928 C   0  0  0  0  0  0  0  0  0  0  0  0
    3.7143    0.1019   -1.2694 C   0  0  0  0  0  0  0  0  0  0  0  0
    2.3135    0.2013   -1.9187 C   0  0  0  0  0  0  0  0  0  0  0  0
   -1.1649    0.0160   -0.5960 C   0  0  0  0  0  0  0  0  0  0  0  0
    0.4392   -3.2334   -0.5496 C   0  0  0  0  0  0  0  0  0  0  0  0
    0.2826   -4.5259   -1.0570 C   0  0  0  0  0  0  0  0  0  0  0  0
    0.2047   -7.4237   -0.7261 H   0  0  0  0  0  0  0  0  0  0  0  0
   -1.5569   -7.3495   -0.5084 H   0  0  0  0  0  0  0  0  0  0  0  0
   -0.8470   -6.8159   -2.0341 H   0  0  0  0  0  0  0  0  0  0  0  0
   -1.8519   -5.7618    1.2874 H   0  0  0  0  0  0  0  0  0  0  0  0
   -1.5813   -3.4920    2.1768 H   0  0  0  0  0  0  0  0  0  0  0  0
   -0.0714   -1.4985    2.2633 H   0  0  0  0  0  0  0  0  0  0  0  0
    0.9230   -1.0461    0.9425 H   0  0  0  0  0  0  0  0  0  0  0  0
   -4.3916   -0.1773    1.4046 H   0  0  0  0  0  0  0  0  0  0  0  0
   -3.1700    1.8177    2.4644 H   0  0  0  0  0  0  0  0  0  0  0  0
   -2.5406    2.2493    0.9006 H   0  0  0  0  0  0  0  0  0  0  0  0
   -3.9666    3.3291   -0.7838 H   0  0  0  0  0  0  0  0  0  0  0  0
   -6.0461    4.5809   -1.2332 H   0  0  0  0  0  0  0  0  0  0  0  0
   -7.9234    4.5087    0.3856 H   0  0  0  0  0  0  0  0  0  0  0  0
   -7.7158    3.1772    2.4680 H   0  0  0  0  0  0  0  0  0  0  0  0
   -5.6465    1.9183    2.9378 H   0  0  0  0  0  0  0  0  0  0  0  0
   -4.3651    0.5661   -0.9518 H   0  0  0  0  0  0  0  0  0  0  0  0
   -1.5350    1.3277   -4.1302 H   0  0  0  0  0  0  0  0  0  0  0  0
    1.4440    2.4215   -0.6357 H   0  0  0  0  0  0  0  0  0  0  0  0
    0.7499    1.5909    0.7695 H   0  0  0  0  0  0  0  0  0  0  0  0
    2.9035    0.5780    1.3393 H   0  0  0  0  0  0  0  0  0  0  0  0
    3.0573    2.3497    1.2164 H   0  0  0  0  0  0  0  0  0  0  0  0
    4.9701    1.0714    2.1851 H   0  0  0  0  0  0  0  0  0  0  0  0
    7.3188    1.2622    2.8177 H   0  0  0  0  0  0  0  0  0  0  0  0
    9.0646    1.6581    1.0982 H   0  0  0  0  0  0  0  0  0  0  0  0
    8.4077    1.8800   -1.2868 H   0  0  0  0  0  0  0  0  0  0  0  0
    6.0441    1.7149   -1.9403 H   0  0  0  0  0  0  0  0  0  0  0  0
    4.4541    0.0474   -2.0762 H   0  0  0  0  0  0  0  0  0  0  0  0
    3.7828   -0.8279   -0.6879 H   0  0  0  0  0  0  0  0  0  0  0  0
    2.2980    1.0782   -2.5804 H   0  0  0  0  0  0  0  0  0  0  0  0
    2.1470   -0.6961   -2.5273 H   0  0  0  0  0  0  0  0  0  0  0  0
    1.0850   -2.5353   -1.0761 H   0  0  0  0  0  0  0  0  0  0  0  0
    0.8124   -4.8077   -1.9636 H   0  0  0  0  0  0  0  0  0  0  0  0
  1  2  1  0
  2  3  2  0
  3  4  1  0
  4  5  2  0
  5  6  1  0
  6  7  1  0
  7  8  1  0
  8  9  2  0
  8 10  1  0
 10 11  1  0
 11 12  1  0
 12 13  2  0
 13 14  1  0
 14 15  2  0
 15 16  1  0
 16 17  2  0
 10 18  1  0
 18 19  1  0
 19 20  2  0
 20 21  1  0
 21 22  2  0
 22 23  1  0
 23 24  1  0
 24 25  1  0
 25 26  1  0
 26 27  1  0
 27 28  1  0
 28 29  2  0
 29 30  1  0
 30 31  2  0
 31 32  1  0
 32 33  2  0
 27 34  1  0
 34 35  1  0
 23 36  2  0
  5 37  1  0
 37 38  2  0
 38  2  1  0
 36  7  1  0
 17 12  1  0
 36 19  1  0
 35 24  1  0
 33 28  1  0
  1 39  1  0
  1 40  1  0
  1 41  1  0
  3 42  1  0
  4 43  1  0
  6 44  1  0
  6 45  1  0
 10 46  1  0
 11 47  1  0
 11 48  1  0
 13 49  1  0
 14 50  1  0
 15 51  1  0
 16 52  1  0
 17 53  1  0
 18 54  1  0
 21 55  1  0
 25 56  1  0
 25 57  1  0
 26 58  1  0
 26 59  1  0
 29 60  1  0
 30 61  1  0
 31 62  1  0
 32 63  1  0
 33 64  1  0
 34 65  1  0
 34 66  1  0
 35 67  1  0
 35 68  1  0
 37 69  1  0
 38 70  1  0
M  END
$$$$
