
     RDKit          3D

 43 46  0  0  0  0  0  0  0  0999 V2000
    3.8929   -2.7282   -1.0828 O   0  0  0  0  0  0  0  0  0  0  0  0
    2.9153   -2.1897   -0.6117 C   0  0  0  0  0  0  0  0  0  0  0  0
    2.7385   -0.7854   -0.1597 C   0  0  0  0  0  0  0  0  0  0  0  0
    3.7150    0.1261   -0.2412 C   0  0  0  0  0  0  0  0  0  0  0  0
    3.5832    1.4841    0.1601 C   0  0  0  0  0  0  0  0  0  0  0  0
    2.4788    2.2470    0.5319 C   0  0  0  0  0  0  0  0  0  0  0  0
    2.9247    3.5578    0.8272 C   0  0  0  0  0  0  0  0  0  0  0  0
    4.2783    3.5454    0.6200 C   0  0  0  0  0  0  0  0  0  0  0  0
    4.6825    2.3177    0.2184 O   0  0  0  0  0  0  0  0  0  0  0  0
    1.4576   -0.5901    0.3349 O   0  0  0  0  0  0  0  0  0  0  0  0
    0.8014   -1.7937    0.1981 C   0  0  0  0  0  0  0  0  0  0  0  0
    1.6101   -2.7850   -0.3538 C   0  0  0  0  0  0  0  0  0  0  0  0
    1.1626   -4.0699   -0.5796 C   0  0  0  0  0  0  0  0  0  0  0  0
   -0.1594   -4.3510   -0.2283 C   0  0  0  0  0  0  0  0  0  0  0  0
   -0.9810   -3.3481    0.3294 C   0  0  0  0  0  0  0  0  0  0  0  0
   -2.2722   -3.6528    0.6650 O   0  0  0  0  0  0  0  0  0  0  0  0
   -0.5171   -2.0408    0.5521 C   0  0  0  0  0  0  0  0  0  0  0  0
   -1.3764   -0.9566    1.1535 C   0  0  0  0  0  0  0  0  0  0  0  0
   -1.5615    0.2054    0.2603 N   0  0  0  0  0  0  0  0  0  0  0  0
   -2.1024    1.3424    1.0200 C   0  0  0  0  0  0  0  0  0  0  0  0
   -2.2417    2.5821    0.1357 C   0  0  0  0  0  0  0  0  0  0  0  0
   -3.1047    2.2954   -1.0868 C   0  0  0  0  0  0  0  0  0  0  0  0
   -2.5924    1.0624   -1.8211 C   0  0  0  0  0  0  0  0  0  0  0  0
   -2.4392   -0.1292   -0.8735 C   0  0  0  0  0  0  0  0  0  0  0  0
    4.6842   -0.1709   -0.6345 H   0  0  0  0  0  0  0  0  0  0  0  0
    1.4550    1.9003    0.5776 H   0  0  0  0  0  0  0  0  0  0  0  0
    2.3304    4.4021    1.1453 H   0  0  0  0  0  0  0  0  0  0  0  0
    5.0579    4.2892    0.7058 H   0  0  0  0  0  0  0  0  0  0  0  0
    1.8133   -4.8229   -1.0113 H   0  0  0  0  0  0  0  0  0  0  0  0
   -0.5418   -5.3551   -0.3929 H   0  0  0  0  0  0  0  0  0  0  0  0
   -2.4492   -4.5826    0.4446 H   0  0  0  0  0  0  0  0  0  0  0  0
   -2.3486   -1.3459    1.4803 H   0  0  0  0  0  0  0  0  0  0  0  0
   -0.8633   -0.6382    2.0717 H   0  0  0  0  0  0  0  0  0  0  0  0
   -3.0760    1.0906    1.4608 H   0  0  0  0  0  0  0  0  0  0  0  0
   -1.4256    1.5936    1.8458 H   0  0  0  0  0  0  0  0  0  0  0  0
   -1.2476    2.9161   -0.1880 H   0  0  0  0  0  0  0  0  0  0  0  0
   -2.6813    3.4023    0.7144 H   0  0  0  0  0  0  0  0  0  0  0  0
   -4.1422    2.1294   -0.7721 H   0  0  0  0  0  0  0  0  0  0  0  0
   -3.1059    3.1607   -1.7586 H   0  0  0  0  0  0  0  0  0  0  0  0
   -1.6236    1.2891   -2.2845 H   0  0  0  0  0  0  0  0  0  0  0  0
   -3.2816    0.8033   -2.6326 H   0  0  0  0  0  0  0  0  0  0  0  0
   -2.0185   -0.9584   -1.4536 H   0  0  0  0  0  0  0  0  0  0  0  0
   -3.4287   -0.4480   -0.5202 H   0  0  0  0  0  0  0  0  0  0  0  0
  1  2  2  0
  2  3  1  0
  3  4  2  3
  4  5  1  0
  5  6  2  0
  6  7  1  0
  7  8  2  0
  8  9  1  0
  3 10  1  0
 10 11  1  0
 11 12  2  0
 12 13  1  0
 13 14  2  0
 14 15  1  0
 15 16  1  0
 15 17  2  0
 17 18  1  0
 18 19  1  0
 19 20  1  0
 20 21  1  0
 21 22  1  0
 22 23  1  0
 23 24  1  0
 12  2  1  0
 24 19  1  0
  9  5  1  0
 17 11  1  0
  4 25  1  0
  6 26  1  0
  7 27  1  0
  8 28  1  0
 13 29  1  0
 14 30  1  0
 16 31  1  0
 18 32  1  0
 18 33  1  0
 20 34  1  0
 20 35  1  0
 21 36  1  0
 21 37  1  0
 22 38  1  0
 22 39  1  0
 23 40  1  0
 23 41  1  0
 24 42  1  0
 24 43  1  0
M  END
$$$$
