
     RDKit          3D

 31 33  0  0  0  0  0  0  0  0999 V2000
   -0.5386    3.6329    0.4078 C   0  0  0  0  0  0  0  0  0  0  0  0
   -0.9301    2.1847    0.2896 C   0  0  0  0  0  0  0  0  0  0  0  0
   -2.1634    1.8440    0.5036 N   0  0  0  0  0  0  0  0  0  0  0  0
   -2.5220    0.4841    0.3886 C   0  0  0  0  0  0  0  0  0  0  0  0
   -3.8576    0.1440    0.6210 C   0  0  0  0  0  0  0  0  0  0  0  0
   -4.2844   -1.1811    0.5235 C   0  0  0  0  0  0  0  0  0  0  0  0
   -3.3737   -2.1816    0.1903 C   0  0  0  0  0  0  0  0  0  0  0  0
   -2.0340   -1.8642   -0.0459 C   0  0  0  0  0  0  0  0  0  0  0  0
   -1.6099   -0.5358    0.0545 C   0  0  0  0  0  0  0  0  0  0  0  0
   -0.2723   -0.1253   -0.1682 N   0  0  0  0  0  0  0  0  0  0  0  0
    0.8694   -0.8495   -0.4924 C   0  0  0  0  0  0  0  0  0  0  0  0
    0.8434   -2.1736   -0.6276 O   0  0  0  0  0  0  0  0  0  0  0  0
    1.9312    0.0393   -0.6243 C   0  0  0  0  0  0  0  0  0  0  0  0
    3.3517   -0.2205   -1.0396 C   0  0  0  0  0  0  0  0  0  0  0  0
    3.9802   -1.4442   -0.4233 C   0  0  0  0  0  0  0  0  0  0  0  0
    3.4380   -2.5195   -0.2116 O   0  0  0  0  0  0  0  0  0  0  0  0
    5.2944   -1.2848   -0.1668 O   0  0  0  0  0  0  0  0  0  0  0  0
    1.4119    1.3345   -0.3371 C   0  0  0  0  0  0  0  0  0  0  0  0
    0.0692    1.2064   -0.0580 C   0  0  0  0  0  0  0  0  0  0  0  0
    0.2306    3.7464    1.1771 H   0  0  0  0  0  0  0  0  0  0  0  0
   -1.4042    4.2426    0.6823 H   0  0  0  0  0  0  0  0  0  0  0  0
   -0.1462    3.9887   -0.5492 H   0  0  0  0  0  0  0  0  0  0  0  0
   -4.5686    0.9243    0.8799 H   0  0  0  0  0  0  0  0  0  0  0  0
   -5.3262   -1.4300    0.7067 H   0  0  0  0  0  0  0  0  0  0  0  0
   -3.7056   -3.2142    0.1127 H   0  0  0  0  0  0  0  0  0  0  0  0
   -1.3569   -2.6700   -0.3057 H   0  0  0  0  0  0  0  0  0  0  0  0
    1.7622   -2.5141   -0.5710 H   0  0  0  0  0  0  0  0  0  0  0  0
    3.9628    0.6499   -0.7694 H   0  0  0  0  0  0  0  0  0  0  0  0
    3.4002   -0.3324   -2.1286 H   0  0  0  0  0  0  0  0  0  0  0  0
    5.5817   -2.1455    0.2053 H   0  0  0  0  0  0  0  0  0  0  0  0
    1.9672    2.2648   -0.3491 H   0  0  0  0  0  0  0  0  0  0  0  0
  1  2  1  0
  2  3  2  0
  3  4  1  0
  4  5  2  0
  5  6  1  0
  6  7  2  0
  7  8  1  0
  8  9  2  0
  9 10  1  0
 10 11  1  0
 11 12  1  0
 11 13  2  0
 13 14  1  0
 14 15  1  0
 15 16  2  0
 15 17  1  0
 13 18  1  0
 18 19  2  0
 19  2  1  0
  9  4  1  0
 19 10  1  0
  1 20  1  0
  1 21  1  0
  1 22  1  0
  5 23  1  0
  6 24  1  0
  7 25  1  0
  8 26  1  0
 12 27  1  0
 14 28  1  0
 14 29  1  0
 17 30  1  0
 18 31  1  0
M  END
$$$$
