
     RDKit          3D

 36 37  0  0  0  0  0  0  0  0999 V2000
    5.6685   -0.9722   -2.5643 C   0  0  0  0  0  0  0  0  0  0  0  0
    5.2320   -0.9444   -1.2106 O   0  0  0  0  0  0  0  0  0  0  0  0
    3.8973   -0.7332   -0.9959 C   0  0  0  0  0  0  0  0  0  0  0  0
    2.9226   -0.5930   -1.9807 C   0  0  0  0  0  0  0  0  0  0  0  0
    1.5847   -0.3805   -1.6262 C   0  0  0  0  0  0  0  0  0  0  0  0
    1.2110   -0.2883   -0.2862 C   0  0  0  0  0  0  0  0  0  0  0  0
   -0.1191   -0.0983    0.1595 N   0  0  0  0  0  0  0  0  0  0  0  0
   -1.2552    0.4377   -0.4495 C   0  0  0  0  0  0  0  0  0  0  0  0
   -1.2885    1.3322   -1.8618 S   0  0  0  0  0  0  0  0  0  0  0  0
   -2.3613    0.0801    0.3291 N   0  0  0  0  0  0  0  0  0  0  0  0
   -3.6888    0.5611    0.3591 C   0  0  0  0  0  0  0  0  0  0  0  0
   -4.0813    1.8261   -0.0791 C   0  0  0  0  0  0  0  0  0  0  0  0
   -5.4176    2.2303    0.0174 C   0  0  0  0  0  0  0  0  0  0  0  0
   -6.3714    1.3789    0.5685 C   0  0  0  0  0  0  0  0  0  0  0  0
   -5.9879    0.1254    1.0348 C   0  0  0  0  0  0  0  0  0  0  0  0
   -4.6528   -0.2765    0.9381 C   0  0  0  0  0  0  0  0  0  0  0  0
    2.1925   -0.4615    0.7134 C   0  0  0  0  0  0  0  0  0  0  0  0
    1.7298   -0.4031    2.0100 O   0  0  0  0  0  0  0  0  0  0  0  0
    2.7000   -0.5100    3.0458 C   0  0  0  0  0  0  0  0  0  0  0  0
    3.5261   -0.6741    0.3505 C   0  0  0  0  0  0  0  0  0  0  0  0
    6.7524   -1.1223   -2.5626 H   0  0  0  0  0  0  0  0  0  0  0  0
    5.4649   -0.0202   -3.0655 H   0  0  0  0  0  0  0  0  0  0  0  0
    5.2175   -1.8099   -3.1061 H   0  0  0  0  0  0  0  0  0  0  0  0
    3.1613   -0.6527   -3.0377 H   0  0  0  0  0  0  0  0  0  0  0  0
    0.8562   -0.3251   -2.4271 H   0  0  0  0  0  0  0  0  0  0  0  0
   -0.1887   -0.1641    1.1717 H   0  0  0  0  0  0  0  0  0  0  0  0
   -2.2174   -0.7898    0.8267 H   0  0  0  0  0  0  0  0  0  0  0  0
   -3.3679    2.5425   -0.4703 H   0  0  0  0  0  0  0  0  0  0  0  0
   -5.7074    3.2179   -0.3334 H   0  0  0  0  0  0  0  0  0  0  0  0
   -7.4082    1.6962    0.6409 H   0  0  0  0  0  0  0  0  0  0  0  0
   -6.7261   -0.5411    1.4728 H   0  0  0  0  0  0  0  0  0  0  0  0
   -4.3824   -1.2621    1.3082 H   0  0  0  0  0  0  0  0  0  0  0  0
    3.4314    0.3029    2.9885 H   0  0  0  0  0  0  0  0  0  0  0  0
    2.1769   -0.4191    4.0026 H   0  0  0  0  0  0  0  0  0  0  0  0
    3.1898   -1.4892    3.0269 H   0  0  0  0  0  0  0  0  0  0  0  0
    4.3070   -0.8007    1.0926 H   0  0  0  0  0  0  0  0  0  0  0  0
  1  2  1  0
  2  3  1  0
  3  4  2  0
  4  5  1  0
  5  6  2  0
  6  7  1  0
  7  8  1  0
  8  9  2  0
  8 10  1  0
 10 11  1  0
 11 12  2  0
 12 13  1  0
 13 14  2  0
 14 15  1  0
 15 16  2  0
  6 17  1  0
 17 18  1  0
 18 19  1  0
 17 20  2  0
 20  3  1  0
 16 11  1  0
  1 21  1  0
  1 22  1  0
  1 23  1  0
  4 24  1  0
  5 25  1  0
  7 26  1  0
 10 27  1  0
 12 28  1  0
 13 29  1  0
 14 30  1  0
 15 31  1  0
 16 32  1  0
 19 33  1  0
 19 34  1  0
 19 35  1  0
 20 36  1  0
M  END
$$$$
