
     RDKit          3D

 35 36  0  0  0  0  0  0  0  0999 V2000
   -5.9543   -0.0848   -0.0439 C   0  0  0  0  0  0  0  0  0  0  0  0
   -4.4564   -0.1577   -0.0459 C   0  0  0  0  0  0  0  0  0  0  0  0
   -3.8030   -1.3060   -0.4996 C   0  0  0  0  0  0  0  0  0  0  0  0
   -2.4063   -1.3617   -0.5278 C   0  0  0  0  0  0  0  0  0  0  0  0
   -1.6331   -0.2587   -0.1271 C   0  0  0  0  0  0  0  0  0  0  0  0
   -0.2068   -0.3650   -0.1701 N   0  0  0  0  0  0  0  0  0  0  0  0
    0.3464   -1.5973   -0.2677 N   0  0  0  0  0  0  0  0  0  0  0  0
    1.6580   -1.4281   -0.0779 C   0  0  0  0  0  0  0  0  0  0  0  0
    2.5097   -2.6433   -0.0514 C   0  0  0  0  0  0  0  0  0  0  0  0
    1.9892   -0.0544    0.0280 C   0  0  0  0  0  0  0  0  0  0  0  0
    3.1818    0.6321    0.2017 N   0  0  0  0  0  0  0  0  0  0  0  0
    4.4383    0.1160    0.4334 C   0  0  0  0  0  0  0  0  0  0  0  0
    4.7254   -1.0749    0.5211 O   0  0  0  0  0  0  0  0  0  0  0  0
    5.5466    1.1554    0.5311 C   0  0  0  0  0  0  0  0  0  0  0  0
    4.9332    2.7945    0.8594 Cl  0  0  0  0  0  0  0  0  0  0  0  0
    0.7818    0.6145   -0.1304 C   0  0  0  0  0  0  0  0  0  0  0  0
    0.5350    2.0737   -0.2894 C   0  0  0  0  0  0  0  0  0  0  0  0
   -2.2905    0.8857    0.3360 C   0  0  0  0  0  0  0  0  0  0  0  0
   -3.6902    0.9377    0.3645 C   0  0  0  0  0  0  0  0  0  0  0  0
   -6.3937   -1.0741    0.1216 H   0  0  0  0  0  0  0  0  0  0  0  0
   -6.3126    0.5676    0.7594 H   0  0  0  0  0  0  0  0  0  0  0  0
   -6.3110    0.3051   -1.0021 H   0  0  0  0  0  0  0  0  0  0  0  0
   -4.3733   -2.1707   -0.8322 H   0  0  0  0  0  0  0  0  0  0  0  0
   -1.9320   -2.2760   -0.8822 H   0  0  0  0  0  0  0  0  0  0  0  0
    2.9671   -2.7742    0.9336 H   0  0  0  0  0  0  0  0  0  0  0  0
    3.2864   -2.5914   -0.8200 H   0  0  0  0  0  0  0  0  0  0  0  0
    1.9216   -3.5460   -0.2538 H   0  0  0  0  0  0  0  0  0  0  0  0
    3.1125    1.6437    0.2350 H   0  0  0  0  0  0  0  0  0  0  0  0
    6.2189    0.8857    1.3498 H   0  0  0  0  0  0  0  0  0  0  0  0
    6.0982    1.1786   -0.4124 H   0  0  0  0  0  0  0  0  0  0  0  0
    1.4077    2.5740   -0.7225 H   0  0  0  0  0  0  0  0  0  0  0  0
    0.3366    2.5409    0.6797 H   0  0  0  0  0  0  0  0  0  0  0  0
   -0.2933    2.2754   -0.9751 H   0  0  0  0  0  0  0  0  0  0  0  0
   -1.7585    1.7435    0.7273 H   0  0  0  0  0  0  0  0  0  0  0  0
   -4.1795    1.8401    0.7261 H   0  0  0  0  0  0  0  0  0  0  0  0
  1  2  1  0
  2  3  2  0
  3  4  1  0
  4  5  2  0
  5  6  1  0
  6  7  1  0
  7  8  2  0
  8  9  1  0
  8 10  1  0
 10 11  1  0
 11 12  1  0
 12 13  2  0
 12 14  1  0
 14 15  1  0
 10 16  2  0
 16 17  1  0
  5 18  1  0
 18 19  2  0
 19  2  1  0
 16  6  1  0
  1 20  1  0
  1 21  1  0
  1 22  1  0
  3 23  1  0
  4 24  1  0
  9 25  1  0
  9 26  1  0
  9 27  1  0
 11 28  1  0
 14 29  1  0
 14 30  1  0
 17 31  1  0
 17 32  1  0
 17 33  1  0
 18 34  1  0
 19 35  1  0
M  END
$$$$
