
     RDKit          3D

 54 57  0  0  0  0  0  0  0  0999 V2000
   -5.1111   -0.6600    0.5438 C   0  0  0  0  0  0  0  0  0  0  0  0
   -4.6200    0.3234    1.6103 C   0  0  0  0  0  0  0  0  0  0  0  0
   -5.3304   -0.0004    2.9431 C   0  0  0  0  0  0  0  0  0  0  0  0
   -4.6773    0.7076    4.1218 C   0  0  0  0  0  0  0  0  0  0  0  0
   -3.2285    0.2663    4.3221 C   0  0  0  0  0  0  0  0  0  0  0  0
   -2.5757   -0.2854    3.0531 C   0  0  0  0  0  0  0  0  0  0  0  0
   -3.0768    0.4022    1.7768 C   0  0  0  0  0  0  0  0  0  0  0  0
   -2.6448    1.7934    1.7489 N   0  0  0  0  0  0  0  0  0  0  0  0
   -1.6896    2.0390    0.7932 C   0  0  0  0  0  0  0  0  0  0  0  0
   -1.1278    3.1114    0.6481 O   0  0  0  0  0  0  0  0  0  0  0  0
   -1.5043    0.9063    0.0709 N   0  0  0  0  0  0  0  0  0  0  0  0
   -0.4995    0.7552   -0.9517 C   0  0  0  0  0  0  0  0  0  0  0  0
    0.8241    0.3272   -0.3142 C   0  0  0  0  0  0  0  0  0  0  0  0
    0.9733    0.1353    0.8901 O   0  0  0  0  0  0  0  0  0  0  0  0
    1.8456    0.1735   -1.2281 N   0  0  0  0  0  0  0  0  0  0  0  0
    3.1742   -0.2728   -0.8335 C   0  0  0  0  0  0  0  0  0  0  0  0
    3.2056   -1.7943   -0.6170 C   0  0  0  0  0  0  0  0  0  0  0  0
    3.1858   -2.5389   -1.9483 C   0  0  0  0  0  0  0  0  0  0  0  0
    4.4237   -2.1944   -2.7719 C   0  0  0  0  0  0  0  0  0  0  0  0
    4.7209   -0.7156   -2.8198 C   0  0  0  0  0  0  0  0  0  0  0  0
    5.6196   -0.2371   -3.7859 C   0  0  0  0  0  0  0  0  0  0  0  0
    5.9557    1.1153   -3.8386 C   0  0  0  0  0  0  0  0  0  0  0  0
    5.4048    2.0050   -2.9217 C   0  0  0  0  0  0  0  0  0  0  0  0
    4.5183    1.5419   -1.9507 C   0  0  0  0  0  0  0  0  0  0  0  0
    4.1720    0.1808   -1.8827 C   0  0  0  0  0  0  0  0  0  0  0  0
   -2.2465   -0.1210    0.5788 C   0  0  0  0  0  0  0  0  0  0  0  0
   -2.2294   -1.2760    0.1712 O   0  0  0  0  0  0  0  0  0  0  0  0
   -4.7939   -1.6840    0.7663 H   0  0  0  0  0  0  0  0  0  0  0  0
   -4.7429   -0.3844   -0.4496 H   0  0  0  0  0  0  0  0  0  0  0  0
   -6.2057   -0.6563    0.4922 H   0  0  0  0  0  0  0  0  0  0  0  0
   -4.9805    1.3138    1.2957 H   0  0  0  0  0  0  0  0  0  0  0  0
   -5.3253   -1.0828    3.1264 H   0  0  0  0  0  0  0  0  0  0  0  0
   -6.3837    0.2983    2.8749 H   0  0  0  0  0  0  0  0  0  0  0  0
   -4.7104    1.7915    3.9551 H   0  0  0  0  0  0  0  0  0  0  0  0
   -5.2473    0.5200    5.0390 H   0  0  0  0  0  0  0  0  0  0  0  0
   -3.1814   -0.5039    5.1016 H   0  0  0  0  0  0  0  0  0  0  0  0
   -2.6487    1.1164    4.7021 H   0  0  0  0  0  0  0  0  0  0  0  0
   -2.7885   -1.3610    2.9847 H   0  0  0  0  0  0  0  0  0  0  0  0
   -1.4848   -0.2057    3.1482 H   0  0  0  0  0  0  0  0  0  0  0  0
   -2.8570    2.4942    2.4467 H   0  0  0  0  0  0  0  0  0  0  0  0
   -0.3520    1.7098   -1.4667 H   0  0  0  0  0  0  0  0  0  0  0  0
   -0.8136   -0.0150   -1.6633 H   0  0  0  0  0  0  0  0  0  0  0  0
    1.6601    0.2648   -2.2185 H   0  0  0  0  0  0  0  0  0  0  0  0
    3.4214    0.2037    0.1241 H   0  0  0  0  0  0  0  0  0  0  0  0
    2.3593   -2.1190   -0.0008 H   0  0  0  0  0  0  0  0  0  0  0  0
    4.1187   -2.0662   -0.0712 H   0  0  0  0  0  0  0  0  0  0  0  0
    2.2790   -2.2794   -2.5085 H   0  0  0  0  0  0  0  0  0  0  0  0
    3.1522   -3.6203   -1.7737 H   0  0  0  0  0  0  0  0  0  0  0  0
    5.2965   -2.7002   -2.3400 H   0  0  0  0  0  0  0  0  0  0  0  0
    4.2880   -2.5810   -3.7891 H   0  0  0  0  0  0  0  0  0  0  0  0
    6.0676   -0.9217   -4.5034 H   0  0  0  0  0  0  0  0  0  0  0  0
    6.6520    1.4731   -4.5925 H   0  0  0  0  0  0  0  0  0  0  0  0
    5.6665    3.0592   -2.9603 H   0  0  0  0  0  0  0  0  0  0  0  0
    4.0922    2.2484   -1.2402 H   0  0  0  0  0  0  0  0  0  0  0  0
  1  2  1  0
  2  3  1  0
  3  4  1  0
  4  5  1  0
  5  6  1  0
  6  7  1  0
  7  8  1  0
  8  9  1  0
  9 10  2  0
  9 11  1  0
 11 12  1  0
 12 13  1  0
 13 14  2  0
 13 15  1  0
 15 16  1  0
 16 17  1  0
 17 18  1  0
 18 19  1  0
 19 20  1  0
 20 21  2  0
 21 22  1  0
 22 23  2  0
 23 24  1  0
 24 25  2  0
 11 26  1  0
 26 27  2  0
  7  2  1  0
 25 16  1  0
 26  7  1  0
 25 20  1  0
  1 28  1  0
  1 29  1  0
  1 30  1  0
  2 31  1  0
  3 32  1  0
  3 33  1  0
  4 34  1  0
  4 35  1  0
  5 36  1  0
  5 37  1  0
  6 38  1  0
  6 39  1  0
  8 40  1  0
 12 41  1  0
 12 42  1  0
 15 43  1  0
 16 44  1  0
 17 45  1  0
 17 46  1  0
 18 47  1  0
 18 48  1  0
 19 49  1  0
 19 50  1  0
 21 51  1  0
 22 52  1  0
 23 53  1  0
 24 54  1  0
M  END
$$$$
