
     RDKit          3D

 44 46  0  0  0  0  0  0  0  0999 V2000
    8.9867   -0.0245   -0.0020 C   0  0  0  0  0  0  0  0  0  0  0  0
    8.0274   -1.0692    0.0913 O   0  0  0  0  0  0  0  0  0  0  0  0
    6.7098   -0.7048    0.1075 C   0  0  0  0  0  0  0  0  0  0  0  0
    6.2152    0.5952    0.0091 C   0  0  0  0  0  0  0  0  0  0  0  0
    4.8334    0.8351    0.0326 C   0  0  0  0  0  0  0  0  0  0  0  0
    3.9298   -0.2237    0.1539 C   0  0  0  0  0  0  0  0  0  0  0  0
    2.5668   -0.0875    0.1785 O   0  0  0  0  0  0  0  0  0  0  0  0
    2.0216    1.2170   -0.0029 C   0  0  0  0  0  0  0  0  0  0  0  0
    0.5492    1.0644   -0.0152 C   0  0  0  0  0  0  0  0  0  0  0  0
   -0.3521    0.3450    0.7299 C   0  0  0  0  0  0  0  0  0  0  0  0
   -1.6214    0.6650    0.1780 C   0  0  0  0  0  0  0  0  0  0  0  0
   -2.9237    0.1781    0.6584 C   0  0  0  0  0  0  0  0  0  0  0  0
   -3.0379   -0.2165    1.8208 O   0  0  0  0  0  0  0  0  0  0  0  0
   -4.0335    0.2003   -0.2035 N   0  0  0  0  0  0  0  0  0  0  0  0
   -3.9035    0.1336   -1.6561 C   0  0  0  0  0  0  0  0  0  0  0  0
   -5.3500   -0.0214    0.3996 C   0  0  0  0  0  0  0  0  0  0  0  0
   -6.5470    0.5399   -0.3461 C   0  0  0  0  0  0  0  0  0  0  0  0
   -7.6781   -0.2550    0.2667 C   0  0  0  0  0  0  0  0  0  0  0  0
   -7.1661   -1.5763    0.4793 O   0  0  0  0  0  0  0  0  0  0  0  0
   -5.7314   -1.4930    0.5710 C   0  0  0  0  0  0  0  0  0  0  0  0
   -1.4825    1.5634   -0.8145 N   0  0  0  0  0  0  0  0  0  0  0  0
   -0.1272    1.7937   -0.9412 O   0  0  0  0  0  0  0  0  0  0  0  0
    4.4369   -1.5287    0.2616 C   0  0  0  0  0  0  0  0  0  0  0  0
    3.3833   -2.8908    0.4257 Cl  0  0  0  0  0  0  0  0  0  0  0  0
    5.8139   -1.7652    0.2379 C   0  0  0  0  0  0  0  0  0  0  0  0
    8.8838    0.5243   -0.9438 H   0  0  0  0  0  0  0  0  0  0  0  0
    8.9189    0.6517    0.8566 H   0  0  0  0  0  0  0  0  0  0  0  0
    9.9816   -0.4817    0.0116 H   0  0  0  0  0  0  0  0  0  0  0  0
    6.8773    1.4501   -0.0917 H   0  0  0  0  0  0  0  0  0  0  0  0
    4.5036    1.8658   -0.0477 H   0  0  0  0  0  0  0  0  0  0  0  0
    2.3603    1.6456   -0.9533 H   0  0  0  0  0  0  0  0  0  0  0  0
    2.3086    1.8677    0.8317 H   0  0  0  0  0  0  0  0  0  0  0  0
   -0.1383   -0.3249    1.5510 H   0  0  0  0  0  0  0  0  0  0  0  0
   -4.5503   -0.6600   -2.0436 H   0  0  0  0  0  0  0  0  0  0  0  0
   -2.8877   -0.1137   -1.9712 H   0  0  0  0  0  0  0  0  0  0  0  0
   -4.2059    1.0948   -2.0811 H   0  0  0  0  0  0  0  0  0  0  0  0
   -5.3419    0.4391    1.3979 H   0  0  0  0  0  0  0  0  0  0  0  0
   -6.6678    1.6197   -0.2217 H   0  0  0  0  0  0  0  0  0  0  0  0
   -6.5024    0.3268   -1.4193 H   0  0  0  0  0  0  0  0  0  0  0  0
   -8.5603   -0.2994   -0.3763 H   0  0  0  0  0  0  0  0  0  0  0  0
   -7.9734    0.1555    1.2385 H   0  0  0  0  0  0  0  0  0  0  0  0
   -5.4110   -1.8897    1.5400 H   0  0  0  0  0  0  0  0  0  0  0  0
   -5.3102   -2.1305   -0.2145 H   0  0  0  0  0  0  0  0  0  0  0  0
    6.1955   -2.7808    0.3168 H   0  0  0  0  0  0  0  0  0  0  0  0
  1  2  1  0
  2  3  1  0
  3  4  2  0
  4  5  1  0
  5  6  2  0
  6  7  1  0
  7  8  1  0
  8  9  1  0
  9 10  2  0
 10 11  1  0
 11 12  1  0
 12 13  2  0
 12 14  1  0
 14 15  1  0
 14 16  1  0
 16 17  1  0
 17 18  1  0
 18 19  1  0
 19 20  1  0
 11 21  2  0
 21 22  1  0
  6 23  1  0
 23 24  1  0
 23 25  2  0
 25  3  1  0
 22  9  1  0
 20 16  1  0
  1 26  1  0
  1 27  1  0
  1 28  1  0
  4 29  1  0
  5 30  1  0
  8 31  1  0
  8 32  1  0
 10 33  1  0
 15 34  1  0
 15 35  1  0
 15 36  1  0
 16 37  1  0
 17 38  1  0
 17 39  1  0
 18 40  1  0
 18 41  1  0
 20 42  1  0
 20 43  1  0
 25 44  1  0
M  END
$$$$
