
     RDKit          3D

 38 40  0  0  0  0  0  0  0  0999 V2000
   -0.8991    1.9043    3.8250 C   0  0  0  0  0  0  0  0  0  0  0  0
   -0.5750    1.2740    2.5864 O   0  0  0  0  0  0  0  0  0  0  0  0
    0.0218    2.1023    1.7028 C   0  0  0  0  0  0  0  0  0  0  0  0
    0.2865    3.2822    1.8340 O   0  0  0  0  0  0  0  0  0  0  0  0
    0.3387    1.3253    0.4401 C   0  0  0  0  0  0  0  0  0  0  0  0
    1.4798    0.7112    0.4105 N   0  0  0  0  0  0  0  0  0  0  0  0
    1.8189   -0.0050   -0.7285 N   0  0  0  0  0  0  0  0  0  0  0  0
    3.1057   -0.6529   -0.6359 C   0  0  0  0  0  0  0  0  0  0  0  0
    3.8908   -0.5027    0.5258 C   0  0  0  0  0  0  0  0  0  0  0  0
    5.1430   -1.1149    0.6563 C   0  0  0  0  0  0  0  0  0  0  0  0
    5.6445   -1.8975   -0.3753 C   0  0  0  0  0  0  0  0  0  0  0  0
    4.8930   -2.0646   -1.5324 C   0  0  0  0  0  0  0  0  0  0  0  0
    3.6392   -1.4496   -1.6600 C   0  0  0  0  0  0  0  0  0  0  0  0
    0.9812   -0.0684   -1.8501 C   0  0  0  0  0  0  0  0  0  0  0  0
    1.1803   -0.6511   -2.9136 O   0  0  0  0  0  0  0  0  0  0  0  0
   -0.3090    0.6514   -1.7438 C   0  0  0  0  0  0  0  0  0  0  0  0
   -0.6608    1.3193   -0.6452 C   0  0  0  0  0  0  0  0  0  0  0  0
   -2.1561    2.1625   -0.4823 S   0  0  0  0  0  0  0  0  0  0  0  0
   -3.2888    0.7858   -0.5527 C   0  0  0  0  0  0  0  0  0  0  0  0
   -4.1259    0.6380   -1.6647 C   0  0  0  0  0  0  0  0  0  0  0  0
   -5.0218   -0.4324   -1.7356 C   0  0  0  0  0  0  0  0  0  0  0  0
   -5.0870   -1.3513   -0.6904 C   0  0  0  0  0  0  0  0  0  0  0  0
   -6.1903   -2.6676   -0.7762 Cl  0  0  0  0  0  0  0  0  0  0  0  0
   -4.2665   -1.2069    0.4265 C   0  0  0  0  0  0  0  0  0  0  0  0
   -3.3705   -0.1365    0.4975 C   0  0  0  0  0  0  0  0  0  0  0  0
   -1.3365    1.1501    4.4851 H   0  0  0  0  0  0  0  0  0  0  0  0
    0.0016    2.3022    4.3035 H   0  0  0  0  0  0  0  0  0  0  0  0
   -1.6370    2.6972    3.6676 H   0  0  0  0  0  0  0  0  0  0  0  0
    3.5414    0.1024    1.3589 H   0  0  0  0  0  0  0  0  0  0  0  0
    5.7213   -0.9744    1.5658 H   0  0  0  0  0  0  0  0  0  0  0  0
    6.6161   -2.3743   -0.2798 H   0  0  0  0  0  0  0  0  0  0  0  0
    5.2768   -2.6747   -2.3466 H   0  0  0  0  0  0  0  0  0  0  0  0
    3.1101   -1.6270   -2.5898 H   0  0  0  0  0  0  0  0  0  0  0  0
   -0.9439    0.5861   -2.6198 H   0  0  0  0  0  0  0  0  0  0  0  0
   -4.0898    1.3521   -2.4848 H   0  0  0  0  0  0  0  0  0  0  0  0
   -5.6650   -0.5411   -2.6051 H   0  0  0  0  0  0  0  0  0  0  0  0
   -4.3215   -1.9201    1.2451 H   0  0  0  0  0  0  0  0  0  0  0  0
   -2.7462   -0.0336    1.3818 H   0  0  0  0  0  0  0  0  0  0  0  0
  1  2  1  0
  2  3  1  0
  3  4  2  0
  3  5  1  0
  5  6  2  0
  6  7  1  0
  7  8  1  0
  8  9  2  0
  9 10  1  0
 10 11  2  0
 11 12  1  0
 12 13  2  0
  7 14  1  0
 14 15  2  0
 14 16  1  0
 16 17  2  0
 17 18  1  0
 18 19  1  0
 19 20  2  0
 20 21  1  0
 21 22  2  0
 22 23  1  0
 22 24  1  0
 24 25  2  0
 17  5  1  0
 25 19  1  0
 13  8  1  0
  1 26  1  0
  1 27  1  0
  1 28  1  0
  9 29  1  0
 10 30  1  0
 11 31  1  0
 12 32  1  0
 13 33  1  0
 16 34  1  0
 20 35  1  0
 21 36  1  0
 24 37  1  0
 25 38  1  0
M  END
$$$$
