
     RDKit          3D

 50 53  0  0  0  0  0  0  0  0999 V2000
    7.6871    1.8035    0.5818 C   0  0  0  0  0  0  0  0  0  0  0  0
    6.8050    0.7771    1.0190 O   0  0  0  0  0  0  0  0  0  0  0  0
    5.5050    0.8646    0.6059 C   0  0  0  0  0  0  0  0  0  0  0  0
    4.6767   -0.1636    1.0579 C   0  0  0  0  0  0  0  0  0  0  0  0
    3.3189   -0.2058    0.7130 C   0  0  0  0  0  0  0  0  0  0  0  0
    2.7690    0.7852   -0.1033 C   0  0  0  0  0  0  0  0  0  0  0  0
    1.3923    0.7987   -0.4901 N   0  0  0  0  0  0  0  0  0  0  0  0
    0.8850    1.9242   -1.0764 N   0  0  0  0  0  0  0  0  0  0  0  0
   -0.4118    1.6858   -1.2490 C   0  0  0  0  0  0  0  0  0  0  0  0
   -0.7818    0.4110   -0.8088 C   0  0  0  0  0  0  0  0  0  0  0  0
    0.3995   -0.1680   -0.3788 C   0  0  0  0  0  0  0  0  0  0  0  0
    0.5261   -1.5884    0.0655 C   0  0  0  0  0  0  0  0  0  0  0  0
   -0.7128   -2.4337   -0.3698 C   0  0  0  0  0  0  0  0  0  0  0  0
   -0.7444   -3.7287    0.4640 C   0  0  0  0  0  0  0  0  0  0  0  0
   -0.6000   -2.8289   -1.8566 C   0  0  0  0  0  0  0  0  0  0  0  0
   -2.0278   -1.6404   -0.1130 C   0  0  0  0  0  0  0  0  0  0  0  0
   -2.0982   -0.2855   -0.8582 C   0  0  0  0  0  0  0  0  0  0  0  0
   -3.0896    0.5806   -0.2537 N   0  0  0  0  0  0  0  0  0  0  0  0
   -4.4305    0.4083   -0.5116 C   0  0  0  0  0  0  0  0  0  0  0  0
   -4.8471   -0.4135   -1.3219 O   0  0  0  0  0  0  0  0  0  0  0  0
   -5.3248    1.2574    0.2567 C   0  0  0  0  0  0  0  0  0  0  0  0
   -5.0658    2.3256    1.1465 C   0  0  0  0  0  0  0  0  0  0  0  0
   -6.1773    2.8573    1.6625 N   0  0  0  0  0  0  0  0  0  0  0  0
   -7.1615    2.1437    1.0931 N   0  0  0  0  0  0  0  0  0  0  0  0
   -6.7052    1.1784    0.2480 C   0  0  0  0  0  0  0  0  0  0  0  0
    3.6048    1.8282   -0.5416 C   0  0  0  0  0  0  0  0  0  0  0  0
    4.9619    1.8651   -0.1943 C   0  0  0  0  0  0  0  0  0  0  0  0
    8.6794    1.5873    0.9897 H   0  0  0  0  0  0  0  0  0  0  0  0
    7.3756    2.7810    0.9644 H   0  0  0  0  0  0  0  0  0  0  0  0
    7.7712    1.8136   -0.5099 H   0  0  0  0  0  0  0  0  0  0  0  0
    5.0917   -0.9406    1.6966 H   0  0  0  0  0  0  0  0  0  0  0  0
    2.7351   -1.0111    1.1365 H   0  0  0  0  0  0  0  0  0  0  0  0
   -1.0303    2.4519   -1.7000 H   0  0  0  0  0  0  0  0  0  0  0  0
    1.4331   -2.0475   -0.3434 H   0  0  0  0  0  0  0  0  0  0  0  0
    0.5970   -1.5967    1.1604 H   0  0  0  0  0  0  0  0  0  0  0  0
   -1.5898   -4.3637    0.1765 H   0  0  0  0  0  0  0  0  0  0  0  0
   -0.8418   -3.5105    1.5333 H   0  0  0  0  0  0  0  0  0  0  0  0
    0.1740   -4.3104    0.3252 H   0  0  0  0  0  0  0  0  0  0  0  0
    0.2852   -3.4516   -2.0302 H   0  0  0  0  0  0  0  0  0  0  0  0
   -1.4767   -3.4040   -2.1757 H   0  0  0  0  0  0  0  0  0  0  0  0
   -0.5176   -1.9589   -2.5153 H   0  0  0  0  0  0  0  0  0  0  0  0
   -2.8999   -2.2494   -0.3849 H   0  0  0  0  0  0  0  0  0  0  0  0
   -2.1172   -1.4604    0.9688 H   0  0  0  0  0  0  0  0  0  0  0  0
   -2.3730   -0.4600   -1.9059 H   0  0  0  0  0  0  0  0  0  0  0  0
   -2.8038    1.1314    0.5420 H   0  0  0  0  0  0  0  0  0  0  0  0
   -4.1150    2.7482    1.4437 H   0  0  0  0  0  0  0  0  0  0  0  0
   -8.1224    2.3721    1.3282 H   0  0  0  0  0  0  0  0  0  0  0  0
   -7.3811    0.5235   -0.2847 H   0  0  0  0  0  0  0  0  0  0  0  0
    3.2150    2.6271   -1.1714 H   0  0  0  0  0  0  0  0  0  0  0  0
    5.5587    2.6905   -0.5676 H   0  0  0  0  0  0  0  0  0  0  0  0
  1  2  1  0
  2  3  1  0
  3  4  2  0
  4  5  1  0
  5  6  2  0
  6  7  1  0
  7  8  1  0
  8  9  2  0
  9 10  1  0
 10 11  2  0
 11 12  1  0
 12 13  1  0
 13 14  1  0
 13 15  1  0
 13 16  1  0
 16 17  1  0
 17 18  1  0
 18 19  1  0
 19 20  2  0
 19 21  1  0
 21 22  1  0
 22 23  2  0
 23 24  1  0
 24 25  1  0
  6 26  1  0
 26 27  2  0
 27  3  1  0
 11  7  1  0
 25 21  2  0
 17 10  1  0
  1 28  1  0
  1 29  1  0
  1 30  1  0
  4 31  1  0
  5 32  1  0
  9 33  1  0
 12 34  1  0
 12 35  1  0
 14 36  1  0
 14 37  1  0
 14 38  1  0
 15 39  1  0
 15 40  1  0
 15 41  1  0
 16 42  1  0
 16 43  1  0
 17 44  1  0
 18 45  1  0
 22 46  1  0
 24 47  1  0
 25 48  1  0
 26 49  1  0
 27 50  1  0
M  END
$$$$
