
     RDKit          3D

 51 54  0  0  0  0  0  0  0  0999 V2000
   -2.4277    5.2724    1.3507 C   0  0  0  0  0  0  0  0  0  0  0  0
   -1.3032    4.2754    1.1382 C   0  0  0  0  0  0  0  0  0  0  0  0
   -1.6563    3.0629    1.8139 O   0  0  0  0  0  0  0  0  0  0  0  0
   -0.7179    2.0908    1.5679 C   0  0  0  0  0  0  0  0  0  0  0  0
   -1.0446    1.1189    0.6178 C   0  0  0  0  0  0  0  0  0  0  0  0
   -0.1532    0.0756    0.3328 C   0  0  0  0  0  0  0  0  0  0  0  0
   -0.5451   -0.9929   -0.6905 C   0  0  0  0  0  0  0  0  0  0  0  0
   -1.0808   -2.2374    0.0393 C   0  0  0  0  0  0  0  0  0  0  0  0
   -2.6016   -2.2279    0.1008 C   0  0  0  0  0  0  0  0  0  0  0  0
   -3.2701   -1.2383   -0.1940 O   0  0  0  0  0  0  0  0  0  0  0  0
   -3.2919   -3.4975    0.5627 C   0  0  0  0  0  0  0  0  0  0  0  0
   -2.2945   -4.5495    1.0278 C   0  0  0  0  0  0  0  0  0  0  0  0
   -1.2566   -4.8301   -0.0488 C   0  0  0  0  0  0  0  0  0  0  0  0
   -0.5963   -3.5533   -0.5437 C   0  0  0  0  0  0  0  0  0  0  0  0
    0.3542   -3.6883   -1.4113 N   0  0  0  0  0  0  0  0  0  0  0  0
    0.9575   -2.5816   -1.8932 C   0  0  0  0  0  0  0  0  0  0  0  0
    1.9628   -2.4922   -2.7325 N   0  0  0  0  0  0  0  0  0  0  0  0
    2.1226   -1.1343   -2.9566 C   0  0  0  0  0  0  0  0  0  0  0  0
    3.1501   -0.5874   -3.8655 C   0  0  0  0  0  0  0  0  0  0  0  0
    3.9559   -1.2785   -4.4836 O   0  0  0  0  0  0  0  0  0  0  0  0
    3.1147    0.7815   -3.9472 O   0  0  0  0  0  0  0  0  0  0  0  0
    4.0943    1.3394   -4.8203 C   0  0  0  0  0  0  0  0  0  0  0  0
    1.2423   -0.3789   -2.2674 N   0  0  0  0  0  0  0  0  0  0  0  0
    0.5620   -1.3131   -1.5789 N   0  0  0  0  0  0  0  0  0  0  0  0
    1.0555    0.0196    1.0484 C   0  0  0  0  0  0  0  0  0  0  0  0
    1.3688    0.9858    2.0141 C   0  0  0  0  0  0  0  0  0  0  0  0
    0.4813    2.0272    2.2909 C   0  0  0  0  0  0  0  0  0  0  0  0
    0.6824    3.0044    3.2287 O   0  0  0  0  0  0  0  0  0  0  0  0
    1.8798    2.9440    3.9908 C   0  0  0  0  0  0  0  0  0  0  0  0
   -2.2083    6.2200    0.8507 H   0  0  0  0  0  0  0  0  0  0  0  0
   -3.3718    4.8774    0.9613 H   0  0  0  0  0  0  0  0  0  0  0  0
   -2.5774    5.4626    2.4186 H   0  0  0  0  0  0  0  0  0  0  0  0
   -0.3731    4.6907    1.5421 H   0  0  0  0  0  0  0  0  0  0  0  0
   -1.1797    4.0926    0.0635 H   0  0  0  0  0  0  0  0  0  0  0  0
   -2.0032    1.1886    0.1061 H   0  0  0  0  0  0  0  0  0  0  0  0
   -1.2970   -0.5700   -1.3704 H   0  0  0  0  0  0  0  0  0  0  0  0
   -0.7391   -2.2369    1.0842 H   0  0  0  0  0  0  0  0  0  0  0  0
   -3.9695   -3.2437    1.3844 H   0  0  0  0  0  0  0  0  0  0  0  0
   -3.8818   -3.8827   -0.2762 H   0  0  0  0  0  0  0  0  0  0  0  0
   -1.7944   -4.2057    1.9419 H   0  0  0  0  0  0  0  0  0  0  0  0
   -2.8229   -5.4748    1.2831 H   0  0  0  0  0  0  0  0  0  0  0  0
   -0.4818   -5.4999    0.3401 H   0  0  0  0  0  0  0  0  0  0  0  0
   -1.7255   -5.3220   -0.9091 H   0  0  0  0  0  0  0  0  0  0  0  0
    5.1029    1.1015   -4.4681 H   0  0  0  0  0  0  0  0  0  0  0  0
    3.9455    0.9821   -5.8441 H   0  0  0  0  0  0  0  0  0  0  0  0
    3.9744    2.4263   -4.8138 H   0  0  0  0  0  0  0  0  0  0  0  0
    1.7782   -0.7734    0.8618 H   0  0  0  0  0  0  0  0  0  0  0  0
    2.3175    0.8922    2.5326 H   0  0  0  0  0  0  0  0  0  0  0  0
    2.7611    3.0534    3.3503 H   0  0  0  0  0  0  0  0  0  0  0  0
    1.8726    3.7842    4.6918 H   0  0  0  0  0  0  0  0  0  0  0  0
    1.9287    2.0213    4.5783 H   0  0  0  0  0  0  0  0  0  0  0  0
  1  2  1  0
  2  3  1  0
  3  4  1  0
  4  5  2  0
  5  6  1  0
  6  7  1  0
  7  8  1  0
  8  9  1  0
  9 10  2  0
  9 11  1  0
 11 12  1  0
 12 13  1  0
 13 14  1  0
 14 15  2  0
 15 16  1  0
 16 17  2  0
 17 18  1  0
 18 19  1  0
 19 20  2  0
 19 21  1  0
 21 22  1  0
 18 23  2  0
 23 24  1  0
  6 25  2  0
 25 26  1  0
 26 27  2  0
 27 28  1  0
 28 29  1  0
 27  4  1  0
 24  7  1  0
 14  8  1  0
 24 16  1  0
  1 30  1  0
  1 31  1  0
  1 32  1  0
  2 33  1  0
  2 34  1  0
  5 35  1  0
  7 36  1  0
  8 37  1  0
 11 38  1  0
 11 39  1  0
 12 40  1  0
 12 41  1  0
 13 42  1  0
 13 43  1  0
 22 44  1  0
 22 45  1  0
 22 46  1  0
 25 47  1  0
 26 48  1  0
 29 49  1  0
 29 50  1  0
 29 51  1  0
M  END
$$$$
