
     RDKit          3D

 42 42  0  0  0  0  0  0  0  0999 V2000
   -1.6489   -3.6595    2.0827 C   0  0  0  0  0  0  0  0  0  0  0  0
   -2.6155   -2.6729    1.4462 C   0  0  0  0  0  0  0  0  0  0  0  0
   -2.0803   -1.2386    1.3924 C   0  0  0  0  0  0  0  0  0  0  0  0
   -0.8432   -1.0910    0.4924 C   0  0  0  0  0  0  0  0  0  0  0  0
   -0.3993    0.3713    0.2491 C   0  0  0  0  0  0  0  0  0  0  0  0
   -1.4669    1.2429   -0.3794 C   0  0  0  0  0  0  0  0  0  0  0  0
   -1.6352    2.4293   -0.1360 O   0  0  0  0  0  0  0  0  0  0  0  0
   -2.1513    0.5514   -1.3372 O   0  0  0  0  0  0  0  0  0  0  0  0
   -3.1774    1.2801   -2.0293 C   0  0  0  0  0  0  0  0  0  0  0  0
   -4.4749    1.2258   -1.2451 C   0  0  0  0  0  0  0  0  0  0  0  0
    0.8408    0.4396   -0.6442 C   0  0  0  0  0  0  0  0  0  0  0  0
    1.9902    0.3266    0.3359 C   0  0  0  0  0  0  0  0  0  0  0  0
    3.2812    1.0131   -0.1102 C   0  0  0  0  0  0  0  0  0  0  0  0
    4.0020    0.2102   -1.5756 S   0  0  0  0  0  0  0  0  0  0  0  0
    5.3431    1.2800   -1.8055 C   0  0  0  0  0  0  0  0  0  0  0  0
    5.2922    2.1569   -2.7383 N   0  0  0  0  0  0  0  0  0  0  0  0
    6.4101    1.1250   -0.9979 N   0  0  0  0  0  0  0  0  0  0  0  0
    1.5048    0.9602    1.5244 O   0  0  0  0  0  0  0  0  0  0  0  0
    0.1367    0.9592    1.5301 C   0  0  0  0  0  0  0  0  0  0  0  0
   -0.5200    1.3349    2.4876 O   0  0  0  0  0  0  0  0  0  0  0  0
   -1.3472   -3.3263    3.0807 H   0  0  0  0  0  0  0  0  0  0  0  0
   -0.7495   -3.7898    1.4738 H   0  0  0  0  0  0  0  0  0  0  0  0
   -2.1253   -4.6402    2.1826 H   0  0  0  0  0  0  0  0  0  0  0  0
   -2.8723   -3.0131    0.4362 H   0  0  0  0  0  0  0  0  0  0  0  0
   -3.5461   -2.6738    2.0262 H   0  0  0  0  0  0  0  0  0  0  0  0
   -2.8882   -0.5942    1.0289 H   0  0  0  0  0  0  0  0  0  0  0  0
   -1.8461   -0.9083    2.4104 H   0  0  0  0  0  0  0  0  0  0  0  0
   -0.0164   -1.6504    0.9474 H   0  0  0  0  0  0  0  0  0  0  0  0
   -1.0477   -1.5761   -0.4709 H   0  0  0  0  0  0  0  0  0  0  0  0
   -2.8686    2.3127   -2.2274 H   0  0  0  0  0  0  0  0  0  0  0  0
   -3.3138    0.7936   -3.0007 H   0  0  0  0  0  0  0  0  0  0  0  0
   -5.2795    1.7263   -1.7911 H   0  0  0  0  0  0  0  0  0  0  0  0
   -4.7673    0.1874   -1.0576 H   0  0  0  0  0  0  0  0  0  0  0  0
   -4.3639    1.7063   -0.2679 H   0  0  0  0  0  0  0  0  0  0  0  0
    0.8660   -0.3448   -1.4084 H   0  0  0  0  0  0  0  0  0  0  0  0
    0.8849    1.4023   -1.1717 H   0  0  0  0  0  0  0  0  0  0  0  0
    2.1942   -0.7213    0.5899 H   0  0  0  0  0  0  0  0  0  0  0  0
    4.0069    0.9882    0.7108 H   0  0  0  0  0  0  0  0  0  0  0  0
    3.0919    2.0715   -0.3244 H   0  0  0  0  0  0  0  0  0  0  0  0
    4.3876    2.0526   -3.2105 H   0  0  0  0  0  0  0  0  0  0  0  0
    6.5779    0.1731   -0.6990 H   0  0  0  0  0  0  0  0  0  0  0  0
    7.2342    1.5798   -1.3761 H   0  0  0  0  0  0  0  0  0  0  0  0
  1  2  1  0
  2  3  1  0
  3  4  1  0
  4  5  1  0
  5  6  1  0
  6  7  2  0
  6  8  1  0
  8  9  1  0
  9 10  1  0
  5 11  1  0
 11 12  1  0
 12 13  1  0
 13 14  1  0
 14 15  1  0
 15 16  2  3
 15 17  1  0
 12 18  1  0
 18 19  1  0
 19 20  2  0
 19  5  1  0
  1 21  1  0
  1 22  1  0
  1 23  1  0
  2 24  1  0
  2 25  1  0
  3 26  1  0
  3 27  1  0
  4 28  1  0
  4 29  1  0
  9 30  1  0
  9 31  1  0
 10 32  1  0
 10 33  1  0
 10 34  1  0
 11 35  1  0
 11 36  1  0
 12 37  1  0
 13 38  1  0
 13 39  1  0
 16 40  1  0
 17 41  1  0
 17 42  1  0
M  END
$$$$
