
     RDKit          3D

 53 54  0  0  0  0  0  0  0  0999 V2000
    0.2970    4.6482    1.2195 C   0  0  0  0  0  0  0  0  0  0  0  0
   -1.2972    4.5038    2.0635 S   0  0  0  0  0  0  0  0  0  0  0  0
   -2.2201    3.5221    0.8355 C   0  0  0  0  0  0  0  0  0  0  0  0
   -2.4398    2.0744    1.2788 C   0  0  0  0  0  0  0  0  0  0  0  0
   -1.1934    1.1870    1.2295 C   0  0  0  0  0  0  0  0  0  0  0  0
   -1.4777   -0.1102    1.8470 N   0  0  0  0  0  0  0  0  0  0  0  0
   -0.4474   -0.9109    2.2965 C   0  0  0  0  0  0  0  0  0  0  0  0
    0.7184   -0.5282    2.3558 O   0  0  0  0  0  0  0  0  0  0  0  0
   -0.8785   -2.3056    2.7489 C   0  0  0  0  0  0  0  0  0  0  0  0
   -2.1395   -2.6423    2.1754 O   0  0  0  0  0  0  0  0  0  0  0  0
   -2.6468   -3.8750    2.4807 C   0  0  0  0  0  0  0  0  0  0  0  0
   -3.8612   -4.1763    1.8579 C   0  0  0  0  0  0  0  0  0  0  0  0
   -4.4914   -5.4012    2.0828 C   0  0  0  0  0  0  0  0  0  0  0  0
   -3.9087   -6.3347    2.9358 C   0  0  0  0  0  0  0  0  0  0  0  0
   -2.6980   -6.0413    3.5607 C   0  0  0  0  0  0  0  0  0  0  0  0
   -2.0665   -4.8141    3.3345 C   0  0  0  0  0  0  0  0  0  0  0  0
   -0.7911    0.9227   -0.2264 C   0  0  0  0  0  0  0  0  0  0  0  0
   -1.3292    0.0964   -0.9539 O   0  0  0  0  0  0  0  0  0  0  0  0
    0.2260    1.7464   -0.6023 O   0  0  0  0  0  0  0  0  0  0  0  0
    0.7175    1.5578   -1.9382 C   0  0  0  0  0  0  0  0  0  0  0  0
    1.6626    0.3594   -2.0194 C   0  0  0  0  0  0  0  0  0  0  0  0
    2.2767    0.2767   -3.3048 O   0  0  0  0  0  0  0  0  0  0  0  0
    3.4380    0.9624   -3.5241 C   0  0  0  0  0  0  0  0  0  0  0  0
    4.0905    1.8010   -2.6191 C   0  0  0  0  0  0  0  0  0  0  0  0
    5.2783    2.4443   -2.9862 C   0  0  0  0  0  0  0  0  0  0  0  0
    5.8112    2.2502   -4.2588 C   0  0  0  0  0  0  0  0  0  0  0  0
    7.4152    3.1205   -4.7489 Br  0  0  0  0  0  0  0  0  0  0  0  0
    5.1678    1.4187   -5.1700 C   0  0  0  0  0  0  0  0  0  0  0  0
    3.9834    0.7784   -4.7990 C   0  0  0  0  0  0  0  0  0  0  0  0
    0.1673    5.0634    0.2168 H   0  0  0  0  0  0  0  0  0  0  0  0
    0.7914    3.6772    1.1590 H   0  0  0  0  0  0  0  0  0  0  0  0
    0.9411    5.3225    1.7900 H   0  0  0  0  0  0  0  0  0  0  0  0
   -1.7490    3.5819   -0.1498 H   0  0  0  0  0  0  0  0  0  0  0  0
   -3.2008    4.0011    0.7401 H   0  0  0  0  0  0  0  0  0  0  0  0
   -3.2107    1.6394    0.6274 H   0  0  0  0  0  0  0  0  0  0  0  0
   -2.8674    2.0600    2.2904 H   0  0  0  0  0  0  0  0  0  0  0  0
   -0.3522    1.6334    1.7685 H   0  0  0  0  0  0  0  0  0  0  0  0
   -2.2878   -0.6279    1.5111 H   0  0  0  0  0  0  0  0  0  0  0  0
   -0.9430   -2.2855    3.8426 H   0  0  0  0  0  0  0  0  0  0  0  0
   -0.1109   -3.0095    2.4077 H   0  0  0  0  0  0  0  0  0  0  0  0
   -4.3207   -3.4529    1.1890 H   0  0  0  0  0  0  0  0  0  0  0  0
   -5.4345   -5.6251    1.5915 H   0  0  0  0  0  0  0  0  0  0  0  0
   -4.3962   -7.2898    3.1132 H   0  0  0  0  0  0  0  0  0  0  0  0
   -2.2426   -6.7702    4.2267 H   0  0  0  0  0  0  0  0  0  0  0  0
   -1.1259   -4.6282    3.8416 H   0  0  0  0  0  0  0  0  0  0  0  0
    1.2409    2.4788   -2.2154 H   0  0  0  0  0  0  0  0  0  0  0  0
   -0.1087    1.4626   -2.6541 H   0  0  0  0  0  0  0  0  0  0  0  0
    1.0815   -0.5613   -1.8924 H   0  0  0  0  0  0  0  0  0  0  0  0
    2.3890    0.3399   -1.1985 H   0  0  0  0  0  0  0  0  0  0  0  0
    3.7091    1.9814   -1.6200 H   0  0  0  0  0  0  0  0  0  0  0  0
    5.7783    3.0921   -2.2709 H   0  0  0  0  0  0  0  0  0  0  0  0
    5.5748    1.2597   -6.1648 H   0  0  0  0  0  0  0  0  0  0  0  0
    3.4807    0.1265   -5.5099 H   0  0  0  0  0  0  0  0  0  0  0  0
  1  2  1  0
  2  3  1  0
  3  4  1  0
  4  5  1  0
  5  6  1  0
  6  7  1  0
  7  8  2  0
  7  9  1  0
  9 10  1  0
 10 11  1  0
 11 12  2  0
 12 13  1  0
 13 14  2  0
 14 15  1  0
 15 16  2  0
  5 17  1  0
 17 18  2  0
 17 19  1  0
 19 20  1  0
 20 21  1  0
 21 22  1  0
 22 23  1  0
 23 24  2  0
 24 25  1  0
 25 26  2  0
 26 27  1  0
 26 28  1  0
 28 29  2  0
 16 11  1  0
 29 23  1  0
  1 30  1  0
  1 31  1  0
  1 32  1  0
  3 33  1  0
  3 34  1  0
  4 35  1  0
  4 36  1  0
  5 37  1  0
  6 38  1  0
  9 39  1  0
  9 40  1  0
 12 41  1  0
 13 42  1  0
 14 43  1  0
 15 44  1  0
 16 45  1  0
 20 46  1  0
 20 47  1  0
 21 48  1  0
 21 49  1  0
 24 50  1  0
 25 51  1  0
 28 52  1  0
 29 53  1  0
M  END
$$$$
