
     RDKit          3D

 40 41  0  0  0  0  0  0  0  0999 V2000
   -5.8035   -1.2993   -0.8138 C   0  0  0  0  0  0  0  0  0  0  0  0
   -4.8936   -0.2254   -0.4240 N   0  0  0  0  0  0  0  0  0  0  0  0
   -4.0563    0.1951   -1.5663 C   0  0  0  0  0  0  0  0  0  0  0  0
   -2.7089    0.8096   -1.1496 C   0  0  0  0  0  0  0  0  0  0  0  0
   -1.9079   -0.1450   -0.3782 N   0  0  0  0  0  0  0  0  0  0  0  0
   -0.5264   -0.1136   -0.4906 C   0  0  0  0  0  0  0  0  0  0  0  0
    0.0496    0.7461   -1.1639 O   0  0  0  0  0  0  0  0  0  0  0  0
    0.2832   -1.1788    0.2370 C   0  0  0  0  0  0  0  0  0  0  0  0
    0.8675   -0.5388    1.8456 S   0  0  0  0  0  0  0  0  0  0  0  0
    2.4237    0.1781    1.3315 C   0  0  0  0  0  0  0  0  0  0  0  0
    2.4202    1.5153    0.9132 C   0  0  0  0  0  0  0  0  0  0  0  0
    3.6085    2.1616    0.5456 C   0  0  0  0  0  0  0  0  0  0  0  0
    4.8410    1.4931    0.5984 C   0  0  0  0  0  0  0  0  0  0  0  0
    6.1081    2.2076    0.1895 C   0  0  0  0  0  0  0  0  0  0  0  0
    7.2377    1.5076    0.4829 F   0  0  0  0  0  0  0  0  0  0  0  0
    6.2467    3.4165    0.7994 F   0  0  0  0  0  0  0  0  0  0  0  0
    6.1542    2.4514   -1.1473 F   0  0  0  0  0  0  0  0  0  0  0  0
    4.8602    0.1554    1.0169 C   0  0  0  0  0  0  0  0  0  0  0  0
    3.6597   -0.4819    1.3756 C   0  0  0  0  0  0  0  0  0  0  0  0
    3.7481   -1.8693    1.7894 N   0  0  0  0  0  4  0  0  0  0  0  0
    4.4417   -2.1138    2.7855 O   0  0  0  0  0  0  0  0  0  0  0  0
    3.1693   -2.7107    1.0883 O   0  0  0  0  0  1  0  0  0  0  0  0
   -2.6645   -1.0650    0.4795 C   0  0  0  0  0  0  0  0  0  0  0  0
   -4.0963   -0.5731    0.7657 C   0  0  0  0  0  0  0  0  0  0  0  0
   -5.2688   -2.2185   -1.0793 H   0  0  0  0  0  0  0  0  0  0  0  0
   -6.4137   -0.9936   -1.6703 H   0  0  0  0  0  0  0  0  0  0  0  0
   -6.5001   -1.5291    0.0001 H   0  0  0  0  0  0  0  0  0  0  0  0
   -3.8394   -0.6645   -2.2151 H   0  0  0  0  0  0  0  0  0  0  0  0
   -4.6185    0.9230   -2.1619 H   0  0  0  0  0  0  0  0  0  0  0  0
   -2.1605    1.1323   -2.0410 H   0  0  0  0  0  0  0  0  0  0  0  0
   -2.8634    1.6938   -0.5206 H   0  0  0  0  0  0  0  0  0  0  0  0
    1.1224   -1.4733   -0.4033 H   0  0  0  0  0  0  0  0  0  0  0  0
   -0.3051   -2.0846    0.4018 H   0  0  0  0  0  0  0  0  0  0  0  0
    1.4857    2.0747    0.8583 H   0  0  0  0  0  0  0  0  0  0  0  0
    3.5640    3.1999    0.2162 H   0  0  0  0  0  0  0  0  0  0  0  0
    5.8039   -0.3895    1.0640 H   0  0  0  0  0  0  0  0  0  0  0  0
   -2.1347   -1.1992    1.4267 H   0  0  0  0  0  0  0  0  0  0  0  0
   -2.6946   -2.0332   -0.0333 H   0  0  0  0  0  0  0  0  0  0  0  0
   -4.0213    0.3403    1.3699 H   0  0  0  0  0  0  0  0  0  0  0  0
   -4.6181   -1.3011    1.3990 H   0  0  0  0  0  0  0  0  0  0  0  0
  1  2  1  0
  2  3  1  0
  3  4  1  0
  4  5  1  0
  5  6  1  0
  6  7  2  0
  6  8  1  0
  8  9  1  0
  9 10  1  0
 10 11  2  0
 11 12  1  0
 12 13  2  0
 13 14  1  0
 14 15  1  0
 14 16  1  0
 14 17  1  0
 13 18  1  0
 18 19  2  0
 19 20  1  0
 20 21  2  0
 20 22  1  0
  5 23  1  0
 23 24  1  0
 24  2  1  0
 19 10  1  0
  1 25  1  0
  1 26  1  0
  1 27  1  0
  3 28  1  0
  3 29  1  0
  4 30  1  0
  4 31  1  0
  8 32  1  0
  8 33  1  0
 11 34  1  0
 12 35  1  0
 18 36  1  0
 23 37  1  0
 23 38  1  0
 24 39  1  0
 24 40  1  0
M  CHG  2  20   1  22  -1
M  END
$$$$
