
     RDKit          3D

 42 44  0  0  0  0  0  0  0  0999 V2000
    1.8690    0.8353    3.0088 C   0  0  0  0  0  0  0  0  0  0  0  0
    2.1697    1.0323    1.6338 O   0  0  0  0  0  0  0  0  0  0  0  0
    1.1661    0.8303    0.7236 C   0  0  0  0  0  0  0  0  0  0  0  0
   -0.1590    0.4942    1.0505 C   0  0  0  0  0  0  0  0  0  0  0  0
   -1.1612    0.2982    0.0775 C   0  0  0  0  0  0  0  0  0  0  0  0
   -2.4625   -0.0104    0.4461 N   0  0  0  0  0  0  0  0  0  0  0  0
   -3.6070    0.3317   -0.4085 C   0  0  0  0  0  0  0  0  0  0  0  0
   -4.7810    0.4729    0.5615 C   0  0  0  0  0  0  0  0  0  0  0  0
   -4.3912   -0.4324    1.7153 C   0  0  0  0  0  0  0  0  0  0  0  0
   -2.8927   -0.1805    1.8329 C   0  0  0  0  0  0  0  0  0  0  0  0
   -0.7343    0.4002   -1.2637 C   0  0  0  0  0  0  0  0  0  0  0  0
   -1.5875    0.1513   -2.3162 O   0  0  0  0  0  0  0  0  0  0  0  0
   -1.4621   -1.2167   -2.7126 C   0  0  0  0  0  0  0  0  0  0  0  0
    0.5737    0.7671   -1.6076 C   0  0  0  0  0  0  0  0  0  0  0  0
    1.5358    0.9858   -0.6188 C   0  0  0  0  0  0  0  0  0  0  0  0
    2.9489    1.3412   -1.0152 C   0  0  0  0  0  0  0  0  0  0  0  0
    3.8970    0.2076   -0.8364 C   0  0  0  0  0  0  0  0  0  0  0  0
    4.8886    0.1182   -0.0013 N   0  0  0  0  0  0  0  0  0  0  0  0
    5.4447   -1.1277   -0.2061 C   0  0  0  0  0  0  0  0  0  0  0  0
    6.7550   -1.7840    0.5792 S   0  0  0  0  0  0  0  0  0  0  0  0
    4.7826   -1.8096   -1.1750 N   0  0  0  0  0  0  0  0  0  0  0  0
    3.8031   -1.0385   -1.6790 C   0  0  0  0  0  0  0  0  0  0  0  0
    3.0520   -1.2263   -2.6060 O   0  0  0  0  0  0  0  0  0  0  0  0
    2.7867    1.0085    3.5792 H   0  0  0  0  0  0  0  0  0  0  0  0
    1.5483   -0.1940    3.2000 H   0  0  0  0  0  0  0  0  0  0  0  0
    1.1212    1.5559    3.3554 H   0  0  0  0  0  0  0  0  0  0  0  0
   -0.4306    0.3952    2.0941 H   0  0  0  0  0  0  0  0  0  0  0  0
   -3.8059   -0.4839   -1.1117 H   0  0  0  0  0  0  0  0  0  0  0  0
   -3.4708    1.2701   -0.9574 H   0  0  0  0  0  0  0  0  0  0  0  0
   -4.8564    1.5105    0.9093 H   0  0  0  0  0  0  0  0  0  0  0  0
   -5.7356    0.1966    0.1052 H   0  0  0  0  0  0  0  0  0  0  0  0
   -4.5821   -1.4801    1.4537 H   0  0  0  0  0  0  0  0  0  0  0  0
   -4.9296   -0.2020    2.6386 H   0  0  0  0  0  0  0  0  0  0  0  0
   -2.3922   -1.0232    2.3208 H   0  0  0  0  0  0  0  0  0  0  0  0
   -2.7159    0.7354    2.4099 H   0  0  0  0  0  0  0  0  0  0  0  0
   -0.4756   -1.4118   -3.1472 H   0  0  0  0  0  0  0  0  0  0  0  0
   -2.2144   -1.4100   -3.4832 H   0  0  0  0  0  0  0  0  0  0  0  0
   -1.6518   -1.8992   -1.8765 H   0  0  0  0  0  0  0  0  0  0  0  0
    0.8343    0.8538   -2.6603 H   0  0  0  0  0  0  0  0  0  0  0  0
    3.2933    2.2001   -0.4273 H   0  0  0  0  0  0  0  0  0  0  0  0
    2.9880    1.6558   -2.0650 H   0  0  0  0  0  0  0  0  0  0  0  0
    5.0417   -2.7177   -1.5206 H   0  0  0  0  0  0  0  0  0  0  0  0
  1  2  1  0
  2  3  1  0
  3  4  2  0
  4  5  1  0
  5  6  1  0
  6  7  1  0
  7  8  1  0
  8  9  1  0
  9 10  1  0
  5 11  2  0
 11 12  1  0
 12 13  1  0
 11 14  1  0
 14 15  2  0
 15 16  1  0
 16 17  1  0
 17 18  2  0
 18 19  1  0
 19 20  2  0
 19 21  1  0
 21 22  1  0
 22 23  2  0
 15  3  1  0
 22 17  1  0
 10  6  1  0
  1 24  1  0
  1 25  1  0
  1 26  1  0
  4 27  1  0
  7 28  1  0
  7 29  1  0
  8 30  1  0
  8 31  1  0
  9 32  1  0
  9 33  1  0
 10 34  1  0
 10 35  1  0
 13 36  1  0
 13 37  1  0
 13 38  1  0
 14 39  1  0
 16 40  1  0
 16 41  1  0
 21 42  1  0
M  END
$$$$
