
     RDKit          3D

 45 47  0  0  0  0  0  0  0  0999 V2000
    7.2672    0.4483    1.7550 N   0  0  0  0  0  0  0  0  0  0  0  0
    6.1268    0.2805    1.9023 C   0  0  0  0  0  0  0  0  0  0  0  0
    4.7250    0.0711    2.0658 C   0  0  0  0  0  0  0  0  0  0  0  0
    4.2375    0.0774    3.4078 C   0  0  0  0  0  0  0  0  0  0  0  0
    3.8310    0.0761    4.4969 N   0  0  0  0  0  0  0  0  0  0  0  0
    3.9095   -0.1235    0.9973 C   0  0  0  0  0  0  0  0  0  0  0  0
    2.4699   -0.3729    1.1266 C   0  0  0  0  0  0  0  0  0  0  0  0
    1.6189   -0.4072    0.0834 C   0  0  0  0  0  0  0  0  0  0  0  0
    0.2043   -0.6866    0.2834 C   0  0  0  0  0  0  0  0  0  0  0  0
   -0.7513   -0.5852   -0.6673 C   0  0  0  0  0  0  0  0  0  0  0  0
   -2.1081   -0.9142   -0.4533 N   0  0  0  0  0  0  0  0  0  0  0  0
   -2.6595   -1.2620    0.8668 C   0  0  0  0  0  0  0  0  0  0  0  0
   -2.9305   -0.0202    1.7081 C   0  0  0  0  0  0  0  0  0  0  0  0
   -3.6321    1.1379    0.9988 C   0  0  0  0  0  0  0  0  0  0  0  0
   -4.6120    0.7490   -0.1068 C   0  0  0  0  0  0  0  0  0  0  0  0
   -3.9287    0.4572   -1.4480 C   0  0  0  0  0  0  0  0  0  0  0  0
   -3.1456   -0.8548   -1.4973 C   0  0  0  0  0  0  0  0  0  0  0  0
   -0.3532   -0.0744   -2.0478 C   0  0  0  0  0  0  0  0  0  0  0  0
    1.0062    0.6290   -2.0996 C   0  0  0  0  0  0  0  0  0  0  0  0
    2.0653   -0.1668   -1.3395 C   0  0  0  0  0  0  0  0  0  0  0  0
    3.4225    0.5468   -1.3939 C   0  0  0  0  0  0  0  0  0  0  0  0
    4.4153   -0.1185   -0.4419 C   0  0  0  0  0  0  0  0  0  0  0  0
    2.0683   -0.5398    2.1243 H   0  0  0  0  0  0  0  0  0  0  0  0
   -0.0625   -1.0166    1.2799 H   0  0  0  0  0  0  0  0  0  0  0  0
   -1.9962   -1.9495    1.4019 H   0  0  0  0  0  0  0  0  0  0  0  0
   -3.5948   -1.8251    0.7562 H   0  0  0  0  0  0  0  0  0  0  0  0
   -3.5363   -0.3223    2.5741 H   0  0  0  0  0  0  0  0  0  0  0  0
   -1.9890    0.3562    2.1241 H   0  0  0  0  0  0  0  0  0  0  0  0
   -4.1712    1.7171    1.7689 H   0  0  0  0  0  0  0  0  0  0  0  0
   -2.8812    1.8246    0.5871 H   0  0  0  0  0  0  0  0  0  0  0  0
   -5.2864    1.5984   -0.2670 H   0  0  0  0  0  0  0  0  0  0  0  0
   -5.2419   -0.0907    0.2041 H   0  0  0  0  0  0  0  0  0  0  0  0
   -4.7029    0.4168   -2.2259 H   0  0  0  0  0  0  0  0  0  0  0  0
   -3.2708    1.2981   -1.7144 H   0  0  0  0  0  0  0  0  0  0  0  0
   -3.8397   -1.6989   -1.3842 H   0  0  0  0  0  0  0  0  0  0  0  0
   -2.7139   -0.9881   -2.4963 H   0  0  0  0  0  0  0  0  0  0  0  0
   -1.0932    0.6444   -2.4154 H   0  0  0  0  0  0  0  0  0  0  0  0
   -0.3459   -0.9212   -2.7435 H   0  0  0  0  0  0  0  0  0  0  0  0
    1.3066    0.7594   -3.1469 H   0  0  0  0  0  0  0  0  0  0  0  0
    0.9057    1.6371   -1.6718 H   0  0  0  0  0  0  0  0  0  0  0  0
    2.1756   -1.1498   -1.8214 H   0  0  0  0  0  0  0  0  0  0  0  0
    3.8185    0.5124   -2.4195 H   0  0  0  0  0  0  0  0  0  0  0  0
    3.3123    1.6107   -1.1323 H   0  0  0  0  0  0  0  0  0  0  0  0
    5.3754    0.3980   -0.5419 H   0  0  0  0  0  0  0  0  0  0  0  0
    4.5851   -1.1581   -0.7575 H   0  0  0  0  0  0  0  0  0  0  0  0
  1  2  3  0
  2  3  1  0
  3  4  1  0
  4  5  3  0
  3  6  2  3
  6  7  1  0
  7  8  2  0
  8  9  1  0
  9 10  2  0
 10 11  1  0
 11 12  1  0
 12 13  1  0
 13 14  1  0
 14 15  1  0
 15 16  1  0
 16 17  1  0
 10 18  1  0
 18 19  1  0
 19 20  1  0
 20 21  1  0
 21 22  1  0
 22  6  1  0
 20  8  1  0
 17 11  1  0
  7 23  1  0
  9 24  1  0
 12 25  1  0
 12 26  1  0
 13 27  1  0
 13 28  1  0
 14 29  1  0
 14 30  1  0
 15 31  1  0
 15 32  1  0
 16 33  1  0
 16 34  1  0
 17 35  1  0
 17 36  1  0
 18 37  1  0
 18 38  1  0
 19 39  1  0
 19 40  1  0
 20 41  1  0
 21 42  1  0
 21 43  1  0
 22 44  1  0
 22 45  1  0
M  END
$$$$
