
     RDKit          3D

 57 59  0  0  0  0  0  0  0  0999 V2000
    0.4930    4.8513   -1.7260 C   0  0  0  0  0  0  0  0  0  0  0  0
    0.5898    3.6084   -1.0396 O   0  0  0  0  0  0  0  0  0  0  0  0
   -0.5748    3.0900   -0.5177 C   0  0  0  0  0  0  0  0  0  0  0  0
   -1.8361    3.6842   -0.6369 C   0  0  0  0  0  0  0  0  0  0  0  0
   -2.9551    3.0695   -0.0728 C   0  0  0  0  0  0  0  0  0  0  0  0
   -2.8061    1.8599    0.6075 C   0  0  0  0  0  0  0  0  0  0  0  0
   -4.2203    1.0708    1.3359 S   0  0  0  0  0  6  0  0  0  0  0  0
   -3.8993    0.8204    2.7241 O   0  0  0  0  0  0  0  0  0  0  0  0
   -5.4007    1.8276    0.9688 O   0  0  0  0  0  0  0  0  0  0  0  0
   -4.2987   -0.4209    0.5094 N   0  0  0  0  0  0  0  0  0  0  0  0
   -4.4726   -0.3342   -0.9665 C   0  0  0  0  0  0  0  0  0  0  0  0
   -4.7450   -1.7147   -1.5528 C   0  0  0  0  0  0  0  0  0  0  0  0
   -6.0502   -2.2992   -1.0179 C   0  0  0  0  0  0  0  0  0  0  0  0
   -6.3925   -1.7715    0.3735 C   0  0  0  0  0  0  0  0  0  0  0  0
   -5.1394   -1.4549    1.1793 C   0  0  0  0  0  0  0  0  0  0  0  0
   -1.5525    1.2535    0.7384 C   0  0  0  0  0  0  0  0  0  0  0  0
   -0.4322    1.8640    0.1746 C   0  0  0  0  0  0  0  0  0  0  0  0
    0.8732    1.3263    0.2499 N   0  0  0  0  0  0  0  0  0  0  0  0
    1.2781    0.1528    0.8507 C   0  0  0  0  0  0  0  0  0  0  0  0
    0.5681   -0.6427    1.4535 O   0  0  0  0  0  0  0  0  0  0  0  0
    2.7379   -0.1376    0.7552 C   0  0  0  0  0  0  0  0  0  0  0  0
    3.4970    0.2193   -0.3655 C   0  0  0  0  0  0  0  0  0  0  0  0
    4.8626   -0.0801   -0.4112 C   0  0  0  0  0  0  0  0  0  0  0  0
    5.4857   -0.7502    0.6537 C   0  0  0  0  0  0  0  0  0  0  0  0
    6.9573   -1.0686    0.5952 C   0  0  0  0  0  0  0  0  0  0  0  0
    7.2466   -2.8243    0.3803 S   0  0  0  0  0  6  0  0  0  0  0  0
    6.1700   -3.3252   -0.9460 C   0  0  0  0  0  0  0  0  0  0  0  0
    6.8289   -3.5225    1.5826 O   0  0  0  0  0  0  0  0  0  0  0  0
    8.6083   -2.9724   -0.1051 O   0  0  0  0  0  0  0  0  0  0  0  0
    4.7168   -1.1060    1.7711 C   0  0  0  0  0  0  0  0  0  0  0  0
    3.3521   -0.8114    1.8169 C   0  0  0  0  0  0  0  0  0  0  0  0
    1.4978    5.1269   -2.0609 H   0  0  0  0  0  0  0  0  0  0  0  0
    0.1354    5.6442   -1.0607 H   0  0  0  0  0  0  0  0  0  0  0  0
   -0.1398    4.7602   -2.6144 H   0  0  0  0  0  0  0  0  0  0  0  0
   -1.9835    4.6243   -1.1583 H   0  0  0  0  0  0  0  0  0  0  0  0
   -3.9320    3.5403   -0.1622 H   0  0  0  0  0  0  0  0  0  0  0  0
   -5.2929    0.3471   -1.2209 H   0  0  0  0  0  0  0  0  0  0  0  0
   -3.5523    0.0554   -1.4126 H   0  0  0  0  0  0  0  0  0  0  0  0
   -4.7842   -1.6652   -2.6466 H   0  0  0  0  0  0  0  0  0  0  0  0
   -3.9164   -2.3876   -1.2967 H   0  0  0  0  0  0  0  0  0  0  0  0
   -5.9701   -3.3931   -0.9985 H   0  0  0  0  0  0  0  0  0  0  0  0
   -6.8761   -2.0625   -1.6996 H   0  0  0  0  0  0  0  0  0  0  0  0
   -7.0109   -2.5055    0.9022 H   0  0  0  0  0  0  0  0  0  0  0  0
   -6.9998   -0.8627    0.2751 H   0  0  0  0  0  0  0  0  0  0  0  0
   -5.4335   -1.1397    2.1854 H   0  0  0  0  0  0  0  0  0  0  0  0
   -4.5269   -2.3559    1.3042 H   0  0  0  0  0  0  0  0  0  0  0  0
   -1.4811    0.3175    1.2845 H   0  0  0  0  0  0  0  0  0  0  0  0
    1.5745    1.9308   -0.1656 H   0  0  0  0  0  0  0  0  0  0  0  0
    3.0387    0.7060   -1.2219 H   0  0  0  0  0  0  0  0  0  0  0  0
    5.4328    0.2125   -1.2919 H   0  0  0  0  0  0  0  0  0  0  0  0
    7.4408   -0.5565   -0.2430 H   0  0  0  0  0  0  0  0  0  0  0  0
    7.4601   -0.7585    1.5177 H   0  0  0  0  0  0  0  0  0  0  0  0
    6.4081   -4.3607   -1.1968 H   0  0  0  0  0  0  0  0  0  0  0  0
    6.3538   -2.6852   -1.8109 H   0  0  0  0  0  0  0  0  0  0  0  0
    5.1311   -3.2599   -0.6195 H   0  0  0  0  0  0  0  0  0  0  0  0
    5.1688   -1.6259    2.6165 H   0  0  0  0  0  0  0  0  0  0  0  0
    2.7676   -1.1080    2.6873 H   0  0  0  0  0  0  0  0  0  0  0  0
  1  2  1  0
  2  3  1  0
  3  4  2  0
  4  5  1  0
  5  6  2  0
  6  7  1  0
  7  8  2  0
  7  9  2  0
  7 10  1  0
 10 11  1  0
 11 12  1  0
 12 13  1  0
 13 14  1  0
 14 15  1  0
  6 16  1  0
 16 17  2  0
 17 18  1  0
 18 19  1  0
 19 20  2  0
 19 21  1  0
 21 22  2  0
 22 23  1  0
 23 24  2  0
 24 25  1  0
 25 26  1  0
 26 27  1  0
 26 28  2  0
 26 29  2  0
 24 30  1  0
 30 31  2  0
 17  3  1  0
 31 21  1  0
 15 10  1  0
  1 32  1  0
  1 33  1  0
  1 34  1  0
  4 35  1  0
  5 36  1  0
 11 37  1  0
 11 38  1  0
 12 39  1  0
 12 40  1  0
 13 41  1  0
 13 42  1  0
 14 43  1  0
 14 44  1  0
 15 45  1  0
 15 46  1  0
 16 47  1  0
 18 48  1  0
 22 49  1  0
 23 50  1  0
 25 51  1  0
 25 52  1  0
 27 53  1  0
 27 54  1  0
 27 55  1  0
 30 56  1  0
 31 57  1  0
M  END
$$$$
