
     RDKit          3D

 52 55  0  0  0  0  0  0  0  0999 V2000
   -4.3963   -1.2863   -0.2514 C   0  0  0  0  0  0  0  0  0  0  0  0
   -3.8232   -0.2494    0.5435 O   0  0  0  0  0  0  0  0  0  0  0  0
   -4.7538    0.4902    1.2505 C   0  0  0  0  0  0  0  0  0  0  0  0
   -6.0522    0.0952    1.1872 N   0  0  0  0  0  0  0  0  0  0  0  0
   -6.9552    0.8129    1.8881 C   0  0  0  0  0  0  0  0  0  0  0  0
   -6.6277    1.9124    2.6577 C   0  0  0  0  0  0  0  0  0  0  0  0
   -5.2915    2.2993    2.7124 C   0  0  0  0  0  0  0  0  0  0  0  0
   -4.3179    1.5845    1.9993 C   0  0  0  0  0  0  0  0  0  0  0  0
   -2.9057    2.0558    2.0992 C   0  0  0  0  0  0  0  0  0  0  0  0
   -2.6312    3.0111    2.8201 O   0  0  0  0  0  0  0  0  0  0  0  0
   -1.9496    1.3925    1.3687 N   0  0  0  0  0  0  0  0  0  0  0  0
   -0.5411    1.7049    1.4782 C   0  0  0  0  0  0  0  0  0  0  0  0
    0.0663    1.0673    2.7491 C   0  0  0  0  0  0  0  0  0  0  0  0
    1.5994    0.9860    2.6744 C   0  0  0  0  0  0  0  0  0  0  0  0
    2.0744    0.1139    1.4951 C   0  0  0  0  0  0  0  0  0  0  0  0
    1.3207    0.4662    0.2582 C   0  0  0  0  0  0  0  0  0  0  0  0
    0.1470    1.2008    0.2539 C   0  0  0  0  0  0  0  0  0  0  0  0
   -0.1389    1.4034   -1.0998 C   0  0  0  0  0  0  0  0  0  0  0  0
    0.7512    0.8205   -1.8984 N   0  0  0  0  0  0  0  0  0  0  0  0
    1.6342    0.1886   -1.0672 N   0  0  0  0  0  0  0  0  0  0  0  0
    2.6721   -0.6107   -1.6421 C   0  0  0  0  0  0  0  0  0  0  0  0
    3.4648   -1.4811   -0.8859 C   0  0  0  0  0  0  0  0  0  0  0  0
    4.4690   -2.2528   -1.4947 C   0  0  0  0  0  0  0  0  0  0  0  0
    5.3349   -3.1562   -0.6648 C   0  0  0  0  0  0  0  0  0  0  0  0
    4.6893   -2.1366   -2.8720 C   0  0  0  0  0  0  0  0  0  0  0  0
    3.8962   -1.2901   -3.6503 C   0  0  0  0  0  0  0  0  0  0  0  0
    4.1249   -1.1581   -5.1269 C   0  0  0  0  0  0  0  0  0  0  0  0
    2.8920   -0.5340   -3.0296 C   0  0  0  0  0  0  0  0  0  0  0  0
   -3.5800   -1.7855   -0.7840 H   0  0  0  0  0  0  0  0  0  0  0  0
   -4.8924   -2.0377    0.3734 H   0  0  0  0  0  0  0  0  0  0  0  0
   -5.0832   -0.8782   -1.0017 H   0  0  0  0  0  0  0  0  0  0  0  0
   -7.9828    0.4689    1.8113 H   0  0  0  0  0  0  0  0  0  0  0  0
   -7.3897    2.4586    3.2029 H   0  0  0  0  0  0  0  0  0  0  0  0
   -5.0106    3.1628    3.3119 H   0  0  0  0  0  0  0  0  0  0  0  0
   -2.2141    0.5424    0.8808 H   0  0  0  0  0  0  0  0  0  0  0  0
   -0.4200    2.7944    1.5325 H   0  0  0  0  0  0  0  0  0  0  0  0
   -0.3330    0.0543    2.8935 H   0  0  0  0  0  0  0  0  0  0  0  0
   -0.2333    1.6455    3.6311 H   0  0  0  0  0  0  0  0  0  0  0  0
    1.9984    0.5792    3.6103 H   0  0  0  0  0  0  0  0  0  0  0  0
    2.0059    2.0004    2.5690 H   0  0  0  0  0  0  0  0  0  0  0  0
    3.1500    0.2702    1.3650 H   0  0  0  0  0  0  0  0  0  0  0  0
    1.8954   -0.9385    1.7429 H   0  0  0  0  0  0  0  0  0  0  0  0
   -0.9551    1.9614   -1.5413 H   0  0  0  0  0  0  0  0  0  0  0  0
    3.3127   -1.6171    0.1755 H   0  0  0  0  0  0  0  0  0  0  0  0
    6.1818   -2.5923   -0.2609 H   0  0  0  0  0  0  0  0  0  0  0  0
    4.7661   -3.5872    0.1665 H   0  0  0  0  0  0  0  0  0  0  0  0
    5.7177   -3.9902   -1.2626 H   0  0  0  0  0  0  0  0  0  0  0  0
    5.4803   -2.7175   -3.3413 H   0  0  0  0  0  0  0  0  0  0  0  0
    4.8184   -1.9216   -5.4944 H   0  0  0  0  0  0  0  0  0  0  0  0
    4.5458   -0.1740   -5.3556 H   0  0  0  0  0  0  0  0  0  0  0  0
    3.1817   -1.2811   -5.6700 H   0  0  0  0  0  0  0  0  0  0  0  0
    2.2881    0.1329   -3.6445 H   0  0  0  0  0  0  0  0  0  0  0  0
  1  2  1  0
  2  3  1  0
  3  4  2  0
  4  5  1  0
  5  6  2  0
  6  7  1  0
  7  8  2  0
  8  9  1  0
  9 10  2  0
  9 11  1  0
 11 12  1  0
 12 13  1  0
 13 14  1  0
 14 15  1  0
 15 16  1  0
 16 17  2  0
 17 18  1  0
 18 19  2  0
 19 20  1  0
 20 21  1  0
 21 22  2  0
 22 23  1  0
 23 24  1  0
 23 25  2  0
 25 26  1  0
 26 27  1  0
 26 28  2  0
  8  3  1  0
 17 12  1  0
 28 21  1  0
 20 16  1  0
  1 29  1  0
  1 30  1  0
  1 31  1  0
  5 32  1  0
  6 33  1  0
  7 34  1  0
 11 35  1  0
 12 36  1  0
 13 37  1  0
 13 38  1  0
 14 39  1  0
 14 40  1  0
 15 41  1  0
 15 42  1  0
 18 43  1  0
 22 44  1  0
 24 45  1  0
 24 46  1  0
 24 47  1  0
 25 48  1  0
 27 49  1  0
 27 50  1  0
 27 51  1  0
 28 52  1  0
M  END
$$$$
