
     RDKit          3D

 41 42  0  0  0  0  0  0  0  0999 V2000
   -0.8217    0.3584   -1.7630 O   0  0  0  0  0  0  0  0  0  0  0  0
   -0.9282    1.0742   -0.5219 C   0  0  0  0  0  0  0  0  0  0  0  0
    0.3237    1.9528   -0.3828 C   0  0  0  0  0  0  0  0  0  0  0  0
    1.4815    1.1090   -0.3851 O   0  0  0  0  0  0  0  0  0  0  0  0
    2.6862    1.8662   -0.2667 C   0  0  0  0  0  0  0  0  0  0  0  0
    3.8770    0.9381   -0.2543 C   0  0  0  0  0  0  0  0  0  0  0  0
    5.0826    1.3347   -0.8540 C   0  0  0  0  0  0  0  0  0  0  0  0
    6.2030    0.5002   -0.8171 C   0  0  0  0  0  0  0  0  0  0  0  0
    6.1290   -0.7320   -0.1721 C   0  0  0  0  0  0  0  0  0  0  0  0
    7.5099   -1.7575   -0.1248 Cl  0  0  0  0  0  0  0  0  0  0  0  0
    4.9457   -1.1352    0.4416 C   0  0  0  0  0  0  0  0  0  0  0  0
    3.8258   -0.3004    0.4050 C   0  0  0  0  0  0  0  0  0  0  0  0
   -1.0513    0.0856    0.6674 C   0  0  0  0  0  0  0  0  0  0  0  0
   -2.3342   -0.6202    0.8371 N   0  0  0  0  0  0  0  0  0  0  0  0
   -2.7523   -1.3877   -0.3333 C   0  0  0  0  0  0  0  0  0  0  0  0
   -3.8583   -2.3768    0.0564 C   0  0  0  0  0  0  0  0  0  0  0  0
   -4.8549   -1.8033    1.0678 C   0  0  0  0  0  0  0  0  0  0  0  0
   -4.8162   -0.2829    1.0767 C   0  0  0  0  0  0  0  0  0  0  0  0
   -3.4012    0.2385    1.3647 C   0  0  0  0  0  0  0  0  0  0  0  0
    0.0643   -0.0543   -1.7487 H   0  0  0  0  0  0  0  0  0  0  0  0
   -1.8077    1.7222   -0.5869 H   0  0  0  0  0  0  0  0  0  0  0  0
    0.3883    2.6346   -1.2390 H   0  0  0  0  0  0  0  0  0  0  0  0
    0.2866    2.5354    0.5447 H   0  0  0  0  0  0  0  0  0  0  0  0
    2.6750    2.4439    0.6657 H   0  0  0  0  0  0  0  0  0  0  0  0
    2.7553    2.5546   -1.1175 H   0  0  0  0  0  0  0  0  0  0  0  0
    5.1579    2.2971   -1.3570 H   0  0  0  0  0  0  0  0  0  0  0  0
    7.1286    0.8182   -1.2905 H   0  0  0  0  0  0  0  0  0  0  0  0
    4.8861   -2.0937    0.9498 H   0  0  0  0  0  0  0  0  0  0  0  0
    2.9065   -0.6229    0.8906 H   0  0  0  0  0  0  0  0  0  0  0  0
   -0.8330    0.6150    1.6041 H   0  0  0  0  0  0  0  0  0  0  0  0
   -0.2739   -0.6838    0.5708 H   0  0  0  0  0  0  0  0  0  0  0  0
   -1.9151   -1.9658   -0.7440 H   0  0  0  0  0  0  0  0  0  0  0  0
   -3.1138   -0.7264   -1.1309 H   0  0  0  0  0  0  0  0  0  0  0  0
   -3.4171   -3.2903    0.4755 H   0  0  0  0  0  0  0  0  0  0  0  0
   -4.3910   -2.6800   -0.8535 H   0  0  0  0  0  0  0  0  0  0  0  0
   -4.6055   -2.1743    2.0692 H   0  0  0  0  0  0  0  0  0  0  0  0
   -5.8658   -2.1624    0.8453 H   0  0  0  0  0  0  0  0  0  0  0  0
   -5.5149    0.1093    1.8247 H   0  0  0  0  0  0  0  0  0  0  0  0
   -5.1520    0.0908    0.1014 H   0  0  0  0  0  0  0  0  0  0  0  0
   -3.3394    1.2609    0.9750 H   0  0  0  0  0  0  0  0  0  0  0  0
   -3.2658    0.3103    2.4514 H   0  0  0  0  0  0  0  0  0  0  0  0
  1  2  1  0
  2  3  1  0
  3  4  1  0
  4  5  1  0
  5  6  1  0
  6  7  2  0
  7  8  1  0
  8  9  2  0
  9 10  1  0
  9 11  1  0
 11 12  2  0
  2 13  1  0
 13 14  1  0
 14 15  1  0
 15 16  1  0
 16 17  1  0
 17 18  1  0
 18 19  1  0
 12  6  1  0
 19 14  1  0
  1 20  1  0
  2 21  1  0
  3 22  1  0
  3 23  1  0
  5 24  1  0
  5 25  1  0
  7 26  1  0
  8 27  1  0
 11 28  1  0
 12 29  1  0
 13 30  1  0
 13 31  1  0
 15 32  1  0
 15 33  1  0
 16 34  1  0
 16 35  1  0
 17 36  1  0
 17 37  1  0
 18 38  1  0
 18 39  1  0
 19 40  1  0
 19 41  1  0
M  END
$$$$
