
     RDKit          3D

 30 31  0  0  0  0  0  0  0  0999 V2000
    0.1470    0.7608   -2.9042 C   0  0  0  0  0  0  0  0  0  0  0  0
    0.4580    0.3603   -1.5722 O   0  0  0  0  0  0  0  0  0  0  0  0
   -0.5768   -0.0305   -0.7566 C   0  0  0  0  0  0  0  0  0  0  0  0
   -1.9174   -0.0563   -1.1787 C   0  0  0  0  0  0  0  0  0  0  0  0
   -2.9473   -0.4531   -0.3151 C   0  0  0  0  0  0  0  0  0  0  0  0
   -4.6219   -0.4730   -0.9337 S   0  0  0  0  0  0  0  0  0  0  0  0
   -5.4761    0.4284    0.3885 C   0  0  0  0  0  0  0  0  0  0  0  0
   -2.6327   -0.8552    0.9798 C   0  0  0  0  0  0  0  0  0  0  0  0
   -1.3062   -0.8340    1.4148 C   0  0  0  0  0  0  0  0  0  0  0  0
   -0.2635   -0.4218    0.5633 C   0  0  0  0  0  0  0  0  0  0  0  0
    1.1236   -0.4414    1.1567 C   0  0  0  0  0  0  0  0  0  0  0  0
    1.2440   -0.7552    2.3371 O   0  0  0  0  0  0  0  0  0  0  0  0
    2.1486   -0.1021    0.3098 N   0  0  0  0  0  0  0  0  0  0  0  0
    3.4597   -0.0714    0.6865 C   0  0  0  0  0  0  0  0  0  0  0  0
    4.0091   -0.3385    1.8427 N   0  0  0  0  0  0  0  0  0  0  0  0
    5.3758   -0.1710    1.7501 C   0  0  0  0  0  0  0  0  0  0  0  0
    5.8440    0.2240    0.5148 C   0  0  0  0  0  0  0  0  0  0  0  0
    4.5247    0.3915   -0.5697 S   0  0  0  0  0  0  0  0  0  0  0  0
    1.0855    1.0369   -3.3944 H   0  0  0  0  0  0  0  0  0  0  0  0
   -0.5023    1.6423   -2.9095 H   0  0  0  0  0  0  0  0  0  0  0  0
   -0.2933   -0.0657   -3.4714 H   0  0  0  0  0  0  0  0  0  0  0  0
   -2.1933    0.2341   -2.1883 H   0  0  0  0  0  0  0  0  0  0  0  0
   -6.5054    0.6246    0.0761 H   0  0  0  0  0  0  0  0  0  0  0  0
   -4.9845    1.3860    0.5816 H   0  0  0  0  0  0  0  0  0  0  0  0
   -5.5051   -0.1611    1.3082 H   0  0  0  0  0  0  0  0  0  0  0  0
   -3.4018   -1.2031    1.6642 H   0  0  0  0  0  0  0  0  0  0  0  0
   -1.0870   -1.1519    2.4341 H   0  0  0  0  0  0  0  0  0  0  0  0
    1.9431    0.1478   -0.6478 H   0  0  0  0  0  0  0  0  0  0  0  0
    5.9892   -0.3527    2.6242 H   0  0  0  0  0  0  0  0  0  0  0  0
    6.8621    0.4151    0.2091 H   0  0  0  0  0  0  0  0  0  0  0  0
  1  2  1  0
  2  3  1  0
  3  4  2  0
  4  5  1  0
  5  6  1  0
  6  7  1  0
  5  8  2  0
  8  9  1  0
  9 10  2  0
 10 11  1  0
 11 12  2  0
 11 13  1  0
 13 14  1  0
 14 15  2  0
 15 16  1  0
 16 17  2  0
 17 18  1  0
 10  3  1  0
 18 14  1  0
  1 19  1  0
  1 20  1  0
  1 21  1  0
  4 22  1  0
  7 23  1  0
  7 24  1  0
  7 25  1  0
  8 26  1  0
  9 27  1  0
 13 28  1  0
 16 29  1  0
 17 30  1  0
M  END
$$$$
