
     RDKit          3D

 43 46  0  0  0  0  0  0  0  0999 V2000
   -4.5936   -1.1147    0.9494 C   0  0  0  0  0  0  0  0  0  0  0  0
   -3.6595   -0.5430   -0.0087 N   0  0  0  0  0  0  0  0  0  0  0  0
   -4.1529    0.3951   -0.9141 C   0  0  0  0  0  0  0  0  0  0  0  0
   -5.3249    0.7632   -0.9383 O   0  0  0  0  0  0  0  0  0  0  0  0
   -3.1747    0.9995   -1.9283 C   0  0  0  0  0  0  0  0  0  0  0  0
   -3.5960    1.8390   -2.7202 O   0  0  0  0  0  0  0  0  0  0  0  0
   -1.8511    0.5654   -1.8966 N   0  0  0  0  0  0  0  0  0  0  0  0
   -0.9249    1.1429   -2.8604 C   0  0  0  0  0  0  0  0  0  0  0  0
   -1.3997   -0.3956   -0.9513 C   0  0  0  0  0  0  0  0  0  0  0  0
   -0.0566   -0.8101   -0.9369 C   0  0  0  0  0  0  0  0  0  0  0  0
    0.4001   -1.7254    0.0157 C   0  0  0  0  0  0  0  0  0  0  0  0
    2.1158   -2.2233    0.0067 S   0  0  0  0  0  6  0  0  0  0  0  0
    2.2071   -3.4386    0.7917 O   0  0  0  0  0  0  0  0  0  0  0  0
    2.5507   -2.2066   -1.3747 O   0  0  0  0  0  0  0  0  0  0  0  0
    2.8891   -0.9839    0.8765 N   0  0  0  0  0  0  0  0  0  0  0  0
    2.5690   -0.8694    2.3350 C   0  0  0  0  0  0  0  0  0  0  0  0
    1.9960    0.5433    2.5476 C   0  0  0  0  0  0  0  0  0  0  0  0
    2.3897    1.2434    1.2886 C   0  0  0  0  0  0  0  0  0  0  0  0
    2.2775    2.5919    0.9915 C   0  0  0  0  0  0  0  0  0  0  0  0
    2.6824    3.0269   -0.2728 C   0  0  0  0  0  0  0  0  0  0  0  0
    3.1916    2.1177   -1.2134 C   0  0  0  0  0  0  0  0  0  0  0  0
    3.2920    0.7590   -0.9053 C   0  0  0  0  0  0  0  0  0  0  0  0
    2.8653    0.3400    0.3418 C   0  0  0  0  0  0  0  0  0  0  0  0
   -0.4826   -2.2853    0.9314 C   0  0  0  0  0  0  0  0  0  0  0  0
   -1.8209   -1.8907    0.9161 C   0  0  0  0  0  0  0  0  0  0  0  0
   -2.2953   -0.9426   -0.0122 C   0  0  0  0  0  0  0  0  0  0  0  0
   -4.2611   -0.8811    1.9659 H   0  0  0  0  0  0  0  0  0  0  0  0
   -5.6043   -0.7140    0.8314 H   0  0  0  0  0  0  0  0  0  0  0  0
   -4.6475   -2.1982    0.8033 H   0  0  0  0  0  0  0  0  0  0  0  0
   -0.5131    0.3487   -3.4912 H   0  0  0  0  0  0  0  0  0  0  0  0
   -1.4126    1.8682   -3.5178 H   0  0  0  0  0  0  0  0  0  0  0  0
   -0.1234    1.6646   -2.3277 H   0  0  0  0  0  0  0  0  0  0  0  0
    0.6582   -0.4276   -1.6600 H   0  0  0  0  0  0  0  0  0  0  0  0
    1.8774   -1.6342    2.6982 H   0  0  0  0  0  0  0  0  0  0  0  0
    3.5068   -0.9884    2.8920 H   0  0  0  0  0  0  0  0  0  0  0  0
    0.9045    0.5100    2.6309 H   0  0  0  0  0  0  0  0  0  0  0  0
    2.4195    1.0143    3.4392 H   0  0  0  0  0  0  0  0  0  0  0  0
    1.8884    3.2985    1.7182 H   0  0  0  0  0  0  0  0  0  0  0  0
    2.6122    4.0821   -0.5293 H   0  0  0  0  0  0  0  0  0  0  0  0
    3.5202    2.4758   -2.1867 H   0  0  0  0  0  0  0  0  0  0  0  0
    3.7079    0.0621   -1.6259 H   0  0  0  0  0  0  0  0  0  0  0  0
   -0.1474   -3.0282    1.6526 H   0  0  0  0  0  0  0  0  0  0  0  0
   -2.4793   -2.3505    1.6483 H   0  0  0  0  0  0  0  0  0  0  0  0
  1  2  1  0
  2  3  1  0
  3  4  2  0
  3  5  1  0
  5  6  2  0
  5  7  1  0
  7  8  1  0
  7  9  1  0
  9 10  2  0
 10 11  1  0
 11 12  1  0
 12 13  2  0
 12 14  2  0
 12 15  1  0
 15 16  1  0
 16 17  1  0
 17 18  1  0
 18 19  2  0
 19 20  1  0
 20 21  2  0
 21 22  1  0
 22 23  2  0
 11 24  2  0
 24 25  1  0
 25 26  2  0
 26  2  1  0
 26  9  1  0
 23 15  1  0
 23 18  1  0
  1 27  1  0
  1 28  1  0
  1 29  1  0
  8 30  1  0
  8 31  1  0
  8 32  1  0
 10 33  1  0
 16 34  1  0
 16 35  1  0
 17 36  1  0
 17 37  1  0
 19 38  1  0
 20 39  1  0
 21 40  1  0
 22 41  1  0
 24 42  1  0
 25 43  1  0
M  END
$$$$
