
     RDKit          3D

 74 77  0  0  0  0  0  0  0  0999 V2000
    2.6331    2.1542   -1.4950 C   0  0  0  0  0  0  0  0  0  0  0  0
    1.4616    2.3412   -0.5166 C   0  0  0  0  0  0  0  0  0  0  0  0
    0.6952    3.6058   -0.9439 C   0  0  0  0  0  0  0  0  0  0  0  0
   -0.0710    4.2196    0.1411 N   0  0  0  0  0  0  0  0  0  0  0  0
    0.4978    5.3840    0.8685 C   0  0  0  0  0  0  0  0  0  0  0  0
    1.9261    5.1434    1.3680 C   0  0  0  0  0  0  0  0  0  0  0  0
    0.3925    6.6789    0.0279 C   0  0  0  0  0  0  0  0  0  0  0  0
    0.7727    7.8420    0.7593 O   0  0  0  0  0  0  0  0  0  0  0  0
   -1.4540    4.0346    0.2535 C   0  0  0  0  0  0  0  0  0  0  0  0
   -2.1777    4.7832    0.9092 O   0  0  0  0  0  0  0  0  0  0  0  0
   -2.1126    2.9306   -0.4763 C   0  0  0  0  0  0  0  0  0  0  0  0
   -3.2416    3.2627   -1.2344 C   0  0  0  0  0  0  0  0  0  0  0  0
   -3.9766    2.2584   -1.8515 C   0  0  0  0  0  0  0  0  0  0  0  0
   -3.6238    0.9207   -1.6625 C   0  0  0  0  0  0  0  0  0  0  0  0
   -2.5170    0.5670   -0.8791 C   0  0  0  0  0  0  0  0  0  0  0  0
   -2.2275   -0.7736   -0.5230 N   0  0  0  0  0  0  0  0  0  0  0  0
   -2.9428   -1.9120   -0.8730 C   0  0  0  0  0  0  0  0  0  0  0  0
   -3.8083   -1.9468   -1.7397 O   0  0  0  0  0  0  0  0  0  0  0  0
   -2.5634   -2.9915   -0.0926 N   0  0  0  0  0  0  0  0  0  0  0  0
   -3.1177   -4.2889   -0.0746 C   0  0  0  0  0  0  0  0  0  0  0  0
   -4.1934   -4.6961   -0.8638 C   0  0  0  0  0  0  0  0  0  0  0  0
   -4.6958   -5.9991   -0.7676 C   0  0  0  0  0  0  0  0  0  0  0  0
   -4.1284   -6.9053    0.1237 C   0  0  0  0  0  0  0  0  0  0  0  0
   -3.0546   -6.5116    0.9162 C   0  0  0  0  0  0  0  0  0  0  0  0
   -2.5522   -5.2116    0.8163 C   0  0  0  0  0  0  0  0  0  0  0  0
   -1.7131    1.5940   -0.3440 C   0  0  0  0  0  0  0  0  0  0  0  0
   -0.5917    1.2886    0.3914 O   0  0  0  0  0  0  0  0  0  0  0  0
    0.5672    1.0691   -0.4545 C   0  0  0  0  0  0  0  0  0  0  0  0
    1.3478   -0.1104    0.1910 C   0  0  0  0  0  0  0  0  0  0  0  0
    1.2055   -1.3609   -0.6158 N   0  0  0  0  0  0  0  0  0  0  0  0
    2.1272   -1.4339   -1.7701 C   0  0  0  0  0  0  0  0  0  0  0  0
    1.0031   -2.8067    0.2633 S   0  0  0  0  0  6  0  0  0  0  0  0
   -0.0893   -2.5758    1.1909 O   0  0  0  0  0  0  0  0  0  0  0  0
    0.9507   -3.9103   -0.6678 O   0  0  0  0  0  0  0  0  0  0  0  0
    2.5102   -2.9502    1.1916 C   0  0  0  0  0  0  0  0  0  0  0  0
    3.6176   -3.5757    0.6112 C   0  0  0  0  0  0  0  0  0  0  0  0
    4.7947   -3.7131    1.3480 C   0  0  0  0  0  0  0  0  0  0  0  0
    4.8580   -3.2394    2.6591 C   0  0  0  0  0  0  0  0  0  0  0  0
    3.7429   -2.6363    3.2426 C   0  0  0  0  0  0  0  0  0  0  0  0
    2.5615   -2.4970    2.5130 C   0  0  0  0  0  0  0  0  0  0  0  0
    3.2835    1.3237   -1.2132 H   0  0  0  0  0  0  0  0  0  0  0  0
    3.2619    3.0514   -1.5210 H   0  0  0  0  0  0  0  0  0  0  0  0
    2.2680    1.9712   -2.5121 H   0  0  0  0  0  0  0  0  0  0  0  0
    1.8806    2.5069    0.4827 H   0  0  0  0  0  0  0  0  0  0  0  0
    1.3906    4.3659   -1.3168 H   0  0  0  0  0  0  0  0  0  0  0  0
    0.0403    3.3815   -1.7942 H   0  0  0  0  0  0  0  0  0  0  0  0
   -0.1065    5.5408    1.7719 H   0  0  0  0  0  0  0  0  0  0  0  0
    2.6393    5.0591    0.5426 H   0  0  0  0  0  0  0  0  0  0  0  0
    2.2602    5.9622    2.0140 H   0  0  0  0  0  0  0  0  0  0  0  0
    1.9761    4.2255    1.9619 H   0  0  0  0  0  0  0  0  0  0  0  0
    1.0198    6.6234   -0.8687 H   0  0  0  0  0  0  0  0  0  0  0  0
   -0.6389    6.8280   -0.3112 H   0  0  0  0  0  0  0  0  0  0  0  0
    1.7325    7.8098    0.9092 H   0  0  0  0  0  0  0  0  0  0  0  0
   -3.5602    4.2998   -1.3206 H   0  0  0  0  0  0  0  0  0  0  0  0
   -4.8604    2.5070   -2.4354 H   0  0  0  0  0  0  0  0  0  0  0  0
   -4.2715    0.1726   -2.1115 H   0  0  0  0  0  0  0  0  0  0  0  0
   -1.4787   -0.8963    0.1467 H   0  0  0  0  0  0  0  0  0  0  0  0
   -1.7973   -2.8359    0.5555 H   0  0  0  0  0  0  0  0  0  0  0  0
   -4.6695   -4.0229   -1.5681 H   0  0  0  0  0  0  0  0  0  0  0  0
   -5.5321   -6.2983   -1.3951 H   0  0  0  0  0  0  0  0  0  0  0  0
   -4.5229   -7.9147    0.1996 H   0  0  0  0  0  0  0  0  0  0  0  0
   -2.6093   -7.2130    1.6169 H   0  0  0  0  0  0  0  0  0  0  0  0
   -1.7142   -4.9271    1.4461 H   0  0  0  0  0  0  0  0  0  0  0  0
    0.2558    0.8009   -1.4744 H   0  0  0  0  0  0  0  0  0  0  0  0
    2.4153    0.1019    0.3091 H   0  0  0  0  0  0  0  0  0  0  0  0
    0.9600   -0.2731    1.2032 H   0  0  0  0  0  0  0  0  0  0  0  0
    3.1699   -1.3953   -1.4456 H   0  0  0  0  0  0  0  0  0  0  0  0
    1.9637   -2.3422   -2.3552 H   0  0  0  0  0  0  0  0  0  0  0  0
    1.9418   -0.5945   -2.4468 H   0  0  0  0  0  0  0  0  0  0  0  0
    3.5689   -3.9680   -0.4024 H   0  0  0  0  0  0  0  0  0  0  0  0
    5.6613   -4.1987    0.9041 H   0  0  0  0  0  0  0  0  0  0  0  0
    5.7753   -3.3523    3.2323 H   0  0  0  0  0  0  0  0  0  0  0  0
    3.7926   -2.2846    4.2709 H   0  0  0  0  0  0  0  0  0  0  0  0
    1.6914   -2.0468    2.9860 H   0  0  0  0  0  0  0  0  0  0  0  0
  1  2  1  0
  2  3  1  0
  3  4  1  0
  4  5  1  0
  5  6  1  0
  5  7  1  0
  7  8  1  0
  4  9  1  0
  9 10  2  0
  9 11  1  0
 11 12  2  0
 12 13  1  0
 13 14  2  0
 14 15  1  0
 15 16  1  0
 16 17  1  0
 17 18  2  0
 17 19  1  0
 19 20  1  0
 20 21  2  0
 21 22  1  0
 22 23  2  0
 23 24  1  0
 24 25  2  0
 15 26  2  0
 26 27  1  0
 27 28  1  0
 28 29  1  0
 29 30  1  0
 30 31  1  0
 30 32  1  0
 32 33  2  0
 32 34  2  0
 32 35  1  0
 35 36  2  0
 36 37  1  0
 37 38  2  0
 38 39  1  0
 39 40  2  0
 28  2  1  0
 40 35  1  0
 26 11  1  0
 25 20  1  0
  1 41  1  0
  1 42  1  0
  1 43  1  0
  2 44  1  0
  3 45  1  0
  3 46  1  0
  5 47  1  0
  6 48  1  0
  6 49  1  0
  6 50  1  0
  7 51  1  0
  7 52  1  0
  8 53  1  0
 12 54  1  0
 13 55  1  0
 14 56  1  0
 16 57  1  0
 19 58  1  0
 21 59  1  0
 22 60  1  0
 23 61  1  0
 24 62  1  0
 25 63  1  0
 28 64  1  0
 29 65  1  0
 29 66  1  0
 31 67  1  0
 31 68  1  0
 31 69  1  0
 36 70  1  0
 37 71  1  0
 38 72  1  0
 39 73  1  0
 40 74  1  0
M  END
$$$$
