
     RDKit          3D

 41 42  0  0  0  0  0  0  0  0999 V2000
   -4.9215   -1.3903   -3.2123 C   0  0  0  0  0  0  0  0  0  0  0  0
   -5.3526    0.3640   -3.0618 S   0  0  0  0  0  0  0  0  0  0  0  0
   -3.9699    0.9500   -2.0986 C   0  0  0  0  0  0  0  0  0  0  0  0
   -2.6475    0.7357   -2.4954 C   0  0  0  0  0  0  0  0  0  0  0  0
   -1.5900    1.2229   -1.7221 C   0  0  0  0  0  0  0  0  0  0  0  0
   -1.8382    1.9414   -0.5439 C   0  0  0  0  0  0  0  0  0  0  0  0
   -0.6886    2.4722    0.2864 C   0  0  0  0  0  0  0  0  0  0  0  0
    0.1376    1.3976    0.8743 N   0  0  0  0  0  0  0  0  0  0  0  0
   -0.6054    0.7140    1.9485 C   0  0  0  0  0  0  0  0  0  0  0  0
    1.3879    1.9899    1.4289 C   0  0  0  0  0  0  0  0  0  0  0  0
    2.4701    0.9191    1.6457 C   0  0  0  0  0  0  0  0  0  0  0  0
    3.3727    1.0902    2.4592 O   0  0  0  0  0  0  0  0  0  0  0  0
    2.3140   -0.1613    0.7960 N   0  0  0  0  0  0  0  0  0  0  0  0
    3.1184   -1.3058    0.6740 C   0  0  0  0  0  0  0  0  0  0  0  0
    2.6903   -2.2908   -0.2266 C   0  0  0  0  0  0  0  0  0  0  0  0
    3.4311   -3.4610   -0.4098 C   0  0  0  0  0  0  0  0  0  0  0  0
    4.6095   -3.6559    0.3061 C   0  0  0  0  0  0  0  0  0  0  0  0
    5.0382   -2.6770    1.2003 C   0  0  0  0  0  0  0  0  0  0  0  0
    6.6405   -2.9426    2.1714 Br  0  0  0  0  0  0  0  0  0  0  0  0
    4.3013   -1.5051    1.3876 C   0  0  0  0  0  0  0  0  0  0  0  0
   -3.1654    2.1673   -0.1578 C   0  0  0  0  0  0  0  0  0  0  0  0
   -4.2216    1.6780   -0.9322 C   0  0  0  0  0  0  0  0  0  0  0  0
   -4.0385   -1.5229   -3.8426 H   0  0  0  0  0  0  0  0  0  0  0  0
   -4.7371   -1.8282   -2.2274 H   0  0  0  0  0  0  0  0  0  0  0  0
   -5.7556   -1.9228   -3.6773 H   0  0  0  0  0  0  0  0  0  0  0  0
   -2.4228    0.2023   -3.4149 H   0  0  0  0  0  0  0  0  0  0  0  0
   -0.5666    1.0459   -2.0451 H   0  0  0  0  0  0  0  0  0  0  0  0
   -0.0798    3.0840   -0.3931 H   0  0  0  0  0  0  0  0  0  0  0  0
   -1.0548    3.1564    1.0636 H   0  0  0  0  0  0  0  0  0  0  0  0
   -0.9316    1.4094    2.7308 H   0  0  0  0  0  0  0  0  0  0  0  0
   -1.4873    0.2012    1.5507 H   0  0  0  0  0  0  0  0  0  0  0  0
    0.0058   -0.0629    2.4205 H   0  0  0  0  0  0  0  0  0  0  0  0
    1.1996    2.5156    2.3723 H   0  0  0  0  0  0  0  0  0  0  0  0
    1.8239    2.7011    0.7164 H   0  0  0  0  0  0  0  0  0  0  0  0
    1.4554   -0.1182    0.2498 H   0  0  0  0  0  0  0  0  0  0  0  0
    1.7734   -2.1599   -0.7963 H   0  0  0  0  0  0  0  0  0  0  0  0
    3.0889   -4.2183   -1.1104 H   0  0  0  0  0  0  0  0  0  0  0  0
    5.1840   -4.5670    0.1620 H   0  0  0  0  0  0  0  0  0  0  0  0
    4.6668   -0.7640    2.0907 H   0  0  0  0  0  0  0  0  0  0  0  0
   -3.3903    2.7261    0.7478 H   0  0  0  0  0  0  0  0  0  0  0  0
   -5.2442    1.8696   -0.6149 H   0  0  0  0  0  0  0  0  0  0  0  0
  1  2  1  0
  2  3  1  0
  3  4  2  0
  4  5  1  0
  5  6  2  0
  6  7  1  0
  7  8  1  0
  8  9  1  0
  8 10  1  0
 10 11  1  0
 11 12  2  0
 11 13  1  0
 13 14  1  0
 14 15  2  0
 15 16  1  0
 16 17  2  0
 17 18  1  0
 18 19  1  0
 18 20  2  0
  6 21  1  0
 21 22  2  0
 22  3  1  0
 20 14  1  0
  1 23  1  0
  1 24  1  0
  1 25  1  0
  4 26  1  0
  5 27  1  0
  7 28  1  0
  7 29  1  0
  9 30  1  0
  9 31  1  0
  9 32  1  0
 10 33  1  0
 10 34  1  0
 13 35  1  0
 15 36  1  0
 16 37  1  0
 17 38  1  0
 20 39  1  0
 21 40  1  0
 22 41  1  0
M  END
$$$$
