
     RDKit          3D

 45 47  0  0  0  0  0  0  0  0999 V2000
    6.3303   -1.0536    1.3158 C   0  0  0  0  0  0  0  0  0  0  0  0
    5.0121   -0.5113    0.8960 C   0  0  0  0  0  0  0  0  0  0  0  0
    4.4430    0.5611    1.5364 N   0  0  0  0  0  0  0  0  0  0  0  0
    3.2372    0.8848    0.9617 C   0  0  0  0  0  0  0  0  0  0  0  0
    2.3371    1.9086    1.2780 C   0  0  0  0  0  0  0  0  0  0  0  0
    1.1736    2.0061    0.5089 C   0  0  0  0  0  0  0  0  0  0  0  0
    0.9172    1.1071   -0.5307 C   0  0  0  0  0  0  0  0  0  0  0  0
   -0.3439    1.2683   -1.3065 C   0  0  0  0  0  0  0  0  0  0  0  0
   -0.8590    2.3757   -1.4174 O   0  0  0  0  0  0  0  0  0  0  0  0
   -0.8798    0.1123   -1.8381 N   0  0  0  0  0  0  0  0  0  0  0  0
   -2.2076    0.0981   -2.4295 C   0  0  0  0  0  0  0  0  0  0  0  0
   -3.2439   -0.6366   -1.5483 C   0  0  0  0  0  0  0  0  0  0  0  0
   -3.2054   -0.2993   -0.1160 N   0  0  0  0  0  0  0  0  0  0  0  0
   -4.0281   -1.2386    0.6728 C   0  0  0  0  0  0  0  0  0  0  0  0
   -4.3796   -0.6592    2.0502 C   0  0  0  0  0  0  0  0  0  0  0  0
   -5.2058    0.5092    1.9625 O   0  0  0  0  0  0  0  0  0  0  0  0
   -5.0007    1.2526    0.7534 C   0  0  0  0  0  0  0  0  0  0  0  0
   -3.5852    1.1019    0.1711 C   0  0  0  0  0  0  0  0  0  0  0  0
    1.8422    0.0961   -0.8397 C   0  0  0  0  0  0  0  0  0  0  0  0
    3.0227   -0.0209   -0.0750 C   0  0  0  0  0  0  0  0  0  0  0  0
    4.1479   -0.9073   -0.1125 C   0  0  0  0  0  0  0  0  0  0  0  0
    4.3506   -2.0291   -1.0693 C   0  0  0  0  0  0  0  0  0  0  0  0
    6.8814   -0.3370    1.9334 H   0  0  0  0  0  0  0  0  0  0  0  0
    6.9480   -1.2855    0.4423 H   0  0  0  0  0  0  0  0  0  0  0  0
    6.1939   -1.9717    1.8959 H   0  0  0  0  0  0  0  0  0  0  0  0
    4.8532    1.0583    2.3143 H   0  0  0  0  0  0  0  0  0  0  0  0
    2.5289    2.6072    2.0860 H   0  0  0  0  0  0  0  0  0  0  0  0
    0.4559    2.7948    0.7296 H   0  0  0  0  0  0  0  0  0  0  0  0
   -0.5397   -0.7689   -1.4785 H   0  0  0  0  0  0  0  0  0  0  0  0
   -2.5381    1.1188   -2.6449 H   0  0  0  0  0  0  0  0  0  0  0  0
   -2.1192   -0.4268   -3.3868 H   0  0  0  0  0  0  0  0  0  0  0  0
   -4.2470   -0.4798   -1.9649 H   0  0  0  0  0  0  0  0  0  0  0  0
   -3.0273   -1.7092   -1.6446 H   0  0  0  0  0  0  0  0  0  0  0  0
   -4.9637   -1.4638    0.1440 H   0  0  0  0  0  0  0  0  0  0  0  0
   -3.4771   -2.1771    0.8000 H   0  0  0  0  0  0  0  0  0  0  0  0
   -4.9249   -1.4010    2.6426 H   0  0  0  0  0  0  0  0  0  0  0  0
   -3.4732   -0.3991    2.6097 H   0  0  0  0  0  0  0  0  0  0  0  0
   -5.7525    0.9289    0.0242 H   0  0  0  0  0  0  0  0  0  0  0  0
   -5.2026    2.3045    0.9799 H   0  0  0  0  0  0  0  0  0  0  0  0
   -3.4891    1.7500   -0.7050 H   0  0  0  0  0  0  0  0  0  0  0  0
   -2.8692    1.4762    0.9136 H   0  0  0  0  0  0  0  0  0  0  0  0
    1.6782   -0.5789   -1.6726 H   0  0  0  0  0  0  0  0  0  0  0  0
    3.4022   -2.5255   -1.2988 H   0  0  0  0  0  0  0  0  0  0  0  0
    5.0264   -2.7863   -0.6580 H   0  0  0  0  0  0  0  0  0  0  0  0
    4.7808   -1.6540   -2.0037 H   0  0  0  0  0  0  0  0  0  0  0  0
  1  2  1  0
  2  3  1  0
  3  4  1  0
  4  5  2  0
  5  6  1  0
  6  7  2  0
  7  8  1  0
  8  9  2  0
  8 10  1  0
 10 11  1  0
 11 12  1  0
 12 13  1  0
 13 14  1  0
 14 15  1  0
 15 16  1  0
 16 17  1  0
 17 18  1  0
  7 19  1  0
 19 20  2  0
 20 21  1  0
 21 22  1  0
 21  2  2  0
 20  4  1  0
 18 13  1  0
  1 23  1  0
  1 24  1  0
  1 25  1  0
  3 26  1  0
  5 27  1  0
  6 28  1  0
 10 29  1  0
 11 30  1  0
 11 31  1  0
 12 32  1  0
 12 33  1  0
 14 34  1  0
 14 35  1  0
 15 36  1  0
 15 37  1  0
 17 38  1  0
 17 39  1  0
 18 40  1  0
 18 41  1  0
 19 42  1  0
 22 43  1  0
 22 44  1  0
 22 45  1  0
M  END
$$$$
