
     RDKit          3D

 38 40  0  0  0  0  0  0  0  0999 V2000
   -2.9802    1.9307    1.8519 C   0  0  0  0  0  0  0  0  0  0  0  0
   -3.5614    1.0106    0.8319 C   0  0  0  0  0  0  0  0  0  0  0  0
   -4.9015    0.7327    0.6420 C   0  0  0  0  0  0  0  0  0  0  0  0
   -5.0004   -0.2637   -0.3416 C   0  0  0  0  0  0  0  0  0  0  0  0
   -3.7215   -0.5716   -0.7646 C   0  0  0  0  0  0  0  0  0  0  0  0
   -3.3521   -1.4967   -1.8757 C   0  0  0  0  0  0  0  0  0  0  0  0
   -2.8202    0.2071   -0.0363 N   0  0  0  0  0  0  0  0  0  0  0  0
   -1.4044    0.1875   -0.1569 C   0  0  0  0  0  0  0  0  0  0  0  0
   -0.6577    1.3594   -0.1578 C   0  0  0  0  0  0  0  0  0  0  0  0
    0.7318    1.2823   -0.2836 C   0  0  0  0  0  0  0  0  0  0  0  0
    1.3650    0.0431   -0.3939 C   0  0  0  0  0  0  0  0  0  0  0  0
    2.7451   -0.0416   -0.5432 N   0  0  0  0  0  0  0  0  0  0  0  0
    3.6028    0.8161    0.2937 C   0  0  0  0  0  0  0  0  0  0  0  0
    4.6602   -0.0200    1.0354 C   0  0  0  0  0  0  0  0  0  0  0  0
    5.4988   -0.7911    0.1645 O   0  0  0  0  0  0  0  0  0  0  0  0
    4.8041   -1.3013   -0.9860 C   0  0  0  0  0  0  0  0  0  0  0  0
    3.2802   -1.3877   -0.8089 C   0  0  0  0  0  0  0  0  0  0  0  0
    0.6342   -1.0930   -0.4078 N   0  0  0  0  0  0  0  0  0  0  0  0
   -0.7140   -1.0056   -0.2837 C   0  0  0  0  0  0  0  0  0  0  0  0
   -2.7318    2.8979    1.4053 H   0  0  0  0  0  0  0  0  0  0  0  0
   -3.7044    2.1178    2.6528 H   0  0  0  0  0  0  0  0  0  0  0  0
   -2.0885    1.5060    2.3225 H   0  0  0  0  0  0  0  0  0  0  0  0
   -5.7214    1.1919    1.1803 H   0  0  0  0  0  0  0  0  0  0  0  0
   -5.9128   -0.7005   -0.7286 H   0  0  0  0  0  0  0  0  0  0  0  0
   -3.0642   -2.4768   -1.4847 H   0  0  0  0  0  0  0  0  0  0  0  0
   -4.2074   -1.6501   -2.5434 H   0  0  0  0  0  0  0  0  0  0  0  0
   -2.5392   -1.0943   -2.4875 H   0  0  0  0  0  0  0  0  0  0  0  0
   -1.1265    2.3371   -0.1209 H   0  0  0  0  0  0  0  0  0  0  0  0
    1.3077    2.2005   -0.3319 H   0  0  0  0  0  0  0  0  0  0  0  0
    3.0344    1.3837    1.0393 H   0  0  0  0  0  0  0  0  0  0  0  0
    4.1046    1.5321   -0.3673 H   0  0  0  0  0  0  0  0  0  0  0  0
    4.1797   -0.7098    1.7395 H   0  0  0  0  0  0  0  0  0  0  0  0
    5.3122    0.6366    1.6205 H   0  0  0  0  0  0  0  0  0  0  0  0
    5.2164   -2.2912   -1.2057 H   0  0  0  0  0  0  0  0  0  0  0  0
    5.0510   -0.6481   -1.8312 H   0  0  0  0  0  0  0  0  0  0  0  0
    3.0517   -2.0605    0.0277 H   0  0  0  0  0  0  0  0  0  0  0  0
    2.8408   -1.8001   -1.7249 H   0  0  0  0  0  0  0  0  0  0  0  0
   -1.2109   -1.9696   -0.2503 H   0  0  0  0  0  0  0  0  0  0  0  0
  1  2  1  0
  2  3  2  0
  3  4  1  0
  4  5  2  0
  5  6  1  0
  5  7  1  0
  7  8  1  0
  8  9  2  0
  9 10  1  0
 10 11  2  0
 11 12  1  0
 12 13  1  0
 13 14  1  0
 14 15  1  0
 15 16  1  0
 16 17  1  0
 11 18  1  0
 18 19  2  0
  7  2  1  0
 19  8  1  0
 17 12  1  0
  1 20  1  0
  1 21  1  0
  1 22  1  0
  3 23  1  0
  4 24  1  0
  6 25  1  0
  6 26  1  0
  6 27  1  0
  9 28  1  0
 10 29  1  0
 13 30  1  0
 13 31  1  0
 14 32  1  0
 14 33  1  0
 16 34  1  0
 16 35  1  0
 17 36  1  0
 17 37  1  0
 19 38  1  0
M  END
$$$$
