
     RDKit          3D

 46 48  0  0  0  0  0  0  0  0999 V2000
    5.0382   -0.1635   -3.2993 C   0  0  0  0  0  0  0  0  0  0  0  0
    4.8696   -1.0453   -2.1963 O   0  0  0  0  0  0  0  0  0  0  0  0
    3.8605   -0.7532   -1.3216 C   0  0  0  0  0  0  0  0  0  0  0  0
    3.7174   -1.6589   -0.2703 C   0  0  0  0  0  0  0  0  0  0  0  0
    2.7230   -1.4859    0.6984 C   0  0  0  0  0  0  0  0  0  0  0  0
    1.8390   -0.4000    0.6312 C   0  0  0  0  0  0  0  0  0  0  0  0
    0.7494   -0.1531    1.6727 C   0  0  0  0  0  0  0  0  0  0  0  0
    0.6600   -1.1351    2.8473 C   0  0  0  0  0  0  0  0  0  0  0  0
   -0.5914    0.0511    1.0652 N   0  0  0  0  0  0  0  0  0  0  0  0
   -1.4187    1.1414    1.3672 C   0  0  0  0  0  0  0  0  0  0  0  0
   -1.1017    2.1175    2.4518 C   0  0  0  0  0  0  0  0  0  0  0  0
   -2.4720    1.0966    0.4735 C   0  0  0  0  0  0  0  0  0  0  0  0
   -3.5175    2.0296    0.3147 C   0  0  0  0  0  0  0  0  0  0  0  0
   -3.7799    3.3108    1.0232 C   0  0  0  0  0  0  0  0  0  0  0  0
   -4.3974    1.6409   -0.6614 N   0  0  0  0  0  0  0  0  0  0  0  0
   -4.2662    0.4155   -1.4531 N   0  0  0  0  0  0  0  0  0  0  0  0
   -3.2472   -0.4902   -1.3135 C   0  0  0  0  0  0  0  0  0  0  0  0
   -3.2430   -1.6846   -2.2003 C   0  0  0  0  0  0  0  0  0  0  0  0
   -2.3434   -0.1036   -0.3024 C   0  0  0  0  0  0  0  0  0  0  0  0
   -1.2109   -0.7743    0.1228 C   0  0  0  0  0  0  0  0  0  0  0  0
   -0.6583   -2.0887   -0.3185 C   0  0  0  0  0  0  0  0  0  0  0  0
    2.0048    0.5151   -0.4256 C   0  0  0  0  0  0  0  0  0  0  0  0
    2.9999    0.3385   -1.3945 C   0  0  0  0  0  0  0  0  0  0  0  0
    5.8691   -0.5396   -3.9039 H   0  0  0  0  0  0  0  0  0  0  0  0
    5.3017    0.8443   -2.9617 H   0  0  0  0  0  0  0  0  0  0  0  0
    4.1454   -0.1481   -3.9332 H   0  0  0  0  0  0  0  0  0  0  0  0
    4.3891   -2.5120   -0.2039 H   0  0  0  0  0  0  0  0  0  0  0  0
    2.6573   -2.2228    1.4945 H   0  0  0  0  0  0  0  0  0  0  0  0
    1.0338    0.8125    2.1092 H   0  0  0  0  0  0  0  0  0  0  0  0
   -0.1216   -0.8311    3.5527 H   0  0  0  0  0  0  0  0  0  0  0  0
    1.6052   -1.1694    3.4002 H   0  0  0  0  0  0  0  0  0  0  0  0
    0.4242   -2.1538    2.5260 H   0  0  0  0  0  0  0  0  0  0  0  0
   -2.0069    2.5625    2.8706 H   0  0  0  0  0  0  0  0  0  0  0  0
   -0.4656    2.9199    2.0657 H   0  0  0  0  0  0  0  0  0  0  0  0
   -0.5939    1.6409    3.2954 H   0  0  0  0  0  0  0  0  0  0  0  0
   -4.5718    3.8755    0.5204 H   0  0  0  0  0  0  0  0  0  0  0  0
   -4.1049    3.1161    2.0491 H   0  0  0  0  0  0  0  0  0  0  0  0
   -2.8830    3.9365    1.0354 H   0  0  0  0  0  0  0  0  0  0  0  0
   -3.4688   -2.5856   -1.6232 H   0  0  0  0  0  0  0  0  0  0  0  0
   -2.2726   -1.7983   -2.6912 H   0  0  0  0  0  0  0  0  0  0  0  0
   -4.0021   -1.5872   -2.9832 H   0  0  0  0  0  0  0  0  0  0  0  0
    0.0206   -2.5350    0.4081 H   0  0  0  0  0  0  0  0  0  0  0  0
   -1.4603   -2.8197   -0.4548 H   0  0  0  0  0  0  0  0  0  0  0  0
   -0.1257   -1.9779   -1.2682 H   0  0  0  0  0  0  0  0  0  0  0  0
    1.3456    1.3786   -0.5104 H   0  0  0  0  0  0  0  0  0  0  0  0
    3.0711    1.0729   -2.1898 H   0  0  0  0  0  0  0  0  0  0  0  0
  1  2  1  0
  2  3  1  0
  3  4  2  0
  4  5  1  0
  5  6  2  0
  6  7  1  0
  7  8  1  0
  7  9  1  0
  9 10  1  0
 10 11  1  0
 10 12  2  0
 12 13  1  0
 13 14  1  0
 13 15  2  0
 15 16  1  0
 16 17  2  0
 17 18  1  0
 17 19  1  0
 19 20  2  0
 20 21  1  0
  6 22  1  0
 22 23  2  0
 23  3  1  0
 20  9  1  0
 19 12  1  0
  1 24  1  0
  1 25  1  0
  1 26  1  0
  4 27  1  0
  5 28  1  0
  7 29  1  0
  8 30  1  0
  8 31  1  0
  8 32  1  0
 11 33  1  0
 11 34  1  0
 11 35  1  0
 14 36  1  0
 14 37  1  0
 14 38  1  0
 18 39  1  0
 18 40  1  0
 18 41  1  0
 21 42  1  0
 21 43  1  0
 21 44  1  0
 22 45  1  0
 23 46  1  0
M  END
$$$$
