
     RDKit          3D

 61 65  0  0  0  0  0  0  0  0999 V2000
   -4.5314   -3.9784   -2.7984 C   0  0  0  0  0  0  0  0  0  0  0  0
   -4.3832   -3.7572   -1.3576 N   0  0  0  0  0  0  0  0  0  0  0  0
   -3.8987   -4.9834   -0.7175 C   0  0  0  0  0  0  0  0  0  0  0  0
   -3.4613   -2.6403   -1.0659 C   0  0  0  0  0  0  0  0  0  0  0  0
   -3.9924   -1.2563   -1.4891 C   0  0  0  0  0  0  0  0  0  0  0  0
   -3.0750   -0.1776   -1.0940 N   0  0  0  0  0  0  0  0  0  0  0  0
   -1.9731    0.0417   -1.9267 C   0  0  0  0  0  0  0  0  0  0  0  0
   -1.9415   -0.3225   -3.1031 O   0  0  0  0  0  0  0  0  0  0  0  0
   -0.7015    0.5884   -1.3885 C   0  0  0  0  0  0  0  0  0  0  0  0
   -0.0126    1.5508   -2.1412 C   0  0  0  0  0  0  0  0  0  0  0  0
    1.2016    2.0609   -1.6793 C   0  0  0  0  0  0  0  0  0  0  0  0
    1.7287    1.5866   -0.4740 C   0  0  0  0  0  0  0  0  0  0  0  0
    3.2782    2.2216    0.1381 S   0  0  0  0  0  6  0  0  0  0  0  0
    3.0419    2.5918    1.5179 O   0  0  0  0  0  0  0  0  0  0  0  0
    3.7701    3.1869   -0.8251 O   0  0  0  0  0  0  0  0  0  0  0  0
    4.2700    0.8386    0.0670 N   0  0  0  0  0  0  0  0  0  0  0  0
    4.4489    0.2255   -1.2939 C   0  0  0  0  0  0  0  0  0  0  0  0
    5.8169   -0.4735   -1.2735 C   0  0  0  0  0  0  0  0  0  0  0  0
    6.4973    0.2070   -0.1329 C   0  0  0  0  0  0  0  0  0  0  0  0
    7.8306    0.1077    0.2346 C   0  0  0  0  0  0  0  0  0  0  0  0
    8.2477    0.7661    1.3915 C   0  0  0  0  0  0  0  0  0  0  0  0
    7.3301    1.4863    2.1700 C   0  0  0  0  0  0  0  0  0  0  0  0
    5.9857    1.5683    1.7942 C   0  0  0  0  0  0  0  0  0  0  0  0
    5.5904    0.9526    0.6198 C   0  0  0  0  0  0  0  0  0  0  0  0
    1.0579    0.6112    0.2737 C   0  0  0  0  0  0  0  0  0  0  0  0
   -0.1532    0.0988   -0.1936 C   0  0  0  0  0  0  0  0  0  0  0  0
   -3.3453    0.5385    0.0702 C   0  0  0  0  0  0  0  0  0  0  0  0
   -4.0944    0.0738    1.0425 N   0  0  0  0  0  0  0  0  0  0  0  0
   -4.2477    1.0283    2.0305 C   0  0  0  0  0  0  0  0  0  0  0  0
   -4.9577    0.8621    3.2378 C   0  0  0  0  0  0  0  0  0  0  0  0
   -5.0306    1.9204    4.1482 C   0  0  0  0  0  0  0  0  0  0  0  0
   -4.4086    3.1269    3.8597 C   0  0  0  0  0  0  0  0  0  0  0  0
   -4.4928    4.1307    4.7433 F   0  0  0  0  0  0  0  0  0  0  0  0
   -3.7025    3.3265    2.6756 C   0  0  0  0  0  0  0  0  0  0  0  0
   -3.6362    2.2563    1.7705 C   0  0  0  0  0  0  0  0  0  0  0  0
   -2.8698    2.1750    0.2341 S   0  0  0  0  0  0  0  0  0  0  0  0
   -5.1876   -4.8349   -2.9898 H   0  0  0  0  0  0  0  0  0  0  0  0
   -5.0080   -3.1210   -3.2837 H   0  0  0  0  0  0  0  0  0  0  0  0
   -3.5701   -4.1682   -3.2894 H   0  0  0  0  0  0  0  0  0  0  0  0
   -2.9126   -5.2829   -1.0912 H   0  0  0  0  0  0  0  0  0  0  0  0
   -4.5987   -5.8095   -0.8866 H   0  0  0  0  0  0  0  0  0  0  0  0
   -3.8315   -4.8510    0.3684 H   0  0  0  0  0  0  0  0  0  0  0  0
   -3.2872   -2.6026    0.0180 H   0  0  0  0  0  0  0  0  0  0  0  0
   -2.4806   -2.8209   -1.5269 H   0  0  0  0  0  0  0  0  0  0  0  0
   -4.9828   -1.0751   -1.0524 H   0  0  0  0  0  0  0  0  0  0  0  0
   -4.1200   -1.2124   -2.5762 H   0  0  0  0  0  0  0  0  0  0  0  0
   -0.4253    1.9045   -3.0845 H   0  0  0  0  0  0  0  0  0  0  0  0
    1.7227    2.8199   -2.2589 H   0  0  0  0  0  0  0  0  0  0  0  0
    3.6472   -0.4879   -1.5073 H   0  0  0  0  0  0  0  0  0  0  0  0
    4.4486    0.9980   -2.0728 H   0  0  0  0  0  0  0  0  0  0  0  0
    6.3472   -0.3429   -2.2208 H   0  0  0  0  0  0  0  0  0  0  0  0
    5.7040   -1.5413   -1.0567 H   0  0  0  0  0  0  0  0  0  0  0  0
    8.5338   -0.4743   -0.3522 H   0  0  0  0  0  0  0  0  0  0  0  0
    9.2880    0.7076    1.7024 H   0  0  0  0  0  0  0  0  0  0  0  0
    7.6641    1.9776    3.0808 H   0  0  0  0  0  0  0  0  0  0  0  0
    5.2862    2.1045    2.4260 H   0  0  0  0  0  0  0  0  0  0  0  0
    1.4783    0.2507    1.2115 H   0  0  0  0  0  0  0  0  0  0  0  0
   -0.6597   -0.6772    0.3761 H   0  0  0  0  0  0  0  0  0  0  0  0
   -5.4422   -0.0866    3.4500 H   0  0  0  0  0  0  0  0  0  0  0  0
   -5.5742    1.8072    5.0810 H   0  0  0  0  0  0  0  0  0  0  0  0
   -3.2263    4.2786    2.4701 H   0  0  0  0  0  0  0  0  0  0  0  0
  1  2  1  0
  2  3  1  0
  2  4  1  0
  4  5  1  0
  5  6  1  0
  6  7  1  0
  7  8  2  0
  7  9  1  0
  9 10  2  0
 10 11  1  0
 11 12  2  0
 12 13  1  0
 13 14  2  0
 13 15  2  0
 13 16  1  0
 16 17  1  0
 17 18  1  0
 18 19  1  0
 19 20  2  0
 20 21  1  0
 21 22  2  0
 22 23  1  0
 23 24  2  0
 12 25  1  0
 25 26  2  0
  6 27  1  0
 27 28  2  0
 28 29  1  0
 29 30  2  0
 30 31  1  0
 31 32  2  0
 32 33  1  0
 32 34  1  0
 34 35  2  0
 35 36  1  0
 26  9  1  0
 36 27  1  0
 24 16  1  0
 35 29  1  0
 24 19  1  0
  1 37  1  0
  1 38  1  0
  1 39  1  0
  3 40  1  0
  3 41  1  0
  3 42  1  0
  4 43  1  0
  4 44  1  0
  5 45  1  0
  5 46  1  0
 10 47  1  0
 11 48  1  0
 17 49  1  0
 17 50  1  0
 18 51  1  0
 18 52  1  0
 20 53  1  0
 21 54  1  0
 22 55  1  0
 23 56  1  0
 25 57  1  0
 26 58  1  0
 30 59  1  0
 31 60  1  0
 34 61  1  0
M  END
$$$$
