
     RDKit          3D

 46 49  0  0  0  0  0  0  0  0999 V2000
    2.8155    1.1604   -3.1486 O   0  0  0  0  0  0  0  0  0  0  0  0
    1.9176    0.8945   -2.3567 C   0  0  0  0  0  0  0  0  0  0  0  0
    0.4772    1.3269   -2.6407 C   0  0  0  0  0  0  0  0  0  0  0  0
   -0.3676    1.0053   -1.5289 O   0  0  0  0  0  0  0  0  0  0  0  0
   -1.6939    1.0850   -1.7902 C   0  0  0  0  0  0  0  0  0  0  0  0
   -2.2194    1.4237   -2.8331 O   0  0  0  0  0  0  0  0  0  0  0  0
   -2.4044    0.7095   -0.5524 C   0  0  0  0  0  0  0  0  0  0  0  0
   -2.3777   -0.6512   -0.1339 C   0  0  0  0  0  0  0  0  0  0  0  0
   -1.7761   -1.7080   -0.8648 C   0  0  0  0  0  0  0  0  0  0  0  0
   -1.7711   -3.0195   -0.3878 C   0  0  0  0  0  0  0  0  0  0  0  0
   -2.3725   -3.3132    0.8275 C   0  0  0  0  0  0  0  0  0  0  0  0
   -2.9842   -2.2974    1.5597 C   0  0  0  0  0  0  0  0  0  0  0  0
   -2.9974   -0.9725    1.0919 C   0  0  0  0  0  0  0  0  0  0  0  0
   -3.6263    0.0348    1.8402 C   0  0  0  0  0  0  0  0  0  0  0  0
   -3.6659    1.3703    1.4097 C   0  0  0  0  0  0  0  0  0  0  0  0
   -4.3094    2.3464    2.1900 C   0  0  0  0  0  0  0  0  0  0  0  0
   -4.3546    3.6785    1.7828 C   0  0  0  0  0  0  0  0  0  0  0  0
   -3.7573    4.0532    0.5876 C   0  0  0  0  0  0  0  0  0  0  0  0
   -3.1136    3.0949   -0.1977 C   0  0  0  0  0  0  0  0  0  0  0  0
   -3.0515    1.7333    0.1923 C   0  0  0  0  0  0  0  0  0  0  0  0
    2.0307    0.1975   -1.1715 N   0  0  0  0  0  0  0  0  0  0  0  0
    3.1980   -0.3500   -0.6244 C   0  0  0  0  0  0  0  0  0  0  0  0
    4.3720   -0.2268   -1.2753 N   0  0  0  0  0  0  0  0  0  0  0  0
    5.4788   -0.7659   -0.7145 C   0  0  0  0  0  0  0  0  0  0  0  0
    5.4826   -1.4380    0.4974 C   0  0  0  0  0  0  0  0  0  0  0  0
    6.7540   -2.0207    1.0302 C   0  0  0  0  0  0  0  0  0  0  0  0
    6.7311   -2.1982    2.3802 F   0  0  0  0  0  0  0  0  0  0  0  0
    7.8432   -1.2468    0.7753 F   0  0  0  0  0  0  0  0  0  0  0  0
    7.0257   -3.2423    0.4970 F   0  0  0  0  0  0  0  0  0  0  0  0
    4.2597   -1.5723    1.1615 C   0  0  0  0  0  0  0  0  0  0  0  0
    3.1072   -1.0224    0.6000 C   0  0  0  0  0  0  0  0  0  0  0  0
    1.6072   -1.2004    1.4395 Cl  0  0  0  0  0  0  0  0  0  0  0  0
    0.4683    2.4108   -2.7932 H   0  0  0  0  0  0  0  0  0  0  0  0
    0.1457    0.8005   -3.5425 H   0  0  0  0  0  0  0  0  0  0  0  0
   -1.3088   -1.5237   -1.8305 H   0  0  0  0  0  0  0  0  0  0  0  0
   -1.3030   -3.8093   -0.9701 H   0  0  0  0  0  0  0  0  0  0  0  0
   -2.3734   -4.3324    1.2042 H   0  0  0  0  0  0  0  0  0  0  0  0
   -3.4571   -2.5519    2.5065 H   0  0  0  0  0  0  0  0  0  0  0  0
   -4.1030   -0.2289    2.7843 H   0  0  0  0  0  0  0  0  0  0  0  0
   -4.7854    2.0742    3.1302 H   0  0  0  0  0  0  0  0  0  0  0  0
   -4.8573    4.4203    2.3979 H   0  0  0  0  0  0  0  0  0  0  0  0
   -3.7927    5.0891    0.2604 H   0  0  0  0  0  0  0  0  0  0  0  0
   -2.6665    3.4284   -1.1329 H   0  0  0  0  0  0  0  0  0  0  0  0
    1.1796    0.0861   -0.6293 H   0  0  0  0  0  0  0  0  0  0  0  0
    6.3890   -0.6310   -1.2966 H   0  0  0  0  0  0  0  0  0  0  0  0
    4.2069   -2.1010    2.1112 H   0  0  0  0  0  0  0  0  0  0  0  0
  1  2  2  0
  2  3  1  0
  3  4  1  0
  4  5  1  0
  5  6  2  0
  5  7  1  0
  7  8  1  0
  8  9  2  0
  9 10  1  0
 10 11  2  0
 11 12  1  0
 12 13  2  0
 13 14  1  0
 14 15  2  0
 15 16  1  0
 16 17  2  0
 17 18  1  0
 18 19  2  0
 19 20  1  0
  2 21  1  0
 21 22  1  0
 22 23  2  0
 23 24  1  0
 24 25  2  0
 25 26  1  0
 26 27  1  0
 26 28  1  0
 26 29  1  0
 25 30  1  0
 30 31  2  0
 31 32  1  0
 20  7  2  0
 31 22  1  0
 13  8  1  0
 20 15  1  0
  3 33  1  0
  3 34  1  0
  9 35  1  0
 10 36  1  0
 11 37  1  0
 12 38  1  0
 14 39  1  0
 16 40  1  0
 17 41  1  0
 18 42  1  0
 19 43  1  0
 21 44  1  0
 24 45  1  0
 30 46  1  0
M  END
$$$$
