
     RDKit          3D

 69 71  0  0  0  0  0  0  0  0999 V2000
    8.8521   -1.9236    2.0752 C   0  0  0  0  0  0  0  0  0  0  0  0
    7.7152   -0.9261    2.2485 C   0  0  0  0  0  0  0  0  0  0  0  0
    6.4429   -1.3062    1.4855 C   0  0  0  0  0  0  0  0  0  0  0  0
    6.6167   -1.2788   -0.0362 C   0  0  0  0  0  0  0  0  0  0  0  0
    5.3326   -1.6172   -0.8050 C   0  0  0  0  0  0  0  0  0  0  0  0
    4.4990   -0.4042   -1.2357 C   0  0  0  0  0  0  0  0  0  0  0  0
    3.8327    0.4001   -0.1189 C   0  0  0  0  0  0  0  0  0  0  0  0
    2.8745   -0.3869    0.7800 C   0  0  0  0  0  0  0  0  0  0  0  0
    1.6490   -0.9223    0.0402 C   0  0  0  0  0  0  0  0  0  0  0  0
    0.6944   -1.6336    0.9957 C   0  0  0  0  0  0  0  0  0  0  0  0
   -0.4583   -2.1184    0.2822 O   0  0  0  0  0  0  0  0  0  0  0  0
   -1.4556   -1.2122    0.0935 C   0  0  0  0  0  0  0  0  0  0  0  0
   -1.4379   -0.0459    0.4643 O   0  0  0  0  0  0  0  0  0  0  0  0
   -2.6368   -1.8644   -0.6070 C   0  0  0  0  0  0  0  0  0  0  0  0
   -3.5930   -0.8581   -1.1257 N   0  0  0  0  0  0  0  0  0  0  0  0
   -4.6172   -0.3061   -0.4254 C   0  0  0  0  0  0  0  0  0  0  0  0
   -4.9430   -0.5243    1.0465 C   0  0  0  0  0  0  0  0  0  0  0  0
   -5.6392    0.5599    1.6601 O   0  0  0  0  0  0  0  0  0  0  0  0
   -4.9340    1.6782    2.0010 C   0  0  0  0  0  0  0  0  0  0  0  0
   -3.5594    1.7464    2.2218 C   0  0  0  0  0  0  0  0  0  0  0  0
   -2.9594    2.9685    2.5492 C   0  0  0  0  0  0  0  0  0  0  0  0
   -3.7348    4.1198    2.6698 C   0  0  0  0  0  0  0  0  0  0  0  0
   -2.9930    5.6175    3.0625 Cl  0  0  0  0  0  0  0  0  0  0  0  0
   -5.1120    4.0543    2.4832 C   0  0  0  0  0  0  0  0  0  0  0  0
   -5.7093    2.8337    2.1582 C   0  0  0  0  0  0  0  0  0  0  0  0
   -5.3455    0.4084   -1.3189 N   0  0  0  0  0  4  0  0  0  0  0  0
   -6.6537    1.0037   -1.0496 C   0  0  0  0  0  0  0  0  0  0  0  0
   -4.6414    0.5444   -2.5077 C   0  0  0  0  0  0  0  0  0  0  0  0
   -4.9040    1.2861   -3.6564 C   0  0  0  0  0  0  0  0  0  0  0  0
   -3.9676    1.1707   -4.6924 C   0  0  0  0  0  0  0  0  0  0  0  0
   -2.8323    0.3484   -4.5734 C   0  0  0  0  0  0  0  0  0  0  0  0
   -2.5796   -0.3966   -3.4128 C   0  0  0  0  0  0  0  0  0  0  0  0
   -3.5159   -0.2704   -2.3878 C   0  0  0  0  0  0  0  0  0  0  0  0
    9.6882   -1.6526    2.7286 H   0  0  0  0  0  0  0  0  0  0  0  0
    9.2259   -1.9278    1.0458 H   0  0  0  0  0  0  0  0  0  0  0  0
    8.5283   -2.9377    2.3348 H   0  0  0  0  0  0  0  0  0  0  0  0
    8.0533    0.0713    1.9395 H   0  0  0  0  0  0  0  0  0  0  0  0
    7.4711   -0.8583    3.3172 H   0  0  0  0  0  0  0  0  0  0  0  0
    5.6572   -0.6068    1.7860 H   0  0  0  0  0  0  0  0  0  0  0  0
    6.1124   -2.3030    1.8015 H   0  0  0  0  0  0  0  0  0  0  0  0
    7.3675   -2.0317   -0.3089 H   0  0  0  0  0  0  0  0  0  0  0  0
    7.0124   -0.3091   -0.3611 H   0  0  0  0  0  0  0  0  0  0  0  0
    4.7237   -2.3408   -0.2527 H   0  0  0  0  0  0  0  0  0  0  0  0
    5.6351   -2.1281   -1.7288 H   0  0  0  0  0  0  0  0  0  0  0  0
    5.1385    0.2746   -1.8136 H   0  0  0  0  0  0  0  0  0  0  0  0
    3.7284   -0.7477   -1.9357 H   0  0  0  0  0  0  0  0  0  0  0  0
    4.6057    0.8697    0.5003 H   0  0  0  0  0  0  0  0  0  0  0  0
    3.2803    1.2298   -0.5773 H   0  0  0  0  0  0  0  0  0  0  0  0
    3.3983   -1.2137    1.2689 H   0  0  0  0  0  0  0  0  0  0  0  0
    2.5373    0.2830    1.5810 H   0  0  0  0  0  0  0  0  0  0  0  0
    1.1301   -0.0987   -0.4616 H   0  0  0  0  0  0  0  0  0  0  0  0
    1.9417   -1.6217   -0.7496 H   0  0  0  0  0  0  0  0  0  0  0  0
    1.1858   -2.5092    1.4351 H   0  0  0  0  0  0  0  0  0  0  0  0
    0.3894   -0.9859    1.8271 H   0  0  0  0  0  0  0  0  0  0  0  0
   -2.2804   -2.4690   -1.4456 H   0  0  0  0  0  0  0  0  0  0  0  0
   -3.1611   -2.5169    0.0969 H   0  0  0  0  0  0  0  0  0  0  0  0
   -5.6148   -1.3887    1.0368 H   0  0  0  0  0  0  0  0  0  0  0  0
   -4.0350   -0.8175    1.5789 H   0  0  0  0  0  0  0  0  0  0  0  0
   -2.9141    0.8753    2.1818 H   0  0  0  0  0  0  0  0  0  0  0  0
   -1.8847    3.0120    2.7185 H   0  0  0  0  0  0  0  0  0  0  0  0
   -5.7271    4.9462    2.6001 H   0  0  0  0  0  0  0  0  0  0  0  0
   -6.7891    2.7923    2.0287 H   0  0  0  0  0  0  0  0  0  0  0  0
   -7.2263    0.3501   -0.3906 H   0  0  0  0  0  0  0  0  0  0  0  0
   -7.2149    1.1074   -1.9818 H   0  0  0  0  0  0  0  0  0  0  0  0
   -6.5168    1.9884   -0.5999 H   0  0  0  0  0  0  0  0  0  0  0  0
   -5.7762    1.9201   -3.7456 H   0  0  0  0  0  0  0  0  0  0  0  0
   -4.1210    1.7348   -5.6131 H   0  0  0  0  0  0  0  0  0  0  0  0
   -2.1320    0.2909   -5.4074 H   0  0  0  0  0  0  0  0  0  0  0  0
   -1.7033   -1.0255   -3.3226 H   0  0  0  0  0  0  0  0  0  0  0  0
  1  2  1  0
  2  3  1  0
  3  4  1  0
  4  5  1  0
  5  6  1  0
  6  7  1  0
  7  8  1  0
  8  9  1  0
  9 10  1  0
 10 11  1  0
 11 12  1  0
 12 13  2  0
 12 14  1  0
 14 15  1  0
 15 16  1  0
 16 17  1  0
 17 18  1  0
 18 19  1  0
 19 20  2  0
 20 21  1  0
 21 22  2  0
 22 23  1  0
 22 24  1  0
 24 25  2  0
 16 26  2  0
 26 27  1  0
 26 28  1  0
 28 29  2  0
 29 30  1  0
 30 31  2  0
 31 32  1  0
 32 33  2  0
 33 15  1  0
 25 19  1  0
 33 28  1  0
  1 34  1  0
  1 35  1  0
  1 36  1  0
  2 37  1  0
  2 38  1  0
  3 39  1  0
  3 40  1  0
  4 41  1  0
  4 42  1  0
  5 43  1  0
  5 44  1  0
  6 45  1  0
  6 46  1  0
  7 47  1  0
  7 48  1  0
  8 49  1  0
  8 50  1  0
  9 51  1  0
  9 52  1  0
 10 53  1  0
 10 54  1  0
 14 55  1  0
 14 56  1  0
 17 57  1  0
 17 58  1  0
 20 59  1  0
 21 60  1  0
 24 61  1  0
 25 62  1  0
 27 63  1  0
 27 64  1  0
 27 65  1  0
 29 66  1  0
 30 67  1  0
 31 68  1  0
 32 69  1  0
M  CHG  1  26   1
M  END
$$$$
