
     RDKit          3D

 54 56  0  0  0  0  0  0  0  0999 V2000
    6.7781   -2.9092   -0.9858 C   0  0  0  0  0  0  0  0  0  0  0  0
    6.1927   -2.3127    0.1644 O   0  0  0  0  0  0  0  0  0  0  0  0
    5.4749   -1.1653   -0.0321 C   0  0  0  0  0  0  0  0  0  0  0  0
    4.9014   -0.6308    1.1234 C   0  0  0  0  0  0  0  0  0  0  0  0
    4.1418    0.5402    1.0678 C   0  0  0  0  0  0  0  0  0  0  0  0
    3.9443    1.1987   -0.1516 C   0  0  0  0  0  0  0  0  0  0  0  0
    3.1096    2.4556   -0.2236 C   0  0  0  0  0  0  0  0  0  0  0  0
    1.7753    2.2392   -0.7881 N   0  0  0  0  0  0  0  0  0  0  0  0
    0.8791    1.5430    0.1378 C   0  0  0  0  0  0  0  0  0  0  0  0
   -0.5153    1.4261   -0.4926 C   0  0  0  0  0  0  0  0  0  0  0  0
   -1.5459    0.7793    0.4670 C   0  0  0  0  0  0  0  0  0  0  0  0
   -1.1846   -0.6680    0.7974 C   0  0  0  0  0  0  0  0  0  0  0  0
   -0.8368   -1.0208    2.1137 C   0  0  0  0  0  0  0  0  0  0  0  0
   -0.4955   -2.3372    2.4282 C   0  0  0  0  0  0  0  0  0  0  0  0
   -0.5033   -3.3046    1.4316 C   0  0  0  0  0  0  0  0  0  0  0  0
   -0.1778   -4.5678    1.7360 F   0  0  0  0  0  0  0  0  0  0  0  0
   -0.8464   -2.9818    0.1253 C   0  0  0  0  0  0  0  0  0  0  0  0
   -1.1870   -1.6662   -0.1927 C   0  0  0  0  0  0  0  0  0  0  0  0
   -3.0004    0.9011    0.0083 C   0  0  0  0  0  0  0  0  0  0  0  0
   -3.3690    1.0520   -1.3350 C   0  0  0  0  0  0  0  0  0  0  0  0
   -4.7165    1.1434   -1.6987 C   0  0  0  0  0  0  0  0  0  0  0  0
   -5.7247    1.0798   -0.7364 C   0  0  0  0  0  0  0  0  0  0  0  0
   -6.9957    1.1806   -1.2304 O   0  0  0  0  0  0  0  0  0  0  0  0
   -8.0579    1.1044   -0.2882 C   0  0  0  0  0  0  0  0  0  0  0  0
   -5.3730    0.9223    0.6019 C   0  0  0  0  0  0  0  0  0  0  0  0
   -4.0248    0.8321    0.9687 C   0  0  0  0  0  0  0  0  0  0  0  0
    4.5208    0.6580   -1.3097 C   0  0  0  0  0  0  0  0  0  0  0  0
    5.2821   -0.5152   -1.2506 C   0  0  0  0  0  0  0  0  0  0  0  0
    7.5163   -2.2424   -1.4434 H   0  0  0  0  0  0  0  0  0  0  0  0
    6.0123   -3.2082   -1.7092 H   0  0  0  0  0  0  0  0  0  0  0  0
    7.3021   -3.8140   -0.6631 H   0  0  0  0  0  0  0  0  0  0  0  0
    5.0456   -1.1339    2.0764 H   0  0  0  0  0  0  0  0  0  0  0  0
    3.7018    0.9302    1.9826 H   0  0  0  0  0  0  0  0  0  0  0  0
    3.6369    3.1787   -0.8584 H   0  0  0  0  0  0  0  0  0  0  0  0
    3.0410    2.9354    0.7608 H   0  0  0  0  0  0  0  0  0  0  0  0
    1.8644    1.6967   -1.6462 H   0  0  0  0  0  0  0  0  0  0  0  0
    1.2669    0.5446    0.3632 H   0  0  0  0  0  0  0  0  0  0  0  0
    0.8051    2.1036    1.0770 H   0  0  0  0  0  0  0  0  0  0  0  0
   -0.4403    0.8568   -1.4283 H   0  0  0  0  0  0  0  0  0  0  0  0
   -0.8625    2.4332   -0.7623 H   0  0  0  0  0  0  0  0  0  0  0  0
   -1.4874    1.3663    1.3962 H   0  0  0  0  0  0  0  0  0  0  0  0
   -0.8275   -0.2721    2.9027 H   0  0  0  0  0  0  0  0  0  0  0  0
   -0.2249   -2.6140    3.4419 H   0  0  0  0  0  0  0  0  0  0  0  0
   -0.8496   -3.7548   -0.6362 H   0  0  0  0  0  0  0  0  0  0  0  0
   -1.4614   -1.4268   -1.2177 H   0  0  0  0  0  0  0  0  0  0  0  0
   -2.6230    1.0980   -2.1234 H   0  0  0  0  0  0  0  0  0  0  0  0
   -4.9823    1.2627   -2.7464 H   0  0  0  0  0  0  0  0  0  0  0  0
   -8.0634    0.1363    0.2237 H   0  0  0  0  0  0  0  0  0  0  0  0
   -8.9996    1.1950   -0.8382 H   0  0  0  0  0  0  0  0  0  0  0  0
   -8.0101    1.9310    0.4283 H   0  0  0  0  0  0  0  0  0  0  0  0
   -6.1188    0.8622    1.3870 H   0  0  0  0  0  0  0  0  0  0  0  0
   -3.7775    0.7000    2.0205 H   0  0  0  0  0  0  0  0  0  0  0  0
    4.3815    1.1515   -2.2693 H   0  0  0  0  0  0  0  0  0  0  0  0
    5.7089   -0.8922   -2.1737 H   0  0  0  0  0  0  0  0  0  0  0  0
  1  2  1  0
  2  3  1  0
  3  4  2  0
  4  5  1  0
  5  6  2  0
  6  7  1  0
  7  8  1  0
  8  9  1  0
  9 10  1  0
 10 11  1  0
 11 12  1  0
 12 13  2  0
 13 14  1  0
 14 15  2  0
 15 16  1  0
 15 17  1  0
 17 18  2  0
 11 19  1  0
 19 20  2  0
 20 21  1  0
 21 22  2  0
 22 23  1  0
 23 24  1  0
 22 25  1  0
 25 26  2  0
  6 27  1  0
 27 28  2  0
 28  3  1  0
 18 12  1  0
 26 19  1  0
  1 29  1  0
  1 30  1  0
  1 31  1  0
  4 32  1  0
  5 33  1  0
  7 34  1  0
  7 35  1  0
  8 36  1  0
  9 37  1  0
  9 38  1  0
 10 39  1  0
 10 40  1  0
 11 41  1  0
 13 42  1  0
 14 43  1  0
 17 44  1  0
 18 45  1  0
 20 46  1  0
 21 47  1  0
 24 48  1  0
 24 49  1  0
 24 50  1  0
 25 51  1  0
 26 52  1  0
 27 53  1  0
 28 54  1  0
M  END
$$$$
