
     RDKit          3D

 59 62  0  0  0  0  0  0  0  0999 V2000
   -0.2470    1.6517   -2.3521 O   0  0  0  0  0  0  0  0  0  0  0  0
    0.0903    1.2137   -1.2470 C   0  0  0  0  0  0  0  0  0  0  0  0
   -0.9304    1.1904   -0.0986 C   0  0  0  0  0  0  0  0  0  0  0  0
   -1.3704   -0.1843    0.2267 N   0  0  0  0  0  0  0  0  0  0  0  0
   -2.1651   -0.1642    1.4825 C   0  0  0  0  0  0  0  0  0  0  0  0
   -3.2119   -1.2953    1.5719 C   0  0  0  0  0  0  0  0  0  0  0  0
   -4.2161   -1.1999    0.4873 N   0  0  0  0  0  0  0  0  0  0  0  0
   -5.4039   -0.5347    0.8637 C   0  0  0  0  0  0  0  0  0  0  0  0
   -5.3384    0.3799    1.8662 N   0  0  0  0  0  0  0  0  0  0  0  0
   -6.4643    1.0444    2.2202 C   0  0  0  0  0  0  0  0  0  0  0  0
   -7.6966    0.8591    1.6181 C   0  0  0  0  0  0  0  0  0  0  0  0
   -8.8960    1.6208    2.0858 C   0  0  0  0  0  0  0  0  0  0  0  0
   -9.7539    1.9295    1.0743 F   0  0  0  0  0  0  0  0  0  0  0  0
   -8.5806    2.8047    2.6801 F   0  0  0  0  0  0  0  0  0  0  0  0
   -9.6266    0.9256    2.9990 F   0  0  0  0  0  0  0  0  0  0  0  0
   -7.7720   -0.0915    0.5990 C   0  0  0  0  0  0  0  0  0  0  0  0
   -6.6264   -0.7938    0.2151 C   0  0  0  0  0  0  0  0  0  0  0  0
   -6.8038   -1.9924   -1.0180 Cl  0  0  0  0  0  0  0  0  0  0  0  0
   -3.6798   -0.6306   -0.7766 C   0  0  0  0  0  0  0  0  0  0  0  0
   -2.1463   -0.8068   -0.8747 C   0  0  0  0  0  0  0  0  0  0  0  0
    1.3865    0.7688   -0.9961 N   0  0  0  0  0  0  0  0  0  0  0  0
    1.7279   -0.0866    0.1528 C   0  0  0  0  0  0  0  0  0  0  0  0
    3.2297   -0.0548    0.4962 C   0  0  0  0  0  0  0  0  0  0  0  0
    4.0350   -0.3451   -0.7096 N   0  0  0  0  0  0  0  0  0  0  0  0
    5.4177   -0.4338   -0.4359 C   0  0  0  0  0  0  0  0  0  0  0  0
    5.9061    0.2167    0.6508 N   0  0  0  0  0  0  0  0  0  0  0  0
    7.2323    0.1408    0.9145 C   0  0  0  0  0  0  0  0  0  0  0  0
    8.1394   -0.5624    0.1403 C   0  0  0  0  0  0  0  0  0  0  0  0
    9.5834   -0.6077    0.5281 C   0  0  0  0  0  0  0  0  0  0  0  0
   10.4085   -0.9072   -0.5125 F   0  0  0  0  0  0  0  0  0  0  0  0
   10.0334    0.5747    1.0310 F   0  0  0  0  0  0  0  0  0  0  0  0
    9.8323   -1.5415    1.4855 F   0  0  0  0  0  0  0  0  0  0  0  0
    7.6377   -1.2477   -0.9672 C   0  0  0  0  0  0  0  0  0  0  0  0
    6.2734   -1.1878   -1.2615 C   0  0  0  0  0  0  0  0  0  0  0  0
    5.7037   -2.1019   -2.6147 Cl  0  0  0  0  0  0  0  0  0  0  0  0
    3.7705    0.6497   -1.7749 C   0  0  0  0  0  0  0  0  0  0  0  0
    2.2789    0.6299   -2.1540 C   0  0  0  0  0  0  0  0  0  0  0  0
   -1.7825    1.8208   -0.3843 H   0  0  0  0  0  0  0  0  0  0  0  0
   -0.4620    1.6709    0.7692 H   0  0  0  0  0  0  0  0  0  0  0  0
   -1.4697   -0.2520    2.3252 H   0  0  0  0  0  0  0  0  0  0  0  0
   -2.6842    0.7968    1.5936 H   0  0  0  0  0  0  0  0  0  0  0  0
   -3.6732   -1.3177    2.5676 H   0  0  0  0  0  0  0  0  0  0  0  0
   -2.7021   -2.2626    1.4713 H   0  0  0  0  0  0  0  0  0  0  0  0
   -6.3298    1.7561    3.0332 H   0  0  0  0  0  0  0  0  0  0  0  0
   -8.7231   -0.2914    0.1084 H   0  0  0  0  0  0  0  0  0  0  0  0
   -3.9132    0.4398   -0.8642 H   0  0  0  0  0  0  0  0  0  0  0  0
   -4.1374   -1.1417   -1.6303 H   0  0  0  0  0  0  0  0  0  0  0  0
   -1.8041   -0.4676   -1.8584 H   0  0  0  0  0  0  0  0  0  0  0  0
   -1.9241   -1.8823   -0.8513 H   0  0  0  0  0  0  0  0  0  0  0  0
    1.4252   -1.1078   -0.1096 H   0  0  0  0  0  0  0  0  0  0  0  0
    1.1652    0.2150    1.0392 H   0  0  0  0  0  0  0  0  0  0  0  0
    3.4735    0.9381    0.8980 H   0  0  0  0  0  0  0  0  0  0  0  0
    3.4244   -0.8013    1.2763 H   0  0  0  0  0  0  0  0  0  0  0  0
    7.5471    0.6860    1.8031 H   0  0  0  0  0  0  0  0  0  0  0  0
    8.3045   -1.8350   -1.5961 H   0  0  0  0  0  0  0  0  0  0  0  0
    4.3577    0.4472   -2.6774 H   0  0  0  0  0  0  0  0  0  0  0  0
    4.0414    1.6547   -1.4232 H   0  0  0  0  0  0  0  0  0  0  0  0
    2.0813    1.4273   -2.8789 H   0  0  0  0  0  0  0  0  0  0  0  0
    2.0278   -0.3235   -2.6359 H   0  0  0  0  0  0  0  0  0  0  0  0
  1  2  2  0
  2  3  1  0
  3  4  1  0
  4  5  1  0
  5  6  1  0
  6  7  1  0
  7  8  1  0
  8  9  2  0
  9 10  1  0
 10 11  2  0
 11 12  1  0
 12 13  1  0
 12 14  1  0
 12 15  1  0
 11 16  1  0
 16 17  2  0
 17 18  1  0
  7 19  1  0
 19 20  1  0
  2 21  1  0
 21 22  1  0
 22 23  1  0
 23 24  1  0
 24 25  1  0
 25 26  2  0
 26 27  1  0
 27 28  2  0
 28 29  1  0
 29 30  1  0
 29 31  1  0
 29 32  1  0
 28 33  1  0
 33 34  2  0
 34 35  1  0
 24 36  1  0
 36 37  1  0
 20  4  1  0
 37 21  1  0
 17  8  1  0
 34 25  1  0
  3 38  1  0
  3 39  1  0
  5 40  1  0
  5 41  1  0
  6 42  1  0
  6 43  1  0
 10 44  1  0
 16 45  1  0
 19 46  1  0
 19 47  1  0
 20 48  1  0
 20 49  1  0
 22 50  1  0
 22 51  1  0
 23 52  1  0
 23 53  1  0
 27 54  1  0
 33 55  1  0
 36 56  1  0
 36 57  1  0
 37 58  1  0
 37 59  1  0
M  END
$$$$
