
     RDKit          3D

 40 42  0  0  0  0  0  0  0  0999 V2000
   -4.6396   -1.2269    1.8976 C   0  0  0  0  0  0  0  0  0  0  0  0
   -4.4606    0.2108    1.3992 C   0  0  0  0  0  0  0  0  0  0  0  0
   -3.0535    0.7564    1.7170 C   0  0  0  0  0  0  0  0  0  0  0  0
   -1.9293    0.0356    0.9550 C   0  0  0  0  0  0  0  0  0  0  0  0
   -2.2801   -0.2058   -0.4888 C   0  0  0  0  0  0  0  0  0  0  0  0
   -1.3977   -0.6563   -1.5442 C   0  0  0  0  0  0  0  0  0  0  0  0
    0.0476   -0.9039   -1.4836 C   0  0  0  0  0  0  0  0  0  0  0  0
    0.5330   -1.9123   -1.9804 O   0  0  0  0  0  0  0  0  0  0  0  0
    0.7432    0.1293   -0.8878 N   0  0  0  0  0  0  0  0  0  0  0  0
    2.1255    0.2036   -0.6310 C   0  0  0  0  0  0  0  0  0  0  0  0
    3.0216   -0.8400   -0.8625 C   0  0  0  0  0  0  0  0  0  0  0  0
    4.3865   -0.6925   -0.5731 C   0  0  0  0  0  0  0  0  0  0  0  0
    4.8712    0.5024   -0.0450 C   0  0  0  0  0  0  0  0  0  0  0  0
    6.1656    0.7835    0.2821 O   0  0  0  0  0  0  0  0  0  0  0  0
    7.1353   -0.2284    0.0703 C   0  0  0  0  0  0  0  0  0  0  0  0
    8.3425    0.2440    0.4538 F   0  0  0  0  0  0  0  0  0  0  0  0
    6.8632   -1.3267    0.8067 F   0  0  0  0  0  0  0  0  0  0  0  0
    7.2131   -0.5652   -1.2345 F   0  0  0  0  0  0  0  0  0  0  0  0
    3.9743    1.5463    0.1911 C   0  0  0  0  0  0  0  0  0  0  0  0
    2.6138    1.3998   -0.0971 C   0  0  0  0  0  0  0  0  0  0  0  0
   -2.1092   -0.8999   -2.7074 C   0  0  0  0  0  0  0  0  0  0  0  0
   -3.7672   -0.5252   -2.5702 S   0  0  0  0  0  0  0  0  0  0  0  0
   -3.5872   -0.1018   -0.9348 C   0  0  0  0  0  0  0  0  0  0  0  0
   -4.7633    0.3302   -0.1094 C   0  0  0  0  0  0  0  0  0  0  0  0
   -4.4247   -1.2926    2.9694 H   0  0  0  0  0  0  0  0  0  0  0  0
   -3.9849   -1.9330    1.3778 H   0  0  0  0  0  0  0  0  0  0  0  0
   -5.6723   -1.5585    1.7451 H   0  0  0  0  0  0  0  0  0  0  0  0
   -5.1932    0.8271    1.9368 H   0  0  0  0  0  0  0  0  0  0  0  0
   -2.8572    0.6994    2.7944 H   0  0  0  0  0  0  0  0  0  0  0  0
   -3.0297    1.8225    1.4535 H   0  0  0  0  0  0  0  0  0  0  0  0
   -1.7255   -0.9323    1.4291 H   0  0  0  0  0  0  0  0  0  0  0  0
   -1.0191    0.6348    1.0457 H   0  0  0  0  0  0  0  0  0  0  0  0
    0.2031    0.9582   -0.6793 H   0  0  0  0  0  0  0  0  0  0  0  0
    2.6941   -1.7936   -1.2670 H   0  0  0  0  0  0  0  0  0  0  0  0
    5.0318   -1.5424   -0.7780 H   0  0  0  0  0  0  0  0  0  0  0  0
    4.3344    2.4865    0.6034 H   0  0  0  0  0  0  0  0  0  0  0  0
    1.9494    2.2369    0.1008 H   0  0  0  0  0  0  0  0  0  0  0  0
   -1.7177   -1.2719   -3.6456 H   0  0  0  0  0  0  0  0  0  0  0  0
   -4.9769    1.3808   -0.3459 H   0  0  0  0  0  0  0  0  0  0  0  0
   -5.6601   -0.2473   -0.3631 H   0  0  0  0  0  0  0  0  0  0  0  0
  1  2  1  0
  2  3  1  0
  3  4  1  0
  4  5  1  0
  5  6  1  0
  6  7  1  0
  7  8  2  0
  7  9  1  0
  9 10  1  0
 10 11  2  0
 11 12  1  0
 12 13  2  0
 13 14  1  0
 14 15  1  0
 15 16  1  0
 15 17  1  0
 15 18  1  0
 13 19  1  0
 19 20  2  0
  6 21  2  0
 21 22  1  0
 22 23  1  0
 23 24  1  0
 24  2  1  0
 23  5  2  0
 20 10  1  0
  1 25  1  0
  1 26  1  0
  1 27  1  0
  2 28  1  0
  3 29  1  0
  3 30  1  0
  4 31  1  0
  4 32  1  0
  9 33  1  0
 11 34  1  0
 12 35  1  0
 19 36  1  0
 20 37  1  0
 21 38  1  0
 24 39  1  0
 24 40  1  0
M  END
$$$$
