
     RDKit          3D

 52 55  0  0  0  0  0  0  0  0999 V2000
    5.5750   -1.8982    2.0805 C   0  0  0  0  0  0  0  0  0  0  0  0
    4.7227   -1.2100    1.1756 O   0  0  0  0  0  0  0  0  0  0  0  0
    5.1319    0.0161    0.7086 C   0  0  0  0  0  0  0  0  0  0  0  0
    6.4206    0.5264    0.9433 C   0  0  0  0  0  0  0  0  0  0  0  0
    6.8165    1.7542    0.4111 C   0  0  0  0  0  0  0  0  0  0  0  0
    5.9318    2.4870   -0.3653 C   0  0  0  0  0  0  0  0  0  0  0  0
    4.6514    1.9892   -0.6067 C   0  0  0  0  0  0  0  0  0  0  0  0
    4.2150    0.7537   -0.0823 C   0  0  0  0  0  0  0  0  0  0  0  0
    2.8972    0.3673   -0.3869 N   0  0  0  0  0  0  0  0  0  0  0  0
    2.1616   -0.5105    0.5295 C   0  0  0  0  0  0  0  0  0  0  0  0
    0.6380   -0.4087    0.2424 C   0  0  0  0  0  0  0  0  0  0  0  0
    0.2233   -0.3406   -1.1948 N   0  0  0  0  0  0  0  0  0  0  0  0
   -0.1930    1.0535   -1.5344 C   0  0  0  0  0  0  0  0  0  0  0  0
   -1.6170    1.3503   -1.0300 C   0  0  0  0  0  0  0  0  0  0  0  0
   -2.0043    2.5035   -0.8677 O   0  0  0  0  0  0  0  0  0  0  0  0
   -2.3631    0.1972   -0.8612 N   0  0  0  0  0  0  0  0  0  0  0  0
   -3.6974    0.0676   -0.4482 C   0  0  0  0  0  0  0  0  0  0  0  0
   -4.5316    1.1476   -0.1632 C   0  0  0  0  0  0  0  0  0  0  0  0
   -5.8551    0.9371    0.2440 C   0  0  0  0  0  0  0  0  0  0  0  0
   -6.3602   -0.3641    0.3690 C   0  0  0  0  0  0  0  0  0  0  0  0
   -7.7004   -0.5569    0.7813 N   0  0  0  0  0  0  0  0  0  0  0  0
   -8.3975   -1.7245    0.9675 C   0  0  0  0  0  0  0  0  0  0  0  0
   -9.6204   -1.4464    1.3567 N   0  0  0  0  0  0  0  0  0  0  0  0
   -9.6886   -0.0800    1.4142 N   0  0  0  0  0  0  0  0  0  0  0  0
   -8.5334    0.4701    1.0682 N   0  0  0  0  0  0  0  0  0  0  0  0
   -5.5272   -1.4521    0.0832 C   0  0  0  0  0  0  0  0  0  0  0  0
   -4.2050   -1.2308   -0.3225 C   0  0  0  0  0  0  0  0  0  0  0  0
    1.3740   -0.7315   -2.0468 C   0  0  0  0  0  0  0  0  0  0  0  0
    2.6852    0.0675   -1.8183 C   0  0  0  0  0  0  0  0  0  0  0  0
    6.4994   -2.2144    1.5863 H   0  0  0  0  0  0  0  0  0  0  0  0
    5.7840   -1.2941    2.9697 H   0  0  0  0  0  0  0  0  0  0  0  0
    5.0512   -2.8010    2.4098 H   0  0  0  0  0  0  0  0  0  0  0  0
    7.1512   -0.0166    1.5332 H   0  0  0  0  0  0  0  0  0  0  0  0
    7.8163    2.1344    0.6039 H   0  0  0  0  0  0  0  0  0  0  0  0
    6.2281    3.4474   -0.7780 H   0  0  0  0  0  0  0  0  0  0  0  0
    3.9635    2.5930   -1.1946 H   0  0  0  0  0  0  0  0  0  0  0  0
    2.3302   -0.2255    1.5750 H   0  0  0  0  0  0  0  0  0  0  0  0
    2.4709   -1.5544    0.3957 H   0  0  0  0  0  0  0  0  0  0  0  0
    0.1579   -1.2937    0.6783 H   0  0  0  0  0  0  0  0  0  0  0  0
    0.2339    0.4440    0.8038 H   0  0  0  0  0  0  0  0  0  0  0  0
   -0.2374    1.1779   -2.6236 H   0  0  0  0  0  0  0  0  0  0  0  0
    0.4950    1.8019   -1.1251 H   0  0  0  0  0  0  0  0  0  0  0  0
   -1.8227   -0.6498   -1.0279 H   0  0  0  0  0  0  0  0  0  0  0  0
   -4.1836    2.1732   -0.2476 H   0  0  0  0  0  0  0  0  0  0  0  0
   -6.4719    1.8094    0.4570 H   0  0  0  0  0  0  0  0  0  0  0  0
   -7.9919   -2.7110    0.8144 H   0  0  0  0  0  0  0  0  0  0  0  0
   -5.8641   -2.4815    0.1618 H   0  0  0  0  0  0  0  0  0  0  0  0
   -3.5749   -2.0904   -0.5406 H   0  0  0  0  0  0  0  0  0  0  0  0
    1.5748   -1.7957   -1.8628 H   0  0  0  0  0  0  0  0  0  0  0  0
    1.0944   -0.6781   -3.1064 H   0  0  0  0  0  0  0  0  0  0  0  0
    3.5207   -0.5167   -2.2254 H   0  0  0  0  0  0  0  0  0  0  0  0
    2.6252    1.0078   -2.3790 H   0  0  0  0  0  0  0  0  0  0  0  0
  1  2  1  0
  2  3  1  0
  3  4  2  0
  4  5  1  0
  5  6  2  0
  6  7  1  0
  7  8  2  0
  8  9  1  0
  9 10  1  0
 10 11  1  0
 11 12  1  0
 12 13  1  0
 13 14  1  0
 14 15  2  0
 14 16  1  0
 16 17  1  0
 17 18  2  0
 18 19  1  0
 19 20  2  0
 20 21  1  0
 21 22  1  0
 22 23  2  0
 23 24  1  0
 24 25  2  0
 20 26  1  0
 26 27  2  0
 12 28  1  0
 28 29  1  0
  8  3  1  0
 29  9  1  0
 27 17  1  0
 25 21  1  0
  1 30  1  0
  1 31  1  0
  1 32  1  0
  4 33  1  0
  5 34  1  0
  6 35  1  0
  7 36  1  0
 10 37  1  0
 10 38  1  0
 11 39  1  0
 11 40  1  0
 13 41  1  0
 13 42  1  0
 16 43  1  0
 18 44  1  0
 19 45  1  0
 22 46  1  0
 26 47  1  0
 27 48  1  0
 28 49  1  0
 28 50  1  0
 29 51  1  0
 29 52  1  0
M  END
$$$$
