
     RDKit          3D

 33 36  0  0  0  0  0  0  0  0999 V2000
    6.8709   -0.2035   -0.7304 C   0  0  0  0  0  0  0  0  0  0  0  0
    5.3982   -0.0184   -0.5145 C   0  0  0  0  0  0  0  0  0  0  0  0
    4.9288    0.9404    0.3897 C   0  0  0  0  0  0  0  0  0  0  0  0
    3.5566    1.0917    0.6141 C   0  0  0  0  0  0  0  0  0  0  0  0
    2.6289    0.2803   -0.0529 C   0  0  0  0  0  0  0  0  0  0  0  0
    1.1972    0.4445    0.1873 C   0  0  0  0  0  0  0  0  0  0  0  0
    0.7044    1.4015    1.0714 N   0  0  0  0  0  0  0  0  0  0  0  0
   -0.5791    1.2108    0.9843 C   0  0  0  0  0  0  0  0  0  0  0  0
   -1.9651    1.9133    1.6983 S   0  0  0  0  0  0  0  0  0  0  0  0
   -3.0028    0.7925    0.7915 C   0  0  0  0  0  0  0  0  0  0  0  0
   -4.3349    0.8625    0.9288 C   0  0  0  0  0  0  0  0  0  0  0  0
   -5.3031    0.0481    0.2837 C   0  0  0  0  0  0  0  0  0  0  0  0
   -5.3290   -1.3056   -0.0325 C   0  0  0  0  0  0  0  0  0  0  0  0
   -6.5721   -1.5929   -0.6465 C   0  0  0  0  0  0  0  0  0  0  0  0
   -7.2634   -0.4110   -0.6579 C   0  0  0  0  0  0  0  0  0  0  0  0
   -6.5240    0.5711   -0.0912 O   0  0  0  0  0  0  0  0  0  0  0  0
   -2.1922   -0.1173   -0.0877 C   0  0  0  0  0  0  0  0  0  0  0  0
   -2.5323   -0.9917   -0.8608 O   0  0  0  0  0  0  0  0  0  0  0  0
   -0.8713    0.2208    0.1235 N   0  0  0  0  0  0  0  0  0  0  0  0
    0.2438   -0.3031   -0.4134 N   0  0  0  0  0  0  0  0  0  0  0  0
    3.1044   -0.6888   -0.9470 C   0  0  0  0  0  0  0  0  0  0  0  0
    4.4764   -0.8404   -1.1718 C   0  0  0  0  0  0  0  0  0  0  0  0
    7.2653   -0.9316   -0.0149 H   0  0  0  0  0  0  0  0  0  0  0  0
    7.4063    0.7434   -0.6037 H   0  0  0  0  0  0  0  0  0  0  0  0
    7.0753   -0.5583   -1.7460 H   0  0  0  0  0  0  0  0  0  0  0  0
    5.6272    1.5788    0.9264 H   0  0  0  0  0  0  0  0  0  0  0  0
    3.2177    1.8492    1.3184 H   0  0  0  0  0  0  0  0  0  0  0  0
   -4.7592    1.6380    1.5642 H   0  0  0  0  0  0  0  0  0  0  0  0
   -4.5393   -2.0196    0.1580 H   0  0  0  0  0  0  0  0  0  0  0  0
   -6.9176   -2.5444   -1.0251 H   0  0  0  0  0  0  0  0  0  0  0  0
   -8.2428   -0.1175   -1.0091 H   0  0  0  0  0  0  0  0  0  0  0  0
    2.4087   -1.3377   -1.4761 H   0  0  0  0  0  0  0  0  0  0  0  0
    4.8180   -1.6054   -1.8657 H   0  0  0  0  0  0  0  0  0  0  0  0
  1  2  1  0
  2  3  2  0
  3  4  1  0
  4  5  2  0
  5  6  1  0
  6  7  1  0
  7  8  2  0
  8  9  1  0
  9 10  1  0
 10 11  2  3
 11 12  1  0
 12 13  2  0
 13 14  1  0
 14 15  2  0
 15 16  1  0
 10 17  1  0
 17 18  2  0
 17 19  1  0
 19 20  1  0
  5 21  1  0
 21 22  2  0
 22  2  1  0
 20  6  2  0
 19  8  1  0
 16 12  1  0
  1 23  1  0
  1 24  1  0
  1 25  1  0
  3 26  1  0
  4 27  1  0
 11 28  1  0
 13 29  1  0
 14 30  1  0
 15 31  1  0
 21 32  1  0
 22 33  1  0
M  END
$$$$
