
     RDKit          3D

 55 58  0  0  0  0  0  0  0  0999 V2000
   -0.7989   -2.8526    3.4354 C   0  0  0  0  0  0  0  0  0  0  0  0
   -1.2981   -2.8281    2.0588 N   0  0  0  0  0  0  0  0  0  0  0  0
   -1.1615   -4.0812    1.3199 C   0  0  0  0  0  0  0  0  0  0  0  0
   -1.2469   -1.6095    1.3744 C   0  0  0  0  0  0  0  0  0  0  0  0
   -1.4069   -0.3847    2.0438 C   0  0  0  0  0  0  0  0  0  0  0  0
   -1.3726    0.8470    1.3729 C   0  0  0  0  0  0  0  0  0  0  0  0
   -1.1737    0.9058   -0.0068 C   0  0  0  0  0  0  0  0  0  0  0  0
   -1.1384    2.1555   -0.6675 N   0  0  0  0  0  0  0  0  0  0  0  0
   -0.3285    2.3721   -1.7734 C   0  0  0  0  0  0  0  0  0  0  0  0
    0.9224    2.1799   -1.9979 N   0  0  0  0  0  0  0  0  0  0  0  0
    1.6803    1.8216   -0.9126 C   0  0  0  0  0  0  0  0  0  0  0  0
    1.7835    2.5096    0.0988 O   0  0  0  0  0  0  0  0  0  0  0  0
    2.4555    0.5362   -1.1072 C   0  0  0  0  0  0  0  0  0  0  0  0
    2.9130   -0.0329    0.2330 C   0  0  0  0  0  0  0  0  0  0  0  0
    3.5045   -1.4133    0.0883 C   0  0  0  0  0  0  0  0  0  0  0  0
    4.7675   -1.5916   -0.4918 C   0  0  0  0  0  0  0  0  0  0  0  0
    5.3055   -2.8716   -0.6340 C   0  0  0  0  0  0  0  0  0  0  0  0
    4.5877   -3.9836   -0.1975 C   0  0  0  0  0  0  0  0  0  0  0  0
    3.3319   -3.8169    0.3830 C   0  0  0  0  0  0  0  0  0  0  0  0
    2.7921   -2.5378    0.5253 C   0  0  0  0  0  0  0  0  0  0  0  0
   -1.2642    3.0769   -3.1101 S   0  0  0  0  0  0  0  0  0  0  0  0
   -2.8459    2.8510   -2.2272 C   0  0  0  0  0  0  0  0  0  0  0  0
   -3.8489    3.9692   -2.4495 C   0  0  0  0  0  0  0  0  0  0  0  0
   -3.7468    5.0306   -1.0228 S   0  0  0  0  0  6  0  0  0  0  0  0
   -3.3462    6.3563   -1.4381 O   0  0  0  0  0  0  0  0  0  0  0  0
   -4.9244    4.7969   -0.2117 O   0  0  0  0  0  0  0  0  0  0  0  0
   -2.3807    4.2313   -0.2278 C   0  0  0  0  0  0  0  0  0  0  0  0
   -2.4598    2.7987   -0.7418 C   0  0  0  0  0  0  0  0  0  0  0  0
   -1.0261   -0.3017   -0.6934 C   0  0  0  0  0  0  0  0  0  0  0  0
   -1.0721   -1.5293   -0.0155 C   0  0  0  0  0  0  0  0  0  0  0  0
   -1.4555   -2.2896    4.1065 H   0  0  0  0  0  0  0  0  0  0  0  0
    0.2183   -2.4490    3.4931 H   0  0  0  0  0  0  0  0  0  0  0  0
   -0.7684   -3.8752    3.8286 H   0  0  0  0  0  0  0  0  0  0  0  0
   -1.8896   -4.1435    0.5036 H   0  0  0  0  0  0  0  0  0  0  0  0
   -0.1490   -4.1954    0.9186 H   0  0  0  0  0  0  0  0  0  0  0  0
   -1.3632   -4.9399    1.9701 H   0  0  0  0  0  0  0  0  0  0  0  0
   -1.5776   -0.3576    3.1163 H   0  0  0  0  0  0  0  0  0  0  0  0
   -1.4789    1.7611    1.9525 H   0  0  0  0  0  0  0  0  0  0  0  0
    3.3127    0.7500   -1.7557 H   0  0  0  0  0  0  0  0  0  0  0  0
    1.8154   -0.1861   -1.6268 H   0  0  0  0  0  0  0  0  0  0  0  0
    3.6593    0.6275    0.6935 H   0  0  0  0  0  0  0  0  0  0  0  0
    2.0721   -0.0641    0.9379 H   0  0  0  0  0  0  0  0  0  0  0  0
    5.3416   -0.7332   -0.8335 H   0  0  0  0  0  0  0  0  0  0  0  0
    6.2866   -3.0003   -1.0837 H   0  0  0  0  0  0  0  0  0  0  0  0
    5.0092   -4.9792   -0.3068 H   0  0  0  0  0  0  0  0  0  0  0  0
    2.7738   -4.6828    0.7280 H   0  0  0  0  0  0  0  0  0  0  0  0
    1.8128   -2.4222    0.9845 H   0  0  0  0  0  0  0  0  0  0  0  0
   -3.2513    1.8908   -2.5647 H   0  0  0  0  0  0  0  0  0  0  0  0
   -3.6733    4.5529   -3.3566 H   0  0  0  0  0  0  0  0  0  0  0  0
   -4.8684    3.5713   -2.4734 H   0  0  0  0  0  0  0  0  0  0  0  0
   -1.4625    4.7496   -0.5202 H   0  0  0  0  0  0  0  0  0  0  0  0
   -2.4964    4.2926    0.8570 H   0  0  0  0  0  0  0  0  0  0  0  0
   -3.2429    2.2613   -0.1880 H   0  0  0  0  0  0  0  0  0  0  0  0
   -0.8812   -0.3171   -1.7715 H   0  0  0  0  0  0  0  0  0  0  0  0
   -0.9471   -2.4256   -0.6163 H   0  0  0  0  0  0  0  0  0  0  0  0
  1  2  1  0
  2  3  1  0
  2  4  1  0
  4  5  2  0
  5  6  1  0
  6  7  2  0
  7  8  1  0
  8  9  1  0
  9 10  2  3
 10 11  1  0
 11 12  2  0
 11 13  1  0
 13 14  1  0
 14 15  1  0
 15 16  2  0
 16 17  1  0
 17 18  2  0
 18 19  1  0
 19 20  2  0
  9 21  1  0
 21 22  1  0
 22 23  1  0
 23 24  1  0
 24 25  2  0
 24 26  2  0
 24 27  1  0
 27 28  1  0
  7 29  1  0
 29 30  2  0
 30  4  1  0
 28  8  1  0
 20 15  1  0
 28 22  1  0
  1 31  1  0
  1 32  1  0
  1 33  1  0
  3 34  1  0
  3 35  1  0
  3 36  1  0
  5 37  1  0
  6 38  1  0
 13 39  1  0
 13 40  1  0
 14 41  1  0
 14 42  1  0
 16 43  1  0
 17 44  1  0
 18 45  1  0
 19 46  1  0
 20 47  1  0
 22 48  1  0
 23 49  1  0
 23 50  1  0
 27 51  1  0
 27 52  1  0
 28 53  1  0
 29 54  1  0
 30 55  1  0
M  END
$$$$
