
     RDKit          3D

 47 48  0  0  0  0  0  0  0  0999 V2000
    3.8825   -3.0485    1.1503 C   0  0  0  0  0  0  0  0  0  0  0  0
    4.1667   -1.6752    1.7297 C   0  0  0  0  0  0  0  0  0  0  0  0
    4.1698   -0.6887    0.6898 O   0  0  0  0  0  0  0  0  0  0  0  0
    2.9486   -0.1702    0.3620 C   0  0  0  0  0  0  0  0  0  0  0  0
    1.9013   -0.4789    0.9159 O   0  0  0  0  0  0  0  0  0  0  0  0
    3.0296    0.8208   -0.7140 C   0  0  0  0  0  0  0  0  0  0  0  0
    4.1094    1.6502   -0.9992 C   0  0  0  0  0  0  0  0  0  0  0  0
    5.4487    1.7693   -0.3615 C   0  0  0  0  0  0  0  0  0  0  0  0
    3.7532    2.4616   -2.0447 N   0  0  0  0  0  0  0  0  0  0  0  0
    2.4758    2.1778   -2.4602 C   0  0  0  0  0  0  0  0  0  0  0  0
    1.8845    2.9019   -3.6171 C   0  0  0  0  0  0  0  0  0  0  0  0
    1.9903    1.1532   -1.6547 C   0  0  0  0  0  0  0  0  0  0  0  0
    0.6885    0.4860   -1.7691 C   0  0  0  0  0  0  0  0  0  0  0  0
    0.5968   -0.7372   -1.6553 O   0  0  0  0  0  0  0  0  0  0  0  0
   -0.5397    1.3406   -2.0834 C   0  0  0  0  0  0  0  0  0  0  0  0
   -1.7593    0.7127   -1.6818 O   0  0  0  0  0  0  0  0  0  0  0  0
   -2.0034    0.8087   -0.3512 C   0  0  0  0  0  0  0  0  0  0  0  0
   -1.3673    1.4691    0.4527 O   0  0  0  0  0  0  0  0  0  0  0  0
   -3.1963   -0.0038   -0.0421 C   0  0  0  0  0  0  0  0  0  0  0  0
   -3.6552   -0.0599    1.2173 C   0  0  0  0  0  0  0  0  0  0  0  0
   -4.8176   -0.8546    1.6339 C   0  0  0  0  0  0  0  0  0  0  0  0
   -4.8045   -1.4536    2.9014 C   0  0  0  0  0  0  0  0  0  0  0  0
   -5.9001   -2.1973    3.3500 C   0  0  0  0  0  0  0  0  0  0  0  0
   -7.0211   -2.3361    2.5360 C   0  0  0  0  0  0  0  0  0  0  0  0
   -8.3715   -3.2487    3.0866 Cl  0  0  0  0  0  0  0  0  0  0  0  0
   -7.0571   -1.7347    1.2804 C   0  0  0  0  0  0  0  0  0  0  0  0
   -5.9599   -0.9918    0.8328 C   0  0  0  0  0  0  0  0  0  0  0  0
    4.6031   -3.2895    0.3619 H   0  0  0  0  0  0  0  0  0  0  0  0
    3.9392   -3.8162    1.9271 H   0  0  0  0  0  0  0  0  0  0  0  0
    2.8880   -3.0856    0.6947 H   0  0  0  0  0  0  0  0  0  0  0  0
    5.1649   -1.6671    2.1796 H   0  0  0  0  0  0  0  0  0  0  0  0
    3.4565   -1.4181    2.5240 H   0  0  0  0  0  0  0  0  0  0  0  0
    5.9774    2.6657   -0.7020 H   0  0  0  0  0  0  0  0  0  0  0  0
    6.0661    0.8999   -0.6080 H   0  0  0  0  0  0  0  0  0  0  0  0
    5.3534    1.8344    0.7270 H   0  0  0  0  0  0  0  0  0  0  0  0
    4.3542    3.1639   -2.4585 H   0  0  0  0  0  0  0  0  0  0  0  0
    2.6368    3.4937   -4.1492 H   0  0  0  0  0  0  0  0  0  0  0  0
    1.0985    3.5841   -3.2791 H   0  0  0  0  0  0  0  0  0  0  0  0
    1.4532    2.1957   -4.3333 H   0  0  0  0  0  0  0  0  0  0  0  0
   -0.5925    1.4650   -3.1695 H   0  0  0  0  0  0  0  0  0  0  0  0
   -0.4508    2.3372   -1.6360 H   0  0  0  0  0  0  0  0  0  0  0  0
   -3.6450   -0.5518   -0.8606 H   0  0  0  0  0  0  0  0  0  0  0  0
   -3.1400    0.4821    2.0096 H   0  0  0  0  0  0  0  0  0  0  0  0
   -3.9347   -1.3548    3.5484 H   0  0  0  0  0  0  0  0  0  0  0  0
   -5.8699   -2.6619    4.3318 H   0  0  0  0  0  0  0  0  0  0  0  0
   -7.9346   -1.8343    0.6473 H   0  0  0  0  0  0  0  0  0  0  0  0
   -6.0167   -0.5149   -0.1426 H   0  0  0  0  0  0  0  0  0  0  0  0
  1  2  1  0
  2  3  1  0
  3  4  1  0
  4  5  2  0
  4  6  1  0
  6  7  2  0
  7  8  1  0
  7  9  1  0
  9 10  1  0
 10 11  1  0
 10 12  2  0
 12 13  1  0
 13 14  2  0
 13 15  1  0
 15 16  1  0
 16 17  1  0
 17 18  2  0
 17 19  1  0
 19 20  2  3
 20 21  1  0
 21 22  2  0
 22 23  1  0
 23 24  2  0
 24 25  1  0
 24 26  1  0
 26 27  2  0
 12  6  1  0
 27 21  1  0
  1 28  1  0
  1 29  1  0
  1 30  1  0
  2 31  1  0
  2 32  1  0
  8 33  1  0
  8 34  1  0
  8 35  1  0
  9 36  1  0
 11 37  1  0
 11 38  1  0
 11 39  1  0
 15 40  1  0
 15 41  1  0
 19 42  1  0
 20 43  1  0
 22 44  1  0
 23 45  1  0
 26 46  1  0
 27 47  1  0
M  END
$$$$
