
     RDKit          3D

 45 46  0  0  0  0  0  0  0  0999 V2000
   -7.6654    0.5932   -0.8229 C   0  0  0  0  0  0  0  0  0  0  0  0
   -7.3429   -0.7813   -0.2632 C   0  0  0  0  0  0  0  0  0  0  0  0
   -6.1004   -1.2574   -0.7766 O   0  0  0  0  0  0  0  0  0  0  0  0
   -4.9513   -0.9776   -0.0930 C   0  0  0  0  0  0  0  0  0  0  0  0
   -4.8255   -0.1250    1.0026 C   0  0  0  0  0  0  0  0  0  0  0  0
   -3.5761    0.0747    1.6030 C   0  0  0  0  0  0  0  0  0  0  0  0
   -2.4359   -0.5784    1.1173 C   0  0  0  0  0  0  0  0  0  0  0  0
   -1.0858   -0.3486    1.7446 C   0  0  0  0  0  0  0  0  0  0  0  0
   -0.3116    0.5832    0.9573 N   0  0  0  0  0  0  0  0  0  0  0  0
    0.6827    0.1606    0.1273 C   0  0  0  0  0  0  0  0  0  0  0  0
    1.0904   -0.9872    0.0756 O   0  0  0  0  0  0  0  0  0  0  0  0
    1.1913    1.1902   -0.6430 N   0  0  0  0  0  0  0  0  0  0  0  0
    2.3719    1.0242   -1.7991 S   0  0  0  0  0  6  0  0  0  0  0  0
    2.0109   -0.0299   -2.7193 O   0  0  0  0  0  0  0  0  0  0  0  0
    2.6186    2.3700   -2.2796 O   0  0  0  0  0  0  0  0  0  0  0  0
    3.8003    0.5297   -0.8690 C   0  0  0  0  0  0  0  0  0  0  0  0
    4.6336    1.5037   -0.3109 C   0  0  0  0  0  0  0  0  0  0  0  0
    5.7804    1.1181    0.3921 C   0  0  0  0  0  0  0  0  0  0  0  0
    6.0988   -0.2352    0.5290 C   0  0  0  0  0  0  0  0  0  0  0  0
    7.1837   -0.7425    1.1892 O   0  0  0  0  0  0  0  0  0  0  0  0
    8.0850    0.1945    1.7646 C   0  0  0  0  0  0  0  0  0  0  0  0
    5.2641   -1.1991   -0.0465 C   0  0  0  0  0  0  0  0  0  0  0  0
    4.1200   -0.8232   -0.7530 C   0  0  0  0  0  0  0  0  0  0  0  0
   -2.5657   -1.4248    0.0099 C   0  0  0  0  0  0  0  0  0  0  0  0
   -3.8134   -1.6192   -0.5871 C   0  0  0  0  0  0  0  0  0  0  0  0
   -6.9221    1.3351   -0.5165 H   0  0  0  0  0  0  0  0  0  0  0  0
   -7.6584    0.5718   -1.9178 H   0  0  0  0  0  0  0  0  0  0  0  0
   -8.6505    0.9268   -0.4844 H   0  0  0  0  0  0  0  0  0  0  0  0
   -7.3852   -0.8082    0.8312 H   0  0  0  0  0  0  0  0  0  0  0  0
   -8.1099   -1.4834   -0.6096 H   0  0  0  0  0  0  0  0  0  0  0  0
   -5.6756    0.4093    1.4121 H   0  0  0  0  0  0  0  0  0  0  0  0
   -3.5048    0.7465    2.4558 H   0  0  0  0  0  0  0  0  0  0  0  0
   -0.5582   -1.3011    1.8666 H   0  0  0  0  0  0  0  0  0  0  0  0
   -1.1979    0.0898    2.7424 H   0  0  0  0  0  0  0  0  0  0  0  0
   -0.7028    1.4982    0.8080 H   0  0  0  0  0  0  0  0  0  0  0  0
    0.8791    2.1441   -0.5325 H   0  0  0  0  0  0  0  0  0  0  0  0
    4.4056    2.5612   -0.4236 H   0  0  0  0  0  0  0  0  0  0  0  0
    6.4062    1.8974    0.8146 H   0  0  0  0  0  0  0  0  0  0  0  0
    7.5930    0.7888    2.5417 H   0  0  0  0  0  0  0  0  0  0  0  0
    8.5305    0.8366    0.9976 H   0  0  0  0  0  0  0  0  0  0  0  0
    8.8947   -0.3683    2.2390 H   0  0  0  0  0  0  0  0  0  0  0  0
    5.5094   -2.2541    0.0543 H   0  0  0  0  0  0  0  0  0  0  0  0
    3.4828   -1.5868   -1.1953 H   0  0  0  0  0  0  0  0  0  0  0  0
   -1.6955   -1.9369   -0.3985 H   0  0  0  0  0  0  0  0  0  0  0  0
   -3.8983   -2.2793   -1.4474 H   0  0  0  0  0  0  0  0  0  0  0  0
  1  2  1  0
  2  3  1  0
  3  4  1  0
  4  5  2  0
  5  6  1  0
  6  7  2  0
  7  8  1  0
  8  9  1  0
  9 10  1  0
 10 11  2  0
 10 12  1  0
 12 13  1  0
 13 14  2  0
 13 15  2  0
 13 16  1  0
 16 17  2  0
 17 18  1  0
 18 19  2  0
 19 20  1  0
 20 21  1  0
 19 22  1  0
 22 23  2  0
  7 24  1  0
 24 25  2  0
 25  4  1  0
 23 16  1  0
  1 26  1  0
  1 27  1  0
  1 28  1  0
  2 29  1  0
  2 30  1  0
  5 31  1  0
  6 32  1  0
  8 33  1  0
  8 34  1  0
  9 35  1  0
 12 36  1  0
 17 37  1  0
 18 38  1  0
 21 39  1  0
 21 40  1  0
 21 41  1  0
 22 42  1  0
 23 43  1  0
 24 44  1  0
 25 45  1  0
M  END
$$$$
