
     RDKit          3D

 49 51  0  0  0  0  0  0  0  0999 V2000
   -3.3656    3.8286    0.4371 C   0  0  0  0  0  0  0  0  0  0  0  0
   -3.3804    2.3430    0.2292 C   0  0  0  0  0  0  0  0  0  0  0  0
   -4.5916    1.6643    0.0573 C   0  0  0  0  0  0  0  0  0  0  0  0
   -4.6084    0.2838   -0.1745 C   0  0  0  0  0  0  0  0  0  0  0  0
   -5.9097   -0.4502   -0.3222 C   0  0  0  0  0  0  0  0  0  0  0  0
   -3.3963   -0.4233   -0.2203 C   0  0  0  0  0  0  0  0  0  0  0  0
   -2.1780    0.2393   -0.0678 C   0  0  0  0  0  0  0  0  0  0  0  0
   -0.9233   -0.3962   -0.1158 N   0  0  0  0  0  0  0  0  0  0  0  0
   -0.6469   -1.7471   -0.2907 C   0  0  0  0  0  0  0  0  0  0  0  0
   -1.4744   -2.6375   -0.4716 O   0  0  0  0  0  0  0  0  0  0  0  0
    0.8752   -2.0503   -0.2855 C   0  0  0  0  0  0  0  0  0  0  0  0
    1.6625   -0.9894    0.2814 O   0  0  0  0  0  0  0  0  0  0  0  0
    1.7358   -0.9941    1.6340 C   0  0  0  0  0  0  0  0  0  0  0  0
    1.1635   -1.7718    2.3774 O   0  0  0  0  0  0  0  0  0  0  0  0
    2.5769    0.1357    2.1094 C   0  0  0  0  0  0  0  0  0  0  0  0
    2.5481    0.4518    3.4762 C   0  0  0  0  0  0  0  0  0  0  0  0
    3.3139    1.5101    3.9726 C   0  0  0  0  0  0  0  0  0  0  0  0
    4.1070    2.2466    3.0985 C   0  0  0  0  0  0  0  0  0  0  0  0
    4.8694    3.2873    3.5375 O   0  0  0  0  0  0  0  0  0  0  0  0
    4.1493    1.9423    1.7419 C   0  0  0  0  0  0  0  0  0  0  0  0
    3.3850    0.8849    1.2425 C   0  0  0  0  0  0  0  0  0  0  0  0
    1.4124   -2.2828   -1.6890 C   0  0  0  0  0  0  0  0  0  0  0  0
    2.1055   -3.4692   -1.9867 C   0  0  0  0  0  0  0  0  0  0  0  0
    2.6192   -3.6921   -3.2658 C   0  0  0  0  0  0  0  0  0  0  0  0
    2.4521   -2.7320   -4.2621 C   0  0  0  0  0  0  0  0  0  0  0  0
    1.7730   -1.5470   -3.9810 C   0  0  0  0  0  0  0  0  0  0  0  0
    1.2597   -1.3200   -2.7022 C   0  0  0  0  0  0  0  0  0  0  0  0
   -2.1796    1.6245    0.1494 C   0  0  0  0  0  0  0  0  0  0  0  0
   -2.5007    4.1312    1.0369 H   0  0  0  0  0  0  0  0  0  0  0  0
   -3.3221    4.3401   -0.5293 H   0  0  0  0  0  0  0  0  0  0  0  0
   -4.2634    4.1586    0.9718 H   0  0  0  0  0  0  0  0  0  0  0  0
   -5.5302    2.2141    0.1040 H   0  0  0  0  0  0  0  0  0  0  0  0
   -6.1896   -0.9133    0.6299 H   0  0  0  0  0  0  0  0  0  0  0  0
   -6.7124    0.2290   -0.6311 H   0  0  0  0  0  0  0  0  0  0  0  0
   -5.8293   -1.2287   -1.0888 H   0  0  0  0  0  0  0  0  0  0  0  0
   -3.4347   -1.4968   -0.3837 H   0  0  0  0  0  0  0  0  0  0  0  0
   -0.1135    0.2004    0.0037 H   0  0  0  0  0  0  0  0  0  0  0  0
    1.0109   -2.9680    0.3032 H   0  0  0  0  0  0  0  0  0  0  0  0
    1.9257   -0.1240    4.1594 H   0  0  0  0  0  0  0  0  0  0  0  0
    3.2793    1.7391    5.0340 H   0  0  0  0  0  0  0  0  0  0  0  0
    4.7434    3.3884    4.4957 H   0  0  0  0  0  0  0  0  0  0  0  0
    4.7796    2.5251    1.0746 H   0  0  0  0  0  0  0  0  0  0  0  0
    3.4363    0.6571    0.1798 H   0  0  0  0  0  0  0  0  0  0  0  0
    2.2437   -4.2360   -1.2265 H   0  0  0  0  0  0  0  0  0  0  0  0
    3.1455   -4.6191   -3.4858 H   0  0  0  0  0  0  0  0  0  0  0  0
    2.8472   -2.9095   -5.2590 H   0  0  0  0  0  0  0  0  0  0  0  0
    1.6383   -0.8002   -4.7603 H   0  0  0  0  0  0  0  0  0  0  0  0
    0.7314   -0.3866   -2.5111 H   0  0  0  0  0  0  0  0  0  0  0  0
   -1.2398    2.1597    0.2673 H   0  0  0  0  0  0  0  0  0  0  0  0
  1  2  1  0
  2  3  2  0
  3  4  1  0
  4  5  1  0
  4  6  2  0
  6  7  1  0
  7  8  1  0
  8  9  1  0
  9 10  2  0
  9 11  1  0
 11 12  1  0
 12 13  1  0
 13 14  2  0
 13 15  1  0
 15 16  2  0
 16 17  1  0
 17 18  2  0
 18 19  1  0
 18 20  1  0
 20 21  2  0
 11 22  1  0
 22 23  2  0
 23 24  1  0
 24 25  2  0
 25 26  1  0
 26 27  2  0
  7 28  2  0
 28  2  1  0
 21 15  1  0
 27 22  1  0
  1 29  1  0
  1 30  1  0
  1 31  1  0
  3 32  1  0
  5 33  1  0
  5 34  1  0
  5 35  1  0
  6 36  1  0
  8 37  1  0
 11 38  1  0
 16 39  1  0
 17 40  1  0
 19 41  1  0
 20 42  1  0
 21 43  1  0
 23 44  1  0
 24 45  1  0
 25 46  1  0
 26 47  1  0
 27 48  1  0
 28 49  1  0
M  END
$$$$
