
     RDKit          3D

 37 37  0  0  0  0  0  0  0  0999 V2000
    5.3832    0.7322   -1.6694 C   0  0  0  0  0  0  0  0  0  0  0  0
    4.2342    1.2190   -0.8008 C   0  0  0  0  0  0  0  0  0  0  0  0
    3.2675    0.0843   -0.4633 C   0  0  0  0  0  0  0  0  0  0  0  0
    2.1131    0.5782    0.4101 C   0  0  0  0  0  0  0  0  0  0  0  0
    1.1448   -0.5578    0.7475 C   0  0  0  0  0  0  0  0  0  0  0  0
   -0.0107   -0.0590    1.6179 C   0  0  0  0  0  0  0  0  0  0  0  0
   -0.9693   -1.1723    2.0537 C   0  0  0  0  0  0  0  0  0  0  0  0
   -1.7457   -1.8535    0.9211 C   0  0  0  0  0  0  0  0  0  0  0  0
   -2.6578   -0.9207    0.2369 N   0  0  0  0  0  0  0  0  0  0  0  0
   -3.8588   -0.5331    0.8197 C   0  0  0  0  0  0  0  0  0  0  0  0
   -4.7372    0.3108    0.2624 C   0  0  0  0  0  0  0  0  0  0  0  0
   -4.4113    0.8738   -1.0745 C   0  0  0  0  0  0  0  0  0  0  0  0
   -5.1872    1.6995   -1.6989 N   0  0  0  0  0  0  0  0  0  0  0  0
   -3.1325    0.4489   -1.6941 C   0  0  0  0  0  0  0  0  0  0  0  0
   -2.3534   -0.4035   -1.0166 C   0  0  0  0  0  0  0  0  0  0  0  0
    5.0140    0.3236   -2.6154 H   0  0  0  0  0  0  0  0  0  0  0  0
    5.9578   -0.0473   -1.1590 H   0  0  0  0  0  0  0  0  0  0  0  0
    6.0620    1.5596   -1.8986 H   0  0  0  0  0  0  0  0  0  0  0  0
    3.7003    2.0193   -1.3264 H   0  0  0  0  0  0  0  0  0  0  0  0
    4.6389    1.6505    0.1220 H   0  0  0  0  0  0  0  0  0  0  0  0
    3.8072   -0.7153    0.0587 H   0  0  0  0  0  0  0  0  0  0  0  0
    2.8690   -0.3466   -1.3900 H   0  0  0  0  0  0  0  0  0  0  0  0
    1.5731    1.3773   -0.1124 H   0  0  0  0  0  0  0  0  0  0  0  0
    2.5119    1.0091    1.3365 H   0  0  0  0  0  0  0  0  0  0  0  0
    1.6833   -1.3547    1.2744 H   0  0  0  0  0  0  0  0  0  0  0  0
    0.7606   -0.9875   -0.1835 H   0  0  0  0  0  0  0  0  0  0  0  0
    0.4034    0.4030    2.5232 H   0  0  0  0  0  0  0  0  0  0  0  0
   -0.5611    0.7309    1.0943 H   0  0  0  0  0  0  0  0  0  0  0  0
   -1.6776   -0.7502    2.7774 H   0  0  0  0  0  0  0  0  0  0  0  0
   -0.3993   -1.9388    2.5935 H   0  0  0  0  0  0  0  0  0  0  0  0
   -2.3340   -2.6784    1.3439 H   0  0  0  0  0  0  0  0  0  0  0  0
   -1.0569   -2.3213    0.2080 H   0  0  0  0  0  0  0  0  0  0  0  0
   -4.0536   -0.9716    1.7943 H   0  0  0  0  0  0  0  0  0  0  0  0
   -5.6618    0.5914    0.7446 H   0  0  0  0  0  0  0  0  0  0  0  0
   -6.0261    1.8946   -1.1458 H   0  0  0  0  0  0  0  0  0  0  0  0
   -2.8801    0.8438   -2.6679 H   0  0  0  0  0  0  0  0  0  0  0  0
   -1.4100   -0.7380   -1.4371 H   0  0  0  0  0  0  0  0  0  0  0  0
  1  2  1  0
  2  3  1  0
  3  4  1  0
  4  5  1  0
  5  6  1  0
  6  7  1  0
  7  8  1  0
  8  9  1  0
  9 10  1  0
 10 11  2  0
 11 12  1  0
 12 13  2  3
 12 14  1  0
 14 15  2  0
 15  9  1  0
  1 16  1  0
  1 17  1  0
  1 18  1  0
  2 19  1  0
  2 20  1  0
  3 21  1  0
  3 22  1  0
  4 23  1  0
  4 24  1  0
  5 25  1  0
  5 26  1  0
  6 27  1  0
  6 28  1  0
  7 29  1  0
  7 30  1  0
  8 31  1  0
  8 32  1  0
 10 33  1  0
 11 34  1  0
 13 35  1  0
 14 36  1  0
 15 37  1  0
M  END
$$$$
