
     RDKit          3D

 52 55  0  0  0  0  0  0  0  0999 V2000
    7.6390    1.8368    3.6403 N   0  0  0  0  0  0  0  0  0  0  0  0
    6.5405    1.5495    4.8853 S   0  0  0  0  0  6  0  0  0  0  0  0
    6.9671    0.3155    5.5036 O   0  0  0  0  0  0  0  0  0  0  0  0
    6.3810    2.7773    5.6272 O   0  0  0  0  0  0  0  0  0  0  0  0
    5.0512    1.2409    3.9748 C   0  0  0  0  0  0  0  0  0  0  0  0
    4.7221   -0.0648    3.6057 C   0  0  0  0  0  0  0  0  0  0  0  0
    3.5456   -0.2993    2.8929 C   0  0  0  0  0  0  0  0  0  0  0  0
    2.6906    0.7625    2.5605 C   0  0  0  0  0  0  0  0  0  0  0  0
    1.4258    0.4982    1.7803 C   0  0  0  0  0  0  0  0  0  0  0  0
    1.6639    0.5815    0.2710 C   0  0  0  0  0  0  0  0  0  0  0  0
    0.4583    0.3125   -0.4900 N   0  0  0  0  0  0  0  0  0  0  0  0
    0.0157   -0.9782   -0.6937 C   0  0  0  0  0  0  0  0  0  0  0  0
    0.5638   -1.9702   -0.2332 O   0  0  0  0  0  0  0  0  0  0  0  0
   -1.2008   -1.0977   -1.5313 C   0  0  0  0  0  0  0  0  0  0  0  0
   -2.3239   -0.3622   -1.1433 C   0  0  0  0  0  0  0  0  0  0  0  0
   -3.4744   -0.4549   -1.9076 C   0  0  0  0  0  0  0  0  0  0  0  0
   -4.7195    0.2758   -1.5866 C   0  0  0  0  0  0  0  0  0  0  0  0
   -5.9746   -0.2651   -1.9249 C   0  0  0  0  0  0  0  0  0  0  0  0
   -7.1656    0.4042   -1.6276 C   0  0  0  0  0  0  0  0  0  0  0  0
   -7.1285    1.6379   -0.9866 C   0  0  0  0  0  0  0  0  0  0  0  0
   -5.9026    2.2025   -0.6477 C   0  0  0  0  0  0  0  0  0  0  0  0
   -4.7124    1.5296   -0.9463 C   0  0  0  0  0  0  0  0  0  0  0  0
   -3.5238   -1.2458   -3.0075 N   0  0  0  0  0  0  0  0  0  0  0  0
   -2.4471   -1.9619   -3.3745 C   0  0  0  0  0  0  0  0  0  0  0  0
   -2.5436   -2.7579   -4.5084 C   0  0  0  0  0  0  0  0  0  0  0  0
   -1.4729   -3.5292   -4.9655 C   0  0  0  0  0  0  0  0  0  0  0  0
   -0.2698   -3.5090   -4.2762 C   0  0  0  0  0  0  0  0  0  0  0  0
   -0.1472   -2.7175   -3.1359 C   0  0  0  0  0  0  0  0  0  0  0  0
   -1.2330   -1.9346   -2.6664 C   0  0  0  0  0  0  0  0  0  0  0  0
    3.0319    2.0673    2.9448 C   0  0  0  0  0  0  0  0  0  0  0  0
    4.2084    2.3086    3.6556 C   0  0  0  0  0  0  0  0  0  0  0  0
    8.3494    1.1029    3.6553 H   0  0  0  0  0  0  0  0  0  0  0  0
    7.1957    1.9187    2.7263 H   0  0  0  0  0  0  0  0  0  0  0  0
    5.3654   -0.9010    3.8711 H   0  0  0  0  0  0  0  0  0  0  0  0
    3.2903   -1.3184    2.6040 H   0  0  0  0  0  0  0  0  0  0  0  0
    0.6519    1.2179    2.0776 H   0  0  0  0  0  0  0  0  0  0  0  0
    1.0276   -0.4864    2.0558 H   0  0  0  0  0  0  0  0  0  0  0  0
    2.4368   -0.1318   -0.0395 H   0  0  0  0  0  0  0  0  0  0  0  0
    2.0048    1.5839   -0.0112 H   0  0  0  0  0  0  0  0  0  0  0  0
    0.0214    1.0760   -0.9909 H   0  0  0  0  0  0  0  0  0  0  0  0
   -2.2998    0.2360   -0.2389 H   0  0  0  0  0  0  0  0  0  0  0  0
   -6.0294   -1.2295   -2.4288 H   0  0  0  0  0  0  0  0  0  0  0  0
   -8.1187   -0.0411   -1.9010 H   0  0  0  0  0  0  0  0  0  0  0  0
   -8.0533    2.1605   -0.7569 H   0  0  0  0  0  0  0  0  0  0  0  0
   -5.8703    3.1711   -0.1555 H   0  0  0  0  0  0  0  0  0  0  0  0
   -3.7756    2.0149   -0.6844 H   0  0  0  0  0  0  0  0  0  0  0  0
   -3.4843   -2.7785   -5.0549 H   0  0  0  0  0  0  0  0  0  0  0  0
   -1.5859   -4.1425   -5.8557 H   0  0  0  0  0  0  0  0  0  0  0  0
    0.5703   -4.1081   -4.6183 H   0  0  0  0  0  0  0  0  0  0  0  0
    0.8043   -2.7221   -2.6067 H   0  0  0  0  0  0  0  0  0  0  0  0
    2.3776    2.9022    2.7019 H   0  0  0  0  0  0  0  0  0  0  0  0
    4.4564    3.3232    3.9617 H   0  0  0  0  0  0  0  0  0  0  0  0
  1  2  1  0
  2  3  2  0
  2  4  2  0
  2  5  1  0
  5  6  2  0
  6  7  1  0
  7  8  2  0
  8  9  1  0
  9 10  1  0
 10 11  1  0
 11 12  1  0
 12 13  2  0
 12 14  1  0
 14 15  2  0
 15 16  1  0
 16 17  1  0
 17 18  2  0
 18 19  1  0
 19 20  2  0
 20 21  1  0
 21 22  2  0
 16 23  2  0
 23 24  1  0
 24 25  2  0
 25 26  1  0
 26 27  2  0
 27 28  1  0
 28 29  2  0
  8 30  1  0
 30 31  2  0
 31  5  1  0
 29 14  1  0
 22 17  1  0
 29 24  1  0
  1 32  1  0
  1 33  1  0
  6 34  1  0
  7 35  1  0
  9 36  1  0
  9 37  1  0
 10 38  1  0
 10 39  1  0
 11 40  1  0
 15 41  1  0
 18 42  1  0
 19 43  1  0
 20 44  1  0
 21 45  1  0
 22 46  1  0
 25 47  1  0
 26 48  1  0
 27 49  1  0
 28 50  1  0
 30 51  1  0
 31 52  1  0
M  END
$$$$
