
     RDKit          3D

 70 72  0  0  0  0  0  0  0  0999 V2000
    7.5886   -1.0824   -3.7573 C   0  0  0  0  0  0  0  0  0  0  0  0
    6.5096   -1.0919   -2.6856 C   0  0  0  0  0  0  0  0  0  0  0  0
    7.0744   -0.6911   -1.3216 C   0  0  0  0  0  0  0  0  0  0  0  0
    5.9801   -0.6732   -0.2506 C   0  0  0  0  0  0  0  0  0  0  0  0
    6.5288   -0.1990    1.0966 C   0  0  0  0  0  0  0  0  0  0  0  0
    5.5317   -0.2709    2.2616 C   0  0  0  0  0  0  0  0  0  0  0  0
    4.2498    0.5446    2.0568 C   0  0  0  0  0  0  0  0  0  0  0  0
    3.0876   -0.2935    1.5082 C   0  0  0  0  0  0  0  0  0  0  0  0
    1.8841    0.5936    1.1848 C   0  0  0  0  0  0  0  0  0  0  0  0
    0.8059   -0.2005    0.4403 C   0  0  0  0  0  0  0  0  0  0  0  0
   -0.4880    0.6072    0.1192 N   0  0  0  0  0  4  0  0  0  0  0  0
   -0.1419    1.8743   -0.6550 C   0  0  0  0  0  0  0  0  0  0  0  0
   -1.1930    0.9631    1.4275 C   0  0  0  0  0  0  0  0  0  0  0  0
   -1.3925   -0.3479   -0.7331 C   0  0  0  0  0  0  0  0  0  0  0  0
   -2.4993    0.3056   -1.5869 C   0  0  0  0  0  0  0  0  0  0  0  0
   -3.6028    0.9754   -0.8094 C   0  0  0  0  0  0  0  0  0  0  0  0
   -4.7618    0.4562   -0.3447 C   0  0  0  0  0  0  0  0  0  0  0  0
   -5.5186    1.2743    0.6464 C   0  0  0  0  0  0  0  0  0  0  0  0
   -5.8159    2.6312    0.4346 C   0  0  0  0  0  0  0  0  0  0  0  0
   -6.5088    3.3635    1.4005 C   0  0  0  0  0  0  0  0  0  0  0  0
   -6.9174    2.7485    2.5823 C   0  0  0  0  0  0  0  0  0  0  0  0
   -6.6581    1.3902    2.7921 C   0  0  0  0  0  0  0  0  0  0  0  0
   -5.9658    0.6471    1.8290 C   0  0  0  0  0  0  0  0  0  0  0  0
   -5.6451   -1.0897    2.1622 S   0  0  0  0  0  0  0  0  0  0  0  0
   -5.5907   -1.7409    0.4921 C   0  0  0  0  0  0  0  0  0  0  0  0
   -6.0020   -3.0632    0.2790 C   0  0  0  0  0  0  0  0  0  0  0  0
   -6.0577   -3.5839   -1.0159 C   0  0  0  0  0  0  0  0  0  0  0  0
   -5.7113   -2.7778   -2.0987 C   0  0  0  0  0  0  0  0  0  0  0  0
   -5.8348   -3.4012   -3.6957 Cl  0  0  0  0  0  0  0  0  0  0  0  0
   -5.2808   -1.4652   -1.8994 C   0  0  0  0  0  0  0  0  0  0  0  0
   -5.1810   -0.9460   -0.5980 C   0  0  0  0  0  0  0  0  0  0  0  0
    8.0573   -0.0979   -3.8230 H   0  0  0  0  0  0  0  0  0  0  0  0
    8.3733   -1.8136   -3.5266 H   0  0  0  0  0  0  0  0  0  0  0  0
    7.1594   -1.3381   -4.7346 H   0  0  0  0  0  0  0  0  0  0  0  0
    6.0630   -2.0919   -2.6266 H   0  0  0  0  0  0  0  0  0  0  0  0
    5.7049   -0.4020   -2.9831 H   0  0  0  0  0  0  0  0  0  0  0  0
    7.5390    0.3006   -1.3907 H   0  0  0  0  0  0  0  0  0  0  0  0
    7.8643   -1.3938   -1.0248 H   0  0  0  0  0  0  0  0  0  0  0  0
    5.1854    0.0026   -0.5791 H   0  0  0  0  0  0  0  0  0  0  0  0
    5.5454   -1.6734   -0.1495 H   0  0  0  0  0  0  0  0  0  0  0  0
    7.4049   -0.8055    1.3605 H   0  0  0  0  0  0  0  0  0  0  0  0
    6.8811    0.8359    0.9968 H   0  0  0  0  0  0  0  0  0  0  0  0
    6.0517    0.1307    3.1450 H   0  0  0  0  0  0  0  0  0  0  0  0
    5.2900   -1.3174    2.4920 H   0  0  0  0  0  0  0  0  0  0  0  0
    4.4476    1.4075    1.4054 H   0  0  0  0  0  0  0  0  0  0  0  0
    3.9444    0.9548    3.0285 H   0  0  0  0  0  0  0  0  0  0  0  0
    2.8002   -1.0530    2.2472 H   0  0  0  0  0  0  0  0  0  0  0  0
    3.3956   -0.8312    0.6048 H   0  0  0  0  0  0  0  0  0  0  0  0
    2.2337    1.4245    0.5632 H   0  0  0  0  0  0  0  0  0  0  0  0
    1.5013    1.0178    2.1189 H   0  0  0  0  0  0  0  0  0  0  0  0
    1.2095   -0.5353   -0.5208 H   0  0  0  0  0  0  0  0  0  0  0  0
    0.4940   -1.0796    1.0198 H   0  0  0  0  0  0  0  0  0  0  0  0
    0.5056    2.5115   -0.0420 H   0  0  0  0  0  0  0  0  0  0  0  0
   -1.0652    2.4245   -0.8571 H   0  0  0  0  0  0  0  0  0  0  0  0
    0.3557    1.5850   -1.5847 H   0  0  0  0  0  0  0  0  0  0  0  0
   -0.5385    1.6029    2.0183 H   0  0  0  0  0  0  0  0  0  0  0  0
   -1.4115    0.0374    1.9656 H   0  0  0  0  0  0  0  0  0  0  0  0
   -2.1097    1.5110    1.2133 H   0  0  0  0  0  0  0  0  0  0  0  0
   -1.8067   -1.0945   -0.0424 H   0  0  0  0  0  0  0  0  0  0  0  0
   -0.7176   -0.8704   -1.4264 H   0  0  0  0  0  0  0  0  0  0  0  0
   -2.8974   -0.4849   -2.2335 H   0  0  0  0  0  0  0  0  0  0  0  0
   -2.0745    1.0316   -2.2946 H   0  0  0  0  0  0  0  0  0  0  0  0
   -3.3659    2.0081   -0.5583 H   0  0  0  0  0  0  0  0  0  0  0  0
   -5.5263    3.1323   -0.4870 H   0  0  0  0  0  0  0  0  0  0  0  0
   -6.7431    4.4121    1.2255 H   0  0  0  0  0  0  0  0  0  0  0  0
   -7.4693    3.3176    3.3285 H   0  0  0  0  0  0  0  0  0  0  0  0
   -7.0095    0.9152    3.7085 H   0  0  0  0  0  0  0  0  0  0  0  0
   -6.3058   -3.6897    1.1154 H   0  0  0  0  0  0  0  0  0  0  0  0
   -6.3934   -4.6072   -1.1712 H   0  0  0  0  0  0  0  0  0  0  0  0
   -5.0463   -0.8405   -2.7626 H   0  0  0  0  0  0  0  0  0  0  0  0
  1  2  1  0
  2  3  1  0
  3  4  1  0
  4  5  1  0
  5  6  1  0
  6  7  1  0
  7  8  1  0
  8  9  1  0
  9 10  1  0
 10 11  1  0
 11 12  1  0
 11 13  1  0
 11 14  1  0
 14 15  1  0
 15 16  1  0
 16 17  2  3
 17 18  1  0
 18 19  2  0
 19 20  1  0
 20 21  2  0
 21 22  1  0
 22 23  2  0
 23 24  1  0
 24 25  1  0
 25 26  2  0
 26 27  1  0
 27 28  2  0
 28 29  1  0
 28 30  1  0
 30 31  2  0
 31 17  1  0
 23 18  1  0
 31 25  1  0
  1 32  1  0
  1 33  1  0
  1 34  1  0
  2 35  1  0
  2 36  1  0
  3 37  1  0
  3 38  1  0
  4 39  1  0
  4 40  1  0
  5 41  1  0
  5 42  1  0
  6 43  1  0
  6 44  1  0
  7 45  1  0
  7 46  1  0
  8 47  1  0
  8 48  1  0
  9 49  1  0
  9 50  1  0
 10 51  1  0
 10 52  1  0
 12 53  1  0
 12 54  1  0
 12 55  1  0
 13 56  1  0
 13 57  1  0
 13 58  1  0
 14 59  1  0
 14 60  1  0
 15 61  1  0
 15 62  1  0
 16 63  1  0
 19 64  1  0
 20 65  1  0
 21 66  1  0
 22 67  1  0
 26 68  1  0
 27 69  1  0
 30 70  1  0
M  CHG  1  11   1
M  END
$$$$
