
     RDKit          3D

 60 65  0  0  0  0  0  0  0  0999 V2000
    0.0514   -0.0426   -4.2765 O   0  0  0  0  0  0  0  0  0  0  0  0
    0.4254   -0.8022   -3.3851 C   0  0  0  0  0  0  0  0  0  0  0  0
   -0.3996   -2.0475   -3.0646 C   0  0  0  0  0  0  0  0  0  0  0  0
   -0.0559   -2.7906   -1.4377 S   0  0  0  0  0  0  0  0  0  0  0  0
   -0.8878   -1.6759   -0.3480 C   0  0  0  0  0  0  0  0  0  0  0  0
   -1.3762   -0.6083   -0.8795 N   0  0  0  0  0  0  0  0  0  0  0  0
   -2.1214    0.2499   -0.0809 C   0  0  0  0  0  0  0  0  0  0  0  0
   -2.5580    1.3583   -0.7106 N   0  0  0  0  0  0  0  0  0  0  0  0
   -3.3081    2.2413   -0.0049 C   0  0  0  0  0  0  0  0  0  0  0  0
   -3.6657    2.0327    1.3312 C   0  0  0  0  0  0  0  0  0  0  0  0
   -3.1975    0.8755    1.9593 C   0  0  0  0  0  0  0  0  0  0  0  0
   -2.4184   -0.0252    1.2340 C   0  0  0  0  0  0  0  0  0  0  0  0
   -1.8699   -1.2501    1.8220 C   0  0  0  0  0  0  0  0  0  0  0  0
   -2.1495   -1.4855    2.9968 O   0  0  0  0  0  0  0  0  0  0  0  0
   -1.0430   -2.0250    0.9974 N   0  0  0  0  0  0  0  0  0  0  0  0
   -0.3685   -3.1356    1.6062 C   0  0  0  0  0  0  0  0  0  0  0  0
   -1.0834   -4.0794    2.3573 C   0  0  0  0  0  0  0  0  0  0  0  0
   -0.4264   -5.1516    2.9660 C   0  0  0  0  0  0  0  0  0  0  0  0
    0.9547   -5.2851    2.8437 C   0  0  0  0  0  0  0  0  0  0  0  0
    1.6818   -4.3425    2.1219 C   0  0  0  0  0  0  0  0  0  0  0  0
    1.0258   -3.2694    1.5130 C   0  0  0  0  0  0  0  0  0  0  0  0
   -4.4648    3.0420    2.1106 C   0  0  0  0  0  0  0  0  0  0  0  0
   -5.1903    4.0510    1.2219 C   0  0  0  0  0  0  0  0  0  0  0  0
   -4.2552    4.5842    0.1426 C   0  0  0  0  0  0  0  0  0  0  0  0
   -3.7939    3.4478   -0.7663 C   0  0  0  0  0  0  0  0  0  0  0  0
    1.6155   -0.7085   -2.6836 N   0  0  0  0  0  0  0  0  0  0  0  0
    2.6140    0.2965   -2.7452 C   0  0  0  0  0  0  0  0  0  0  0  0
    2.4674    1.4137   -3.5766 C   0  0  0  0  0  0  0  0  0  0  0  0
    3.4460    2.4023   -3.6302 C   0  0  0  0  0  0  0  0  0  0  0  0
    4.5887    2.2923   -2.8488 C   0  0  0  0  0  0  0  0  0  0  0  0
    4.7731    1.1935   -2.0018 C   0  0  0  0  0  0  0  0  0  0  0  0
    5.9406    1.1168   -1.2246 C   0  0  0  0  0  0  0  0  0  0  0  0
    6.1664    0.0426   -0.3692 C   0  0  0  0  0  0  0  0  0  0  0  0
    5.2278   -0.9736   -0.2848 C   0  0  0  0  0  0  0  0  0  0  0  0
    4.0617   -0.9129   -1.0549 C   0  0  0  0  0  0  0  0  0  0  0  0
    3.7897    0.1696   -1.9338 C   0  0  0  0  0  0  0  0  0  0  0  0
   -1.4649   -1.8158   -3.1576 H   0  0  0  0  0  0  0  0  0  0  0  0
   -0.1541   -2.7965   -3.8248 H   0  0  0  0  0  0  0  0  0  0  0  0
   -3.4288    0.6799    3.0044 H   0  0  0  0  0  0  0  0  0  0  0  0
   -2.1626   -3.9976    2.4698 H   0  0  0  0  0  0  0  0  0  0  0  0
   -0.9947   -5.8782    3.5410 H   0  0  0  0  0  0  0  0  0  0  0  0
    1.4644   -6.1176    3.3223 H   0  0  0  0  0  0  0  0  0  0  0  0
    2.7622   -4.4354    2.0435 H   0  0  0  0  0  0  0  0  0  0  0  0
    1.6244   -2.5239    0.9971 H   0  0  0  0  0  0  0  0  0  0  0  0
   -3.7770    3.5779    2.7768 H   0  0  0  0  0  0  0  0  0  0  0  0
   -5.2020    2.5294    2.7398 H   0  0  0  0  0  0  0  0  0  0  0  0
   -6.0591    3.5743    0.7508 H   0  0  0  0  0  0  0  0  0  0  0  0
   -5.5701    4.8753    1.8351 H   0  0  0  0  0  0  0  0  0  0  0  0
   -4.7639    5.3499   -0.4538 H   0  0  0  0  0  0  0  0  0  0  0  0
   -3.3876    5.0647    0.6122 H   0  0  0  0  0  0  0  0  0  0  0  0
   -4.6279    3.1288   -1.4030 H   0  0  0  0  0  0  0  0  0  0  0  0
   -2.9981    3.8120   -1.4261 H   0  0  0  0  0  0  0  0  0  0  0  0
    1.7655   -1.4611   -2.0292 H   0  0  0  0  0  0  0  0  0  0  0  0
    1.5898    1.5539   -4.1995 H   0  0  0  0  0  0  0  0  0  0  0  0
    3.3105    3.2602   -4.2836 H   0  0  0  0  0  0  0  0  0  0  0  0
    5.3375    3.0796   -2.9079 H   0  0  0  0  0  0  0  0  0  0  0  0
    6.6914    1.9033   -1.2810 H   0  0  0  0  0  0  0  0  0  0  0  0
    7.0761    0.0010    0.2232 H   0  0  0  0  0  0  0  0  0  0  0  0
    5.3995   -1.8183    0.3767 H   0  0  0  0  0  0  0  0  0  0  0  0
    3.3730   -1.7444   -0.9528 H   0  0  0  0  0  0  0  0  0  0  0  0
  1  2  2  0
  2  3  1  0
  3  4  1  0
  4  5  1  0
  5  6  2  0
  6  7  1  0
  7  8  2  0
  8  9  1  0
  9 10  2  0
 10 11  1  0
 11 12  2  0
 12 13  1  0
 13 14  2  0
 13 15  1  0
 15 16  1  0
 16 17  2  0
 17 18  1  0
 18 19  2  0
 19 20  1  0
 20 21  2  0
 10 22  1  0
 22 23  1  0
 23 24  1  0
 24 25  1  0
  2 26  1  0
 26 27  1  0
 27 28  2  0
 28 29  1  0
 29 30  2  0
 30 31  1  0
 31 32  2  0
 32 33  1  0
 33 34  2  0
 34 35  1  0
 35 36  2  0
 15  5  1  0
 21 16  1  0
 36 27  1  0
 12  7  1  0
 36 31  1  0
 25  9  1  0
  3 37  1  0
  3 38  1  0
 11 39  1  0
 17 40  1  0
 18 41  1  0
 19 42  1  0
 20 43  1  0
 21 44  1  0
 22 45  1  0
 22 46  1  0
 23 47  1  0
 23 48  1  0
 24 49  1  0
 24 50  1  0
 25 51  1  0
 25 52  1  0
 26 53  1  0
 28 54  1  0
 29 55  1  0
 30 56  1  0
 32 57  1  0
 33 58  1  0
 34 59  1  0
 35 60  1  0
M  END
$$$$
