
     RDKit          3D

 48 50  0  0  0  0  0  0  0  0999 V2000
    3.8722   -3.8979    1.1276 C   0  0  0  0  0  0  0  0  0  0  0  0
    3.6358   -2.6457    0.5013 O   0  0  0  0  0  0  0  0  0  0  0  0
    2.4644   -1.9934    0.7962 C   0  0  0  0  0  0  0  0  0  0  0  0
    1.4766   -2.4926    1.6534 C   0  0  0  0  0  0  0  0  0  0  0  0
    0.3124   -1.7586    1.8918 C   0  0  0  0  0  0  0  0  0  0  0  0
    0.1345   -0.5212    1.2731 C   0  0  0  0  0  0  0  0  0  0  0  0
   -1.1069    0.2314    1.5411 C   0  0  0  0  0  0  0  0  0  0  0  0
   -1.3302    1.3958    1.0142 N   0  0  0  0  0  0  0  0  0  0  0  0
   -2.5410    1.9584    1.3271 N   0  0  0  0  0  0  0  0  0  0  0  0
   -3.7621    1.3880    1.1035 C   0  0  0  0  0  0  0  0  0  0  0  0
   -3.9946    0.1186    0.8359 N   0  0  0  0  0  0  0  0  0  0  0  0
   -5.3355   -0.0822    0.6750 C   0  0  0  0  0  0  0  0  0  0  0  0
   -5.8269   -1.2934    0.3864 O   0  0  0  0  0  0  0  0  0  0  0  0
   -6.1511    1.0144    0.8178 C   0  0  0  0  0  0  0  0  0  0  0  0
   -7.6346    1.1077    0.7075 C   0  0  0  0  0  0  0  0  0  0  0  0
   -8.2963    0.5981    1.9649 C   0  0  0  0  0  0  0  0  0  0  0  0
   -7.7912    0.3715    3.0519 O   0  0  0  0  0  0  0  0  0  0  0  0
   -9.6282    0.4353    1.7986 O   0  0  0  0  0  0  0  0  0  0  0  0
   -5.1786    2.3808    1.1637 S   0  0  0  0  0  0  0  0  0  0  0  0
    1.1130   -0.0102    0.4145 C   0  0  0  0  0  0  0  0  0  0  0  0
    2.2804   -0.7414    0.1707 C   0  0  0  0  0  0  0  0  0  0  0  0
    3.2982   -0.3286   -0.6537 O   0  0  0  0  0  0  0  0  0  0  0  0
    3.1469    0.9178   -1.3255 C   0  0  0  0  0  0  0  0  0  0  0  0
    4.3583    1.1333   -2.2024 C   0  0  0  0  0  0  0  0  0  0  0  0
    5.2856    2.1451   -1.9130 C   0  0  0  0  0  0  0  0  0  0  0  0
    6.4026    2.3356   -2.7306 C   0  0  0  0  0  0  0  0  0  0  0  0
    6.5989    1.5139   -3.8389 C   0  0  0  0  0  0  0  0  0  0  0  0
    7.9748    1.7506   -4.8452 Cl  0  0  0  0  0  0  0  0  0  0  0  0
    5.6902    0.5008   -4.1362 C   0  0  0  0  0  0  0  0  0  0  0  0
    4.5742    0.3100   -3.3187 C   0  0  0  0  0  0  0  0  0  0  0  0
    3.1202   -4.6362    0.8304 H   0  0  0  0  0  0  0  0  0  0  0  0
    3.9167   -3.7936    2.2167 H   0  0  0  0  0  0  0  0  0  0  0  0
    4.8468   -4.2625    0.7891 H   0  0  0  0  0  0  0  0  0  0  0  0
    1.5826   -3.4514    2.1501 H   0  0  0  0  0  0  0  0  0  0  0  0
   -0.4455   -2.1622    2.5587 H   0  0  0  0  0  0  0  0  0  0  0  0
   -1.8312   -0.2450    2.2270 H   0  0  0  0  0  0  0  0  0  0  0  0
   -2.5488    2.9744    1.2540 H   0  0  0  0  0  0  0  0  0  0  0  0
   -5.0563   -1.8859    0.3383 H   0  0  0  0  0  0  0  0  0  0  0  0
   -7.9610    2.1401    0.5410 H   0  0  0  0  0  0  0  0  0  0  0  0
   -7.9742    0.4984   -0.1381 H   0  0  0  0  0  0  0  0  0  0  0  0
   -9.9326    0.1106    2.6725 H   0  0  0  0  0  0  0  0  0  0  0  0
    0.9378    0.9547   -0.0492 H   0  0  0  0  0  0  0  0  0  0  0  0
    3.0656    1.7330   -0.5962 H   0  0  0  0  0  0  0  0  0  0  0  0
    2.2541    0.9131   -1.9635 H   0  0  0  0  0  0  0  0  0  0  0  0
    5.1488    2.7870   -1.0453 H   0  0  0  0  0  0  0  0  0  0  0  0
    7.1153    3.1214   -2.4951 H   0  0  0  0  0  0  0  0  0  0  0  0
    5.8454   -0.1456   -4.9957 H   0  0  0  0  0  0  0  0  0  0  0  0
    3.8744   -0.4922   -3.5467 H   0  0  0  0  0  0  0  0  0  0  0  0
  1  2  1  0
  2  3  1  0
  3  4  2  0
  4  5  1  0
  5  6  2  0
  6  7  1  0
  7  8  2  3
  8  9  1  0
  9 10  1  0
 10 11  2  0
 11 12  1  0
 12 13  1  0
 12 14  2  0
 14 15  1  0
 15 16  1  0
 16 17  2  0
 16 18  1  0
 14 19  1  0
  6 20  1  0
 20 21  2  0
 21 22  1  0
 22 23  1  0
 23 24  1  0
 24 25  2  0
 25 26  1  0
 26 27  2  0
 27 28  1  0
 27 29  1  0
 29 30  2  0
 21  3  1  0
 30 24  1  0
 19 10  1  0
  1 31  1  0
  1 32  1  0
  1 33  1  0
  4 34  1  0
  5 35  1  0
  7 36  1  0
  9 37  1  0
 13 38  1  0
 15 39  1  0
 15 40  1  0
 18 41  1  0
 20 42  1  0
 23 43  1  0
 23 44  1  0
 25 45  1  0
 26 46  1  0
 29 47  1  0
 30 48  1  0
M  END
$$$$
