
     RDKit          3D

 40 42  0  0  0  0  0  0  0  0999 V2000
   -3.3986    3.5883   -0.9657 C   0  0  0  0  0  0  0  0  0  0  0  0
   -2.9366    2.2537   -1.1257 O   0  0  0  0  0  0  0  0  0  0  0  0
   -3.5224    1.2844   -0.3509 C   0  0  0  0  0  0  0  0  0  0  0  0
   -4.5429    1.5167    0.5779 C   0  0  0  0  0  0  0  0  0  0  0  0
   -5.0781    0.4610    1.3223 C   0  0  0  0  0  0  0  0  0  0  0  0
   -4.6028   -0.8352    1.1444 C   0  0  0  0  0  0  0  0  0  0  0  0
   -3.5871   -1.0801    0.2224 C   0  0  0  0  0  0  0  0  0  0  0  0
   -3.0367   -0.0265   -0.5234 C   0  0  0  0  0  0  0  0  0  0  0  0
   -1.9703   -0.3211   -1.4909 C   0  0  0  0  0  0  0  0  0  0  0  0
   -0.7159   -0.6961   -1.2008 C   0  0  0  0  0  0  0  0  0  0  0  0
   -0.1940   -0.8108    0.1864 C   0  0  0  0  0  0  0  0  0  0  0  0
    0.9368   -1.2976    0.5965 N   0  0  0  0  0  0  0  0  0  0  0  0
    1.7381   -1.9054   -0.3276 N   0  0  0  0  0  0  0  0  0  0  0  0
    3.0967   -1.7317   -0.3464 C   0  0  0  0  0  0  0  0  0  0  0  0
    3.7288   -0.5683    0.2819 C   0  0  0  0  0  0  0  0  0  0  0  0
    4.6242   -0.8161    1.3318 C   0  0  0  0  0  0  0  0  0  0  0  0
    5.2501    0.2501    1.9793 C   0  0  0  0  0  0  0  0  0  0  0  0
    4.9883    1.5565    1.5690 C   0  0  0  0  0  0  0  0  0  0  0  0
    5.7607    2.8702    2.3673 Cl  0  0  0  0  0  0  0  0  0  0  0  0
    4.1156    1.8084    0.5108 C   0  0  0  0  0  0  0  0  0  0  0  0
    3.4870    0.7432   -0.1410 C   0  0  0  0  0  0  0  0  0  0  0  0
    2.4846    1.1149   -1.4969 Cl  0  0  0  0  0  0  0  0  0  0  0  0
    3.7670   -2.6957   -0.9180 N   0  0  0  0  0  0  0  0  0  0  0  0
    2.8029   -3.5966   -1.2860 N   0  0  0  0  0  0  0  0  0  0  0  0
    1.5520   -3.1900   -0.8177 C   0  0  0  0  0  0  0  0  0  0  0  0
    0.2104   -4.1683   -0.8487 S   0  0  0  0  0  0  0  0  0  0  0  0
   -2.8276    4.2235   -1.6498 H   0  0  0  0  0  0  0  0  0  0  0  0
   -4.4560    3.6752   -1.2362 H   0  0  0  0  0  0  0  0  0  0  0  0
   -3.2178    3.9496    0.0520 H   0  0  0  0  0  0  0  0  0  0  0  0
   -4.9476    2.5088    0.7476 H   0  0  0  0  0  0  0  0  0  0  0  0
   -5.8716    0.6527    2.0408 H   0  0  0  0  0  0  0  0  0  0  0  0
   -5.0236   -1.6556    1.7203 H   0  0  0  0  0  0  0  0  0  0  0  0
   -3.2280   -2.0985    0.0856 H   0  0  0  0  0  0  0  0  0  0  0  0
   -2.2641   -0.2066   -2.5321 H   0  0  0  0  0  0  0  0  0  0  0  0
   -0.0205   -0.8960   -2.0077 H   0  0  0  0  0  0  0  0  0  0  0  0
   -0.8405   -0.3840    0.9711 H   0  0  0  0  0  0  0  0  0  0  0  0
    4.8266   -1.8368    1.6508 H   0  0  0  0  0  0  0  0  0  0  0  0
    5.9374    0.0555    2.7991 H   0  0  0  0  0  0  0  0  0  0  0  0
    3.9346    2.8306    0.1883 H   0  0  0  0  0  0  0  0  0  0  0  0
    3.0408   -4.5261   -1.6119 H   0  0  0  0  0  0  0  0  0  0  0  0
  1  2  1  0
  2  3  1  0
  3  4  2  0
  4  5  1  0
  5  6  2  0
  6  7  1  0
  7  8  2  0
  8  9  1  0
  9 10  2  3
 10 11  1  0
 11 12  2  3
 12 13  1  0
 13 14  1  0
 14 15  1  0
 15 16  2  0
 16 17  1  0
 17 18  2  0
 18 19  1  0
 18 20  1  0
 20 21  2  0
 21 22  1  0
 14 23  2  0
 23 24  1  0
 24 25  1  0
 25 26  2  0
  8  3  1  0
 25 13  1  0
 21 15  1  0
  1 27  1  0
  1 28  1  0
  1 29  1  0
  4 30  1  0
  5 31  1  0
  6 32  1  0
  7 33  1  0
  9 34  1  0
 10 35  1  0
 11 36  1  0
 16 37  1  0
 17 38  1  0
 20 39  1  0
 24 40  1  0
M  END
$$$$
