
     RDKit          3D

 47 50  0  0  0  0  0  0  0  0999 V2000
    2.8063   -1.4178   -1.9293 C   0  0  0  0  0  0  0  0  0  0  0  0
    3.1064   -0.8540   -0.6596 O   0  0  0  0  0  0  0  0  0  0  0  0
    2.1034   -0.8517    0.2732 C   0  0  0  0  0  0  0  0  0  0  0  0
    0.7816   -1.2407    0.0370 C   0  0  0  0  0  0  0  0  0  0  0  0
   -0.1660   -1.1983    1.0702 C   0  0  0  0  0  0  0  0  0  0  0  0
   -1.5544   -1.5867    0.8235 C   0  0  0  0  0  0  0  0  0  0  0  0
   -2.4849   -0.8176    0.2445 C   0  0  0  0  0  0  0  0  0  0  0  0
   -3.7850   -1.2177    0.0626 N   0  0  0  0  0  0  0  0  0  0  0  0
   -4.3330   -0.1797   -0.4841 C   0  0  0  0  0  0  0  0  0  0  0  0
   -5.7395   -0.0350   -0.8923 C   0  0  0  0  0  0  0  0  0  0  0  0
   -6.2188    1.1542   -1.4554 C   0  0  0  0  0  0  0  0  0  0  0  0
   -7.5618    1.2596   -1.8252 C   0  0  0  0  0  0  0  0  0  0  0  0
   -8.4266    0.1819   -1.6348 C   0  0  0  0  0  0  0  0  0  0  0  0
   -7.9534   -1.0038   -1.0748 C   0  0  0  0  0  0  0  0  0  0  0  0
   -6.6120   -1.1140   -0.7033 C   0  0  0  0  0  0  0  0  0  0  0  0
   -3.5482    0.8976   -0.7129 O   0  0  0  0  0  0  0  0  0  0  0  0
   -2.3014    0.5725   -0.2695 C   0  0  0  0  0  0  0  0  0  0  0  0
   -1.3134    1.2762   -0.3118 O   0  0  0  0  0  0  0  0  0  0  0  0
    0.2132   -0.7825    2.3504 C   0  0  0  0  0  0  0  0  0  0  0  0
    1.5271   -0.3905    2.5961 C   0  0  0  0  0  0  0  0  0  0  0  0
    2.4544   -0.4031    1.5549 C   0  0  0  0  0  0  0  0  0  0  0  0
    3.7404   -0.0218    1.8480 O   0  0  0  0  0  0  0  0  0  0  0  0
    3.9542    1.3409    1.4537 C   0  0  0  0  0  0  0  0  0  0  0  0
    5.3888    1.6470    1.4700 C   0  0  0  0  0  0  0  0  0  0  0  0
    6.4913    1.0586    0.8225 C   0  0  0  0  0  0  0  0  0  0  0  0
    6.5053   -0.1101   -0.0869 C   0  0  0  0  0  0  0  0  0  0  0  0
    7.6239    1.7045    1.1167 N   0  0  0  0  0  0  0  0  0  0  0  0
    7.2669    2.7386    1.9816 O   0  0  0  0  0  0  0  0  0  0  0  0
    5.8501    2.6634    2.1903 N   0  0  0  0  0  4  0  0  0  0  0  0
    5.3378    3.5363    2.9262 O   0  0  0  0  0  1  0  0  0  0  0  0
    3.7236   -1.3988   -2.5287 H   0  0  0  0  0  0  0  0  0  0  0  0
    2.4922   -2.4623   -1.8344 H   0  0  0  0  0  0  0  0  0  0  0  0
    2.0526   -0.8218   -2.4552 H   0  0  0  0  0  0  0  0  0  0  0  0
    0.4585   -1.5677   -0.9476 H   0  0  0  0  0  0  0  0  0  0  0  0
   -1.8287   -2.5783    1.1727 H   0  0  0  0  0  0  0  0  0  0  0  0
   -5.5639    2.0083   -1.6107 H   0  0  0  0  0  0  0  0  0  0  0  0
   -7.9344    2.1836   -2.2611 H   0  0  0  0  0  0  0  0  0  0  0  0
   -9.4722    0.2672   -1.9223 H   0  0  0  0  0  0  0  0  0  0  0  0
   -8.6288   -1.8431   -0.9263 H   0  0  0  0  0  0  0  0  0  0  0  0
   -6.2553   -2.0440   -0.2654 H   0  0  0  0  0  0  0  0  0  0  0  0
   -0.5103   -0.7532    3.1604 H   0  0  0  0  0  0  0  0  0  0  0  0
    1.8241   -0.0675    3.5902 H   0  0  0  0  0  0  0  0  0  0  0  0
    3.3945    1.9906    2.1394 H   0  0  0  0  0  0  0  0  0  0  0  0
    3.5756    1.5311    0.4424 H   0  0  0  0  0  0  0  0  0  0  0  0
    5.8767    0.0804   -0.9594 H   0  0  0  0  0  0  0  0  0  0  0  0
    7.5152   -0.3303   -0.4426 H   0  0  0  0  0  0  0  0  0  0  0  0
    6.1278   -1.0007    0.4246 H   0  0  0  0  0  0  0  0  0  0  0  0
  1  2  1  0
  2  3  1  0
  3  4  2  0
  4  5  1  0
  5  6  1  0
  6  7  2  3
  7  8  1  0
  8  9  2  0
  9 10  1  0
 10 11  2  0
 11 12  1  0
 12 13  2  0
 13 14  1  0
 14 15  2  0
  9 16  1  0
 16 17  1  0
 17 18  2  0
  5 19  2  0
 19 20  1  0
 20 21  2  0
 21 22  1  0
 22 23  1  0
 23 24  1  0
 24 25  1  0
 25 26  1  0
 25 27  2  0
 27 28  1  0
 28 29  1  0
 29 30  1  0
 21  3  1  0
 29 24  2  0
 17  7  1  0
 15 10  1  0
  1 31  1  0
  1 32  1  0
  1 33  1  0
  4 34  1  0
  6 35  1  0
 11 36  1  0
 12 37  1  0
 13 38  1  0
 14 39  1  0
 15 40  1  0
 19 41  1  0
 20 42  1  0
 23 43  1  0
 23 44  1  0
 26 45  1  0
 26 46  1  0
 26 47  1  0
M  CHG  2  29   1  30  -1
M  END
$$$$
