
     RDKit          3D

 41 42  0  0  0  0  0  0  0  0999 V2000
   -6.1663   -2.0408   -0.5646 C   0  0  0  0  0  0  0  0  0  0  0  0
   -5.4433   -1.9581    0.6568 O   0  0  0  0  0  0  0  0  0  0  0  0
   -4.7099   -0.8226    0.8634 C   0  0  0  0  0  0  0  0  0  0  0  0
   -4.0479   -0.7725    2.0925 C   0  0  0  0  0  0  0  0  0  0  0  0
   -3.2551    0.3255    2.4349 C   0  0  0  0  0  0  0  0  0  0  0  0
   -3.1150    1.3966    1.5450 C   0  0  0  0  0  0  0  0  0  0  0  0
   -2.2336    2.5764    1.8859 C   0  0  0  0  0  0  0  0  0  0  0  0
   -0.9323    2.6175    1.1158 C   0  0  0  0  0  0  0  0  0  0  0  0
   -0.4559    3.6546    0.6616 O   0  0  0  0  0  0  0  0  0  0  0  0
   -0.3841    1.3597    1.0580 O   0  0  0  0  0  0  0  0  0  0  0  0
    0.8658    1.3939    0.4141 N   0  0  0  0  0  0  0  0  0  0  0  0
    1.3328    0.1923    0.2374 C   0  0  0  0  0  0  0  0  0  0  0  0
    0.6491   -0.9449    0.6128 N   0  0  0  0  0  0  0  0  0  0  0  0
    2.6698    0.0474   -0.4240 C   0  0  0  0  0  0  0  0  0  0  0  0
    3.1857    1.0946   -1.1935 C   0  0  0  0  0  0  0  0  0  0  0  0
    4.4302    0.9591   -1.8143 C   0  0  0  0  0  0  0  0  0  0  0  0
    5.1774   -0.2119   -1.6666 C   0  0  0  0  0  0  0  0  0  0  0  0
    6.3767   -0.2098   -2.3231 O   0  0  0  0  0  0  0  0  0  0  0  0
    7.2460   -1.3098   -2.0772 C   0  0  0  0  0  0  0  0  0  0  0  0
    4.6662   -1.2553   -0.8938 C   0  0  0  0  0  0  0  0  0  0  0  0
    3.4176   -1.1260   -0.2721 C   0  0  0  0  0  0  0  0  0  0  0  0
   -3.7784    1.3427    0.3118 C   0  0  0  0  0  0  0  0  0  0  0  0
   -4.5739    0.2420   -0.0261 C   0  0  0  0  0  0  0  0  0  0  0  0
   -6.7208   -2.9847   -0.5639 H   0  0  0  0  0  0  0  0  0  0  0  0
   -5.4855   -2.0559   -1.4219 H   0  0  0  0  0  0  0  0  0  0  0  0
   -6.8967   -1.2289   -0.6526 H   0  0  0  0  0  0  0  0  0  0  0  0
   -4.1519   -1.6008    2.7890 H   0  0  0  0  0  0  0  0  0  0  0  0
   -2.7492    0.3309    3.3987 H   0  0  0  0  0  0  0  0  0  0  0  0
   -2.7918    3.4980    1.6755 H   0  0  0  0  0  0  0  0  0  0  0  0
   -1.9921    2.5921    2.9542 H   0  0  0  0  0  0  0  0  0  0  0  0
    0.7316   -1.7231   -0.0326 H   0  0  0  0  0  0  0  0  0  0  0  0
   -0.3250   -0.7445    0.8225 H   0  0  0  0  0  0  0  0  0  0  0  0
    2.6272    2.0206   -1.3143 H   0  0  0  0  0  0  0  0  0  0  0  0
    4.8247    1.7792   -2.4101 H   0  0  0  0  0  0  0  0  0  0  0  0
    6.8231   -2.2396   -2.4748 H   0  0  0  0  0  0  0  0  0  0  0  0
    7.4775   -1.4041   -1.0105 H   0  0  0  0  0  0  0  0  0  0  0  0
    8.1860   -1.1176   -2.6039 H   0  0  0  0  0  0  0  0  0  0  0  0
    5.2144   -2.1799   -0.7500 H   0  0  0  0  0  0  0  0  0  0  0  0
    3.0552   -1.9387    0.3510 H   0  0  0  0  0  0  0  0  0  0  0  0
   -3.6802    2.1623   -0.3989 H   0  0  0  0  0  0  0  0  0  0  0  0
   -5.0679    0.2484   -0.9922 H   0  0  0  0  0  0  0  0  0  0  0  0
  1  2  1  0
  2  3  1  0
  3  4  2  0
  4  5  1  0
  5  6  2  0
  6  7  1  0
  7  8  1  0
  8  9  2  0
  8 10  1  0
 10 11  1  0
 11 12  2  3
 12 13  1  0
 12 14  1  0
 14 15  2  0
 15 16  1  0
 16 17  2  0
 17 18  1  0
 18 19  1  0
 17 20  1  0
 20 21  2  0
  6 22  1  0
 22 23  2  0
 23  3  1  0
 21 14  1  0
  1 24  1  0
  1 25  1  0
  1 26  1  0
  4 27  1  0
  5 28  1  0
  7 29  1  0
  7 30  1  0
 13 31  1  0
 13 32  1  0
 15 33  1  0
 16 34  1  0
 19 35  1  0
 19 36  1  0
 19 37  1  0
 20 38  1  0
 21 39  1  0
 22 40  1  0
 23 41  1  0
M  END
$$$$
