
     RDKit          3D

 39 41  0  0  0  0  0  0  0  0999 V2000
    1.4722    3.7328   -2.5203 C   0  0  0  0  0  0  0  0  0  0  0  0
    0.1531    4.0474   -1.8351 C   0  0  0  0  0  0  0  0  0  0  0  0
   -1.1415    2.8402   -2.2779 S   0  0  0  0  0  0  0  0  0  0  0  0
   -0.7031    1.4424   -1.2503 C   0  0  0  0  0  0  0  0  0  0  0  0
   -1.3660    0.2496   -1.4509 C   0  0  0  0  0  0  0  0  0  0  0  0
   -1.0226   -0.8163   -0.6451 C   0  0  0  0  0  0  0  0  0  0  0  0
   -1.6171   -2.0518   -0.7869 N   0  0  0  0  0  0  0  0  0  0  0  0
   -1.2655   -3.1155    0.1500 C   0  0  0  0  0  0  0  0  0  0  0  0
   -2.2172   -4.2415   -0.2399 C   0  0  0  0  0  0  0  0  0  0  0  0
   -3.4850   -3.4875   -0.6071 C   0  0  0  0  0  0  0  0  0  0  0  0
   -2.9691   -2.2297   -1.3084 C   0  0  0  0  0  0  0  0  0  0  0  0
   -0.0584   -0.6790    0.2799 N   0  0  0  0  0  0  0  0  0  0  0  0
    0.5171    0.5241    0.4305 C   0  0  0  0  0  0  0  0  0  0  0  0
    1.5840    0.6567    1.4286 C   0  0  0  0  0  0  0  0  0  0  0  0
    2.8056    1.2579    1.0521 C   0  0  0  0  0  0  0  0  0  0  0  0
    3.8643    1.3983    1.9532 C   0  0  0  0  0  0  0  0  0  0  0  0
    3.7258    0.9441    3.2593 C   0  0  0  0  0  0  0  0  0  0  0  0
    2.5274    0.3581    3.6627 C   0  0  0  0  0  0  0  0  0  0  0  0
    1.4631    0.2170    2.7597 C   0  0  0  0  0  0  0  0  0  0  0  0
    0.0012   -0.4655    3.3934 Cl  0  0  0  0  0  0  0  0  0  0  0  0
    0.2414    1.6038   -0.3151 N   0  0  0  0  0  0  0  0  0  0  0  0
    2.2137    4.4969   -2.2643 H   0  0  0  0  0  0  0  0  0  0  0  0
    1.3649    3.7304   -3.6104 H   0  0  0  0  0  0  0  0  0  0  0  0
    1.8783    2.7649   -2.2115 H   0  0  0  0  0  0  0  0  0  0  0  0
   -0.1943    5.0293   -2.1738 H   0  0  0  0  0  0  0  0  0  0  0  0
    0.2741    4.1139   -0.7495 H   0  0  0  0  0  0  0  0  0  0  0  0
   -2.1146    0.1559   -2.2254 H   0  0  0  0  0  0  0  0  0  0  0  0
   -0.2213   -3.4298    0.0499 H   0  0  0  0  0  0  0  0  0  0  0  0
   -1.4562   -2.8068    1.1854 H   0  0  0  0  0  0  0  0  0  0  0  0
   -2.3693   -4.9620    0.5684 H   0  0  0  0  0  0  0  0  0  0  0  0
   -1.8327   -4.7779   -1.1158 H   0  0  0  0  0  0  0  0  0  0  0  0
   -4.0287   -3.2090    0.3040 H   0  0  0  0  0  0  0  0  0  0  0  0
   -4.1601   -4.0712   -1.2393 H   0  0  0  0  0  0  0  0  0  0  0  0
   -2.9277   -2.3807   -2.3926 H   0  0  0  0  0  0  0  0  0  0  0  0
   -3.6323   -1.3850   -1.0906 H   0  0  0  0  0  0  0  0  0  0  0  0
    2.9355    1.6168    0.0313 H   0  0  0  0  0  0  0  0  0  0  0  0
    4.7940    1.8609    1.6308 H   0  0  0  0  0  0  0  0  0  0  0  0
    4.5454    1.0507    3.9653 H   0  0  0  0  0  0  0  0  0  0  0  0
    2.4216    0.0170    4.6900 H   0  0  0  0  0  0  0  0  0  0  0  0
  1  2  1  0
  2  3  1  0
  3  4  1  0
  4  5  2  0
  5  6  1  0
  6  7  1  0
  7  8  1  0
  8  9  1  0
  9 10  1  0
 10 11  1  0
  6 12  2  0
 12 13  1  0
 13 14  1  0
 14 15  2  0
 15 16  1  0
 16 17  2  0
 17 18  1  0
 18 19  2  0
 19 20  1  0
 13 21  2  0
 21  4  1  0
 11  7  1  0
 19 14  1  0
  1 22  1  0
  1 23  1  0
  1 24  1  0
  2 25  1  0
  2 26  1  0
  5 27  1  0
  8 28  1  0
  8 29  1  0
  9 30  1  0
  9 31  1  0
 10 32  1  0
 10 33  1  0
 11 34  1  0
 11 35  1  0
 15 36  1  0
 16 37  1  0
 17 38  1  0
 18 39  1  0
M  END
$$$$
