
     RDKit          3D

 57 60  0  0  0  0  0  0  0  0999 V2000
    8.2213   -1.8622    0.7298 C   0  0  0  0  0  0  0  0  0  0  0  0
    6.9757   -1.7519    1.4085 O   0  0  0  0  0  0  0  0  0  0  0  0
    5.8925   -1.3809    0.6593 C   0  0  0  0  0  0  0  0  0  0  0  0
    5.8981   -1.1025   -0.7028 C   0  0  0  0  0  0  0  0  0  0  0  0
    4.7108   -0.7325   -1.3395 C   0  0  0  0  0  0  0  0  0  0  0  0
    3.5020   -0.6330   -0.6279 C   0  0  0  0  0  0  0  0  0  0  0  0
    2.2993   -0.2237   -1.4263 C   0  0  0  0  0  0  0  0  0  0  0  0
    2.3458   -0.2140   -2.6534 O   0  0  0  0  0  0  0  0  0  0  0  0
    1.1713    0.1412   -0.7326 N   0  0  0  0  0  0  0  0  0  0  0  0
   -0.0868    0.4026   -1.3962 C   0  0  0  0  0  0  0  0  0  0  0  0
   -0.7907   -0.9229   -1.7724 C   0  0  0  0  0  0  0  0  0  0  0  0
   -2.3184   -0.7767   -2.0356 C   0  0  0  0  0  0  0  0  0  0  0  0
   -2.5743    0.1229   -3.2615 C   0  0  0  0  0  0  0  0  0  0  0  0
   -2.9031   -2.1702   -2.3386 C   0  0  0  0  0  0  0  0  0  0  0  0
   -3.0341   -0.1976   -0.7743 C   0  0  0  0  0  0  0  0  0  0  0  0
   -2.2621    0.9364   -0.1849 C   0  0  0  0  0  0  0  0  0  0  0  0
   -0.9375    1.2108   -0.4780 C   0  0  0  0  0  0  0  0  0  0  0  0
   -0.6705    2.4152    0.1808 C   0  0  0  0  0  0  0  0  0  0  0  0
   -1.7198    2.8613    0.8666 N   0  0  0  0  0  0  0  0  0  0  0  0
   -2.6985    1.9233    0.6904 N   0  0  0  0  0  0  0  0  0  0  0  0
   -3.9373    2.0804    1.3868 C   0  0  0  0  0  0  0  0  0  0  0  0
   -4.8743    1.0483    1.5055 C   0  0  0  0  0  0  0  0  0  0  0  0
   -6.0689    1.2530    2.2062 C   0  0  0  0  0  0  0  0  0  0  0  0
   -6.3375    2.4849    2.7985 C   0  0  0  0  0  0  0  0  0  0  0  0
   -5.4095    3.5158    2.6990 C   0  0  0  0  0  0  0  0  0  0  0  0
   -4.2142    3.3142    2.0042 C   0  0  0  0  0  0  0  0  0  0  0  0
    3.4909   -0.9245    0.7513 C   0  0  0  0  0  0  0  0  0  0  0  0
    2.2913   -0.8409    1.4145 O   0  0  0  0  0  0  0  0  0  0  0  0
    2.2628   -1.2039    2.7924 C   0  0  0  0  0  0  0  0  0  0  0  0
    4.6930   -1.2911    1.3762 C   0  0  0  0  0  0  0  0  0  0  0  0
    8.9753   -2.1652    1.4629 H   0  0  0  0  0  0  0  0  0  0  0  0
    8.5302   -0.8978    0.3129 H   0  0  0  0  0  0  0  0  0  0  0  0
    8.1811   -2.6350   -0.0449 H   0  0  0  0  0  0  0  0  0  0  0  0
    6.8010   -1.1619   -1.3012 H   0  0  0  0  0  0  0  0  0  0  0  0
    4.7332   -0.5160   -2.4073 H   0  0  0  0  0  0  0  0  0  0  0  0
    1.1607   -0.0317    0.2676 H   0  0  0  0  0  0  0  0  0  0  0  0
    0.1096    0.9807   -2.3075 H   0  0  0  0  0  0  0  0  0  0  0  0
   -0.2928   -1.3590   -2.6482 H   0  0  0  0  0  0  0  0  0  0  0  0
   -0.6484   -1.6491   -0.9585 H   0  0  0  0  0  0  0  0  0  0  0  0
   -2.2242    1.1488   -3.1079 H   0  0  0  0  0  0  0  0  0  0  0  0
   -2.0652   -0.2704   -4.1485 H   0  0  0  0  0  0  0  0  0  0  0  0
   -3.6446    0.1756   -3.4916 H   0  0  0  0  0  0  0  0  0  0  0  0
   -3.9820   -2.1153   -2.5224 H   0  0  0  0  0  0  0  0  0  0  0  0
   -2.4342   -2.6116   -3.2247 H   0  0  0  0  0  0  0  0  0  0  0  0
   -2.7435   -2.8569   -1.4988 H   0  0  0  0  0  0  0  0  0  0  0  0
   -4.0465    0.1174   -1.0489 H   0  0  0  0  0  0  0  0  0  0  0  0
   -3.1100   -0.9861   -0.0155 H   0  0  0  0  0  0  0  0  0  0  0  0
    0.2423    2.9970    0.1780 H   0  0  0  0  0  0  0  0  0  0  0  0
   -4.7037    0.0569    1.1084 H   0  0  0  0  0  0  0  0  0  0  0  0
   -6.7855    0.4421    2.3012 H   0  0  0  0  0  0  0  0  0  0  0  0
   -7.2637    2.6373    3.3455 H   0  0  0  0  0  0  0  0  0  0  0  0
   -5.6090    4.4782    3.1640 H   0  0  0  0  0  0  0  0  0  0  0  0
   -3.5070    4.1395    1.9431 H   0  0  0  0  0  0  0  0  0  0  0  0
    2.8790   -0.5244    3.3913 H   0  0  0  0  0  0  0  0  0  0  0  0
    2.5653   -2.2473    2.9326 H   0  0  0  0  0  0  0  0  0  0  0  0
    1.2295   -1.1084    3.1396 H   0  0  0  0  0  0  0  0  0  0  0  0
    4.7361   -1.5191    2.4370 H   0  0  0  0  0  0  0  0  0  0  0  0
  1  2  1  0
  2  3  1  0
  3  4  2  0
  4  5  1  0
  5  6  2  0
  6  7  1  0
  7  8  2  0
  7  9  1  0
  9 10  1  0
 10 11  1  0
 11 12  1  0
 12 13  1  0
 12 14  1  0
 12 15  1  0
 15 16  1  0
 16 17  2  0
 17 18  1  0
 18 19  2  0
 19 20  1  0
 20 21  1  0
 21 22  2  0
 22 23  1  0
 23 24  2  0
 24 25  1  0
 25 26  2  0
  6 27  1  0
 27 28  1  0
 28 29  1  0
 27 30  2  0
 30  3  1  0
 17 10  1  0
 26 21  1  0
 20 16  1  0
  1 31  1  0
  1 32  1  0
  1 33  1  0
  4 34  1  0
  5 35  1  0
  9 36  1  0
 10 37  1  0
 11 38  1  0
 11 39  1  0
 13 40  1  0
 13 41  1  0
 13 42  1  0
 14 43  1  0
 14 44  1  0
 14 45  1  0
 15 46  1  0
 15 47  1  0
 18 48  1  0
 22 49  1  0
 23 50  1  0
 24 51  1  0
 25 52  1  0
 26 53  1  0
 29 54  1  0
 29 55  1  0
 29 56  1  0
 30 57  1  0
M  END
$$$$
