
     RDKit          3D

 54 58  0  0  0  0  0  0  0  0999 V2000
   -8.5947   -0.1116    2.3810 O   0  0  0  0  0  0  0  0  0  0  0  0
   -7.5580   -0.2802    2.9961 C   0  0  0  0  0  0  0  0  0  0  0  0
   -7.5642   -0.5984    4.3026 O   0  0  0  0  0  0  0  0  0  0  0  0
   -6.1899   -0.1747    2.4354 C   0  0  0  0  0  0  0  0  0  0  0  0
   -6.0464    0.1380    1.0825 C   0  0  0  0  0  0  0  0  0  0  0  0
   -4.7706    0.2442    0.5118 C   0  0  0  0  0  0  0  0  0  0  0  0
   -3.6092    0.0374    1.2715 C   0  0  0  0  0  0  0  0  0  0  0  0
   -2.3045    0.1396    0.6930 N   0  0  0  0  0  0  0  0  0  0  0  0
   -1.1736    0.5237    1.4586 C   0  0  0  0  0  0  0  0  0  0  0  0
   -1.0565    0.7992    2.6401 O   0  0  0  0  0  0  0  0  0  0  0  0
   -0.0551    0.5820    0.4576 C   0  0  0  0  0  0  0  0  0  0  0  0
    1.1846    0.9164    0.8366 C   0  0  0  0  0  0  0  0  0  0  0  0
    2.3115    1.0073   -0.0241 C   0  0  0  0  0  0  0  0  0  0  0  0
    2.4355    1.4036   -1.3500 C   0  0  0  0  0  0  0  0  0  0  0  0
    3.8039    1.3231   -1.7069 C   0  0  0  0  0  0  0  0  0  0  0  0
    4.4758    0.8995   -0.5824 C   0  0  0  0  0  0  0  0  0  0  0  0
    5.8756    0.6225   -0.2650 C   0  0  0  0  0  0  0  0  0  0  0  0
    6.2625    0.2155    1.0237 C   0  0  0  0  0  0  0  0  0  0  0  0
    7.6026   -0.0493    1.3292 C   0  0  0  0  0  0  0  0  0  0  0  0
    8.5758    0.0927    0.3351 C   0  0  0  0  0  0  0  0  0  0  0  0
    9.9840   -0.1830    0.6461 N   0  0  0  0  0  4  0  0  0  0  0  0
   10.8114   -0.0551   -0.2680 O   0  0  0  0  0  0  0  0  0  0  0  0
   10.2629   -0.5274    1.8035 O   0  0  0  0  0  1  0  0  0  0  0  0
    8.2150    0.4962   -0.9554 C   0  0  0  0  0  0  0  0  0  0  0  0
    6.8707    0.7582   -1.2474 C   0  0  0  0  0  0  0  0  0  0  0  0
    3.5803    0.7226    0.4302 O   0  0  0  0  0  0  0  0  0  0  0  0
   -0.6080    0.1975   -0.8109 C   0  0  0  0  0  0  0  0  0  0  0  0
   -1.9166   -0.0477   -0.6371 C   0  0  0  0  0  0  0  0  0  0  0  0
   -2.7368   -0.5983   -1.7176 C   0  0  0  0  0  0  0  0  0  0  0  0
   -2.9746    0.1462   -2.8822 C   0  0  0  0  0  0  0  0  0  0  0  0
   -3.7426   -0.3889   -3.9185 C   0  0  0  0  0  0  0  0  0  0  0  0
   -4.2717   -1.6734   -3.8035 C   0  0  0  0  0  0  0  0  0  0  0  0
   -4.0325   -2.4261   -2.6549 C   0  0  0  0  0  0  0  0  0  0  0  0
   -3.2645   -1.8934   -1.6178 C   0  0  0  0  0  0  0  0  0  0  0  0
   -3.7745   -0.2614    2.6338 C   0  0  0  0  0  0  0  0  0  0  0  0
   -5.0473   -0.3713    3.2120 C   0  0  0  0  0  0  0  0  0  0  0  0
   -8.5162   -0.6318    4.5326 H   0  0  0  0  0  0  0  0  0  0  0  0
   -6.9245    0.3100    0.4623 H   0  0  0  0  0  0  0  0  0  0  0  0
   -4.7206    0.5356   -0.5323 H   0  0  0  0  0  0  0  0  0  0  0  0
    1.3797    1.1084    1.8902 H   0  0  0  0  0  0  0  0  0  0  0  0
    1.6302    1.7353   -1.9902 H   0  0  0  0  0  0  0  0  0  0  0  0
    4.2390    1.5612   -2.6668 H   0  0  0  0  0  0  0  0  0  0  0  0
    5.5166    0.1006    1.8095 H   0  0  0  0  0  0  0  0  0  0  0  0
    7.8626   -0.3618    2.3386 H   0  0  0  0  0  0  0  0  0  0  0  0
    8.9595    0.6117   -1.7409 H   0  0  0  0  0  0  0  0  0  0  0  0
    6.6132    1.0701   -2.2573 H   0  0  0  0  0  0  0  0  0  0  0  0
   -0.0555    0.0575   -1.7255 H   0  0  0  0  0  0  0  0  0  0  0  0
   -2.5737    1.1521   -2.9861 H   0  0  0  0  0  0  0  0  0  0  0  0
   -3.9294    0.1965   -4.8155 H   0  0  0  0  0  0  0  0  0  0  0  0
   -4.8704   -2.0894   -4.6103 H   0  0  0  0  0  0  0  0  0  0  0  0
   -4.4429   -3.4288   -2.5662 H   0  0  0  0  0  0  0  0  0  0  0  0
   -3.0831   -2.4946   -0.7290 H   0  0  0  0  0  0  0  0  0  0  0  0
   -2.9184   -0.4458    3.2786 H   0  0  0  0  0  0  0  0  0  0  0  0
   -5.1266   -0.6120    4.2696 H   0  0  0  0  0  0  0  0  0  0  0  0
  1  2  2  0
  2  3  1  0
  2  4  1  0
  4  5  2  0
  5  6  1  0
  6  7  2  0
  7  8  1  0
  8  9  1  0
  9 10  2  0
  9 11  1  0
 11 12  2  3
 12 13  1  0
 13 14  2  0
 14 15  1  0
 15 16  2  0
 16 17  1  0
 17 18  2  0
 18 19  1  0
 19 20  2  0
 20 21  1  0
 21 22  2  0
 21 23  1  0
 20 24  1  0
 24 25  2  0
 16 26  1  0
 11 27  1  0
 27 28  2  0
 28 29  1  0
 29 30  2  0
 30 31  1  0
 31 32  2  0
 32 33  1  0
 33 34  2  0
  7 35  1  0
 35 36  2  0
 36  4  1  0
 28  8  1  0
 34 29  1  0
 26 13  1  0
 25 17  1  0
  3 37  1  0
  5 38  1  0
  6 39  1  0
 12 40  1  0
 14 41  1  0
 15 42  1  0
 18 43  1  0
 19 44  1  0
 24 45  1  0
 25 46  1  0
 27 47  1  0
 30 48  1  0
 31 49  1  0
 32 50  1  0
 33 51  1  0
 34 52  1  0
 35 53  1  0
 36 54  1  0
M  CHG  2  21   1  23  -1
M  END
$$$$
