
     RDKit          3D

 70 72  0  0  0  0  0  0  0  0999 V2000
    8.9232   -1.3921   -0.9707 C   0  0  0  0  0  0  0  0  0  0  0  0
    8.1465   -1.1538    0.3146 C   0  0  0  0  0  0  0  0  0  0  0  0
    7.4581    0.2119    0.3707 C   0  0  0  0  0  0  0  0  0  0  0  0
    6.4492    0.5003   -0.7458 C   0  0  0  0  0  0  0  0  0  0  0  0
    5.2731   -0.4789   -0.7713 C   0  0  0  0  0  0  0  0  0  0  0  0
    4.2504   -0.1695   -1.8704 C   0  0  0  0  0  0  0  0  0  0  0  0
    3.5615    1.1965   -1.7765 C   0  0  0  0  0  0  0  0  0  0  0  0
    2.8418    1.4876   -0.4558 C   0  0  0  0  0  0  0  0  0  0  0  0
    1.6950    0.5131   -0.1643 C   0  0  0  0  0  0  0  0  0  0  0  0
    0.9579    0.9201    1.1140 C   0  0  0  0  0  0  0  0  0  0  0  0
   -0.2050   -0.0325    1.5044 N   0  0  0  0  0  4  0  0  0  0  0  0
    0.3212   -1.4463    1.7377 C   0  0  0  0  0  0  0  0  0  0  0  0
   -0.7714    0.4976    2.8301 C   0  0  0  0  0  0  0  0  0  0  0  0
   -1.2944   -0.0102    0.4059 C   0  0  0  0  0  0  0  0  0  0  0  0
   -2.5392   -0.8460    0.7334 C   0  0  0  0  0  0  0  0  0  0  0  0
   -3.5655   -0.7546   -0.3685 C   0  0  0  0  0  0  0  0  0  0  0  0
   -4.8002   -0.2025   -0.3262 C   0  0  0  0  0  0  0  0  0  0  0  0
   -5.3475    0.4522    0.8897 C   0  0  0  0  0  0  0  0  0  0  0  0
   -4.6808    1.5050    1.5352 C   0  0  0  0  0  0  0  0  0  0  0  0
   -5.2289    2.0982    2.6740 C   0  0  0  0  0  0  0  0  0  0  0  0
   -6.4574    1.6613    3.1646 C   0  0  0  0  0  0  0  0  0  0  0  0
   -7.1548    0.6496    2.5024 C   0  0  0  0  0  0  0  0  0  0  0  0
   -6.6168    0.0553    1.3551 C   0  0  0  0  0  0  0  0  0  0  0  0
   -7.5936   -1.1764    0.4916 S   0  0  0  0  0  0  0  0  0  0  0  0
   -7.0185   -0.9353   -1.1917 C   0  0  0  0  0  0  0  0  0  0  0  0
   -7.8978   -1.2153   -2.2448 C   0  0  0  0  0  0  0  0  0  0  0  0
   -7.4946   -1.0242   -3.5681 C   0  0  0  0  0  0  0  0  0  0  0  0
   -6.2143   -0.5492   -3.8393 C   0  0  0  0  0  0  0  0  0  0  0  0
   -5.7207   -0.2992   -5.4680 Cl  0  0  0  0  0  0  0  0  0  0  0  0
   -5.3239   -0.2731   -2.8017 C   0  0  0  0  0  0  0  0  0  0  0  0
   -5.7128   -0.4800   -1.4699 C   0  0  0  0  0  0  0  0  0  0  0  0
    9.4867   -2.3288   -0.8995 H   0  0  0  0  0  0  0  0  0  0  0  0
    9.6356   -0.5814   -1.1563 H   0  0  0  0  0  0  0  0  0  0  0  0
    8.2550   -1.4726   -1.8339 H   0  0  0  0  0  0  0  0  0  0  0  0
    7.4153   -1.9573    0.4554 H   0  0  0  0  0  0  0  0  0  0  0  0
    8.8433   -1.2204    1.1592 H   0  0  0  0  0  0  0  0  0  0  0  0
    8.2271    0.9947    0.3491 H   0  0  0  0  0  0  0  0  0  0  0  0
    6.9522    0.3068    1.3395 H   0  0  0  0  0  0  0  0  0  0  0  0
    6.9538    0.5010   -1.7189 H   0  0  0  0  0  0  0  0  0  0  0  0
    6.0759    1.5194   -0.5909 H   0  0  0  0  0  0  0  0  0  0  0  0
    4.7813   -0.4985    0.2074 H   0  0  0  0  0  0  0  0  0  0  0  0
    5.6475   -1.4936   -0.9486 H   0  0  0  0  0  0  0  0  0  0  0  0
    3.4894   -0.9593   -1.8705 H   0  0  0  0  0  0  0  0  0  0  0  0
    4.7495   -0.2360   -2.8455 H   0  0  0  0  0  0  0  0  0  0  0  0
    2.8382    1.2734   -2.5979 H   0  0  0  0  0  0  0  0  0  0  0  0
    4.2987    1.9880   -1.9543 H   0  0  0  0  0  0  0  0  0  0  0  0
    3.5576    1.4812    0.3736 H   0  0  0  0  0  0  0  0  0  0  0  0
    2.4391    2.5071   -0.5063 H   0  0  0  0  0  0  0  0  0  0  0  0
    2.0994   -0.4974   -0.0616 H   0  0  0  0  0  0  0  0  0  0  0  0
    1.0153    0.5146   -1.0216 H   0  0  0  0  0  0  0  0  0  0  0  0
    1.6532    0.9327    1.9620 H   0  0  0  0  0  0  0  0  0  0  0  0
    0.5225    1.9211    1.0083 H   0  0  0  0  0  0  0  0  0  0  0  0
   -0.4574   -2.0365    2.2286 H   0  0  0  0  0  0  0  0  0  0  0  0
    1.2017   -1.3844    2.3835 H   0  0  0  0  0  0  0  0  0  0  0  0
    0.5746   -1.8925    0.7731 H   0  0  0  0  0  0  0  0  0  0  0  0
   -1.5060   -0.2121    3.2180 H   0  0  0  0  0  0  0  0  0  0  0  0
    0.0524    0.5914    3.5444 H   0  0  0  0  0  0  0  0  0  0  0  0
   -1.2299    1.4728    2.6423 H   0  0  0  0  0  0  0  0  0  0  0  0
   -1.5584    1.0417    0.2473 H   0  0  0  0  0  0  0  0  0  0  0  0
   -0.8343   -0.3959   -0.5093 H   0  0  0  0  0  0  0  0  0  0  0  0
   -2.2634   -1.9029    0.8285 H   0  0  0  0  0  0  0  0  0  0  0  0
   -2.9705   -0.5639    1.6956 H   0  0  0  0  0  0  0  0  0  0  0  0
   -3.2756   -1.3015   -1.2685 H   0  0  0  0  0  0  0  0  0  0  0  0
   -3.7469    1.8920    1.1409 H   0  0  0  0  0  0  0  0  0  0  0  0
   -4.7117    2.9162    3.1709 H   0  0  0  0  0  0  0  0  0  0  0  0
   -6.8915    2.1276    4.0466 H   0  0  0  0  0  0  0  0  0  0  0  0
   -8.1305    0.3445    2.8769 H   0  0  0  0  0  0  0  0  0  0  0  0
   -8.9049   -1.5754   -2.0434 H   0  0  0  0  0  0  0  0  0  0  0  0
   -8.1876   -1.2395   -4.3784 H   0  0  0  0  0  0  0  0  0  0  0  0
   -4.3368    0.1136   -3.0359 H   0  0  0  0  0  0  0  0  0  0  0  0
  1  2  1  0
  2  3  1  0
  3  4  1  0
  4  5  1  0
  5  6  1  0
  6  7  1  0
  7  8  1  0
  8  9  1  0
  9 10  1  0
 10 11  1  0
 11 12  1  0
 11 13  1  0
 11 14  1  0
 14 15  1  0
 15 16  1  0
 16 17  2  3
 17 18  1  0
 18 19  2  0
 19 20  1  0
 20 21  2  0
 21 22  1  0
 22 23  2  0
 23 24  1  0
 24 25  1  0
 25 26  2  0
 26 27  1  0
 27 28  2  0
 28 29  1  0
 28 30  1  0
 30 31  2  0
 31 17  1  0
 23 18  1  0
 31 25  1  0
  1 32  1  0
  1 33  1  0
  1 34  1  0
  2 35  1  0
  2 36  1  0
  3 37  1  0
  3 38  1  0
  4 39  1  0
  4 40  1  0
  5 41  1  0
  5 42  1  0
  6 43  1  0
  6 44  1  0
  7 45  1  0
  7 46  1  0
  8 47  1  0
  8 48  1  0
  9 49  1  0
  9 50  1  0
 10 51  1  0
 10 52  1  0
 12 53  1  0
 12 54  1  0
 12 55  1  0
 13 56  1  0
 13 57  1  0
 13 58  1  0
 14 59  1  0
 14 60  1  0
 15 61  1  0
 15 62  1  0
 16 63  1  0
 19 64  1  0
 20 65  1  0
 21 66  1  0
 22 67  1  0
 26 68  1  0
 27 69  1  0
 30 70  1  0
M  CHG  1  11   1
M  END
$$$$
