
     RDKit          3D

 51 56  0  0  0  0  0  0  0  0999 V2000
   -2.1105   -0.2108    2.5424 O   0  0  0  0  0  0  0  0  0  0  0  0
   -2.2681   -0.6631    1.4049 C   0  0  0  0  0  0  0  0  0  0  0  0
   -3.1112   -1.8824    1.2467 C   0  0  0  0  0  0  0  0  0  0  0  0
   -2.9189   -2.7960    0.2030 C   0  0  0  0  0  0  0  0  0  0  0  0
   -3.7344   -3.9285    0.1046 C   0  0  0  0  0  0  0  0  0  0  0  0
   -4.7352   -4.1514    1.0494 C   0  0  0  0  0  0  0  0  0  0  0  0
   -5.7334   -5.5466    0.9232 Cl  0  0  0  0  0  0  0  0  0  0  0  0
   -4.9266   -3.2549    2.0982 C   0  0  0  0  0  0  0  0  0  0  0  0
   -4.1125   -2.1238    2.1991 C   0  0  0  0  0  0  0  0  0  0  0  0
   -1.6427   -0.0483    0.1508 C   0  0  0  0  0  0  0  0  0  0  0  0
   -0.1668   -0.1660    0.1632 C   0  0  0  0  0  0  0  0  0  0  0  0
    0.4732    1.0691    0.3569 C   0  0  0  0  0  0  0  0  0  0  0  0
    1.8042    0.8092    0.5924 C   0  0  0  0  0  0  0  0  0  0  0  0
    2.7761    1.6205    1.0020 O   0  0  0  0  0  0  0  0  0  0  0  0
    2.0281   -0.5454    0.2728 N   0  0  0  0  0  0  0  0  0  0  0  0
    3.2952   -1.1987    0.1251 C   0  0  0  0  0  0  0  0  0  0  0  0
    3.4263   -2.2700   -0.7751 C   0  0  0  0  0  0  0  0  0  0  0  0
    4.6573   -2.9137   -0.9370 C   0  0  0  0  0  0  0  0  0  0  0  0
    5.7632   -2.4885   -0.2064 C   0  0  0  0  0  0  0  0  0  0  0  0
    7.2766   -3.2810   -0.4051 Cl  0  0  0  0  0  0  0  0  0  0  0  0
    5.6501   -1.4212    0.6801 C   0  0  0  0  0  0  0  0  0  0  0  0
    4.4205   -0.7729    0.8424 C   0  0  0  0  0  0  0  0  0  0  0  0
    0.7688   -1.1613    0.1341 C   0  0  0  0  0  0  0  0  0  0  0  0
    0.5631   -2.4764    0.0748 O   0  0  0  0  0  0  0  0  0  0  0  0
   -0.5112    2.1818    0.4240 C   0  0  0  0  0  0  0  0  0  0  0  0
   -0.2812    3.1994   -0.6620 C   0  0  0  0  0  0  0  0  0  0  0  0
    0.9545    3.7807   -0.9794 C   0  0  0  0  0  0  0  0  0  0  0  0
    1.0448    4.8008   -1.9340 C   0  0  0  0  0  0  0  0  0  0  0  0
   -0.0990    5.2729   -2.5741 C   0  0  0  0  0  0  0  0  0  0  0  0
   -1.3392    4.7219   -2.2664 C   0  0  0  0  0  0  0  0  0  0  0  0
   -1.4175    3.6964   -1.3193 C   0  0  0  0  0  0  0  0  0  0  0  0
   -2.7277    3.0948   -1.0273 C   0  0  0  0  0  0  0  0  0  0  0  0
   -2.9038    1.9964   -0.3577 N   0  0  0  0  0  0  0  0  0  0  0  0
   -1.7800    1.4335    0.1962 N   0  0  0  0  0  0  0  0  0  0  0  0
   -2.1277   -2.6648   -0.5307 H   0  0  0  0  0  0  0  0  0  0  0  0
   -3.5778   -4.6354   -0.7065 H   0  0  0  0  0  0  0  0  0  0  0  0
   -5.7017   -3.4283    2.8401 H   0  0  0  0  0  0  0  0  0  0  0  0
   -4.2631   -1.4266    3.0221 H   0  0  0  0  0  0  0  0  0  0  0  0
   -2.0873   -0.4002   -0.7832 H   0  0  0  0  0  0  0  0  0  0  0  0
    2.3581    2.4137    1.3815 H   0  0  0  0  0  0  0  0  0  0  0  0
    2.5970   -2.5892   -1.4038 H   0  0  0  0  0  0  0  0  0  0  0  0
    4.7484   -3.7335   -1.6450 H   0  0  0  0  0  0  0  0  0  0  0  0
    6.5120   -1.0865    1.2517 H   0  0  0  0  0  0  0  0  0  0  0  0
    4.3673    0.0383    1.5628 H   0  0  0  0  0  0  0  0  0  0  0  0
    1.3305   -2.9267    0.4749 H   0  0  0  0  0  0  0  0  0  0  0  0
   -0.5563    2.6435    1.4154 H   0  0  0  0  0  0  0  0  0  0  0  0
    1.8725    3.4574   -0.5020 H   0  0  0  0  0  0  0  0  0  0  0  0
    2.0152    5.2304   -2.1742 H   0  0  0  0  0  0  0  0  0  0  0  0
   -0.0210    6.0663   -3.3133 H   0  0  0  0  0  0  0  0  0  0  0  0
   -2.2296    5.0859   -2.7716 H   0  0  0  0  0  0  0  0  0  0  0  0
   -3.6185    3.5791   -1.4610 H   0  0  0  0  0  0  0  0  0  0  0  0
  1  2  2  0
  2  3  1  0
  3  4  2  0
  4  5  1  0
  5  6  2  0
  6  7  1  0
  6  8  1  0
  8  9  2  0
  2 10  1  0
 10 11  1  0
 11 12  1  0
 12 13  2  0
 13 14  1  0
 13 15  1  0
 15 16  1  0
 16 17  2  0
 17 18  1  0
 18 19  2  0
 19 20  1  0
 19 21  1  0
 21 22  2  0
 15 23  1  0
 23 24  1  0
 12 25  1  0
 25 26  1  0
 26 27  2  0
 27 28  1  0
 28 29  2  0
 29 30  1  0
 30 31  2  0
 31 32  1  0
 32 33  2  0
 33 34  1  0
  9  3  1  0
 34 10  1  0
 23 11  2  0
 34 25  1  0
 22 16  1  0
 31 26  1  0
  4 35  1  0
  5 36  1  0
  8 37  1  0
  9 38  1  0
 10 39  1  0
 14 40  1  0
 17 41  1  0
 18 42  1  0
 21 43  1  0
 22 44  1  0
 24 45  1  0
 25 46  1  0
 27 47  1  0
 28 48  1  0
 29 49  1  0
 30 50  1  0
 32 51  1  0
M  END
$$$$
