
     RDKit          3D

 36 39  0  0  0  0  0  0  0  0999 V2000
   -6.1377   -0.2958   -2.6328 C   0  0  0  0  0  0  0  0  0  0  0  0
   -5.0118   -0.1834   -1.6350 C   0  0  0  0  0  0  0  0  0  0  0  0
   -5.3839   -0.0927   -0.1923 C   0  0  0  0  0  0  0  0  0  0  0  0
   -4.3746    0.0111    0.6929 C   0  0  0  0  0  0  0  0  0  0  0  0
   -4.6672    0.1057    2.1583 C   0  0  0  0  0  0  0  0  0  0  0  0
   -3.0554    0.0235    0.2000 N   0  0  0  0  0  0  0  0  0  0  0  0
   -1.8204    0.1195    0.8127 C   0  0  0  0  0  0  0  0  0  0  0  0
   -1.3898    0.2970    2.6623 Br  0  0  0  0  0  0  0  0  0  0  0  0
   -0.8778    0.0587   -0.1952 C   0  0  0  0  0  0  0  0  0  0  0  0
    0.6121    0.1087   -0.1259 C   0  0  0  0  0  0  0  0  0  0  0  0
    1.2912   -1.5202    0.3101 S   0  0  0  0  0  0  0  0  0  0  0  0
    3.0005   -1.1484    0.3229 C   0  0  0  0  0  0  0  0  0  0  0  0
    3.4459    0.0798    0.2004 N   0  0  0  0  0  0  0  0  0  0  0  0
    4.8301    0.0800    0.2468 C   0  0  0  0  0  0  0  0  0  0  0  0
    5.6602    1.2146    0.1423 C   0  0  0  0  0  0  0  0  0  0  0  0
    7.0499    1.0686    0.2067 C   0  0  0  0  0  0  0  0  0  0  0  0
    7.6193   -0.1899    0.3737 C   0  0  0  0  0  0  0  0  0  0  0  0
    6.8183   -1.3312    0.4802 C   0  0  0  0  0  0  0  0  0  0  0  0
    5.4241   -1.1729    0.4138 C   0  0  0  0  0  0  0  0  0  0  0  0
    4.1877   -2.3666    0.5115 S   0  0  0  0  0  0  0  0  0  0  0  0
   -1.5004   -0.0472   -1.4148 N   0  0  0  0  0  0  0  0  0  0  0  0
   -2.7938   -0.0716   -1.1751 C   0  0  0  0  0  0  0  0  0  0  0  0
   -3.7978   -0.1720   -2.0912 N   0  0  0  0  0  0  0  0  0  0  0  0
   -6.0916    0.5502   -3.3247 H   0  0  0  0  0  0  0  0  0  0  0  0
   -6.0262   -1.2255   -3.1985 H   0  0  0  0  0  0  0  0  0  0  0  0
   -7.1139   -0.2968   -2.1413 H   0  0  0  0  0  0  0  0  0  0  0  0
   -6.4300   -0.1127    0.0840 H   0  0  0  0  0  0  0  0  0  0  0  0
   -5.7446    0.0722    2.3589 H   0  0  0  0  0  0  0  0  0  0  0  0
   -4.3019    1.0514    2.5697 H   0  0  0  0  0  0  0  0  0  0  0  0
   -4.2221   -0.7337    2.7010 H   0  0  0  0  0  0  0  0  0  0  0  0
    1.0109    0.4142   -1.0998 H   0  0  0  0  0  0  0  0  0  0  0  0
    0.9253    0.8561    0.6109 H   0  0  0  0  0  0  0  0  0  0  0  0
    5.2128    2.1950    0.0113 H   0  0  0  0  0  0  0  0  0  0  0  0
    7.6867    1.9465    0.1247 H   0  0  0  0  0  0  0  0  0  0  0  0
    8.7019   -0.2894    0.4216 H   0  0  0  0  0  0  0  0  0  0  0  0
    7.2640   -2.3129    0.6098 H   0  0  0  0  0  0  0  0  0  0  0  0
  1  2  1  0
  2  3  1  0
  3  4  2  0
  4  5  1  0
  4  6  1  0
  6  7  1  0
  7  8  1  0
  7  9  2  0
  9 10  1  0
 10 11  1  0
 11 12  1  0
 12 13  2  0
 13 14  1  0
 14 15  2  0
 15 16  1  0
 16 17  2  0
 17 18  1  0
 18 19  2  0
 19 20  1  0
  9 21  1  0
 21 22  2  0
 22 23  1  0
 23  2  2  0
 22  6  1  0
 20 12  1  0
 19 14  1  0
  1 24  1  0
  1 25  1  0
  1 26  1  0
  3 27  1  0
  5 28  1  0
  5 29  1  0
  5 30  1  0
 10 31  1  0
 10 32  1  0
 15 33  1  0
 16 34  1  0
 17 35  1  0
 18 36  1  0
M  END
$$$$
