
     RDKit          3D

 44 45  0  0  0  0  0  0  0  0999 V2000
    7.5675   -2.1752    1.2587 C   0  0  0  0  0  0  0  0  0  0  0  0
    6.1385   -1.8087    0.9894 C   0  0  0  0  0  0  0  0  0  0  0  0
    5.4115   -2.4407   -0.0261 C   0  0  0  0  0  0  0  0  0  0  0  0
    4.0810   -2.0858   -0.2901 C   0  0  0  0  0  0  0  0  0  0  0  0
    3.4504   -1.0855    0.4556 C   0  0  0  0  0  0  0  0  0  0  0  0
    2.1670   -0.6713    0.2497 O   0  0  0  0  0  0  0  0  0  0  0  0
    1.5282   -1.0181   -0.9780 C   0  0  0  0  0  0  0  0  0  0  0  0
    0.1818   -0.2983   -1.0945 C   0  0  0  0  0  0  0  0  0  0  0  0
   -0.4604   -0.3430   -2.1406 O   0  0  0  0  0  0  0  0  0  0  0  0
   -0.1987    0.3322    0.0746 N   0  0  0  0  0  0  0  0  0  0  0  0
   -1.3571    1.0579    0.2582 C   0  0  0  0  0  0  0  0  0  0  0  0
   -1.8187    1.6265    1.4677 C   0  0  0  0  0  0  0  0  0  0  0  0
   -2.9832    2.2647    1.3213 N   0  0  0  0  0  0  0  0  0  0  0  0
   -3.2591    2.1168    0.0106 N   0  0  0  0  0  0  0  0  0  0  0  0
   -4.4553    2.7224   -0.5427 C   0  0  0  0  0  0  0  0  0  0  0  0
   -5.6941    1.8356   -0.4207 C   0  0  0  0  0  0  0  0  0  0  0  0
   -5.6842    0.6674   -1.4060 C   0  0  0  0  0  0  0  0  0  0  0  0
   -6.9764   -0.1019   -1.3530 C   0  0  0  0  0  0  0  0  0  0  0  0
   -7.7362   -0.2020   -0.4044 O   0  0  0  0  0  0  0  0  0  0  0  0
   -7.2350   -0.7439   -2.5098 O   0  0  0  0  0  0  0  0  0  0  0  0
   -2.3118    1.4049   -0.6673 C   0  0  0  0  0  0  0  0  0  0  0  0
    4.1801   -0.4695    1.4843 C   0  0  0  0  0  0  0  0  0  0  0  0
    3.5727    0.5889    2.2845 N   0  0  0  0  0  4  0  0  0  0  0  0
    2.4183    0.4119    2.7110 O   0  0  0  0  0  0  0  0  0  0  0  0
    4.2634    1.5959    2.4987 O   0  0  0  0  0  1  0  0  0  0  0  0
    5.5141   -0.8131    1.7532 C   0  0  0  0  0  0  0  0  0  0  0  0
    7.8939   -3.0087    0.6289 H   0  0  0  0  0  0  0  0  0  0  0  0
    8.2185   -1.3198    1.0529 H   0  0  0  0  0  0  0  0  0  0  0  0
    7.6895   -2.4794    2.3040 H   0  0  0  0  0  0  0  0  0  0  0  0
    5.8766   -3.2210   -0.6234 H   0  0  0  0  0  0  0  0  0  0  0  0
    3.5665   -2.6194   -1.0833 H   0  0  0  0  0  0  0  0  0  0  0  0
    2.1433   -0.7003   -1.8281 H   0  0  0  0  0  0  0  0  0  0  0  0
    1.3263   -2.0939   -1.0090 H   0  0  0  0  0  0  0  0  0  0  0  0
    0.4081    0.2157    0.8868 H   0  0  0  0  0  0  0  0  0  0  0  0
   -1.3596    1.5959    2.4485 H   0  0  0  0  0  0  0  0  0  0  0  0
   -4.2486    2.9827   -1.5880 H   0  0  0  0  0  0  0  0  0  0  0  0
   -4.6148    3.6620    0.0013 H   0  0  0  0  0  0  0  0  0  0  0  0
   -6.5822    2.4516   -0.6109 H   0  0  0  0  0  0  0  0  0  0  0  0
   -5.7932    1.4560    0.6053 H   0  0  0  0  0  0  0  0  0  0  0  0
   -4.8733   -0.0306   -1.1884 H   0  0  0  0  0  0  0  0  0  0  0  0
   -5.5505    1.0543   -2.4210 H   0  0  0  0  0  0  0  0  0  0  0  0
   -8.0755   -1.2193   -2.3351 H   0  0  0  0  0  0  0  0  0  0  0  0
   -2.3964    1.2125   -1.7284 H   0  0  0  0  0  0  0  0  0  0  0  0
    6.0669   -0.3063    2.5408 H   0  0  0  0  0  0  0  0  0  0  0  0
  1  2  1  0
  2  3  2  0
  3  4  1  0
  4  5  2  0
  5  6  1  0
  6  7  1  0
  7  8  1  0
  8  9  2  0
  8 10  1  0
 10 11  1  0
 11 12  1  0
 12 13  2  0
 13 14  1  0
 14 15  1  0
 15 16  1  0
 16 17  1  0
 17 18  1  0
 18 19  2  0
 18 20  1  0
 14 21  1  0
  5 22  1  0
 22 23  1  0
 23 24  2  0
 23 25  1  0
 22 26  2  0
 26  2  1  0
 21 11  2  0
  1 27  1  0
  1 28  1  0
  1 29  1  0
  3 30  1  0
  4 31  1  0
  7 32  1  0
  7 33  1  0
 10 34  1  0
 12 35  1  0
 15 36  1  0
 15 37  1  0
 16 38  1  0
 16 39  1  0
 17 40  1  0
 17 41  1  0
 20 42  1  0
 21 43  1  0
 26 44  1  0
M  CHG  2  23   1  25  -1
M  END
$$$$
