
     RDKit          3D

 57 60  0  0  0  0  0  0  0  0999 V2000
    6.1496    2.9494    0.9942 C   0  0  0  0  0  0  0  0  0  0  0  0
    4.9031    2.2899    0.8161 O   0  0  0  0  0  0  0  0  0  0  0  0
    4.9292    0.9911    0.3771 C   0  0  0  0  0  0  0  0  0  0  0  0
    6.0914    0.2910    0.0392 C   0  0  0  0  0  0  0  0  0  0  0  0
    6.0190   -1.0385   -0.3815 C   0  0  0  0  0  0  0  0  0  0  0  0
    4.7861   -1.6852   -0.4525 C   0  0  0  0  0  0  0  0  0  0  0  0
    3.6074   -1.0085   -0.1089 C   0  0  0  0  0  0  0  0  0  0  0  0
    2.3323   -1.7808   -0.1962 C   0  0  0  0  0  0  0  0  0  0  0  0
    2.2636   -2.7743   -0.9125 O   0  0  0  0  0  0  0  0  0  0  0  0
    1.2782   -1.3261    0.5604 N   0  0  0  0  0  0  0  0  0  0  0  0
   -0.0684   -1.8378    0.4083 C   0  0  0  0  0  0  0  0  0  0  0  0
   -0.7676   -1.8881    1.7866 C   0  0  0  0  0  0  0  0  0  0  0  0
   -2.3221   -1.9282    1.7085 C   0  0  0  0  0  0  0  0  0  0  0  0
   -2.8913   -1.9245    3.1402 C   0  0  0  0  0  0  0  0  0  0  0  0
   -2.7984   -3.2191    1.0117 C   0  0  0  0  0  0  0  0  0  0  0  0
   -2.8581   -0.6694    0.9545 C   0  0  0  0  0  0  0  0  0  0  0  0
   -2.0525   -0.3876   -0.2704 C   0  0  0  0  0  0  0  0  0  0  0  0
   -0.8062   -0.9338   -0.5226 C   0  0  0  0  0  0  0  0  0  0  0  0
   -0.5014   -0.5321   -1.8272 C   0  0  0  0  0  0  0  0  0  0  0  0
   -1.4382    0.2579   -2.3457 N   0  0  0  0  0  0  0  0  0  0  0  0
   -2.3842    0.3927   -1.3707 N   0  0  0  0  0  0  0  0  0  0  0  0
   -3.4948    1.2603   -1.6094 C   0  0  0  0  0  0  0  0  0  0  0  0
   -4.3748    1.6646   -0.5965 C   0  0  0  0  0  0  0  0  0  0  0  0
   -5.4475    2.5195   -0.8840 C   0  0  0  0  0  0  0  0  0  0  0  0
   -5.6459    2.9836   -2.1812 C   0  0  0  0  0  0  0  0  0  0  0  0
   -4.7662    2.5978   -3.1827 C   0  0  0  0  0  0  0  0  0  0  0  0
   -4.9515    3.0498   -4.4299 F   0  0  0  0  0  0  0  0  0  0  0  0
   -3.6969    1.7506   -2.9117 C   0  0  0  0  0  0  0  0  0  0  0  0
    3.6820    0.3431    0.2719 C   0  0  0  0  0  0  0  0  0  0  0  0
    2.5289    1.0277    0.5932 O   0  0  0  0  0  0  0  0  0  0  0  0
    2.1400    1.8818   -0.4889 C   0  0  0  0  0  0  0  0  0  0  0  0
    6.7684    2.4334    1.7356 H   0  0  0  0  0  0  0  0  0  0  0  0
    5.9441    3.9546    1.3745 H   0  0  0  0  0  0  0  0  0  0  0  0
    6.6776    3.0564    0.0411 H   0  0  0  0  0  0  0  0  0  0  0  0
    7.0731    0.7509    0.0912 H   0  0  0  0  0  0  0  0  0  0  0  0
    6.9268   -1.5758   -0.6471 H   0  0  0  0  0  0  0  0  0  0  0  0
    4.7462   -2.7259   -0.7710 H   0  0  0  0  0  0  0  0  0  0  0  0
    1.3869   -0.4188    1.0038 H   0  0  0  0  0  0  0  0  0  0  0  0
   -0.0364   -2.8454   -0.0225 H   0  0  0  0  0  0  0  0  0  0  0  0
   -0.4772   -1.0038    2.3734 H   0  0  0  0  0  0  0  0  0  0  0  0
   -0.3872   -2.7520    2.3478 H   0  0  0  0  0  0  0  0  0  0  0  0
   -2.5574   -2.8048    3.7006 H   0  0  0  0  0  0  0  0  0  0  0  0
   -3.9870   -1.9298    3.1296 H   0  0  0  0  0  0  0  0  0  0  0  0
   -2.5683   -1.0362    3.6944 H   0  0  0  0  0  0  0  0  0  0  0  0
   -2.4107   -4.1061    1.5254 H   0  0  0  0  0  0  0  0  0  0  0  0
   -2.4754   -3.2747   -0.0324 H   0  0  0  0  0  0  0  0  0  0  0  0
   -3.8923   -3.2857    1.0164 H   0  0  0  0  0  0  0  0  0  0  0  0
   -3.9130   -0.8257    0.7024 H   0  0  0  0  0  0  0  0  0  0  0  0
   -2.7865    0.2017    1.6178 H   0  0  0  0  0  0  0  0  0  0  0  0
    0.3643   -0.7886   -2.4259 H   0  0  0  0  0  0  0  0  0  0  0  0
   -4.2486    1.3720    0.4375 H   0  0  0  0  0  0  0  0  0  0  0  0
   -6.1224    2.8298   -0.0896 H   0  0  0  0  0  0  0  0  0  0  0  0
   -6.4715    3.6472   -2.4167 H   0  0  0  0  0  0  0  0  0  0  0  0
   -3.0393    1.4769   -3.7334 H   0  0  0  0  0  0  0  0  0  0  0  0
    2.1624    1.3552   -1.4497 H   0  0  0  0  0  0  0  0  0  0  0  0
    2.7686    2.7761   -0.5306 H   0  0  0  0  0  0  0  0  0  0  0  0
    1.1104    2.2024   -0.3036 H   0  0  0  0  0  0  0  0  0  0  0  0
  1  2  1  0
  2  3  1  0
  3  4  2  0
  4  5  1  0
  5  6  2  0
  6  7  1  0
  7  8  1  0
  8  9  2  0
  8 10  1  0
 10 11  1  0
 11 12  1  0
 12 13  1  0
 13 14  1  0
 13 15  1  0
 13 16  1  0
 16 17  1  0
 17 18  2  0
 18 19  1  0
 19 20  2  0
 20 21  1  0
 21 22  1  0
 22 23  2  0
 23 24  1  0
 24 25  2  0
 25 26  1  0
 26 27  1  0
 26 28  2  0
  7 29  2  0
 29 30  1  0
 30 31  1  0
 29  3  1  0
 18 11  1  0
 28 22  1  0
 21 17  1  0
  1 32  1  0
  1 33  1  0
  1 34  1  0
  4 35  1  0
  5 36  1  0
  6 37  1  0
 10 38  1  0
 11 39  1  0
 12 40  1  0
 12 41  1  0
 14 42  1  0
 14 43  1  0
 14 44  1  0
 15 45  1  0
 15 46  1  0
 15 47  1  0
 16 48  1  0
 16 49  1  0
 19 50  1  0
 23 51  1  0
 24 52  1  0
 25 53  1  0
 28 54  1  0
 31 55  1  0
 31 56  1  0
 31 57  1  0
M  END
$$$$
