
     RDKit          3D

 48 50  0  0  0  0  0  0  0  0999 V2000
   -2.6932    1.3920   -4.4797 C   0  0  0  0  0  0  0  0  0  0  0  0
   -2.5461    2.1815   -3.1930 C   0  0  0  0  0  0  0  0  0  0  0  0
   -1.6684    1.4910   -2.2895 O   0  0  0  0  0  0  0  0  0  0  0  0
   -2.2505    0.5567   -1.4769 C   0  0  0  0  0  0  0  0  0  0  0  0
   -3.4479    0.3004   -1.4990 O   0  0  0  0  0  0  0  0  0  0  0  0
   -1.2921   -0.1149   -0.5816 C   0  0  0  0  0  0  0  0  0  0  0  0
    0.0866    0.1066   -0.5835 C   0  0  0  0  0  0  0  0  0  0  0  0
    0.7814    0.9827   -1.4083 N   0  0  0  0  0  0  0  0  0  0  0  0
    2.1007    1.3382   -1.5394 C   0  0  0  0  0  0  0  0  0  0  0  0
    2.3995    2.4036   -2.8001 S   0  0  0  0  0  0  0  0  0  0  0  0
    2.9857    0.8413   -0.6272 N   0  0  0  0  0  0  0  0  0  0  0  0
    4.3949    0.8573   -0.5281 C   0  0  0  0  0  0  0  0  0  0  0  0
    4.9359    0.4723    0.7087 C   0  0  0  0  0  0  0  0  0  0  0  0
    6.3181    0.4380    0.9137 C   0  0  0  0  0  0  0  0  0  0  0  0
    7.1811    0.7772   -0.1222 C   0  0  0  0  0  0  0  0  0  0  0  0
    6.6590    1.1407   -1.3601 C   0  0  0  0  0  0  0  0  0  0  0  0
    5.2737    1.1748   -1.5631 C   0  0  0  0  0  0  0  0  0  0  0  0
    0.8986   -0.8639    0.5488 S   0  0  0  0  0  0  0  0  0  0  0  0
   -0.5312   -1.5818    1.0903 C   0  0  0  0  0  0  0  0  0  0  0  0
   -1.6411   -1.1014    0.4276 C   0  0  0  0  0  0  0  0  0  0  0  0
   -2.9985   -1.6230    0.8128 C   0  0  0  0  0  0  0  0  0  0  0  0
   -3.2247   -1.6048    2.3468 C   0  0  0  0  0  0  0  0  0  0  0  0
   -3.3323   -0.1571    2.8599 C   0  0  0  0  0  0  0  0  0  0  0  0
   -4.5358   -2.3433    2.6632 C   0  0  0  0  0  0  0  0  0  0  0  0
   -1.8912   -2.4379    3.3484 S   0  0  0  0  0  0  0  0  0  0  0  0
   -0.5358   -2.6380    2.1421 C   0  0  0  0  0  0  0  0  0  0  0  0
   -3.3107    1.9358   -5.2001 H   0  0  0  0  0  0  0  0  0  0  0  0
   -3.1522    0.4163   -4.2918 H   0  0  0  0  0  0  0  0  0  0  0  0
   -1.7123    1.2013   -4.9276 H   0  0  0  0  0  0  0  0  0  0  0  0
   -2.0839    3.1508   -3.4068 H   0  0  0  0  0  0  0  0  0  0  0  0
   -3.5185    2.3842   -2.7300 H   0  0  0  0  0  0  0  0  0  0  0  0
    0.1967    1.4646   -2.0901 H   0  0  0  0  0  0  0  0  0  0  0  0
    2.5234    0.4406    0.1791 H   0  0  0  0  0  0  0  0  0  0  0  0
    4.2869    0.2042    1.5388 H   0  0  0  0  0  0  0  0  0  0  0  0
    6.7172    0.1470    1.8817 H   0  0  0  0  0  0  0  0  0  0  0  0
    8.2567    0.7519    0.0303 H   0  0  0  0  0  0  0  0  0  0  0  0
    7.3282    1.3925   -2.1792 H   0  0  0  0  0  0  0  0  0  0  0  0
    4.9281    1.4242   -2.5582 H   0  0  0  0  0  0  0  0  0  0  0  0
   -3.8001   -1.0533    0.3371 H   0  0  0  0  0  0  0  0  0  0  0  0
   -3.0879   -2.6495    0.4309 H   0  0  0  0  0  0  0  0  0  0  0  0
   -4.1241    0.3840    2.3283 H   0  0  0  0  0  0  0  0  0  0  0  0
   -2.4023    0.4046    2.7172 H   0  0  0  0  0  0  0  0  0  0  0  0
   -3.5823   -0.1223    3.9272 H   0  0  0  0  0  0  0  0  0  0  0  0
   -5.3792   -1.8774    2.1397 H   0  0  0  0  0  0  0  0  0  0  0  0
   -4.7711   -2.3222    3.7340 H   0  0  0  0  0  0  0  0  0  0  0  0
   -4.4951   -3.3917    2.3452 H   0  0  0  0  0  0  0  0  0  0  0  0
   -0.6470   -3.6208    1.6708 H   0  0  0  0  0  0  0  0  0  0  0  0
    0.4031   -2.6532    2.7053 H   0  0  0  0  0  0  0  0  0  0  0  0
  1  2  1  0
  2  3  1  0
  3  4  1  0
  4  5  2  0
  4  6  1  0
  6  7  2  0
  7  8  1  0
  8  9  1  0
  9 10  2  0
  9 11  1  0
 11 12  1  0
 12 13  2  0
 13 14  1  0
 14 15  2  0
 15 16  1  0
 16 17  2  0
  7 18  1  0
 18 19  1  0
 19 20  2  0
 20 21  1  0
 21 22  1  0
 22 23  1  0
 22 24  1  0
 22 25  1  0
 25 26  1  0
 20  6  1  0
 17 12  1  0
 26 19  1  0
  1 27  1  0
  1 28  1  0
  1 29  1  0
  2 30  1  0
  2 31  1  0
  8 32  1  0
 11 33  1  0
 13 34  1  0
 14 35  1  0
 15 36  1  0
 16 37  1  0
 17 38  1  0
 21 39  1  0
 21 40  1  0
 23 41  1  0
 23 42  1  0
 23 43  1  0
 24 44  1  0
 24 45  1  0
 24 46  1  0
 26 47  1  0
 26 48  1  0
M  END
$$$$
