
     RDKit          3D

 34 36  0  0  0  0  0  0  0  0999 V2000
    5.1400   -2.4313   -0.0616 C   0  0  0  0  0  0  0  0  0  0  0  0
    4.3167   -1.1794   -0.1090 C   0  0  0  0  0  0  0  0  0  0  0  0
    4.2978   -0.4006   -1.2485 C   0  0  0  0  0  0  0  0  0  0  0  0
    3.5148    0.7291   -1.1988 C   0  0  0  0  0  0  0  0  0  0  0  0
    2.7908    1.0872   -0.1220 N   0  0  0  0  0  0  0  0  0  0  0  0
    2.8708    0.2601    0.9409 C   0  0  0  0  0  0  0  0  0  0  0  0
    1.9507    0.7090    2.3888 S   0  0  0  0  0  0  0  0  0  0  0  0
    0.2920    0.4354    1.9002 C   0  0  0  0  0  0  0  0  0  0  0  0
   -0.6339   -0.2567    2.6987 C   0  0  0  0  0  0  0  0  0  0  0  0
   -1.8435   -0.2518    2.0389 C   0  0  0  0  0  0  0  0  0  0  0  0
   -2.9796   -0.8465    2.3999 O   0  0  0  0  0  0  0  0  0  0  0  0
   -1.7000    0.4578    0.8369 N   0  0  0  0  0  0  0  0  0  0  0  0
   -2.7274    0.6977   -0.1431 C   0  0  0  0  0  0  0  0  0  0  0  0
   -4.0838    0.6830    0.2181 C   0  0  0  0  0  0  0  0  0  0  0  0
   -5.0831    0.9152   -0.7345 C   0  0  0  0  0  0  0  0  0  0  0  0
   -4.7351    1.1627   -2.0580 C   0  0  0  0  0  0  0  0  0  0  0  0
   -6.0835    1.4749   -3.3444 Br  0  0  0  0  0  0  0  0  0  0  0  0
   -3.3973    1.1813   -2.4374 C   0  0  0  0  0  0  0  0  0  0  0  0
   -2.3983    0.9505   -1.4841 C   0  0  0  0  0  0  0  0  0  0  0  0
   -0.3635    0.8840    0.7700 C   0  0  0  0  0  0  0  0  0  0  0  0
    0.0924    1.6472   -0.2265 O   0  0  0  0  0  0  0  0  0  0  0  0
    3.6114   -0.8597    0.9951 N   0  0  0  0  0  0  0  0  0  0  0  0
    5.0465   -2.9230    0.9121 H   0  0  0  0  0  0  0  0  0  0  0  0
    4.8052   -3.1335   -0.8315 H   0  0  0  0  0  0  0  0  0  0  0  0
    6.1964   -2.1957   -0.2241 H   0  0  0  0  0  0  0  0  0  0  0  0
    4.8647   -0.6574   -2.1339 H   0  0  0  0  0  0  0  0  0  0  0  0
    3.4444    1.3987   -2.0519 H   0  0  0  0  0  0  0  0  0  0  0  0
   -0.4397   -0.7259    3.6541 H   0  0  0  0  0  0  0  0  0  0  0  0
   -2.8173   -1.3113    3.2400 H   0  0  0  0  0  0  0  0  0  0  0  0
   -4.3998    0.5298    1.2456 H   0  0  0  0  0  0  0  0  0  0  0  0
   -6.1252    0.9059   -0.4264 H   0  0  0  0  0  0  0  0  0  0  0  0
   -3.1152    1.3683   -3.4699 H   0  0  0  0  0  0  0  0  0  0  0  0
   -1.3697    0.9412   -1.8314 H   0  0  0  0  0  0  0  0  0  0  0  0
    1.0611    1.7492   -0.1021 H   0  0  0  0  0  0  0  0  0  0  0  0
  1  2  1  0
  2  3  2  0
  3  4  1  0
  4  5  2  0
  5  6  1  0
  6  7  1  0
  7  8  1  0
  8  9  1  0
  9 10  2  0
 10 11  1  0
 10 12  1  0
 12 13  1  0
 13 14  2  0
 14 15  1  0
 15 16  2  0
 16 17  1  0
 16 18  1  0
 18 19  2  0
 12 20  1  0
 20 21  1  0
  6 22  2  0
 22  2  1  0
 20  8  2  0
 19 13  1  0
  1 23  1  0
  1 24  1  0
  1 25  1  0
  3 26  1  0
  4 27  1  0
  9 28  1  0
 11 29  1  0
 14 30  1  0
 15 31  1  0
 18 32  1  0
 19 33  1  0
 21 34  1  0
M  END
$$$$
