
     RDKit          3D

 46 50  0  0  0  0  0  0  0  0999 V2000
   -6.4991    0.6530   -1.3304 C   0  0  0  0  0  0  0  0  0  0  0  0
   -5.1993    0.6235   -0.5700 C   0  0  0  0  0  0  0  0  0  0  0  0
   -5.0436    1.4843    0.5358 C   0  0  0  0  0  0  0  0  0  0  0  0
   -3.8422    1.4757    1.2583 C   0  0  0  0  0  0  0  0  0  0  0  0
   -3.4794    2.2224    2.3623 N   0  0  0  0  0  0  0  0  0  0  0  0
   -2.2691    1.8104    2.6170 C   0  0  0  0  0  0  0  0  0  0  0  0
   -1.1343    2.2153    3.8404 S   0  0  0  0  0  0  0  0  0  0  0  0
    0.0324    1.0958    3.1337 C   0  0  0  0  0  0  0  0  0  0  0  0
    1.2615    0.9793    3.6564 C   0  0  0  0  0  0  0  0  0  0  0  0
    2.2939    0.1786    3.1050 C   0  0  0  0  0  0  0  0  0  0  0  0
    3.2855   -0.5338    3.7682 C   0  0  0  0  0  0  0  0  0  0  0  0
    4.1092   -1.1441    2.7917 C   0  0  0  0  0  0  0  0  0  0  0  0
    3.6116   -0.7469    1.5725 C   0  0  0  0  0  0  0  0  0  0  0  0
    3.9657   -1.0235    0.1891 C   0  0  0  0  0  0  0  0  0  0  0  0
    4.1655   -2.3623   -0.1935 C   0  0  0  0  0  0  0  0  0  0  0  0
    4.4591   -2.6985   -1.5176 C   0  0  0  0  0  0  0  0  0  0  0  0
    4.5594   -1.7017   -2.4832 C   0  0  0  0  0  0  0  0  0  0  0  0
    4.3751   -0.3673   -2.1229 C   0  0  0  0  0  0  0  0  0  0  0  0
    4.0831   -0.0218   -0.7910 C   0  0  0  0  0  0  0  0  0  0  0  0
    3.9858    1.4162   -0.4457 C   0  0  0  0  0  0  0  0  0  0  0  0
    4.4303    1.9717    0.5402 O   0  0  0  0  0  0  0  0  0  0  0  0
    3.3388    2.1084   -1.4037 O   0  0  0  0  0  0  0  0  0  0  0  0
    2.5194    0.0418    1.7573 O   0  0  0  0  0  0  0  0  0  0  0  0
   -0.5514    0.3560    1.9661 C   0  0  0  0  0  0  0  0  0  0  0  0
   -0.1191   -0.5568    1.2909 O   0  0  0  0  0  0  0  0  0  0  0  0
   -1.8189    0.8603    1.7641 N   0  0  0  0  0  0  0  0  0  0  0  0
   -2.8211    0.6084    0.8615 C   0  0  0  0  0  0  0  0  0  0  0  0
   -2.9382   -0.2583   -0.2291 C   0  0  0  0  0  0  0  0  0  0  0  0
   -4.1489   -0.2426   -0.9486 C   0  0  0  0  0  0  0  0  0  0  0  0
   -4.2948   -1.1692   -2.1288 C   0  0  0  0  0  0  0  0  0  0  0  0
   -7.2042    1.3684   -0.8940 H   0  0  0  0  0  0  0  0  0  0  0  0
   -6.9756   -0.3320   -1.3081 H   0  0  0  0  0  0  0  0  0  0  0  0
   -6.3250    0.9531   -2.3684 H   0  0  0  0  0  0  0  0  0  0  0  0
   -5.8374    2.1576    0.8437 H   0  0  0  0  0  0  0  0  0  0  0  0
    1.5227    1.5433    4.5485 H   0  0  0  0  0  0  0  0  0  0  0  0
    3.3937   -0.6090    4.8416 H   0  0  0  0  0  0  0  0  0  0  0  0
    4.9689   -1.7777    2.9563 H   0  0  0  0  0  0  0  0  0  0  0  0
    4.0680   -3.1608    0.5399 H   0  0  0  0  0  0  0  0  0  0  0  0
    4.5993   -3.7407   -1.7942 H   0  0  0  0  0  0  0  0  0  0  0  0
    4.7842   -1.9611   -3.5148 H   0  0  0  0  0  0  0  0  0  0  0  0
    4.4710    0.4062   -2.8818 H   0  0  0  0  0  0  0  0  0  0  0  0
    3.3241    3.0228   -1.0527 H   0  0  0  0  0  0  0  0  0  0  0  0
   -2.1198   -0.9179   -0.5075 H   0  0  0  0  0  0  0  0  0  0  0  0
   -4.4670   -0.5943   -3.0441 H   0  0  0  0  0  0  0  0  0  0  0  0
   -3.3923   -1.7705   -2.2823 H   0  0  0  0  0  0  0  0  0  0  0  0
   -5.1273   -1.8614   -1.9676 H   0  0  0  0  0  0  0  0  0  0  0  0
  1  2  1  0
  2  3  2  0
  3  4  1  0
  4  5  1  0
  5  6  2  0
  6  7  1  0
  7  8  1  0
  8  9  2  3
  9 10  1  0
 10 11  2  0
 11 12  1  0
 12 13  2  0
 13 14  1  0
 14 15  2  0
 15 16  1  0
 16 17  2  0
 17 18  1  0
 18 19  2  0
 19 20  1  0
 20 21  2  0
 20 22  1  0
 13 23  1  0
  8 24  1  0
 24 25  2  0
 24 26  1  0
 26 27  1  0
 27 28  1  0
 28 29  2  0
 29 30  1  0
 29  2  1  0
 27  4  2  0
 26  6  1  0
 23 10  1  0
 19 14  1  0
  1 31  1  0
  1 32  1  0
  1 33  1  0
  3 34  1  0
  9 35  1  0
 11 36  1  0
 12 37  1  0
 15 38  1  0
 16 39  1  0
 17 40  1  0
 18 41  1  0
 22 42  1  0
 28 43  1  0
 30 44  1  0
 30 45  1  0
 30 46  1  0
M  END
$$$$
