
     RDKit          3D

 29 31  0  0  0  0  0  0  0  0999 V2000
   -0.0889   -2.0672   -0.0587 O   0  0  0  0  0  0  0  0  0  0  0  0
    0.1778   -0.8764   -0.1802 C   0  0  0  0  0  0  0  0  0  0  0  0
   -0.7175    0.1732   -0.0334 N   0  0  0  0  0  0  0  0  0  0  0  0
   -2.0257   -0.0952    0.2543 N   0  0  0  0  0  0  0  0  0  0  0  0
   -2.7894    0.9325    0.4504 C   0  0  0  0  0  0  0  0  0  0  0  0
   -4.1862    0.7598    0.7612 C   0  0  0  0  0  0  0  0  0  0  0  0
   -4.9056   -0.4103    0.8998 C   0  0  0  0  0  0  0  0  0  0  0  0
   -6.2747   -0.1684    1.2127 C   0  0  0  0  0  0  0  0  0  0  0  0
   -6.5519    1.1777    1.3019 C   0  0  0  0  0  0  0  0  0  0  0  0
   -5.1665    2.1385    1.0093 S   0  0  0  0  0  0  0  0  0  0  0  0
    1.5800   -0.4746   -0.4739 C   0  0  0  0  0  0  0  0  0  0  0  0
    1.8729    0.6414   -1.2909 C   0  0  0  0  0  0  0  0  0  0  0  0
    3.2002    0.9986   -1.5527 C   0  0  0  0  0  0  0  0  0  0  0  0
    4.1951    0.2229   -0.9966 C   0  0  0  0  0  0  0  0  0  0  0  0
    3.9114   -0.8728   -0.2148 C   0  0  0  0  0  0  0  0  0  0  0  0
    2.6161   -1.2531    0.0617 C   0  0  0  0  0  0  0  0  0  0  0  0
    5.0351   -1.4989    0.2256 O   0  0  0  0  0  0  0  0  0  0  0  0
    6.0588   -0.6818   -0.3787 C   0  0  0  0  0  0  0  0  0  0  0  0
    5.5317    0.4210   -1.1467 O   0  0  0  0  0  0  0  0  0  0  0  0
   -0.3920    1.1323   -0.0160 H   0  0  0  0  0  0  0  0  0  0  0  0
   -2.3952    1.9629    0.3849 H   0  0  0  0  0  0  0  0  0  0  0  0
   -4.4641   -1.3943    0.7813 H   0  0  0  0  0  0  0  0  0  0  0  0
   -7.0161   -0.9436    1.3643 H   0  0  0  0  0  0  0  0  0  0  0  0
   -7.5016    1.6445    1.5250 H   0  0  0  0  0  0  0  0  0  0  0  0
    1.0767    1.2171   -1.7557 H   0  0  0  0  0  0  0  0  0  0  0  0
    3.4435    1.8473   -2.1827 H   0  0  0  0  0  0  0  0  0  0  0  0
    2.4088   -2.1253    0.6739 H   0  0  0  0  0  0  0  0  0  0  0  0
    6.7010   -0.2810    0.4141 H   0  0  0  0  0  0  0  0  0  0  0  0
    6.6662   -1.3109   -1.0395 H   0  0  0  0  0  0  0  0  0  0  0  0
  1  2  2  0
  2  3  1  0
  3  4  1  0
  4  5  2  3
  5  6  1  0
  6  7  2  0
  7  8  1  0
  8  9  2  0
  9 10  1  0
  2 11  1  0
 11 12  2  0
 12 13  1  0
 13 14  2  0
 14 15  1  0
 15 16  2  0
 15 17  1  0
 17 18  1  0
 18 19  1  0
 10  6  1  0
 16 11  1  0
 19 14  1  0
  3 20  1  0
  5 21  1  0
  7 22  1  0
  8 23  1  0
  9 24  1  0
 12 25  1  0
 13 26  1  0
 16 27  1  0
 18 28  1  0
 18 29  1  0
M  END
$$$$
