
     RDKit          3D

 49 51  0  0  0  0  0  0  0  0999 V2000
   -8.1580    1.2697   -0.5979 C   0  0  0  0  0  0  0  0  0  0  0  0
   -7.5526    0.1087    0.1494 C   0  0  0  0  0  0  0  0  0  0  0  0
   -8.2739   -0.6607    0.7847 O   0  0  0  0  0  0  0  0  0  0  0  0
   -6.1716   -0.0262    0.0987 N   0  0  0  0  0  0  0  0  0  0  0  0
   -5.3288    0.6458   -0.8999 C   0  0  0  0  0  0  0  0  0  0  0  0
   -3.8647    0.8089   -0.4467 C   0  0  0  0  0  0  0  0  0  0  0  0
   -3.3174   -0.4809    0.0365 N   0  0  0  0  0  0  0  0  0  0  0  0
   -1.9236   -0.4615    0.2054 C   0  0  0  0  0  0  0  0  0  0  0  0
   -1.0975   -0.2782   -0.9107 C   0  0  0  0  0  0  0  0  0  0  0  0
    0.2987   -0.2580   -0.7964 C   0  0  0  0  0  0  0  0  0  0  0  0
    0.9264   -0.4286    0.4423 C   0  0  0  0  0  0  0  0  0  0  0  0
    2.3371   -0.3846    0.4335 N   0  0  0  0  0  0  0  0  0  0  0  0
    3.3043   -0.5467    1.3961 C   0  0  0  0  0  0  0  0  0  0  0  0
    3.1648   -0.9063    3.0204 S   0  0  0  0  0  0  0  0  0  0  0  0
    4.6059   -0.3827    0.9370 N   0  0  0  0  0  0  0  0  0  0  0  0
    5.0556   -0.0951   -0.3457 C   0  0  0  0  0  0  0  0  0  0  0  0
    4.3153   -0.0212   -1.3229 O   0  0  0  0  0  0  0  0  0  0  0  0
    6.5243    0.0803   -0.5023 C   0  0  0  0  0  0  0  0  0  0  0  0
    7.1086   -0.2815   -1.7227 C   0  0  0  0  0  0  0  0  0  0  0  0
    8.4834   -0.1349   -1.9124 C   0  0  0  0  0  0  0  0  0  0  0  0
    9.2766    0.3827   -0.8892 C   0  0  0  0  0  0  0  0  0  0  0  0
    8.6973    0.7625    0.3216 C   0  0  0  0  0  0  0  0  0  0  0  0
    7.3217    0.6170    0.5174 C   0  0  0  0  0  0  0  0  0  0  0  0
    0.1178   -0.6195    1.5563 C   0  0  0  0  0  0  0  0  0  0  0  0
   -1.2837   -0.6416    1.4365 C   0  0  0  0  0  0  0  0  0  0  0  0
   -4.1339   -1.0590    1.1268 C   0  0  0  0  0  0  0  0  0  0  0  0
   -5.5897   -1.2477    0.6683 C   0  0  0  0  0  0  0  0  0  0  0  0
   -7.7391    2.2122   -0.2358 H   0  0  0  0  0  0  0  0  0  0  0  0
   -9.2381    1.2891   -0.4223 H   0  0  0  0  0  0  0  0  0  0  0  0
   -7.9891    1.1580   -1.6720 H   0  0  0  0  0  0  0  0  0  0  0  0
   -5.7335    1.6306   -1.1473 H   0  0  0  0  0  0  0  0  0  0  0  0
   -5.3726    0.0346   -1.8099 H   0  0  0  0  0  0  0  0  0  0  0  0
   -3.2946    1.2066   -1.2940 H   0  0  0  0  0  0  0  0  0  0  0  0
   -3.8152    1.5491    0.3631 H   0  0  0  0  0  0  0  0  0  0  0  0
   -1.5374   -0.1752   -1.8994 H   0  0  0  0  0  0  0  0  0  0  0  0
    0.8862   -0.1162   -1.7010 H   0  0  0  0  0  0  0  0  0  0  0  0
    2.7355   -0.2172   -0.4928 H   0  0  0  0  0  0  0  0  0  0  0  0
    5.2943   -0.5358    1.6610 H   0  0  0  0  0  0  0  0  0  0  0  0
    6.4953   -0.6814   -2.5282 H   0  0  0  0  0  0  0  0  0  0  0  0
    8.9345   -0.4209   -2.8597 H   0  0  0  0  0  0  0  0  0  0  0  0
   10.3474    0.5000   -1.0398 H   0  0  0  0  0  0  0  0  0  0  0  0
    9.3185    1.1823    1.1096 H   0  0  0  0  0  0  0  0  0  0  0  0
    6.8932    0.9557    1.4565 H   0  0  0  0  0  0  0  0  0  0  0  0
    0.5195   -0.7522    2.5512 H   0  0  0  0  0  0  0  0  0  0  0  0
   -1.8547   -0.7872    2.3487 H   0  0  0  0  0  0  0  0  0  0  0  0
   -3.7401   -2.0378    1.4263 H   0  0  0  0  0  0  0  0  0  0  0  0
   -4.1195   -0.3937    1.9999 H   0  0  0  0  0  0  0  0  0  0  0  0
   -6.1919   -1.5971    1.5140 H   0  0  0  0  0  0  0  0  0  0  0  0
   -5.6411   -2.0170   -0.1124 H   0  0  0  0  0  0  0  0  0  0  0  0
  1  2  1  0
  2  3  2  0
  2  4  1  0
  4  5  1  0
  5  6  1  0
  6  7  1  0
  7  8  1  0
  8  9  2  0
  9 10  1  0
 10 11  2  0
 11 12  1  0
 12 13  1  0
 13 14  2  0
 13 15  1  0
 15 16  1  0
 16 17  2  0
 16 18  1  0
 18 19  2  0
 19 20  1  0
 20 21  2  0
 21 22  1  0
 22 23  2  0
 11 24  1  0
 24 25  2  0
  7 26  1  0
 26 27  1  0
 27  4  1  0
 25  8  1  0
 23 18  1  0
  1 28  1  0
  1 29  1  0
  1 30  1  0
  5 31  1  0
  5 32  1  0
  6 33  1  0
  6 34  1  0
  9 35  1  0
 10 36  1  0
 12 37  1  0
 15 38  1  0
 19 39  1  0
 20 40  1  0
 21 41  1  0
 22 42  1  0
 23 43  1  0
 24 44  1  0
 25 45  1  0
 26 46  1  0
 26 47  1  0
 27 48  1  0
 27 49  1  0
M  END
$$$$
