
     RDKit          3D

 41 41  0  0  0  0  0  0  0  0999 V2000
    4.4798   -2.1168    1.8027 C   0  0  0  0  0  0  0  0  0  0  0  0
    3.0061   -2.3173    1.4871 C   0  0  0  0  0  0  0  0  0  0  0  0
    2.2768   -0.9808    1.3437 C   0  0  0  0  0  0  0  0  0  0  0  0
    0.7924   -1.1919    1.0285 C   0  0  0  0  0  0  0  0  0  0  0  0
    0.0116    0.1263    0.9293 C   0  0  0  0  0  0  0  0  0  0  0  0
    0.2910    0.9421   -0.3627 C   0  0  0  0  0  0  0  0  0  0  0  0
    0.3155    2.4396   -0.0285 C   0  0  0  0  0  0  0  0  0  0  0  0
   -1.0635    2.9261    0.3802 C   0  0  0  0  0  0  0  0  0  0  0  0
   -1.1278    3.7720    1.3624 N   0  0  0  0  0  0  0  0  0  0  0  0
   -2.4439    4.1596    1.6387 O   0  0  0  0  0  0  0  0  0  0  0  0
   -2.2163    2.4230   -0.4230 C   0  0  0  0  0  0  0  0  0  0  0  0
   -2.0554    1.4349   -1.3226 C   0  0  0  0  0  0  0  0  0  0  0  0
   -3.1858    1.0804   -2.2536 C   0  0  0  0  0  0  0  0  0  0  0  0
   -0.7248    0.7114   -1.5185 C   0  0  0  0  0  0  0  0  0  0  0  0
   -0.8274   -0.7800   -1.8590 C   0  0  0  0  0  0  0  0  0  0  0  0
   -0.0936   -1.3324   -2.6714 O   0  0  0  0  0  0  0  0  0  0  0  0
   -1.7867   -1.4144   -1.1311 O   0  0  0  0  0  0  0  0  0  0  0  0
   -1.9071   -2.8104   -1.4073 C   0  0  0  0  0  0  0  0  0  0  0  0
    4.6089   -1.5700    2.7423 H   0  0  0  0  0  0  0  0  0  0  0  0
    4.9787   -1.5550    1.0066 H   0  0  0  0  0  0  0  0  0  0  0  0
    4.9814   -3.0845    1.9012 H   0  0  0  0  0  0  0  0  0  0  0  0
    2.5450   -2.9099    2.2857 H   0  0  0  0  0  0  0  0  0  0  0  0
    2.9124   -2.8938    0.5593 H   0  0  0  0  0  0  0  0  0  0  0  0
    2.7541   -0.3932    0.5520 H   0  0  0  0  0  0  0  0  0  0  0  0
    2.3764   -0.4085    2.2740 H   0  0  0  0  0  0  0  0  0  0  0  0
    0.3462   -1.7914    1.8319 H   0  0  0  0  0  0  0  0  0  0  0  0
    0.6924   -1.7759    0.1094 H   0  0  0  0  0  0  0  0  0  0  0  0
    0.2606    0.7220    1.8172 H   0  0  0  0  0  0  0  0  0  0  0  0
   -1.0596   -0.0910    1.0134 H   0  0  0  0  0  0  0  0  0  0  0  0
    1.2865    0.6770   -0.7389 H   0  0  0  0  0  0  0  0  0  0  0  0
    1.0341    2.6432    0.7743 H   0  0  0  0  0  0  0  0  0  0  0  0
    0.6335    3.0246   -0.9004 H   0  0  0  0  0  0  0  0  0  0  0  0
   -2.3259    4.7709    2.3896 H   0  0  0  0  0  0  0  0  0  0  0  0
   -3.1635    2.9335   -0.2904 H   0  0  0  0  0  0  0  0  0  0  0  0
   -3.6067    0.1006   -2.0134 H   0  0  0  0  0  0  0  0  0  0  0  0
   -2.8341    1.0686   -3.2905 H   0  0  0  0  0  0  0  0  0  0  0  0
   -4.0033    1.8079   -2.1984 H   0  0  0  0  0  0  0  0  0  0  0  0
   -0.2971    1.1691   -2.4247 H   0  0  0  0  0  0  0  0  0  0  0  0
   -2.7011   -3.2133   -0.7727 H   0  0  0  0  0  0  0  0  0  0  0  0
   -2.1848   -2.9707   -2.4537 H   0  0  0  0  0  0  0  0  0  0  0  0
   -0.9750   -3.3316   -1.1684 H   0  0  0  0  0  0  0  0  0  0  0  0
  1  2  1  0
  2  3  1  0
  3  4  1  0
  4  5  1  0
  5  6  1  0
  6  7  1  0
  7  8  1  0
  8  9  2  3
  9 10  1  0
  8 11  1  0
 11 12  2  0
 12 13  1  0
 12 14  1  0
 14 15  1  0
 15 16  2  0
 15 17  1  0
 17 18  1  0
 14  6  1  0
  1 19  1  0
  1 20  1  0
  1 21  1  0
  2 22  1  0
  2 23  1  0
  3 24  1  0
  3 25  1  0
  4 26  1  0
  4 27  1  0
  5 28  1  0
  5 29  1  0
  6 30  1  0
  7 31  1  0
  7 32  1  0
 10 33  1  0
 11 34  1  0
 13 35  1  0
 13 36  1  0
 13 37  1  0
 14 38  1  0
 18 39  1  0
 18 40  1  0
 18 41  1  0
M  END
$$$$
