
     RDKit          3D

 43 45  0  0  0  0  0  0  0  0999 V2000
   -3.8126    0.4966    3.0593 C   0  0  0  0  0  0  0  0  0  0  0  0
   -4.4464    0.2162    1.7275 C   0  0  0  0  0  0  0  0  0  0  0  0
   -5.8370    0.0613    1.6498 C   0  0  0  0  0  0  0  0  0  0  0  0
   -6.4566   -0.1844    0.4244 C   0  0  0  0  0  0  0  0  0  0  0  0
   -5.6959   -0.2721   -0.7408 C   0  0  0  0  0  0  0  0  0  0  0  0
   -4.3040   -0.1286   -0.6928 C   0  0  0  0  0  0  0  0  0  0  0  0
   -3.5002   -0.2292   -1.9575 C   0  0  0  0  0  0  0  0  0  0  0  0
   -3.6881    0.0698    0.5550 C   0  0  0  0  0  0  0  0  0  0  0  0
   -2.3214    0.1880    0.6026 O   0  0  0  0  0  0  0  0  0  0  0  0
   -1.7242   -1.0782    0.9056 C   0  0  0  0  0  0  0  0  0  0  0  0
   -0.2808   -0.9329    0.6182 C   0  0  0  0  0  0  0  0  0  0  0  0
    0.4919   -1.0960   -0.5035 C   0  0  0  0  0  0  0  0  0  0  0  0
    1.8136   -0.7761   -0.0886 C   0  0  0  0  0  0  0  0  0  0  0  0
    3.0147   -0.8387   -0.9362 C   0  0  0  0  0  0  0  0  0  0  0  0
    3.0129   -1.5766   -1.9246 O   0  0  0  0  0  0  0  0  0  0  0  0
    4.1437   -0.0629   -0.6368 N   0  0  0  0  0  0  0  0  0  0  0  0
    4.2536    0.8748    0.4826 C   0  0  0  0  0  0  0  0  0  0  0  0
    5.2534    1.9893    0.1796 C   0  0  0  0  0  0  0  0  0  0  0  0
    6.5353    1.4724   -0.2320 N   0  0  0  0  0  0  0  0  0  0  0  0
    6.6262    0.4310   -1.1185 C   0  0  0  0  0  0  0  0  0  0  0  0
    7.6894    0.2130   -1.6957 O   0  0  0  0  0  0  0  0  0  0  0  0
    5.3956   -0.4724   -1.2847 C   0  0  0  0  0  0  0  0  0  0  0  0
    1.8268   -0.4815    1.2236 N   0  0  0  0  0  0  0  0  0  0  0  0
    0.5162   -0.5597    1.6530 O   0  0  0  0  0  0  0  0  0  0  0  0
   -3.5972   -0.4422    3.5787 H   0  0  0  0  0  0  0  0  0  0  0  0
   -2.8839    1.0638    2.9492 H   0  0  0  0  0  0  0  0  0  0  0  0
   -4.4774    1.1011    3.6855 H   0  0  0  0  0  0  0  0  0  0  0  0
   -6.4493    0.1414    2.5459 H   0  0  0  0  0  0  0  0  0  0  0  0
   -7.5368   -0.2964    0.3754 H   0  0  0  0  0  0  0  0  0  0  0  0
   -6.1982   -0.4466   -1.6903 H   0  0  0  0  0  0  0  0  0  0  0  0
   -4.1275   -0.0679   -2.8407 H   0  0  0  0  0  0  0  0  0  0  0  0
   -2.7121    0.5310   -1.9809 H   0  0  0  0  0  0  0  0  0  0  0  0
   -3.0472   -1.2219   -2.0350 H   0  0  0  0  0  0  0  0  0  0  0  0
   -1.8786   -1.3305    1.9599 H   0  0  0  0  0  0  0  0  0  0  0  0
   -2.1421   -1.8783    0.2829 H   0  0  0  0  0  0  0  0  0  0  0  0
    0.1680   -1.3934   -1.4900 H   0  0  0  0  0  0  0  0  0  0  0  0
    3.2881    1.3420    0.6883 H   0  0  0  0  0  0  0  0  0  0  0  0
    4.5714    0.3004    1.3601 H   0  0  0  0  0  0  0  0  0  0  0  0
    4.8826    2.6160   -0.6390 H   0  0  0  0  0  0  0  0  0  0  0  0
    5.4089    2.6219    1.0580 H   0  0  0  0  0  0  0  0  0  0  0  0
    7.3492    2.0763   -0.2234 H   0  0  0  0  0  0  0  0  0  0  0  0
    5.6625   -1.4530   -0.8722 H   0  0  0  0  0  0  0  0  0  0  0  0
    5.2135   -0.5869   -2.3591 H   0  0  0  0  0  0  0  0  0  0  0  0
  1  2  1  0
  2  3  2  0
  3  4  1  0
  4  5  2  0
  5  6  1  0
  6  7  1  0
  6  8  2  0
  8  9  1  0
  9 10  1  0
 10 11  1  0
 11 12  2  0
 12 13  1  0
 13 14  1  0
 14 15  2  0
 14 16  1  0
 16 17  1  0
 17 18  1  0
 18 19  1  0
 19 20  1  0
 20 21  2  0
 20 22  1  0
 13 23  2  0
 23 24  1  0
  8  2  1  0
 24 11  1  0
 22 16  1  0
  1 25  1  0
  1 26  1  0
  1 27  1  0
  3 28  1  0
  4 29  1  0
  5 30  1  0
  7 31  1  0
  7 32  1  0
  7 33  1  0
 10 34  1  0
 10 35  1  0
 12 36  1  0
 17 37  1  0
 17 38  1  0
 18 39  1  0
 18 40  1  0
 19 41  1  0
 22 42  1  0
 22 43  1  0
M  END
$$$$
