
     RDKit          3D

 38 40  0  0  0  0  0  0  0  0999 V2000
   -1.4467    0.3162   -3.9031 C   0  0  0  0  0  0  0  0  0  0  0  0
   -1.3427    1.4302   -2.8967 C   0  0  0  0  0  0  0  0  0  0  0  0
   -1.0274    2.5776   -3.2080 O   0  0  0  0  0  0  0  0  0  0  0  0
   -1.5880    1.1378   -1.4815 C   0  0  0  0  0  0  0  0  0  0  0  0
   -0.7020    1.4975   -0.4743 C   0  0  0  0  0  0  0  0  0  0  0  0
    0.6541    2.1052   -0.7626 C   0  0  0  0  0  0  0  0  0  0  0  0
    1.7130    1.3156   -0.1856 O   0  0  0  0  0  0  0  0  0  0  0  0
    1.9210    0.1213   -0.7925 C   0  0  0  0  0  0  0  0  0  0  0  0
    1.2909   -0.3038   -1.7497 O   0  0  0  0  0  0  0  0  0  0  0  0
    3.0276   -0.6227   -0.1343 C   0  0  0  0  0  0  0  0  0  0  0  0
    3.4278   -1.8444   -0.6932 C   0  0  0  0  0  0  0  0  0  0  0  0
    4.4609   -2.5805   -0.1098 C   0  0  0  0  0  0  0  0  0  0  0  0
    5.0980   -2.1016    1.0341 C   0  0  0  0  0  0  0  0  0  0  0  0
    4.7042   -0.8882    1.5975 C   0  0  0  0  0  0  0  0  0  0  0  0
    3.6711   -0.1484    1.0170 C   0  0  0  0  0  0  0  0  0  0  0  0
   -0.9781    1.2628    0.8363 N   0  0  0  0  0  0  0  0  0  0  0  0
   -2.1255    0.6597    1.1693 C   0  0  0  0  0  0  0  0  0  0  0  0
   -2.4022    0.4144    2.5079 C   0  0  0  0  0  0  0  0  0  0  0  0
   -3.5849   -0.2131    2.9122 C   0  0  0  0  0  0  0  0  0  0  0  0
   -4.5198   -0.6081    1.9633 C   0  0  0  0  0  0  0  0  0  0  0  0
   -4.2647   -0.3728    0.6153 C   0  0  0  0  0  0  0  0  0  0  0  0
   -3.0672    0.2605    0.2083 C   0  0  0  0  0  0  0  0  0  0  0  0
   -2.7782    0.5186   -1.1486 N   0  0  0  0  0  4  0  0  0  0  0  0
   -3.6327    0.1895   -2.0486 O   0  0  0  0  0  1  0  0  0  0  0  0
   -1.4528   -0.6624   -3.4151 H   0  0  0  0  0  0  0  0  0  0  0  0
   -0.5720    0.3516   -4.5591 H   0  0  0  0  0  0  0  0  0  0  0  0
   -2.3565    0.4394   -4.4955 H   0  0  0  0  0  0  0  0  0  0  0  0
    0.8761    2.2554   -1.8219 H   0  0  0  0  0  0  0  0  0  0  0  0
    0.6948    3.0925   -0.2893 H   0  0  0  0  0  0  0  0  0  0  0  0
    2.9376   -2.2279   -1.5861 H   0  0  0  0  0  0  0  0  0  0  0  0
    4.7682   -3.5269   -0.5482 H   0  0  0  0  0  0  0  0  0  0  0  0
    5.9026   -2.6755    1.4879 H   0  0  0  0  0  0  0  0  0  0  0  0
    5.2017   -0.5176    2.4907 H   0  0  0  0  0  0  0  0  0  0  0  0
    3.3778    0.7929    1.4754 H   0  0  0  0  0  0  0  0  0  0  0  0
   -1.6780    0.7194    3.2608 H   0  0  0  0  0  0  0  0  0  0  0  0
   -3.7710   -0.3902    3.9692 H   0  0  0  0  0  0  0  0  0  0  0  0
   -5.4427   -1.0956    2.2687 H   0  0  0  0  0  0  0  0  0  0  0  0
   -4.9946   -0.6784   -0.1338 H   0  0  0  0  0  0  0  0  0  0  0  0
  1  2  1  0
  2  3  2  0
  2  4  1  0
  4  5  2  0
  5  6  1  0
  6  7  1  0
  7  8  1  0
  8  9  2  0
  8 10  1  0
 10 11  2  0
 11 12  1  0
 12 13  2  0
 13 14  1  0
 14 15  2  0
  5 16  1  0
 16 17  2  0
 17 18  1  0
 18 19  2  0
 19 20  1  0
 20 21  2  0
 21 22  1  0
 22 23  2  0
 23 24  1  0
 23  4  1  0
 15 10  1  0
 22 17  1  0
  1 25  1  0
  1 26  1  0
  1 27  1  0
  6 28  1  0
  6 29  1  0
 11 30  1  0
 12 31  1  0
 13 32  1  0
 14 33  1  0
 15 34  1  0
 18 35  1  0
 19 36  1  0
 20 37  1  0
 21 38  1  0
M  CHG  2  23   1  24  -1
M  END
$$$$
