
     RDKit          3D

 64 68  0  0  0  0  0  0  0  0999 V2000
   -4.6777    0.7771   -2.1878 C   0  0  0  0  0  0  0  0  0  0  0  0
   -4.4539   -0.0427   -3.4679 C   0  0  0  0  0  0  0  0  0  0  0  0
   -5.7519   -0.7634   -3.8573 C   0  0  0  0  0  0  0  0  0  0  0  0
   -4.0702    0.9319   -4.5974 C   0  0  0  0  0  0  0  0  0  0  0  0
   -3.3290   -1.0949   -3.3425 C   0  0  0  0  0  0  0  0  0  0  0  0
   -2.7650   -1.5631   -4.3341 O   0  0  0  0  0  0  0  0  0  0  0  0
   -2.9395   -1.6274   -2.0038 C   0  0  0  0  0  0  0  0  0  0  0  0
   -3.9259   -2.4244   -1.3667 C   0  0  0  0  0  0  0  0  0  0  0  0
   -4.7720   -3.0358   -0.8604 N   0  0  0  0  0  0  0  0  0  0  0  0
   -1.7429   -1.2900   -1.4704 C   0  0  0  0  0  0  0  0  0  0  0  0
   -0.7379   -0.0550   -2.2016 S   0  0  0  0  0  0  0  0  0  0  0  0
    0.2116    0.1225   -0.7682 C   0  0  0  0  0  0  0  0  0  0  0  0
    1.1397    1.0887   -0.6667 C   0  0  0  0  0  0  0  0  0  0  0  0
    2.0087    1.3886    0.4235 C   0  0  0  0  0  0  0  0  0  0  0  0
    1.6241    1.5645    1.7314 C   0  0  0  0  0  0  0  0  0  0  0  0
    2.7511    1.9070    2.4418 N   0  0  0  0  0  0  0  0  0  0  0  0
    2.8617    2.1746    3.8361 C   0  0  0  0  0  0  0  0  0  0  0  0
    4.1086    2.5331    4.3724 C   0  0  0  0  0  0  0  0  0  0  0  0
    4.2389    2.8074    5.7352 C   0  0  0  0  0  0  0  0  0  0  0  0
    3.1271    2.7300    6.5713 C   0  0  0  0  0  0  0  0  0  0  0  0
    1.8866    2.3710    6.0481 C   0  0  0  0  0  0  0  0  0  0  0  0
    1.7491    2.0917    4.6848 C   0  0  0  0  0  0  0  0  0  0  0  0
    3.8300    2.0163    1.6272 N   0  0  0  0  0  0  0  0  0  0  0  0
    3.4025    1.6773    0.4022 C   0  0  0  0  0  0  0  0  0  0  0  0
    4.3327    1.6675   -0.7242 C   0  0  0  0  0  0  0  0  0  0  0  0
    5.3545    2.6163   -0.8213 C   0  0  0  0  0  0  0  0  0  0  0  0
    6.2240    2.5936   -1.9094 C   0  0  0  0  0  0  0  0  0  0  0  0
    6.0427    1.6180   -2.8752 C   0  0  0  0  0  0  0  0  0  0  0  0
    5.0773    0.6771   -2.8163 N   0  0  0  0  0  0  0  0  0  0  0  0
    4.2570    0.7169   -1.7364 C   0  0  0  0  0  0  0  0  0  0  0  0
   -0.1162   -0.9439    0.2223 C   0  0  0  0  0  0  0  0  0  0  0  0
    0.5116   -1.1191    1.2572 O   0  0  0  0  0  0  0  0  0  0  0  0
   -1.1953   -1.7170   -0.2561 N   0  0  0  0  0  0  0  0  0  0  0  0
   -1.4932   -2.9427    0.4225 C   0  0  0  0  0  0  0  0  0  0  0  0
   -1.6281   -4.1420   -0.2994 C   0  0  0  0  0  0  0  0  0  0  0  0
   -1.8993   -5.3436    0.3624 C   0  0  0  0  0  0  0  0  0  0  0  0
   -2.0255   -5.3530    1.7451 C   0  0  0  0  0  0  0  0  0  0  0  0
   -2.2822   -6.5055    2.3772 F   0  0  0  0  0  0  0  0  0  0  0  0
   -1.8737   -4.1854    2.4813 C   0  0  0  0  0  0  0  0  0  0  0  0
   -1.5990   -2.9837    1.8220 C   0  0  0  0  0  0  0  0  0  0  0  0
   -5.4246    1.5627   -2.3494 H   0  0  0  0  0  0  0  0  0  0  0  0
   -3.7526    1.2642   -1.8598 H   0  0  0  0  0  0  0  0  0  0  0  0
   -5.0401    0.1597   -1.3602 H   0  0  0  0  0  0  0  0  0  0  0  0
   -5.6168   -1.3581   -4.7682 H   0  0  0  0  0  0  0  0  0  0  0  0
   -6.5634   -0.0506   -4.0416 H   0  0  0  0  0  0  0  0  0  0  0  0
   -6.0844   -1.4481   -3.0710 H   0  0  0  0  0  0  0  0  0  0  0  0
   -3.9406    0.4095   -5.5519 H   0  0  0  0  0  0  0  0  0  0  0  0
   -4.8437    1.6947   -4.7438 H   0  0  0  0  0  0  0  0  0  0  0  0
   -3.1289    1.4448   -4.3739 H   0  0  0  0  0  0  0  0  0  0  0  0
    1.2793    1.7383   -1.5322 H   0  0  0  0  0  0  0  0  0  0  0  0
    0.6595    1.4668    2.2037 H   0  0  0  0  0  0  0  0  0  0  0  0
    4.9924    2.5980    3.7393 H   0  0  0  0  0  0  0  0  0  0  0  0
    5.2088    3.0822    6.1410 H   0  0  0  0  0  0  0  0  0  0  0  0
    3.2292    2.9450    7.6318 H   0  0  0  0  0  0  0  0  0  0  0  0
    1.0212    2.3097    6.7042 H   0  0  0  0  0  0  0  0  0  0  0  0
    0.7648    1.8130    4.3230 H   0  0  0  0  0  0  0  0  0  0  0  0
    5.4780    3.3716   -0.0491 H   0  0  0  0  0  0  0  0  0  0  0  0
    7.0234    3.3194   -1.9980 H   0  0  0  0  0  0  0  0  0  0  0  0
    6.6936    1.5614   -3.7425 H   0  0  0  0  0  0  0  0  0  0  0  0
    3.5227   -0.0823   -1.7135 H   0  0  0  0  0  0  0  0  0  0  0  0
   -1.4903   -4.1714   -1.3776 H   0  0  0  0  0  0  0  0  0  0  0  0
   -2.0050   -6.2712   -0.1919 H   0  0  0  0  0  0  0  0  0  0  0  0
   -1.9629   -4.2151    3.5622 H   0  0  0  0  0  0  0  0  0  0  0  0
   -1.4807   -2.0819    2.4184 H   0  0  0  0  0  0  0  0  0  0  0  0
  1  2  1  0
  2  3  1  0
  2  4  1  0
  2  5  1  0
  5  6  2  0
  5  7  1  0
  7  8  1  0
  8  9  3  0
  7 10  2  3
 10 11  1  0
 11 12  1  0
 12 13  2  3
 13 14  1  0
 14 15  2  0
 15 16  1  0
 16 17  1  0
 17 18  2  0
 18 19  1  0
 19 20  2  0
 20 21  1  0
 21 22  2  0
 16 23  1  0
 23 24  2  0
 24 25  1  0
 25 26  2  0
 26 27  1  0
 27 28  2  0
 28 29  1  0
 29 30  2  0
 12 31  1  0
 31 32  2  0
 31 33  1  0
 33 34  1  0
 34 35  2  0
 35 36  1  0
 36 37  2  0
 37 38  1  0
 37 39  1  0
 39 40  2  0
 33 10  1  0
 40 34  1  0
 24 14  1  0
 30 25  1  0
 22 17  1  0
  1 41  1  0
  1 42  1  0
  1 43  1  0
  3 44  1  0
  3 45  1  0
  3 46  1  0
  4 47  1  0
  4 48  1  0
  4 49  1  0
 13 50  1  0
 15 51  1  0
 18 52  1  0
 19 53  1  0
 20 54  1  0
 21 55  1  0
 22 56  1  0
 26 57  1  0
 27 58  1  0
 28 59  1  0
 30 60  1  0
 35 61  1  0
 36 62  1  0
 39 63  1  0
 40 64  1  0
M  END
$$$$
