
     RDKit          3D

 53 56  0  0  0  0  0  0  0  0999 V2000
    7.5359    3.3238    0.4559 C   0  0  0  0  0  0  0  0  0  0  0  0
    7.1279    1.8924    0.1571 C   0  0  0  0  0  0  0  0  0  0  0  0
    5.6114    1.7252    0.1410 C   0  0  0  0  0  0  0  0  0  0  0  0
    5.3262    0.3563   -0.1463 O   0  0  0  0  0  0  0  0  0  0  0  0
    4.0097   -0.0066   -0.2021 C   0  0  0  0  0  0  0  0  0  0  0  0
    2.9160    0.8335   -0.0131 C   0  0  0  0  0  0  0  0  0  0  0  0
    1.6120    0.3235   -0.0996 C   0  0  0  0  0  0  0  0  0  0  0  0
    1.3607   -1.0343   -0.3755 C   0  0  0  0  0  0  0  0  0  0  0  0
   -0.0162   -1.5648   -0.4640 C   0  0  0  0  0  0  0  0  0  0  0  0
   -1.0297   -0.6910   -0.3473 N   0  0  0  0  0  0  0  0  0  0  0  0
   -2.2828   -1.1760   -0.4184 C   0  0  0  0  0  0  0  0  0  0  0  0
   -3.3675   -0.2738   -0.2458 N   0  0  0  0  0  0  0  0  0  0  0  0
   -3.7508   -0.2556    1.1916 C   0  0  0  0  0  0  0  0  0  0  0  0
   -4.5046    1.0470    1.5403 C   0  0  0  0  0  0  0  0  0  0  0  0
   -3.6736    2.2620    1.3791 N   0  0  0  0  0  0  0  0  0  0  0  0
   -4.5161    3.4359    1.1698 C   0  0  0  0  0  0  0  0  0  0  0  0
   -2.6815    2.0918    0.2916 C   0  0  0  0  0  0  0  0  0  0  0  0
   -3.0868    1.0747   -0.7983 C   0  0  0  0  0  0  0  0  0  0  0  0
   -2.5428   -2.5432   -0.6252 C   0  0  0  0  0  0  0  0  0  0  0  0
   -3.8334   -3.1185   -0.7476 C   0  0  0  0  0  0  0  0  0  0  0  0
   -3.9919   -4.4869   -0.9510 C   0  0  0  0  0  0  0  0  0  0  0  0
   -2.8667   -5.2941   -1.0399 C   0  0  0  0  0  0  0  0  0  0  0  0
   -1.5948   -4.7243   -0.9316 C   0  0  0  0  0  0  0  0  0  0  0  0
   -1.4128   -3.3608   -0.7305 C   0  0  0  0  0  0  0  0  0  0  0  0
   -0.1671   -2.8872   -0.6486 N   0  0  0  0  0  0  0  0  0  0  0  0
    2.4830   -1.8610   -0.5614 C   0  0  0  0  0  0  0  0  0  0  0  0
    3.7857   -1.3548   -0.4766 C   0  0  0  0  0  0  0  0  0  0  0  0
    7.1419    4.0100   -0.3005 H   0  0  0  0  0  0  0  0  0  0  0  0
    8.6266    3.4142    0.4612 H   0  0  0  0  0  0  0  0  0  0  0  0
    7.1640    3.6413    1.4353 H   0  0  0  0  0  0  0  0  0  0  0  0
    7.5422    1.5813   -0.8095 H   0  0  0  0  0  0  0  0  0  0  0  0
    7.5641    1.2175    0.9033 H   0  0  0  0  0  0  0  0  0  0  0  0
    5.2040    1.9967    1.1224 H   0  0  0  0  0  0  0  0  0  0  0  0
    5.1816    2.3699   -0.6352 H   0  0  0  0  0  0  0  0  0  0  0  0
    3.0339    1.8896    0.2041 H   0  0  0  0  0  0  0  0  0  0  0  0
    0.7785    1.0069    0.0567 H   0  0  0  0  0  0  0  0  0  0  0  0
   -2.8731   -0.3422    1.8481 H   0  0  0  0  0  0  0  0  0  0  0  0
   -4.4063   -1.1085    1.4025 H   0  0  0  0  0  0  0  0  0  0  0  0
   -4.8500    0.9962    2.5792 H   0  0  0  0  0  0  0  0  0  0  0  0
   -5.3979    1.1012    0.9027 H   0  0  0  0  0  0  0  0  0  0  0  0
   -3.9073    4.3465    1.1522 H   0  0  0  0  0  0  0  0  0  0  0  0
   -5.2278    3.5507    1.9950 H   0  0  0  0  0  0  0  0  0  0  0  0
   -5.0797    3.3801    0.2316 H   0  0  0  0  0  0  0  0  0  0  0  0
   -1.7482    1.7547    0.7595 H   0  0  0  0  0  0  0  0  0  0  0  0
   -2.4430    3.0549   -0.1765 H   0  0  0  0  0  0  0  0  0  0  0  0
   -4.0088    1.4262   -1.2795 H   0  0  0  0  0  0  0  0  0  0  0  0
   -2.3351    1.0506   -1.5977 H   0  0  0  0  0  0  0  0  0  0  0  0
   -4.7158   -2.4842   -0.6946 H   0  0  0  0  0  0  0  0  0  0  0  0
   -4.9861   -4.9156   -1.0440 H   0  0  0  0  0  0  0  0  0  0  0  0
   -2.9701   -6.3642   -1.1999 H   0  0  0  0  0  0  0  0  0  0  0  0
   -0.7185   -5.3643   -1.0105 H   0  0  0  0  0  0  0  0  0  0  0  0
    2.3509   -2.9202   -0.7773 H   0  0  0  0  0  0  0  0  0  0  0  0
    4.6307   -2.0226   -0.6261 H   0  0  0  0  0  0  0  0  0  0  0  0
  1  2  1  0
  2  3  1  0
  3  4  1  0
  4  5  1  0
  5  6  2  0
  6  7  1  0
  7  8  2  0
  8  9  1  0
  9 10  2  0
 10 11  1  0
 11 12  1  0
 12 13  1  0
 13 14  1  0
 14 15  1  0
 15 16  1  0
 15 17  1  0
 17 18  1  0
 11 19  2  0
 19 20  1  0
 20 21  2  0
 21 22  1  0
 22 23  2  0
 23 24  1  0
 24 25  2  0
  8 26  1  0
 26 27  2  0
 27  5  1  0
 25  9  1  0
 18 12  1  0
 24 19  1  0
  1 28  1  0
  1 29  1  0
  1 30  1  0
  2 31  1  0
  2 32  1  0
  3 33  1  0
  3 34  1  0
  6 35  1  0
  7 36  1  0
 13 37  1  0
 13 38  1  0
 14 39  1  0
 14 40  1  0
 16 41  1  0
 16 42  1  0
 16 43  1  0
 17 44  1  0
 17 45  1  0
 18 46  1  0
 18 47  1  0
 20 48  1  0
 21 49  1  0
 22 50  1  0
 23 51  1  0
 26 52  1  0
 27 53  1  0
M  END
$$$$
