
     RDKit          3D

 66 72  0  0  0  0  0  0  0  0999 V2000
    0.7867    1.2190   -2.4716 O   0  0  0  0  0  0  0  0  0  0  0  0
    1.2385    1.0696   -1.3442 C   0  0  0  0  0  0  0  0  0  0  0  0
    2.5855    0.8714   -1.0037 N   0  0  0  0  0  0  0  0  0  0  0  0
    3.6301    0.6670   -1.9807 C   0  0  0  0  0  0  0  0  0  0  0  0
    3.9501   -0.7999   -2.1646 C   0  0  0  0  0  0  0  0  0  0  0  0
    2.9827   -1.6809   -2.6728 C   0  0  0  0  0  0  0  0  0  0  0  0
    3.2655   -3.0395   -2.8181 C   0  0  0  0  0  0  0  0  0  0  0  0
    4.5197   -3.5321   -2.4660 C   0  0  0  0  0  0  0  0  0  0  0  0
    5.4936   -2.6666   -1.9719 C   0  0  0  0  0  0  0  0  0  0  0  0
    5.2122   -1.3071   -1.8235 C   0  0  0  0  0  0  0  0  0  0  0  0
    2.7551    0.8138    0.3888 C   0  0  0  0  0  0  0  0  0  0  0  0
    3.9225    0.6563    1.1130 C   0  0  0  0  0  0  0  0  0  0  0  0
    3.8329    0.6446    2.5080 C   0  0  0  0  0  0  0  0  0  0  0  0
    2.5932    0.7937    3.1509 C   0  0  0  0  0  0  0  0  0  0  0  0
    1.4210    0.9479    2.4092 C   0  0  0  0  0  0  0  0  0  0  0  0
    1.5148    0.9477    1.0243 C   0  0  0  0  0  0  0  0  0  0  0  0
    0.4421    1.0562   -0.0159 C   0  0  0  0  0  0  0  0  0  0  0  0
   -0.4644    2.2346    0.1353 N   0  0  0  0  0  0  0  0  0  0  0  0
   -1.9010    1.7743    0.0583 C   0  0  2  0  0  0  0  0  0  0  0  0
   -2.7480    2.3873    1.1833 C   0  0  0  0  0  0  0  0  0  0  0  0
   -3.0114    3.8634    0.9882 C   0  0  0  0  0  0  0  0  0  0  0  0
   -4.0943    4.2929    0.2085 C   0  0  0  0  0  0  0  0  0  0  0  0
   -4.3315    5.6546    0.0185 C   0  0  0  0  0  0  0  0  0  0  0  0
   -3.4883    6.5985    0.6027 C   0  0  0  0  0  0  0  0  0  0  0  0
   -2.4059    6.1815    1.3756 C   0  0  0  0  0  0  0  0  0  0  0  0
   -2.1666    4.8202    1.5663 C   0  0  0  0  0  0  0  0  0  0  0  0
   -1.7752    0.3024    0.1405 C   0  0  0  0  0  0  0  0  0  0  0  0
   -0.4482   -0.1110    0.1036 C   0  0  0  0  0  0  0  0  0  0  0  0
   -0.4087   -1.4816    0.1702 C   0  0  0  0  0  0  0  0  0  0  0  0
    0.6269   -2.3164    0.1212 O   0  0  0  0  0  0  0  0  0  0  0  0
   -1.7432   -1.9305    0.2220 N   0  0  0  0  0  0  0  0  0  0  0  0
   -2.1794   -3.2934    0.1949 C   0  0  0  0  0  0  0  0  0  0  0  0
   -1.4027   -4.3032    0.7770 C   0  0  0  0  0  0  0  0  0  0  0  0
   -1.8426   -5.6293    0.7579 C   0  0  0  0  0  0  0  0  0  0  0  0
   -3.0520   -5.9581    0.1491 C   0  0  0  0  0  0  0  0  0  0  0  0
   -3.8222   -4.9633   -0.4490 C   0  0  0  0  0  0  0  0  0  0  0  0
   -3.3890   -3.6353   -0.4297 C   0  0  0  0  0  0  0  0  0  0  0  0
   -2.5785   -0.7958    0.2769 C   0  0  0  0  0  0  0  0  0  0  0  0
   -3.8948   -0.8265    0.4821 O   0  0  0  0  0  0  0  0  0  0  0  0
    4.5170    1.2362   -1.6789 H   0  0  0  0  0  0  0  0  0  0  0  0
    3.3107    1.0756   -2.9470 H   0  0  0  0  0  0  0  0  0  0  0  0
    1.9981   -1.3148   -2.9608 H   0  0  0  0  0  0  0  0  0  0  0  0
    2.5045   -3.7118   -3.2074 H   0  0  0  0  0  0  0  0  0  0  0  0
    4.7388   -4.5907   -2.5803 H   0  0  0  0  0  0  0  0  0  0  0  0
    6.4734   -3.0523   -1.7020 H   0  0  0  0  0  0  0  0  0  0  0  0
    5.9875   -0.6494   -1.4376 H   0  0  0  0  0  0  0  0  0  0  0  0
    4.8883    0.5503    0.6348 H   0  0  0  0  0  0  0  0  0  0  0  0
    4.7339    0.5230    3.1055 H   0  0  0  0  0  0  0  0  0  0  0  0
    2.5458    0.7868    4.2377 H   0  0  0  0  0  0  0  0  0  0  0  0
    0.4592    1.0585    2.9015 H   0  0  0  0  0  0  0  0  0  0  0  0
   -0.3100    2.8572   -0.6592 H   0  0  0  0  0  0  0  0  0  0  0  0
   -2.3026    2.0422   -0.9277 H   0  0  0  0  0  0  0  0  0  0  0  0
   -3.7174    1.8738    1.2472 H   0  0  0  0  0  0  0  0  0  0  0  0
   -2.2756    2.2221    2.1626 H   0  0  0  0  0  0  0  0  0  0  0  0
   -4.7610    3.5679   -0.2538 H   0  0  0  0  0  0  0  0  0  0  0  0
   -5.1751    5.9787   -0.5854 H   0  0  0  0  0  0  0  0  0  0  0  0
   -3.6739    7.6588    0.4549 H   0  0  0  0  0  0  0  0  0  0  0  0
   -1.7462    6.9164    1.8291 H   0  0  0  0  0  0  0  0  0  0  0  0
   -1.3134    4.5065    2.1644 H   0  0  0  0  0  0  0  0  0  0  0  0
    1.4478   -1.7969    0.0386 H   0  0  0  0  0  0  0  0  0  0  0  0
   -0.4658   -4.0799    1.2814 H   0  0  0  0  0  0  0  0  0  0  0  0
   -1.2385   -6.4053    1.2225 H   0  0  0  0  0  0  0  0  0  0  0  0
   -3.3891   -6.9913    0.1322 H   0  0  0  0  0  0  0  0  0  0  0  0
   -4.7546   -5.2231   -0.9440 H   0  0  0  0  0  0  0  0  0  0  0  0
   -3.9868   -2.8943   -0.9558 H   0  0  0  0  0  0  0  0  0  0  0  0
   -4.1203   -1.6711    0.9128 H   0  0  0  0  0  0  0  0  0  0  0  0
  1  2  2  0
  2  3  1  0
  3  4  1  0
  4  5  1  0
  5  6  2  0
  6  7  1  0
  7  8  2  0
  8  9  1  0
  9 10  2  0
  3 11  1  0
 11 12  2  0
 12 13  1  0
 13 14  2  0
 14 15  1  0
 15 16  2  0
 16 17  1  0
 17 18  1  0
 18 19  1  0
 19 20  1  0
 20 21  1  0
 21 22  2  0
 22 23  1  0
 23 24  2  0
 24 25  1  0
 25 26  2  0
 19 27  1  0
 27 28  1  0
 28 29  2  0
 29 30  1  0
 29 31  1  0
 31 32  1  0
 32 33  2  0
 33 34  1  0
 34 35  2  0
 35 36  1  0
 36 37  2  0
 31 38  1  0
 38 39  1  0
 17  2  1  0
 26 21  1  0
 38 27  2  0
 10  5  1  0
 16 11  1  0
 28 17  1  0
 37 32  1  0
  4 40  1  0
  4 41  1  0
  6 42  1  0
  7 43  1  0
  8 44  1  0
  9 45  1  0
 10 46  1  0
 12 47  1  0
 13 48  1  0
 14 49  1  0
 15 50  1  0
 18 51  1  0
 19 52  1  6
 20 53  1  0
 20 54  1  0
 22 55  1  0
 23 56  1  0
 24 57  1  0
 25 58  1  0
 26 59  1  0
 30 60  1  0
 33 61  1  0
 34 62  1  0
 35 63  1  0
 36 64  1  0
 37 65  1  0
 39 66  1  0
M  END
$$$$
