
     RDKit          3D

 66 68  0  0  0  0  0  0  0  0999 V2000
   -4.0651    0.9663    2.1390 C   0  0  0  0  0  0  0  0  0  0  0  0
   -4.0672   -0.5257    2.4424 C   0  0  0  0  0  0  0  0  0  0  0  0
   -3.2074   -1.3232    1.4692 C   0  0  0  0  0  0  0  0  0  0  0  0
   -1.8496   -0.9310    1.6031 O   0  0  0  0  0  0  0  0  0  0  0  0
   -0.7379   -1.7124    0.6985 P   0  0  0  0  0  5  0  0  0  0  0  0
   -1.0227   -3.1977    0.7363 O   0  0  0  0  0  0  0  0  0  0  0  0
    0.8369   -1.2430    1.3820 C   0  0  0  0  0  0  0  0  0  0  0  0
    0.9778   -0.2551    2.3571 C   0  0  0  0  0  0  0  0  0  0  0  0
    2.2410    0.0964    2.8556 C   0  0  0  0  0  0  0  0  0  0  0  0
    3.4213   -0.5318    2.4223 C   0  0  0  0  0  0  0  0  0  0  0  0
    4.6829   -0.1438    2.8910 N   0  0  0  0  0  0  0  0  0  0  0  0
    4.7669    0.5019    4.2005 C   0  0  0  0  0  0  0  0  0  0  0  0
    5.8593   -0.9186    2.4982 C   0  0  0  0  0  0  0  0  0  0  0  0
    3.2544   -1.5406    1.4590 C   0  0  0  0  0  0  0  0  0  0  0  0
    1.9942   -1.9020    0.9640 C   0  0  0  0  0  0  0  0  0  0  0  0
   -0.9782   -1.0124   -1.0019 C   0  0  0  0  0  0  0  0  0  0  0  0
    0.2223   -1.2265   -1.8303 N   0  0  0  0  0  0  0  0  0  0  0  0
    0.6539   -2.4604   -2.2916 C   0  0  0  0  0  0  0  0  0  0  0  0
   -0.1404   -3.6088   -2.3328 C   0  0  0  0  0  0  0  0  0  0  0  0
    0.3547   -4.8143   -2.8457 C   0  0  0  0  0  0  0  0  0  0  0  0
    1.6477   -4.8840   -3.3524 C   0  0  0  0  0  0  0  0  0  0  0  0
    2.4420   -3.7438   -3.3615 C   0  0  0  0  0  0  0  0  0  0  0  0
    1.9401   -2.5447   -2.8492 C   0  0  0  0  0  0  0  0  0  0  0  0
   -1.3713    0.4475   -1.2012 C   0  0  0  0  0  0  0  0  0  0  0  0
   -1.1600    1.4516   -0.2601 C   0  0  0  0  0  0  0  0  0  0  0  0
   -1.5365    2.7815   -0.5215 C   0  0  0  0  0  0  0  0  0  0  0  0
   -2.1081    3.1806   -1.7411 C   0  0  0  0  0  0  0  0  0  0  0  0
   -2.4973    4.5016   -1.9972 N   0  0  0  0  0  0  0  0  0  0  0  0
   -2.1718    5.5435   -1.0252 C   0  0  0  0  0  0  0  0  0  0  0  0
   -2.5420    4.9417   -3.3928 C   0  0  0  0  0  0  0  0  0  0  0  0
   -2.3048    2.1569   -2.6815 C   0  0  0  0  0  0  0  0  0  0  0  0
   -1.9426    0.8263   -2.4247 C   0  0  0  0  0  0  0  0  0  0  0  0
   -3.0581    1.3803    2.2181 H   0  0  0  0  0  0  0  0  0  0  0  0
   -4.7061    1.4986    2.8474 H   0  0  0  0  0  0  0  0  0  0  0  0
   -4.4402    1.1588    1.1300 H   0  0  0  0  0  0  0  0  0  0  0  0
   -5.0966   -0.8993    2.4039 H   0  0  0  0  0  0  0  0  0  0  0  0
   -3.6979   -0.6688    3.4642 H   0  0  0  0  0  0  0  0  0  0  0  0
   -3.5381   -1.1567    0.4395 H   0  0  0  0  0  0  0  0  0  0  0  0
   -3.2999   -2.3912    1.6929 H   0  0  0  0  0  0  0  0  0  0  0  0
    0.1001    0.2499    2.7551 H   0  0  0  0  0  0  0  0  0  0  0  0
    2.2684    0.8906    3.5960 H   0  0  0  0  0  0  0  0  0  0  0  0
    5.8069    0.7059    4.4760 H   0  0  0  0  0  0  0  0  0  0  0  0
    4.3359   -0.1347    4.9812 H   0  0  0  0  0  0  0  0  0  0  0  0
    4.2635    1.4733    4.1993 H   0  0  0  0  0  0  0  0  0  0  0  0
    6.7786   -0.4608    2.8787 H   0  0  0  0  0  0  0  0  0  0  0  0
    5.9688   -0.9454    1.4080 H   0  0  0  0  0  0  0  0  0  0  0  0
    5.8113   -1.9405    2.8896 H   0  0  0  0  0  0  0  0  0  0  0  0
    4.1074   -2.0851    1.0603 H   0  0  0  0  0  0  0  0  0  0  0  0
    1.9258   -2.7136    0.2371 H   0  0  0  0  0  0  0  0  0  0  0  0
   -1.8236   -1.5898   -1.4000 H   0  0  0  0  0  0  0  0  0  0  0  0
    0.9799   -0.5822   -1.6065 H   0  0  0  0  0  0  0  0  0  0  0  0
   -1.1584   -3.6103   -1.9539 H   0  0  0  0  0  0  0  0  0  0  0  0
   -0.2791   -5.6979   -2.8446 H   0  0  0  0  0  0  0  0  0  0  0  0
    2.0272   -5.8209   -3.7484 H   0  0  0  0  0  0  0  0  0  0  0  0
    3.4485   -3.7787   -3.7677 H   0  0  0  0  0  0  0  0  0  0  0  0
    2.5778   -1.6635   -2.8805 H   0  0  0  0  0  0  0  0  0  0  0  0
   -0.7107    1.2433    0.7043 H   0  0  0  0  0  0  0  0  0  0  0  0
   -1.3525    3.5005    0.2716 H   0  0  0  0  0  0  0  0  0  0  0  0
   -2.5889    5.3132   -0.0380 H   0  0  0  0  0  0  0  0  0  0  0  0
   -2.6113    6.5028   -1.3183 H   0  0  0  0  0  0  0  0  0  0  0  0
   -1.0883    5.6829   -0.9466 H   0  0  0  0  0  0  0  0  0  0  0  0
   -1.5791    4.7753   -3.8918 H   0  0  0  0  0  0  0  0  0  0  0  0
   -3.3366    4.4299   -3.9461 H   0  0  0  0  0  0  0  0  0  0  0  0
   -2.7699    6.0123   -3.4644 H   0  0  0  0  0  0  0  0  0  0  0  0
   -2.7562    2.3641   -3.6487 H   0  0  0  0  0  0  0  0  0  0  0  0
   -2.1012    0.0821   -3.2054 H   0  0  0  0  0  0  0  0  0  0  0  0
  1  2  1  0
  2  3  1  0
  3  4  1  0
  4  5  1  0
  5  6  2  0
  5  7  1  0
  7  8  2  0
  8  9  1  0
  9 10  2  0
 10 11  1  0
 11 12  1  0
 11 13  1  0
 10 14  1  0
 14 15  2  0
  5 16  1  0
 16 17  1  0
 17 18  1  0
 18 19  2  0
 19 20  1  0
 20 21  2  0
 21 22  1  0
 22 23  2  0
 16 24  1  0
 24 25  2  0
 25 26  1  0
 26 27  2  0
 27 28  1  0
 28 29  1  0
 28 30  1  0
 27 31  1  0
 31 32  2  0
 15  7  1  0
 23 18  1  0
 32 24  1  0
  1 33  1  0
  1 34  1  0
  1 35  1  0
  2 36  1  0
  2 37  1  0
  3 38  1  0
  3 39  1  0
  8 40  1  0
  9 41  1  0
 12 42  1  0
 12 43  1  0
 12 44  1  0
 13 45  1  0
 13 46  1  0
 13 47  1  0
 14 48  1  0
 15 49  1  0
 16 50  1  0
 17 51  1  0
 19 52  1  0
 20 53  1  0
 21 54  1  0
 22 55  1  0
 23 56  1  0
 25 57  1  0
 26 58  1  0
 29 59  1  0
 29 60  1  0
 29 61  1  0
 30 62  1  0
 30 63  1  0
 30 64  1  0
 31 65  1  0
 32 66  1  0
M  END
$$$$
