
     RDKit          3D

 38 40  0  0  0  0  0  0  0  0999 V2000
    2.5809    1.6022   -1.5436 N   0  0  0  0  0  0  0  0  0  0  0  0
    2.8005    0.4483   -0.9809 C   0  0  0  0  0  0  0  0  0  0  0  0
    2.3953   -0.7374   -1.5613 N   0  0  0  0  0  0  0  0  0  0  0  0
    1.1632   -0.6030   -2.2295 O   0  0  0  0  0  0  0  0  0  0  0  0
    0.1808   -1.3772   -1.6593 C   0  0  0  0  0  0  0  0  0  0  0  0
    0.3831   -2.1870   -0.7620 O   0  0  0  0  0  0  0  0  0  0  0  0
   -1.1408   -1.1017   -2.3358 C   0  0  0  0  0  0  0  0  0  0  0  0
   -2.3037   -1.0358   -1.3674 C   0  0  0  0  0  0  0  0  0  0  0  0
   -3.1966   -2.1217   -1.3348 C   0  0  0  0  0  0  0  0  0  0  0  0
   -4.2806   -2.1239   -0.4649 C   0  0  0  0  0  0  0  0  0  0  0  0
   -4.4868   -1.0430    0.3875 C   0  0  0  0  0  0  0  0  0  0  0  0
   -3.6126    0.0531    0.3870 C   0  0  0  0  0  0  0  0  0  0  0  0
   -3.8377    1.1286    1.2625 C   0  0  0  0  0  0  0  0  0  0  0  0
   -2.9812    2.2266    1.2877 C   0  0  0  0  0  0  0  0  0  0  0  0
   -1.8880    2.2646    0.4340 C   0  0  0  0  0  0  0  0  0  0  0  0
   -1.6520    1.2050   -0.4456 C   0  0  0  0  0  0  0  0  0  0  0  0
   -2.5013    0.0734   -0.4941 C   0  0  0  0  0  0  0  0  0  0  0  0
    3.5138    0.3624    0.3354 C   0  0  0  0  0  0  0  0  0  0  0  0
    4.0108    1.4991    0.9586 C   0  0  0  0  0  0  0  0  0  0  0  0
    4.6648    1.3416    2.1765 C   0  0  0  0  0  0  0  0  0  0  0  0
    4.7907    0.0676    2.7231 C   0  0  0  0  0  0  0  0  0  0  0  0
    4.2552   -1.0074    2.0287 C   0  0  0  0  0  0  0  0  0  0  0  0
    3.6194   -0.8958    0.8429 N   0  0  0  0  0  0  0  0  0  0  0  0
    2.1123    1.3991   -2.4346 H   0  0  0  0  0  0  0  0  0  0  0  0
    2.4007   -1.5152   -0.8840 H   0  0  0  0  0  0  0  0  0  0  0  0
   -1.2942   -1.8894   -3.0836 H   0  0  0  0  0  0  0  0  0  0  0  0
   -1.0942   -0.1625   -2.8987 H   0  0  0  0  0  0  0  0  0  0  0  0
   -3.0477   -2.9803   -1.9859 H   0  0  0  0  0  0  0  0  0  0  0  0
   -4.9631   -2.9697   -0.4453 H   0  0  0  0  0  0  0  0  0  0  0  0
   -5.3392   -1.0661    1.0632 H   0  0  0  0  0  0  0  0  0  0  0  0
   -4.6878    1.1163    1.9411 H   0  0  0  0  0  0  0  0  0  0  0  0
   -3.1685    3.0465    1.9752 H   0  0  0  0  0  0  0  0  0  0  0  0
   -1.2121    3.1159    0.4493 H   0  0  0  0  0  0  0  0  0  0  0  0
   -0.7809    1.2862   -1.0919 H   0  0  0  0  0  0  0  0  0  0  0  0
    3.8959    2.4775    0.5050 H   0  0  0  0  0  0  0  0  0  0  0  0
    5.0765    2.2051    2.6914 H   0  0  0  0  0  0  0  0  0  0  0  0
    5.2963   -0.0850    3.6711 H   0  0  0  0  0  0  0  0  0  0  0  0
    4.3291   -2.0172    2.4219 H   0  0  0  0  0  0  0  0  0  0  0  0
  1  2  2  3
  2  3  1  0
  3  4  1  0
  4  5  1  0
  5  6  2  0
  5  7  1  0
  7  8  1  0
  8  9  2  0
  9 10  1  0
 10 11  2  0
 11 12  1  0
 12 13  2  0
 13 14  1  0
 14 15  2  0
 15 16  1  0
 16 17  2  0
  2 18  1  0
 18 19  2  0
 19 20  1  0
 20 21  2  0
 21 22  1  0
 22 23  2  0
 17  8  1  0
 23 18  1  0
 17 12  1  0
  1 24  1  0
  3 25  1  0
  7 26  1  0
  7 27  1  0
  9 28  1  0
 10 29  1  0
 11 30  1  0
 13 31  1  0
 14 32  1  0
 15 33  1  0
 16 34  1  0
 19 35  1  0
 20 36  1  0
 21 37  1  0
 22 38  1  0
M  END
$$$$
