
     RDKit          3D

 48 50  0  0  0  0  0  0  0  0999 V2000
    0.7025   -0.0591    0.3159 C   0  0  0  0  0  0  0  0  0  0  0  0
    0.4546    0.4368   -0.9046 C   0  0  0  0  0  0  0  0  0  0  0  0
    1.4393    0.7614   -1.9633 C   0  0  0  0  0  0  0  0  0  0  0  0
    2.7545    0.5201   -2.1037 C   0  0  0  0  0  0  0  0  0  0  0  0
    3.5590   -0.2176   -1.2003 C   0  0  0  0  0  0  0  0  0  0  0  0
    4.7945    0.5662   -0.2916 S   0  0  0  0  0  0  0  0  0  0  0  0
    5.2197   -0.9207    0.4183 C   0  0  0  0  0  0  0  0  0  0  0  0
    6.2143   -1.0502    1.3542 N   0  0  0  0  0  0  0  0  0  0  0  0
    7.0275   -0.0571    1.8482 C   0  0  0  0  0  0  0  0  0  0  0  0
    8.0081   -0.5789    2.8700 C   0  0  0  0  0  0  0  0  0  0  0  0
    7.0396    1.1262    1.5302 O   0  0  0  0  0  0  0  0  0  0  0  0
    4.5358   -1.9690    0.0227 N   0  0  0  0  0  0  0  0  0  0  0  0
    3.6118   -1.5691   -0.9080 C   0  0  0  0  0  0  0  0  0  0  0  0
    2.8019   -2.4605   -1.4967 O   0  0  0  0  0  0  0  0  0  0  0  0
    0.7076    1.4468   -3.0304 C   0  0  0  0  0  0  0  0  0  0  0  0
   -0.5928    1.4734   -2.6799 C   0  0  0  0  0  0  0  0  0  0  0  0
   -1.6938    1.9960   -3.5391 C   0  0  0  0  0  0  0  0  0  0  0  0
   -0.7853    0.8667   -1.4223 N   0  0  0  0  0  0  0  0  0  0  0  0
   -2.0469    0.6460   -0.8157 C   0  0  0  0  0  0  0  0  0  0  0  0
   -2.4662   -0.6468   -0.4742 C   0  0  0  0  0  0  0  0  0  0  0  0
   -3.7125   -0.8732    0.1248 C   0  0  0  0  0  0  0  0  0  0  0  0
   -4.5680    0.1925    0.3987 C   0  0  0  0  0  0  0  0  0  0  0  0
   -5.8351    0.0545    1.0015 N   0  0  0  0  0  0  0  0  0  0  0  0
   -6.4502   -1.1145    1.4119 C   0  0  0  0  0  0  0  0  0  0  0  0
   -7.8104   -0.8592    2.0125 C   0  0  0  0  0  0  0  0  0  0  0  0
   -6.0151   -2.2556    1.3099 O   0  0  0  0  0  0  0  0  0  0  0  0
   -4.1569    1.4877    0.0640 C   0  0  0  0  0  0  0  0  0  0  0  0
   -2.9119    1.7103   -0.5364 C   0  0  0  0  0  0  0  0  0  0  0  0
   -0.0974   -0.2020    1.0337 H   0  0  0  0  0  0  0  0  0  0  0  0
    1.6926   -0.3077    0.6668 H   0  0  0  0  0  0  0  0  0  0  0  0
    3.2658    0.8878   -2.9905 H   0  0  0  0  0  0  0  0  0  0  0  0
    6.3310   -2.0006    1.6757 H   0  0  0  0  0  0  0  0  0  0  0  0
    8.9443   -0.8397    2.3692 H   0  0  0  0  0  0  0  0  0  0  0  0
    7.6158   -1.4584    3.3887 H   0  0  0  0  0  0  0  0  0  0  0  0
    8.1965    0.1971    3.6178 H   0  0  0  0  0  0  0  0  0  0  0  0
    3.0204   -3.3256   -1.1120 H   0  0  0  0  0  0  0  0  0  0  0  0
    1.1341    1.8109   -3.9509 H   0  0  0  0  0  0  0  0  0  0  0  0
   -2.1331    2.8991   -3.1060 H   0  0  0  0  0  0  0  0  0  0  0  0
   -1.3272    2.2588   -4.5376 H   0  0  0  0  0  0  0  0  0  0  0  0
   -2.4793    1.2448   -3.6691 H   0  0  0  0  0  0  0  0  0  0  0  0
   -1.8236   -1.4977   -0.6901 H   0  0  0  0  0  0  0  0  0  0  0  0
   -3.9800   -1.8984    0.3602 H   0  0  0  0  0  0  0  0  0  0  0  0
   -6.3512    0.9132    1.1443 H   0  0  0  0  0  0  0  0  0  0  0  0
   -8.0990   -1.7108    2.6353 H   0  0  0  0  0  0  0  0  0  0  0  0
   -8.5428   -0.7317    1.2110 H   0  0  0  0  0  0  0  0  0  0  0  0
   -7.7949    0.0335    2.6445 H   0  0  0  0  0  0  0  0  0  0  0  0
   -4.7912    2.3459    0.2682 H   0  0  0  0  0  0  0  0  0  0  0  0
   -2.6064    2.7285   -0.7626 H   0  0  0  0  0  0  0  0  0  0  0  0
  1  2  2  0
  2  3  1  0
  3  4  2  3
  4  5  1  0
  5  6  1  0
  6  7  1  0
  7  8  1  0
  8  9  1  0
  9 10  1  0
  9 11  2  0
  7 12  2  0
 12 13  1  0
 13 14  1  0
  3 15  1  0
 15 16  2  0
 16 17  1  0
 16 18  1  0
 18 19  1  0
 19 20  2  0
 20 21  1  0
 21 22  2  0
 22 23  1  0
 23 24  1  0
 24 25  1  0
 24 26  2  0
 22 27  1  0
 27 28  2  0
 18  2  1  0
 28 19  1  0
 13  5  2  0
  1 29  1  0
  1 30  1  0
  4 31  1  0
  8 32  1  0
 10 33  1  0
 10 34  1  0
 10 35  1  0
 14 36  1  0
 15 37  1  0
 17 38  1  0
 17 39  1  0
 17 40  1  0
 20 41  1  0
 21 42  1  0
 23 43  1  0
 25 44  1  0
 25 45  1  0
 25 46  1  0
 27 47  1  0
 28 48  1  0
M  END
$$$$
