
     RDKit          3D

 40 41  0  0  0  0  0  0  0  0999 V2000
    5.8691   -0.0868    0.1862 C   0  0  0  0  0  0  0  0  0  0  0  0
    4.8080    0.7923   -0.4467 C   0  0  0  0  0  0  0  0  0  0  0  0
    3.5280    0.2216   -0.1577 O   0  0  0  0  0  0  0  0  0  0  0  0
    2.4690    0.9136   -0.6696 C   0  0  0  0  0  0  0  0  0  0  0  0
    2.5932    1.9388   -1.3324 O   0  0  0  0  0  0  0  0  0  0  0  0
    1.1745    0.3027   -0.3512 C   0  0  0  0  0  0  0  0  0  0  0  0
   -0.0638    0.8952   -0.6004 C   0  0  0  0  0  0  0  0  0  0  0  0
   -0.3723    2.2437   -1.1668 C   0  0  0  0  0  0  0  0  0  0  0  0
   -1.0470    0.0011   -0.2273 N   0  0  0  0  0  0  0  0  0  0  0  0
   -2.4791    0.1754   -0.4571 C   0  0  0  0  0  0  0  0  0  0  0  0
   -3.0170    0.9216    0.6238 O   0  0  0  0  0  0  0  0  0  0  0  0
   -4.4446    0.9242    0.6712 C   0  0  0  0  0  0  0  0  0  0  0  0
   -5.1231    1.5356   -0.5591 C   0  0  0  0  0  0  0  0  0  0  0  0
   -4.6918    2.8766   -0.7521 O   0  0  0  0  0  0  0  0  0  0  0  0
   -0.4808   -1.1204    0.3490 C   0  0  0  0  0  0  0  0  0  0  0  0
   -1.0767   -2.2560    0.9299 C   0  0  0  0  0  0  0  0  0  0  0  0
   -0.2492   -3.2690    1.4204 C   0  0  0  0  0  0  0  0  0  0  0  0
    1.1279   -3.1460    1.3288 C   0  0  0  0  0  0  0  0  0  0  0  0
    1.9582   -4.1241    1.7965 O   0  0  0  0  0  0  0  0  0  0  0  0
    1.7188   -2.0186    0.7603 C   0  0  0  0  0  0  0  0  0  0  0  0
    0.9077   -0.9706    0.2646 C   0  0  0  0  0  0  0  0  0  0  0  0
    6.8701    0.3086   -0.0074 H   0  0  0  0  0  0  0  0  0  0  0  0
    5.8092   -1.1070   -0.2073 H   0  0  0  0  0  0  0  0  0  0  0  0
    5.7183   -0.1542    1.2687 H   0  0  0  0  0  0  0  0  0  0  0  0
    4.8669    1.8027   -0.0271 H   0  0  0  0  0  0  0  0  0  0  0  0
    4.9602    0.8319   -1.5311 H   0  0  0  0  0  0  0  0  0  0  0  0
   -1.3657    2.5990   -0.8783 H   0  0  0  0  0  0  0  0  0  0  0  0
   -0.3199    2.2134   -2.2596 H   0  0  0  0  0  0  0  0  0  0  0  0
    0.3391    2.9919   -0.8039 H   0  0  0  0  0  0  0  0  0  0  0  0
   -2.6062    0.7010   -1.4086 H   0  0  0  0  0  0  0  0  0  0  0  0
   -2.9442   -0.8126   -0.5339 H   0  0  0  0  0  0  0  0  0  0  0  0
   -4.7995   -0.0999    0.8329 H   0  0  0  0  0  0  0  0  0  0  0  0
   -4.7163    1.5114    1.5549 H   0  0  0  0  0  0  0  0  0  0  0  0
   -4.8892    0.9702   -1.4655 H   0  0  0  0  0  0  0  0  0  0  0  0
   -6.2088    1.5373   -0.4202 H   0  0  0  0  0  0  0  0  0  0  0  0
   -5.1822    3.2378   -1.5098 H   0  0  0  0  0  0  0  0  0  0  0  0
   -2.1547   -2.3507    1.0118 H   0  0  0  0  0  0  0  0  0  0  0  0
   -0.7043   -4.1454    1.8712 H   0  0  0  0  0  0  0  0  0  0  0  0
    1.4166   -4.8275    2.1892 H   0  0  0  0  0  0  0  0  0  0  0  0
    2.8017   -1.9585    0.7138 H   0  0  0  0  0  0  0  0  0  0  0  0
  1  2  1  0
  2  3  1  0
  3  4  1  0
  4  5  2  0
  4  6  1  0
  6  7  2  0
  7  8  1  0
  7  9  1  0
  9 10  1  0
 10 11  1  0
 11 12  1  0
 12 13  1  0
 13 14  1  0
  9 15  1  0
 15 16  2  0
 16 17  1  0
 17 18  2  0
 18 19  1  0
 18 20  1  0
 20 21  2  0
 21  6  1  0
 21 15  1  0
  1 22  1  0
  1 23  1  0
  1 24  1  0
  2 25  1  0
  2 26  1  0
  8 27  1  0
  8 28  1  0
  8 29  1  0
 10 30  1  0
 10 31  1  0
 12 32  1  0
 12 33  1  0
 13 34  1  0
 13 35  1  0
 14 36  1  0
 16 37  1  0
 17 38  1  0
 19 39  1  0
 20 40  1  0
M  END
$$$$
