
     RDKit          3D

 38 39  0  0  0  0  0  0  0  0999 V2000
   -4.8115   -1.6139    0.9108 C   0  0  0  0  0  0  0  0  0  0  0  0
   -4.6783   -0.5526   -0.0269 O   0  0  0  0  0  0  0  0  0  0  0  0
   -3.4336   -0.0082   -0.2028 C   0  0  0  0  0  0  0  0  0  0  0  0
   -2.2793   -0.4483    0.4621 C   0  0  0  0  0  0  0  0  0  0  0  0
   -1.0225    0.1292    0.2077 C   0  0  0  0  0  0  0  0  0  0  0  0
    0.1367   -0.3520    0.9758 C   0  0  0  0  0  0  0  0  0  0  0  0
    1.4165   -0.2748    0.5808 C   0  0  0  0  0  0  0  0  0  0  0  0
    2.4871   -0.7829    1.4843 C   0  0  0  0  0  0  0  0  0  0  0  0
    2.2471   -1.1783    2.6201 O   0  0  0  0  0  0  0  0  0  0  0  0
    3.8874   -0.7532    0.9861 C   0  0  0  0  0  0  0  0  0  0  0  0
    4.9093   -0.5189    1.9152 C   0  0  0  0  0  0  0  0  0  0  0  0
    6.2400   -0.4725    1.4976 C   0  0  0  0  0  0  0  0  0  0  0  0
    6.5478   -0.6727    0.1566 C   0  0  0  0  0  0  0  0  0  0  0  0
    7.8603   -0.6151   -0.2085 O   0  0  0  0  0  0  0  0  0  0  0  0
    5.5470   -0.9300   -0.7762 C   0  0  0  0  0  0  0  0  0  0  0  0
    4.2114   -0.9728   -0.3591 C   0  0  0  0  0  0  0  0  0  0  0  0
   -0.9352    1.1688   -0.7244 C   0  0  0  0  0  0  0  0  0  0  0  0
   -2.0752    1.6114   -1.3968 C   0  0  0  0  0  0  0  0  0  0  0  0
   -3.3223    1.0455   -1.1253 C   0  0  0  0  0  0  0  0  0  0  0  0
   -4.3561    1.5720   -1.8579 O   0  0  0  0  0  0  0  0  0  0  0  0
   -5.5404    1.8530   -1.1000 C   0  0  0  0  0  0  0  0  0  0  0  0
   -6.2405    3.0105   -1.6796 C   0  0  0  0  0  0  0  0  0  0  0  0
   -6.8097    3.9224   -2.1204 N   0  0  0  0  0  0  0  0  0  0  0  0
   -4.2345   -2.4906    0.6003 H   0  0  0  0  0  0  0  0  0  0  0  0
   -4.5311   -1.2893    1.9177 H   0  0  0  0  0  0  0  0  0  0  0  0
   -5.8666   -1.9004    0.9389 H   0  0  0  0  0  0  0  0  0  0  0  0
   -2.3299   -1.2596    1.1828 H   0  0  0  0  0  0  0  0  0  0  0  0
   -0.0958   -0.8084    1.9383 H   0  0  0  0  0  0  0  0  0  0  0  0
    1.7056    0.1637   -0.3653 H   0  0  0  0  0  0  0  0  0  0  0  0
    4.6708   -0.3653    2.9666 H   0  0  0  0  0  0  0  0  0  0  0  0
    7.0324   -0.2826    2.2157 H   0  0  0  0  0  0  0  0  0  0  0  0
    7.9314   -0.7683   -1.1643 H   0  0  0  0  0  0  0  0  0  0  0  0
    5.7857   -1.1027   -1.8208 H   0  0  0  0  0  0  0  0  0  0  0  0
    3.4446   -1.2046   -1.0927 H   0  0  0  0  0  0  0  0  0  0  0  0
    0.0107    1.6600   -0.9364 H   0  0  0  0  0  0  0  0  0  0  0  0
   -1.9942    2.4162   -2.1237 H   0  0  0  0  0  0  0  0  0  0  0  0
   -6.2095    0.9847   -1.1464 H   0  0  0  0  0  0  0  0  0  0  0  0
   -5.3056    2.0808   -0.0526 H   0  0  0  0  0  0  0  0  0  0  0  0
  1  2  1  0
  2  3  1  0
  3  4  2  0
  4  5  1  0
  5  6  1  0
  6  7  2  3
  7  8  1  0
  8  9  2  0
  8 10  1  0
 10 11  2  0
 11 12  1  0
 12 13  2  0
 13 14  1  0
 13 15  1  0
 15 16  2  0
  5 17  2  0
 17 18  1  0
 18 19  2  0
 19 20  1  0
 20 21  1  0
 21 22  1  0
 22 23  3  0
 19  3  1  0
 16 10  1  0
  1 24  1  0
  1 25  1  0
  1 26  1  0
  4 27  1  0
  6 28  1  0
  7 29  1  0
 11 30  1  0
 12 31  1  0
 14 32  1  0
 15 33  1  0
 16 34  1  0
 17 35  1  0
 18 36  1  0
 21 37  1  0
 21 38  1  0
M  END
$$$$
