
     RDKit          3D

 46 49  0  0  0  0  0  0  0  0999 V2000
   -6.1593    1.4057    1.4782 C   0  0  0  0  0  0  0  0  0  0  0  0
   -4.7674    1.1970    1.6734 O   0  0  0  0  0  0  0  0  0  0  0  0
   -4.0521    0.7275    0.6054 C   0  0  0  0  0  0  0  0  0  0  0  0
   -4.5668    0.4424   -0.6588 C   0  0  0  0  0  0  0  0  0  0  0  0
   -3.7230   -0.0304   -1.6663 C   0  0  0  0  0  0  0  0  0  0  0  0
   -2.3672   -0.2284   -1.3986 C   0  0  0  0  0  0  0  0  0  0  0  0
   -1.5063   -0.6756   -2.3763 O   0  0  0  0  0  0  0  0  0  0  0  0
   -1.8785   -1.9707   -2.8479 C   0  0  0  0  0  0  0  0  0  0  0  0
   -1.8198    0.0696   -0.1361 C   0  0  0  0  0  0  0  0  0  0  0  0
   -0.4336   -0.0836    0.0504 N   0  0  0  0  0  0  0  0  0  0  0  0
    0.3459   -0.3198    1.2136 C   0  0  0  0  0  0  0  0  0  0  0  0
   -0.2600   -0.4312    2.4246 N   0  0  0  0  0  0  0  0  0  0  0  0
    0.6343   -0.6628    3.4213 C   0  0  0  0  0  0  0  0  0  0  0  0
    0.3546   -0.8280    4.7142 N   0  0  0  0  0  0  0  0  0  0  0  0
    1.5932   -1.0321    5.3202 O   0  0  0  0  0  0  0  0  0  0  0  0
    2.6417   -0.9988    4.4012 N   0  0  0  0  0  0  0  0  0  0  0  0
    2.0528   -0.7714    3.2272 C   0  0  0  0  0  0  0  0  0  0  0  0
    2.6749   -0.6553    2.0230 N   0  0  0  0  0  0  0  0  0  0  0  0
    1.7881   -0.4198    1.0178 C   0  0  0  0  0  0  0  0  0  0  0  0
    2.2920   -0.2783   -0.3158 N   0  0  0  0  0  0  0  0  0  0  0  0
    2.3970    1.1634   -0.6447 C   0  0  0  0  0  0  0  0  0  0  0  0
    3.3175    1.3665   -1.8452 C   0  0  0  0  0  0  0  0  0  0  0  0
    4.7406    0.9009   -1.5369 C   0  0  0  0  0  0  0  0  0  0  0  0
    4.7768   -0.2355   -0.5139 C   0  0  0  0  0  0  0  0  0  0  0  0
    3.5074   -1.0797   -0.5705 C   0  0  0  0  0  0  0  0  0  0  0  0
   -2.6842    0.5472    0.8537 C   0  0  0  0  0  0  0  0  0  0  0  0
   -6.6690    0.4686    1.2287 H   0  0  0  0  0  0  0  0  0  0  0  0
   -6.5771    1.7681    2.4220 H   0  0  0  0  0  0  0  0  0  0  0  0
   -6.3400    2.1733    0.7191 H   0  0  0  0  0  0  0  0  0  0  0  0
   -5.6160    0.5834   -0.8953 H   0  0  0  0  0  0  0  0  0  0  0  0
   -4.1270   -0.2255   -2.6549 H   0  0  0  0  0  0  0  0  0  0  0  0
   -1.0308   -2.3756   -3.4094 H   0  0  0  0  0  0  0  0  0  0  0  0
   -2.0929   -2.6561   -2.0201 H   0  0  0  0  0  0  0  0  0  0  0  0
   -2.7330   -1.9100   -3.5305 H   0  0  0  0  0  0  0  0  0  0  0  0
    0.0302   -0.4770   -0.7704 H   0  0  0  0  0  0  0  0  0  0  0  0
    1.4087    1.5651   -0.8933 H   0  0  0  0  0  0  0  0  0  0  0  0
    2.7859    1.7408    0.2062 H   0  0  0  0  0  0  0  0  0  0  0  0
    3.3303    2.4214   -2.1430 H   0  0  0  0  0  0  0  0  0  0  0  0
    2.9288    0.8016   -2.7021 H   0  0  0  0  0  0  0  0  0  0  0  0
    5.3356    1.7394   -1.1564 H   0  0  0  0  0  0  0  0  0  0  0  0
    5.2200    0.5838   -2.4713 H   0  0  0  0  0  0  0  0  0  0  0  0
    5.6570   -0.8624   -0.6965 H   0  0  0  0  0  0  0  0  0  0  0  0
    4.8958    0.1879    0.4914 H   0  0  0  0  0  0  0  0  0  0  0  0
    3.5873   -1.9438    0.1015 H   0  0  0  0  0  0  0  0  0  0  0  0
    3.4117   -1.5065   -1.5770 H   0  0  0  0  0  0  0  0  0  0  0  0
   -2.3040    0.8049    1.8382 H   0  0  0  0  0  0  0  0  0  0  0  0
  1  2  1  0
  2  3  1  0
  3  4  2  0
  4  5  1  0
  5  6  2  0
  6  7  1  0
  7  8  1  0
  6  9  1  0
  9 10  1  0
 10 11  1  0
 11 12  2  0
 12 13  1  0
 13 14  2  0
 14 15  1  0
 15 16  1  0
 16 17  2  0
 17 18  1  0
 18 19  2  0
 19 20  1  0
 20 21  1  0
 21 22  1  0
 22 23  1  0
 23 24  1  0
 24 25  1  0
  9 26  2  0
 26  3  1  0
 19 11  1  0
 25 20  1  0
 17 13  1  0
  1 27  1  0
  1 28  1  0
  1 29  1  0
  4 30  1  0
  5 31  1  0
  8 32  1  0
  8 33  1  0
  8 34  1  0
 10 35  1  0
 21 36  1  0
 21 37  1  0
 22 38  1  0
 22 39  1  0
 23 40  1  0
 23 41  1  0
 24 42  1  0
 24 43  1  0
 25 44  1  0
 25 45  1  0
 26 46  1  0
M  END
$$$$
