
     RDKit          3D

 60 64  0  0  0  0  0  0  0  0999 V2000
   -2.5856    4.3081    1.0872 C   0  0  0  0  0  0  0  0  0  0  0  0
   -3.2882    3.3852    0.1075 C   0  0  0  0  0  0  0  0  0  0  0  0
   -2.6836    2.0631    0.0731 N   0  0  0  0  0  0  0  0  0  0  0  0
   -1.6307    1.6657   -0.7444 C   0  0  0  0  0  0  0  0  0  0  0  0
   -1.0081    2.4607   -1.6070 O   0  0  0  0  0  0  0  0  0  0  0  0
   -1.4090    0.3420   -0.4663 C   0  0  0  0  0  0  0  0  0  0  0  0
   -2.3472   -0.0751    0.5007 C   0  0  0  0  0  0  0  0  0  0  0  0
   -3.1363    0.9915    0.8313 C   0  0  0  0  0  0  0  0  0  0  0  0
   -4.1662    1.1151    1.6582 O   0  0  0  0  0  0  0  0  0  0  0  0
   -2.1936   -1.5296    0.7693 C   0  0  0  0  0  0  0  0  0  0  0  0
   -3.2722   -2.2791   -0.0722 C   0  0  0  0  0  0  0  0  0  0  0  0
   -3.0948   -2.8359   -1.1503 O   0  0  0  0  0  0  0  0  0  0  0  0
   -4.4933   -2.2013    0.5510 O   0  0  0  0  0  0  0  0  0  0  0  0
   -5.5555   -2.8154   -0.1796 C   0  0  0  0  0  0  0  0  0  0  0  0
   -2.1798   -1.9777    2.2293 C   0  0  0  0  0  0  0  0  0  0  0  0
   -1.6973   -3.4339    2.3352 C   0  0  0  0  0  0  0  0  0  0  0  0
   -0.3551   -3.6508    1.6240 C   0  0  0  0  0  0  0  0  0  0  0  0
   -0.3191   -3.0777    0.1998 C   0  0  0  0  0  0  0  0  0  0  0  0
   -0.7977   -1.7182    0.2555 N   0  0  0  0  0  0  0  0  0  0  0  0
   -0.5243   -0.7919   -0.8644 C   0  0  0  0  0  0  0  0  0  0  0  0
    0.8958   -0.2701   -0.8969 C   0  0  0  0  0  0  0  0  0  0  0  0
    1.5219   -0.0478   -2.1322 C   0  0  0  0  0  0  0  0  0  0  0  0
    2.8350    0.4323   -2.1971 C   0  0  0  0  0  0  0  0  0  0  0  0
    3.5654    0.7088   -1.0313 C   0  0  0  0  0  0  0  0  0  0  0  0
    4.9460    1.2152   -1.1016 C   0  0  0  0  0  0  0  0  0  0  0  0
    5.2620    2.3515   -1.8672 C   0  0  0  0  0  0  0  0  0  0  0  0
    6.5712    2.8363   -1.9363 C   0  0  0  0  0  0  0  0  0  0  0  0
    7.5894    2.1904   -1.2391 C   0  0  0  0  0  0  0  0  0  0  0  0
    7.2927    1.0638   -0.4765 C   0  0  0  0  0  0  0  0  0  0  0  0
    8.5497    0.2628    0.3849 Cl  0  0  0  0  0  0  0  0  0  0  0  0
    5.9864    0.5777   -0.4052 C   0  0  0  0  0  0  0  0  0  0  0  0
    2.9361    0.4916    0.2035 C   0  0  0  0  0  0  0  0  0  0  0  0
    1.6231    0.0130    0.2706 C   0  0  0  0  0  0  0  0  0  0  0  0
   -1.5313    4.4396    0.8223 H   0  0  0  0  0  0  0  0  0  0  0  0
   -3.0622    5.2932    1.0894 H   0  0  0  0  0  0  0  0  0  0  0  0
   -2.6259    3.9067    2.1053 H   0  0  0  0  0  0  0  0  0  0  0  0
   -4.3449    3.2754    0.3741 H   0  0  0  0  0  0  0  0  0  0  0  0
   -3.2602    3.7973   -0.9067 H   0  0  0  0  0  0  0  0  0  0  0  0
   -1.2351    3.3862   -1.4300 H   0  0  0  0  0  0  0  0  0  0  0  0
   -4.3444    0.2359    2.0371 H   0  0  0  0  0  0  0  0  0  0  0  0
   -5.3664   -3.8863   -0.3032 H   0  0  0  0  0  0  0  0  0  0  0  0
   -5.6855   -2.3277   -1.1507 H   0  0  0  0  0  0  0  0  0  0  0  0
   -6.4772   -2.6912    0.3955 H   0  0  0  0  0  0  0  0  0  0  0  0
   -3.1714   -1.8895    2.6885 H   0  0  0  0  0  0  0  0  0  0  0  0
   -1.5133   -1.3356    2.8216 H   0  0  0  0  0  0  0  0  0  0  0  0
   -1.6032   -3.7140    3.3906 H   0  0  0  0  0  0  0  0  0  0  0  0
   -2.4483   -4.1029    1.8977 H   0  0  0  0  0  0  0  0  0  0  0  0
   -0.1218   -4.7213    1.5965 H   0  0  0  0  0  0  0  0  0  0  0  0
    0.4344   -3.1724    2.2190 H   0  0  0  0  0  0  0  0  0  0  0  0
    0.7179   -3.1129   -0.1536 H   0  0  0  0  0  0  0  0  0  0  0  0
   -0.9029   -3.7042   -0.4808 H   0  0  0  0  0  0  0  0  0  0  0  0
   -0.8411   -1.2191   -1.8229 H   0  0  0  0  0  0  0  0  0  0  0  0
    0.9844   -0.2405   -3.0583 H   0  0  0  0  0  0  0  0  0  0  0  0
    3.2870    0.5831   -3.1751 H   0  0  0  0  0  0  0  0  0  0  0  0
    4.4773    2.8770   -2.4094 H   0  0  0  0  0  0  0  0  0  0  0  0
    6.7924    3.7185   -2.5317 H   0  0  0  0  0  0  0  0  0  0  0  0
    8.6067    2.5681   -1.2932 H   0  0  0  0  0  0  0  0  0  0  0  0
    5.7775   -0.3104    0.1871 H   0  0  0  0  0  0  0  0  0  0  0  0
    3.4590    0.7093    1.1322 H   0  0  0  0  0  0  0  0  0  0  0  0
    1.1615   -0.1328    1.2451 H   0  0  0  0  0  0  0  0  0  0  0  0
  1  2  1  0
  2  3  1  0
  3  4  1  0
  4  5  1  0
  4  6  2  0
  6  7  1  0
  7  8  2  0
  8  9  1  0
  7 10  1  0
 10 11  1  0
 11 12  2  0
 11 13  1  0
 13 14  1  0
 10 15  1  0
 15 16  1  0
 16 17  1  0
 17 18  1  0
 18 19  1  0
 19 20  1  0
 20 21  1  0
 21 22  2  0
 22 23  1  0
 23 24  2  0
 24 25  1  0
 25 26  2  0
 26 27  1  0
 27 28  2  0
 28 29  1  0
 29 30  1  0
 29 31  2  0
 24 32  1  0
 32 33  2  0
  8  3  1  0
 19 10  1  0
 33 21  1  0
 20  6  1  0
 31 25  1  0
  1 34  1  0
  1 35  1  0
  1 36  1  0
  2 37  1  0
  2 38  1  0
  5 39  1  0
  9 40  1  0
 14 41  1  0
 14 42  1  0
 14 43  1  0
 15 44  1  0
 15 45  1  0
 16 46  1  0
 16 47  1  0
 17 48  1  0
 17 49  1  0
 18 50  1  0
 18 51  1  0
 20 52  1  0
 22 53  1  0
 23 54  1  0
 26 55  1  0
 27 56  1  0
 28 57  1  0
 31 58  1  0
 32 59  1  0
 33 60  1  0
M  END
$$$$
