
     RDKit          3D

 37 40  0  0  0  0  0  0  0  0999 V2000
    0.5503   -0.6220   -0.7900 O   0  0  0  0  0  0  0  0  0  0  0  0
    1.6360   -0.2974   -0.3589 C   0  0  0  0  0  0  0  0  0  0  0  0
    2.7572   -1.0702   -0.3855 O   0  0  0  0  0  0  0  0  0  0  0  0
    3.7539   -0.3108    0.1234 C   0  0  0  0  0  0  0  0  0  0  0  0
    5.0381   -0.9355    0.1694 C   0  0  0  0  0  0  0  0  0  0  0  0
    6.2624   -0.4728    0.6161 C   0  0  0  0  0  0  0  0  0  0  0  0
    7.1922   -1.5226    0.4223 C   0  0  0  0  0  0  0  0  0  0  0  0
    6.4832   -2.5623   -0.1300 C   0  0  0  0  0  0  0  0  0  0  0  0
    5.1797   -2.2182   -0.2875 O   0  0  0  0  0  0  0  0  0  0  0  0
    3.4695    0.8891    0.5122 N   0  0  0  0  0  0  0  0  0  0  0  0
    2.1174    0.9801    0.2631 C   0  0  0  0  0  0  0  0  0  0  0  0
    1.4341    2.0943    0.5572 C   0  0  0  0  0  0  0  0  0  0  0  0
    0.0386    2.2882    0.3960 C   0  0  0  0  0  0  0  0  0  0  0  0
   -0.6500    3.4894    0.2752 C   0  0  0  0  0  0  0  0  0  0  0  0
   -2.0304    3.1933    0.1660 C   0  0  0  0  0  0  0  0  0  0  0  0
   -2.1392    1.8223    0.2350 C   0  0  0  0  0  0  0  0  0  0  0  0
   -3.2496    0.8747    0.1862 C   0  0  0  0  0  0  0  0  0  0  0  0
   -4.5762    1.3247    0.2427 C   0  0  0  0  0  0  0  0  0  0  0  0
   -5.6429    0.4238    0.1902 C   0  0  0  0  0  0  0  0  0  0  0  0
   -5.3983   -0.9440    0.0811 C   0  0  0  0  0  0  0  0  0  0  0  0
   -4.0835   -1.4259    0.0287 C   0  0  0  0  0  0  0  0  0  0  0  0
   -3.8025   -2.9011   -0.1107 C   0  0  0  0  0  0  0  0  0  0  0  0
   -2.7420   -3.3184    0.6350 F   0  0  0  0  0  0  0  0  0  0  0  0
   -4.8515   -3.6830    0.2764 F   0  0  0  0  0  0  0  0  0  0  0  0
   -3.5287   -3.2619   -1.3945 F   0  0  0  0  0  0  0  0  0  0  0  0
   -3.0208   -0.5064    0.0744 C   0  0  0  0  0  0  0  0  0  0  0  0
   -0.8967    1.2857    0.3935 O   0  0  0  0  0  0  0  0  0  0  0  0
    6.4519    0.5080    1.0315 H   0  0  0  0  0  0  0  0  0  0  0  0
    8.2478   -1.5228    0.6559 H   0  0  0  0  0  0  0  0  0  0  0  0
    6.7449   -3.5611   -0.4520 H   0  0  0  0  0  0  0  0  0  0  0  0
    1.9941    2.9322    0.9646 H   0  0  0  0  0  0  0  0  0  0  0  0
   -0.1987    4.4723    0.2602 H   0  0  0  0  0  0  0  0  0  0  0  0
   -2.8407    3.8977    0.0464 H   0  0  0  0  0  0  0  0  0  0  0  0
   -4.7979    2.3854    0.3310 H   0  0  0  0  0  0  0  0  0  0  0  0
   -6.6654    0.7913    0.2337 H   0  0  0  0  0  0  0  0  0  0  0  0
   -6.2388   -1.6351    0.0374 H   0  0  0  0  0  0  0  0  0  0  0  0
   -1.9973   -0.8807    0.0142 H   0  0  0  0  0  0  0  0  0  0  0  0
  1  2  2  0
  2  3  1  0
  3  4  1  0
  4  5  1  0
  5  6  2  0
  6  7  1  0
  7  8  2  0
  8  9  1  0
  4 10  2  0
 10 11  1  0
 11 12  2  3
 12 13  1  0
 13 14  2  0
 14 15  1  0
 15 16  2  0
 16 17  1  0
 17 18  2  0
 18 19  1  0
 19 20  2  0
 20 21  1  0
 21 22  1  0
 22 23  1  0
 22 24  1  0
 22 25  1  0
 21 26  2  0
 16 27  1  0
 11  2  1  0
 27 13  1  0
  9  5  1  0
 26 17  1  0
  6 28  1  0
  7 29  1  0
  8 30  1  0
 12 31  1  0
 14 32  1  0
 15 33  1  0
 18 34  1  0
 19 35  1  0
 20 36  1  0
 26 37  1  0
M  END
$$$$
