
     RDKit          3D

 35 37  0  0  0  0  0  0  0  0999 V2000
   -2.0399   -2.5275   -0.3118 C   0  0  0  0  0  0  0  0  0  0  0  0
   -1.2193   -1.2869   -0.1960 C   0  0  0  0  0  0  0  0  0  0  0  0
    0.0817   -1.3128   -0.0516 N   0  0  0  0  0  0  0  0  0  0  0  0
    0.4808    0.0206   -0.0344 N   0  0  0  0  0  0  0  0  0  0  0  0
    1.8055    0.3602    0.0902 C   0  0  0  0  0  0  0  0  0  0  0  0
    2.3639    1.5505    0.1237 N   0  0  0  0  0  0  0  0  0  0  0  0
    3.7119    1.3258    0.2616 C   0  0  0  0  0  0  0  0  0  0  0  0
    4.7699    2.2416    0.3493 C   0  0  0  0  0  0  0  0  0  0  0  0
    6.0742    1.7493    0.4879 C   0  0  0  0  0  0  0  0  0  0  0  0
    6.3192    0.3742    0.5381 C   0  0  0  0  0  0  0  0  0  0  0  0
    5.2758   -0.5554    0.4521 C   0  0  0  0  0  0  0  0  0  0  0  0
    3.9875   -0.0358    0.3146 C   0  0  0  0  0  0  0  0  0  0  0  0
    2.7570   -0.6232    0.2034 N   0  0  0  0  0  0  0  0  0  0  0  0
   -0.5475    0.9580   -0.1686 C   0  0  0  0  0  0  0  0  0  0  0  0
   -0.5636    2.1741   -0.2093 O   0  0  0  0  0  0  0  0  0  0  0  0
   -1.7461    0.0848   -0.2448 C   0  0  0  0  0  0  0  0  0  0  0  0
   -2.9854    0.5751   -0.3511 C   0  0  0  0  0  0  0  0  0  0  0  0
   -4.2235   -0.0656   -0.3684 N   0  0  0  0  0  0  0  0  0  0  0  0
   -5.3323    0.5895   -1.0832 C   0  0  0  0  0  0  0  0  0  0  0  0
   -4.6880   -0.7466    0.8518 C   0  0  0  0  0  0  0  0  0  0  0  0
   -2.3615   -2.8467    0.6824 H   0  0  0  0  0  0  0  0  0  0  0  0
   -2.9085   -2.3705   -0.9538 H   0  0  0  0  0  0  0  0  0  0  0  0
   -1.4333   -3.3249   -0.7520 H   0  0  0  0  0  0  0  0  0  0  0  0
    4.5707    3.3066    0.3093 H   0  0  0  0  0  0  0  0  0  0  0  0
    6.9039    2.4489    0.5569 H   0  0  0  0  0  0  0  0  0  0  0  0
    7.3421    0.0187    0.6460 H   0  0  0  0  0  0  0  0  0  0  0  0
    5.4662   -1.6222    0.4908 H   0  0  0  0  0  0  0  0  0  0  0  0
    2.5418   -1.6084    0.1994 H   0  0  0  0  0  0  0  0  0  0  0  0
   -3.0946    1.6566   -0.4622 H   0  0  0  0  0  0  0  0  0  0  0  0
   -5.6951    1.4589   -0.5241 H   0  0  0  0  0  0  0  0  0  0  0  0
   -5.0056    0.9201   -2.0753 H   0  0  0  0  0  0  0  0  0  0  0  0
   -6.1632   -0.1095   -1.2260 H   0  0  0  0  0  0  0  0  0  0  0  0
   -5.3987   -1.5384    0.5932 H   0  0  0  0  0  0  0  0  0  0  0  0
   -3.8628   -1.2046    1.4045 H   0  0  0  0  0  0  0  0  0  0  0  0
   -5.1831   -0.0349    1.5220 H   0  0  0  0  0  0  0  0  0  0  0  0
  1  2  1  0
  2  3  2  0
  3  4  1  0
  4  5  1  0
  5  6  2  0
  6  7  1  0
  7  8  2  0
  8  9  1  0
  9 10  2  0
 10 11  1  0
 11 12  2  0
 12 13  1  0
  4 14  1  0
 14 15  2  0
 14 16  1  0
 16 17  2  3
 17 18  1  0
 18 19  1  0
 18 20  1  0
 16  2  1  0
 13  5  1  0
 12  7  1  0
  1 21  1  0
  1 22  1  0
  1 23  1  0
  8 24  1  0
  9 25  1  0
 10 26  1  0
 11 27  1  0
 13 28  1  0
 17 29  1  0
 19 30  1  0
 19 31  1  0
 19 32  1  0
 20 33  1  0
 20 34  1  0
 20 35  1  0
M  END
$$$$
