
     RDKit          3D

 45 46  0  0  0  0  0  0  0  0999 V2000
    5.9164   -1.1911    1.1956 C   0  0  0  0  0  0  0  0  0  0  0  0
    4.5924   -1.8187    0.8732 C   0  0  0  0  0  0  0  0  0  0  0  0
    4.5081   -3.1846    0.5898 C   0  0  0  0  0  0  0  0  0  0  0  0
    3.2732   -3.7654    0.3033 C   0  0  0  0  0  0  0  0  0  0  0  0
    2.1086   -2.9918    0.3194 C   0  0  0  0  0  0  0  0  0  0  0  0
    2.1639   -1.6379    0.6501 C   0  0  0  0  0  0  0  0  0  0  0  0
    1.0353   -0.7868    0.6676 N   0  0  0  0  0  0  0  0  0  0  0  0
   -0.3105   -1.0717    0.8732 C   0  0  0  0  0  0  0  0  0  0  0  0
   -0.8524   -2.4162    1.7366 S   0  0  0  0  0  0  0  0  0  0  0  0
   -1.1691   -0.0820    0.3312 N   0  0  0  0  0  0  0  0  0  0  0  0
   -0.6965    0.9798   -0.5896 C   0  0  0  0  0  0  0  0  0  0  0  0
   -0.3485    2.3177    0.1089 C   0  0  0  0  0  0  0  0  0  0  0  0
   -1.4925    3.0621    0.6668 N   0  0  0  0  0  0  0  0  0  0  0  0
   -2.3381    3.6337   -0.3854 C   0  0  0  0  0  0  0  0  0  0  0  0
   -1.0231    4.1298    1.5540 C   0  0  0  0  0  0  0  0  0  0  0  0
   -2.6281   -0.0899    0.5738 C   0  0  0  0  0  0  0  0  0  0  0  0
   -3.3739   -0.6103   -0.6275 C   0  0  0  0  0  0  0  0  0  0  0  0
   -3.0530   -1.6506   -1.4827 C   0  0  0  0  0  0  0  0  0  0  0  0
   -4.0290   -1.8415   -2.5025 C   0  0  0  0  0  0  0  0  0  0  0  0
   -5.0727   -0.9507   -2.3897 C   0  0  0  0  0  0  0  0  0  0  0  0
   -4.8690    0.1135   -1.0689 S   0  0  0  0  0  0  0  0  0  0  0  0
    3.4151   -1.0548    0.9063 C   0  0  0  0  0  0  0  0  0  0  0  0
    5.9337   -0.1389    0.8911 H   0  0  0  0  0  0  0  0  0  0  0  0
    6.7257   -1.6957    0.6583 H   0  0  0  0  0  0  0  0  0  0  0  0
    6.1130   -1.2502    2.2708 H   0  0  0  0  0  0  0  0  0  0  0  0
    5.4022   -3.8051    0.5834 H   0  0  0  0  0  0  0  0  0  0  0  0
    3.2134   -4.8235    0.0609 H   0  0  0  0  0  0  0  0  0  0  0  0
    1.1750   -3.4688    0.0384 H   0  0  0  0  0  0  0  0  0  0  0  0
    1.2565    0.1905    0.7788 H   0  0  0  0  0  0  0  0  0  0  0  0
   -1.4400    1.1299   -1.3803 H   0  0  0  0  0  0  0  0  0  0  0  0
    0.1996    0.6233   -1.1127 H   0  0  0  0  0  0  0  0  0  0  0  0
    0.3473    2.0917    0.9234 H   0  0  0  0  0  0  0  0  0  0  0  0
    0.1973    2.9516   -0.5997 H   0  0  0  0  0  0  0  0  0  0  0  0
   -1.7842    4.3283   -1.0290 H   0  0  0  0  0  0  0  0  0  0  0  0
   -2.7755    2.8537   -1.0161 H   0  0  0  0  0  0  0  0  0  0  0  0
   -3.1844    4.1740    0.0553 H   0  0  0  0  0  0  0  0  0  0  0  0
   -1.8707    4.6554    2.0060 H   0  0  0  0  0  0  0  0  0  0  0  0
   -0.4386    3.7159    2.3819 H   0  0  0  0  0  0  0  0  0  0  0  0
   -0.4034    4.8626    1.0264 H   0  0  0  0  0  0  0  0  0  0  0  0
   -2.9390    0.9289    0.8222 H   0  0  0  0  0  0  0  0  0  0  0  0
   -2.8926   -0.6950    1.4440 H   0  0  0  0  0  0  0  0  0  0  0  0
   -2.1533   -2.2476   -1.3838 H   0  0  0  0  0  0  0  0  0  0  0  0
   -3.9714   -2.6012   -3.2728 H   0  0  0  0  0  0  0  0  0  0  0  0
   -5.9497   -0.8749   -3.0176 H   0  0  0  0  0  0  0  0  0  0  0  0
    3.4826    0.0025    1.1521 H   0  0  0  0  0  0  0  0  0  0  0  0
  1  2  1  0
  2  3  2  0
  3  4  1  0
  4  5  2  0
  5  6  1  0
  6  7  1  0
  7  8  1  0
  8  9  2  0
  8 10  1  0
 10 11  1  0
 11 12  1  0
 12 13  1  0
 13 14  1  0
 13 15  1  0
 10 16  1  0
 16 17  1  0
 17 18  2  0
 18 19  1  0
 19 20  2  0
 20 21  1  0
  6 22  2  0
 22  2  1  0
 21 17  1  0
  1 23  1  0
  1 24  1  0
  1 25  1  0
  3 26  1  0
  4 27  1  0
  5 28  1  0
  7 29  1  0
 11 30  1  0
 11 31  1  0
 12 32  1  0
 12 33  1  0
 14 34  1  0
 14 35  1  0
 14 36  1  0
 15 37  1  0
 15 38  1  0
 15 39  1  0
 16 40  1  0
 16 41  1  0
 18 42  1  0
 19 43  1  0
 20 44  1  0
 22 45  1  0
M  END
$$$$
