
     RDKit          3D

 55 57  0  0  0  0  0  0  0  0999 V2000
   -4.0411   -1.5672    2.4948 C   0  0  0  0  0  0  0  0  0  0  0  0
   -2.7931   -1.0488    1.7905 C   0  0  0  0  0  0  0  0  0  0  0  0
   -2.3851   -1.8008    0.4966 C   0  0  0  0  0  0  0  0  0  0  0  0
   -3.5002   -1.7582   -0.5641 C   0  0  0  0  0  0  0  0  0  0  0  0
   -2.0892   -3.2819    0.8084 C   0  0  0  0  0  0  0  0  0  0  0  0
   -1.1364   -1.2200   -0.0373 N   0  0  0  0  0  0  0  0  0  0  0  0
   -1.0076    0.0800   -0.5195 C   0  0  0  0  0  0  0  0  0  0  0  0
   -1.9656    0.8331   -0.6742 O   0  0  0  0  0  0  0  0  0  0  0  0
    0.4619    0.4408   -0.9284 C   0  0  0  0  0  0  0  0  0  0  0  0
    0.6140    1.8186   -1.5679 C   0  0  0  0  0  0  0  0  0  0  0  0
    1.4267    2.8394   -1.0468 C   0  0  0  0  0  0  0  0  0  0  0  0
    1.5246    4.0776   -1.6911 C   0  0  0  0  0  0  0  0  0  0  0  0
    0.8244    4.3139   -2.8724 C   0  0  0  0  0  0  0  0  0  0  0  0
    0.0346    3.3063   -3.4176 C   0  0  0  0  0  0  0  0  0  0  0  0
   -0.0578    2.0756   -2.7716 C   0  0  0  0  0  0  0  0  0  0  0  0
   -0.7932    1.1108   -3.3445 F   0  0  0  0  0  0  0  0  0  0  0  0
    1.4558    0.1205    0.1491 N   0  0  0  0  0  0  0  0  0  0  0  0
    2.7284   -0.4564   -0.1402 C   0  0  0  0  0  0  0  0  0  0  0  0
    3.5328   -0.7560    0.7457 O   0  0  0  0  0  0  0  0  0  0  0  0
    3.1660   -0.7240   -1.5376 C   0  0  0  0  0  0  0  0  0  0  0  0
    4.2305   -1.6076   -1.8934 C   0  0  0  0  0  0  0  0  0  0  0  0
    4.3430   -1.5357   -3.2591 C   0  0  0  0  0  0  0  0  0  0  0  0
    3.4021   -0.6385   -3.6562 N   0  0  0  0  0  0  0  0  0  0  0  0
    2.6823   -0.1335   -2.6441 N   0  0  0  0  0  0  0  0  0  0  0  0
    1.0827    0.4193    1.5295 C   0  0  0  0  0  0  0  0  0  0  0  0
    1.5641   -0.3416    2.6076 C   0  0  0  0  0  0  0  0  0  0  0  0
    1.1847   -0.0728    3.9294 C   0  0  0  0  0  0  0  0  0  0  0  0
    0.3038    0.9633    4.2081 C   0  0  0  0  0  0  0  0  0  0  0  0
   -0.1993    1.7263    3.1635 C   0  0  0  0  0  0  0  0  0  0  0  0
    0.1831    1.4545    1.8436 C   0  0  0  0  0  0  0  0  0  0  0  0
   -3.9179   -2.6008    2.8294 H   0  0  0  0  0  0  0  0  0  0  0  0
   -4.2435   -0.9583    3.3825 H   0  0  0  0  0  0  0  0  0  0  0  0
   -4.9219   -1.5095    1.8494 H   0  0  0  0  0  0  0  0  0  0  0  0
   -2.9537    0.0134    1.5695 H   0  0  0  0  0  0  0  0  0  0  0  0
   -1.9590   -1.0825    2.5036 H   0  0  0  0  0  0  0  0  0  0  0  0
   -3.8632   -0.7407   -0.7381 H   0  0  0  0  0  0  0  0  0  0  0  0
   -3.1427   -2.1487   -1.5240 H   0  0  0  0  0  0  0  0  0  0  0  0
   -4.3640   -2.3622   -0.2657 H   0  0  0  0  0  0  0  0  0  0  0  0
   -1.3310   -3.3753    1.5948 H   0  0  0  0  0  0  0  0  0  0  0  0
   -2.9839   -3.8216    1.1349 H   0  0  0  0  0  0  0  0  0  0  0  0
   -1.7007   -3.7982   -0.0779 H   0  0  0  0  0  0  0  0  0  0  0  0
   -0.2725   -1.6391    0.2873 H   0  0  0  0  0  0  0  0  0  0  0  0
    0.6224   -0.2927   -1.7254 H   0  0  0  0  0  0  0  0  0  0  0  0
    2.0037    2.6891   -0.1374 H   0  0  0  0  0  0  0  0  0  0  0  0
    2.1545    4.8570   -1.2685 H   0  0  0  0  0  0  0  0  0  0  0  0
    0.9018    5.2767   -3.3701 H   0  0  0  0  0  0  0  0  0  0  0  0
   -0.5083    3.4653   -4.3435 H   0  0  0  0  0  0  0  0  0  0  0  0
    4.8298   -2.2039   -1.2182 H   0  0  0  0  0  0  0  0  0  0  0  0
    5.0034   -2.0211   -3.9634 H   0  0  0  0  0  0  0  0  0  0  0  0
    3.1973   -0.3184   -4.5980 H   0  0  0  0  0  0  0  0  0  0  0  0
    2.2212   -1.1938    2.4599 H   0  0  0  0  0  0  0  0  0  0  0  0
    1.5792   -0.6839    4.7376 H   0  0  0  0  0  0  0  0  0  0  0  0
    0.0084    1.1727    5.2325 H   0  0  0  0  0  0  0  0  0  0  0  0
   -0.8935    2.5383    3.3665 H   0  0  0  0  0  0  0  0  0  0  0  0
   -0.2426    2.1013    1.0813 H   0  0  0  0  0  0  0  0  0  0  0  0
  1  2  1  0
  2  3  1  0
  3  4  1  0
  3  5  1  0
  3  6  1  0
  6  7  1  0
  7  8  2  0
  7  9  1  0
  9 10  1  0
 10 11  2  0
 11 12  1  0
 12 13  2  0
 13 14  1  0
 14 15  2  0
 15 16  1  0
  9 17  1  0
 17 18  1  0
 18 19  2  0
 18 20  1  0
 20 21  1  0
 21 22  2  0
 22 23  1  0
 23 24  1  0
 17 25  1  0
 25 26  2  0
 26 27  1  0
 27 28  2  0
 28 29  1  0
 29 30  2  0
 15 10  1  0
 24 20  2  0
 30 25  1  0
  1 31  1  0
  1 32  1  0
  1 33  1  0
  2 34  1  0
  2 35  1  0
  4 36  1  0
  4 37  1  0
  4 38  1  0
  5 39  1  0
  5 40  1  0
  5 41  1  0
  6 42  1  0
  9 43  1  0
 11 44  1  0
 12 45  1  0
 13 46  1  0
 14 47  1  0
 21 48  1  0
 22 49  1  0
 23 50  1  0
 26 51  1  0
 27 52  1  0
 28 53  1  0
 29 54  1  0
 30 55  1  0
M  END
$$$$
