
     RDKit          3D

 58 61  0  0  0  0  0  0  0  0999 V2000
    7.9891    2.1571   -1.5247 C   0  0  0  0  0  0  0  0  0  0  0  0
    7.1174    1.3066   -0.6481 C   0  0  0  0  0  0  0  0  0  0  0  0
    6.8099   -0.0035   -1.0336 C   0  0  0  0  0  0  0  0  0  0  0  0
    5.9832   -0.7992   -0.2365 C   0  0  0  0  0  0  0  0  0  0  0  0
    5.4525   -0.3015    0.9622 C   0  0  0  0  0  0  0  0  0  0  0  0
    4.5286   -1.1544    1.7939 C   0  0  0  0  0  0  0  0  0  0  0  0
    3.1784   -1.0898    1.2760 N   0  0  0  0  0  0  0  0  0  0  0  0
    2.6877   -2.0571    0.4308 C   0  0  0  0  0  0  0  0  0  0  0  0
    3.2906   -3.0953    0.1725 O   0  0  0  0  0  0  0  0  0  0  0  0
    1.3078   -1.7768   -0.1572 C   0  0  0  0  0  0  0  0  0  0  0  0
    1.2854   -0.5024   -1.0076 C   0  0  0  0  0  0  0  0  0  0  0  0
   -0.1045   -0.2492   -1.5895 C   0  0  0  0  0  0  0  0  0  0  0  0
   -1.1837   -0.1864   -0.4928 C   0  0  0  0  0  0  0  0  0  0  0  0
   -2.5660    0.0491   -1.1339 C   0  0  0  0  0  0  0  0  0  0  0  0
   -3.5619    0.3787   -0.1165 N   0  0  0  0  0  0  0  0  0  0  0  0
   -4.8862    0.7276   -0.3681 C   0  0  0  0  0  0  0  0  0  0  0  0
   -5.2033    1.3018   -1.5710 N   0  0  0  0  0  0  0  0  0  0  0  0
   -6.4540    1.7016   -1.9663 C   0  0  0  0  0  0  0  0  0  0  0  0
   -6.6062    2.4035   -3.4809 S   0  0  0  0  0  0  0  0  0  0  0  0
   -7.5023    1.5101   -1.1148 N   0  0  0  0  0  0  0  0  0  0  0  0
   -7.2455    0.9791    0.0373 C   0  0  0  0  0  0  0  0  0  0  0  0
   -8.3742    0.7680    0.9846 C   0  0  0  0  0  0  0  0  0  0  0  0
   -8.1689    0.2284    2.1934 C   0  0  0  0  0  0  0  0  0  0  0  0
   -6.8597   -0.1719    2.6402 C   0  0  0  0  0  0  0  0  0  0  0  0
   -5.7811   -0.0218    1.8576 C   0  0  0  0  0  0  0  0  0  0  0  0
   -5.8918    0.5437    0.5208 C   0  0  0  0  0  0  0  0  0  0  0  0
   -1.1480   -1.4676    0.3615 C   0  0  0  0  0  0  0  0  0  0  0  0
    0.2422   -1.7256    0.9410 C   0  0  0  0  0  0  0  0  0  0  0  0
    5.7528    1.0140    1.3417 C   0  0  0  0  0  0  0  0  0  0  0  0
    6.5804    1.8100    0.5432 C   0  0  0  0  0  0  0  0  0  0  0  0
    8.2681    3.0970   -1.0353 H   0  0  0  0  0  0  0  0  0  0  0  0
    8.9164    1.6240   -1.7650 H   0  0  0  0  0  0  0  0  0  0  0  0
    7.4637    2.3987   -2.4541 H   0  0  0  0  0  0  0  0  0  0  0  0
    7.2100   -0.4146   -1.9602 H   0  0  0  0  0  0  0  0  0  0  0  0
    5.7470   -1.8151   -0.5557 H   0  0  0  0  0  0  0  0  0  0  0  0
    4.8885   -2.1883    1.8280 H   0  0  0  0  0  0  0  0  0  0  0  0
    4.4973   -0.7864    2.8251 H   0  0  0  0  0  0  0  0  0  0  0  0
    2.7548   -0.1743    1.2591 H   0  0  0  0  0  0  0  0  0  0  0  0
    1.0769   -2.6263   -0.8172 H   0  0  0  0  0  0  0  0  0  0  0  0
    1.5813    0.3725   -0.4133 H   0  0  0  0  0  0  0  0  0  0  0  0
    2.0171   -0.5824   -1.8217 H   0  0  0  0  0  0  0  0  0  0  0  0
   -0.3484   -1.0433   -2.3086 H   0  0  0  0  0  0  0  0  0  0  0  0
   -0.0890    0.6936   -2.1517 H   0  0  0  0  0  0  0  0  0  0  0  0
   -0.9557    0.6664    0.1626 H   0  0  0  0  0  0  0  0  0  0  0  0
   -2.8850   -0.8400   -1.6898 H   0  0  0  0  0  0  0  0  0  0  0  0
   -2.4849    0.8796   -1.8455 H   0  0  0  0  0  0  0  0  0  0  0  0
   -3.4739   -0.1941    0.7140 H   0  0  0  0  0  0  0  0  0  0  0  0
   -4.4623    1.4922   -2.2287 H   0  0  0  0  0  0  0  0  0  0  0  0
   -9.3555    1.0762    0.6492 H   0  0  0  0  0  0  0  0  0  0  0  0
   -9.0011    0.0845    2.8762 H   0  0  0  0  0  0  0  0  0  0  0  0
   -6.7713   -0.5932    3.6389 H   0  0  0  0  0  0  0  0  0  0  0  0
   -4.8141   -0.3224    2.2380 H   0  0  0  0  0  0  0  0  0  0  0  0
   -1.4534   -2.3282   -0.2478 H   0  0  0  0  0  0  0  0  0  0  0  0
   -1.8569   -1.3988    1.1932 H   0  0  0  0  0  0  0  0  0  0  0  0
    0.4780   -0.9391    1.6708 H   0  0  0  0  0  0  0  0  0  0  0  0
    0.2354   -2.6707    1.4979 H   0  0  0  0  0  0  0  0  0  0  0  0
    5.3478    1.4262    2.2615 H   0  0  0  0  0  0  0  0  0  0  0  0
    6.8002    2.8292    0.8525 H   0  0  0  0  0  0  0  0  0  0  0  0
  1  2  1  0
  2  3  2  0
  3  4  1  0
  4  5  2  0
  5  6  1  0
  6  7  1  0
  7  8  1  0
  8  9  2  0
  8 10  1  0
 10 11  1  0
 11 12  1  0
 12 13  1  0
 13 14  1  0
 14 15  1  0
 15 16  1  0
 16 17  1  0
 17 18  1  0
 18 19  2  0
 18 20  1  0
 20 21  2  0
 21 22  1  0
 22 23  2  0
 23 24  1  0
 24 25  2  0
 25 26  1  0
 13 27  1  0
 27 28  1  0
  5 29  1  0
 29 30  2  0
 30  2  1  0
 28 10  1  0
 26 16  2  0
 26 21  1  0
  1 31  1  0
  1 32  1  0
  1 33  1  0
  3 34  1  0
  4 35  1  0
  6 36  1  0
  6 37  1  0
  7 38  1  0
 10 39  1  0
 11 40  1  0
 11 41  1  0
 12 42  1  0
 12 43  1  0
 13 44  1  0
 14 45  1  0
 14 46  1  0
 15 47  1  0
 17 48  1  0
 22 49  1  0
 23 50  1  0
 24 51  1  0
 25 52  1  0
 27 53  1  0
 27 54  1  0
 28 55  1  0
 28 56  1  0
 29 57  1  0
 30 58  1  0
M  END
$$$$
