
     RDKit          3D

 62 65  0  0  0  0  0  0  0  0999 V2000
    8.9997   -1.3829   -3.1039 C   0  0  0  0  0  0  0  0  0  0  0  0
    8.8575   -1.7752   -1.6463 C   0  0  0  0  0  0  0  0  0  0  0  0
    7.5478   -1.3907   -1.2088 O   0  0  0  0  0  0  0  0  0  0  0  0
    7.2959   -1.6467    0.1035 C   0  0  0  0  0  0  0  0  0  0  0  0
    8.1142   -2.1345    0.8740 O   0  0  0  0  0  0  0  0  0  0  0  0
    6.0091   -1.3005    0.4609 N   0  0  0  0  0  0  0  0  0  0  0  0
    5.5243   -1.5929    1.8082 C   0  0  0  0  0  0  0  0  0  0  0  0
    4.0507   -2.0144    1.8089 C   0  0  0  0  0  0  0  0  0  0  0  0
    3.1740   -1.0557    1.1212 N   0  0  0  0  0  0  0  0  0  0  0  0
    1.8148   -1.0826    1.4210 C   0  0  0  0  0  0  0  0  0  0  0  0
    1.3498   -1.9167    2.2000 O   0  0  0  0  0  0  0  0  0  0  0  0
    0.9235   -0.0345    0.7328 C   0  0  0  0  0  0  0  0  0  0  0  0
   -0.4359   -0.0241    1.1537 O   0  0  0  0  0  0  0  0  0  0  0  0
   -1.3247   -0.7538    0.4077 C   0  0  0  0  0  0  0  0  0  0  0  0
   -0.9851   -1.9162   -0.2942 C   0  0  0  0  0  0  0  0  0  0  0  0
   -1.9439   -2.5965   -1.0469 C   0  0  0  0  0  0  0  0  0  0  0  0
   -3.2527   -2.1240   -1.0973 C   0  0  0  0  0  0  0  0  0  0  0  0
   -3.6123   -0.9824   -0.3713 C   0  0  0  0  0  0  0  0  0  0  0  0
   -2.6548   -0.3006    0.4021 C   0  0  0  0  0  0  0  0  0  0  0  0
   -3.0700    0.9424    1.1451 C   0  0  0  0  0  0  0  0  0  0  0  0
   -4.5278    0.8388    1.5729 C   0  0  0  0  0  0  0  0  0  0  0  0
   -5.3956    0.4909    0.4558 N   0  0  0  0  0  0  0  0  0  0  0  0
   -6.7795    0.9530    0.4899 C   0  0  0  0  0  0  0  0  0  0  0  0
   -6.9002    2.3956    0.0735 C   0  0  0  0  0  0  0  0  0  0  0  0
   -6.5138    2.8062   -1.2106 C   0  0  0  0  0  0  0  0  0  0  0  0
   -6.6358    4.1440   -1.5942 C   0  0  0  0  0  0  0  0  0  0  0  0
   -7.1511    5.0842   -0.7019 C   0  0  0  0  0  0  0  0  0  0  0  0
   -7.5441    4.6861    0.5735 C   0  0  0  0  0  0  0  0  0  0  0  0
   -7.4175    3.3512    0.9499 C   0  0  0  0  0  0  0  0  0  0  0  0
   -7.8040    2.9908    2.1829 F   0  0  0  0  0  0  0  0  0  0  0  0
   -5.0194   -0.4909   -0.4528 C   0  0  0  0  0  0  0  0  0  0  0  0
   -5.7723   -0.9478   -1.3086 O   0  0  0  0  0  0  0  0  0  0  0  0
    3.8180   -0.1233    0.1875 C   0  0  0  0  0  0  0  0  0  0  0  0
    5.0573   -0.7258   -0.4888 C   0  0  0  0  0  0  0  0  0  0  0  0
    9.9724   -1.6921   -3.4984 H   0  0  0  0  0  0  0  0  0  0  0  0
    8.8987   -0.2987   -3.2204 H   0  0  0  0  0  0  0  0  0  0  0  0
    8.2091   -1.8425   -3.7083 H   0  0  0  0  0  0  0  0  0  0  0  0
    9.6202   -1.2619   -1.0487 H   0  0  0  0  0  0  0  0  0  0  0  0
    8.9742   -2.8602   -1.5428 H   0  0  0  0  0  0  0  0  0  0  0  0
    6.1362   -2.3694    2.2784 H   0  0  0  0  0  0  0  0  0  0  0  0
    5.6486   -0.6726    2.3921 H   0  0  0  0  0  0  0  0  0  0  0  0
    3.9371   -2.9707    1.2827 H   0  0  0  0  0  0  0  0  0  0  0  0
    3.7064   -2.1590    2.8388 H   0  0  0  0  0  0  0  0  0  0  0  0
    1.3262    0.9506    0.9985 H   0  0  0  0  0  0  0  0  0  0  0  0
    0.9979   -0.1307   -0.3575 H   0  0  0  0  0  0  0  0  0  0  0  0
    0.0169   -2.3324   -0.2544 H   0  0  0  0  0  0  0  0  0  0  0  0
   -1.6707   -3.4994   -1.5890 H   0  0  0  0  0  0  0  0  0  0  0  0
   -3.9950   -2.6515   -1.6931 H   0  0  0  0  0  0  0  0  0  0  0  0
   -2.9283    1.8038    0.4809 H   0  0  0  0  0  0  0  0  0  0  0  0
   -2.4583    1.0989    2.0400 H   0  0  0  0  0  0  0  0  0  0  0  0
   -4.6548    0.0623    2.3371 H   0  0  0  0  0  0  0  0  0  0  0  0
   -4.8477    1.7933    2.0030 H   0  0  0  0  0  0  0  0  0  0  0  0
   -7.1583    0.7903    1.5056 H   0  0  0  0  0  0  0  0  0  0  0  0
   -7.4104    0.3496   -0.1734 H   0  0  0  0  0  0  0  0  0  0  0  0
   -6.1153    2.0792   -1.9165 H   0  0  0  0  0  0  0  0  0  0  0  0
   -6.3300    4.4504   -2.5916 H   0  0  0  0  0  0  0  0  0  0  0  0
   -7.2477    6.1240   -1.0033 H   0  0  0  0  0  0  0  0  0  0  0  0
   -7.9525    5.4047    1.2779 H   0  0  0  0  0  0  0  0  0  0  0  0
    3.1138    0.2064   -0.5798 H   0  0  0  0  0  0  0  0  0  0  0  0
    4.1027    0.7574    0.7762 H   0  0  0  0  0  0  0  0  0  0  0  0
    5.5588    0.0376   -1.0925 H   0  0  0  0  0  0  0  0  0  0  0  0
    4.7536   -1.5377   -1.1608 H   0  0  0  0  0  0  0  0  0  0  0  0
  1  2  1  0
  2  3  1  0
  3  4  1  0
  4  5  2  0
  4  6  1  0
  6  7  1  0
  7  8  1  0
  8  9  1  0
  9 10  1  0
 10 11  2  0
 10 12  1  0
 12 13  1  0
 13 14  1  0
 14 15  2  0
 15 16  1  0
 16 17  2  0
 17 18  1  0
 18 19  2  0
 19 20  1  0
 20 21  1  0
 21 22  1  0
 22 23  1  0
 23 24  1  0
 24 25  2  0
 25 26  1  0
 26 27  2  0
 27 28  1  0
 28 29  2  0
 29 30  1  0
 22 31  1  0
 31 32  2  0
  9 33  1  0
 33 34  1  0
 34  6  1  0
 19 14  1  0
 29 24  1  0
 31 18  1  0
  1 35  1  0
  1 36  1  0
  1 37  1  0
  2 38  1  0
  2 39  1  0
  7 40  1  0
  7 41  1  0
  8 42  1  0
  8 43  1  0
 12 44  1  0
 12 45  1  0
 15 46  1  0
 16 47  1  0
 17 48  1  0
 20 49  1  0
 20 50  1  0
 21 51  1  0
 21 52  1  0
 23 53  1  0
 23 54  1  0
 25 55  1  0
 26 56  1  0
 27 57  1  0
 28 58  1  0
 33 59  1  0
 33 60  1  0
 34 61  1  0
 34 62  1  0
M  END
$$$$
