
     RDKit          3D

 48 51  0  0  0  0  0  0  0  0999 V2000
    3.9380   -3.4334    1.8203 C   0  0  0  0  0  0  0  0  0  0  0  0
    4.2246   -2.3287    0.8182 C   0  0  0  0  0  0  0  0  0  0  0  0
    3.0976   -2.2273   -0.0583 O   0  0  0  0  0  0  0  0  0  0  0  0
    3.1945   -1.1380   -0.8896 C   0  0  0  0  0  0  0  0  0  0  0  0
    4.1828   -1.1243   -1.8845 C   0  0  0  0  0  0  0  0  0  0  0  0
    4.2521   -0.0691   -2.7932 C   0  0  0  0  0  0  0  0  0  0  0  0
    3.3238    0.9631   -2.7247 C   0  0  0  0  0  0  0  0  0  0  0  0
    2.3225    0.9356   -1.7486 C   0  0  0  0  0  0  0  0  0  0  0  0
    2.2332   -0.1134   -0.8084 C   0  0  0  0  0  0  0  0  0  0  0  0
    1.1629   -0.0995    0.1987 C   0  0  0  0  0  0  0  0  0  0  0  0
    1.4956   -0.3612    1.4843 N   0  0  0  0  0  0  0  0  0  0  0  0
    0.4851   -0.3034    2.3876 C   0  0  0  0  0  0  0  0  0  0  0  0
    0.8347   -0.5727    3.8105 C   0  0  0  0  0  0  0  0  0  0  0  0
    2.1524   -0.8507    4.0542 N   0  0  0  0  0  0  0  0  0  0  0  0
    0.0053   -0.5360    4.7103 O   0  0  0  0  0  0  0  0  0  0  0  0
   -0.7907    0.0167    2.0279 C   0  0  0  0  0  0  0  0  0  0  0  0
   -1.9607    0.1711    2.7538 N   0  0  0  0  0  0  0  0  0  0  0  0
   -2.9830    0.5585    1.8768 C   0  0  0  0  0  0  0  0  0  0  0  0
   -4.1271    0.7704    2.2411 O   0  0  0  0  0  0  0  0  0  0  0  0
   -2.3983    0.6234    0.5751 N   0  0  0  0  0  0  0  0  0  0  0  0
   -3.0422    0.9913   -0.6367 C   0  0  0  0  0  0  0  0  0  0  0  0
   -2.4581    0.7963   -1.8968 C   0  0  0  0  0  0  0  0  0  0  0  0
   -3.1173    1.1618   -3.0768 C   0  0  0  0  0  0  0  0  0  0  0  0
   -4.3813    1.7370   -3.0252 C   0  0  0  0  0  0  0  0  0  0  0  0
   -4.9930    1.9536   -1.7917 C   0  0  0  0  0  0  0  0  0  0  0  0
   -6.3723    2.5386   -1.7137 C   0  0  0  0  0  0  0  0  0  0  0  0
   -4.3254    1.5660   -0.6154 C   0  0  0  0  0  0  0  0  0  0  0  0
   -1.0277    0.2825    0.7013 C   0  0  0  0  0  0  0  0  0  0  0  0
   -0.0712    0.2512   -0.2313 N   0  0  0  0  0  0  0  0  0  0  0  0
    3.7853   -4.3877    1.3055 H   0  0  0  0  0  0  0  0  0  0  0  0
    3.0183   -3.2215    2.3756 H   0  0  0  0  0  0  0  0  0  0  0  0
    4.7623   -3.5416    2.5294 H   0  0  0  0  0  0  0  0  0  0  0  0
    4.3788   -1.3863    1.3516 H   0  0  0  0  0  0  0  0  0  0  0  0
    5.1288   -2.5811    0.2569 H   0  0  0  0  0  0  0  0  0  0  0  0
    4.8864   -1.9464   -1.9714 H   0  0  0  0  0  0  0  0  0  0  0  0
    5.0199   -0.0622   -3.5633 H   0  0  0  0  0  0  0  0  0  0  0  0
    3.3667    1.7830   -3.4372 H   0  0  0  0  0  0  0  0  0  0  0  0
    1.5979    1.7483   -1.7218 H   0  0  0  0  0  0  0  0  0  0  0  0
    2.4631   -0.9647    5.0094 H   0  0  0  0  0  0  0  0  0  0  0  0
    2.8273   -0.7799    3.3038 H   0  0  0  0  0  0  0  0  0  0  0  0
   -2.0596    0.0454    3.7544 H   0  0  0  0  0  0  0  0  0  0  0  0
   -1.4910    0.3219   -2.0147 H   0  0  0  0  0  0  0  0  0  0  0  0
   -2.6401    0.9842   -4.0370 H   0  0  0  0  0  0  0  0  0  0  0  0
   -4.8852    2.0085   -3.9496 H   0  0  0  0  0  0  0  0  0  0  0  0
   -7.1138    1.7389   -1.6208 H   0  0  0  0  0  0  0  0  0  0  0  0
   -6.6019    3.1270   -2.6086 H   0  0  0  0  0  0  0  0  0  0  0  0
   -6.4604    3.2097   -0.8523 H   0  0  0  0  0  0  0  0  0  0  0  0
   -4.8398    1.7450    0.3251 H   0  0  0  0  0  0  0  0  0  0  0  0
  1  2  1  0
  2  3  1  0
  3  4  1  0
  4  5  2  0
  5  6  1  0
  6  7  2  0
  7  8  1  0
  8  9  2  0
  9 10  1  0
 10 11  2  0
 11 12  1  0
 12 13  1  0
 13 14  1  0
 13 15  2  0
 12 16  2  0
 16 17  1  0
 17 18  1  0
 18 19  2  0
 18 20  1  0
 20 21  1  0
 21 22  2  0
 22 23  1  0
 23 24  2  0
 24 25  1  0
 25 26  1  0
 25 27  2  0
 20 28  1  0
 28 29  2  0
  9  4  1  0
 29 10  1  0
 28 16  1  0
 27 21  1  0
  1 30  1  0
  1 31  1  0
  1 32  1  0
  2 33  1  0
  2 34  1  0
  5 35  1  0
  6 36  1  0
  7 37  1  0
  8 38  1  0
 14 39  1  0
 14 40  1  0
 17 41  1  0
 22 42  1  0
 23 43  1  0
 24 44  1  0
 26 45  1  0
 26 46  1  0
 26 47  1  0
 27 48  1  0
M  END
$$$$
