
     RDKit          3D

 52 54  0  0  0  0  0  0  0  0999 V2000
    2.3692   -3.0309   -2.2599 C   0  0  0  0  0  0  0  0  0  0  0  0
    1.2881   -2.0714   -1.7947 C   0  0  0  0  0  0  0  0  0  0  0  0
    1.6894   -1.4256   -0.5735 O   0  0  0  0  0  0  0  0  0  0  0  0
    2.4992   -0.3484   -0.7289 C   0  0  0  0  0  0  0  0  0  0  0  0
    2.8154    0.1656   -1.7904 O   0  0  0  0  0  0  0  0  0  0  0  0
    3.0512    0.0797    0.5829 C   0  0  0  0  0  0  0  0  0  0  0  0
    4.3526    0.6163    0.5329 C   0  0  0  0  0  0  0  0  0  0  0  0
    4.9946    1.0354    1.6941 C   0  0  0  0  0  0  0  0  0  0  0  0
    4.3385    0.9261    2.9123 C   0  0  0  0  0  0  0  0  0  0  0  0
    3.0390    0.4091    2.9709 C   0  0  0  0  0  0  0  0  0  0  0  0
    2.3676   -0.0201    1.8160 C   0  0  0  0  0  0  0  0  0  0  0  0
    1.0274   -0.4935    1.8594 N   0  0  0  0  0  0  0  0  0  0  0  0
    0.2340   -0.6897    2.9743 C   0  0  0  0  0  0  0  0  0  0  0  0
    0.5990   -0.5938    4.1438 O   0  0  0  0  0  0  0  0  0  0  0  0
   -1.2247   -1.0208    2.6864 C   0  0  0  0  0  0  0  0  0  0  0  0
   -1.4207   -2.2868    1.8600 C   0  0  0  0  0  0  0  0  0  0  0  0
   -1.7988   -1.7822    0.4922 C   0  0  0  0  0  0  0  0  0  0  0  0
   -1.8850   -2.4775   -0.5060 O   0  0  0  0  0  0  0  0  0  0  0  0
   -2.0270   -0.4199    0.5700 N   0  0  0  0  0  0  0  0  0  0  0  0
   -2.3924    0.4102   -0.5796 C   0  0  0  0  0  0  0  0  0  0  0  0
   -1.1500    1.1142   -1.1566 C   0  0  0  0  0  0  0  0  0  0  0  0
   -1.4776    2.4018   -1.9168 C   0  0  0  0  0  0  0  0  0  0  0  0
   -2.8548    2.3434   -2.5637 C   0  0  0  0  0  0  0  0  0  0  0  0
   -3.9638    2.1610   -1.5256 C   0  0  0  0  0  0  0  0  0  0  0  0
   -3.5105    1.4103   -0.2701 C   0  0  0  0  0  0  0  0  0  0  0  0
   -1.9075    0.0926    1.9145 C   0  0  0  0  0  0  0  0  0  0  0  0
    3.2999   -2.5004   -2.4887 H   0  0  0  0  0  0  0  0  0  0  0  0
    2.0481   -3.5721   -3.1539 H   0  0  0  0  0  0  0  0  0  0  0  0
    2.6032   -3.7557   -1.4727 H   0  0  0  0  0  0  0  0  0  0  0  0
    0.3793   -2.6372   -1.5780 H   0  0  0  0  0  0  0  0  0  0  0  0
    1.0387   -1.3376   -2.5696 H   0  0  0  0  0  0  0  0  0  0  0  0
    4.8739    0.7030   -0.4195 H   0  0  0  0  0  0  0  0  0  0  0  0
    6.0012    1.4432    1.6474 H   0  0  0  0  0  0  0  0  0  0  0  0
    4.8302    1.2493    3.8275 H   0  0  0  0  0  0  0  0  0  0  0  0
    2.5772    0.3677    3.9524 H   0  0  0  0  0  0  0  0  0  0  0  0
    0.6368   -0.7521    0.9566 H   0  0  0  0  0  0  0  0  0  0  0  0
   -1.7042   -1.1412    3.6664 H   0  0  0  0  0  0  0  0  0  0  0  0
   -0.5210   -2.9055    1.8007 H   0  0  0  0  0  0  0  0  0  0  0  0
   -2.2550   -2.8814    2.2453 H   0  0  0  0  0  0  0  0  0  0  0  0
   -2.7668   -0.2731   -1.3543 H   0  0  0  0  0  0  0  0  0  0  0  0
   -0.4256    1.3530   -0.3678 H   0  0  0  0  0  0  0  0  0  0  0  0
   -0.6366    0.4150   -1.8285 H   0  0  0  0  0  0  0  0  0  0  0  0
   -1.4428    3.2517   -1.2228 H   0  0  0  0  0  0  0  0  0  0  0  0
   -0.7081    2.5876   -2.6752 H   0  0  0  0  0  0  0  0  0  0  0  0
   -3.0415    3.2538   -3.1442 H   0  0  0  0  0  0  0  0  0  0  0  0
   -2.8822    1.5090   -3.2760 H   0  0  0  0  0  0  0  0  0  0  0  0
   -4.3551    3.1410   -1.2273 H   0  0  0  0  0  0  0  0  0  0  0  0
   -4.8002    1.6289   -1.9949 H   0  0  0  0  0  0  0  0  0  0  0  0
   -3.1618    2.1401    0.4727 H   0  0  0  0  0  0  0  0  0  0  0  0
   -4.3717    0.9021    0.1810 H   0  0  0  0  0  0  0  0  0  0  0  0
   -2.9180    0.2714    2.2971 H   0  0  0  0  0  0  0  0  0  0  0  0
   -1.3504    1.0344    1.9133 H   0  0  0  0  0  0  0  0  0  0  0  0
  1  2  1  0
  2  3  1  0
  3  4  1  0
  4  5  2  0
  4  6  1  0
  6  7  2  0
  7  8  1  0
  8  9  2  0
  9 10  1  0
 10 11  2  0
 11 12  1  0
 12 13  1  0
 13 14  2  0
 13 15  1  0
 15 16  1  0
 16 17  1  0
 17 18  2  0
 17 19  1  0
 19 20  1  0
 20 21  1  0
 21 22  1  0
 22 23  1  0
 23 24  1  0
 24 25  1  0
 19 26  1  0
 11  6  1  0
 26 15  1  0
 25 20  1  0
  1 27  1  0
  1 28  1  0
  1 29  1  0
  2 30  1  0
  2 31  1  0
  7 32  1  0
  8 33  1  0
  9 34  1  0
 10 35  1  0
 12 36  1  0
 15 37  1  0
 16 38  1  0
 16 39  1  0
 20 40  1  0
 21 41  1  0
 21 42  1  0
 22 43  1  0
 22 44  1  0
 23 45  1  0
 23 46  1  0
 24 47  1  0
 24 48  1  0
 25 49  1  0
 25 50  1  0
 26 51  1  0
 26 52  1  0
M  END
$$$$
