
     RDKit          3D

 48 50  0  0  0  0  0  0  0  0999 V2000
    6.1356    1.5428    2.0515 C   0  0  0  0  0  0  0  0  0  0  0  0
    6.9725    0.3016    1.7870 C   0  0  0  0  0  0  0  0  0  0  0  0
    6.6809   -0.3876    0.4493 C   0  0  0  0  0  0  0  0  0  0  0  0
    5.2808   -0.9941    0.3444 C   0  0  0  0  0  0  0  0  0  0  0  0
    4.3322    0.0473    0.1244 O   0  0  0  0  0  0  0  0  0  0  0  0
    3.0190   -0.3140    0.0184 C   0  0  0  0  0  0  0  0  0  0  0  0
    2.1323    0.7471   -0.1569 C   0  0  0  0  0  0  0  0  0  0  0  0
    0.7563    0.5199   -0.2808 C   0  0  0  0  0  0  0  0  0  0  0  0
    0.2342   -0.7756   -0.2505 C   0  0  0  0  0  0  0  0  0  0  0  0
   -1.1434   -1.0624   -0.3260 N   0  0  0  0  0  0  0  0  0  0  0  0
   -2.1383   -0.2834   -0.8560 C   0  0  0  0  0  0  0  0  0  0  0  0
   -1.9951    0.8320   -1.4849 N   0  0  0  0  0  0  0  0  0  0  0  0
   -3.0987    1.4263   -2.0041 C   0  0  0  0  0  0  0  0  0  0  0  0
   -2.8754    2.4499   -2.8646 N   0  0  0  0  0  0  0  0  0  0  0  0
   -4.3145    1.0777   -1.7685 N   0  0  0  0  0  0  0  0  0  0  0  0
   -4.4921    0.0056   -0.8134 C   0  0  0  0  0  0  0  0  0  0  0  0
   -5.7155   -0.8233   -1.2172 C   0  0  0  0  0  0  0  0  0  0  0  0
   -6.2173   -1.4452    0.0825 C   0  0  0  0  0  0  0  0  0  0  0  0
   -5.7780   -0.4999    1.1986 C   0  0  0  0  0  0  0  0  0  0  0  0
   -4.9372    0.5903    0.5348 C   0  0  0  0  0  0  0  0  0  0  0  0
   -3.3512   -0.8616   -0.6485 N   0  0  0  0  0  0  0  0  0  0  0  0
    1.1357   -1.8335   -0.0493 C   0  0  0  0  0  0  0  0  0  0  0  0
    2.5143   -1.6097    0.0751 C   0  0  0  0  0  0  0  0  0  0  0  0
    6.1859    2.2409    1.2102 H   0  0  0  0  0  0  0  0  0  0  0  0
    6.5053    2.0600    2.9429 H   0  0  0  0  0  0  0  0  0  0  0  0
    5.0880    1.2883    2.2345 H   0  0  0  0  0  0  0  0  0  0  0  0
    8.0302    0.5919    1.7965 H   0  0  0  0  0  0  0  0  0  0  0  0
    6.8357   -0.4102    2.6094 H   0  0  0  0  0  0  0  0  0  0  0  0
    6.8384    0.3284   -0.3662 H   0  0  0  0  0  0  0  0  0  0  0  0
    7.4143   -1.1935    0.3245 H   0  0  0  0  0  0  0  0  0  0  0  0
    5.0462   -1.5468    1.2620 H   0  0  0  0  0  0  0  0  0  0  0  0
    5.2675   -1.6795   -0.5118 H   0  0  0  0  0  0  0  0  0  0  0  0
    2.5097    1.7663   -0.1914 H   0  0  0  0  0  0  0  0  0  0  0  0
    0.1041    1.3819   -0.3905 H   0  0  0  0  0  0  0  0  0  0  0  0
   -1.3412   -2.0514   -0.3790 H   0  0  0  0  0  0  0  0  0  0  0  0
   -1.9704    2.3710   -3.3081 H   0  0  0  0  0  0  0  0  0  0  0  0
   -3.6465    2.5748   -3.5054 H   0  0  0  0  0  0  0  0  0  0  0  0
   -6.5011   -0.1789   -1.6337 H   0  0  0  0  0  0  0  0  0  0  0  0
   -5.4881   -1.5867   -1.9693 H   0  0  0  0  0  0  0  0  0  0  0  0
   -5.7635   -2.4319    0.2318 H   0  0  0  0  0  0  0  0  0  0  0  0
   -7.3029   -1.5844    0.0684 H   0  0  0  0  0  0  0  0  0  0  0  0
   -6.6372   -0.0670    1.7214 H   0  0  0  0  0  0  0  0  0  0  0  0
   -5.1861   -1.0463    1.9417 H   0  0  0  0  0  0  0  0  0  0  0  0
   -4.0981    0.8939    1.1707 H   0  0  0  0  0  0  0  0  0  0  0  0
   -5.5639    1.4790    0.3825 H   0  0  0  0  0  0  0  0  0  0  0  0
   -3.3975   -1.4252    0.1899 H   0  0  0  0  0  0  0  0  0  0  0  0
    0.7745   -2.8574    0.0075 H   0  0  0  0  0  0  0  0  0  0  0  0
    3.1596   -2.4697    0.2162 H   0  0  0  0  0  0  0  0  0  0  0  0
  1  2  1  0
  2  3  1  0
  3  4  1  0
  4  5  1  0
  5  6  1  0
  6  7  2  0
  7  8  1  0
  8  9  2  0
  9 10  1  0
 10 11  1  0
 11 12  2  0
 12 13  1  0
 13 14  1  0
 13 15  2  0
 15 16  1  0
 16 17  1  0
 17 18  1  0
 18 19  1  0
 19 20  1  0
 16 21  1  0
  9 22  1  0
 22 23  2  0
 23  6  1  0
 21 11  1  0
 20 16  1  0
  1 24  1  0
  1 25  1  0
  1 26  1  0
  2 27  1  0
  2 28  1  0
  3 29  1  0
  3 30  1  0
  4 31  1  0
  4 32  1  0
  7 33  1  0
  8 34  1  0
 10 35  1  0
 14 36  1  0
 14 37  1  0
 17 38  1  0
 17 39  1  0
 18 40  1  0
 18 41  1  0
 19 42  1  0
 19 43  1  0
 20 44  1  0
 20 45  1  0
 21 46  1  0
 22 47  1  0
 23 48  1  0
M  END
$$$$
