
     RDKit          3D

 62 65  0  0  0  0  0  0  0  0999 V2000
    8.3181   -0.4644    2.3023 C   0  0  0  0  0  0  0  0  0  0  0  0
    8.2691   -1.6016    1.2987 C   0  0  0  0  0  0  0  0  0  0  0  0
    6.9694   -1.6678    0.6921 O   0  0  0  0  0  0  0  0  0  0  0  0
    6.7734   -0.8671   -0.3900 C   0  0  0  0  0  0  0  0  0  0  0  0
    7.6310   -0.1341   -0.8655 O   0  0  0  0  0  0  0  0  0  0  0  0
    5.4879   -0.9707   -0.8817 N   0  0  0  0  0  0  0  0  0  0  0  0
    4.4857   -1.8526   -0.2847 C   0  0  0  0  0  0  0  0  0  0  0  0
    3.2499   -2.0523   -1.1717 C   0  0  0  0  0  0  0  0  0  0  0  0
    2.6690   -0.7831   -1.6272 N   0  0  0  0  0  0  0  0  0  0  0  0
    1.3207   -0.5698   -1.8992 C   0  0  0  0  0  0  0  0  0  0  0  0
    0.9088    0.5378   -2.2509 O   0  0  0  0  0  0  0  0  0  0  0  0
    0.3762   -1.7668   -1.7258 C   0  0  0  0  0  0  0  0  0  0  0  0
   -0.9448   -1.4689   -2.1866 O   0  0  0  0  0  0  0  0  0  0  0  0
   -1.8753   -1.7680   -1.2284 C   0  0  0  0  0  0  0  0  0  0  0  0
   -2.3107   -3.0892   -1.0986 C   0  0  0  0  0  0  0  0  0  0  0  0
   -3.2444   -3.4175   -0.1187 C   0  0  0  0  0  0  0  0  0  0  0  0
   -3.7419   -2.4228    0.7247 C   0  0  0  0  0  0  0  0  0  0  0  0
   -3.3248   -1.0918    0.5729 C   0  0  0  0  0  0  0  0  0  0  0  0
   -2.4019   -0.7486   -0.4271 C   0  0  0  0  0  0  0  0  0  0  0  0
   -1.9537    0.6788   -0.5663 C   0  0  0  0  0  0  0  0  0  0  0  0
   -3.0514    1.6288   -0.1077 C   0  0  0  0  0  0  0  0  0  0  0  0
   -3.5656    1.2711    1.2095 N   0  0  0  0  0  0  0  0  0  0  0  0
   -4.1604    2.3259    2.0224 C   0  0  0  0  0  0  0  0  0  0  0  0
   -5.4720    2.8238    1.4744 C   0  0  0  0  0  0  0  0  0  0  0  0
   -6.6558    2.0952    1.6633 C   0  0  0  0  0  0  0  0  0  0  0  0
   -7.8656    2.5590    1.1400 C   0  0  0  0  0  0  0  0  0  0  0  0
   -7.9067    3.7539    0.4203 C   0  0  0  0  0  0  0  0  0  0  0  0
   -6.7361    4.4841    0.2229 C   0  0  0  0  0  0  0  0  0  0  0  0
   -5.5341    4.0155    0.7474 C   0  0  0  0  0  0  0  0  0  0  0  0
   -4.4181    4.7295    0.5368 F   0  0  0  0  0  0  0  0  0  0  0  0
   -3.8532   -0.0574    1.5093 C   0  0  0  0  0  0  0  0  0  0  0  0
   -4.4949   -0.4079    2.4961 O   0  0  0  0  0  0  0  0  0  0  0  0
    3.5980    0.3385   -1.8200 C   0  0  0  0  0  0  0  0  0  0  0  0
    5.0560   -0.1059   -1.9775 C   0  0  0  0  0  0  0  0  0  0  0  0
    7.4971   -0.5515    3.0247 H   0  0  0  0  0  0  0  0  0  0  0  0
    8.2012    0.5030    1.8019 H   0  0  0  0  0  0  0  0  0  0  0  0
    9.2682   -0.4627    2.8463 H   0  0  0  0  0  0  0  0  0  0  0  0
    9.0597   -1.5097    0.5450 H   0  0  0  0  0  0  0  0  0  0  0  0
    8.4279   -2.5541    1.8159 H   0  0  0  0  0  0  0  0  0  0  0  0
    4.9415   -2.8234   -0.0593 H   0  0  0  0  0  0  0  0  0  0  0  0
    4.1890   -1.3940    0.6672 H   0  0  0  0  0  0  0  0  0  0  0  0
    3.5249   -2.6087   -2.0753 H   0  0  0  0  0  0  0  0  0  0  0  0
    2.5090   -2.6461   -0.6318 H   0  0  0  0  0  0  0  0  0  0  0  0
    0.3927   -2.0528   -0.6659 H   0  0  0  0  0  0  0  0  0  0  0  0
    0.7524   -2.5993   -2.3307 H   0  0  0  0  0  0  0  0  0  0  0  0
   -1.9222   -3.8606   -1.7586 H   0  0  0  0  0  0  0  0  0  0  0  0
   -3.5837   -4.4452   -0.0061 H   0  0  0  0  0  0  0  0  0  0  0  0
   -4.4598   -2.6847    1.4999 H   0  0  0  0  0  0  0  0  0  0  0  0
   -1.0529    0.8203    0.0423 H   0  0  0  0  0  0  0  0  0  0  0  0
   -1.7067    0.9140   -1.6069 H   0  0  0  0  0  0  0  0  0  0  0  0
   -3.8951    1.6081   -0.8087 H   0  0  0  0  0  0  0  0  0  0  0  0
   -2.6534    2.6489   -0.0753 H   0  0  0  0  0  0  0  0  0  0  0  0
   -4.3164    1.9640    3.0464 H   0  0  0  0  0  0  0  0  0  0  0  0
   -3.4318    3.1413    2.1019 H   0  0  0  0  0  0  0  0  0  0  0  0
   -6.6364    1.1582    2.2197 H   0  0  0  0  0  0  0  0  0  0  0  0
   -8.7761    1.9840    1.2939 H   0  0  0  0  0  0  0  0  0  0  0  0
   -8.8482    4.1122    0.0125 H   0  0  0  0  0  0  0  0  0  0  0  0
   -6.7508    5.4137   -0.3381 H   0  0  0  0  0  0  0  0  0  0  0  0
    3.4985    0.9819   -0.9366 H   0  0  0  0  0  0  0  0  0  0  0  0
    3.2915    0.9261   -2.6927 H   0  0  0  0  0  0  0  0  0  0  0  0
    5.1713   -0.6876   -2.9004 H   0  0  0  0  0  0  0  0  0  0  0  0
    5.7069    0.7713   -2.0561 H   0  0  0  0  0  0  0  0  0  0  0  0
  1  2  1  0
  2  3  1  0
  3  4  1  0
  4  5  2  0
  4  6  1  0
  6  7  1  0
  7  8  1  0
  8  9  1  0
  9 10  1  0
 10 11  2  0
 10 12  1  0
 12 13  1  0
 13 14  1  0
 14 15  2  0
 15 16  1  0
 16 17  2  0
 17 18  1  0
 18 19  2  0
 19 20  1  0
 20 21  1  0
 21 22  1  0
 22 23  1  0
 23 24  1  0
 24 25  2  0
 25 26  1  0
 26 27  2  0
 27 28  1  0
 28 29  2  0
 29 30  1  0
 22 31  1  0
 31 32  2  0
  9 33  1  0
 33 34  1  0
 34  6  1  0
 19 14  1  0
 29 24  1  0
 31 18  1  0
  1 35  1  0
  1 36  1  0
  1 37  1  0
  2 38  1  0
  2 39  1  0
  7 40  1  0
  7 41  1  0
  8 42  1  0
  8 43  1  0
 12 44  1  0
 12 45  1  0
 15 46  1  0
 16 47  1  0
 17 48  1  0
 20 49  1  0
 20 50  1  0
 21 51  1  0
 21 52  1  0
 23 53  1  0
 23 54  1  0
 25 55  1  0
 26 56  1  0
 27 57  1  0
 28 58  1  0
 33 59  1  0
 33 60  1  0
 34 61  1  0
 34 62  1  0
M  END
$$$$
