
     RDKit          3D

 56 59  0  0  0  0  0  0  0  0999 V2000
   -3.3421    2.5252   -4.0477 C   0  0  0  0  0  0  0  0  0  0  0  0
   -3.2251    1.9525   -2.7500 O   0  0  0  0  0  0  0  0  0  0  0  0
   -3.0239    0.5976   -2.6889 C   0  0  0  0  0  0  0  0  0  0  0  0
   -3.2847   -0.2826   -3.7433 C   0  0  0  0  0  0  0  0  0  0  0  0
   -3.0700   -1.6561   -3.5899 C   0  0  0  0  0  0  0  0  0  0  0  0
   -2.5929   -2.1709   -2.3806 C   0  0  0  0  0  0  0  0  0  0  0  0
   -2.3938   -3.6472   -2.2652 C   0  0  0  0  0  0  0  0  0  0  0  0
   -1.8034   -4.2096   -0.9985 C   0  0  0  0  0  0  0  0  0  0  0  0
   -2.7279   -4.3842   -3.1907 O   0  0  0  0  0  0  0  0  0  0  0  0
   -2.3377   -1.2938   -1.3203 C   0  0  0  0  0  0  0  0  0  0  0  0
   -2.5564    0.0931   -1.4597 C   0  0  0  0  0  0  0  0  0  0  0  0
   -2.2791    1.0094   -0.2895 C   0  0  0  0  0  0  0  0  0  0  0  0
   -0.6698    1.8411   -0.3801 S   0  0  0  0  0  0  0  0  0  0  0  0
    0.2896    0.7032    0.5374 C   0  0  0  0  0  0  0  0  0  0  0  0
    0.6338   -0.3807   -0.0789 N   0  0  0  0  0  0  0  0  0  0  0  0
    1.4192   -1.3168    0.5933 C   0  0  0  0  0  0  0  0  0  0  0  0
    1.8360   -2.4618   -0.0897 C   0  0  0  0  0  0  0  0  0  0  0  0
    2.6104   -3.4350    0.5567 C   0  0  0  0  0  0  0  0  0  0  0  0
    3.0142   -4.6339   -0.2158 C   0  0  0  0  0  0  0  0  0  0  0  0
    2.7333   -4.8601   -1.3772 O   0  0  0  0  0  0  0  0  0  0  0  0
    3.7439   -5.4968    0.5102 O   0  0  0  0  0  0  0  0  0  0  0  0
    2.9744   -3.2563    1.8979 C   0  0  0  0  0  0  0  0  0  0  0  0
    2.5668   -2.1096    2.5823 C   0  0  0  0  0  0  0  0  0  0  0  0
    1.7935   -1.1473    1.9217 C   0  0  0  0  0  0  0  0  0  0  0  0
    1.3507    0.0799    2.6052 C   0  0  0  0  0  0  0  0  0  0  0  0
    1.6313    0.2224    3.7933 O   0  0  0  0  0  0  0  0  0  0  0  0
    0.6253    0.9991    1.8495 N   0  0  0  0  0  0  0  0  0  0  0  0
    0.2348    2.2371    2.5347 C   0  0  0  0  0  0  0  0  0  0  0  0
    1.1734    3.3955    2.2649 C   0  0  0  0  0  0  0  0  0  0  0  0
    2.5166    3.3460    2.6674 C   0  0  0  0  0  0  0  0  0  0  0  0
    3.3718    4.4258    2.4348 C   0  0  0  0  0  0  0  0  0  0  0  0
    2.8925    5.5718    1.8061 C   0  0  0  0  0  0  0  0  0  0  0  0
    1.5596    5.6390    1.4078 C   0  0  0  0  0  0  0  0  0  0  0  0
    0.7039    4.5593    1.6381 C   0  0  0  0  0  0  0  0  0  0  0  0
   -4.3111    2.2771   -4.4932 H   0  0  0  0  0  0  0  0  0  0  0  0
   -2.5161    2.2197   -4.7003 H   0  0  0  0  0  0  0  0  0  0  0  0
   -3.2933    3.6128   -3.9392 H   0  0  0  0  0  0  0  0  0  0  0  0
   -3.6680    0.0656   -4.6975 H   0  0  0  0  0  0  0  0  0  0  0  0
   -3.2811   -2.3231   -4.4247 H   0  0  0  0  0  0  0  0  0  0  0  0
   -2.4901   -4.0526   -0.1616 H   0  0  0  0  0  0  0  0  0  0  0  0
   -0.8309   -3.7555   -0.7968 H   0  0  0  0  0  0  0  0  0  0  0  0
   -1.6505   -5.2862   -1.1231 H   0  0  0  0  0  0  0  0  0  0  0  0
   -1.9634   -1.6697   -0.3714 H   0  0  0  0  0  0  0  0  0  0  0  0
   -2.3611    0.4580    0.6557 H   0  0  0  0  0  0  0  0  0  0  0  0
   -3.0574    1.7800   -0.2359 H   0  0  0  0  0  0  0  0  0  0  0  0
    1.5534   -2.5898   -1.1339 H   0  0  0  0  0  0  0  0  0  0  0  0
    3.9348   -6.2276   -0.1149 H   0  0  0  0  0  0  0  0  0  0  0  0
    3.5763   -4.0004    2.4160 H   0  0  0  0  0  0  0  0  0  0  0  0
    2.8537   -1.9683    3.6228 H   0  0  0  0  0  0  0  0  0  0  0  0
    0.1974    2.0782    3.6197 H   0  0  0  0  0  0  0  0  0  0  0  0
   -0.7913    2.4994    2.2547 H   0  0  0  0  0  0  0  0  0  0  0  0
    2.9114    2.4691    3.1756 H   0  0  0  0  0  0  0  0  0  0  0  0
    4.4126    4.3734    2.7504 H   0  0  0  0  0  0  0  0  0  0  0  0
    3.5587    6.4132    1.6300 H   0  0  0  0  0  0  0  0  0  0  0  0
    1.1827    6.5339    0.9200 H   0  0  0  0  0  0  0  0  0  0  0  0
   -0.3345    4.6376    1.3205 H   0  0  0  0  0  0  0  0  0  0  0  0
  1  2  1  0
  2  3  1  0
  3  4  2  0
  4  5  1  0
  5  6  2  0
  6  7  1  0
  7  8  1  0
  7  9  2  0
  6 10  1  0
 10 11  2  0
 11 12  1  0
 12 13  1  0
 13 14  1  0
 14 15  2  0
 15 16  1  0
 16 17  2  0
 17 18  1  0
 18 19  1  0
 19 20  2  0
 19 21  1  0
 18 22  2  0
 22 23  1  0
 23 24  2  0
 24 25  1  0
 25 26  2  0
 25 27  1  0
 27 28  1  0
 28 29  1  0
 29 30  2  0
 30 31  1  0
 31 32  2  0
 32 33  1  0
 33 34  2  0
 11  3  1  0
 27 14  1  0
 34 29  1  0
 24 16  1  0
  1 35  1  0
  1 36  1  0
  1 37  1  0
  4 38  1  0
  5 39  1  0
  8 40  1  0
  8 41  1  0
  8 42  1  0
 10 43  1  0
 12 44  1  0
 12 45  1  0
 17 46  1  0
 21 47  1  0
 22 48  1  0
 23 49  1  0
 28 50  1  0
 28 51  1  0
 30 52  1  0
 31 53  1  0
 32 54  1  0
 33 55  1  0
 34 56  1  0
M  END
$$$$
