
     RDKit          3D

 67 69  0  0  0  0  0  0  0  0999 V2000
   -0.2985    2.9710   -0.0549 C   0  0  0  0  0  0  0  0  0  0  0  0
   -0.4941    1.4948   -0.3844 C   0  0  0  0  0  0  0  0  0  0  0  0
   -1.9108    1.1442   -0.3186 N   0  0  0  0  0  0  0  0  0  0  0  0
   -2.7766    1.3918   -1.3554 C   0  0  0  0  0  0  0  0  0  0  0  0
   -2.4193    1.9114   -2.4076 O   0  0  0  0  0  0  0  0  0  0  0  0
   -4.1939    0.9713   -1.1646 C   0  0  0  0  0  0  0  0  0  0  0  0
   -4.9822    0.7631   -2.2985 C   0  0  0  0  0  0  0  0  0  0  0  0
   -6.3195    0.3729   -2.1696 C   0  0  0  0  0  0  0  0  0  0  0  0
   -6.9122    0.1832   -0.9065 C   0  0  0  0  0  0  0  0  0  0  0  0
   -8.3878   -0.2425   -0.8027 C   0  0  0  0  0  0  0  0  0  0  0  0
   -8.8747   -0.4580    0.6486 C   0  0  0  0  0  0  0  0  0  0  0  0
   -8.6045   -1.5732   -1.5569 C   0  0  0  0  0  0  0  0  0  0  0  0
   -9.2817    0.8482   -1.4301 C   0  0  0  0  0  0  0  0  0  0  0  0
   -6.1077    0.4137    0.2222 C   0  0  0  0  0  0  0  0  0  0  0  0
   -4.7675    0.8063    0.0987 C   0  0  0  0  0  0  0  0  0  0  0  0
    0.2552    0.6146    0.6381 C   0  0  0  0  0  0  0  0  0  0  0  0
   -0.3762    0.0534    1.5437 O   0  0  0  0  0  0  0  0  0  0  0  0
    1.6344    0.5071    0.5427 N   0  0  0  0  0  0  0  0  0  0  0  0
    2.3179   -0.3227    1.5370 C   0  0  0  0  0  0  0  0  0  0  0  0
    3.8238   -0.5076    1.2702 C   0  0  0  0  0  0  0  0  0  0  0  0
    4.4659    0.7787    0.9641 N   0  0  0  0  0  0  0  0  0  0  0  0
    5.9202    0.6689    0.8053 C   0  0  0  0  0  0  0  0  0  0  0  0
    6.6008    0.3790    2.1132 C   0  0  0  0  0  0  0  0  0  0  0  0
    7.4818   -0.6004    2.3752 C   0  0  0  0  0  0  0  0  0  0  0  0
    7.9402   -1.5885    1.3994 C   0  0  0  0  0  0  0  0  0  0  0  0
    7.1445   -2.6940    1.0777 C   0  0  0  0  0  0  0  0  0  0  0  0
    7.5863   -3.6263    0.1369 C   0  0  0  0  0  0  0  0  0  0  0  0
    8.8253   -3.4586   -0.4829 C   0  0  0  0  0  0  0  0  0  0  0  0
    9.6227   -2.3593   -0.1645 C   0  0  0  0  0  0  0  0  0  0  0  0
    9.1821   -1.4257    0.7757 C   0  0  0  0  0  0  0  0  0  0  0  0
    3.8493    1.4165   -0.2173 C   0  0  0  0  0  0  0  0  0  0  0  0
    2.4417    0.9094   -0.6083 C   0  0  0  0  0  0  0  0  0  0  0  0
   -0.6955    3.2048    0.9401 H   0  0  0  0  0  0  0  0  0  0  0  0
    0.7574    3.2559   -0.0571 H   0  0  0  0  0  0  0  0  0  0  0  0
   -0.8221    3.6075   -0.7755 H   0  0  0  0  0  0  0  0  0  0  0  0
   -0.1472    1.2655   -1.3966 H   0  0  0  0  0  0  0  0  0  0  0  0
   -2.1890    0.5976    0.4907 H   0  0  0  0  0  0  0  0  0  0  0  0
   -4.5597    0.9035   -3.2917 H   0  0  0  0  0  0  0  0  0  0  0  0
   -6.8952    0.2232   -3.0807 H   0  0  0  0  0  0  0  0  0  0  0  0
   -8.2936   -1.2370    1.1562 H   0  0  0  0  0  0  0  0  0  0  0  0
   -8.8027    0.4624    1.2405 H   0  0  0  0  0  0  0  0  0  0  0  0
   -9.9255   -0.7716    0.6713 H   0  0  0  0  0  0  0  0  0  0  0  0
   -8.3986   -1.4814   -2.6284 H   0  0  0  0  0  0  0  0  0  0  0  0
   -9.6404   -1.9176   -1.4594 H   0  0  0  0  0  0  0  0  0  0  0  0
   -7.9525   -2.3612   -1.1621 H   0  0  0  0  0  0  0  0  0  0  0  0
   -9.0750    0.9871   -2.4971 H   0  0  0  0  0  0  0  0  0  0  0  0
  -10.3432    0.5902   -1.3388 H   0  0  0  0  0  0  0  0  0  0  0  0
   -9.1305    1.8158   -0.9365 H   0  0  0  0  0  0  0  0  0  0  0  0
   -6.5015    0.3032    1.2295 H   0  0  0  0  0  0  0  0  0  0  0  0
   -4.2023    1.0007    1.0058 H   0  0  0  0  0  0  0  0  0  0  0  0
    2.1645    0.1523    2.5138 H   0  0  0  0  0  0  0  0  0  0  0  0
    1.8297   -1.3039    1.5703 H   0  0  0  0  0  0  0  0  0  0  0  0
    4.2617   -0.9687    2.1627 H   0  0  0  0  0  0  0  0  0  0  0  0
    3.9679   -1.2117    0.4404 H   0  0  0  0  0  0  0  0  0  0  0  0
    6.1706   -0.0624    0.0283 H   0  0  0  0  0  0  0  0  0  0  0  0
    6.3162    1.6346    0.4649 H   0  0  0  0  0  0  0  0  0  0  0  0
    6.3499    1.0638    2.9217 H   0  0  0  0  0  0  0  0  0  0  0  0
    7.9180   -0.6874    3.3672 H   0  0  0  0  0  0  0  0  0  0  0  0
    6.1779   -2.8330    1.5574 H   0  0  0  0  0  0  0  0  0  0  0  0
    6.9653   -4.4837   -0.1119 H   0  0  0  0  0  0  0  0  0  0  0  0
    9.1698   -4.1847   -1.2147 H   0  0  0  0  0  0  0  0  0  0  0  0
   10.5865   -2.2277   -0.6494 H   0  0  0  0  0  0  0  0  0  0  0  0
    9.8106   -0.5710    1.0162 H   0  0  0  0  0  0  0  0  0  0  0  0
    3.7820    2.4894   -0.0015 H   0  0  0  0  0  0  0  0  0  0  0  0
    4.4842    1.3162   -1.1070 H   0  0  0  0  0  0  0  0  0  0  0  0
    1.9419    1.6696   -1.2112 H   0  0  0  0  0  0  0  0  0  0  0  0
    2.5356    0.0172   -1.2402 H   0  0  0  0  0  0  0  0  0  0  0  0
  1  2  1  0
  2  3  1  0
  3  4  1  0
  4  5  2  0
  4  6  1  0
  6  7  2  0
  7  8  1  0
  8  9  2  0
  9 10  1  0
 10 11  1  0
 10 12  1  0
 10 13  1  0
  9 14  1  0
 14 15  2  0
  2 16  1  0
 16 17  2  0
 16 18  1  0
 18 19  1  0
 19 20  1  0
 20 21  1  0
 21 22  1  0
 22 23  1  0
 23 24  2  3
 24 25  1  0
 25 26  2  0
 26 27  1  0
 27 28  2  0
 28 29  1  0
 29 30  2  0
 21 31  1  0
 31 32  1  0
 15  6  1  0
 32 18  1  0
 30 25  1  0
  1 33  1  0
  1 34  1  0
  1 35  1  0
  2 36  1  0
  3 37  1  0
  7 38  1  0
  8 39  1  0
 11 40  1  0
 11 41  1  0
 11 42  1  0
 12 43  1  0
 12 44  1  0
 12 45  1  0
 13 46  1  0
 13 47  1  0
 13 48  1  0
 14 49  1  0
 15 50  1  0
 19 51  1  0
 19 52  1  0
 20 53  1  0
 20 54  1  0
 22 55  1  0
 22 56  1  0
 23 57  1  0
 24 58  1  0
 26 59  1  0
 27 60  1  0
 28 61  1  0
 29 62  1  0
 30 63  1  0
 31 64  1  0
 31 65  1  0
 32 66  1  0
 32 67  1  0
M  END
$$$$
