
     RDKit          3D

 44 47  0  0  0  0  0  0  0  0999 V2000
    1.8641    1.1779   -2.8187 O   0  0  0  0  0  0  0  0  0  0  0  0
    1.6320    1.2774   -1.3879 S   0  0  0  0  0  6  0  0  0  0  0  0
    1.3556    2.5759   -0.8141 O   0  0  0  0  0  0  0  0  0  0  0  0
    3.0123    0.4929   -0.5944 C   0  0  0  0  0  0  0  0  0  0  0  0
    3.8099   -0.3560   -1.3859 C   0  0  0  0  0  0  0  0  0  0  0  0
    4.9403   -0.9540   -0.8476 C   0  0  0  0  0  0  0  0  0  0  0  0
    5.2776   -0.6981    0.4752 C   0  0  0  0  0  0  0  0  0  0  0  0
    4.4828    0.1493    1.2658 C   0  0  0  0  0  0  0  0  0  0  0  0
    4.8352    0.3943    2.6003 C   0  0  0  0  0  0  0  0  0  0  0  0
    4.0516    1.2244    3.3880 C   0  0  0  0  0  0  0  0  0  0  0  0
    2.9293    1.7759    2.8129 C   0  0  0  0  0  0  0  0  0  0  0  0
    2.5564    1.5495    1.5347 N   0  0  0  0  0  0  0  0  0  0  0  0
    3.3208    0.7657    0.7410 C   0  0  0  0  0  0  0  0  0  0  0  0
    0.3077    0.2453   -1.0481 N   0  0  0  0  0  0  0  0  0  0  0  0
   -0.0415    0.1249    0.4122 C   0  0  0  0  0  0  0  0  0  0  0  0
   -1.4245   -0.5222    0.6216 C   0  0  0  0  0  0  0  0  0  0  0  0
   -2.5092    0.2633   -0.0201 N   0  0  0  0  0  0  0  0  0  0  0  0
   -3.7003   -0.4587   -0.1724 C   0  0  0  0  0  0  0  0  0  0  0  0
   -4.3136   -0.6957   -1.4108 C   0  0  0  0  0  0  0  0  0  0  0  0
   -5.5033   -1.4284   -1.5106 C   0  0  0  0  0  0  0  0  0  0  0  0
   -6.1104   -1.9383   -0.3682 C   0  0  0  0  0  0  0  0  0  0  0  0
   -5.5280   -1.7144    0.8734 C   0  0  0  0  0  0  0  0  0  0  0  0
   -4.3390   -0.9836    0.9651 C   0  0  0  0  0  0  0  0  0  0  0  0
   -2.0483    1.1742   -1.0886 C   0  0  0  0  0  0  0  0  0  0  0  0
   -0.9042    0.5454   -1.8992 C   0  0  0  0  0  0  0  0  0  0  0  0
    3.5535   -0.5477   -2.4266 H   0  0  0  0  0  0  0  0  0  0  0  0
    5.5588   -1.6080   -1.4574 H   0  0  0  0  0  0  0  0  0  0  0  0
    6.1691   -1.1656    0.8894 H   0  0  0  0  0  0  0  0  0  0  0  0
    5.7251   -0.0576    3.0324 H   0  0  0  0  0  0  0  0  0  0  0  0
    4.3110    1.4337    4.4193 H   0  0  0  0  0  0  0  0  0  0  0  0
    2.2746    2.4366    3.3746 H   0  0  0  0  0  0  0  0  0  0  0  0
    0.7060   -0.5090    0.8989 H   0  0  0  0  0  0  0  0  0  0  0  0
   -0.0376    1.1122    0.8865 H   0  0  0  0  0  0  0  0  0  0  0  0
   -1.6104   -0.6004    1.6990 H   0  0  0  0  0  0  0  0  0  0  0  0
   -1.3987   -1.5383    0.2047 H   0  0  0  0  0  0  0  0  0  0  0  0
   -3.8708   -0.3392   -2.3349 H   0  0  0  0  0  0  0  0  0  0  0  0
   -5.9511   -1.6000   -2.4860 H   0  0  0  0  0  0  0  0  0  0  0  0
   -7.0347   -2.5038   -0.4454 H   0  0  0  0  0  0  0  0  0  0  0  0
   -5.9982   -2.0981    1.7745 H   0  0  0  0  0  0  0  0  0  0  0  0
   -3.9215   -0.7994    1.9518 H   0  0  0  0  0  0  0  0  0  0  0  0
   -1.6884    2.0945   -0.6107 H   0  0  0  0  0  0  0  0  0  0  0  0
   -2.8631    1.4937   -1.7471 H   0  0  0  0  0  0  0  0  0  0  0  0
   -1.2255   -0.4029   -2.3465 H   0  0  0  0  0  0  0  0  0  0  0  0
   -0.6514    1.2122   -2.7297 H   0  0  0  0  0  0  0  0  0  0  0  0
  1  2  2  0
  2  3  2  0
  2  4  1  0
  4  5  2  0
  5  6  1  0
  6  7  2  0
  7  8  1  0
  8  9  2  0
  9 10  1  0
 10 11  2  0
 11 12  1  0
 12 13  2  0
  2 14  1  0
 14 15  1  0
 15 16  1  0
 16 17  1  0
 17 18  1  0
 18 19  2  0
 19 20  1  0
 20 21  2  0
 21 22  1  0
 22 23  2  0
 17 24  1  0
 24 25  1  0
 13  4  1  0
 25 14  1  0
 13  8  1  0
 23 18  1  0
  5 26  1  0
  6 27  1  0
  7 28  1  0
  9 29  1  0
 10 30  1  0
 11 31  1  0
 15 32  1  0
 15 33  1  0
 16 34  1  0
 16 35  1  0
 19 36  1  0
 20 37  1  0
 21 38  1  0
 22 39  1  0
 23 40  1  0
 24 41  1  0
 24 42  1  0
 25 43  1  0
 25 44  1  0
M  END
$$$$
