
     RDKit          3D

 46 50  0  0  0  0  0  0  0  0999 V2000
    3.7492    0.9197   -1.6340 O   0  0  0  0  0  0  0  0  0  0  0  0
    4.5702    0.3472   -0.9345 C   0  0  0  0  0  0  0  0  0  0  0  0
    4.3284   -0.3878    0.2102 O   0  0  0  0  0  0  0  0  0  0  0  0
    2.9759   -0.4481    0.5549 C   0  0  0  0  0  0  0  0  0  0  0  0
    2.2872   -1.6389    0.3243 C   0  0  0  0  0  0  0  0  0  0  0  0
    0.9471   -1.7342    0.6998 C   0  0  0  0  0  0  0  0  0  0  0  0
    0.3177   -0.6412    1.3095 C   0  0  0  0  0  0  0  0  0  0  0  0
   -1.0975   -0.7251    1.7175 C   0  0  0  0  0  0  0  0  0  0  0  0
   -1.7172   -1.7767    1.6181 O   0  0  0  0  0  0  0  0  0  0  0  0
   -1.6904    0.5250    2.2691 C   0  0  0  0  0  0  0  0  0  0  0  0
   -3.0237    0.5872    2.6452 O   0  0  0  0  0  0  0  0  0  0  0  0
   -3.9680    0.2447    1.7051 C   0  0  0  0  0  0  0  0  0  0  0  0
   -5.0215   -0.5591    2.1315 C   0  0  0  0  0  0  0  0  0  0  0  0
   -6.0343   -0.9105    1.2377 C   0  0  0  0  0  0  0  0  0  0  0  0
   -6.0119   -0.4483   -0.0880 C   0  0  0  0  0  0  0  0  0  0  0  0
   -7.0232   -0.7927   -0.9991 C   0  0  0  0  0  0  0  0  0  0  0  0
   -6.9911   -0.3215   -2.3126 C   0  0  0  0  0  0  0  0  0  0  0  0
   -5.9487    0.4997   -2.7319 C   0  0  0  0  0  0  0  0  0  0  0  0
   -4.9349    0.8513   -1.8392 C   0  0  0  0  0  0  0  0  0  0  0  0
   -4.9507    0.3848   -0.5145 C   0  0  0  0  0  0  0  0  0  0  0  0
   -3.9372    0.7301    0.3948 C   0  0  0  0  0  0  0  0  0  0  0  0
   -0.8746    1.5668    2.4692 C   0  0  0  0  0  0  0  0  0  0  0  0
    0.4611    1.6321    2.1591 O   0  0  0  0  0  0  0  0  0  0  0  0
    1.0254    0.5379    1.5520 C   0  0  0  0  0  0  0  0  0  0  0  0
    2.3656    0.6380    1.1829 C   0  0  0  0  0  0  0  0  0  0  0  0
    6.0215    0.3554   -1.2239 C   0  0  0  0  0  0  0  0  0  0  0  0
    6.4606    1.0416   -2.3516 C   0  0  0  0  0  0  0  0  0  0  0  0
    7.7619    1.1263   -2.7265 N   0  0  0  0  0  0  0  0  0  0  0  0
    8.6643    0.4959   -1.9386 C   0  0  0  0  0  0  0  0  0  0  0  0
    8.3201   -0.2117   -0.7967 C   0  0  0  0  0  0  0  0  0  0  0  0
    9.6434   -1.0604    0.2444 Br  0  0  0  0  0  0  0  0  0  0  0  0
    6.9787   -0.2853   -0.4300 C   0  0  0  0  0  0  0  0  0  0  0  0
    2.7828   -2.4833   -0.1460 H   0  0  0  0  0  0  0  0  0  0  0  0
    0.3951   -2.6546    0.5190 H   0  0  0  0  0  0  0  0  0  0  0  0
   -5.0479   -0.9255    3.1538 H   0  0  0  0  0  0  0  0  0  0  0  0
   -6.8417   -1.5512    1.5844 H   0  0  0  0  0  0  0  0  0  0  0  0
   -7.8459   -1.4337   -0.6903 H   0  0  0  0  0  0  0  0  0  0  0  0
   -7.7802   -0.5972   -3.0072 H   0  0  0  0  0  0  0  0  0  0  0  0
   -5.9224    0.8662   -3.7547 H   0  0  0  0  0  0  0  0  0  0  0  0
   -4.1279    1.4920   -2.1874 H   0  0  0  0  0  0  0  0  0  0  0  0
   -3.1315    1.3856    0.0772 H   0  0  0  0  0  0  0  0  0  0  0  0
   -1.2087    2.5009    2.9020 H   0  0  0  0  0  0  0  0  0  0  0  0
    2.9201    1.5515    1.3733 H   0  0  0  0  0  0  0  0  0  0  0  0
    5.7650    1.5598   -3.0091 H   0  0  0  0  0  0  0  0  0  0  0  0
    9.6968    0.5825   -2.2664 H   0  0  0  0  0  0  0  0  0  0  0  0
    6.6929   -0.8354    0.4621 H   0  0  0  0  0  0  0  0  0  0  0  0
  1  2  2  0
  2  3  1  0
  3  4  1  0
  4  5  2  0
  5  6  1  0
  6  7  2  0
  7  8  1  0
  8  9  2  0
  8 10  1  0
 10 11  1  0
 11 12  1  0
 12 13  2  0
 13 14  1  0
 14 15  2  0
 15 16  1  0
 16 17  2  0
 17 18  1  0
 18 19  2  0
 19 20  1  0
 20 21  2  0
 10 22  2  0
 22 23  1  0
 23 24  1  0
 24 25  2  0
  2 26  1  0
 26 27  2  0
 27 28  1  0
 28 29  2  0
 29 30  1  0
 30 31  1  0
 30 32  2  0
 25  4  1  0
 32 26  1  0
 24  7  1  0
 21 12  1  0
 20 15  1  0
  5 33  1  0
  6 34  1  0
 13 35  1  0
 14 36  1  0
 16 37  1  0
 17 38  1  0
 18 39  1  0
 19 40  1  0
 21 41  1  0
 22 42  1  0
 25 43  1  0
 27 44  1  0
 29 45  1  0
 32 46  1  0
M  END
$$$$
