
     RDKit          3D

 62 64  0  0  0  0  0  0  0  0999 V2000
   -3.2612    0.4639   -3.0286 C   0  0  0  0  0  0  0  0  0  0  0  0
   -2.5987    0.4031   -1.6767 C   0  0  0  0  0  0  0  0  0  0  0  0
   -1.2795    0.9144   -1.6408 C   0  0  0  0  0  0  0  0  0  0  0  0
   -0.5293    0.9211   -0.4729 C   0  0  0  0  0  0  0  0  0  0  0  0
    0.7466    1.4993   -0.5573 O   0  0  0  0  0  0  0  0  0  0  0  0
    1.5212    1.6680    0.5743 C   0  0  0  0  0  0  0  0  0  0  0  0
    2.5730    2.3049    0.5326 O   0  0  0  0  0  0  0  0  0  0  0  0
    1.0554    1.0224    1.8367 C   0  0  0  0  0  0  0  0  0  0  0  0
    2.0662    1.1461    2.9523 C   0  0  0  0  0  0  0  0  0  0  0  0
    3.2080    0.1780    2.6812 C   0  0  0  0  0  0  0  0  0  0  0  0
    3.0673   -1.0403    2.7685 O   0  0  0  0  0  0  0  0  0  0  0  0
    4.3879    0.7852    2.3013 N   0  0  0  0  0  0  0  0  0  0  0  0
    5.5307   -0.0006    1.8784 C   0  0  0  0  0  0  0  0  0  0  0  0
    5.4416   -0.4302    0.4106 C   0  0  0  0  0  0  0  0  0  0  0  0
    5.7585    0.7334   -0.5408 C   0  0  0  0  0  0  0  0  0  0  0  0
    5.6991    0.4458   -1.9819 N   0  0  0  0  0  0  0  0  0  0  0  0
    6.6228   -0.6044   -2.3975 C   0  0  0  0  0  0  0  0  0  0  0  0
    4.3404    0.1646   -2.4401 C   0  0  0  0  0  0  0  0  0  0  0  0
   -0.1424    0.4001    1.9181 C   0  0  0  0  0  0  0  0  0  0  0  0
   -0.6093   -0.3447    3.1426 C   0  0  0  0  0  0  0  0  0  0  0  0
   -1.0057    0.4112    0.7236 C   0  0  0  0  0  0  0  0  0  0  0  0
   -2.3343   -0.0496    0.6850 C   0  0  0  0  0  0  0  0  0  0  0  0
   -3.0066   -0.5417    1.7563 O   0  0  0  0  0  0  0  0  0  0  0  0
   -4.2481   -0.8583    1.3604 C   0  0  0  0  0  0  0  0  0  0  0  0
   -4.4561   -0.5758    0.0208 C   0  0  0  0  0  0  0  0  0  0  0  0
   -5.7950   -0.7952   -0.6923 C   0  0  0  0  0  0  0  0  0  0  0  0
   -6.2769    0.4879   -1.3971 C   0  0  0  0  0  0  0  0  0  0  0  0
   -5.7047   -1.9811   -1.6697 C   0  0  0  0  0  0  0  0  0  0  0  0
   -6.9299   -1.1536    0.3121 C   0  0  0  0  0  0  0  0  0  0  0  0
   -3.1688   -0.0609   -0.4504 C   0  0  0  0  0  0  0  0  0  0  0  0
   -3.6827    1.4590   -3.1926 H   0  0  0  0  0  0  0  0  0  0  0  0
   -2.5350    0.2641   -3.8260 H   0  0  0  0  0  0  0  0  0  0  0  0
   -4.0415   -0.2826   -3.1449 H   0  0  0  0  0  0  0  0  0  0  0  0
   -0.8301    1.3177   -2.5483 H   0  0  0  0  0  0  0  0  0  0  0  0
    1.6615    0.9249    3.9447 H   0  0  0  0  0  0  0  0  0  0  0  0
    2.4376    2.1768    3.0270 H   0  0  0  0  0  0  0  0  0  0  0  0
    4.3116    1.7321    1.9364 H   0  0  0  0  0  0  0  0  0  0  0  0
    6.4291    0.5997    2.0614 H   0  0  0  0  0  0  0  0  0  0  0  0
    5.5880   -0.8920    2.5128 H   0  0  0  0  0  0  0  0  0  0  0  0
    4.4481   -0.8416    0.2023 H   0  0  0  0  0  0  0  0  0  0  0  0
    6.1688   -1.2350    0.2517 H   0  0  0  0  0  0  0  0  0  0  0  0
    5.0914    1.5773   -0.3303 H   0  0  0  0  0  0  0  0  0  0  0  0
    6.7650    1.1084   -0.3138 H   0  0  0  0  0  0  0  0  0  0  0  0
    6.6906   -0.6387   -3.4917 H   0  0  0  0  0  0  0  0  0  0  0  0
    7.6343   -0.3997   -2.0270 H   0  0  0  0  0  0  0  0  0  0  0  0
    6.3203   -1.5975   -2.0447 H   0  0  0  0  0  0  0  0  0  0  0  0
    3.6589    0.9753   -2.1576 H   0  0  0  0  0  0  0  0  0  0  0  0
    3.9457   -0.7740   -2.0364 H   0  0  0  0  0  0  0  0  0  0  0  0
    4.3111    0.1008   -3.5343 H   0  0  0  0  0  0  0  0  0  0  0  0
   -0.9284   -1.3609    2.8829 H   0  0  0  0  0  0  0  0  0  0  0  0
   -1.4364    0.1852    3.6257 H   0  0  0  0  0  0  0  0  0  0  0  0
    0.1696   -0.4790    3.8966 H   0  0  0  0  0  0  0  0  0  0  0  0
   -4.8784   -1.2617    2.1418 H   0  0  0  0  0  0  0  0  0  0  0  0
   -7.2981    0.3706   -1.7819 H   0  0  0  0  0  0  0  0  0  0  0  0
   -6.2774    1.3392   -0.7059 H   0  0  0  0  0  0  0  0  0  0  0  0
   -5.6652    0.7661   -2.2526 H   0  0  0  0  0  0  0  0  0  0  0  0
   -5.6549   -2.9318   -1.1311 H   0  0  0  0  0  0  0  0  0  0  0  0
   -6.5782   -2.0213   -2.3235 H   0  0  0  0  0  0  0  0  0  0  0  0
   -4.8179   -1.9527   -2.2988 H   0  0  0  0  0  0  0  0  0  0  0  0
   -6.7194   -2.0842    0.8518 H   0  0  0  0  0  0  0  0  0  0  0  0
   -7.0740   -0.3594    1.0556 H   0  0  0  0  0  0  0  0  0  0  0  0
   -7.8866   -1.2979   -0.2056 H   0  0  0  0  0  0  0  0  0  0  0  0
  1  2  1  0
  2  3  2  0
  3  4  1  0
  4  5  1  0
  5  6  1  0
  6  7  2  0
  6  8  1  0
  8  9  1  0
  9 10  1  0
 10 11  2  0
 10 12  1  0
 12 13  1  0
 13 14  1  0
 14 15  1  0
 15 16  1  0
 16 17  1  0
 16 18  1  0
  8 19  2  0
 19 20  1  0
 19 21  1  0
 21 22  1  0
 22 23  1  0
 23 24  1  0
 24 25  2  0
 25 26  1  0
 26 27  1  0
 26 28  1  0
 26 29  1  0
 25 30  1  0
 30  2  1  0
 21  4  2  0
 30 22  2  0
  1 31  1  0
  1 32  1  0
  1 33  1  0
  3 34  1  0
  9 35  1  0
  9 36  1  0
 12 37  1  0
 13 38  1  0
 13 39  1  0
 14 40  1  0
 14 41  1  0
 15 42  1  0
 15 43  1  0
 17 44  1  0
 17 45  1  0
 17 46  1  0
 18 47  1  0
 18 48  1  0
 18 49  1  0
 20 50  1  0
 20 51  1  0
 20 52  1  0
 24 53  1  0
 27 54  1  0
 27 55  1  0
 27 56  1  0
 28 57  1  0
 28 58  1  0
 28 59  1  0
 29 60  1  0
 29 61  1  0
 29 62  1  0
M  END
$$$$
