
     RDKit          3D

 48 50  0  0  0  0  0  0  0  0999 V2000
    6.6296    0.0463    2.4081 C   0  0  0  0  0  0  0  0  0  0  0  0
    7.1357   -0.7313    1.2039 C   0  0  0  0  0  0  0  0  0  0  0  0
    6.6164   -0.2216   -0.1451 C   0  0  0  0  0  0  0  0  0  0  0  0
    5.1095   -0.3897   -0.3452 C   0  0  0  0  0  0  0  0  0  0  0  0
    4.4211    0.6082    0.4061 O   0  0  0  0  0  0  0  0  0  0  0  0
    3.0563    0.6054    0.3432 C   0  0  0  0  0  0  0  0  0  0  0  0
    2.4339    1.5893    1.1090 C   0  0  0  0  0  0  0  0  0  0  0  0
    1.0392    1.6980    1.1336 C   0  0  0  0  0  0  0  0  0  0  0  0
    0.2305    0.8367    0.3772 C   0  0  0  0  0  0  0  0  0  0  0  0
   -1.1701    0.9599    0.4767 N   0  0  0  0  0  0  0  0  0  0  0  0
   -2.1239    0.4872   -0.3862 C   0  0  0  0  0  0  0  0  0  0  0  0
   -1.9263   -0.0945   -1.5195 N   0  0  0  0  0  0  0  0  0  0  0  0
   -3.0098   -0.4161   -2.2714 C   0  0  0  0  0  0  0  0  0  0  0  0
   -2.7621   -0.7821   -3.5528 N   0  0  0  0  0  0  0  0  0  0  0  0
   -4.2273   -0.4322   -1.8552 N   0  0  0  0  0  0  0  0  0  0  0  0
   -4.4278   -0.0566   -0.4682 C   0  0  0  0  0  0  0  0  0  0  0  0
   -4.7080   -1.3186    0.3587 C   0  0  0  0  0  0  0  0  0  0  0  0
   -6.1576   -1.6801    0.0438 C   0  0  0  0  0  0  0  0  0  0  0  0
   -6.8346   -0.3809   -0.3892 C   0  0  0  0  0  0  0  0  0  0  0  0
   -5.7547    0.6988   -0.3482 C   0  0  0  0  0  0  0  0  0  0  0  0
   -3.3670    0.7209    0.1118 N   0  0  0  0  0  0  0  0  0  0  0  0
    0.8689   -0.1621   -0.3648 C   0  0  0  0  0  0  0  0  0  0  0  0
    2.2671   -0.2741   -0.3923 C   0  0  0  0  0  0  0  0  0  0  0  0
    5.5633   -0.1272    2.5778 H   0  0  0  0  0  0  0  0  0  0  0  0
    7.1593   -0.2757    3.3106 H   0  0  0  0  0  0  0  0  0  0  0  0
    6.7955    1.1208    2.2837 H   0  0  0  0  0  0  0  0  0  0  0  0
    8.2308   -0.6711    1.1914 H   0  0  0  0  0  0  0  0  0  0  0  0
    6.8817   -1.7911    1.3234 H   0  0  0  0  0  0  0  0  0  0  0  0
    6.8919    0.8335   -0.2613 H   0  0  0  0  0  0  0  0  0  0  0  0
    7.1320   -0.7839   -0.9330 H   0  0  0  0  0  0  0  0  0  0  0  0
    4.8881   -0.2548   -1.4109 H   0  0  0  0  0  0  0  0  0  0  0  0
    4.8033   -1.3942   -0.0296 H   0  0  0  0  0  0  0  0  0  0  0  0
    3.0382    2.2769    1.6954 H   0  0  0  0  0  0  0  0  0  0  0  0
    0.5942    2.4739    1.7510 H   0  0  0  0  0  0  0  0  0  0  0  0
   -1.4554    1.8019    0.9570 H   0  0  0  0  0  0  0  0  0  0  0  0
   -1.8252   -1.1399   -3.6722 H   0  0  0  0  0  0  0  0  0  0  0  0
   -3.4949   -1.3650   -3.9314 H   0  0  0  0  0  0  0  0  0  0  0  0
   -4.0278   -2.1450    0.1247 H   0  0  0  0  0  0  0  0  0  0  0  0
   -4.6156   -1.1141    1.4334 H   0  0  0  0  0  0  0  0  0  0  0  0
   -6.6536   -2.1289    0.9104 H   0  0  0  0  0  0  0  0  0  0  0  0
   -6.2001   -2.4112   -0.7719 H   0  0  0  0  0  0  0  0  0  0  0  0
   -7.6749   -0.1242    0.2640 H   0  0  0  0  0  0  0  0  0  0  0  0
   -7.2319   -0.4882   -1.4051 H   0  0  0  0  0  0  0  0  0  0  0  0
   -5.8170    1.2311    0.6102 H   0  0  0  0  0  0  0  0  0  0  0  0
   -5.8971    1.4404   -1.1421 H   0  0  0  0  0  0  0  0  0  0  0  0
   -3.4113    0.7706    1.1206 H   0  0  0  0  0  0  0  0  0  0  0  0
    0.2892   -0.8834   -0.9336 H   0  0  0  0  0  0  0  0  0  0  0  0
    2.6982   -1.0646   -0.9967 H   0  0  0  0  0  0  0  0  0  0  0  0
  1  2  1  0
  2  3  1  0
  3  4  1  0
  4  5  1  0
  5  6  1  0
  6  7  2  0
  7  8  1  0
  8  9  2  0
  9 10  1  0
 10 11  1  0
 11 12  2  0
 12 13  1  0
 13 14  1  0
 13 15  2  0
 15 16  1  0
 16 17  1  0
 17 18  1  0
 18 19  1  0
 19 20  1  0
 16 21  1  0
  9 22  1  0
 22 23  2  0
 23  6  1  0
 21 11  1  0
 20 16  1  0
  1 24  1  0
  1 25  1  0
  1 26  1  0
  2 27  1  0
  2 28  1  0
  3 29  1  0
  3 30  1  0
  4 31  1  0
  4 32  1  0
  7 33  1  0
  8 34  1  0
 10 35  1  0
 14 36  1  0
 14 37  1  0
 17 38  1  0
 17 39  1  0
 18 40  1  0
 18 41  1  0
 19 42  1  0
 19 43  1  0
 20 44  1  0
 20 45  1  0
 21 46  1  0
 22 47  1  0
 23 48  1  0
M  END
$$$$
