
     RDKit          3D

 23 24  0  0  0  0  0  0  0  0999 V2000
   -5.0442    0.3014    0.4304 C   0  0  0  0  0  0  0  0  0  0  0  0
   -4.2570    1.7095   -0.3807 S   0  0  0  0  0  0  0  0  0  0  0  0
   -2.6026    1.1437   -0.4873 C   0  0  0  0  0  0  0  0  0  0  0  0
   -2.2341   -0.0251   -0.0177 N   0  0  0  0  0  0  0  0  0  0  0  0
   -0.8805   -0.2109   -0.2363 C   0  0  0  0  0  0  0  0  0  0  0  0
   -0.1353   -1.3516    0.1291 C   0  0  0  0  0  0  0  0  0  0  0  0
    1.2342   -1.4103   -0.1511 C   0  0  0  0  0  0  0  0  0  0  0  0
    1.8605   -0.3370   -0.7839 C   0  0  0  0  0  0  0  0  0  0  0  0
    3.5893   -0.4342   -1.1591 S   0  0  0  0  0  6  0  0  0  0  0  0
    4.2730    0.2990    0.1864 N   0  0  0  0  0  0  0  0  0  0  0  0
    4.0075   -1.8155   -1.1166 O   0  0  0  0  0  0  0  0  0  0  0  0
    3.8780    0.4313   -2.2779 O   0  0  0  0  0  0  0  0  0  0  0  0
    1.1464    0.8047   -1.1717 C   0  0  0  0  0  0  0  0  0  0  0  0
   -0.2271    0.8431   -0.8801 C   0  0  0  0  0  0  0  0  0  0  0  0
   -1.3711    2.0871   -1.2105 S   0  0  0  0  0  0  0  0  0  0  0  0
   -4.6029    0.1251    1.4154 H   0  0  0  0  0  0  0  0  0  0  0  0
   -4.9484   -0.6008   -0.1801 H   0  0  0  0  0  0  0  0  0  0  0  0
   -6.1083    0.5143    0.5641 H   0  0  0  0  0  0  0  0  0  0  0  0
   -0.6344   -2.1796    0.6243 H   0  0  0  0  0  0  0  0  0  0  0  0
    1.7977   -2.2982    0.1295 H   0  0  0  0  0  0  0  0  0  0  0  0
    4.8541   -0.3726    0.6895 H   0  0  0  0  0  0  0  0  0  0  0  0
    4.7736    1.1429   -0.0947 H   0  0  0  0  0  0  0  0  0  0  0  0
    1.6314    1.6337   -1.6797 H   0  0  0  0  0  0  0  0  0  0  0  0
  1  2  1  0
  2  3  1  0
  3  4  2  0
  4  5  1  0
  5  6  2  0
  6  7  1  0
  7  8  2  0
  8  9  1  0
  9 10  1  0
  9 11  2  0
  9 12  2  0
  8 13  1  0
 13 14  2  0
 14 15  1  0
 15  3  1  0
 14  5  1  0
  1 16  1  0
  1 17  1  0
  1 18  1  0
  6 19  1  0
  7 20  1  0
 10 21  1  0
 10 22  1  0
 13 23  1  0
M  END
$$$$
