
     RDKit          3D

 48 52  0  0  0  0  0  0  0  0999 V2000
    5.1831   -1.0492   -2.4201 C   0  0  0  0  0  0  0  0  0  0  0  0
    4.0131   -0.6976   -1.5505 C   0  0  0  0  0  0  0  0  0  0  0  0
    2.7706   -0.3988   -2.1172 C   0  0  0  0  0  0  0  0  0  0  0  0
    1.6873   -0.0452   -1.3076 C   0  0  0  0  0  0  0  0  0  0  0  0
    1.8251    0.0385    0.0887 C   0  0  0  0  0  0  0  0  0  0  0  0
    0.6846    0.4274    1.0109 C   0  0  0  0  0  0  0  0  0  0  0  0
    0.2661    1.7884    0.6091 C   0  0  0  0  0  0  0  0  0  0  0  0
   -1.0665    1.7951    0.1659 C   0  0  0  0  0  0  0  0  0  0  0  0
   -1.4317    3.0922   -0.0763 C   0  0  0  0  0  0  0  0  0  0  0  0
   -2.6068    3.6342   -0.3690 O   0  0  0  0  0  0  0  0  0  0  0  0
   -0.2953    3.8594    0.0964 N   0  0  0  0  0  0  0  0  0  0  0  0
   -0.2245    5.2899   -0.0968 C   0  0  0  0  0  0  0  0  0  0  0  0
    0.7524    3.0686    0.5361 C   0  0  0  0  0  0  0  0  0  0  0  0
    1.9463    3.5851    0.7956 O   0  0  0  0  0  0  0  0  0  0  0  0
   -1.6615    0.4334    0.1649 C   0  0  0  0  0  0  0  0  0  0  0  0
   -3.0061    0.4030    0.8930 C   0  0  0  0  0  0  0  0  0  0  0  0
   -3.7306    1.4008    1.0080 O   0  0  0  0  0  0  0  0  0  0  0  0
   -3.5550   -0.8003    1.2385 N   0  0  0  0  0  0  0  0  0  0  0  0
   -3.1072   -2.0931    0.9243 C   0  0  0  0  0  0  0  0  0  0  0  0
   -4.1269   -3.0549    0.7930 C   0  0  0  0  0  0  0  0  0  0  0  0
   -3.8416   -4.3748    0.4389 C   0  0  0  0  0  0  0  0  0  0  0  0
   -2.5263   -4.7632    0.2305 C   0  0  0  0  0  0  0  0  0  0  0  0
   -1.5020   -3.8333    0.3996 C   0  0  0  0  0  0  0  0  0  0  0  0
   -1.7771   -2.4955    0.7521 C   0  0  0  0  0  0  0  0  0  0  0  0
   -0.5866   -1.6767    1.0807 C   0  0  0  0  0  0  0  0  0  0  0  0
    0.3745   -2.2442    1.5994 O   0  0  0  0  0  0  0  0  0  0  0  0
   -0.5751   -0.3339    0.8112 N   0  0  0  0  0  0  0  0  0  0  0  0
    3.0804   -0.2568    0.6465 C   0  0  0  0  0  0  0  0  0  0  0  0
    4.1622   -0.6141   -0.1631 C   0  0  0  0  0  0  0  0  0  0  0  0
    5.8454   -1.7591   -1.9132 H   0  0  0  0  0  0  0  0  0  0  0  0
    5.7513   -0.1467   -2.6660 H   0  0  0  0  0  0  0  0  0  0  0  0
    4.8519   -1.5225   -3.3507 H   0  0  0  0  0  0  0  0  0  0  0  0
    2.6349   -0.4396   -3.1956 H   0  0  0  0  0  0  0  0  0  0  0  0
    0.7351    0.1779   -1.7823 H   0  0  0  0  0  0  0  0  0  0  0  0
    0.9607    0.3753    2.0699 H   0  0  0  0  0  0  0  0  0  0  0  0
   -3.2898    2.9969   -0.0660 H   0  0  0  0  0  0  0  0  0  0  0  0
   -0.4262    5.7722    0.8627 H   0  0  0  0  0  0  0  0  0  0  0  0
   -0.9652    5.5949   -0.8404 H   0  0  0  0  0  0  0  0  0  0  0  0
    0.7718    5.5567   -0.4581 H   0  0  0  0  0  0  0  0  0  0  0  0
    2.5566    2.8397    0.9422 H   0  0  0  0  0  0  0  0  0  0  0  0
   -1.7949    0.0604   -0.8568 H   0  0  0  0  0  0  0  0  0  0  0  0
   -4.5218   -0.6928    1.5263 H   0  0  0  0  0  0  0  0  0  0  0  0
   -5.1702   -2.7817    0.9412 H   0  0  0  0  0  0  0  0  0  0  0  0
   -4.6473   -5.0971    0.3293 H   0  0  0  0  0  0  0  0  0  0  0  0
   -2.2907   -5.7913   -0.0345 H   0  0  0  0  0  0  0  0  0  0  0  0
   -0.4692   -4.1631    0.2839 H   0  0  0  0  0  0  0  0  0  0  0  0
    3.2216   -0.2270    1.7254 H   0  0  0  0  0  0  0  0  0  0  0  0
    5.1210   -0.8371    0.2998 H   0  0  0  0  0  0  0  0  0  0  0  0
  1  2  1  0
  2  3  2  0
  3  4  1  0
  4  5  2  0
  5  6  1  0
  6  7  1  0
  7  8  1  0
  8  9  2  0
  9 10  1  0
  9 11  1  0
 11 12  1  0
 11 13  1  0
 13 14  1  0
  8 15  1  0
 15 16  1  0
 16 17  2  0
 16 18  1  0
 18 19  1  0
 19 20  2  0
 20 21  1  0
 21 22  2  0
 22 23  1  0
 23 24  2  0
 24 25  1  0
 25 26  2  0
 25 27  1  0
  5 28  1  0
 28 29  2  0
 29  2  1  0
 27  6  1  0
 13  7  2  0
 27 15  1  0
 24 19  1  0
  1 30  1  0
  1 31  1  0
  1 32  1  0
  3 33  1  0
  4 34  1  0
  6 35  1  0
 10 36  1  0
 12 37  1  0
 12 38  1  0
 12 39  1  0
 14 40  1  0
 15 41  1  0
 18 42  1  0
 20 43  1  0
 21 44  1  0
 22 45  1  0
 23 46  1  0
 28 47  1  0
 29 48  1  0
M  END
$$$$
