
     RDKit          3D

 36 38  0  0  0  0  0  0  0  0999 V2000
    5.9139   -0.1082   -0.0906 C   0  0  0  0  0  0  0  0  0  0  0  0
    4.4520   -0.2036    0.2364 C   0  0  0  0  0  0  0  0  0  0  0  0
    3.7721   -1.4205    0.0869 C   0  0  0  0  0  0  0  0  0  0  0  0
    2.4212   -1.5207    0.4214 C   0  0  0  0  0  0  0  0  0  0  0  0
    1.7501   -0.3987    0.9138 C   0  0  0  0  0  0  0  0  0  0  0  0
    0.0339   -0.5417    1.3327 S   0  0  0  0  0  6  0  0  0  0  0  0
   -0.4500    0.7487    1.7739 O   0  0  0  0  0  0  0  0  0  0  0  0
   -0.1167   -1.7190    2.1591 O   0  0  0  0  0  0  0  0  0  0  0  0
   -0.6991   -0.8636   -0.1774 N   0  0  0  0  0  0  0  0  0  0  0  0
   -0.6780    0.2973   -1.1264 C   0  0  0  0  0  0  0  0  0  0  0  0
   -1.8401    1.2897   -1.0414 C   0  0  0  0  0  0  0  0  0  0  0  0
   -1.7679    2.4038   -1.5594 O   0  0  0  0  0  0  0  0  0  0  0  0
   -3.0021    0.8157   -0.4901 N   0  0  0  0  0  0  0  0  0  0  0  0
   -4.2487    1.5117   -0.4447 C   0  0  0  0  0  0  0  0  0  0  0  0
   -5.2166    0.3721   -0.1910 C   0  0  0  0  0  0  0  0  0  0  0  0
   -4.4418   -0.7410    0.3178 O   0  0  0  0  0  0  0  0  0  0  0  0
   -3.0707   -0.3290    0.3680 C   0  0  0  0  0  0  0  0  0  0  0  0
   -2.0913   -1.4238   -0.0646 C   0  0  0  0  0  0  0  0  0  0  0  0
    2.4183    0.8144    1.0902 C   0  0  0  0  0  0  0  0  0  0  0  0
    3.7695    0.9071    0.7527 C   0  0  0  0  0  0  0  0  0  0  0  0
    6.1749    0.9028   -0.4207 H   0  0  0  0  0  0  0  0  0  0  0  0
    6.1776   -0.7931   -0.9035 H   0  0  0  0  0  0  0  0  0  0  0  0
    6.5114   -0.3584    0.7914 H   0  0  0  0  0  0  0  0  0  0  0  0
    4.2943   -2.2983   -0.2887 H   0  0  0  0  0  0  0  0  0  0  0  0
    1.9009   -2.4686    0.3033 H   0  0  0  0  0  0  0  0  0  0  0  0
   -0.6859   -0.1178   -2.1420 H   0  0  0  0  0  0  0  0  0  0  0  0
    0.2565    0.8579   -1.0287 H   0  0  0  0  0  0  0  0  0  0  0  0
   -4.4505    2.0700   -1.3626 H   0  0  0  0  0  0  0  0  0  0  0  0
   -4.2214    2.2088    0.3997 H   0  0  0  0  0  0  0  0  0  0  0  0
   -5.9998    0.6357    0.5254 H   0  0  0  0  0  0  0  0  0  0  0  0
   -5.6900    0.0391   -1.1204 H   0  0  0  0  0  0  0  0  0  0  0  0
   -2.8683   -0.0021    1.3938 H   0  0  0  0  0  0  0  0  0  0  0  0
   -2.3795   -1.8275   -1.0440 H   0  0  0  0  0  0  0  0  0  0  0  0
   -2.1211   -2.2766    0.6214 H   0  0  0  0  0  0  0  0  0  0  0  0
    1.9029    1.6855    1.4890 H   0  0  0  0  0  0  0  0  0  0  0  0
    4.2900    1.8521    0.8969 H   0  0  0  0  0  0  0  0  0  0  0  0
  1  2  1  0
  2  3  2  0
  3  4  1  0
  4  5  2  0
  5  6  1  0
  6  7  2  0
  6  8  2  0
  6  9  1  0
  9 10  1  0
 10 11  1  0
 11 12  2  0
 11 13  1  0
 13 14  1  0
 14 15  1  0
 15 16  1  0
 16 17  1  0
 17 18  1  0
  5 19  1  0
 19 20  2  0
 20  2  1  0
 18  9  1  0
 17 13  1  0
  1 21  1  0
  1 22  1  0
  1 23  1  0
  3 24  1  0
  4 25  1  0
 10 26  1  0
 10 27  1  0
 14 28  1  0
 14 29  1  0
 15 30  1  0
 15 31  1  0
 17 32  1  0
 18 33  1  0
 18 34  1  0
 19 35  1  0
 20 36  1  0
M  END
$$$$
