
     RDKit          3D

 50 52  0  0  0  0  0  0  0  0999 V2000
   -8.7896    0.2590    1.2156 C   0  0  0  0  0  0  0  0  0  0  0  0
   -8.0375    0.1188    0.0187 O   0  0  0  0  0  0  0  0  0  0  0  0
   -6.6689    0.1533    0.1162 C   0  0  0  0  0  0  0  0  0  0  0  0
   -5.9667    0.3246    1.3136 C   0  0  0  0  0  0  0  0  0  0  0  0
   -4.5705    0.3506    1.3134 C   0  0  0  0  0  0  0  0  0  0  0  0
   -3.8655    0.2172    0.1145 C   0  0  0  0  0  0  0  0  0  0  0  0
   -2.3803    0.2565    0.1646 C   0  0  0  0  0  0  0  0  0  0  0  0
   -1.7851   -0.1627    1.1532 O   0  0  0  0  0  0  0  0  0  0  0  0
   -1.7473    0.8273   -0.9318 N   0  0  0  0  0  0  0  0  0  0  0  0
   -0.3885    0.9433   -1.2000 C   0  0  0  0  0  0  0  0  0  0  0  0
   -0.0137    1.7156   -2.6319 S   0  0  0  0  0  0  0  0  0  0  0  0
    0.4297    0.4001   -0.2393 N   0  0  0  0  0  0  0  0  0  0  0  0
    1.8280    0.2579   -0.1094 C   0  0  0  0  0  0  0  0  0  0  0  0
    2.7816    0.6230   -1.0490 C   0  0  0  0  0  0  0  0  0  0  0  0
    4.1519    0.4233   -0.7978 C   0  0  0  0  0  0  0  0  0  0  0  0
    4.6269   -0.1460    0.3910 C   0  0  0  0  0  0  0  0  0  0  0  0
    5.9669   -0.3359    0.6254 N   0  0  0  0  0  0  0  0  0  0  0  0
    6.5236   -0.7907    1.8971 C   0  0  0  0  0  0  0  0  0  0  0  0
    8.0221   -0.5353    1.7550 C   0  0  0  0  0  0  0  0  0  0  0  0
    8.2610   -0.7152    0.2664 C   0  0  0  0  0  0  0  0  0  0  0  0
    7.0171   -0.0898   -0.3598 C   0  0  0  0  0  0  0  0  0  0  0  0
    3.6497   -0.5117    1.3232 C   0  0  0  0  0  0  0  0  0  0  0  0
    2.2809   -0.3172    1.0816 C   0  0  0  0  0  0  0  0  0  0  0  0
   -4.5585    0.0237   -1.0879 C   0  0  0  0  0  0  0  0  0  0  0  0
   -5.9584   -0.0052   -1.0932 C   0  0  0  0  0  0  0  0  0  0  0  0
   -6.7242   -0.1819   -2.2192 O   0  0  0  0  0  0  0  0  0  0  0  0
   -6.0590   -0.4184   -3.4516 C   0  0  0  0  0  0  0  0  0  0  0  0
   -8.6119    1.2337    1.6817 H   0  0  0  0  0  0  0  0  0  0  0  0
   -9.8504    0.2055    0.9522 H   0  0  0  0  0  0  0  0  0  0  0  0
   -8.5789   -0.5586    1.9127 H   0  0  0  0  0  0  0  0  0  0  0  0
   -6.4754    0.4387    2.2653 H   0  0  0  0  0  0  0  0  0  0  0  0
   -4.0362    0.4799    2.2533 H   0  0  0  0  0  0  0  0  0  0  0  0
   -2.3197    1.2590   -1.6444 H   0  0  0  0  0  0  0  0  0  0  0  0
   -0.0931    0.0433    0.5630 H   0  0  0  0  0  0  0  0  0  0  0  0
    2.5243    1.0640   -2.0016 H   0  0  0  0  0  0  0  0  0  0  0  0
    4.8465    0.7391   -1.5714 H   0  0  0  0  0  0  0  0  0  0  0  0
    6.3272   -1.8605    2.0324 H   0  0  0  0  0  0  0  0  0  0  0  0
    6.1273   -0.2371    2.7550 H   0  0  0  0  0  0  0  0  0  0  0  0
    8.2575    0.4948    2.0490 H   0  0  0  0  0  0  0  0  0  0  0  0
    8.6223   -1.2125    2.3688 H   0  0  0  0  0  0  0  0  0  0  0  0
    8.3087   -1.7834    0.0223 H   0  0  0  0  0  0  0  0  0  0  0  0
    9.1854   -0.2432   -0.0778 H   0  0  0  0  0  0  0  0  0  0  0  0
    7.1579    0.9882   -0.4990 H   0  0  0  0  0  0  0  0  0  0  0  0
    6.8070   -0.5573   -1.3277 H   0  0  0  0  0  0  0  0  0  0  0  0
    3.9305   -0.9702    2.2668 H   0  0  0  0  0  0  0  0  0  0  0  0
    1.5763   -0.6273    1.8503 H   0  0  0  0  0  0  0  0  0  0  0  0
   -4.0017   -0.1314   -2.0047 H   0  0  0  0  0  0  0  0  0  0  0  0
   -5.4572   -1.3321   -3.4069 H   0  0  0  0  0  0  0  0  0  0  0  0
   -6.8224   -0.5603   -4.2225 H   0  0  0  0  0  0  0  0  0  0  0  0
   -5.4496    0.4436   -3.7417 H   0  0  0  0  0  0  0  0  0  0  0  0
  1  2  1  0
  2  3  1  0
  3  4  2  0
  4  5  1  0
  5  6  2  0
  6  7  1  0
  7  8  2  0
  7  9  1  0
  9 10  1  0
 10 11  2  0
 10 12  1  0
 12 13  1  0
 13 14  2  0
 14 15  1  0
 15 16  2  0
 16 17  1  0
 17 18  1  0
 18 19  1  0
 19 20  1  0
 20 21  1  0
 16 22  1  0
 22 23  2  0
  6 24  1  0
 24 25  2  0
 25 26  1  0
 26 27  1  0
 25  3  1  0
 23 13  1  0
 21 17  1  0
  1 28  1  0
  1 29  1  0
  1 30  1  0
  4 31  1  0
  5 32  1  0
  9 33  1  0
 12 34  1  0
 14 35  1  0
 15 36  1  0
 18 37  1  0
 18 38  1  0
 19 39  1  0
 19 40  1  0
 20 41  1  0
 20 42  1  0
 21 43  1  0
 21 44  1  0
 22 45  1  0
 23 46  1  0
 24 47  1  0
 27 48  1  0
 27 49  1  0
 27 50  1  0
M  END
$$$$
