
     RDKit          3D

 45 46  0  0  0  0  0  0  0  0999 V2000
    5.3626   -3.1523    1.3919 C   0  0  0  0  0  0  0  0  0  0  0  0
    4.1884   -2.9120    0.4901 C   0  0  0  0  0  0  0  0  0  0  0  0
    3.9405   -3.7626   -0.5913 C   0  0  0  0  0  0  0  0  0  0  0  0
    2.8237   -3.5609   -1.4006 C   0  0  0  0  0  0  0  0  0  0  0  0
    1.9449   -2.5074   -1.1380 C   0  0  0  0  0  0  0  0  0  0  0  0
    2.1826   -1.6391   -0.0720 C   0  0  0  0  0  0  0  0  0  0  0  0
    1.3092   -0.5855    0.2802 N   0  0  0  0  0  0  0  0  0  0  0  0
    0.4072    0.1217   -0.5021 C   0  0  0  0  0  0  0  0  0  0  0  0
    0.6616    0.4372   -2.1398 S   0  0  0  0  0  0  0  0  0  0  0  0
   -0.6879    0.6273    0.2359 N   0  0  0  0  0  0  0  0  0  0  0  0
   -1.6361    1.6078   -0.3424 C   0  0  0  0  0  0  0  0  0  0  0  0
   -1.1197    3.0556   -0.1969 C   0  0  0  0  0  0  0  0  0  0  0  0
   -2.1140    4.0834   -0.5668 N   0  0  0  0  0  0  0  0  0  0  0  0
   -1.6176    5.4114   -0.1932 C   0  0  0  0  0  0  0  0  0  0  0  0
   -2.4038    4.0572   -2.0039 C   0  0  0  0  0  0  0  0  0  0  0  0
   -1.0677    0.1090    1.5624 C   0  0  0  0  0  0  0  0  0  0  0  0
   -2.0594   -1.0118    1.4219 C   0  0  0  0  0  0  0  0  0  0  0  0
   -3.4403   -0.9469    1.4616 C   0  0  0  0  0  0  0  0  0  0  0  0
   -4.0522   -2.2234    1.3008 C   0  0  0  0  0  0  0  0  0  0  0  0
   -3.1205   -3.2255    1.1547 C   0  0  0  0  0  0  0  0  0  0  0  0
   -1.5211   -2.6285    1.2175 S   0  0  0  0  0  0  0  0  0  0  0  0
    3.2913   -1.8663    0.7547 C   0  0  0  0  0  0  0  0  0  0  0  0
    5.0721   -3.8097    2.2170 H   0  0  0  0  0  0  0  0  0  0  0  0
    6.1888   -3.6168    0.8434 H   0  0  0  0  0  0  0  0  0  0  0  0
    5.7369   -2.2094    1.8043 H   0  0  0  0  0  0  0  0  0  0  0  0
    4.6102   -4.5923   -0.8058 H   0  0  0  0  0  0  0  0  0  0  0  0
    2.6264   -4.2318   -2.2327 H   0  0  0  0  0  0  0  0  0  0  0  0
    1.0607   -2.4093   -1.7600 H   0  0  0  0  0  0  0  0  0  0  0  0
    1.5277   -0.1333    1.1564 H   0  0  0  0  0  0  0  0  0  0  0  0
   -2.5999    1.5175    0.1709 H   0  0  0  0  0  0  0  0  0  0  0  0
   -1.8281    1.3587   -1.3893 H   0  0  0  0  0  0  0  0  0  0  0  0
   -0.1918    3.1901   -0.7668 H   0  0  0  0  0  0  0  0  0  0  0  0
   -0.8517    3.1960    0.8591 H   0  0  0  0  0  0  0  0  0  0  0  0
   -2.3622    6.1807   -0.4267 H   0  0  0  0  0  0  0  0  0  0  0  0
   -1.4417    5.4672    0.8869 H   0  0  0  0  0  0  0  0  0  0  0  0
   -0.6844    5.6653   -0.7092 H   0  0  0  0  0  0  0  0  0  0  0  0
   -2.8842    3.1175   -2.2935 H   0  0  0  0  0  0  0  0  0  0  0  0
   -1.5011    4.1901   -2.6110 H   0  0  0  0  0  0  0  0  0  0  0  0
   -3.1128    4.8509   -2.2665 H   0  0  0  0  0  0  0  0  0  0  0  0
   -0.1990   -0.2307    2.1322 H   0  0  0  0  0  0  0  0  0  0  0  0
   -1.5012    0.9334    2.1420 H   0  0  0  0  0  0  0  0  0  0  0  0
   -3.9908   -0.0230    1.5932 H   0  0  0  0  0  0  0  0  0  0  0  0
   -5.1211   -2.3976    1.2919 H   0  0  0  0  0  0  0  0  0  0  0  0
   -3.3000   -4.2826    1.0155 H   0  0  0  0  0  0  0  0  0  0  0  0
    3.4756   -1.2192    1.6086 H   0  0  0  0  0  0  0  0  0  0  0  0
  1  2  1  0
  2  3  2  0
  3  4  1  0
  4  5  2  0
  5  6  1  0
  6  7  1  0
  7  8  1  0
  8  9  2  0
  8 10  1  0
 10 11  1  0
 11 12  1  0
 12 13  1  0
 13 14  1  0
 13 15  1  0
 10 16  1  0
 16 17  1  0
 17 18  2  0
 18 19  1  0
 19 20  2  0
 20 21  1  0
  6 22  2  0
 22  2  1  0
 21 17  1  0
  1 23  1  0
  1 24  1  0
  1 25  1  0
  3 26  1  0
  4 27  1  0
  5 28  1  0
  7 29  1  0
 11 30  1  0
 11 31  1  0
 12 32  1  0
 12 33  1  0
 14 34  1  0
 14 35  1  0
 14 36  1  0
 15 37  1  0
 15 38  1  0
 15 39  1  0
 16 40  1  0
 16 41  1  0
 18 42  1  0
 19 43  1  0
 20 44  1  0
 22 45  1  0
M  END
$$$$
