
     RDKit          3D

 42 42  0  0  0  0  0  0  0  0999 V2000
   -0.9757   -4.1479    2.0923 C   0  0  0  0  0  0  0  0  0  0  0  0
   -1.2404   -2.6528    1.9877 C   0  0  0  0  0  0  0  0  0  0  0  0
   -1.9456   -2.3049    0.6767 C   0  0  0  0  0  0  0  0  0  0  0  0
   -2.4122   -0.8454    0.5688 C   0  0  0  0  0  0  0  0  0  0  0  0
   -1.3715    0.2586    0.2617 C   0  0  0  0  0  0  0  0  0  0  0  0
   -2.0942    1.5807    0.0331 C   0  0  0  0  0  0  0  0  0  0  0  0
   -3.2660    1.6766   -0.3114 O   0  0  0  0  0  0  0  0  0  0  0  0
   -1.2477    2.6407    0.1712 O   0  0  0  0  0  0  0  0  0  0  0  0
   -1.8206    3.9416   -0.0314 C   0  0  0  0  0  0  0  0  0  0  0  0
   -1.7530    4.3150   -1.5000 C   0  0  0  0  0  0  0  0  0  0  0  0
   -0.4847   -0.0267   -0.9453 C   0  0  0  0  0  0  0  0  0  0  0  0
    0.8193   -0.5221   -0.3465 C   0  0  0  0  0  0  0  0  0  0  0  0
    2.0315   -0.0903   -1.1743 C   0  0  0  0  0  0  0  0  0  0  0  0
    3.5496   -0.8963   -0.5687 S   0  0  0  0  0  0  0  0  0  0  0  0
    4.7249   -0.2127   -1.6507 C   0  0  0  0  0  0  0  0  0  0  0  0
    4.3747    0.5459   -2.6235 N   0  0  0  0  0  0  0  0  0  0  0  0
    6.0050   -0.5362   -1.3677 N   0  0  0  0  0  0  0  0  0  0  0  0
    0.8703    0.0449    0.9670 O   0  0  0  0  0  0  0  0  0  0  0  0
   -0.3794    0.3970    1.3821 C   0  0  0  0  0  0  0  0  0  0  0  0
   -0.6335    0.7595    2.5204 O   0  0  0  0  0  0  0  0  0  0  0  0
   -0.3400   -4.4914    1.2699 H   0  0  0  0  0  0  0  0  0  0  0  0
   -0.4669   -4.3774    3.0339 H   0  0  0  0  0  0  0  0  0  0  0  0
   -1.9111   -4.7159    2.0654 H   0  0  0  0  0  0  0  0  0  0  0  0
   -0.2829   -2.1330    2.0659 H   0  0  0  0  0  0  0  0  0  0  0  0
   -1.8553   -2.3379    2.8385 H   0  0  0  0  0  0  0  0  0  0  0  0
   -1.3209   -2.5805   -0.1787 H   0  0  0  0  0  0  0  0  0  0  0  0
   -2.8427   -2.9346    0.6028 H   0  0  0  0  0  0  0  0  0  0  0  0
   -3.1636   -0.8296   -0.2336 H   0  0  0  0  0  0  0  0  0  0  0  0
   -2.9597   -0.5836    1.4848 H   0  0  0  0  0  0  0  0  0  0  0  0
   -1.2256    4.6480    0.5566 H   0  0  0  0  0  0  0  0  0  0  0  0
   -2.8472    3.9894    0.3493 H   0  0  0  0  0  0  0  0  0  0  0  0
   -2.1337    5.3275   -1.6610 H   0  0  0  0  0  0  0  0  0  0  0  0
   -0.7211    4.2633   -1.8625 H   0  0  0  0  0  0  0  0  0  0  0  0
   -2.3391    3.6199   -2.1095 H   0  0  0  0  0  0  0  0  0  0  0  0
   -0.9135   -0.7552   -1.6420 H   0  0  0  0  0  0  0  0  0  0  0  0
   -0.3100    0.8831   -1.5347 H   0  0  0  0  0  0  0  0  0  0  0  0
    0.7989   -1.6135   -0.2440 H   0  0  0  0  0  0  0  0  0  0  0  0
    1.8810   -0.3695   -2.2224 H   0  0  0  0  0  0  0  0  0  0  0  0
    2.1647    0.9948   -1.1031 H   0  0  0  0  0  0  0  0  0  0  0  0
    5.2107    0.8118   -3.1480 H   0  0  0  0  0  0  0  0  0  0  0  0
    6.1264   -0.8928   -0.4254 H   0  0  0  0  0  0  0  0  0  0  0  0
    6.7007    0.1522   -1.6206 H   0  0  0  0  0  0  0  0  0  0  0  0
  1  2  1  0
  2  3  1  0
  3  4  1  0
  4  5  1  0
  5  6  1  0
  6  7  2  0
  6  8  1  0
  8  9  1  0
  9 10  1  0
  5 11  1  0
 11 12  1  0
 12 13  1  0
 13 14  1  0
 14 15  1  0
 15 16  2  3
 15 17  1  0
 12 18  1  0
 18 19  1  0
 19 20  2  0
 19  5  1  0
  1 21  1  0
  1 22  1  0
  1 23  1  0
  2 24  1  0
  2 25  1  0
  3 26  1  0
  3 27  1  0
  4 28  1  0
  4 29  1  0
  9 30  1  0
  9 31  1  0
 10 32  1  0
 10 33  1  0
 10 34  1  0
 11 35  1  0
 11 36  1  0
 12 37  1  0
 13 38  1  0
 13 39  1  0
 16 40  1  0
 17 41  1  0
 17 42  1  0
M  END
$$$$
