
     RDKit          3D

 34 36  0  0  0  0  0  0  0  0999 V2000
   -0.0601    1.7257    0.7711 O   0  0  0  0  0  0  0  0  0  0  0  0
   -0.3578    0.5437    0.9151 C   0  0  0  0  0  0  0  0  0  0  0  0
   -1.7137    0.1529    1.4862 C   0  0  0  0  0  0  0  0  0  0  0  0
   -2.8551    0.3792    0.5161 C   0  0  0  0  0  0  0  0  0  0  0  0
   -3.6953    1.4855    0.7543 C   0  0  0  0  0  0  0  0  0  0  0  0
   -4.7639    1.7862   -0.0945 C   0  0  0  0  0  0  0  0  0  0  0  0
   -5.0194    0.9929   -1.2077 C   0  0  0  0  0  0  0  0  0  0  0  0
   -4.2032   -0.1035   -1.4772 C   0  0  0  0  0  0  0  0  0  0  0  0
   -3.1263   -0.4106   -0.6240 C   0  0  0  0  0  0  0  0  0  0  0  0
   -2.3151   -1.5812   -0.9846 N   0  0  0  0  0  4  0  0  0  0  0  0
   -2.2154   -1.8633   -2.1864 O   0  0  0  0  0  0  0  0  0  0  0  0
   -1.7794   -2.2268   -0.0708 O   0  0  0  0  0  1  0  0  0  0  0  0
    0.4250   -0.5479    0.5849 N   0  0  0  0  0  0  0  0  0  0  0  0
    1.7302   -0.5409    0.0510 C   0  0  0  0  0  0  0  0  0  0  0  0
    2.2743   -1.7951   -0.3088 C   0  0  0  0  0  0  0  0  0  0  0  0
    3.5630   -1.9004   -0.8442 C   0  0  0  0  0  0  0  0  0  0  0  0
    4.2822   -0.7391   -1.0055 C   0  0  0  0  0  0  0  0  0  0  0  0
    3.7620    0.4839   -0.6563 C   0  0  0  0  0  0  0  0  0  0  0  0
    2.4931    0.6174   -0.1265 C   0  0  0  0  0  0  0  0  0  0  0  0
    4.6339    1.5020   -0.8926 O   0  0  0  0  0  0  0  0  0  0  0  0
    5.7565    0.7790   -1.4367 C   0  0  0  0  0  0  0  0  0  0  0  0
    5.5425   -0.6463   -1.5058 O   0  0  0  0  0  0  0  0  0  0  0  0
   -1.8546    0.7664    2.3867 H   0  0  0  0  0  0  0  0  0  0  0  0
   -1.7196   -0.8718    1.8701 H   0  0  0  0  0  0  0  0  0  0  0  0
   -3.5146    2.1400    1.6072 H   0  0  0  0  0  0  0  0  0  0  0  0
   -5.3923    2.6500    0.1128 H   0  0  0  0  0  0  0  0  0  0  0  0
   -5.8485    1.2330   -1.8694 H   0  0  0  0  0  0  0  0  0  0  0  0
   -4.4146   -0.7099   -2.3568 H   0  0  0  0  0  0  0  0  0  0  0  0
   -0.0159   -1.4630    0.6587 H   0  0  0  0  0  0  0  0  0  0  0  0
    1.6929   -2.7059   -0.1804 H   0  0  0  0  0  0  0  0  0  0  0  0
    3.9803   -2.8608   -1.1239 H   0  0  0  0  0  0  0  0  0  0  0  0
    2.1357    1.6052    0.1355 H   0  0  0  0  0  0  0  0  0  0  0  0
    6.6347    0.9711   -0.8095 H   0  0  0  0  0  0  0  0  0  0  0  0
    5.9582    1.1525   -2.4473 H   0  0  0  0  0  0  0  0  0  0  0  0
  1  2  2  0
  2  3  1  0
  3  4  1  0
  4  5  2  0
  5  6  1  0
  6  7  2  0
  7  8  1  0
  8  9  2  0
  9 10  1  0
 10 11  2  0
 10 12  1  0
  2 13  1  0
 13 14  1  0
 14 15  2  0
 15 16  1  0
 16 17  2  0
 17 18  1  0
 18 19  2  0
 18 20  1  0
 20 21  1  0
 21 22  1  0
  9  4  1  0
 19 14  1  0
 22 17  1  0
  3 23  1  0
  3 24  1  0
  5 25  1  0
  6 26  1  0
  7 27  1  0
  8 28  1  0
 13 29  1  0
 15 30  1  0
 16 31  1  0
 19 32  1  0
 21 33  1  0
 21 34  1  0
M  CHG  2  10   1  12  -1
M  END
$$$$
