
     RDKit          3D

 46 47  0  0  0  0  0  0  0  0999 V2000
    2.4809   -3.3164    1.2145 C   0  0  0  0  0  0  0  0  0  0  0  0
    1.2086   -2.7665    1.8305 C   0  0  0  0  0  0  0  0  0  0  0  0
    1.0810   -1.3709    1.5273 O   0  0  0  0  0  0  0  0  0  0  0  0
    1.6544   -0.5185    2.4225 C   0  0  0  0  0  0  0  0  0  0  0  0
    2.3512   -0.8655    3.3682 O   0  0  0  0  0  0  0  0  0  0  0  0
    1.4495    0.8770    2.0533 C   0  0  0  0  0  0  0  0  0  0  0  0
    2.4601    1.8341    2.0385 C   0  0  0  0  0  0  0  0  0  0  0  0
    3.9014    1.7177    2.3915 C   0  0  0  0  0  0  0  0  0  0  0  0
    1.9217    3.0212    1.6124 N   0  0  0  0  0  0  0  0  0  0  0  0
    0.5827    2.8669    1.3544 C   0  0  0  0  0  0  0  0  0  0  0  0
   -0.2477    4.0101    0.8913 C   0  0  0  0  0  0  0  0  0  0  0  0
    0.2495    1.5534    1.6653 C   0  0  0  0  0  0  0  0  0  0  0  0
   -1.3543    0.8791    1.6166 S   0  0  0  0  0  6  0  0  0  0  0  0
   -2.2059    1.9714    2.0334 O   0  0  0  0  0  0  0  0  0  0  0  0
   -1.2973   -0.3596    2.3548 O   0  0  0  0  0  0  0  0  0  0  0  0
   -1.7321    0.5680    0.0142 N   0  0  0  0  0  0  0  0  0  0  0  0
   -0.9646   -0.4744   -0.6649 C   0  0  0  0  0  0  0  0  0  0  0  0
   -1.4326   -0.6399   -2.0958 C   0  0  0  0  0  0  0  0  0  0  0  0
   -0.6607   -0.0827   -3.1319 C   0  0  0  0  0  0  0  0  0  0  0  0
   -1.0626   -0.1926   -4.4626 C   0  0  0  0  0  0  0  0  0  0  0  0
   -2.2446   -0.8539   -4.7771 C   0  0  0  0  0  0  0  0  0  0  0  0
   -3.0268   -1.4040   -3.7620 C   0  0  0  0  0  0  0  0  0  0  0  0
   -2.6362   -1.3043   -2.4169 C   0  0  0  0  0  0  0  0  0  0  0  0
   -3.5187   -1.9009   -1.3532 C   0  0  0  0  0  0  0  0  0  0  0  0
    2.5629   -4.3929    1.3891 H   0  0  0  0  0  0  0  0  0  0  0  0
    2.4962   -3.1312    0.1353 H   0  0  0  0  0  0  0  0  0  0  0  0
    3.3646   -2.8253    1.6340 H   0  0  0  0  0  0  0  0  0  0  0  0
    1.1731   -2.9490    2.9107 H   0  0  0  0  0  0  0  0  0  0  0  0
    0.3405   -3.2695    1.3919 H   0  0  0  0  0  0  0  0  0  0  0  0
    4.0177    1.5971    3.4731 H   0  0  0  0  0  0  0  0  0  0  0  0
    4.3499    0.8514    1.8949 H   0  0  0  0  0  0  0  0  0  0  0  0
    4.4631    2.6065    2.0860 H   0  0  0  0  0  0  0  0  0  0  0  0
    2.4356    3.8892    1.5164 H   0  0  0  0  0  0  0  0  0  0  0  0
   -0.8198    4.4281    1.7254 H   0  0  0  0  0  0  0  0  0  0  0  0
   -0.9465    3.6925    0.1114 H   0  0  0  0  0  0  0  0  0  0  0  0
    0.3732    4.8088    0.4721 H   0  0  0  0  0  0  0  0  0  0  0  0
   -1.8547    1.4253   -0.5207 H   0  0  0  0  0  0  0  0  0  0  0  0
   -1.0571   -1.4308   -0.1416 H   0  0  0  0  0  0  0  0  0  0  0  0
    0.0968   -0.2038   -0.6720 H   0  0  0  0  0  0  0  0  0  0  0  0
    0.2657    0.4422   -2.9078 H   0  0  0  0  0  0  0  0  0  0  0  0
   -0.4545    0.2387   -5.2533 H   0  0  0  0  0  0  0  0  0  0  0  0
   -2.5617   -0.9403   -5.8132 H   0  0  0  0  0  0  0  0  0  0  0  0
   -3.9514   -1.9122   -4.0289 H   0  0  0  0  0  0  0  0  0  0  0  0
   -3.8937   -1.1206   -0.6843 H   0  0  0  0  0  0  0  0  0  0  0  0
   -4.3882   -2.4039   -1.7900 H   0  0  0  0  0  0  0  0  0  0  0  0
   -2.9684   -2.6493   -0.7745 H   0  0  0  0  0  0  0  0  0  0  0  0
  1  2  1  0
  2  3  1  0
  3  4  1  0
  4  5  2  0
  4  6  1  0
  6  7  2  0
  7  8  1  0
  7  9  1  0
  9 10  1  0
 10 11  1  0
 10 12  2  0
 12 13  1  0
 13 14  2  0
 13 15  2  0
 13 16  1  0
 16 17  1  0
 17 18  1  0
 18 19  2  0
 19 20  1  0
 20 21  2  0
 21 22  1  0
 22 23  2  0
 23 24  1  0
 12  6  1  0
 23 18  1  0
  1 25  1  0
  1 26  1  0
  1 27  1  0
  2 28  1  0
  2 29  1  0
  8 30  1  0
  8 31  1  0
  8 32  1  0
  9 33  1  0
 11 34  1  0
 11 35  1  0
 11 36  1  0
 16 37  1  0
 17 38  1  0
 17 39  1  0
 19 40  1  0
 20 41  1  0
 21 42  1  0
 22 43  1  0
 24 44  1  0
 24 45  1  0
 24 46  1  0
M  END
$$$$
