
     RDKit          3D

 45 47  0  0  0  0  0  0  0  0999 V2000
   -0.1444    2.7053   -0.2260 C   0  0  0  0  0  0  0  0  0  0  0  0
    0.6225    1.4239   -0.1598 C   0  0  0  0  0  0  0  0  0  0  0  0
    0.1145    0.1779   -0.1328 C   0  0  0  0  0  0  0  0  0  0  0  0
   -1.1350   -0.3973   -0.1619 N   0  0  0  0  0  0  0  0  0  0  0  0
   -2.4194    0.2008    0.1702 C   0  0  0  0  0  0  0  0  0  0  0  0
   -2.5485    0.3693    1.6864 C   0  0  0  0  0  0  0  0  0  0  0  0
   -3.5497   -0.6630   -0.3741 C   0  0  0  0  0  0  0  0  0  0  0  0
   -3.6694   -2.0180   -0.0067 C   0  0  0  0  0  0  0  0  0  0  0  0
   -4.7074   -2.8113   -0.5010 C   0  0  0  0  0  0  0  0  0  0  0  0
   -5.6497   -2.2650   -1.3671 C   0  0  0  0  0  0  0  0  0  0  0  0
   -5.5587   -0.9243   -1.7360 C   0  0  0  0  0  0  0  0  0  0  0  0
   -4.5188   -0.1342   -1.2389 C   0  0  0  0  0  0  0  0  0  0  0  0
   -4.4536    1.1855   -1.5925 O   0  0  0  0  0  0  0  0  0  0  0  0
    1.3308   -0.7212   -0.0575 C   0  0  0  0  0  0  0  0  0  0  0  0
    1.2341   -1.9377    0.0425 O   0  0  0  0  0  0  0  0  0  0  0  0
    2.4527    0.1098   -0.0415 N   0  0  0  0  0  0  0  0  0  0  0  0
    3.7268   -0.2268    0.4852 C   0  0  0  0  0  0  0  0  0  0  0  0
    4.1738   -1.5553    0.4935 C   0  0  0  0  0  0  0  0  0  0  0  0
    5.4308   -1.8906    1.0084 C   0  0  0  0  0  0  0  0  0  0  0  0
    6.2604   -0.9017    1.5281 C   0  0  0  0  0  0  0  0  0  0  0  0
    5.8323    0.4221    1.5364 C   0  0  0  0  0  0  0  0  0  0  0  0
    4.5757    0.7549    1.0201 C   0  0  0  0  0  0  0  0  0  0  0  0
    2.0296    1.4624   -0.1641 N   0  0  0  0  0  0  0  0  0  0  0  0
    2.6796    2.1705   -1.2838 C   0  0  0  0  0  0  0  0  0  0  0  0
   -1.0478    2.6766    0.3860 H   0  0  0  0  0  0  0  0  0  0  0  0
    0.4543    3.5373    0.1607 H   0  0  0  0  0  0  0  0  0  0  0  0
   -0.4193    2.9348   -1.2598 H   0  0  0  0  0  0  0  0  0  0  0  0
   -1.0721   -1.4043   -0.0098 H   0  0  0  0  0  0  0  0  0  0  0  0
   -2.4752    1.1886   -0.2938 H   0  0  0  0  0  0  0  0  0  0  0  0
   -2.4409   -0.5843    2.2156 H   0  0  0  0  0  0  0  0  0  0  0  0
   -3.5238    0.7917    1.9519 H   0  0  0  0  0  0  0  0  0  0  0  0
   -1.7755    1.0401    2.0760 H   0  0  0  0  0  0  0  0  0  0  0  0
   -2.9493   -2.4697    0.6724 H   0  0  0  0  0  0  0  0  0  0  0  0
   -4.7771   -3.8560   -0.2079 H   0  0  0  0  0  0  0  0  0  0  0  0
   -6.4562   -2.8831   -1.7521 H   0  0  0  0  0  0  0  0  0  0  0  0
   -6.3067   -0.5125   -2.4064 H   0  0  0  0  0  0  0  0  0  0  0  0
   -5.1506    1.3678   -2.2439 H   0  0  0  0  0  0  0  0  0  0  0  0
    3.5615   -2.3550    0.0849 H   0  0  0  0  0  0  0  0  0  0  0  0
    5.7563   -2.9277    1.0015 H   0  0  0  0  0  0  0  0  0  0  0  0
    7.2348   -1.1637    1.9314 H   0  0  0  0  0  0  0  0  0  0  0  0
    6.4692    1.1976    1.9538 H   0  0  0  0  0  0  0  0  0  0  0  0
    4.2570    1.7921    1.0745 H   0  0  0  0  0  0  0  0  0  0  0  0
    2.3571    1.7570   -2.2467 H   0  0  0  0  0  0  0  0  0  0  0  0
    3.7701    2.1014   -1.2346 H   0  0  0  0  0  0  0  0  0  0  0  0
    2.4251    3.2352   -1.2594 H   0  0  0  0  0  0  0  0  0  0  0  0
  1  2  1  0
  2  3  2  0
  3  4  1  0
  4  5  1  0
  5  6  1  0
  5  7  1  0
  7  8  2  0
  8  9  1  0
  9 10  2  0
 10 11  1  0
 11 12  2  0
 12 13  1  0
  3 14  1  0
 14 15  2  0
 14 16  1  0
 16 17  1  0
 17 18  2  0
 18 19  1  0
 19 20  2  0
 20 21  1  0
 21 22  2  0
 16 23  1  0
 23 24  1  0
 23  2  1  0
 12  7  1  0
 22 17  1  0
  1 25  1  0
  1 26  1  0
  1 27  1  0
  4 28  1  0
  5 29  1  0
  6 30  1  0
  6 31  1  0
  6 32  1  0
  8 33  1  0
  9 34  1  0
 10 35  1  0
 11 36  1  0
 13 37  1  0
 18 38  1  0
 19 39  1  0
 20 40  1  0
 21 41  1  0
 22 42  1  0
 24 43  1  0
 24 44  1  0
 24 45  1  0
M  END
$$$$
