
     RDKit          3D

 67 70  0  0  0  0  0  0  0  0999 V2000
   -1.7042    3.4789    2.7660 C   0  0  0  0  0  0  0  0  0  0  0  0
   -1.8368    2.2397    2.0735 O   0  0  0  0  0  0  0  0  0  0  0  0
   -1.8239    2.3497    0.7041 C   0  0  0  0  0  0  0  0  0  0  0  0
   -2.5928    3.3235    0.0468 C   0  0  0  0  0  0  0  0  0  0  0  0
   -2.5949    3.4155   -1.3486 C   0  0  0  0  0  0  0  0  0  0  0  0
   -3.3094    4.3447   -2.0630 O   0  0  0  0  0  0  0  0  0  0  0  0
   -4.1583    5.2276   -1.3401 C   0  0  0  0  0  0  0  0  0  0  0  0
   -1.8233    2.5111   -2.0952 C   0  0  0  0  0  0  0  0  0  0  0  0
   -1.7726    2.5443   -3.5565 C   0  0  0  0  0  0  0  0  0  0  0  0
   -1.0303    1.6645   -4.2339 C   0  0  0  0  0  0  0  0  0  0  0  0
   -0.2316    0.6353   -3.5573 C   0  0  0  0  0  0  0  0  0  0  0  0
    0.4652   -0.1470   -4.1925 O   0  0  0  0  0  0  0  0  0  0  0  0
   -0.3034    0.6141   -2.1748 O   0  0  0  0  0  0  0  0  0  0  0  0
   -1.0809    1.5295   -1.4239 C   0  0  0  0  0  0  0  0  0  0  0  0
   -1.0666    1.4119   -0.0215 C   0  0  0  0  0  0  0  0  0  0  0  0
   -0.2746    0.3170    0.7043 C   0  0  0  0  0  0  0  0  0  0  0  0
    1.2504    0.4479    0.4458 C   0  0  0  0  0  0  0  0  0  0  0  0
    2.0805   -0.3651    1.4568 C   0  0  0  0  0  0  0  0  0  0  0  0
    3.5432   -0.2982    1.3115 N   0  0  0  0  0  0  0  0  0  0  0  0
    4.0839    1.0508    1.5032 C   0  0  0  0  0  0  0  0  0  0  0  0
    5.6131    1.0198    1.5442 C   0  0  0  0  0  0  0  0  0  0  0  0
    6.1885    0.3666    0.2917 C   0  0  0  0  0  0  0  0  0  0  0  0
    5.5476   -0.9973    0.0571 C   0  0  0  0  0  0  0  0  0  0  0  0
    4.0202   -0.9024    0.0622 C   0  0  0  0  0  0  0  0  0  0  0  0
   -0.8865   -1.0656    0.4914 C   0  0  0  0  0  0  0  0  0  0  0  0
   -2.0082   -1.4360    1.2421 C   0  0  0  0  0  0  0  0  0  0  0  0
   -2.6076   -2.6948    1.0819 C   0  0  0  0  0  0  0  0  0  0  0  0
   -2.1221   -3.6483    0.1724 C   0  0  0  0  0  0  0  0  0  0  0  0
   -2.7309   -4.9007    0.0097 N   0  0  0  0  0  0  0  0  0  0  0  0
   -3.5907   -5.4014    1.0810 C   0  0  0  0  0  0  0  0  0  0  0  0
   -2.0367   -5.9246   -0.7686 C   0  0  0  0  0  0  0  0  0  0  0  0
   -1.0173   -3.2436   -0.5951 C   0  0  0  0  0  0  0  0  0  0  0  0
   -0.4073   -1.9876   -0.4401 C   0  0  0  0  0  0  0  0  0  0  0  0
   -0.9711    4.1392    2.2884 H   0  0  0  0  0  0  0  0  0  0  0  0
   -1.3480    3.2584    3.7772 H   0  0  0  0  0  0  0  0  0  0  0  0
   -2.6756    3.9752    2.8546 H   0  0  0  0  0  0  0  0  0  0  0  0
   -3.2030    3.9913    0.6428 H   0  0  0  0  0  0  0  0  0  0  0  0
   -4.6599    5.8755   -2.0649 H   0  0  0  0  0  0  0  0  0  0  0  0
   -3.5795    5.8676   -0.6664 H   0  0  0  0  0  0  0  0  0  0  0  0
   -4.9320    4.6749   -0.7976 H   0  0  0  0  0  0  0  0  0  0  0  0
   -2.3527    3.2960   -4.0820 H   0  0  0  0  0  0  0  0  0  0  0  0
   -0.9790    1.6717   -5.3152 H   0  0  0  0  0  0  0  0  0  0  0  0
   -0.3660    0.4957    1.7845 H   0  0  0  0  0  0  0  0  0  0  0  0
    1.5082    0.1497   -0.5739 H   0  0  0  0  0  0  0  0  0  0  0  0
    1.5217    1.5076    0.5350 H   0  0  0  0  0  0  0  0  0  0  0  0
    1.8255   -0.0363    2.4729 H   0  0  0  0  0  0  0  0  0  0  0  0
    1.7865   -1.4208    1.4188 H   0  0  0  0  0  0  0  0  0  0  0  0
    3.7614    1.7277    0.7025 H   0  0  0  0  0  0  0  0  0  0  0  0
    3.7244    1.4685    2.4515 H   0  0  0  0  0  0  0  0  0  0  0  0
    6.0000    2.0407    1.6401 H   0  0  0  0  0  0  0  0  0  0  0  0
    5.9472    0.4663    2.4309 H   0  0  0  0  0  0  0  0  0  0  0  0
    6.0011    1.0112   -0.5756 H   0  0  0  0  0  0  0  0  0  0  0  0
    7.2746    0.2610    0.3868 H   0  0  0  0  0  0  0  0  0  0  0  0
    5.8901   -1.4062   -0.9001 H   0  0  0  0  0  0  0  0  0  0  0  0
    5.8750   -1.6947    0.8386 H   0  0  0  0  0  0  0  0  0  0  0  0
    3.6939   -0.3241   -0.8110 H   0  0  0  0  0  0  0  0  0  0  0  0
    3.6144   -1.9159   -0.0447 H   0  0  0  0  0  0  0  0  0  0  0  0
   -2.4363   -0.7417    1.9635 H   0  0  0  0  0  0  0  0  0  0  0  0
   -3.4804   -2.8994    1.6936 H   0  0  0  0  0  0  0  0  0  0  0  0
   -4.4763   -4.7696    1.2085 H   0  0  0  0  0  0  0  0  0  0  0  0
   -3.9701   -6.4036    0.8504 H   0  0  0  0  0  0  0  0  0  0  0  0
   -3.0435   -5.4663    2.0282 H   0  0  0  0  0  0  0  0  0  0  0  0
   -1.8886   -5.6038   -1.8052 H   0  0  0  0  0  0  0  0  0  0  0  0
   -2.6266   -6.8466   -0.8232 H   0  0  0  0  0  0  0  0  0  0  0  0
   -1.0703   -6.1765   -0.3182 H   0  0  0  0  0  0  0  0  0  0  0  0
   -0.5894   -3.8975   -1.3490 H   0  0  0  0  0  0  0  0  0  0  0  0
    0.4427   -1.7551   -1.0766 H   0  0  0  0  0  0  0  0  0  0  0  0
  1  2  1  0
  2  3  1  0
  3  4  2  0
  4  5  1  0
  5  6  1  0
  6  7  1  0
  5  8  2  0
  8  9  1  0
  9 10  2  0
 10 11  1  0
 11 12  2  0
 11 13  1  0
 13 14  1  0
 14 15  2  0
 15 16  1  0
 16 17  1  0
 17 18  1  0
 18 19  1  0
 19 20  1  0
 20 21  1  0
 21 22  1  0
 22 23  1  0
 23 24  1  0
 16 25  1  0
 25 26  2  0
 26 27  1  0
 27 28  2  0
 28 29  1  0
 29 30  1  0
 29 31  1  0
 28 32  1  0
 32 33  2  0
 15  3  1  0
 24 19  1  0
 33 25  1  0
 14  8  1  0
  1 34  1  0
  1 35  1  0
  1 36  1  0
  4 37  1  0
  7 38  1  0
  7 39  1  0
  7 40  1  0
  9 41  1  0
 10 42  1  0
 16 43  1  0
 17 44  1  0
 17 45  1  0
 18 46  1  0
 18 47  1  0
 20 48  1  0
 20 49  1  0
 21 50  1  0
 21 51  1  0
 22 52  1  0
 22 53  1  0
 23 54  1  0
 23 55  1  0
 24 56  1  0
 24 57  1  0
 26 58  1  0
 27 59  1  0
 30 60  1  0
 30 61  1  0
 30 62  1  0
 31 63  1  0
 31 64  1  0
 31 65  1  0
 32 66  1  0
 33 67  1  0
M  END
$$$$
