
     RDKit          3D

 44 47  0  0  0  0  0  0  0  0999 V2000
    5.6045   -0.8936    2.0849 C   0  0  0  0  0  0  0  0  0  0  0  0
    5.5739   -0.5818    0.5970 C   0  0  0  0  0  0  0  0  0  0  0  0
    4.1710   -0.4392    0.0896 C   0  0  0  0  0  0  0  0  0  0  0  0
    3.3349   -1.4226   -0.4013 C   0  0  0  0  0  0  0  0  0  0  0  0
    2.0644   -0.9004   -0.7829 C   0  0  0  0  0  0  0  0  0  0  0  0
    0.9149   -1.5912   -1.3260 C   0  0  0  0  0  0  0  0  0  0  0  0
    0.9597   -2.7940   -1.5707 O   0  0  0  0  0  0  0  0  0  0  0  0
   -0.2063   -0.7797   -1.5435 N   0  0  0  0  0  0  0  0  0  0  0  0
   -1.4220   -1.4757   -1.9809 C   0  0  0  0  0  0  0  0  0  0  0  0
   -2.2799   -1.9224   -0.8125 C   0  0  0  0  0  0  0  0  0  0  0  0
   -3.4040   -1.1854   -0.4148 C   0  0  0  0  0  0  0  0  0  0  0  0
   -4.1683   -1.5845    0.6837 C   0  0  0  0  0  0  0  0  0  0  0  0
   -3.8273   -2.7329    1.3924 C   0  0  0  0  0  0  0  0  0  0  0  0
   -2.7244   -3.4851    1.0003 C   0  0  0  0  0  0  0  0  0  0  0  0
   -1.9556   -3.0832   -0.0940 C   0  0  0  0  0  0  0  0  0  0  0  0
   -0.1311    0.5947   -1.3193 C   0  0  0  0  0  0  0  0  0  0  0  0
   -1.5137    1.5944   -1.7232 S   0  0  0  0  0  0  0  0  0  0  0  0
   -1.5999    2.5906   -0.1991 C   0  0  0  0  0  0  0  0  0  0  0  0
   -0.8675    3.9105   -0.3104 C   0  0  0  0  0  0  0  0  0  0  0  0
   -1.9229    4.8463   -0.8395 C   0  0  0  0  0  0  0  0  0  0  0  0
   -3.1533    4.3713   -0.2950 O   0  0  0  0  0  0  0  0  0  0  0  0
   -3.0233    3.0449    0.0117 C   0  0  0  0  0  0  0  0  0  0  0  0
   -3.9520    2.3415    0.3813 O   0  0  0  0  0  0  0  0  0  0  0  0
    0.9030    1.2283   -0.8588 N   0  0  0  0  0  0  0  0  0  0  0  0
    1.9731    0.4523   -0.5837 C   0  0  0  0  0  0  0  0  0  0  0  0
    3.4087    1.0973    0.0673 S   0  0  0  0  0  0  0  0  0  0  0  0
    5.1375   -0.0936    2.6687 H   0  0  0  0  0  0  0  0  0  0  0  0
    6.6388   -1.0054    2.4266 H   0  0  0  0  0  0  0  0  0  0  0  0
    5.0730   -1.8245    2.3060 H   0  0  0  0  0  0  0  0  0  0  0  0
    6.1496    0.3302    0.4019 H   0  0  0  0  0  0  0  0  0  0  0  0
    6.0770   -1.3886    0.0507 H   0  0  0  0  0  0  0  0  0  0  0  0
    3.6127   -2.4679   -0.4787 H   0  0  0  0  0  0  0  0  0  0  0  0
   -1.1551   -2.3584   -2.5761 H   0  0  0  0  0  0  0  0  0  0  0  0
   -2.0074   -0.8489   -2.6608 H   0  0  0  0  0  0  0  0  0  0  0  0
   -3.7072   -0.2891   -0.9496 H   0  0  0  0  0  0  0  0  0  0  0  0
   -5.0311   -0.9945    0.9842 H   0  0  0  0  0  0  0  0  0  0  0  0
   -4.4248   -3.0431    2.2456 H   0  0  0  0  0  0  0  0  0  0  0  0
   -2.4622   -4.3883    1.5437 H   0  0  0  0  0  0  0  0  0  0  0  0
   -1.1031   -3.6935   -0.3845 H   0  0  0  0  0  0  0  0  0  0  0  0
   -1.2715    2.0225    0.6768 H   0  0  0  0  0  0  0  0  0  0  0  0
    0.0399    3.8998   -0.9208 H   0  0  0  0  0  0  0  0  0  0  0  0
   -0.5773    4.2387    0.6961 H   0  0  0  0  0  0  0  0  0  0  0  0
   -1.9933    4.8270   -1.9315 H   0  0  0  0  0  0  0  0  0  0  0  0
   -1.7524    5.8773   -0.5159 H   0  0  0  0  0  0  0  0  0  0  0  0
  1  2  1  0
  2  3  1  0
  3  4  2  0
  4  5  1  0
  5  6  1  0
  6  7  2  0
  6  8  1  0
  8  9  1  0
  9 10  1  0
 10 11  2  0
 11 12  1  0
 12 13  2  0
 13 14  1  0
 14 15  2  0
  8 16  1  0
 16 17  1  0
 17 18  1  0
 18 19  1  0
 19 20  1  0
 20 21  1  0
 21 22  1  0
 22 23  2  0
 16 24  2  0
 24 25  1  0
 25 26  1  0
 26  3  1  0
 25  5  2  0
 15 10  1  0
 22 18  1  0
  1 27  1  0
  1 28  1  0
  1 29  1  0
  2 30  1  0
  2 31  1  0
  4 32  1  0
  9 33  1  0
  9 34  1  0
 11 35  1  0
 12 36  1  0
 13 37  1  0
 14 38  1  0
 15 39  1  0
 18 40  1  0
 19 41  1  0
 19 42  1  0
 20 43  1  0
 20 44  1  0
M  END
$$$$
