
     RDKit          3D

 46 50  0  0  0  0  0  0  0  0999 V2000
    0.2733    1.4626   -1.9448 O   0  0  0  0  0  0  0  0  0  0  0  0
   -0.5265    1.1991   -1.0503 C   0  0  0  0  0  0  0  0  0  0  0  0
   -1.8728    1.7832   -1.0872 C   0  0  0  0  0  0  0  0  0  0  0  0
   -2.1472    2.8835   -1.9063 C   0  0  0  0  0  0  0  0  0  0  0  0
   -3.4279    3.4287   -1.9044 C   0  0  0  0  0  0  0  0  0  0  0  0
   -3.7828    4.7844   -2.9012 Cl  0  0  0  0  0  0  0  0  0  0  0  0
   -4.4262    2.8844   -1.0968 C   0  0  0  0  0  0  0  0  0  0  0  0
   -4.1422    1.7791   -0.2907 C   0  0  0  0  0  0  0  0  0  0  0  0
   -2.8648    1.2182   -0.2946 C   0  0  0  0  0  0  0  0  0  0  0  0
   -2.6868    0.1304    0.5059 O   0  0  0  0  0  0  0  0  0  0  0  0
   -1.4670   -0.6534    0.3349 C   0  0  0  0  0  0  0  0  0  0  0  0
   -1.3600   -1.4266    1.6759 C   0  0  0  0  0  0  0  0  0  0  0  0
   -2.2105   -2.6913    1.6401 C   0  0  0  0  0  0  0  0  0  0  0  0
   -1.7151   -3.6438    0.6483 N   0  0  0  0  0  0  0  0  0  0  0  0
   -1.2023   -3.0415   -0.5760 C   0  0  0  0  0  0  0  0  0  0  0  0
   -1.7252   -1.6346   -0.8417 C   0  0  0  0  0  0  0  0  0  0  0  0
   -0.2330    0.2674    0.1219 C   0  0  0  0  0  0  0  0  0  0  0  0
    1.0984   -0.4438   -0.0700 C   0  0  0  0  0  0  0  0  0  0  0  0
    1.9720    0.5055    0.6796 C   0  0  0  0  0  0  0  0  0  0  0  0
    3.4498    0.4628    0.5788 C   0  0  0  0  0  0  0  0  0  0  0  0
    4.1065   -0.5359   -0.1492 C   0  0  0  0  0  0  0  0  0  0  0  0
    5.5024   -0.5472   -0.2194 C   0  0  0  0  0  0  0  0  0  0  0  0
    6.2454    0.4339    0.4359 C   0  0  0  0  0  0  0  0  0  0  0  0
    5.5964    1.4290    1.1642 C   0  0  0  0  0  0  0  0  0  0  0  0
    4.2022    1.4439    1.2369 C   0  0  0  0  0  0  0  0  0  0  0  0
    1.3374    1.3372    1.4441 N   0  0  0  0  0  0  0  0  0  0  0  0
   -0.0442    1.0947    1.2831 O   0  0  0  0  0  0  0  0  0  0  0  0
   -1.3654    3.3138   -2.5278 H   0  0  0  0  0  0  0  0  0  0  0  0
   -5.4250    3.3137   -1.0904 H   0  0  0  0  0  0  0  0  0  0  0  0
   -4.9213    1.3526    0.3369 H   0  0  0  0  0  0  0  0  0  0  0  0
   -1.7029   -0.7963    2.5067 H   0  0  0  0  0  0  0  0  0  0  0  0
   -0.3286   -1.7116    1.9081 H   0  0  0  0  0  0  0  0  0  0  0  0
   -3.2563   -2.4391    1.4264 H   0  0  0  0  0  0  0  0  0  0  0  0
   -2.1951   -3.1735    2.6234 H   0  0  0  0  0  0  0  0  0  0  0  0
   -2.4491   -4.3208    0.4364 H   0  0  0  0  0  0  0  0  0  0  0  0
   -1.4546   -3.6889   -1.4241 H   0  0  0  0  0  0  0  0  0  0  0  0
   -0.1089   -3.0313   -0.5260 H   0  0  0  0  0  0  0  0  0  0  0  0
   -1.2792   -1.2612   -1.7709 H   0  0  0  0  0  0  0  0  0  0  0  0
   -2.8034   -1.6998   -1.0447 H   0  0  0  0  0  0  0  0  0  0  0  0
    1.3951   -0.5635   -1.1143 H   0  0  0  0  0  0  0  0  0  0  0  0
    1.1621   -1.4107    0.4334 H   0  0  0  0  0  0  0  0  0  0  0  0
    3.5586   -1.3167   -0.6670 H   0  0  0  0  0  0  0  0  0  0  0  0
    6.0118   -1.3228   -0.7864 H   0  0  0  0  0  0  0  0  0  0  0  0
    7.3311    0.4235    0.3790 H   0  0  0  0  0  0  0  0  0  0  0  0
    6.1735    2.1952    1.6759 H   0  0  0  0  0  0  0  0  0  0  0  0
    3.7081    2.2274    1.8082 H   0  0  0  0  0  0  0  0  0  0  0  0
  1  2  2  0
  2  3  1  0
  3  4  2  0
  4  5  1  0
  5  6  1  0
  5  7  2  0
  7  8  1  0
  8  9  2  0
  9 10  1  0
 10 11  1  0
 11 12  1  0
 12 13  1  0
 13 14  1  0
 14 15  1  0
 15 16  1  0
 11 17  1  0
 17 18  1  0
 18 19  1  0
 19 20  1  0
 20 21  2  0
 21 22  1  0
 22 23  2  0
 23 24  1  0
 24 25  2  0
 19 26  2  0
 26 27  1  0
 17  2  1  0
 25 20  1  0
  9  3  1  0
 16 11  1  0
 27 17  1  0
  4 28  1  0
  7 29  1  0
  8 30  1  0
 12 31  1  0
 12 32  1  0
 13 33  1  0
 13 34  1  0
 14 35  1  0
 15 36  1  0
 15 37  1  0
 16 38  1  0
 16 39  1  0
 18 40  1  0
 18 41  1  0
 21 42  1  0
 22 43  1  0
 23 44  1  0
 24 45  1  0
 25 46  1  0
M  END
$$$$
