
     RDKit          3D

 69 71  0  0  0  0  0  0  0  0999 V2000
    7.2966    4.3638   -0.2901 C   0  0  0  0  0  0  0  0  0  0  0  0
    7.1124    3.1270    0.5753 C   0  0  0  0  0  0  0  0  0  0  0  0
    6.9873    1.8295   -0.2279 C   0  0  0  0  0  0  0  0  0  0  0  0
    5.7023    1.7546   -1.0567 C   0  0  0  0  0  0  0  0  0  0  0  0
    5.5795    0.4626   -1.8723 C   0  0  0  0  0  0  0  0  0  0  0  0
    5.5354   -0.8359   -1.0651 C   0  0  0  0  0  0  0  0  0  0  0  0
    4.4329   -0.9530   -0.0071 C   0  0  0  0  0  0  0  0  0  0  0  0
    3.0089   -1.0700   -0.5637 C   0  0  0  0  0  0  0  0  0  0  0  0
    2.2879    0.2750   -0.7029 C   0  0  0  0  0  0  0  0  0  0  0  0
    0.8456    0.1062   -1.1757 C   0  0  0  0  0  0  0  0  0  0  0  0
    0.0992   -0.5910   -0.1655 O   0  0  0  0  0  0  0  0  0  0  0  0
   -1.1998   -0.8339   -0.4841 C   0  0  0  0  0  0  0  0  0  0  0  0
   -1.7527   -0.4994   -1.5252 O   0  0  0  0  0  0  0  0  0  0  0  0
   -1.8987   -1.5466    0.6649 C   0  0  0  0  0  0  0  0  0  0  0  0
   -3.2039   -2.1068    0.2421 N   0  0  0  0  0  0  0  0  0  0  0  0
   -4.3360   -1.3780    0.0856 C   0  0  0  0  0  0  0  0  0  0  0  0
   -4.4767    0.1261    0.2749 C   0  0  0  0  0  0  0  0  0  0  0  0
   -4.3899    0.4258    1.6605 O   0  0  0  0  0  0  0  0  0  0  0  0
   -4.3909    1.7489    2.0037 C   0  0  0  0  0  0  0  0  0  0  0  0
   -4.2868    1.9923    3.3771 C   0  0  0  0  0  0  0  0  0  0  0  0
   -4.2688    3.2996    3.8690 C   0  0  0  0  0  0  0  0  0  0  0  0
   -4.3559    4.3693    2.9835 C   0  0  0  0  0  0  0  0  0  0  0  0
   -4.3318    5.9803    3.5808 Cl  0  0  0  0  0  0  0  0  0  0  0  0
   -4.4626    4.1384    1.6135 C   0  0  0  0  0  0  0  0  0  0  0  0
   -4.4813    2.8279    1.1212 C   0  0  0  0  0  0  0  0  0  0  0  0
   -5.3264   -2.2487   -0.2240 N   0  0  0  0  0  4  0  0  0  0  0  0
   -6.7372   -1.8910   -0.3471 C   0  0  0  0  0  0  0  0  0  0  0  0
   -4.7963   -3.5201   -0.4214 C   0  0  0  0  0  0  0  0  0  0  0  0
   -5.3875   -4.7164   -0.8238 C   0  0  0  0  0  0  0  0  0  0  0  0
   -4.5380   -5.8269   -0.9142 C   0  0  0  0  0  0  0  0  0  0  0  0
   -3.1667   -5.7345   -0.6137 C   0  0  0  0  0  0  0  0  0  0  0  0
   -2.5813   -4.5276   -0.2087 C   0  0  0  0  0  0  0  0  0  0  0  0
   -3.4343   -3.4287   -0.1220 C   0  0  0  0  0  0  0  0  0  0  0  0
    8.1557    4.2511   -0.9590 H   0  0  0  0  0  0  0  0  0  0  0  0
    6.4091    4.5674   -0.8964 H   0  0  0  0  0  0  0  0  0  0  0  0
    7.4726    5.2402    0.3419 H   0  0  0  0  0  0  0  0  0  0  0  0
    6.2319    3.2565    1.2153 H   0  0  0  0  0  0  0  0  0  0  0  0
    7.9788    3.0392    1.2419 H   0  0  0  0  0  0  0  0  0  0  0  0
    7.8592    1.7164   -0.8827 H   0  0  0  0  0  0  0  0  0  0  0  0
    7.0130    0.9962    0.4832 H   0  0  0  0  0  0  0  0  0  0  0  0
    5.6732    2.5919   -1.7631 H   0  0  0  0  0  0  0  0  0  0  0  0
    4.8338    1.8747   -0.4009 H   0  0  0  0  0  0  0  0  0  0  0  0
    4.6898    0.5251   -2.5087 H   0  0  0  0  0  0  0  0  0  0  0  0
    6.4310    0.4046   -2.5631 H   0  0  0  0  0  0  0  0  0  0  0  0
    5.4433   -1.6748   -1.7672 H   0  0  0  0  0  0  0  0  0  0  0  0
    6.5030   -0.9771   -0.5679 H   0  0  0  0  0  0  0  0  0  0  0  0
    4.6376   -1.8770    0.5505 H   0  0  0  0  0  0  0  0  0  0  0  0
    4.5026   -0.1430    0.7268 H   0  0  0  0  0  0  0  0  0  0  0  0
    2.4343   -1.6968    0.1299 H   0  0  0  0  0  0  0  0  0  0  0  0
    3.0159   -1.5974   -1.5248 H   0  0  0  0  0  0  0  0  0  0  0  0
    2.8096    0.9186   -1.4149 H   0  0  0  0  0  0  0  0  0  0  0  0
    2.2901    0.7816    0.2700 H   0  0  0  0  0  0  0  0  0  0  0  0
    0.3974    1.0944   -1.3305 H   0  0  0  0  0  0  0  0  0  0  0  0
    0.8169   -0.4571   -2.1159 H   0  0  0  0  0  0  0  0  0  0  0  0
   -2.0653   -0.8389    1.4813 H   0  0  0  0  0  0  0  0  0  0  0  0
   -1.2642   -2.3593    1.0301 H   0  0  0  0  0  0  0  0  0  0  0  0
   -3.6611    0.5742   -0.2961 H   0  0  0  0  0  0  0  0  0  0  0  0
   -5.4458    0.4128   -0.1411 H   0  0  0  0  0  0  0  0  0  0  0  0
   -4.2211    1.1621    4.0772 H   0  0  0  0  0  0  0  0  0  0  0  0
   -4.1884    3.4756    4.9390 H   0  0  0  0  0  0  0  0  0  0  0  0
   -4.5321    4.9769    0.9236 H   0  0  0  0  0  0  0  0  0  0  0  0
   -4.5679    2.7010    0.0470 H   0  0  0  0  0  0  0  0  0  0  0  0
   -7.0147   -1.2213    0.4717 H   0  0  0  0  0  0  0  0  0  0  0  0
   -7.3706   -2.7793   -0.2884 H   0  0  0  0  0  0  0  0  0  0  0  0
   -6.8919   -1.3924   -1.3078 H   0  0  0  0  0  0  0  0  0  0  0  0
   -6.4419   -4.7886   -1.0587 H   0  0  0  0  0  0  0  0  0  0  0  0
   -4.9483   -6.7881   -1.2265 H   0  0  0  0  0  0  0  0  0  0  0  0
   -2.5450   -6.6267   -0.6999 H   0  0  0  0  0  0  0  0  0  0  0  0
   -1.5251   -4.4614    0.0194 H   0  0  0  0  0  0  0  0  0  0  0  0
  1  2  1  0
  2  3  1  0
  3  4  1  0
  4  5  1  0
  5  6  1  0
  6  7  1  0
  7  8  1  0
  8  9  1  0
  9 10  1  0
 10 11  1  0
 11 12  1  0
 12 13  2  0
 12 14  1  0
 14 15  1  0
 15 16  1  0
 16 17  1  0
 17 18  1  0
 18 19  1  0
 19 20  2  0
 20 21  1  0
 21 22  2  0
 22 23  1  0
 22 24  1  0
 24 25  2  0
 16 26  2  0
 26 27  1  0
 26 28  1  0
 28 29  2  0
 29 30  1  0
 30 31  2  0
 31 32  1  0
 32 33  2  0
 33 15  1  0
 25 19  1  0
 33 28  1  0
  1 34  1  0
  1 35  1  0
  1 36  1  0
  2 37  1  0
  2 38  1  0
  3 39  1  0
  3 40  1  0
  4 41  1  0
  4 42  1  0
  5 43  1  0
  5 44  1  0
  6 45  1  0
  6 46  1  0
  7 47  1  0
  7 48  1  0
  8 49  1  0
  8 50  1  0
  9 51  1  0
  9 52  1  0
 10 53  1  0
 10 54  1  0
 14 55  1  0
 14 56  1  0
 17 57  1  0
 17 58  1  0
 20 59  1  0
 21 60  1  0
 24 61  1  0
 25 62  1  0
 27 63  1  0
 27 64  1  0
 27 65  1  0
 29 66  1  0
 30 67  1  0
 31 68  1  0
 32 69  1  0
M  CHG  1  26   1
M  END
$$$$
