
     RDKit          3D

 48 51  0  0  0  0  0  0  0  0999 V2000
    7.4339   -1.1730   -2.5001 C   0  0  0  0  0  0  0  0  0  0  0  0
    6.9609   -0.4653   -1.2846 C   0  0  0  0  0  0  0  0  0  0  0  0
    6.9488   -0.9751   -0.0708 N   0  0  0  0  0  0  0  0  0  0  0  0
    6.4538   -0.0831    0.8590 N   0  0  0  0  0  0  0  0  0  0  0  0
    6.0972    1.0587    0.3115 C   0  0  0  0  0  0  0  0  0  0  0  0
    5.4207    2.3764    1.2351 S   0  0  0  0  0  0  0  0  0  0  0  0
    4.5891    1.4560    2.5662 C   0  0  0  0  0  0  0  0  0  0  0  0
    3.3489    0.7498    2.0606 C   0  0  0  0  0  0  0  0  0  0  0  0
    3.3247   -0.5862    1.9404 C   0  0  0  0  0  0  0  0  0  0  0  0
    2.0924   -1.2161    1.4557 C   0  0  0  0  0  0  0  0  0  0  0  0
    1.9986   -2.4303    1.3251 O   0  0  0  0  0  0  0  0  0  0  0  0
    1.0823   -0.3496    1.1756 N   0  0  0  0  0  0  0  0  0  0  0  0
    1.1731    1.0051    1.3428 C   0  0  0  0  0  0  0  0  0  0  0  0
    0.1070    1.7940    1.0527 N   0  0  0  0  0  0  0  0  0  0  0  0
   -1.1457    1.4431    0.5824 C   0  0  0  0  0  0  0  0  0  0  0  0
   -2.0030    2.4501    0.3816 N   0  0  0  0  0  0  0  0  0  0  0  0
   -3.2380    2.1459   -0.0771 C   0  0  0  0  0  0  0  0  0  0  0  0
   -4.1555    3.3174   -0.2828 C   0  0  0  0  0  0  0  0  0  0  0  0
   -3.6436    0.8337   -0.3445 C   0  0  0  0  0  0  0  0  0  0  0  0
   -4.9196    0.4473   -0.8251 C   0  0  0  0  0  0  0  0  0  0  0  0
   -5.2337   -0.8978   -1.0637 C   0  0  0  0  0  0  0  0  0  0  0  0
   -6.6005   -1.2637   -1.5735 C   0  0  0  0  0  0  0  0  0  0  0  0
   -4.2555   -1.8721   -0.8176 C   0  0  0  0  0  0  0  0  0  0  0  0
   -4.5216   -3.3343   -1.0503 C   0  0  0  0  0  0  0  0  0  0  0  0
   -2.9948   -1.4694   -0.3408 C   0  0  0  0  0  0  0  0  0  0  0  0
   -2.6732   -0.1392   -0.1011 C   0  0  0  0  0  0  0  0  0  0  0  0
   -1.4480    0.1549    0.3529 N   0  0  0  0  0  0  0  0  0  0  0  0
    2.2679    1.5590    1.7786 N   0  0  0  0  0  0  0  0  0  0  0  0
    6.3685    1.1452   -1.3777 S   0  0  0  0  0  0  0  0  0  0  0  0
    7.7725   -2.1830   -2.2479 H   0  0  0  0  0  0  0  0  0  0  0  0
    8.2735   -0.6413   -2.9587 H   0  0  0  0  0  0  0  0  0  0  0  0
    6.6294   -1.2621   -3.2370 H   0  0  0  0  0  0  0  0  0  0  0  0
    4.2999    2.1747    3.3417 H   0  0  0  0  0  0  0  0  0  0  0  0
    5.2927    0.7631    3.0412 H   0  0  0  0  0  0  0  0  0  0  0  0
    4.1639   -1.2319    2.1626 H   0  0  0  0  0  0  0  0  0  0  0  0
    0.2078   -0.7357    0.8403 H   0  0  0  0  0  0  0  0  0  0  0  0
    0.2124    2.7869    1.1836 H   0  0  0  0  0  0  0  0  0  0  0  0
   -5.0431    3.2239    0.3505 H   0  0  0  0  0  0  0  0  0  0  0  0
   -3.6544    4.2548   -0.0184 H   0  0  0  0  0  0  0  0  0  0  0  0
   -4.4586    3.3861   -1.3322 H   0  0  0  0  0  0  0  0  0  0  0  0
   -5.6772    1.2051   -1.0152 H   0  0  0  0  0  0  0  0  0  0  0  0
   -6.5232   -1.7628   -2.5446 H   0  0  0  0  0  0  0  0  0  0  0  0
   -7.2304   -0.3779   -1.7077 H   0  0  0  0  0  0  0  0  0  0  0  0
   -7.1075   -1.9235   -0.8624 H   0  0  0  0  0  0  0  0  0  0  0  0
   -3.6472   -3.9468   -0.8058 H   0  0  0  0  0  0  0  0  0  0  0  0
   -5.3489   -3.6751   -0.4198 H   0  0  0  0  0  0  0  0  0  0  0  0
   -4.7652   -3.5136   -2.1022 H   0  0  0  0  0  0  0  0  0  0  0  0
   -2.2315   -2.2224   -0.1478 H   0  0  0  0  0  0  0  0  0  0  0  0
  1  2  1  0
  2  3  2  0
  3  4  1  0
  4  5  2  0
  5  6  1  0
  6  7  1  0
  7  8  1  0
  8  9  2  0
  9 10  1  0
 10 11  2  0
 10 12  1  0
 12 13  1  0
 13 14  1  0
 14 15  1  0
 15 16  2  0
 16 17  1  0
 17 18  1  0
 17 19  2  0
 19 20  1  0
 20 21  2  0
 21 22  1  0
 21 23  1  0
 23 24  1  0
 23 25  2  0
 25 26  1  0
 26 27  2  0
 13 28  2  0
  5 29  1  0
 29  2  1  0
 28  8  1  0
 27 15  1  0
 26 19  1  0
  1 30  1  0
  1 31  1  0
  1 32  1  0
  7 33  1  0
  7 34  1  0
  9 35  1  0
 12 36  1  0
 14 37  1  0
 18 38  1  0
 18 39  1  0
 18 40  1  0
 20 41  1  0
 22 42  1  0
 22 43  1  0
 22 44  1  0
 24 45  1  0
 24 46  1  0
 24 47  1  0
 25 48  1  0
M  END
$$$$
