
     RDKit          3D

 33 33  0  0  0  0  0  0  0  0999 V2000
    3.6558    1.4745    4.2964 C   0  0  0  0  0  0  0  0  0  0  0  0
    4.3144    1.9776    3.2417 C   0  0  0  0  0  0  0  0  0  0  0  0
    3.8218    2.0990    1.8297 C   0  0  0  0  0  0  0  0  0  0  0  0
    2.8206    1.0871    1.5451 N   0  0  0  0  0  0  0  0  0  0  0  0
    2.0113    1.0557    0.4273 C   0  0  0  0  0  0  0  0  0  0  0  0
    1.9160    2.2623   -0.7321 S   0  0  0  0  0  0  0  0  0  0  0  0
    1.2270   -0.0884    0.4075 N   0  0  0  0  0  0  0  0  0  0  0  0
    0.4648   -0.4159   -0.7216 N   0  0  0  0  0  0  0  0  0  0  0  0
    0.3202   -1.7481   -1.0492 C   0  0  0  0  0  0  0  0  0  0  0  0
    0.7085   -2.6623   -0.3222 O   0  0  0  0  0  0  0  0  0  0  0  0
   -0.3333   -1.9931   -2.4079 C   0  0  0  0  0  0  0  0  0  0  0  0
   -1.1957   -0.9564   -2.8520 O   0  0  0  0  0  0  0  0  0  0  0  0
   -2.4571   -0.8664   -2.3237 C   0  0  0  0  0  0  0  0  0  0  0  0
   -2.9726   -1.7115   -1.3353 C   0  0  0  0  0  0  0  0  0  0  0  0
   -4.2756   -1.5274   -0.8583 C   0  0  0  0  0  0  0  0  0  0  0  0
   -5.0678   -0.4996   -1.3645 C   0  0  0  0  0  0  0  0  0  0  0  0
   -6.6674   -0.2837   -0.7707 Cl  0  0  0  0  0  0  0  0  0  0  0  0
   -4.5725    0.3522   -2.3448 C   0  0  0  0  0  0  0  0  0  0  0  0
   -3.2721    0.1681   -2.8199 C   0  0  0  0  0  0  0  0  0  0  0  0
   -2.6952    1.2570   -4.0348 Cl  0  0  0  0  0  0  0  0  0  0  0  0
    4.1199    1.4510    5.2781 H   0  0  0  0  0  0  0  0  0  0  0  0
    2.6382    1.1043    4.2205 H   0  0  0  0  0  0  0  0  0  0  0  0
    5.3192    2.3636    3.4073 H   0  0  0  0  0  0  0  0  0  0  0  0
    4.6532    1.9313    1.1364 H   0  0  0  0  0  0  0  0  0  0  0  0
    3.4214    3.1026    1.6585 H   0  0  0  0  0  0  0  0  0  0  0  0
    2.9563    0.2068    2.0203 H   0  0  0  0  0  0  0  0  0  0  0  0
    1.4513   -0.8795    1.0078 H   0  0  0  0  0  0  0  0  0  0  0  0
    0.2929    0.3238   -1.4036 H   0  0  0  0  0  0  0  0  0  0  0  0
   -0.8373   -2.9661   -2.4180 H   0  0  0  0  0  0  0  0  0  0  0  0
    0.4843   -2.0591   -3.1351 H   0  0  0  0  0  0  0  0  0  0  0  0
   -2.3955   -2.5238   -0.9038 H   0  0  0  0  0  0  0  0  0  0  0  0
   -4.6642   -2.1909   -0.0887 H   0  0  0  0  0  0  0  0  0  0  0  0
   -5.1908    1.1551   -2.7366 H   0  0  0  0  0  0  0  0  0  0  0  0
  1  2  2  0
  2  3  1  0
  3  4  1  0
  4  5  1  0
  5  6  2  0
  5  7  1  0
  7  8  1  0
  8  9  1  0
  9 10  2  0
  9 11  1  0
 11 12  1  0
 12 13  1  0
 13 14  2  0
 14 15  1  0
 15 16  2  0
 16 17  1  0
 16 18  1  0
 18 19  2  0
 19 20  1  0
 19 13  1  0
  1 21  1  0
  1 22  1  0
  2 23  1  0
  3 24  1  0
  3 25  1  0
  4 26  1  0
  7 27  1  0
  8 28  1  0
 11 29  1  0
 11 30  1  0
 14 31  1  0
 15 32  1  0
 18 33  1  0
M  END
$$$$
