
     RDKit          3D

 46 50  0  0  0  0  0  0  0  0999 V2000
    0.6715   -1.0198    1.5939 O   0  0  0  0  0  0  0  0  0  0  0  0
    0.4152   -0.4955    0.5181 C   0  0  0  0  0  0  0  0  0  0  0  0
    1.3267   -0.1625   -0.4652 N   0  0  0  0  0  0  0  0  0  0  0  0
    2.7379   -0.2775   -0.3922 C   0  0  0  0  0  0  0  0  0  0  0  0
    3.3499   -0.6735   -1.5939 C   0  0  0  0  0  0  0  0  0  0  0  0
    4.7221   -0.8818   -1.6630 C   0  0  0  0  0  0  0  0  0  0  0  0
    5.5067   -0.6731   -0.5356 C   0  0  0  0  0  0  0  0  0  0  0  0
    4.9404   -0.2174    0.6628 C   0  0  0  0  0  0  0  0  0  0  0  0
    5.7801    0.0335    1.7617 C   0  0  0  0  0  0  0  0  0  0  0  0
    5.2741    0.5457    2.9527 C   0  0  0  0  0  0  0  0  0  0  0  0
    3.9215    0.8282    3.0529 C   0  0  0  0  0  0  0  0  0  0  0  0
    3.0742    0.5757    1.9696 C   0  0  0  0  0  0  0  0  0  0  0  0
    3.5400    0.0121    0.7542 C   0  0  0  0  0  0  0  0  0  0  0  0
   -0.9620   -0.3044    0.0993 C   0  0  0  0  0  0  0  0  0  0  0  0
   -1.9566   -1.2452    0.2972 C   0  0  0  0  0  0  0  0  0  0  0  0
   -3.0991   -0.7727   -0.2974 N   0  0  0  0  0  0  0  0  0  0  0  0
   -4.3756   -1.3982   -0.3681 C   0  0  0  0  0  0  0  0  0  0  0  0
   -5.4221   -0.7535   -1.0467 C   0  0  0  0  0  0  0  0  0  0  0  0
   -6.6822   -1.3499   -1.1285 C   0  0  0  0  0  0  0  0  0  0  0  0
   -6.9073   -2.5899   -0.5350 C   0  0  0  0  0  0  0  0  0  0  0  0
   -5.8741   -3.2357    0.1421 C   0  0  0  0  0  0  0  0  0  0  0  0
   -4.6095   -2.6453    0.2284 C   0  0  0  0  0  0  0  0  0  0  0  0
   -2.8824    0.4311   -0.8747 N   0  0  0  0  0  0  0  0  0  0  0  0
   -1.6216    0.7583   -0.5660 C   0  0  0  0  0  0  0  0  0  0  0  0
   -1.0742    2.1967   -0.9456 C   0  0  0  0  0  0  0  0  0  0  0  0
    0.1210    2.7533   -0.5400 C   0  0  0  0  0  0  0  0  0  0  0  0
    0.3165    4.0678   -1.0636 C   0  0  0  0  0  0  0  0  0  0  0  0
   -0.7457    4.4790   -1.8349 C   0  0  0  0  0  0  0  0  0  0  0  0
   -1.9727    3.2928   -1.9134 S   0  0  0  0  0  0  0  0  0  0  0  0
    0.9390   -0.1272   -1.4009 H   0  0  0  0  0  0  0  0  0  0  0  0
    2.7570   -0.8669   -2.4848 H   0  0  0  0  0  0  0  0  0  0  0  0
    5.1792   -1.2162   -2.5905 H   0  0  0  0  0  0  0  0  0  0  0  0
    6.5787   -0.8481   -0.6070 H   0  0  0  0  0  0  0  0  0  0  0  0
    6.8489   -0.1593    1.6936 H   0  0  0  0  0  0  0  0  0  0  0  0
    5.9369    0.7355    3.7922 H   0  0  0  0  0  0  0  0  0  0  0  0
    3.5151    1.2445    3.9709 H   0  0  0  0  0  0  0  0  0  0  0  0
    2.0298    0.8428    2.0949 H   0  0  0  0  0  0  0  0  0  0  0  0
   -1.9102   -2.2049    0.7900 H   0  0  0  0  0  0  0  0  0  0  0  0
   -5.2715    0.2168   -1.5174 H   0  0  0  0  0  0  0  0  0  0  0  0
   -7.4870   -0.8435   -1.6555 H   0  0  0  0  0  0  0  0  0  0  0  0
   -7.8891   -3.0523   -0.5987 H   0  0  0  0  0  0  0  0  0  0  0  0
   -6.0540   -4.2024    0.6065 H   0  0  0  0  0  0  0  0  0  0  0  0
   -3.8376   -3.1836    0.7692 H   0  0  0  0  0  0  0  0  0  0  0  0
    0.8335    2.2803    0.1208 H   0  0  0  0  0  0  0  0  0  0  0  0
    1.1877    4.6823   -0.8706 H   0  0  0  0  0  0  0  0  0  0  0  0
   -0.8694    5.4241   -2.3457 H   0  0  0  0  0  0  0  0  0  0  0  0
  1  2  2  0
  2  3  1  0
  3  4  1  0
  4  5  2  0
  5  6  1  0
  6  7  2  0
  7  8  1  0
  8  9  2  0
  9 10  1  0
 10 11  2  0
 11 12  1  0
 12 13  2  0
  2 14  1  0
 14 15  2  0
 15 16  1  0
 16 17  1  0
 17 18  2  0
 18 19  1  0
 19 20  2  0
 20 21  1  0
 21 22  2  0
 16 23  1  0
 23 24  2  0
 24 25  1  0
 25 26  2  0
 26 27  1  0
 27 28  2  0
 28 29  1  0
 13  4  1  0
 24 14  1  0
 29 25  1  0
 13  8  1  0
 22 17  1  0
  3 30  1  0
  5 31  1  0
  6 32  1  0
  7 33  1  0
  9 34  1  0
 10 35  1  0
 11 36  1  0
 12 37  1  0
 15 38  1  0
 18 39  1  0
 19 40  1  0
 20 41  1  0
 21 42  1  0
 22 43  1  0
 26 44  1  0
 27 45  1  0
 28 46  1  0
M  END
$$$$
