
     RDKit          3D

 61 64  0  0  0  0  0  0  0  0999 V2000
    7.9403   -1.9086   -2.7040 C   0  0  0  0  0  0  0  0  0  0  0  0
    7.2604   -0.7281   -2.0765 C   0  0  0  0  0  0  0  0  0  0  0  0
    6.6406    0.2428   -2.8703 C   0  0  0  0  0  0  0  0  0  0  0  0
    6.0331    1.3559   -2.2841 C   0  0  0  0  0  0  0  0  0  0  0  0
    6.0475    1.5251   -0.8933 C   0  0  0  0  0  0  0  0  0  0  0  0
    5.3774    2.7159   -0.2540 C   0  0  0  0  0  0  0  0  0  0  0  0
    4.1017    2.3809    0.3533 N   0  0  0  0  0  0  0  0  0  0  0  0
    2.9596    1.9765   -0.4295 C   0  0  0  0  0  0  0  0  0  0  0  0
    1.8432    1.8835    0.6014 C   0  0  0  0  0  0  0  0  0  0  0  0
    0.7602    0.9064    0.1809 C   0  0  0  0  0  0  0  0  0  0  0  0
    0.7430    0.4148   -0.9421 O   0  0  0  0  0  0  0  0  0  0  0  0
   -0.1932    0.7150    1.1690 N   0  0  0  0  0  0  0  0  0  0  0  0
   -1.3105   -0.1458    1.1260 C   0  0  0  0  0  0  0  0  0  0  0  0
   -2.1786   -0.1202    2.2276 C   0  0  0  0  0  0  0  0  0  0  0  0
   -3.3078   -0.9439    2.2686 C   0  0  0  0  0  0  0  0  0  0  0  0
   -3.5802   -1.7936    1.1950 C   0  0  0  0  0  0  0  0  0  0  0  0
   -4.9981   -2.8725    1.2560 S   0  0  0  0  0  6  0  0  0  0  0  0
   -4.7051   -4.0223    0.4268 O   0  0  0  0  0  0  0  0  0  0  0  0
   -5.3583   -3.0274    2.6503 O   0  0  0  0  0  0  0  0  0  0  0  0
   -6.2081   -1.9581    0.4953 N   0  0  0  0  0  0  0  0  0  0  0  0
   -6.7969   -0.8375    1.2620 C   0  0  0  0  0  0  0  0  0  0  0  0
   -7.8950   -0.1636    0.4470 C   0  0  0  0  0  0  0  0  0  0  0  0
   -7.3507    0.4271   -0.8526 C   0  0  0  0  0  0  0  0  0  0  0  0
   -6.1099   -0.3098   -1.3558 C   0  0  0  0  0  0  0  0  0  0  0  0
   -6.1352   -1.7848   -0.9754 C   0  0  0  0  0  0  0  0  0  0  0  0
   -2.7077   -1.8528    0.1072 C   0  0  0  0  0  0  0  0  0  0  0  0
   -1.5817   -1.0226    0.0720 C   0  0  0  0  0  0  0  0  0  0  0  0
    2.5772    1.4637    1.8756 C   0  0  0  0  0  0  0  0  0  0  0  0
    3.9724    1.9987    1.6768 C   0  0  0  0  0  0  0  0  0  0  0  0
    4.8269    2.0539    2.5455 O   0  0  0  0  0  0  0  0  0  0  0  0
    6.6789    0.5569   -0.1018 C   0  0  0  0  0  0  0  0  0  0  0  0
    7.2846   -0.5562   -0.6884 C   0  0  0  0  0  0  0  0  0  0  0  0
    9.0079   -1.7035   -2.8281 H   0  0  0  0  0  0  0  0  0  0  0  0
    7.5098   -2.1355   -3.6849 H   0  0  0  0  0  0  0  0  0  0  0  0
    7.8189   -2.8014   -2.0820 H   0  0  0  0  0  0  0  0  0  0  0  0
    6.6240    0.1370   -3.9527 H   0  0  0  0  0  0  0  0  0  0  0  0
    5.5492    2.0900   -2.9236 H   0  0  0  0  0  0  0  0  0  0  0  0
    6.0427    3.1363    0.5095 H   0  0  0  0  0  0  0  0  0  0  0  0
    5.1998    3.5064   -0.9921 H   0  0  0  0  0  0  0  0  0  0  0  0
    3.1823    1.0142   -0.9036 H   0  0  0  0  0  0  0  0  0  0  0  0
    2.7480    2.7246   -1.1998 H   0  0  0  0  0  0  0  0  0  0  0  0
    1.3882    2.8731    0.7407 H   0  0  0  0  0  0  0  0  0  0  0  0
   -0.1010    1.2684    2.0122 H   0  0  0  0  0  0  0  0  0  0  0  0
   -1.9872    0.5355    3.0741 H   0  0  0  0  0  0  0  0  0  0  0  0
   -3.9607   -0.9212    3.1387 H   0  0  0  0  0  0  0  0  0  0  0  0
   -7.2367   -1.2242    2.1872 H   0  0  0  0  0  0  0  0  0  0  0  0
   -6.0276   -0.1045    1.5246 H   0  0  0  0  0  0  0  0  0  0  0  0
   -8.6719   -0.9012    0.2084 H   0  0  0  0  0  0  0  0  0  0  0  0
   -8.3800    0.6230    1.0359 H   0  0  0  0  0  0  0  0  0  0  0  0
   -8.1402    0.3972   -1.6133 H   0  0  0  0  0  0  0  0  0  0  0  0
   -7.1015    1.4861   -0.7097 H   0  0  0  0  0  0  0  0  0  0  0  0
   -6.0309   -0.1985   -2.4429 H   0  0  0  0  0  0  0  0  0  0  0  0
   -5.2153    0.1601   -0.9277 H   0  0  0  0  0  0  0  0  0  0  0  0
   -7.0090   -2.2770   -1.4185 H   0  0  0  0  0  0  0  0  0  0  0  0
   -5.2542   -2.2775   -1.3967 H   0  0  0  0  0  0  0  0  0  0  0  0
   -2.8850   -2.5448   -0.7135 H   0  0  0  0  0  0  0  0  0  0  0  0
   -0.9263   -1.1011   -0.7905 H   0  0  0  0  0  0  0  0  0  0  0  0
    2.1254    1.9158    2.7629 H   0  0  0  0  0  0  0  0  0  0  0  0
    2.6249    0.3767    1.9964 H   0  0  0  0  0  0  0  0  0  0  0  0
    6.7023    0.6669    0.9815 H   0  0  0  0  0  0  0  0  0  0  0  0
    7.7741   -1.2900   -0.0523 H   0  0  0  0  0  0  0  0  0  0  0  0
  1  2  1  0
  2  3  2  0
  3  4  1  0
  4  5  2  0
  5  6  1  0
  6  7  1  0
  7  8  1  0
  8  9  1  0
  9 10  1  0
 10 11  2  0
 10 12  1  0
 12 13  1  0
 13 14  2  0
 14 15  1  0
 15 16  2  0
 16 17  1  0
 17 18  2  0
 17 19  2  0
 17 20  1  0
 20 21  1  0
 21 22  1  0
 22 23  1  0
 23 24  1  0
 24 25  1  0
 16 26  1  0
 26 27  2  0
  9 28  1  0
 28 29  1  0
 29 30  2  0
  5 31  1  0
 31 32  2  0
 32  2  1  0
 29  7  1  0
 27 13  1  0
 25 20  1  0
  1 33  1  0
  1 34  1  0
  1 35  1  0
  3 36  1  0
  4 37  1  0
  6 38  1  0
  6 39  1  0
  8 40  1  0
  8 41  1  0
  9 42  1  0
 12 43  1  0
 14 44  1  0
 15 45  1  0
 21 46  1  0
 21 47  1  0
 22 48  1  0
 22 49  1  0
 23 50  1  0
 23 51  1  0
 24 52  1  0
 24 53  1  0
 25 54  1  0
 25 55  1  0
 26 56  1  0
 27 57  1  0
 28 58  1  0
 28 59  1  0
 31 60  1  0
 32 61  1  0
M  END
$$$$
