
     RDKit          3D

 55 57  0  0  0  0  0  0  0  0999 V2000
   -8.0881   -0.9127    0.3433 C   0  0  0  0  0  0  0  0  0  0  0  0
   -7.1524   -0.1075   -0.5078 C   0  0  0  0  0  0  0  0  0  0  0  0
   -7.5537    1.1160   -1.0465 C   0  0  0  0  0  0  0  0  0  0  0  0
   -6.6969    1.8380   -1.8820 C   0  0  0  0  0  0  0  0  0  0  0  0
   -5.4188    1.3532   -2.2094 C   0  0  0  0  0  0  0  0  0  0  0  0
   -4.5763    2.1611   -3.1542 C   0  0  0  0  0  0  0  0  0  0  0  0
   -5.0051    0.1327   -1.6460 C   0  0  0  0  0  0  0  0  0  0  0  0
   -3.6644   -0.4779   -1.8628 C   0  0  0  0  0  0  0  0  0  0  0  0
   -3.5942   -1.6835   -2.1020 O   0  0  0  0  0  0  0  0  0  0  0  0
   -2.4395    0.4077   -1.6989 C   0  0  0  0  0  0  0  0  0  0  0  0
   -1.3340   -0.3974   -1.2804 O   0  0  0  0  0  0  0  0  0  0  0  0
   -0.1676    0.2784   -1.1749 C   0  0  0  0  0  0  0  0  0  0  0  0
   -0.0188    1.4736   -1.3722 O   0  0  0  0  0  0  0  0  0  0  0  0
    0.9331   -0.6357   -0.7659 C   0  0  0  0  0  0  0  0  0  0  0  0
    0.7276   -2.0013   -0.5438 C   0  0  0  0  0  0  0  0  0  0  0  0
    1.7923   -2.8199   -0.1544 C   0  0  0  0  0  0  0  0  0  0  0  0
    3.0827   -2.2957    0.0315 C   0  0  0  0  0  0  0  0  0  0  0  0
    4.1868   -3.2390    0.4235 C   0  0  0  0  0  0  0  0  0  0  0  0
    3.2825   -0.9212   -0.2027 C   0  0  0  0  0  0  0  0  0  0  0  0
    4.8895   -0.1622   -0.0266 S   0  0  0  0  0  6  0  0  0  0  0  0
    5.8640   -1.0240   -0.6585 O   0  0  0  0  0  0  0  0  0  0  0  0
    4.7879    1.2323   -0.4033 O   0  0  0  0  0  0  0  0  0  0  0  0
    5.1484   -0.1993    1.6607 N   0  0  0  0  0  0  0  0  0  0  0  0
    6.5476    0.1799    2.0601 C   0  0  0  0  0  0  0  0  0  0  0  0
    6.5886    1.5931    2.6492 C   0  0  0  0  0  0  0  0  0  0  0  0
    5.7959    1.7296    3.8389 O   0  0  0  0  0  0  0  0  0  0  0  0
    4.6728    0.8393    3.8754 C   0  0  0  0  0  0  0  0  0  0  0  0
    4.1188    0.5203    2.4830 C   0  0  0  0  0  0  0  0  0  0  0  0
    2.2151   -0.0990   -0.6009 C   0  0  0  0  0  0  0  0  0  0  0  0
   -5.8814   -0.5988   -0.8246 C   0  0  0  0  0  0  0  0  0  0  0  0
   -8.7818   -0.2621    0.8869 H   0  0  0  0  0  0  0  0  0  0  0  0
   -7.5342   -1.4920    1.0892 H   0  0  0  0  0  0  0  0  0  0  0  0
   -8.6657   -1.5995   -0.2830 H   0  0  0  0  0  0  0  0  0  0  0  0
   -8.5433    1.5137   -0.8301 H   0  0  0  0  0  0  0  0  0  0  0  0
   -7.0477    2.7835   -2.2932 H   0  0  0  0  0  0  0  0  0  0  0  0
   -3.8186    2.7246   -2.6024 H   0  0  0  0  0  0  0  0  0  0  0  0
   -4.0981    1.5155   -3.8970 H   0  0  0  0  0  0  0  0  0  0  0  0
   -5.1850    2.8804   -3.7141 H   0  0  0  0  0  0  0  0  0  0  0  0
   -2.2057    0.8593   -2.6679 H   0  0  0  0  0  0  0  0  0  0  0  0
   -2.6357    1.1701   -0.9376 H   0  0  0  0  0  0  0  0  0  0  0  0
   -0.2558   -2.4499   -0.6778 H   0  0  0  0  0  0  0  0  0  0  0  0
    1.6030   -3.8817   -0.0006 H   0  0  0  0  0  0  0  0  0  0  0  0
    3.7808   -4.1878    0.7931 H   0  0  0  0  0  0  0  0  0  0  0  0
    4.8186   -3.4629   -0.4415 H   0  0  0  0  0  0  0  0  0  0  0  0
    4.7954   -2.8299    1.2343 H   0  0  0  0  0  0  0  0  0  0  0  0
    7.2389    0.1091    1.2148 H   0  0  0  0  0  0  0  0  0  0  0  0
    6.8774   -0.5530    2.8059 H   0  0  0  0  0  0  0  0  0  0  0  0
    7.6170    1.8631    2.9109 H   0  0  0  0  0  0  0  0  0  0  0  0
    6.2313    2.3299    1.9211 H   0  0  0  0  0  0  0  0  0  0  0  0
    3.9005    1.3120    4.4905 H   0  0  0  0  0  0  0  0  0  0  0  0
    4.9854   -0.0773    4.3890 H   0  0  0  0  0  0  0  0  0  0  0  0
    3.2373   -0.1204    2.5836 H   0  0  0  0  0  0  0  0  0  0  0  0
    3.8276    1.4548    1.9915 H   0  0  0  0  0  0  0  0  0  0  0  0
    2.3781    0.9621   -0.7886 H   0  0  0  0  0  0  0  0  0  0  0  0
   -5.5622   -1.5612   -0.4249 H   0  0  0  0  0  0  0  0  0  0  0  0
  1  2  1  0
  2  3  2  0
  3  4  1  0
  4  5  2  0
  5  6  1  0
  5  7  1  0
  7  8  1  0
  8  9  2  0
  8 10  1  0
 10 11  1  0
 11 12  1  0
 12 13  2  0
 12 14  1  0
 14 15  2  0
 15 16  1  0
 16 17  2  0
 17 18  1  0
 17 19  1  0
 19 20  1  0
 20 21  2  0
 20 22  2  0
 20 23  1  0
 23 24  1  0
 24 25  1  0
 25 26  1  0
 26 27  1  0
 27 28  1  0
 19 29  2  0
  7 30  2  0
 30  2  1  0
 29 14  1  0
 28 23  1  0
  1 31  1  0
  1 32  1  0
  1 33  1  0
  3 34  1  0
  4 35  1  0
  6 36  1  0
  6 37  1  0
  6 38  1  0
 10 39  1  0
 10 40  1  0
 15 41  1  0
 16 42  1  0
 18 43  1  0
 18 44  1  0
 18 45  1  0
 24 46  1  0
 24 47  1  0
 25 48  1  0
 25 49  1  0
 27 50  1  0
 27 51  1  0
 28 52  1  0
 28 53  1  0
 29 54  1  0
 30 55  1  0
M  END
$$$$
