
     RDKit          3D

 57 60  0  0  0  0  0  0  0  0999 V2000
   -0.7868    1.7512   -1.0400 O   0  0  0  0  0  0  0  0  0  0  0  0
   -1.4431    1.1861   -0.1731 C   0  0  0  0  0  0  0  0  0  0  0  0
   -1.0174   -0.1015    0.5108 C   0  0  0  0  0  0  0  0  0  0  0  0
    0.3944   -0.5571    0.1407 C   0  0  0  0  0  0  0  0  0  0  0  0
    1.4762    0.2941    0.8142 C   0  0  0  0  0  0  0  0  0  0  0  0
    2.8973   -0.0887    0.3913 C   0  0  0  0  0  0  0  0  0  0  0  0
    3.3166   -1.4854    0.8612 C   0  0  0  0  0  0  0  0  0  0  0  0
    4.7157   -1.7561    0.5457 N   0  0  0  0  0  0  0  0  0  0  0  0
    5.6746   -1.3776    1.4719 C   0  0  0  0  0  0  0  0  0  0  0  0
    5.4222   -0.8470    2.5529 O   0  0  0  0  0  0  0  0  0  0  0  0
    6.9779   -1.6171    1.1411 N   0  0  0  0  0  0  0  0  0  0  0  0
    7.3822   -2.1868   -0.0619 C   0  0  0  0  0  0  0  0  0  0  0  0
    8.7384   -2.3908   -0.3169 C   0  0  0  0  0  0  0  0  0  0  0  0
    9.1349   -2.9576   -1.5304 C   0  0  0  0  0  0  0  0  0  0  0  0
    8.1797   -3.3181   -2.4830 C   0  0  0  0  0  0  0  0  0  0  0  0
    6.8238   -3.1127   -2.2242 C   0  0  0  0  0  0  0  0  0  0  0  0
    6.4295   -2.5455   -1.0082 C   0  0  0  0  0  0  0  0  0  0  0  0
    5.0056   -2.3104   -0.7010 C   0  0  0  0  0  0  0  0  0  0  0  0
    4.1561   -2.6052   -1.5390 O   0  0  0  0  0  0  0  0  0  0  0  0
   -2.6598    1.6503    0.2837 N   0  0  0  0  0  0  0  0  0  0  0  0
   -3.3197    2.7681   -0.3691 C   0  0  0  0  0  0  0  0  0  0  0  0
   -4.3936    3.4152    0.5084 C   0  0  0  0  0  0  0  0  0  0  0  0
   -5.5152    2.4850    0.8641 C   0  0  0  0  0  0  0  0  0  0  0  0
   -5.7385    1.9102    2.1010 C   0  0  0  0  0  0  0  0  0  0  0  0
   -6.8610    1.1319    2.0185 N   0  0  0  0  0  0  0  0  0  0  0  0
   -7.3795    1.1784    0.7460 C   0  0  0  0  0  0  0  0  0  0  0  0
   -8.5054    0.5433    0.2083 C   0  0  0  0  0  0  0  0  0  0  0  0
   -8.8041    0.7820   -1.1362 C   0  0  0  0  0  0  0  0  0  0  0  0
   -8.0084    1.6239   -1.9085 C   0  0  0  0  0  0  0  0  0  0  0  0
   -6.8867    2.2517   -1.3545 C   0  0  0  0  0  0  0  0  0  0  0  0
   -6.5606    2.0256   -0.0011 C   0  0  0  0  0  0  0  0  0  0  0  0
   -1.7285   -0.8779    0.2028 H   0  0  0  0  0  0  0  0  0  0  0  0
   -1.1044    0.0221    1.5965 H   0  0  0  0  0  0  0  0  0  0  0  0
    0.5269   -0.5373   -0.9478 H   0  0  0  0  0  0  0  0  0  0  0  0
    0.5050   -1.5999    0.4588 H   0  0  0  0  0  0  0  0  0  0  0  0
    1.3228    1.3502    0.5637 H   0  0  0  0  0  0  0  0  0  0  0  0
    1.3840    0.2145    1.9044 H   0  0  0  0  0  0  0  0  0  0  0  0
    3.5897    0.6542    0.8071 H   0  0  0  0  0  0  0  0  0  0  0  0
    2.9915   -0.0169   -0.6993 H   0  0  0  0  0  0  0  0  0  0  0  0
    3.1668   -1.5738    1.9437 H   0  0  0  0  0  0  0  0  0  0  0  0
    2.6921   -2.2504    0.3873 H   0  0  0  0  0  0  0  0  0  0  0  0
    7.6587   -1.3363    1.8348 H   0  0  0  0  0  0  0  0  0  0  0  0
    9.4936   -2.1142    0.4135 H   0  0  0  0  0  0  0  0  0  0  0  0
   10.1910   -3.1181   -1.7355 H   0  0  0  0  0  0  0  0  0  0  0  0
    8.4911   -3.7577   -3.4277 H   0  0  0  0  0  0  0  0  0  0  0  0
    6.0797   -3.3920   -2.9673 H   0  0  0  0  0  0  0  0  0  0  0  0
   -3.2606    0.9863    0.7581 H   0  0  0  0  0  0  0  0  0  0  0  0
   -2.5644    3.5171   -0.6329 H   0  0  0  0  0  0  0  0  0  0  0  0
   -3.7458    2.3889   -1.3047 H   0  0  0  0  0  0  0  0  0  0  0  0
   -4.8074    4.2861   -0.0145 H   0  0  0  0  0  0  0  0  0  0  0  0
   -3.9303    3.7932    1.4288 H   0  0  0  0  0  0  0  0  0  0  0  0
   -5.1975    1.9973    3.0343 H   0  0  0  0  0  0  0  0  0  0  0  0
   -7.2614    0.6016    2.7798 H   0  0  0  0  0  0  0  0  0  0  0  0
   -9.1298   -0.1106    0.8080 H   0  0  0  0  0  0  0  0  0  0  0  0
   -9.6723    0.3042   -1.5842 H   0  0  0  0  0  0  0  0  0  0  0  0
   -8.2592    1.7978   -2.9522 H   0  0  0  0  0  0  0  0  0  0  0  0
   -6.2766    2.9076   -1.9682 H   0  0  0  0  0  0  0  0  0  0  0  0
  1  2  2  0
  2  3  1  0
  3  4  1  0
  4  5  1  0
  5  6  1  0
  6  7  1  0
  7  8  1  0
  8  9  1  0
  9 10  2  0
  9 11  1  0
 11 12  1  0
 12 13  2  0
 13 14  1  0
 14 15  2  0
 15 16  1  0
 16 17  2  0
 17 18  1  0
 18 19  2  0
  2 20  1  0
 20 21  1  0
 21 22  1  0
 22 23  1  0
 23 24  2  0
 24 25  1  0
 25 26  1  0
 26 27  2  0
 27 28  1  0
 28 29  2  0
 29 30  1  0
 30 31  2  0
 18  8  1  0
 31 23  1  0
 17 12  1  0
 31 26  1  0
  3 32  1  0
  3 33  1  0
  4 34  1  0
  4 35  1  0
  5 36  1  0
  5 37  1  0
  6 38  1  0
  6 39  1  0
  7 40  1  0
  7 41  1  0
 11 42  1  0
 13 43  1  0
 14 44  1  0
 15 45  1  0
 16 46  1  0
 20 47  1  0
 21 48  1  0
 21 49  1  0
 22 50  1  0
 22 51  1  0
 24 52  1  0
 25 53  1  0
 27 54  1  0
 28 55  1  0
 29 56  1  0
 30 57  1  0
M  END
$$$$
