
     RDKit          3D

 40 42  0  0  0  0  0  0  0  0999 V2000
    6.0554    0.4288   -1.0572 C   0  0  0  0  0  0  0  0  0  0  0  0
    5.4357    0.9651    0.2241 C   0  0  0  0  0  0  0  0  0  0  0  0
    3.9491    0.7181    0.2739 C   0  0  0  0  0  0  0  0  0  0  0  0
    3.4450   -0.4661    0.8243 C   0  0  0  0  0  0  0  0  0  0  0  0
    2.0687   -0.7036    0.8540 C   0  0  0  0  0  0  0  0  0  0  0  0
    1.1774    0.2388    0.3284 C   0  0  0  0  0  0  0  0  0  0  0  0
   -0.2769   -0.0426    0.3785 C   0  0  0  0  0  0  0  0  0  0  0  0
   -0.7739   -1.0747    0.9887 N   0  0  0  0  0  0  0  0  0  0  0  0
   -2.2483   -1.0346    0.7540 N   0  0  0  0  0  0  0  0  0  0  0  0
   -3.2952   -1.4488    2.0308 S   0  0  0  0  0  6  0  0  0  0  0  0
   -2.7460   -0.3279    3.3001 C   0  0  0  0  0  0  0  0  0  0  0  0
   -2.9981   -2.7922    2.4825 O   0  0  0  0  0  0  0  0  0  0  0  0
   -4.6449   -1.0616    1.6679 O   0  0  0  0  0  0  0  0  0  0  0  0
   -2.6030    0.1336   -0.0790 C   0  0  0  0  0  0  0  0  0  0  0  0
   -3.2000   -0.3437   -1.3797 C   0  0  0  0  0  0  0  0  0  0  0  0
   -4.5139   -0.2051   -1.7927 C   0  0  0  0  0  0  0  0  0  0  0  0
   -4.7521   -0.7795   -3.0741 C   0  0  0  0  0  0  0  0  0  0  0  0
   -3.6166   -1.3501   -3.6005 C   0  0  0  0  0  0  0  0  0  0  0  0
   -2.2770   -1.1983   -2.5522 S   0  0  0  0  0  0  0  0  0  0  0  0
   -1.2861    0.8968   -0.2333 C   0  0  0  0  0  0  0  0  0  0  0  0
    1.6758    1.4206   -0.2288 C   0  0  0  0  0  0  0  0  0  0  0  0
    3.0541    1.6557   -0.2569 C   0  0  0  0  0  0  0  0  0  0  0  0
    7.1328    0.6216   -1.0660 H   0  0  0  0  0  0  0  0  0  0  0  0
    5.9033   -0.6519   -1.1501 H   0  0  0  0  0  0  0  0  0  0  0  0
    5.6180    0.9065   -1.9404 H   0  0  0  0  0  0  0  0  0  0  0  0
    5.9165    0.4981    1.0923 H   0  0  0  0  0  0  0  0  0  0  0  0
    5.6338    2.0404    0.3101 H   0  0  0  0  0  0  0  0  0  0  0  0
    4.1210   -1.2155    1.2316 H   0  0  0  0  0  0  0  0  0  0  0  0
    1.7025   -1.6339    1.2847 H   0  0  0  0  0  0  0  0  0  0  0  0
   -2.8484    0.6983    2.9433 H   0  0  0  0  0  0  0  0  0  0  0  0
   -1.7103   -0.5539    3.5590 H   0  0  0  0  0  0  0  0  0  0  0  0
   -3.3826   -0.4771    4.1753 H   0  0  0  0  0  0  0  0  0  0  0  0
   -3.3202    0.7898    0.4280 H   0  0  0  0  0  0  0  0  0  0  0  0
   -5.2789    0.2736   -1.1914 H   0  0  0  0  0  0  0  0  0  0  0  0
   -5.7114   -0.7863   -3.5769 H   0  0  0  0  0  0  0  0  0  0  0  0
   -3.5104   -1.8624   -4.5469 H   0  0  0  0  0  0  0  0  0  0  0  0
   -1.3068    1.8114    0.3708 H   0  0  0  0  0  0  0  0  0  0  0  0
   -1.0347    1.1600   -1.2637 H   0  0  0  0  0  0  0  0  0  0  0  0
    1.0184    2.1755   -0.6487 H   0  0  0  0  0  0  0  0  0  0  0  0
    3.4281    2.5772   -0.6993 H   0  0  0  0  0  0  0  0  0  0  0  0
  1  2  1  0
  2  3  1  0
  3  4  2  0
  4  5  1  0
  5  6  2  0
  6  7  1  0
  7  8  2  0
  8  9  1  0
  9 10  1  0
 10 11  1  0
 10 12  2  0
 10 13  2  0
  9 14  1  0
 14 15  1  0
 15 16  2  0
 16 17  1  0
 17 18  2  0
 18 19  1  0
 14 20  1  0
  6 21  1  0
 21 22  2  0
 22  3  1  0
 20  7  1  0
 19 15  1  0
  1 23  1  0
  1 24  1  0
  1 25  1  0
  2 26  1  0
  2 27  1  0
  4 28  1  0
  5 29  1  0
 11 30  1  0
 11 31  1  0
 11 32  1  0
 14 33  1  0
 16 34  1  0
 17 35  1  0
 18 36  1  0
 20 37  1  0
 20 38  1  0
 21 39  1  0
 22 40  1  0
M  END
$$$$
