
     RDKit          3D

 50 52  0  0  0  0  0  0  0  0999 V2000
   -4.1538    1.2172    0.3384 O   0  0  0  0  0  0  0  0  0  0  0  0
   -4.4413    0.1172   -0.1271 C   0  0  0  0  0  0  0  0  0  0  0  0
   -3.5655   -1.1242    0.0598 C   0  0  0  0  0  0  0  0  0  0  0  0
   -2.2250   -0.8055    0.4278 O   0  0  0  0  0  0  0  0  0  0  0  0
   -1.4722   -0.3340   -0.5970 C   0  0  0  0  0  0  0  0  0  0  0  0
   -1.8161   -0.2799   -1.7675 O   0  0  0  0  0  0  0  0  0  0  0  0
   -0.1293    0.0889   -0.1137 C   0  0  0  0  0  0  0  0  0  0  0  0
    0.2089    0.1018    1.2481 C   0  0  0  0  0  0  0  0  0  0  0  0
    1.4846    0.5053    1.6514 C   0  0  0  0  0  0  0  0  0  0  0  0
    2.4225    0.8935    0.6897 C   0  0  0  0  0  0  0  0  0  0  0  0
    4.0389    1.4089    1.2242 S   0  0  0  0  0  6  0  0  0  0  0  0
    4.8081    1.7764    0.0547 O   0  0  0  0  0  0  0  0  0  0  0  0
    3.8392    2.3416    2.3136 O   0  0  0  0  0  0  0  0  0  0  0  0
    4.6909   -0.0304    1.8608 N   0  0  0  0  0  0  0  0  0  0  0  0
    4.8975   -1.1747    0.9375 C   0  0  0  0  0  0  0  0  0  0  0  0
    6.2368   -1.0959    0.2117 C   0  0  0  0  0  0  0  0  0  0  0  0
    7.3970   -0.9045    1.1829 C   0  0  0  0  0  0  0  0  0  0  0  0
    7.1429    0.2808    2.1088 C   0  0  0  0  0  0  0  0  0  0  0  0
    5.8070    0.1358    2.8260 C   0  0  0  0  0  0  0  0  0  0  0  0
    2.0952    0.8991   -0.6682 C   0  0  0  0  0  0  0  0  0  0  0  0
    0.8188    0.4939   -1.0666 C   0  0  0  0  0  0  0  0  0  0  0  0
   -5.5891   -0.1122   -0.8509 N   0  0  0  0  0  0  0  0  0  0  0  0
   -6.5658    0.9347   -1.0370 C   0  0  0  0  0  0  0  0  0  0  0  0
   -7.5195    0.5058   -2.0866 C   0  0  0  0  0  0  0  0  0  0  0  0
   -7.7966    0.9608   -3.3591 C   0  0  0  0  0  0  0  0  0  0  0  0
   -8.8128    0.1190   -3.8718 C   0  0  0  0  0  0  0  0  0  0  0  0
   -9.0914   -0.7941   -2.8817 C   0  0  0  0  0  0  0  0  0  0  0  0
   -8.3077   -0.5726   -1.7951 O   0  0  0  0  0  0  0  0  0  0  0  0
   -3.9968   -1.7086    0.8792 H   0  0  0  0  0  0  0  0  0  0  0  0
   -3.5847   -1.7538   -0.8375 H   0  0  0  0  0  0  0  0  0  0  0  0
   -0.5144   -0.1888    2.0065 H   0  0  0  0  0  0  0  0  0  0  0  0
    1.7413    0.5221    2.7089 H   0  0  0  0  0  0  0  0  0  0  0  0
    4.8517   -2.0965    1.5318 H   0  0  0  0  0  0  0  0  0  0  0  0
    4.0812   -1.2468    0.2129 H   0  0  0  0  0  0  0  0  0  0  0  0
    6.2296   -0.2711   -0.5085 H   0  0  0  0  0  0  0  0  0  0  0  0
    6.3924   -2.0129   -0.3679 H   0  0  0  0  0  0  0  0  0  0  0  0
    8.3279   -0.7512    0.6257 H   0  0  0  0  0  0  0  0  0  0  0  0
    7.5275   -1.8153    1.7808 H   0  0  0  0  0  0  0  0  0  0  0  0
    7.1598    1.2099    1.5268 H   0  0  0  0  0  0  0  0  0  0  0  0
    7.9508    0.3505    2.8458 H   0  0  0  0  0  0  0  0  0  0  0  0
    5.8238   -0.7444    3.4812 H   0  0  0  0  0  0  0  0  0  0  0  0
    5.6313    0.9931    3.4837 H   0  0  0  0  0  0  0  0  0  0  0  0
    2.8178    1.2179   -1.4165 H   0  0  0  0  0  0  0  0  0  0  0  0
    0.5622    0.5011   -2.1251 H   0  0  0  0  0  0  0  0  0  0  0  0
   -5.8823   -1.0599   -1.0518 H   0  0  0  0  0  0  0  0  0  0  0  0
   -7.0811    1.0960   -0.0846 H   0  0  0  0  0  0  0  0  0  0  0  0
   -6.0572    1.8638   -1.3149 H   0  0  0  0  0  0  0  0  0  0  0  0
   -7.3173    1.7941   -3.8558 H   0  0  0  0  0  0  0  0  0  0  0  0
   -9.2845    0.1708   -4.8429 H   0  0  0  0  0  0  0  0  0  0  0  0
   -9.7809   -1.6229   -2.7996 H   0  0  0  0  0  0  0  0  0  0  0  0
  1  2  2  0
  2  3  1  0
  3  4  1  0
  4  5  1  0
  5  6  2  0
  5  7  1  0
  7  8  2  0
  8  9  1  0
  9 10  2  0
 10 11  1  0
 11 12  2  0
 11 13  2  0
 11 14  1  0
 14 15  1  0
 15 16  1  0
 16 17  1  0
 17 18  1  0
 18 19  1  0
 10 20  1  0
 20 21  2  0
  2 22  1  0
 22 23  1  0
 23 24  1  0
 24 25  2  0
 25 26  1  0
 26 27  2  0
 27 28  1  0
 21  7  1  0
 28 24  1  0
 19 14  1  0
  3 29  1  0
  3 30  1  0
  8 31  1  0
  9 32  1  0
 15 33  1  0
 15 34  1  0
 16 35  1  0
 16 36  1  0
 17 37  1  0
 17 38  1  0
 18 39  1  0
 18 40  1  0
 19 41  1  0
 19 42  1  0
 20 43  1  0
 21 44  1  0
 22 45  1  0
 23 46  1  0
 23 47  1  0
 25 48  1  0
 26 49  1  0
 27 50  1  0
M  END
$$$$
