
     RDKit          3D

 49 52  0  0  0  0  0  0  0  0999 V2000
    1.3334    2.6557   -3.0491 N   0  0  0  0  0  0  0  0  0  0  0  0
    1.0856    1.7592   -2.3509 C   0  0  0  0  0  0  0  0  0  0  0  0
    0.7746    0.6947   -1.3848 C   0  0  0  0  0  0  0  0  0  0  0  0
    1.0524   -0.6874   -1.9688 C   0  0  0  0  0  0  0  0  0  0  0  0
    1.5531   -0.8684   -3.0780 O   0  0  0  0  0  0  0  0  0  0  0  0
    0.7909   -1.7449   -1.1120 N   0  0  0  0  0  0  0  0  0  0  0  0
    1.0963   -3.1143   -1.4582 C   0  0  0  0  0  0  0  0  0  0  0  0
    2.3015   -3.5892   -0.6901 C   0  0  0  0  0  0  0  0  0  0  0  0
    3.5918   -3.2738   -1.1410 C   0  0  0  0  0  0  0  0  0  0  0  0
    4.7140   -3.6877   -0.4225 C   0  0  0  0  0  0  0  0  0  0  0  0
    4.5580   -4.4152    0.7559 C   0  0  0  0  0  0  0  0  0  0  0  0
    3.2804   -4.7274    1.2182 C   0  0  0  0  0  0  0  0  0  0  0  0
    2.1561   -4.3140    0.5011 C   0  0  0  0  0  0  0  0  0  0  0  0
   -0.6454    0.8458   -0.8822 C   0  0  0  0  0  0  0  0  0  0  0  0
   -1.6419    0.2613   -1.6063 N   0  0  0  0  0  0  0  0  0  0  0  0
   -2.8994    0.4039   -1.1553 C   0  0  0  0  0  0  0  0  0  0  0  0
   -3.9529   -0.1675   -1.8585 C   0  0  0  0  0  0  0  0  0  0  0  0
   -5.2708   -0.0441   -1.4170 C   0  0  0  0  0  0  0  0  0  0  0  0
   -5.5385    0.6627   -0.2520 C   0  0  0  0  0  0  0  0  0  0  0  0
   -4.4857    1.2401    0.4596 C   0  0  0  0  0  0  0  0  0  0  0  0
   -3.1698    1.1235    0.0277 C   0  0  0  0  0  0  0  0  0  0  0  0
   -2.1815    1.6964    0.7406 N   0  0  0  0  0  0  0  0  0  0  0  0
   -0.9135    1.5739    0.2877 C   0  0  0  0  0  0  0  0  0  0  0  0
    0.1345    2.2039    0.9930 N   0  0  0  0  0  0  0  0  0  0  0  0
   -0.0719    2.2051    2.4597 C   0  0  0  0  0  0  0  0  0  0  0  0
   -0.3894    3.6474    2.8312 C   0  0  0  0  0  0  0  0  0  0  0  0
    0.4440    4.4225    1.8317 C   0  0  0  0  0  0  0  0  0  0  0  0
    0.2507    3.6186    0.5504 C   0  0  0  0  0  0  0  0  0  0  0  0
    1.4801    0.7769   -0.5472 H   0  0  0  0  0  0  0  0  0  0  0  0
    0.4195   -1.5719   -0.1875 H   0  0  0  0  0  0  0  0  0  0  0  0
    0.2175   -3.7177   -1.2052 H   0  0  0  0  0  0  0  0  0  0  0  0
    1.2635   -3.2243   -2.5352 H   0  0  0  0  0  0  0  0  0  0  0  0
    3.7239   -2.7004   -2.0578 H   0  0  0  0  0  0  0  0  0  0  0  0
    5.7094   -3.4410   -0.7832 H   0  0  0  0  0  0  0  0  0  0  0  0
    5.4328   -4.7382    1.3142 H   0  0  0  0  0  0  0  0  0  0  0  0
    3.1606   -5.2938    2.1383 H   0  0  0  0  0  0  0  0  0  0  0  0
    1.1667   -4.5642    0.8771 H   0  0  0  0  0  0  0  0  0  0  0  0
   -3.7404   -0.7180   -2.7721 H   0  0  0  0  0  0  0  0  0  0  0  0
   -6.0803   -0.4968   -1.9843 H   0  0  0  0  0  0  0  0  0  0  0  0
   -6.5604    0.7693    0.1035 H   0  0  0  0  0  0  0  0  0  0  0  0
   -4.6941    1.7967    1.3702 H   0  0  0  0  0  0  0  0  0  0  0  0
   -0.8311    1.5030    2.8233 H   0  0  0  0  0  0  0  0  0  0  0  0
    0.8774    1.9097    2.9239 H   0  0  0  0  0  0  0  0  0  0  0  0
   -0.1322    3.8786    3.8685 H   0  0  0  0  0  0  0  0  0  0  0  0
   -1.4552    3.8568    2.6824 H   0  0  0  0  0  0  0  0  0  0  0  0
    0.1247    5.4629    1.7252 H   0  0  0  0  0  0  0  0  0  0  0  0
    1.4994    4.4143    2.1298 H   0  0  0  0  0  0  0  0  0  0  0  0
    1.1091    3.7429   -0.1170 H   0  0  0  0  0  0  0  0  0  0  0  0
   -0.6479    3.9745    0.0283 H   0  0  0  0  0  0  0  0  0  0  0  0
  1  2  3  0
  2  3  1  0
  3  4  1  0
  4  5  2  0
  4  6  1  0
  6  7  1  0
  7  8  1  0
  8  9  2  0
  9 10  1  0
 10 11  2  0
 11 12  1  0
 12 13  2  0
  3 14  1  0
 14 15  2  0
 15 16  1  0
 16 17  2  0
 17 18  1  0
 18 19  2  0
 19 20  1  0
 20 21  2  0
 21 22  1  0
 22 23  2  0
 23 24  1  0
 24 25  1  0
 25 26  1  0
 26 27  1  0
 27 28  1  0
 13  8  1  0
 23 14  1  0
 28 24  1  0
 21 16  1  0
  3 29  1  0
  6 30  1  0
  7 31  1  0
  7 32  1  0
  9 33  1  0
 10 34  1  0
 11 35  1  0
 12 36  1  0
 13 37  1  0
 17 38  1  0
 18 39  1  0
 19 40  1  0
 20 41  1  0
 25 42  1  0
 25 43  1  0
 26 44  1  0
 26 45  1  0
 27 46  1  0
 27 47  1  0
 28 48  1  0
 28 49  1  0
M  END
$$$$
