
     RDKit          3D

 46 48  0  0  0  0  0  0  0  0999 V2000
   -6.0074    0.4057   -0.5751 C   0  0  0  0  0  0  0  0  0  0  0  0
   -5.0015   -0.6424   -0.2896 C   0  0  0  0  0  0  0  0  0  0  0  0
   -5.1894   -1.8352   -0.9197 O   0  0  0  0  0  0  0  0  0  0  0  0
   -4.1832   -2.6541   -0.5316 C   0  0  0  0  0  0  0  0  0  0  0  0
   -3.3446   -2.0024    0.3412 C   0  0  0  0  0  0  0  0  0  0  0  0
   -3.8647   -0.6808    0.5064 C   0  0  0  0  0  0  0  0  0  0  0  0
   -3.3829    0.4359    1.3118 C   0  0  0  0  0  0  0  0  0  0  0  0
   -3.9970    1.4940    1.4040 O   0  0  0  0  0  0  0  0  0  0  0  0
   -2.1817    0.2147    1.9470 N   0  0  0  0  0  0  0  0  0  0  0  0
   -1.4936    1.2734    2.6474 C   0  0  0  0  0  0  0  0  0  0  0  0
   -0.4754    1.9301    1.7511 C   0  0  0  0  0  0  0  0  0  0  0  0
   -0.8475    2.9985    0.9245 C   0  0  0  0  0  0  0  0  0  0  0  0
    0.0814    3.5890    0.0685 C   0  0  0  0  0  0  0  0  0  0  0  0
    1.3916    3.1138    0.0229 C   0  0  0  0  0  0  0  0  0  0  0  0
    1.7858    2.0446    0.8373 C   0  0  0  0  0  0  0  0  0  0  0  0
    3.1838    1.4931    0.7581 C   0  0  0  0  0  0  0  0  0  0  0  0
    3.2098    0.3272   -0.0914 N   0  0  0  0  0  0  0  0  0  0  0  0
    4.3106   -0.4956   -0.1153 C   0  0  0  0  0  0  0  0  0  0  0  0
    5.2768   -0.3263    0.6219 O   0  0  0  0  0  0  0  0  0  0  0  0
    4.2799   -1.5628   -1.1056 C   0  0  0  0  0  0  0  0  0  0  0  0
    5.4182   -2.2665   -1.6081 C   0  0  0  0  0  0  0  0  0  0  0  0
    4.9517   -3.1891   -2.5101 C   0  0  0  0  0  0  0  0  0  0  0  0
    3.6014   -3.1227   -2.5924 O   0  0  0  0  0  0  0  0  0  0  0  0
    3.1872   -2.1503   -1.7294 C   0  0  0  0  0  0  0  0  0  0  0  0
    1.7198   -1.9778   -1.6454 C   0  0  0  0  0  0  0  0  0  0  0  0
    0.8422    1.4529    1.6922 C   0  0  0  0  0  0  0  0  0  0  0  0
   -6.4976    0.7291    0.3486 H   0  0  0  0  0  0  0  0  0  0  0  0
   -6.7822    0.0385   -1.2562 H   0  0  0  0  0  0  0  0  0  0  0  0
   -5.5324    1.2745   -1.0413 H   0  0  0  0  0  0  0  0  0  0  0  0
   -4.2029   -3.6499   -0.9518 H   0  0  0  0  0  0  0  0  0  0  0  0
   -2.4716   -2.4408    0.8021 H   0  0  0  0  0  0  0  0  0  0  0  0
   -1.6422   -0.5991    1.6990 H   0  0  0  0  0  0  0  0  0  0  0  0
   -0.9995    0.8240    3.5158 H   0  0  0  0  0  0  0  0  0  0  0  0
   -2.2052    2.0143    3.0289 H   0  0  0  0  0  0  0  0  0  0  0  0
   -1.8712    3.3706    0.9404 H   0  0  0  0  0  0  0  0  0  0  0  0
   -0.2201    4.4175   -0.5677 H   0  0  0  0  0  0  0  0  0  0  0  0
    2.1010    3.5828   -0.6557 H   0  0  0  0  0  0  0  0  0  0  0  0
    3.5519    1.2330    1.7574 H   0  0  0  0  0  0  0  0  0  0  0  0
    3.8771    2.2337    0.3430 H   0  0  0  0  0  0  0  0  0  0  0  0
    2.6046    0.3343   -0.8988 H   0  0  0  0  0  0  0  0  0  0  0  0
    6.4523   -2.1025   -1.3350 H   0  0  0  0  0  0  0  0  0  0  0  0
    5.4243   -3.9325   -3.1364 H   0  0  0  0  0  0  0  0  0  0  0  0
    1.4030   -1.8190   -0.6104 H   0  0  0  0  0  0  0  0  0  0  0  0
    1.4008   -1.1211   -2.2463 H   0  0  0  0  0  0  0  0  0  0  0  0
    1.1970   -2.8648   -2.0170 H   0  0  0  0  0  0  0  0  0  0  0  0
    1.1414    0.6104    2.3144 H   0  0  0  0  0  0  0  0  0  0  0  0
  1  2  1  0
  2  3  1  0
  3  4  1  0
  4  5  2  0
  5  6  1  0
  6  7  1  0
  7  8  2  0
  7  9  1  0
  9 10  1  0
 10 11  1  0
 11 12  2  0
 12 13  1  0
 13 14  2  0
 14 15  1  0
 15 16  1  0
 16 17  1  0
 17 18  1  0
 18 19  2  0
 18 20  1  0
 20 21  1  0
 21 22  2  0
 22 23  1  0
 23 24  1  0
 24 25  1  0
 15 26  2  0
  6  2  2  0
 26 11  1  0
 24 20  2  0
  1 27  1  0
  1 28  1  0
  1 29  1  0
  4 30  1  0
  5 31  1  0
  9 32  1  0
 10 33  1  0
 10 34  1  0
 12 35  1  0
 13 36  1  0
 14 37  1  0
 16 38  1  0
 16 39  1  0
 17 40  1  0
 21 41  1  0
 22 42  1  0
 25 43  1  0
 25 44  1  0
 25 45  1  0
 26 46  1  0
M  END
$$$$
