
     RDKit          3D

 55 57  0  0  0  0  0  0  0  0999 V2000
    0.2972   -1.8457   -0.5665 O   0  0  0  0  0  0  0  0  0  0  0  0
    0.1102   -0.6612   -0.8214 C   0  0  0  0  0  0  0  0  0  0  0  0
   -1.0678   -0.1897   -1.3659 N   0  0  0  0  0  0  0  0  0  0  0  0
   -2.2153   -1.0522   -1.5676 C   0  0  0  0  0  0  0  0  0  0  0  0
   -3.0083   -1.2824   -0.2832 C   0  0  0  0  0  0  0  0  0  0  0  0
   -3.6235   -0.0329    0.3626 C   0  0  0  0  0  0  0  0  0  0  0  0
   -4.7521    0.6960   -0.3785 C   0  0  0  0  0  0  0  0  0  0  0  0
   -4.3033    1.7484   -1.4015 C   0  0  0  0  0  0  0  0  0  0  0  0
   -5.3795    1.7622   -2.4894 C   0  0  0  0  0  0  0  0  0  0  0  0
   -6.4895    0.8454   -1.9924 C   0  0  0  0  0  0  0  0  0  0  0  0
   -5.7527   -0.1733   -1.1367 C   0  0  0  0  0  0  0  0  0  0  0  0
    1.1634    0.4242   -0.6041 C   0  0  0  0  0  0  0  0  0  0  0  0
    0.6382    1.5198    0.3387 C   0  0  0  0  0  0  0  0  0  0  0  0
    1.7280    2.0787    1.2432 C   0  0  0  0  0  0  0  0  0  0  0  0
    2.3408    0.9660    2.0653 C   0  0  0  0  0  0  0  0  0  0  0  0
    2.6059    1.1159    3.2539 O   0  0  0  0  0  0  0  0  0  0  0  0
    2.5897   -0.1930    1.3456 N   0  0  0  0  0  0  0  0  0  0  0  0
    3.2739   -1.3091    1.9868 C   0  0  0  0  0  0  0  0  0  0  0  0
    4.7624   -1.3051    1.7190 C   0  0  0  0  0  0  0  0  0  0  0  0
    5.3233   -2.1877    0.7838 C   0  0  0  0  0  0  0  0  0  0  0  0
    6.6965   -2.1687    0.5279 C   0  0  0  0  0  0  0  0  0  0  0  0
    7.5152   -1.2658    1.2033 C   0  0  0  0  0  0  0  0  0  0  0  0
    9.2058   -1.2410    0.8836 Cl  0  0  0  0  0  0  0  0  0  0  0  0
    6.9738   -0.3821    2.1334 C   0  0  0  0  0  0  0  0  0  0  0  0
    5.6013   -0.4017    2.3899 C   0  0  0  0  0  0  0  0  0  0  0  0
    2.4860   -0.1791   -0.1103 C   0  0  0  0  0  0  0  0  0  0  0  0
   -1.1984    0.8062   -1.4760 H   0  0  0  0  0  0  0  0  0  0  0  0
   -1.8580   -2.0168   -1.9456 H   0  0  0  0  0  0  0  0  0  0  0  0
   -2.8362   -0.6086   -2.3499 H   0  0  0  0  0  0  0  0  0  0  0  0
   -2.3437   -1.7427    0.4600 H   0  0  0  0  0  0  0  0  0  0  0  0
   -3.7931   -2.0235   -0.4734 H   0  0  0  0  0  0  0  0  0  0  0  0
   -4.0383   -0.3632    1.3253 H   0  0  0  0  0  0  0  0  0  0  0  0
   -2.8328    0.6835    0.6173 H   0  0  0  0  0  0  0  0  0  0  0  0
   -5.3166    1.2452    0.3908 H   0  0  0  0  0  0  0  0  0  0  0  0
   -3.3297    1.5315   -1.8465 H   0  0  0  0  0  0  0  0  0  0  0  0
   -4.2203    2.7315   -0.9234 H   0  0  0  0  0  0  0  0  0  0  0  0
   -4.9594    1.3676   -3.4218 H   0  0  0  0  0  0  0  0  0  0  0  0
   -5.7465    2.7718   -2.6946 H   0  0  0  0  0  0  0  0  0  0  0  0
   -7.2015    1.4122   -1.3800 H   0  0  0  0  0  0  0  0  0  0  0  0
   -7.0425    0.3803   -2.8137 H   0  0  0  0  0  0  0  0  0  0  0  0
   -6.4277   -0.7118   -0.4653 H   0  0  0  0  0  0  0  0  0  0  0  0
   -5.2580   -0.9004   -1.7884 H   0  0  0  0  0  0  0  0  0  0  0  0
    1.3545    0.8580   -1.5951 H   0  0  0  0  0  0  0  0  0  0  0  0
   -0.1703    1.1236    0.9676 H   0  0  0  0  0  0  0  0  0  0  0  0
    0.1990    2.3334   -0.2509 H   0  0  0  0  0  0  0  0  0  0  0  0
    1.2935    2.8187    1.9234 H   0  0  0  0  0  0  0  0  0  0  0  0
    2.5176    2.5719    0.6663 H   0  0  0  0  0  0  0  0  0  0  0  0
    2.8151   -2.2382    1.6270 H   0  0  0  0  0  0  0  0  0  0  0  0
    3.1057   -1.2829    3.0700 H   0  0  0  0  0  0  0  0  0  0  0  0
    4.6930   -2.8963    0.2497 H   0  0  0  0  0  0  0  0  0  0  0  0
    7.1195   -2.8590   -0.1967 H   0  0  0  0  0  0  0  0  0  0  0  0
    7.6098    0.3227    2.6618 H   0  0  0  0  0  0  0  0  0  0  0  0
    5.1841    0.2923    3.1187 H   0  0  0  0  0  0  0  0  0  0  0  0
    3.3198    0.4354   -0.4738 H   0  0  0  0  0  0  0  0  0  0  0  0
    2.6419   -1.1896   -0.5020 H   0  0  0  0  0  0  0  0  0  0  0  0
  1  2  2  0
  2  3  1  0
  3  4  1  0
  4  5  1  0
  5  6  1  0
  6  7  1  0
  7  8  1  0
  8  9  1  0
  9 10  1  0
 10 11  1  0
  2 12  1  0
 12 13  1  0
 13 14  1  0
 14 15  1  0
 15 16  2  0
 15 17  1  0
 17 18  1  0
 18 19  1  0
 19 20  2  0
 20 21  1  0
 21 22  2  0
 22 23  1  0
 22 24  1  0
 24 25  2  0
 17 26  1  0
 11  7  1  0
 26 12  1  0
 25 19  1  0
  3 27  1  0
  4 28  1  0
  4 29  1  0
  5 30  1  0
  5 31  1  0
  6 32  1  0
  6 33  1  0
  7 34  1  0
  8 35  1  0
  8 36  1  0
  9 37  1  0
  9 38  1  0
 10 39  1  0
 10 40  1  0
 11 41  1  0
 11 42  1  0
 12 43  1  0
 13 44  1  0
 13 45  1  0
 14 46  1  0
 14 47  1  0
 18 48  1  0
 18 49  1  0
 20 50  1  0
 21 51  1  0
 24 52  1  0
 25 53  1  0
 26 54  1  0
 26 55  1  0
M  END
$$$$
