
     RDKit          3D

 55 58  0  0  0  0  0  0  0  0999 V2000
    4.3622   -3.9992   -3.7492 C   0  0  0  0  0  0  0  0  0  0  0  0
    3.4913   -2.8815   -3.6436 O   0  0  0  0  0  0  0  0  0  0  0  0
    2.8646   -2.6786   -2.4416 C   0  0  0  0  0  0  0  0  0  0  0  0
    2.9736   -3.5239   -1.3355 C   0  0  0  0  0  0  0  0  0  0  0  0
    2.3231   -3.2094   -0.1402 C   0  0  0  0  0  0  0  0  0  0  0  0
    1.5631   -2.0449   -0.0356 C   0  0  0  0  0  0  0  0  0  0  0  0
    1.4230   -1.1816   -1.1331 C   0  0  0  0  0  0  0  0  0  0  0  0
    0.6389    0.1077   -1.0208 C   0  0  0  0  0  0  0  0  0  0  0  0
    1.5269    1.2425   -0.5017 C   0  0  0  0  0  0  0  0  0  0  0  0
    0.6021    1.9843    0.4257 C   0  0  0  0  0  0  0  0  0  0  0  0
    0.9576    3.3114    0.9808 C   0  0  0  0  0  0  0  0  0  0  0  0
    0.0185    3.9924    1.7688 C   0  0  0  0  0  0  0  0  0  0  0  0
    0.3267    5.2424    2.3080 C   0  0  0  0  0  0  0  0  0  0  0  0
    1.5729    5.8179    2.0642 C   0  0  0  0  0  0  0  0  0  0  0  0
    2.5125    5.1446    1.2832 C   0  0  0  0  0  0  0  0  0  0  0  0
    2.2083    3.8930    0.7405 C   0  0  0  0  0  0  0  0  0  0  0  0
   -0.5024    1.3709    0.7211 N   0  0  0  0  0  0  0  0  0  0  0  0
   -0.4837    0.0714   -0.0393 N   0  0  0  0  0  0  0  0  0  0  0  0
   -1.9776   -0.4487   -0.7224 S   0  0  0  0  0  6  0  0  0  0  0  0
   -1.8142   -1.8007   -1.2214 O   0  0  0  0  0  0  0  0  0  0  0  0
   -2.4690    0.5972   -1.6004 O   0  0  0  0  0  0  0  0  0  0  0  0
   -3.0288   -0.5252    0.7067 C   0  0  0  0  0  0  0  0  0  0  0  0
   -3.8449    0.5625    1.0264 C   0  0  0  0  0  0  0  0  0  0  0  0
   -4.6911    0.4855    2.1336 C   0  0  0  0  0  0  0  0  0  0  0  0
   -4.7407   -0.6806    2.9097 C   0  0  0  0  0  0  0  0  0  0  0  0
   -5.6267   -0.7479    4.1185 C   0  0  0  0  0  0  0  0  0  0  0  0
   -3.9148   -1.7639    2.5772 C   0  0  0  0  0  0  0  0  0  0  0  0
   -3.0653   -1.6931    1.4718 C   0  0  0  0  0  0  0  0  0  0  0  0
    2.0679   -1.5224   -2.3359 C   0  0  0  0  0  0  0  0  0  0  0  0
    1.9545   -0.6456   -3.3924 O   0  0  0  0  0  0  0  0  0  0  0  0
    1.0761   -1.1789   -4.3882 C   0  0  0  0  0  0  0  0  0  0  0  0
    5.1881   -3.9250   -3.0337 H   0  0  0  0  0  0  0  0  0  0  0  0
    3.8141   -4.9393   -3.6279 H   0  0  0  0  0  0  0  0  0  0  0  0
    4.7925   -3.9945   -4.7553 H   0  0  0  0  0  0  0  0  0  0  0  0
    3.5607   -4.4351   -1.3659 H   0  0  0  0  0  0  0  0  0  0  0  0
    2.4148   -3.8734    0.7158 H   0  0  0  0  0  0  0  0  0  0  0  0
    1.0789   -1.8161    0.9120 H   0  0  0  0  0  0  0  0  0  0  0  0
    0.2312    0.4041   -1.9949 H   0  0  0  0  0  0  0  0  0  0  0  0
    1.8754    1.8762   -1.3221 H   0  0  0  0  0  0  0  0  0  0  0  0
    2.3882    0.8856    0.0743 H   0  0  0  0  0  0  0  0  0  0  0  0
   -0.9591    3.5563    1.9690 H   0  0  0  0  0  0  0  0  0  0  0  0
   -0.4068    5.7664    2.9177 H   0  0  0  0  0  0  0  0  0  0  0  0
    1.8126    6.7920    2.4856 H   0  0  0  0  0  0  0  0  0  0  0  0
    3.4845    5.5957    1.0964 H   0  0  0  0  0  0  0  0  0  0  0  0
    2.9645    3.3935    0.1411 H   0  0  0  0  0  0  0  0  0  0  0  0
   -3.8181    1.4694    0.4260 H   0  0  0  0  0  0  0  0  0  0  0  0
   -5.3150    1.3409    2.3855 H   0  0  0  0  0  0  0  0  0  0  0  0
   -6.5079   -0.1100    3.9943 H   0  0  0  0  0  0  0  0  0  0  0  0
   -5.9867   -1.7688    4.2819 H   0  0  0  0  0  0  0  0  0  0  0  0
   -5.0750   -0.4193    5.0046 H   0  0  0  0  0  0  0  0  0  0  0  0
   -3.9328   -2.6717    3.1756 H   0  0  0  0  0  0  0  0  0  0  0  0
   -2.4387   -2.5432    1.2147 H   0  0  0  0  0  0  0  0  0  0  0  0
    1.5931   -1.9080   -5.0188 H   0  0  0  0  0  0  0  0  0  0  0  0
    0.1766   -1.6242   -3.9473 H   0  0  0  0  0  0  0  0  0  0  0  0
    0.7600   -0.3491   -5.0272 H   0  0  0  0  0  0  0  0  0  0  0  0
  1  2  1  0
  2  3  1  0
  3  4  2  0
  4  5  1  0
  5  6  2  0
  6  7  1  0
  7  8  1  0
  8  9  1  0
  9 10  1  0
 10 11  1  0
 11 12  2  0
 12 13  1  0
 13 14  2  0
 14 15  1  0
 15 16  2  0
 10 17  2  0
 17 18  1  0
 18 19  1  0
 19 20  2  0
 19 21  2  0
 19 22  1  0
 22 23  2  0
 23 24  1  0
 24 25  2  0
 25 26  1  0
 25 27  1  0
 27 28  2  0
  7 29  2  0
 29 30  1  0
 30 31  1  0
 29  3  1  0
 18  8  1  0
 28 22  1  0
 16 11  1  0
  1 32  1  0
  1 33  1  0
  1 34  1  0
  4 35  1  0
  5 36  1  0
  6 37  1  0
  8 38  1  0
  9 39  1  0
  9 40  1  0
 12 41  1  0
 13 42  1  0
 14 43  1  0
 15 44  1  0
 16 45  1  0
 23 46  1  0
 24 47  1  0
 26 48  1  0
 26 49  1  0
 26 50  1  0
 27 51  1  0
 28 52  1  0
 31 53  1  0
 31 54  1  0
 31 55  1  0
M  END
$$$$
