
     RDKit          3D

 50 53  0  0  0  0  0  0  0  0999 V2000
    7.4740   -0.1222   -2.4807 C   0  0  0  0  0  0  0  0  0  0  0  0
    6.3144    0.0391   -1.5486 C   0  0  0  0  0  0  0  0  0  0  0  0
    5.0068    0.0016   -2.0297 C   0  0  0  0  0  0  0  0  0  0  0  0
    3.9195    0.1419   -1.2337 N   0  0  0  0  0  0  0  0  0  0  0  0
    4.2015    0.3291    0.0881 C   0  0  0  0  0  0  0  0  0  0  0  0
    3.0455    0.4889    1.0131 C   0  0  0  0  0  0  0  0  0  0  0  0
    3.2046    0.6148    2.2211 O   0  0  0  0  0  0  0  0  0  0  0  0
    1.8151    0.4702    0.3943 N   0  0  0  0  0  0  0  0  0  0  0  0
    0.5754    0.4674    1.1367 C   0  0  0  0  0  0  0  0  0  0  0  0
    0.2695   -0.9460    1.6866 C   0  0  0  0  0  0  0  0  0  0  0  0
   -1.2193   -1.1540    2.0927 C   0  0  0  0  0  0  0  0  0  0  0  0
   -1.4041   -2.6065    2.5717 C   0  0  0  0  0  0  0  0  0  0  0  0
   -1.5995   -0.2177    3.2580 C   0  0  0  0  0  0  0  0  0  0  0  0
   -2.1568   -0.9080    0.8679 C   0  0  0  0  0  0  0  0  0  0  0  0
   -1.7432    0.3037    0.0990 C   0  0  0  0  0  0  0  0  0  0  0  0
   -0.5152    0.9281    0.2329 C   0  0  0  0  0  0  0  0  0  0  0  0
   -0.6104    2.0720   -0.5656 C   0  0  0  0  0  0  0  0  0  0  0  0
   -1.7836    2.1608   -1.1860 N   0  0  0  0  0  0  0  0  0  0  0  0
   -2.4760    1.0386   -0.8260 N   0  0  0  0  0  0  0  0  0  0  0  0
   -3.7591    0.8031   -1.4129 C   0  0  0  0  0  0  0  0  0  0  0  0
   -4.4306   -0.4198   -1.3052 C   0  0  0  0  0  0  0  0  0  0  0  0
   -5.6858   -0.5948   -1.9010 C   0  0  0  0  0  0  0  0  0  0  0  0
   -6.2791    0.4430   -2.6153 C   0  0  0  0  0  0  0  0  0  0  0  0
   -5.6158    1.6586   -2.7449 C   0  0  0  0  0  0  0  0  0  0  0  0
   -4.3628    1.8370   -2.1527 C   0  0  0  0  0  0  0  0  0  0  0  0
    5.4966    0.3665    0.5779 C   0  0  0  0  0  0  0  0  0  0  0  0
    6.5786    0.2220   -0.2301 N   0  0  0  0  0  0  0  0  0  0  0  0
    7.4235   -1.0931   -2.9832 H   0  0  0  0  0  0  0  0  0  0  0  0
    7.4684    0.6728   -3.2328 H   0  0  0  0  0  0  0  0  0  0  0  0
    8.4219   -0.0693   -1.9357 H   0  0  0  0  0  0  0  0  0  0  0  0
    4.7972   -0.1445   -3.0848 H   0  0  0  0  0  0  0  0  0  0  0  0
    1.8116    0.2476   -0.5983 H   0  0  0  0  0  0  0  0  0  0  0  0
    0.6707    1.1686    1.9748 H   0  0  0  0  0  0  0  0  0  0  0  0
    0.5273   -1.6932    0.9212 H   0  0  0  0  0  0  0  0  0  0  0  0
    0.9304   -1.1538    2.5384 H   0  0  0  0  0  0  0  0  0  0  0  0
   -2.4457   -2.8008    2.8514 H   0  0  0  0  0  0  0  0  0  0  0  0
   -0.7774   -2.8177    3.4454 H   0  0  0  0  0  0  0  0  0  0  0  0
   -1.1314   -3.3213    1.7872 H   0  0  0  0  0  0  0  0  0  0  0  0
   -1.5477    0.8391    2.9788 H   0  0  0  0  0  0  0  0  0  0  0  0
   -0.9315   -0.3673    4.1138 H   0  0  0  0  0  0  0  0  0  0  0  0
   -2.6227   -0.4127    3.5992 H   0  0  0  0  0  0  0  0  0  0  0  0
   -3.1896   -0.8138    1.2216 H   0  0  0  0  0  0  0  0  0  0  0  0
   -2.0984   -1.7731    0.1954 H   0  0  0  0  0  0  0  0  0  0  0  0
    0.1226    2.8552   -0.7133 H   0  0  0  0  0  0  0  0  0  0  0  0
   -4.0074   -1.2775   -0.8011 H   0  0  0  0  0  0  0  0  0  0  0  0
   -6.1973   -1.5505   -1.8140 H   0  0  0  0  0  0  0  0  0  0  0  0
   -7.2527    0.3017   -3.0771 H   0  0  0  0  0  0  0  0  0  0  0  0
   -6.0687    2.4714   -3.3067 H   0  0  0  0  0  0  0  0  0  0  0  0
   -3.8699    2.8011   -2.2702 H   0  0  0  0  0  0  0  0  0  0  0  0
    5.7068    0.5137    1.6319 H   0  0  0  0  0  0  0  0  0  0  0  0
  1  2  1  0
  2  3  2  0
  3  4  1  0
  4  5  2  0
  5  6  1  0
  6  7  2  0
  6  8  1  0
  8  9  1  0
  9 10  1  0
 10 11  1  0
 11 12  1  0
 11 13  1  0
 11 14  1  0
 14 15  1  0
 15 16  2  0
 16 17  1  0
 17 18  2  0
 18 19  1  0
 19 20  1  0
 20 21  2  0
 21 22  1  0
 22 23  2  0
 23 24  1  0
 24 25  2  0
  5 26  1  0
 26 27  2  0
 27  2  1  0
 16  9  1  0
 25 20  1  0
 19 15  1  0
  1 28  1  0
  1 29  1  0
  1 30  1  0
  3 31  1  0
  8 32  1  0
  9 33  1  0
 10 34  1  0
 10 35  1  0
 12 36  1  0
 12 37  1  0
 12 38  1  0
 13 39  1  0
 13 40  1  0
 13 41  1  0
 14 42  1  0
 14 43  1  0
 17 44  1  0
 21 45  1  0
 22 46  1  0
 23 47  1  0
 24 48  1  0
 25 49  1  0
 26 50  1  0
M  END
$$$$
