
     RDKit          3D

 47 51  0  0  0  0  0  0  0  0999 V2000
    0.9747   -3.0485   -0.8109 C   0  0  0  0  0  0  0  0  0  0  0  0
    1.5207   -3.1308    0.5895 C   0  0  0  0  0  0  0  0  0  0  0  0
    2.0602   -4.3557    1.0208 C   0  0  0  0  0  0  0  0  0  0  0  0
    2.6281   -4.4824    2.2884 C   0  0  0  0  0  0  0  0  0  0  0  0
    2.6683   -3.3873    3.1437 C   0  0  0  0  0  0  0  0  0  0  0  0
    2.1203   -2.1708    2.7377 C   0  0  0  0  0  0  0  0  0  0  0  0
    1.5145   -2.0287    1.4743 C   0  0  0  0  0  0  0  0  0  0  0  0
    0.9337   -0.7722    1.1300 N   0  0  0  0  0  0  0  0  0  0  0  0
    1.8332    0.2695    1.1777 N   0  0  0  0  0  0  0  0  0  0  0  0
    1.3968    1.4090    0.7402 C   0  0  0  0  0  0  0  0  0  0  0  0
    2.3482    2.5837    0.7472 C   0  0  0  0  0  0  0  0  0  0  0  0
    2.2139    3.4019    1.6532 O   0  0  0  0  0  0  0  0  0  0  0  0
    3.3240    2.6798   -0.3227 C   0  0  0  0  0  0  0  0  0  0  0  0
    4.3067    3.6457   -0.4518 C   0  0  0  0  0  0  0  0  0  0  0  0
    5.1013    3.4689   -1.6208 C   0  0  0  0  0  0  0  0  0  0  0  0
    4.6988    2.3755   -2.3529 C   0  0  0  0  0  0  0  0  0  0  0  0
    3.3720    1.5761   -1.6317 S   0  0  0  0  0  0  0  0  0  0  0  0
    0.0417    1.6938    0.2248 C   0  0  0  0  0  0  0  0  0  0  0  0
   -0.8696    0.7119    0.2415 C   0  0  0  0  0  0  0  0  0  0  0  0
   -2.1761    0.9833   -0.2458 C   0  0  0  0  0  0  0  0  0  0  0  0
   -2.6678    2.0726   -0.8117 N   0  0  0  0  0  0  0  0  0  0  0  0
   -3.9848    1.7907   -1.0879 C   0  0  0  0  0  0  0  0  0  0  0  0
   -4.9681    2.5917   -1.6860 C   0  0  0  0  0  0  0  0  0  0  0  0
   -6.2536    2.0612   -1.8568 C   0  0  0  0  0  0  0  0  0  0  0  0
   -6.5526    0.7611   -1.4406 C   0  0  0  0  0  0  0  0  0  0  0  0
   -5.5836   -0.0526   -0.8418 C   0  0  0  0  0  0  0  0  0  0  0  0
   -4.3124    0.5024   -0.6849 C   0  0  0  0  0  0  0  0  0  0  0  0
   -3.1494    0.0144   -0.1542 N   0  0  0  0  0  0  0  0  0  0  0  0
   -0.4205   -0.6220    0.7909 C   0  0  0  0  0  0  0  0  0  0  0  0
   -1.3335   -1.5505    0.9381 N   0  0  0  0  0  0  0  0  0  0  0  0
    1.1093   -2.0490   -1.2360 H   0  0  0  0  0  0  0  0  0  0  0  0
    1.5055   -3.7406   -1.4742 H   0  0  0  0  0  0  0  0  0  0  0  0
   -0.0872   -3.3098   -0.8219 H   0  0  0  0  0  0  0  0  0  0  0  0
    2.0572   -5.2190    0.3578 H   0  0  0  0  0  0  0  0  0  0  0  0
    3.0515   -5.4334    2.6018 H   0  0  0  0  0  0  0  0  0  0  0  0
    3.1229   -3.4771    4.1268 H   0  0  0  0  0  0  0  0  0  0  0  0
    2.1497   -1.3216    3.4177 H   0  0  0  0  0  0  0  0  0  0  0  0
    4.4470    4.4446    0.2689 H   0  0  0  0  0  0  0  0  0  0  0  0
    5.9252    4.1110   -1.9089 H   0  0  0  0  0  0  0  0  0  0  0  0
    5.1196    2.0069   -3.2788 H   0  0  0  0  0  0  0  0  0  0  0  0
   -0.1781    2.6929   -0.1356 H   0  0  0  0  0  0  0  0  0  0  0  0
   -4.7295    3.5996   -2.0057 H   0  0  0  0  0  0  0  0  0  0  0  0
   -7.0263    2.6712   -2.3185 H   0  0  0  0  0  0  0  0  0  0  0  0
   -7.5591    0.3728   -1.5840 H   0  0  0  0  0  0  0  0  0  0  0  0
   -5.8141   -1.0614   -0.5173 H   0  0  0  0  0  0  0  0  0  0  0  0
   -2.9929   -0.9036    0.2507 H   0  0  0  0  0  0  0  0  0  0  0  0
   -0.8855   -2.3754    1.3597 H   0  0  0  0  0  0  0  0  0  0  0  0
  1  2  1  0
  2  3  2  0
  3  4  1  0
  4  5  2  0
  5  6  1  0
  6  7  2  0
  7  8  1  0
  8  9  1  0
  9 10  2  0
 10 11  1  0
 11 12  2  0
 11 13  1  0
 13 14  2  0
 14 15  1  0
 15 16  2  0
 16 17  1  0
 10 18  1  0
 18 19  2  0
 19 20  1  0
 20 21  2  0
 21 22  1  0
 22 23  2  0
 23 24  1  0
 24 25  2  0
 25 26  1  0
 26 27  2  0
 27 28  1  0
 19 29  1  0
 29 30  2  3
  7  2  1  0
 29  8  1  0
 17 13  1  0
 28 20  1  0
 27 22  1  0
  1 31  1  0
  1 32  1  0
  1 33  1  0
  3 34  1  0
  4 35  1  0
  5 36  1  0
  6 37  1  0
 14 38  1  0
 15 39  1  0
 16 40  1  0
 18 41  1  0
 23 42  1  0
 24 43  1  0
 25 44  1  0
 26 45  1  0
 28 46  1  0
 30 47  1  0
M  END
$$$$
