
     RDKit          3D

 44 47  0  0  0  0  0  0  0  0999 V2000
    1.5201   -2.1484   -1.1827 O   0  0  0  0  0  0  0  0  0  0  0  0
    1.9466   -0.7600   -1.1944 S   0  0  0  0  0  6  0  0  0  0  0  0
    2.5675   -0.2207   -2.3854 O   0  0  0  0  0  0  0  0  0  0  0  0
    3.0468   -0.5248    0.1715 C   0  0  0  0  0  0  0  0  0  0  0  0
    3.4730   -1.6622    0.8802 C   0  0  0  0  0  0  0  0  0  0  0  0
    4.3464   -1.5231    1.9494 C   0  0  0  0  0  0  0  0  0  0  0  0
    4.7911   -0.2545    2.3031 C   0  0  0  0  0  0  0  0  0  0  0  0
    4.3633    0.8805    1.5914 C   0  0  0  0  0  0  0  0  0  0  0  0
    4.8186    2.1547    1.9578 C   0  0  0  0  0  0  0  0  0  0  0  0
    4.3950    3.2746    1.2571 C   0  0  0  0  0  0  0  0  0  0  0  0
    3.5209    3.0814    0.2106 C   0  0  0  0  0  0  0  0  0  0  0  0
    3.0589    1.8693   -0.1632 N   0  0  0  0  0  0  0  0  0  0  0  0
    3.4710    0.7649    0.4993 C   0  0  0  0  0  0  0  0  0  0  0  0
    0.5581    0.1527   -0.8168 N   0  0  0  0  0  0  0  0  0  0  0  0
   -0.1049   -0.1865    0.4828 C   0  0  0  0  0  0  0  0  0  0  0  0
   -1.5791    0.2587    0.5304 C   0  0  0  0  0  0  0  0  0  0  0  0
   -2.3540   -0.3763   -0.5462 N   0  0  0  0  0  0  0  0  0  0  0  0
   -3.7198   -0.5811   -0.4474 C   0  0  0  0  0  0  0  0  0  0  0  0
   -4.5117    0.1079    0.4858 C   0  0  0  0  0  0  0  0  0  0  0  0
   -5.8932   -0.1015    0.5872 C   0  0  0  0  0  0  0  0  0  0  0  0
   -6.5227   -1.0167   -0.2469 C   0  0  0  0  0  0  0  0  0  0  0  0
   -5.7688   -1.7189   -1.1783 C   0  0  0  0  0  0  0  0  0  0  0  0
   -4.3886   -1.5007   -1.2727 C   0  0  0  0  0  0  0  0  0  0  0  0
   -1.6266   -0.6563   -1.7985 C   0  0  0  0  0  0  0  0  0  0  0  0
   -0.4098    0.2738   -1.9546 C   0  0  0  0  0  0  0  0  0  0  0  0
    3.1332   -2.6564    0.5956 H   0  0  0  0  0  0  0  0  0  0  0  0
    4.6844   -2.3977    2.5001 H   0  0  0  0  0  0  0  0  0  0  0  0
    5.4798   -0.1537    3.1401 H   0  0  0  0  0  0  0  0  0  0  0  0
    5.5086    2.2811    2.7888 H   0  0  0  0  0  0  0  0  0  0  0  0
    4.7390    4.2682    1.5199 H   0  0  0  0  0  0  0  0  0  0  0  0
    3.1533    3.9164   -0.3791 H   0  0  0  0  0  0  0  0  0  0  0  0
    0.4401    0.3134    1.2906 H   0  0  0  0  0  0  0  0  0  0  0  0
   -0.0613   -1.2677    0.6584 H   0  0  0  0  0  0  0  0  0  0  0  0
   -1.6466    1.3492    0.4348 H   0  0  0  0  0  0  0  0  0  0  0  0
   -1.9732   -0.0236    1.5140 H   0  0  0  0  0  0  0  0  0  0  0  0
   -4.0700    0.8493    1.1451 H   0  0  0  0  0  0  0  0  0  0  0  0
   -6.4719    0.4574    1.3175 H   0  0  0  0  0  0  0  0  0  0  0  0
   -7.5934   -1.1826   -0.1707 H   0  0  0  0  0  0  0  0  0  0  0  0
   -6.2466   -2.4437   -1.8319 H   0  0  0  0  0  0  0  0  0  0  0  0
   -3.8361   -2.0924   -1.9975 H   0  0  0  0  0  0  0  0  0  0  0  0
   -1.3042   -1.7040   -1.7999 H   0  0  0  0  0  0  0  0  0  0  0  0
   -2.2730   -0.4955   -2.6696 H   0  0  0  0  0  0  0  0  0  0  0  0
   -0.7386    1.3202   -1.9908 H   0  0  0  0  0  0  0  0  0  0  0  0
    0.0782    0.0753   -2.9145 H   0  0  0  0  0  0  0  0  0  0  0  0
  1  2  2  0
  2  3  2  0
  2  4  1  0
  4  5  2  0
  5  6  1  0
  6  7  2  0
  7  8  1  0
  8  9  2  0
  9 10  1  0
 10 11  2  0
 11 12  1  0
 12 13  2  0
  2 14  1  0
 14 15  1  0
 15 16  1  0
 16 17  1  0
 17 18  1  0
 18 19  2  0
 19 20  1  0
 20 21  2  0
 21 22  1  0
 22 23  2  0
 17 24  1  0
 24 25  1  0
 13  4  1  0
 25 14  1  0
 13  8  1  0
 23 18  1  0
  5 26  1  0
  6 27  1  0
  7 28  1  0
  9 29  1  0
 10 30  1  0
 11 31  1  0
 15 32  1  0
 15 33  1  0
 16 34  1  0
 16 35  1  0
 19 36  1  0
 20 37  1  0
 21 38  1  0
 22 39  1  0
 23 40  1  0
 24 41  1  0
 24 42  1  0
 25 43  1  0
 25 44  1  0
M  END
$$$$
