
     RDKit          3D

 43 46  0  0  0  0  0  0  0  0999 V2000
   -0.6117    0.6726    3.1723 O   0  0  0  0  0  0  0  0  0  0  0  0
   -0.7084    0.4387    1.6842 P   0  0  0  0  0  5  0  0  0  0  0  0
   -1.2722   -1.0102    1.1149 N   0  0  0  0  0  0  0  0  0  0  0  0
   -2.5964   -1.3014    0.6913 C   0  0  0  0  0  0  0  0  0  0  0  0
   -2.7775   -2.2462   -0.3494 C   0  0  0  0  0  0  0  0  0  0  0  0
   -1.4106   -3.0002   -1.1065 Cl  0  0  0  0  0  0  0  0  0  0  0  0
   -4.0449   -2.5913   -0.8305 C   0  0  0  0  0  0  0  0  0  0  0  0
   -5.1765   -2.0069   -0.2776 C   0  0  0  0  0  0  0  0  0  0  0  0
   -5.0346   -1.0894    0.7603 C   0  0  0  0  0  0  0  0  0  0  0  0
   -3.7635   -0.7425    1.2474 C   0  0  0  0  0  0  0  0  0  0  0  0
   -3.7538    0.3548    2.5803 Cl  0  0  0  0  0  0  0  0  0  0  0  0
   -1.1195    1.8586    0.6854 C   0  0  0  0  0  0  0  0  0  0  0  0
   -1.2219    1.7703   -0.7118 C   0  0  0  0  0  0  0  0  0  0  0  0
   -1.5536    2.8921   -1.4723 C   0  0  0  0  0  0  0  0  0  0  0  0
   -1.7882    4.1145   -0.8455 C   0  0  0  0  0  0  0  0  0  0  0  0
   -1.6938    4.2167    0.5412 C   0  0  0  0  0  0  0  0  0  0  0  0
   -1.3628    3.0948    1.3016 C   0  0  0  0  0  0  0  0  0  0  0  0
    0.9309    0.0551    1.0409 C   0  0  0  0  0  0  0  0  0  0  0  0
    1.1451   -0.8723    0.1147 N   0  0  0  0  0  0  0  0  0  0  0  0
    2.4922   -0.9179   -0.1704 C   0  0  0  0  0  0  0  0  0  0  0  0
    3.2785   -0.0309    0.5358 C   0  0  0  0  0  0  0  0  0  0  0  0
    2.3250    0.9082    1.5854 S   0  0  0  0  0  0  0  0  0  0  0  0
    4.7543    0.1194    0.3860 C   0  0  0  0  0  0  0  0  0  0  0  0
    5.3370   -1.1016   -0.3501 C   0  0  0  0  0  0  0  0  0  0  0  0
    4.4821   -1.5087   -1.5638 C   0  0  0  0  0  0  0  0  0  0  0  0
    3.0475   -1.8896   -1.1565 C   0  0  0  0  0  0  0  0  0  0  0  0
   -0.5963   -1.5087    0.5273 H   0  0  0  0  0  0  0  0  0  0  0  0
   -4.1511   -3.3136   -1.6360 H   0  0  0  0  0  0  0  0  0  0  0  0
   -6.1659   -2.2700   -0.6444 H   0  0  0  0  0  0  0  0  0  0  0  0
   -5.9267   -0.6486    1.2019 H   0  0  0  0  0  0  0  0  0  0  0  0
   -1.0373    0.8229   -1.2153 H   0  0  0  0  0  0  0  0  0  0  0  0
   -1.6264    2.8129   -2.5537 H   0  0  0  0  0  0  0  0  0  0  0  0
   -2.0454    4.9895   -1.4379 H   0  0  0  0  0  0  0  0  0  0  0  0
   -1.8803    5.1689    1.0315 H   0  0  0  0  0  0  0  0  0  0  0  0
   -1.2967    3.1802    2.3859 H   0  0  0  0  0  0  0  0  0  0  0  0
    5.2434    0.2269    1.3605 H   0  0  0  0  0  0  0  0  0  0  0  0
    4.9637    1.0263   -0.1943 H   0  0  0  0  0  0  0  0  0  0  0  0
    5.3975   -1.9505    0.3432 H   0  0  0  0  0  0  0  0  0  0  0  0
    6.3605   -0.8784   -0.6712 H   0  0  0  0  0  0  0  0  0  0  0  0
    4.4503   -0.6706   -2.2720 H   0  0  0  0  0  0  0  0  0  0  0  0
    4.9494   -2.3512   -2.0853 H   0  0  0  0  0  0  0  0  0  0  0  0
    3.0491   -2.8871   -0.7015 H   0  0  0  0  0  0  0  0  0  0  0  0
    2.4093   -1.9355   -2.0458 H   0  0  0  0  0  0  0  0  0  0  0  0
  1  2  2  0
  2  3  1  0
  3  4  1  0
  4  5  2  0
  5  6  1  0
  5  7  1  0
  7  8  2  0
  8  9  1  0
  9 10  2  0
 10 11  1  0
  2 12  1  0
 12 13  2  0
 13 14  1  0
 14 15  2  0
 15 16  1  0
 16 17  2  0
  2 18  1  0
 18 19  2  0
 19 20  1  0
 20 21  2  0
 21 22  1  0
 21 23  1  0
 23 24  1  0
 24 25  1  0
 25 26  1  0
 10  4  1  0
 17 12  1  0
 22 18  1  0
 26 20  1  0
  3 27  1  0
  7 28  1  0
  8 29  1  0
  9 30  1  0
 13 31  1  0
 14 32  1  0
 15 33  1  0
 16 34  1  0
 17 35  1  0
 23 36  1  0
 23 37  1  0
 24 38  1  0
 24 39  1  0
 25 40  1  0
 25 41  1  0
 26 42  1  0
 26 43  1  0
M  END
$$$$
