
     RDKit          3D

 38 40  0  0  0  0  0  0  0  0999 V2000
   -5.4571    2.2836   -0.1394 C   0  0  0  0  0  0  0  0  0  0  0  0
   -4.1150    1.8171   -0.2162 O   0  0  0  0  0  0  0  0  0  0  0  0
   -3.9249    0.4639   -0.1635 C   0  0  0  0  0  0  0  0  0  0  0  0
   -4.9254   -0.5001   -0.0344 C   0  0  0  0  0  0  0  0  0  0  0  0
   -4.5922   -1.8567   -0.0117 C   0  0  0  0  0  0  0  0  0  0  0  0
   -3.2606   -2.2489   -0.1082 C   0  0  0  0  0  0  0  0  0  0  0  0
   -3.0202   -3.5965   -0.1084 O   0  0  0  0  0  0  0  0  0  0  0  0
   -2.2420   -1.2922   -0.2005 C   0  0  0  0  0  0  0  0  0  0  0  0
   -0.8283   -1.7371   -0.2794 C   0  0  0  0  0  0  0  0  0  0  0  0
   -0.5872   -2.8533   -0.7398 O   0  0  0  0  0  0  0  0  0  0  0  0
    0.2988   -0.9092    0.1921 C   0  0  0  0  0  0  0  0  0  0  0  0
    0.2197   -0.1330    1.3406 C   0  0  0  0  0  0  0  0  0  0  0  0
    1.2437    0.6191    1.8115 N   0  0  0  0  0  0  0  0  0  0  0  0
    2.3977    0.5806    1.1146 C   0  0  0  0  0  0  0  0  0  0  0  0
    2.5879   -0.1865   -0.0215 C   0  0  0  0  0  0  0  0  0  0  0  0
    1.5182   -0.9561   -0.4855 C   0  0  0  0  0  0  0  0  0  0  0  0
    3.9446   -0.2353   -0.6370 C   0  0  0  0  0  0  0  0  0  0  0  0
    4.7767    0.9000   -0.2803 N   0  0  0  0  0  0  0  0  0  0  0  0
    6.0419    1.0302   -0.9784 C   0  0  0  0  0  0  0  0  0  0  0  0
    4.6204    1.5523    0.9277 C   0  0  0  0  0  0  0  0  0  0  0  0
    5.4634    2.3081    1.4061 O   0  0  0  0  0  0  0  0  0  0  0  0
    3.4434    1.3527    1.5796 N   0  0  0  0  0  0  0  0  0  0  0  0
   -2.5862    0.0646   -0.2526 C   0  0  0  0  0  0  0  0  0  0  0  0
   -5.4350    3.3760   -0.1989 H   0  0  0  0  0  0  0  0  0  0  0  0
   -6.0514    1.9157   -0.9823 H   0  0  0  0  0  0  0  0  0  0  0  0
   -5.9150    2.0111    0.8172 H   0  0  0  0  0  0  0  0  0  0  0  0
   -5.9748   -0.2334    0.0393 H   0  0  0  0  0  0  0  0  0  0  0  0
   -5.3724   -2.6094    0.0716 H   0  0  0  0  0  0  0  0  0  0  0  0
   -2.0862   -3.7350   -0.3852 H   0  0  0  0  0  0  0  0  0  0  0  0
   -0.6791   -0.0935    1.9502 H   0  0  0  0  0  0  0  0  0  0  0  0
    1.6329   -1.5938   -1.3595 H   0  0  0  0  0  0  0  0  0  0  0  0
    3.8522   -0.2510   -1.7290 H   0  0  0  0  0  0  0  0  0  0  0  0
    4.4605   -1.1458   -0.3102 H   0  0  0  0  0  0  0  0  0  0  0  0
    6.7039    0.2187   -0.6617 H   0  0  0  0  0  0  0  0  0  0  0  0
    5.8685    0.9669   -2.0565 H   0  0  0  0  0  0  0  0  0  0  0  0
    6.5215    1.9874   -0.7552 H   0  0  0  0  0  0  0  0  0  0  0  0
    3.2870    1.8831    2.4232 H   0  0  0  0  0  0  0  0  0  0  0  0
   -1.8300    0.8355   -0.3797 H   0  0  0  0  0  0  0  0  0  0  0  0
  1  2  1  0
  2  3  1  0
  3  4  2  0
  4  5  1  0
  5  6  2  0
  6  7  1  0
  6  8  1  0
  8  9  1  0
  9 10  2  0
  9 11  1  0
 11 12  2  0
 12 13  1  0
 13 14  2  0
 14 15  1  0
 15 16  2  0
 15 17  1  0
 17 18  1  0
 18 19  1  0
 18 20  1  0
 20 21  2  0
 20 22  1  0
  8 23  2  0
 23  3  1  0
 16 11  1  0
 22 14  1  0
  1 24  1  0
  1 25  1  0
  1 26  1  0
  4 27  1  0
  5 28  1  0
  7 29  1  0
 12 30  1  0
 16 31  1  0
 17 32  1  0
 17 33  1  0
 19 34  1  0
 19 35  1  0
 19 36  1  0
 22 37  1  0
 23 38  1  0
M  END
$$$$
