
     RDKit          3D

 47 48  0  0  0  0  0  0  0  0999 V2000
    5.2377    0.0198   -0.1863 C   0  0  0  0  0  0  0  0  0  0  0  0
    3.8170    0.0421   -0.2396 O   0  0  0  0  0  0  0  0  0  0  0  0
    3.2302    1.1437   -0.8030 C   0  0  0  0  0  0  0  0  0  0  0  0
    3.9057    2.1059   -1.5606 C   0  0  0  0  0  0  0  0  0  0  0  0
    3.2170    3.2029   -2.0929 C   0  0  0  0  0  0  0  0  0  0  0  0
    1.8497    3.3560   -1.8691 C   0  0  0  0  0  0  0  0  0  0  0  0
    1.1623    2.4028   -1.1230 C   0  0  0  0  0  0  0  0  0  0  0  0
    1.8464    1.2858   -0.6244 C   0  0  0  0  0  0  0  0  0  0  0  0
    1.0960    0.3559    0.2278 C   0  0  0  0  0  0  0  0  0  0  0  0
    1.0746    0.6010    1.4381 O   0  0  0  0  0  0  0  0  0  0  0  0
    0.3988   -0.7201   -0.3243 N   0  0  0  0  0  0  0  0  0  0  0  0
   -0.4216   -1.4000    0.6295 N   0  0  0  0  0  0  0  0  0  0  0  0
   -1.6666   -0.8573    0.8936 C   0  0  0  0  0  0  0  0  0  0  0  0
   -2.2899   -0.1258    0.1320 O   0  0  0  0  0  0  0  0  0  0  0  0
   -2.0850   -1.2800    2.1469 O   0  0  0  0  0  0  0  0  0  0  0  0
   -3.2937   -0.7134    2.5558 C   0  0  0  0  0  0  0  0  0  0  0  0
   -4.4461   -1.4950    2.5159 C   0  0  0  0  0  0  0  0  0  0  0  0
   -5.6484   -0.9554    2.9712 C   0  0  0  0  0  0  0  0  0  0  0  0
   -5.6843    0.3485    3.4722 C   0  0  0  0  0  0  0  0  0  0  0  0
   -4.5177    1.1155    3.5239 C   0  0  0  0  0  0  0  0  0  0  0  0
   -3.3121    0.5822    3.0706 C   0  0  0  0  0  0  0  0  0  0  0  0
    0.3344   -1.2889   -1.7158 C   0  0  0  0  0  0  0  0  0  0  0  0
   -0.2684   -0.2796   -2.7088 C   0  0  0  0  0  0  0  0  0  0  0  0
   -0.5384   -2.5724   -1.7944 C   0  0  0  0  0  0  0  0  0  0  0  0
    1.7393   -1.7005   -2.1962 C   0  0  0  0  0  0  0  0  0  0  0  0
    5.6334    0.9116    0.3113 H   0  0  0  0  0  0  0  0  0  0  0  0
    5.6635   -0.0967   -1.1881 H   0  0  0  0  0  0  0  0  0  0  0  0
    5.5360   -0.8514    0.4047 H   0  0  0  0  0  0  0  0  0  0  0  0
    4.9707    2.0341   -1.7566 H   0  0  0  0  0  0  0  0  0  0  0  0
    3.7551    3.9474   -2.6756 H   0  0  0  0  0  0  0  0  0  0  0  0
    1.3232    4.2199   -2.2673 H   0  0  0  0  0  0  0  0  0  0  0  0
    0.0993    2.5256   -0.9252 H   0  0  0  0  0  0  0  0  0  0  0  0
    0.0780   -1.6628    1.4749 H   0  0  0  0  0  0  0  0  0  0  0  0
   -4.4109   -2.5092    2.1315 H   0  0  0  0  0  0  0  0  0  0  0  0
   -6.5580   -1.5491    2.9372 H   0  0  0  0  0  0  0  0  0  0  0  0
   -6.6233    0.7676    3.8249 H   0  0  0  0  0  0  0  0  0  0  0  0
   -4.5489    2.1281    3.9171 H   0  0  0  0  0  0  0  0  0  0  0  0
   -2.4009    1.1718    3.1123 H   0  0  0  0  0  0  0  0  0  0  0  0
   -1.2150    0.1270   -2.3387 H   0  0  0  0  0  0  0  0  0  0  0  0
    0.4027    0.5584   -2.9059 H   0  0  0  0  0  0  0  0  0  0  0  0
   -0.4642   -0.7493   -3.6801 H   0  0  0  0  0  0  0  0  0  0  0  0
   -1.5844   -2.3692   -1.5401 H   0  0  0  0  0  0  0  0  0  0  0  0
   -0.1669   -3.3514   -1.1184 H   0  0  0  0  0  0  0  0  0  0  0  0
   -0.5350   -2.9936   -2.8070 H   0  0  0  0  0  0  0  0  0  0  0  0
    2.2467   -2.3184   -1.4469 H   0  0  0  0  0  0  0  0  0  0  0  0
    2.3729   -0.8375   -2.4078 H   0  0  0  0  0  0  0  0  0  0  0  0
    1.6891   -2.2763   -3.1279 H   0  0  0  0  0  0  0  0  0  0  0  0
  1  2  1  0
  2  3  1  0
  3  4  2  0
  4  5  1  0
  5  6  2  0
  6  7  1  0
  7  8  2  0
  8  9  1  0
  9 10  2  0
  9 11  1  0
 11 12  1  0
 12 13  1  0
 13 14  2  0
 13 15  1  0
 15 16  1  0
 16 17  2  0
 17 18  1  0
 18 19  2  0
 19 20  1  0
 20 21  2  0
 11 22  1  0
 22 23  1  0
 22 24  1  0
 22 25  1  0
  8  3  1  0
 21 16  1  0
  1 26  1  0
  1 27  1  0
  1 28  1  0
  4 29  1  0
  5 30  1  0
  6 31  1  0
  7 32  1  0
 12 33  1  0
 17 34  1  0
 18 35  1  0
 19 36  1  0
 20 37  1  0
 21 38  1  0
 23 39  1  0
 23 40  1  0
 23 41  1  0
 24 42  1  0
 24 43  1  0
 24 44  1  0
 25 45  1  0
 25 46  1  0
 25 47  1  0
M  END
$$$$
