
     RDKit          3D

 46 48  0  0  0  0  0  0  0  0999 V2000
    0.3252   -1.1942   -0.8320 O   0  0  0  0  0  0  0  0  0  0  0  0
    1.3997   -1.3553   -0.2583 C   0  0  0  0  0  0  0  0  0  0  0  0
    2.4713   -2.2801   -0.8093 C   0  0  0  0  0  0  0  0  0  0  0  0
    3.8057   -1.6032   -1.0200 C   0  0  0  0  0  0  0  0  0  0  0  0
    4.9439   -2.0402   -0.3262 C   0  0  0  0  0  0  0  0  0  0  0  0
    6.1748   -1.4084   -0.5197 C   0  0  0  0  0  0  0  0  0  0  0  0
    6.2751   -0.3413   -1.4104 C   0  0  0  0  0  0  0  0  0  0  0  0
    7.7924    0.4335   -1.6499 Cl  0  0  0  0  0  0  0  0  0  0  0  0
    5.1546    0.0986   -2.1111 C   0  0  0  0  0  0  0  0  0  0  0  0
    3.9232   -0.5318   -1.9186 C   0  0  0  0  0  0  0  0  0  0  0  0
    1.7370   -0.7638    0.9536 N   0  0  0  0  0  0  0  0  0  0  0  0
    1.0117    0.0971    1.7638 C   0  0  0  0  0  0  0  0  0  0  0  0
    1.8329    0.6540    3.1080 S   0  0  0  0  0  0  0  0  0  0  0  0
   -0.2667    0.3495    1.3464 N   0  0  0  0  0  0  0  0  0  0  0  0
   -1.3237    1.1694    1.8166 C   0  0  0  0  0  0  0  0  0  0  0  0
   -1.2430    2.0649    2.8826 C   0  0  0  0  0  0  0  0  0  0  0  0
   -2.3597    2.8140    3.2668 C   0  0  0  0  0  0  0  0  0  0  0  0
   -3.5655    2.6806    2.5861 C   0  0  0  0  0  0  0  0  0  0  0  0
   -3.6614    1.7975    1.5124 C   0  0  0  0  0  0  0  0  0  0  0  0
   -2.5534    1.0343    1.1124 C   0  0  0  0  0  0  0  0  0  0  0  0
   -2.6103    0.1531    0.0078 N   0  0  0  0  0  0  0  0  0  0  0  0
   -2.3356    0.8530   -1.2714 C   0  0  0  0  0  0  0  0  0  0  0  0
   -2.6731   -0.0757   -2.4473 C   0  0  0  0  0  0  0  0  0  0  0  0
   -4.0659   -0.4307   -2.5052 O   0  0  0  0  0  0  0  0  0  0  0  0
   -4.7062   -0.4310   -1.2182 C   0  0  0  0  0  0  0  0  0  0  0  0
   -3.7636   -0.7727   -0.0528 C   0  0  0  0  0  0  0  0  0  0  0  0
    2.5651   -3.1296   -0.1215 H   0  0  0  0  0  0  0  0  0  0  0  0
    2.1266   -2.6881   -1.7675 H   0  0  0  0  0  0  0  0  0  0  0  0
    4.8875   -2.8788    0.3662 H   0  0  0  0  0  0  0  0  0  0  0  0
    7.0508   -1.7564    0.0215 H   0  0  0  0  0  0  0  0  0  0  0  0
    5.2326    0.9287   -2.8092 H   0  0  0  0  0  0  0  0  0  0  0  0
    3.0571   -0.1791   -2.4769 H   0  0  0  0  0  0  0  0  0  0  0  0
    2.6786   -0.9136    1.2935 H   0  0  0  0  0  0  0  0  0  0  0  0
   -0.5761   -0.2000    0.5374 H   0  0  0  0  0  0  0  0  0  0  0  0
   -0.3312    2.2228    3.4410 H   0  0  0  0  0  0  0  0  0  0  0  0
   -2.2805    3.5064    4.1014 H   0  0  0  0  0  0  0  0  0  0  0  0
   -4.4283    3.2694    2.8860 H   0  0  0  0  0  0  0  0  0  0  0  0
   -4.6056    1.7239    0.9815 H   0  0  0  0  0  0  0  0  0  0  0  0
   -2.9459    1.7626   -1.3494 H   0  0  0  0  0  0  0  0  0  0  0  0
   -1.2798    1.1426   -1.3230 H   0  0  0  0  0  0  0  0  0  0  0  0
   -2.0951   -1.0050   -2.3869 H   0  0  0  0  0  0  0  0  0  0  0  0
   -2.4206    0.4087   -3.3958 H   0  0  0  0  0  0  0  0  0  0  0  0
   -5.1558    0.5576   -1.0753 H   0  0  0  0  0  0  0  0  0  0  0  0
   -5.5255   -1.1563   -1.2632 H   0  0  0  0  0  0  0  0  0  0  0  0
   -4.3189   -0.8106    0.8916 H   0  0  0  0  0  0  0  0  0  0  0  0
   -3.3544   -1.7766   -0.2173 H   0  0  0  0  0  0  0  0  0  0  0  0
  1  2  2  0
  2  3  1  0
  3  4  1  0
  4  5  2  0
  5  6  1  0
  6  7  2  0
  7  8  1  0
  7  9  1  0
  9 10  2  0
  2 11  1  0
 11 12  1  0
 12 13  2  0
 12 14  1  0
 14 15  1  0
 15 16  2  0
 16 17  1  0
 17 18  2  0
 18 19  1  0
 19 20  2  0
 20 21  1  0
 21 22  1  0
 22 23  1  0
 23 24  1  0
 24 25  1  0
 25 26  1  0
 10  4  1  0
 20 15  1  0
 26 21  1  0
  3 27  1  0
  3 28  1  0
  5 29  1  0
  6 30  1  0
  9 31  1  0
 10 32  1  0
 11 33  1  0
 14 34  1  0
 16 35  1  0
 17 36  1  0
 18 37  1  0
 19 38  1  0
 22 39  1  0
 22 40  1  0
 23 41  1  0
 23 42  1  0
 25 43  1  0
 25 44  1  0
 26 45  1  0
 26 46  1  0
M  END
$$$$
