
     RDKit          3D

 59 62  0  0  0  0  0  0  0  0999 V2000
    0.0891    1.7329   -2.9117 O   0  0  0  0  0  0  0  0  0  0  0  0
    0.3836    1.5364   -1.7287 C   0  0  0  0  0  0  0  0  0  0  0  0
   -0.5766    1.9956   -0.6192 C   0  0  0  0  0  0  0  0  0  0  0  0
   -1.2722    0.8517    0.0085 N   0  0  0  0  0  0  0  0  0  0  0  0
   -2.0785    1.2828    1.1701 C   0  0  0  0  0  0  0  0  0  0  0  0
   -3.5535    1.6492    0.8767 C   0  0  0  0  0  0  0  0  0  0  0  0
   -4.2620    0.5770    0.1476 N   0  0  0  0  0  0  0  0  0  0  0  0
   -5.4652    0.1366    0.7121 C   0  0  0  0  0  0  0  0  0  0  0  0
   -5.5744   -1.1855    1.0029 N   0  0  0  0  0  0  0  0  0  0  0  0
   -6.7195   -1.6541    1.5533 C   0  0  0  0  0  0  0  0  0  0  0  0
   -7.8151   -0.8662    1.8469 C   0  0  0  0  0  0  0  0  0  0  0  0
   -9.0549   -1.4625    2.4326 C   0  0  0  0  0  0  0  0  0  0  0  0
  -10.0070   -1.7059    1.4917 F   0  0  0  0  0  0  0  0  0  0  0  0
   -8.8368   -2.6494    3.0621 F   0  0  0  0  0  0  0  0  0  0  0  0
   -9.6407   -0.6537    3.3581 F   0  0  0  0  0  0  0  0  0  0  0  0
   -7.7246    0.4887    1.5293 C   0  0  0  0  0  0  0  0  0  0  0  0
   -6.5535    0.9968    0.9567 C   0  0  0  0  0  0  0  0  0  0  0  0
   -6.5664    2.6703    0.5122 Cl  0  0  0  0  0  0  0  0  0  0  0  0
   -3.3926   -0.4909   -0.3859 C   0  0  0  0  0  0  0  0  0  0  0  0
   -2.1148    0.1363   -0.9871 C   0  0  0  0  0  0  0  0  0  0  0  0
    1.5846    0.9341   -1.3584 N   0  0  0  0  0  0  0  0  0  0  0  0
    1.8044    0.3347   -0.0326 C   0  0  0  0  0  0  0  0  0  0  0  0
    3.2981    0.1808    0.3190 C   0  0  0  0  0  0  0  0  0  0  0  0
    4.0170   -0.5087   -0.7758 N   0  0  0  0  0  0  0  0  0  0  0  0
    5.3659   -0.7321   -0.4154 C   0  0  0  0  0  0  0  0  0  0  0  0
    6.3073    0.1447   -0.8481 N   0  0  0  0  0  0  0  0  0  0  0  0
    7.5984   -0.0565   -0.4915 C   0  0  0  0  0  0  0  0  0  0  0  0
    8.0330   -1.1182    0.2852 C   0  0  0  0  0  0  0  0  0  0  0  0
    9.4788   -1.2447    0.6495 C   0  0  0  0  0  0  0  0  0  0  0  0
    9.7823   -0.5711    1.7923 F   0  0  0  0  0  0  0  0  0  0  0  0
    9.8650   -2.5336    0.8589 F   0  0  0  0  0  0  0  0  0  0  0  0
   10.3145   -0.7560   -0.3076 F   0  0  0  0  0  0  0  0  0  0  0  0
    7.0663   -2.0237    0.7315 C   0  0  0  0  0  0  0  0  0  0  0  0
    5.7273   -1.8367    0.3795 C   0  0  0  0  0  0  0  0  0  0  0  0
    4.5812   -3.0130    0.9187 Cl  0  0  0  0  0  0  0  0  0  0  0  0
    3.8878    0.2378   -2.0477 C   0  0  0  0  0  0  0  0  0  0  0  0
    2.4042    0.3608   -2.4341 C   0  0  0  0  0  0  0  0  0  0  0  0
    0.0109    2.5552    0.1175 H   0  0  0  0  0  0  0  0  0  0  0  0
   -1.2898    2.7091   -1.0502 H   0  0  0  0  0  0  0  0  0  0  0  0
   -2.0749    0.4490    1.8852 H   0  0  0  0  0  0  0  0  0  0  0  0
   -1.5931    2.1122    1.6995 H   0  0  0  0  0  0  0  0  0  0  0  0
   -4.0309    1.8805    1.8371 H   0  0  0  0  0  0  0  0  0  0  0  0
   -3.5779    2.5585    0.2648 H   0  0  0  0  0  0  0  0  0  0  0  0
   -6.7149   -2.7242    1.7554 H   0  0  0  0  0  0  0  0  0  0  0  0
   -8.5718    1.1475    1.7102 H   0  0  0  0  0  0  0  0  0  0  0  0
   -3.1091   -1.2083    0.3967 H   0  0  0  0  0  0  0  0  0  0  0  0
   -3.9190   -1.0392   -1.1780 H   0  0  0  0  0  0  0  0  0  0  0  0
   -1.5108   -0.6539   -1.4479 H   0  0  0  0  0  0  0  0  0  0  0  0
   -2.4321    0.8165   -1.7895 H   0  0  0  0  0  0  0  0  0  0  0  0
    1.3202   -0.6498   -0.0451 H   0  0  0  0  0  0  0  0  0  0  0  0
    1.3279    0.9332    0.7467 H   0  0  0  0  0  0  0  0  0  0  0  0
    3.7317    1.1775    0.4827 H   0  0  0  0  0  0  0  0  0  0  0  0
    3.3737   -0.3696    1.2639 H   0  0  0  0  0  0  0  0  0  0  0  0
    8.2926    0.6954   -0.8687 H   0  0  0  0  0  0  0  0  0  0  0  0
    7.3550   -2.8757    1.3461 H   0  0  0  0  0  0  0  0  0  0  0  0
    4.4175   -0.2860   -2.8529 H   0  0  0  0  0  0  0  0  0  0  0  0
    4.3091    1.2478   -1.9537 H   0  0  0  0  0  0  0  0  0  0  0  0
    1.9888   -0.6295   -2.6588 H   0  0  0  0  0  0  0  0  0  0  0  0
    2.3167    0.9691   -3.3411 H   0  0  0  0  0  0  0  0  0  0  0  0
  1  2  2  0
  2  3  1  0
  3  4  1  0
  4  5  1  0
  5  6  1  0
  6  7  1  0
  7  8  1  0
  8  9  2  0
  9 10  1  0
 10 11  2  0
 11 12  1  0
 12 13  1  0
 12 14  1  0
 12 15  1  0
 11 16  1  0
 16 17  2  0
 17 18  1  0
  7 19  1  0
 19 20  1  0
  2 21  1  0
 21 22  1  0
 22 23  1  0
 23 24  1  0
 24 25  1  0
 25 26  2  0
 26 27  1  0
 27 28  2  0
 28 29  1  0
 29 30  1  0
 29 31  1  0
 29 32  1  0
 28 33  1  0
 33 34  2  0
 34 35  1  0
 24 36  1  0
 36 37  1  0
 20  4  1  0
 37 21  1  0
 17  8  1  0
 34 25  1  0
  3 38  1  0
  3 39  1  0
  5 40  1  0
  5 41  1  0
  6 42  1  0
  6 43  1  0
 10 44  1  0
 16 45  1  0
 19 46  1  0
 19 47  1  0
 20 48  1  0
 20 49  1  0
 22 50  1  0
 22 51  1  0
 23 52  1  0
 23 53  1  0
 27 54  1  0
 33 55  1  0
 36 56  1  0
 36 57  1  0
 37 58  1  0
 37 59  1  0
M  END
$$$$
