
     RDKit          3D

 37 39  0  0  0  0  0  0  0  0999 V2000
   -3.7883   -2.0827    2.3329 C   0  0  0  0  0  0  0  0  0  0  0  0
   -3.7694   -0.7378    1.6692 C   0  0  0  0  0  0  0  0  0  0  0  0
   -4.7869    0.1250    1.8064 C   0  0  0  0  0  0  0  0  0  0  0  0
   -4.8156    1.4545    1.1769 C   0  0  0  0  0  0  0  0  0  0  0  0
   -5.7745    2.2010    1.3371 O   0  0  0  0  0  0  0  0  0  0  0  0
   -3.7203    1.8064    0.4086 O   0  0  0  0  0  0  0  0  0  0  0  0
   -2.6357    0.9235    0.2440 C   0  0  0  0  0  0  0  0  0  0  0  0
   -1.5822    1.3782   -0.5503 C   0  0  0  0  0  0  0  0  0  0  0  0
   -0.4743    0.5614   -0.7683 C   0  0  0  0  0  0  0  0  0  0  0  0
    0.4962    1.1165   -1.5526 O   0  0  0  0  0  0  0  0  0  0  0  0
    1.5291    0.2743   -2.0814 C   0  0  0  0  0  0  0  0  0  0  0  0
    2.0458    0.8702   -3.3973 C   0  0  0  0  0  0  0  0  0  0  0  0
    2.5130    0.2314   -4.3318 O   0  0  0  0  0  0  0  0  0  0  0  0
    1.9961    2.2182   -3.4710 O   0  0  0  0  0  0  0  0  0  0  0  0
    2.6863    0.0863   -1.1113 C   0  0  0  0  0  0  0  0  0  0  0  0
    3.4452   -1.0951   -1.1490 C   0  0  0  0  0  0  0  0  0  0  0  0
    4.5195   -1.2766   -0.2766 C   0  0  0  0  0  0  0  0  0  0  0  0
    4.8527   -0.2794    0.6375 C   0  0  0  0  0  0  0  0  0  0  0  0
    4.1165    0.9028    0.6772 C   0  0  0  0  0  0  0  0  0  0  0  0
    3.0426    1.0878   -0.1948 C   0  0  0  0  0  0  0  0  0  0  0  0
   -0.4326   -0.6967   -0.1683 C   0  0  0  0  0  0  0  0  0  0  0  0
   -1.4989   -1.1410    0.6298 C   0  0  0  0  0  0  0  0  0  0  0  0
   -2.6217   -0.3344    0.8460 C   0  0  0  0  0  0  0  0  0  0  0  0
   -3.7318   -2.8845    1.5890 H   0  0  0  0  0  0  0  0  0  0  0  0
   -4.7075   -2.2398    2.9085 H   0  0  0  0  0  0  0  0  0  0  0  0
   -2.9493   -2.1848    3.0293 H   0  0  0  0  0  0  0  0  0  0  0  0
   -5.6634   -0.1099    2.3998 H   0  0  0  0  0  0  0  0  0  0  0  0
   -1.6281    2.3668   -0.9993 H   0  0  0  0  0  0  0  0  0  0  0  0
    1.0911   -0.6935   -2.3617 H   0  0  0  0  0  0  0  0  0  0  0  0
    2.3826    2.4277   -4.3458 H   0  0  0  0  0  0  0  0  0  0  0  0
    3.2094   -1.8806   -1.8649 H   0  0  0  0  0  0  0  0  0  0  0  0
    5.1011   -2.1943   -0.3140 H   0  0  0  0  0  0  0  0  0  0  0  0
    5.6906   -0.4204    1.3153 H   0  0  0  0  0  0  0  0  0  0  0  0
    4.3797    1.6841    1.3856 H   0  0  0  0  0  0  0  0  0  0  0  0
    2.4827    2.0209   -0.1543 H   0  0  0  0  0  0  0  0  0  0  0  0
    0.4210   -1.3579   -0.2793 H   0  0  0  0  0  0  0  0  0  0  0  0
   -1.4207   -2.1274    1.0801 H   0  0  0  0  0  0  0  0  0  0  0  0
  1  2  1  0
  2  3  2  0
  3  4  1  0
  4  5  2  0
  4  6  1  0
  6  7  1  0
  7  8  2  0
  8  9  1  0
  9 10  1  0
 10 11  1  0
 11 12  1  0
 12 13  2  0
 12 14  1  0
 11 15  1  0
 15 16  2  0
 16 17  1  0
 17 18  2  0
 18 19  1  0
 19 20  2  0
  9 21  2  0
 21 22  1  0
 22 23  2  0
 23  2  1  0
 23  7  1  0
 20 15  1  0
  1 24  1  0
  1 25  1  0
  1 26  1  0
  3 27  1  0
  8 28  1  0
 11 29  1  0
 14 30  1  0
 16 31  1  0
 17 32  1  0
 18 33  1  0
 19 34  1  0
 20 35  1  0
 21 36  1  0
 22 37  1  0
M  END
$$$$
