
     RDKit          3D

 48 52  0  0  0  0  0  0  0  0999 V2000
    5.7226   -1.0058   -0.5216 C   0  0  0  0  0  0  0  0  0  0  0  0
    4.3218   -0.6757   -0.0999 C   0  0  0  0  0  0  0  0  0  0  0  0
    3.3157   -0.5040   -1.0556 C   0  0  0  0  0  0  0  0  0  0  0  0
    2.0160   -0.1706   -0.6654 C   0  0  0  0  0  0  0  0  0  0  0  0
    1.6946    0.0165    0.6902 C   0  0  0  0  0  0  0  0  0  0  0  0
    0.3029    0.3973    1.1565 C   0  0  0  0  0  0  0  0  0  0  0  0
    0.0315    1.7387    0.5833 C   0  0  0  0  0  0  0  0  0  0  0  0
   -1.1209    1.7218   -0.2178 C   0  0  0  0  0  0  0  0  0  0  0  0
   -1.3020    2.9626   -0.7640 C   0  0  0  0  0  0  0  0  0  0  0  0
   -2.2342    3.3786   -1.6123 O   0  0  0  0  0  0  0  0  0  0  0  0
   -0.2859    3.7598   -0.2536 N   0  0  0  0  0  0  0  0  0  0  0  0
   -0.0939    5.1617   -0.5518 C   0  0  0  0  0  0  0  0  0  0  0  0
    0.5546    3.0055    0.5501 C   0  0  0  0  0  0  0  0  0  0  0  0
    1.6444    3.5296    1.0962 O   0  0  0  0  0  0  0  0  0  0  0  0
   -1.7584    0.3884   -0.2503 C   0  0  0  0  0  0  0  0  0  0  0  0
   -3.1416    0.3657    0.4152 C   0  0  0  0  0  0  0  0  0  0  0  0
   -3.7540    1.3598    0.8104 O   0  0  0  0  0  0  0  0  0  0  0  0
   -3.7955   -0.8411    0.4640 N   0  0  0  0  0  0  0  0  0  0  0  0
   -3.3184   -2.1074    0.0940 C   0  0  0  0  0  0  0  0  0  0  0  0
   -4.2950   -3.0251   -0.3266 C   0  0  0  0  0  0  0  0  0  0  0  0
   -3.9445   -4.3137   -0.7352 C   0  0  0  0  0  0  0  0  0  0  0  0
   -2.6141   -4.7133   -0.7032 C   0  0  0  0  0  0  0  0  0  0  0  0
   -1.6398   -3.8280   -0.2447 C   0  0  0  0  0  0  0  0  0  0  0  0
   -1.9800   -2.5228    0.1580 C   0  0  0  0  0  0  0  0  0  0  0  0
   -0.8901   -1.7440    0.7968 C   0  0  0  0  0  0  0  0  0  0  0  0
   -0.0969   -2.3462    1.5177 O   0  0  0  0  0  0  0  0  0  0  0  0
   -0.7995   -0.3964    0.5631 N   0  0  0  0  0  0  0  0  0  0  0  0
    2.7142   -0.1517    1.6417 C   0  0  0  0  0  0  0  0  0  0  0  0
    4.0133   -0.4872    1.2508 C   0  0  0  0  0  0  0  0  0  0  0  0
    6.2861   -0.0849   -0.7004 H   0  0  0  0  0  0  0  0  0  0  0  0
    5.7238   -1.6054   -1.4379 H   0  0  0  0  0  0  0  0  0  0  0  0
    6.2353   -1.5907    0.2493 H   0  0  0  0  0  0  0  0  0  0  0  0
    3.5350   -0.6311   -2.1132 H   0  0  0  0  0  0  0  0  0  0  0  0
    1.2535   -0.0471   -1.4312 H   0  0  0  0  0  0  0  0  0  0  0  0
    0.1979    0.3814    2.2467 H   0  0  0  0  0  0  0  0  0  0  0  0
   -2.1960    4.3446   -1.6968 H   0  0  0  0  0  0  0  0  0  0  0  0
    0.7871    5.5479   -0.0351 H   0  0  0  0  0  0  0  0  0  0  0  0
   -0.9806    5.7065   -0.2173 H   0  0  0  0  0  0  0  0  0  0  0  0
    0.0382    5.2676   -1.6317 H   0  0  0  0  0  0  0  0  0  0  0  0
    2.1603    2.7917    1.4704 H   0  0  0  0  0  0  0  0  0  0  0  0
   -1.8084   -0.0197   -1.2649 H   0  0  0  0  0  0  0  0  0  0  0  0
   -4.7802   -0.7352    0.6798 H   0  0  0  0  0  0  0  0  0  0  0  0
   -5.3443   -2.7392   -0.3651 H   0  0  0  0  0  0  0  0  0  0  0  0
   -4.7125   -5.0056   -1.0730 H   0  0  0  0  0  0  0  0  0  0  0  0
   -2.3354   -5.7195   -1.0070 H   0  0  0  0  0  0  0  0  0  0  0  0
   -0.6066   -4.1665   -0.1716 H   0  0  0  0  0  0  0  0  0  0  0  0
    2.4989   -0.0362    2.7023 H   0  0  0  0  0  0  0  0  0  0  0  0
    4.7810   -0.6116    2.0113 H   0  0  0  0  0  0  0  0  0  0  0  0
  1  2  1  0
  2  3  2  0
  3  4  1  0
  4  5  2  0
  5  6  1  0
  6  7  1  0
  7  8  1  0
  8  9  2  0
  9 10  1  0
  9 11  1  0
 11 12  1  0
 11 13  1  0
 13 14  1  0
  8 15  1  0
 15 16  1  0
 16 17  2  0
 16 18  1  0
 18 19  1  0
 19 20  2  0
 20 21  1  0
 21 22  2  0
 22 23  1  0
 23 24  2  0
 24 25  1  0
 25 26  2  0
 25 27  1  0
  5 28  1  0
 28 29  2  0
 29  2  1  0
 27  6  1  0
 13  7  2  0
 27 15  1  0
 24 19  1  0
  1 30  1  0
  1 31  1  0
  1 32  1  0
  3 33  1  0
  4 34  1  0
  6 35  1  0
 10 36  1  0
 12 37  1  0
 12 38  1  0
 12 39  1  0
 14 40  1  0
 15 41  1  0
 18 42  1  0
 20 43  1  0
 21 44  1  0
 22 45  1  0
 23 46  1  0
 28 47  1  0
 29 48  1  0
M  END
$$$$
