
     RDKit          3D

 44 46  0  0  0  0  0  0  0  0999 V2000
    2.9492   -3.5250    0.1595 C   0  0  0  0  0  0  0  0  0  0  0  0
    2.1112   -2.3056   -0.0269 C   0  0  0  0  0  0  0  0  0  0  0  0
    0.7380   -2.2275    0.0572 C   0  0  0  0  0  0  0  0  0  0  0  0
    0.3397   -0.8696   -0.0673 C   0  0  0  0  0  0  0  0  0  0  0  0
   -1.0592   -0.4205    0.0349 C   0  0  0  0  0  0  0  0  0  0  0  0
   -1.9712   -1.2532    0.0556 O   0  0  0  0  0  0  0  0  0  0  0  0
   -1.3720    1.0655    0.2088 C   0  0  0  0  0  0  0  0  0  0  0  0
   -2.7662    1.2863    0.4519 O   0  0  0  0  0  0  0  0  0  0  0  0
   -3.5292    1.2913   -0.6763 C   0  0  0  0  0  0  0  0  0  0  0  0
   -3.1030    1.2566   -1.8197 O   0  0  0  0  0  0  0  0  0  0  0  0
   -4.9532    1.3272   -0.3098 C   0  0  0  0  0  0  0  0  0  0  0  0
   -5.4374    0.4202    0.5606 C   0  0  0  0  0  0  0  0  0  0  0  0
   -6.8420    0.3875    0.9003 C   0  0  0  0  0  0  0  0  0  0  0  0
   -7.6835    1.2553    0.3269 C   0  0  0  0  0  0  0  0  0  0  0  0
   -7.2134    2.1827   -0.5662 N   0  0  0  0  0  0  0  0  0  0  0  0
   -5.8880    2.3023   -0.9334 C   0  0  0  0  0  0  0  0  0  0  0  0
   -5.5210    3.1841   -1.7021 O   0  0  0  0  0  0  0  0  0  0  0  0
    1.5059   -0.1457   -0.3156 C   0  0  0  0  0  0  0  0  0  0  0  0
    1.6635    1.2822   -0.7369 C   0  0  0  0  0  0  0  0  0  0  0  0
    2.5979   -1.0176   -0.2096 N   0  0  0  0  0  0  0  0  0  0  0  0
    3.9747   -0.6453   -0.2467 C   0  0  0  0  0  0  0  0  0  0  0  0
    4.8862   -1.3769   -1.0207 C   0  0  0  0  0  0  0  0  0  0  0  0
    6.2327   -1.0071   -1.0432 C   0  0  0  0  0  0  0  0  0  0  0  0
    6.6597    0.0835   -0.2941 C   0  0  0  0  0  0  0  0  0  0  0  0
    7.9518    0.4345   -0.3183 F   0  0  0  0  0  0  0  0  0  0  0  0
    5.7661    0.8167    0.4782 C   0  0  0  0  0  0  0  0  0  0  0  0
    4.4178    0.4549    0.5037 C   0  0  0  0  0  0  0  0  0  0  0  0
    2.3674   -4.3181    0.6429 H   0  0  0  0  0  0  0  0  0  0  0  0
    3.8146   -3.3293    0.7999 H   0  0  0  0  0  0  0  0  0  0  0  0
    3.2889   -3.9140   -0.8046 H   0  0  0  0  0  0  0  0  0  0  0  0
    0.0727   -3.0663    0.2324 H   0  0  0  0  0  0  0  0  0  0  0  0
   -0.8360    1.4304    1.0907 H   0  0  0  0  0  0  0  0  0  0  0  0
   -1.0461    1.6415   -0.6596 H   0  0  0  0  0  0  0  0  0  0  0  0
   -4.7935   -0.3300    1.0137 H   0  0  0  0  0  0  0  0  0  0  0  0
   -7.1906   -0.3555    1.6104 H   0  0  0  0  0  0  0  0  0  0  0  0
   -8.7479    1.2697    0.5382 H   0  0  0  0  0  0  0  0  0  0  0  0
   -7.8468    2.8475   -0.9948 H   0  0  0  0  0  0  0  0  0  0  0  0
    1.5474    1.9498    0.1226 H   0  0  0  0  0  0  0  0  0  0  0  0
    2.6271    1.4855   -1.2115 H   0  0  0  0  0  0  0  0  0  0  0  0
    0.9145    1.5393   -1.4913 H   0  0  0  0  0  0  0  0  0  0  0  0
    4.5625   -2.2062   -1.6436 H   0  0  0  0  0  0  0  0  0  0  0  0
    6.9485   -1.5567   -1.6464 H   0  0  0  0  0  0  0  0  0  0  0  0
    6.1262    1.6595    1.0596 H   0  0  0  0  0  0  0  0  0  0  0  0
    3.7361    1.0163    1.1376 H   0  0  0  0  0  0  0  0  0  0  0  0
  1  2  1  0
  2  3  2  0
  3  4  1  0
  4  5  1  0
  5  6  2  0
  5  7  1  0
  7  8  1  0
  8  9  1  0
  9 10  2  0
  9 11  1  0
 11 12  2  0
 12 13  1  0
 13 14  2  0
 14 15  1  0
 15 16  1  0
 16 17  2  0
  4 18  2  0
 18 19  1  0
 18 20  1  0
 20 21  1  0
 21 22  2  0
 22 23  1  0
 23 24  2  0
 24 25  1  0
 24 26  1  0
 26 27  2  0
 20  2  1  0
 27 21  1  0
 16 11  1  0
  1 28  1  0
  1 29  1  0
  1 30  1  0
  3 31  1  0
  7 32  1  0
  7 33  1  0
 12 34  1  0
 13 35  1  0
 14 36  1  0
 15 37  1  0
 19 38  1  0
 19 39  1  0
 19 40  1  0
 22 41  1  0
 23 42  1  0
 26 43  1  0
 27 44  1  0
M  END
$$$$
