
     RDKit          3D

 49 51  0  0  0  0  0  0  0  0999 V2000
    0.9423    1.6408   -3.6162 N   0  0  0  0  0  0  0  0  0  0  0  0
    1.7281    1.0442   -2.7024 C   0  0  0  0  0  0  0  0  0  0  0  0
    3.0129    1.2301   -2.6522 N   0  0  0  0  0  0  0  0  0  0  0  0
    3.4697    0.3454   -1.5390 C   0  0  0  0  0  0  0  0  0  0  0  0
    2.2056   -0.2618   -0.8817 C   0  0  0  0  0  0  0  0  0  0  0  0
    1.9966    0.2372    0.5563 C   0  0  0  0  0  0  0  0  0  0  0  0
    3.0055   -0.3181    1.5352 C   0  0  0  0  0  0  0  0  0  0  0  0
    4.0055    0.5057    2.0724 C   0  0  0  0  0  0  0  0  0  0  0  0
    4.9426   -0.0083    2.9715 C   0  0  0  0  0  0  0  0  0  0  0  0
    4.8767   -1.3483    3.3367 C   0  0  0  0  0  0  0  0  0  0  0  0
    5.7708   -1.8919    4.2107 O   0  0  0  0  0  0  0  0  0  0  0  0
    3.8906   -2.1788    2.8195 C   0  0  0  0  0  0  0  0  0  0  0  0
    2.9548   -1.6659    1.9205 C   0  0  0  0  0  0  0  0  0  0  0  0
    1.1687    0.2189   -1.7886 N   0  0  0  0  0  0  0  0  0  0  0  0
   -0.2236   -0.1421   -1.6226 C   0  0  0  0  0  0  0  0  0  0  0  0
   -1.0483    1.0227   -1.0597 C   0  0  0  0  0  0  0  0  0  0  0  0
   -2.4870    0.6264   -0.8223 C   0  0  0  0  0  0  0  0  0  0  0  0
   -3.4455    0.8005   -1.8298 C   0  0  0  0  0  0  0  0  0  0  0  0
   -4.7821    0.4213   -1.6291 C   0  0  0  0  0  0  0  0  0  0  0  0
   -5.8099    0.6437   -2.7143 C   0  0  0  0  0  0  0  0  0  0  0  0
   -6.8481   -0.2355   -2.6533 F   0  0  0  0  0  0  0  0  0  0  0  0
   -5.2923    0.5206   -3.9684 F   0  0  0  0  0  0  0  0  0  0  0  0
   -6.3636    1.8851   -2.6556 F   0  0  0  0  0  0  0  0  0  0  0  0
   -5.1531   -0.1308   -0.3923 C   0  0  0  0  0  0  0  0  0  0  0  0
   -4.2060   -0.3257    0.6263 C   0  0  0  0  0  0  0  0  0  0  0  0
   -4.6131   -0.9055    1.9610 C   0  0  0  0  0  0  0  0  0  0  0  0
   -5.7295   -1.6820    1.8888 F   0  0  0  0  0  0  0  0  0  0  0  0
   -4.8837    0.0582    2.8824 F   0  0  0  0  0  0  0  0  0  0  0  0
   -3.6474   -1.6930    2.5112 F   0  0  0  0  0  0  0  0  0  0  0  0
   -2.8756    0.0615    0.3999 C   0  0  0  0  0  0  0  0  0  0  0  0
    1.5219    2.1287   -4.2929 H   0  0  0  0  0  0  0  0  0  0  0  0
    0.3267    0.9939   -4.0887 H   0  0  0  0  0  0  0  0  0  0  0  0
    4.1007   -0.4468   -1.9580 H   0  0  0  0  0  0  0  0  0  0  0  0
    4.0789    0.9310   -0.8447 H   0  0  0  0  0  0  0  0  0  0  0  0
    2.2574   -1.3566   -0.9160 H   0  0  0  0  0  0  0  0  0  0  0  0
    2.0059    1.3350    0.5831 H   0  0  0  0  0  0  0  0  0  0  0  0
    1.0017   -0.0532    0.9172 H   0  0  0  0  0  0  0  0  0  0  0  0
    4.0635    1.5557    1.7912 H   0  0  0  0  0  0  0  0  0  0  0  0
    5.7085    0.6478    3.3724 H   0  0  0  0  0  0  0  0  0  0  0  0
    6.3980   -1.2013    4.4809 H   0  0  0  0  0  0  0  0  0  0  0  0
    3.8502   -3.2229    3.1173 H   0  0  0  0  0  0  0  0  0  0  0  0
    2.1851   -2.3266    1.5284 H   0  0  0  0  0  0  0  0  0  0  0  0
   -0.3044   -1.0129   -0.9594 H   0  0  0  0  0  0  0  0  0  0  0  0
   -0.6373   -0.4674   -2.5853 H   0  0  0  0  0  0  0  0  0  0  0  0
   -0.6154    1.3853   -0.1195 H   0  0  0  0  0  0  0  0  0  0  0  0
   -1.0203    1.8830   -1.7392 H   0  0  0  0  0  0  0  0  0  0  0  0
   -3.1522    1.2427   -2.7828 H   0  0  0  0  0  0  0  0  0  0  0  0
   -6.1932   -0.4146   -0.2211 H   0  0  0  0  0  0  0  0  0  0  0  0
   -2.1373   -0.0754    1.1910 H   0  0  0  0  0  0  0  0  0  0  0  0
  1  2  1  0
  2  3  2  0
  3  4  1  0
  4  5  1  0
  5  6  1  0
  6  7  1  0
  7  8  2  0
  8  9  1  0
  9 10  2  0
 10 11  1  0
 10 12  1  0
 12 13  2  0
  5 14  1  0
 14 15  1  0
 15 16  1  0
 16 17  1  0
 17 18  2  0
 18 19  1  0
 19 20  1  0
 20 21  1  0
 20 22  1  0
 20 23  1  0
 19 24  2  0
 24 25  1  0
 25 26  1  0
 26 27  1  0
 26 28  1  0
 26 29  1  0
 25 30  2  0
 14  2  1  0
 30 17  1  0
 13  7  1  0
  1 31  1  0
  1 32  1  0
  4 33  1  0
  4 34  1  0
  5 35  1  0
  6 36  1  0
  6 37  1  0
  8 38  1  0
  9 39  1  0
 11 40  1  0
 12 41  1  0
 13 42  1  0
 15 43  1  0
 15 44  1  0
 16 45  1  0
 16 46  1  0
 18 47  1  0
 24 48  1  0
 30 49  1  0
M  END
$$$$
