
     RDKit          3D

 38 40  0  0  0  0  0  0  0  0999 V2000
   -5.8846   -0.2686   -1.7483 C   0  0  0  0  0  0  0  0  0  0  0  0
   -4.5874   -0.5863   -1.0659 C   0  0  0  0  0  0  0  0  0  0  0  0
   -3.4663   -0.9606   -1.8136 C   0  0  0  0  0  0  0  0  0  0  0  0
   -2.2654   -1.2854   -1.1775 C   0  0  0  0  0  0  0  0  0  0  0  0
   -2.1635   -1.2497    0.2211 C   0  0  0  0  0  0  0  0  0  0  0  0
   -0.8734   -1.6089    0.9184 C   0  0  0  0  0  0  0  0  0  0  0  0
    0.0622   -0.4614    0.7105 C   0  0  0  0  0  0  0  0  0  0  0  0
   -0.0008    0.8005    1.3775 C   0  0  0  0  0  0  0  0  0  0  0  0
    1.0360    1.5813    0.9205 C   0  0  0  0  0  0  0  0  0  0  0  0
    1.3912    2.8241    1.2236 O   0  0  0  0  0  0  0  0  0  0  0  0
    1.7482    0.8361    0.0110 N   0  0  0  0  0  0  0  0  0  0  0  0
    2.9162    1.3034   -0.7267 C   0  0  0  0  0  0  0  0  0  0  0  0
    4.1796    0.9830   -0.0120 C   0  0  0  0  0  0  0  0  0  0  0  0
    4.6191    1.1652    1.2849 C   0  0  0  0  0  0  0  0  0  0  0  0
    5.9399    0.6605    1.3380 C   0  0  0  0  0  0  0  0  0  0  0  0
    6.2285    0.2115    0.0714 C   0  0  0  0  0  0  0  0  0  0  0  0
    5.1714    0.4090   -0.7566 O   0  0  0  0  0  0  0  0  0  0  0  0
    1.1627   -0.4026   -0.1314 C   0  0  0  0  0  0  0  0  0  0  0  0
    1.6767   -1.2926   -0.9731 O   0  0  0  0  0  0  0  0  0  0  0  0
   -3.2949   -0.8881    0.9668 C   0  0  0  0  0  0  0  0  0  0  0  0
   -4.4958   -0.5648    0.3296 C   0  0  0  0  0  0  0  0  0  0  0  0
   -6.4636    0.4578   -1.1683 H   0  0  0  0  0  0  0  0  0  0  0  0
   -5.7092    0.1709   -2.7358 H   0  0  0  0  0  0  0  0  0  0  0  0
   -6.4780   -1.1804   -1.8669 H   0  0  0  0  0  0  0  0  0  0  0  0
   -3.5175   -0.9970   -2.8995 H   0  0  0  0  0  0  0  0  0  0  0  0
   -1.4050   -1.5581   -1.7844 H   0  0  0  0  0  0  0  0  0  0  0  0
   -0.4764   -2.5448    0.5104 H   0  0  0  0  0  0  0  0  0  0  0  0
   -1.0361   -1.7742    1.9900 H   0  0  0  0  0  0  0  0  0  0  0  0
   -0.7430    1.0980    2.1061 H   0  0  0  0  0  0  0  0  0  0  0  0
    0.7299    3.1637    1.8527 H   0  0  0  0  0  0  0  0  0  0  0  0
    2.8902    0.8452   -1.7215 H   0  0  0  0  0  0  0  0  0  0  0  0
    2.8205    2.3854   -0.8674 H   0  0  0  0  0  0  0  0  0  0  0  0
    4.0465    1.6067    2.0893 H   0  0  0  0  0  0  0  0  0  0  0  0
    6.6006    0.6290    2.1924 H   0  0  0  0  0  0  0  0  0  0  0  0
    7.0956   -0.2484   -0.3813 H   0  0  0  0  0  0  0  0  0  0  0  0
    1.1558   -2.1096   -0.9021 H   0  0  0  0  0  0  0  0  0  0  0  0
   -3.2500   -0.8564    2.0530 H   0  0  0  0  0  0  0  0  0  0  0  0
   -5.3600   -0.2934    0.9316 H   0  0  0  0  0  0  0  0  0  0  0  0
  1  2  1  0
  2  3  2  0
  3  4  1  0
  4  5  2  0
  5  6  1  0
  6  7  1  0
  7  8  1  0
  8  9  2  0
  9 10  1  0
  9 11  1  0
 11 12  1  0
 12 13  1  0
 13 14  2  0
 14 15  1  0
 15 16  2  0
 16 17  1  0
 11 18  1  0
 18 19  1  0
  5 20  1  0
 20 21  2  0
 21  2  1  0
 18  7  2  0
 17 13  1  0
  1 22  1  0
  1 23  1  0
  1 24  1  0
  3 25  1  0
  4 26  1  0
  6 27  1  0
  6 28  1  0
  8 29  1  0
 10 30  1  0
 12 31  1  0
 12 32  1  0
 14 33  1  0
 15 34  1  0
 16 35  1  0
 19 36  1  0
 20 37  1  0
 21 38  1  0
M  END
$$$$
