
     RDKit          3D

 57 60  0  0  0  0  0  0  0  0999 V2000
    8.4807   -3.9998   -2.2957 C   0  0  0  0  0  0  0  0  0  0  0  0
    7.7770   -2.8985   -2.8611 O   0  0  0  0  0  0  0  0  0  0  0  0
    6.7642   -2.3561   -2.1230 C   0  0  0  0  0  0  0  0  0  0  0  0
    6.0787   -1.3154   -2.7541 C   0  0  0  0  0  0  0  0  0  0  0  0
    5.0318   -0.6542   -2.1098 C   0  0  0  0  0  0  0  0  0  0  0  0
    4.6478   -1.0270   -0.8188 C   0  0  0  0  0  0  0  0  0  0  0  0
    3.5417   -0.2891   -0.1066 C   0  0  0  0  0  0  0  0  0  0  0  0
    2.2993   -1.1242    0.1014 C   0  0  0  0  0  0  0  0  0  0  0  0
    1.3280   -1.1544   -0.6499 O   0  0  0  0  0  0  0  0  0  0  0  0
    2.4005   -1.8554    1.2461 O   0  0  0  0  0  0  0  0  0  0  0  0
    1.3146   -2.7391    1.5095 C   0  0  0  0  0  0  0  0  0  0  0  0
    0.0542   -2.0693    2.0563 C   0  0  0  0  0  0  0  0  0  0  0  0
   -0.2897   -2.2457    3.2251 O   0  0  0  0  0  0  0  0  0  0  0  0
   -0.7145   -1.4376    1.0994 N   0  0  0  0  0  0  0  0  0  0  0  0
   -1.3888   -0.2734    1.3922 C   0  0  0  0  0  0  0  0  0  0  0  0
   -1.1726    0.4334    2.3669 O   0  0  0  0  0  0  0  0  0  0  0  0
   -2.3044    0.0154    0.3981 N   0  0  0  0  0  0  0  0  0  0  0  0
   -3.2870    1.1052    0.5070 C   0  0  0  0  0  0  0  0  0  0  0  0
   -4.1600    1.1010   -0.7802 C   0  0  0  0  0  0  0  0  0  0  0  0
   -5.2320    2.2046   -0.7259 C   0  0  0  0  0  0  0  0  0  0  0  0
   -4.5445    3.5719   -0.6007 C   0  0  0  0  0  0  0  0  0  0  0  0
   -3.6850    3.6086    0.6731 C   0  0  0  0  0  0  0  0  0  0  0  0
   -4.5875    3.3718    1.8993 C   0  0  0  0  0  0  0  0  0  0  0  0
   -5.2897    2.0081    1.7855 C   0  0  0  0  0  0  0  0  0  0  0  0
   -6.1323    1.9710    0.5012 C   0  0  0  0  0  0  0  0  0  0  0  0
   -4.2264    0.8986    1.7240 C   0  0  0  0  0  0  0  0  0  0  0  0
   -2.6185    2.5002    0.6107 C   0  0  0  0  0  0  0  0  0  0  0  0
    5.3264   -2.0826   -0.1935 C   0  0  0  0  0  0  0  0  0  0  0  0
    6.3737   -2.7474   -0.8440 C   0  0  0  0  0  0  0  0  0  0  0  0
    9.3276   -4.2205   -2.9518 H   0  0  0  0  0  0  0  0  0  0  0  0
    8.8832   -3.7717   -1.3043 H   0  0  0  0  0  0  0  0  0  0  0  0
    7.8363   -4.8843   -2.2750 H   0  0  0  0  0  0  0  0  0  0  0  0
    6.3711   -1.0119   -3.7563 H   0  0  0  0  0  0  0  0  0  0  0  0
    4.5211    0.1536   -2.6319 H   0  0  0  0  0  0  0  0  0  0  0  0
    3.9014    0.0856    0.8588 H   0  0  0  0  0  0  0  0  0  0  0  0
    3.2416    0.6030   -0.6700 H   0  0  0  0  0  0  0  0  0  0  0  0
    1.0710   -3.3469    0.6300 H   0  0  0  0  0  0  0  0  0  0  0  0
    1.6621   -3.4491    2.2697 H   0  0  0  0  0  0  0  0  0  0  0  0
   -0.3259   -1.4106    0.1569 H   0  0  0  0  0  0  0  0  0  0  0  0
   -2.6499   -0.8200   -0.0471 H   0  0  0  0  0  0  0  0  0  0  0  0
   -4.6460    0.1237   -0.9056 H   0  0  0  0  0  0  0  0  0  0  0  0
   -3.5244    1.2438   -1.6656 H   0  0  0  0  0  0  0  0  0  0  0  0
   -5.8381    2.1803   -1.6401 H   0  0  0  0  0  0  0  0  0  0  0  0
   -3.9226    3.7651   -1.4870 H   0  0  0  0  0  0  0  0  0  0  0  0
   -5.3014    4.3674   -0.5663 H   0  0  0  0  0  0  0  0  0  0  0  0
   -3.1941    4.5861    0.7588 H   0  0  0  0  0  0  0  0  0  0  0  0
   -3.9912    3.4124    2.8192 H   0  0  0  0  0  0  0  0  0  0  0  0
   -5.3357    4.1707    1.9692 H   0  0  0  0  0  0  0  0  0  0  0  0
   -5.9399    1.8510    2.6549 H   0  0  0  0  0  0  0  0  0  0  0  0
   -6.6353    0.9985    0.4125 H   0  0  0  0  0  0  0  0  0  0  0  0
   -6.9200    2.7350    0.5505 H   0  0  0  0  0  0  0  0  0  0  0  0
   -4.7155   -0.0830    1.6653 H   0  0  0  0  0  0  0  0  0  0  0  0
   -3.6571    0.8997    2.6607 H   0  0  0  0  0  0  0  0  0  0  0  0
   -1.9563    2.6666   -0.2502 H   0  0  0  0  0  0  0  0  0  0  0  0
   -1.9843    2.5721    1.5032 H   0  0  0  0  0  0  0  0  0  0  0  0
    5.0657   -2.3831    0.8190 H   0  0  0  0  0  0  0  0  0  0  0  0
    6.8707   -3.5543   -0.3183 H   0  0  0  0  0  0  0  0  0  0  0  0
  1  2  1  0
  2  3  1  0
  3  4  2  0
  4  5  1  0
  5  6  2  0
  6  7  1  0
  7  8  1  0
  8  9  2  0
  8 10  1  0
 10 11  1  0
 11 12  1  0
 12 13  2  0
 12 14  1  0
 14 15  1  0
 15 16  2  0
 15 17  1  0
 17 18  1  0
 18 19  1  0
 19 20  1  0
 20 21  1  0
 21 22  1  0
 22 23  1  0
 23 24  1  0
 24 25  1  0
 24 26  1  0
 22 27  1  0
  6 28  1  0
 28 29  2  0
 29  3  1  0
 26 18  1  0
 27 18  1  0
 25 20  1  0
  1 30  1  0
  1 31  1  0
  1 32  1  0
  4 33  1  0
  5 34  1  0
  7 35  1  0
  7 36  1  0
 11 37  1  0
 11 38  1  0
 14 39  1  0
 17 40  1  0
 19 41  1  0
 19 42  1  0
 20 43  1  0
 21 44  1  0
 21 45  1  0
 22 46  1  0
 23 47  1  0
 23 48  1  0
 24 49  1  0
 25 50  1  0
 25 51  1  0
 26 52  1  0
 26 53  1  0
 27 54  1  0
 27 55  1  0
 28 56  1  0
 29 57  1  0
M  END
$$$$
