
     RDKit          3D

 49 52  0  0  0  0  0  0  0  0999 V2000
    0.7156   -3.4529    2.0263 N   0  0  0  0  0  0  0  0  0  0  0  0
    0.4103   -2.9070    0.8347 C   0  0  0  0  0  0  0  0  0  0  0  0
    0.7369   -3.4532   -0.2970 N   0  0  0  0  0  0  0  0  0  0  0  0
    0.2355   -2.4909   -1.3199 C   0  0  0  0  0  0  0  0  0  0  0  0
   -0.5320   -1.3729   -0.5723 C   0  0  0  0  0  0  0  0  0  0  0  0
   -2.0292   -1.4137   -0.9248 C   0  0  0  0  0  0  0  0  0  0  0  0
   -2.8156   -0.2370   -0.3915 C   0  0  0  0  0  0  0  0  0  0  0  0
   -3.7298   -0.4131    0.6569 C   0  0  0  0  0  0  0  0  0  0  0  0
   -4.4374    0.6766    1.1660 C   0  0  0  0  0  0  0  0  0  0  0  0
   -4.2397    1.9407    0.6249 C   0  0  0  0  0  0  0  0  0  0  0  0
   -4.9520    2.9762    1.1542 O   0  0  0  0  0  0  0  0  0  0  0  0
   -3.3415    2.1375   -0.4188 C   0  0  0  0  0  0  0  0  0  0  0  0
   -2.6302    1.0476   -0.9259 C   0  0  0  0  0  0  0  0  0  0  0  0
   -0.2904   -1.7462    0.8212 N   0  0  0  0  0  0  0  0  0  0  0  0
   -0.2417   -0.7189    1.8552 C   0  0  0  0  0  0  0  0  0  0  0  0
    1.1476   -0.0936    2.0600 C   0  0  0  0  0  0  0  0  0  0  0  0
    1.5445    0.9152    0.9957 C   0  0  0  0  0  0  0  0  0  0  0  0
    0.9116    2.1736    1.0367 C   0  0  0  0  0  0  0  0  0  0  0  0
    1.2111    3.1576    0.1022 C   0  0  0  0  0  0  0  0  0  0  0  0
    2.1495    2.9015   -0.8919 C   0  0  0  0  0  0  0  0  0  0  0  0
    2.7961    1.6595   -0.9702 C   0  0  0  0  0  0  0  0  0  0  0  0
    3.7320    1.4261   -1.9923 C   0  0  0  0  0  0  0  0  0  0  0  0
    4.3815    0.1999   -2.1059 C   0  0  0  0  0  0  0  0  0  0  0  0
    4.1030   -0.8098   -1.1963 C   0  0  0  0  0  0  0  0  0  0  0  0
    3.1791   -0.5911   -0.1705 C   0  0  0  0  0  0  0  0  0  0  0  0
    2.5018    0.6425   -0.0238 C   0  0  0  0  0  0  0  0  0  0  0  0
   -0.0738   -3.4567    2.6588 H   0  0  0  0  0  0  0  0  0  0  0  0
    1.0733   -4.3932    1.8912 H   0  0  0  0  0  0  0  0  0  0  0  0
   -0.3912   -3.0231   -2.0434 H   0  0  0  0  0  0  0  0  0  0  0  0
    1.0913   -2.0743   -1.8617 H   0  0  0  0  0  0  0  0  0  0  0  0
   -0.1007   -0.4005   -0.8287 H   0  0  0  0  0  0  0  0  0  0  0  0
   -2.1511   -1.4177   -2.0159 H   0  0  0  0  0  0  0  0  0  0  0  0
   -2.4774   -2.3509   -0.5690 H   0  0  0  0  0  0  0  0  0  0  0  0
   -3.8878   -1.3982    1.0908 H   0  0  0  0  0  0  0  0  0  0  0  0
   -5.1410    0.5382    1.9817 H   0  0  0  0  0  0  0  0  0  0  0  0
   -4.7780    3.7737    0.6278 H   0  0  0  0  0  0  0  0  0  0  0  0
   -3.1784    3.1219   -0.8449 H   0  0  0  0  0  0  0  0  0  0  0  0
   -1.9233    1.2083   -1.7373 H   0  0  0  0  0  0  0  0  0  0  0  0
   -0.9775    0.0646    1.6506 H   0  0  0  0  0  0  0  0  0  0  0  0
   -0.5570   -1.1724    2.8029 H   0  0  0  0  0  0  0  0  0  0  0  0
    1.9113   -0.8634    2.1972 H   0  0  0  0  0  0  0  0  0  0  0  0
    1.1357    0.4444    3.0188 H   0  0  0  0  0  0  0  0  0  0  0  0
    0.1764    2.3933    1.8098 H   0  0  0  0  0  0  0  0  0  0  0  0
    0.7195    4.1256    0.1534 H   0  0  0  0  0  0  0  0  0  0  0  0
    2.3748    3.6849   -1.6121 H   0  0  0  0  0  0  0  0  0  0  0  0
    3.9614    2.2054   -2.7170 H   0  0  0  0  0  0  0  0  0  0  0  0
    5.0974    0.0329   -2.9057 H   0  0  0  0  0  0  0  0  0  0  0  0
    4.5945   -1.7757   -1.2809 H   0  0  0  0  0  0  0  0  0  0  0  0
    2.9848   -1.4216    0.5035 H   0  0  0  0  0  0  0  0  0  0  0  0
  1  2  1  0
  2  3  2  0
  3  4  1  0
  4  5  1  0
  5  6  1  0
  6  7  1  0
  7  8  2  0
  8  9  1  0
  9 10  2  0
 10 11  1  0
 10 12  1  0
 12 13  2  0
  5 14  1  0
 14 15  1  0
 15 16  1  0
 16 17  1  0
 17 18  2  0
 18 19  1  0
 19 20  2  0
 20 21  1  0
 21 22  2  0
 22 23  1  0
 23 24  2  0
 24 25  1  0
 25 26  2  0
 14  2  1  0
 26 17  1  0
 13  7  1  0
 26 21  1  0
  1 27  1  0
  1 28  1  0
  4 29  1  0
  4 30  1  0
  5 31  1  0
  6 32  1  0
  6 33  1  0
  8 34  1  0
  9 35  1  0
 11 36  1  0
 12 37  1  0
 13 38  1  0
 15 39  1  0
 15 40  1  0
 16 41  1  0
 16 42  1  0
 18 43  1  0
 19 44  1  0
 20 45  1  0
 22 46  1  0
 23 47  1  0
 24 48  1  0
 25 49  1  0
M  END
$$$$
