
     RDKit          3D

 30 30  0  0  0  0  0  0  0  0999 V2000
    2.6969    2.4502    1.3949 C   0  0  0  0  0  0  0  0  0  0  0  0
    2.5408    1.0262    1.6915 N   0  0  0  0  0  0  0  0  0  0  0  0
    3.8020    0.3392    1.9699 C   0  0  0  0  0  0  0  0  0  0  0  0
    1.2762    0.4635    1.8967 C   0  0  0  0  0  0  0  0  0  0  0  0
   -0.1479    1.3293    2.1393 S   0  0  0  0  0  0  0  0  0  0  0  0
    1.1796   -1.3021    1.8921 S   0  0  0  0  0  0  0  0  0  0  0  0
    1.5348   -1.6135    0.1379 C   0  0  0  0  0  0  0  0  0  0  0  0
    0.5411   -0.9386   -0.7959 C   0  0  0  0  0  0  0  0  0  0  0  0
    0.9401   -0.2581   -1.7372 O   0  0  0  0  0  0  0  0  0  0  0  0
   -0.7772   -1.2309   -0.5030 N   0  0  0  0  0  0  0  0  0  0  0  0
   -1.9427   -0.7879   -1.1693 C   0  0  0  0  0  0  0  0  0  0  0  0
   -1.9125   -0.0218   -2.3373 C   0  0  0  0  0  0  0  0  0  0  0  0
   -3.1030    0.3867   -2.9495 C   0  0  0  0  0  0  0  0  0  0  0  0
   -4.3308    0.0303   -2.3983 C   0  0  0  0  0  0  0  0  0  0  0  0
   -5.7875    0.5356   -3.1592 Cl  0  0  0  0  0  0  0  0  0  0  0  0
   -4.3859   -0.7313   -1.2366 C   0  0  0  0  0  0  0  0  0  0  0  0
   -3.1964   -1.1369   -0.6282 C   0  0  0  0  0  0  0  0  0  0  0  0
   -3.3050   -2.0859    0.8175 Cl  0  0  0  0  0  0  0  0  0  0  0  0
    2.8105    2.9938    2.3375 H   0  0  0  0  0  0  0  0  0  0  0  0
    3.5903    2.5960    0.7790 H   0  0  0  0  0  0  0  0  0  0  0  0
    1.8407    2.8447    0.8430 H   0  0  0  0  0  0  0  0  0  0  0  0
    4.3593    0.9229    2.7125 H   0  0  0  0  0  0  0  0  0  0  0  0
    3.6768   -0.6690    2.3659 H   0  0  0  0  0  0  0  0  0  0  0  0
    4.3821    0.2942    1.0431 H   0  0  0  0  0  0  0  0  0  0  0  0
    1.5009   -2.6926   -0.0453 H   0  0  0  0  0  0  0  0  0  0  0  0
    2.5439   -1.2661   -0.1057 H   0  0  0  0  0  0  0  0  0  0  0  0
   -0.9461   -1.7408    0.3618 H   0  0  0  0  0  0  0  0  0  0  0  0
   -0.9785    0.2810   -2.7992 H   0  0  0  0  0  0  0  0  0  0  0  0
   -3.0578    0.9860   -3.8556 H   0  0  0  0  0  0  0  0  0  0  0  0
   -5.3448   -1.0042   -0.8054 H   0  0  0  0  0  0  0  0  0  0  0  0
  1  2  1  0
  2  3  1  0
  2  4  1  0
  4  5  2  0
  4  6  1  0
  6  7  1  0
  7  8  1  0
  8  9  2  0
  8 10  1  0
 10 11  1  0
 11 12  2  0
 12 13  1  0
 13 14  2  0
 14 15  1  0
 14 16  1  0
 16 17  2  0
 17 18  1  0
 17 11  1  0
  1 19  1  0
  1 20  1  0
  1 21  1  0
  3 22  1  0
  3 23  1  0
  3 24  1  0
  7 25  1  0
  7 26  1  0
 10 27  1  0
 12 28  1  0
 13 29  1  0
 16 30  1  0
M  END
$$$$
