
     RDKit          3D

 48 50  0  0  0  0  0  0  0  0999 V2000
    7.4329    1.0208    0.9086 C   0  0  0  0  0  0  0  0  0  0  0  0
    6.1697    1.2390    0.0906 C   0  0  0  0  0  0  0  0  0  0  0  0
    5.5534   -0.0592   -0.4399 C   0  0  0  0  0  0  0  0  0  0  0  0
    5.0866   -1.0309    0.6461 C   0  0  0  0  0  0  0  0  0  0  0  0
    4.2200   -0.4019    1.5886 O   0  0  0  0  0  0  0  0  0  0  0  0
    2.8807   -0.3562    1.3287 C   0  0  0  0  0  0  0  0  0  0  0  0
    2.2410   -0.8025    0.1769 C   0  0  0  0  0  0  0  0  0  0  0  0
    0.8485   -0.6854    0.0485 C   0  0  0  0  0  0  0  0  0  0  0  0
    0.0638   -0.1373    1.0679 C   0  0  0  0  0  0  0  0  0  0  0  0
   -1.3302    0.0411    0.9669 N   0  0  0  0  0  0  0  0  0  0  0  0
   -2.2083   -0.6234    0.1519 C   0  0  0  0  0  0  0  0  0  0  0  0
   -1.9443   -1.6226   -0.6181 N   0  0  0  0  0  0  0  0  0  0  0  0
   -2.9662   -2.1978   -1.3006 C   0  0  0  0  0  0  0  0  0  0  0  0
   -2.6950   -3.3893   -1.8882 N   0  0  0  0  0  0  0  0  0  0  0  0
   -4.1566   -1.7210   -1.4040 N   0  0  0  0  0  0  0  0  0  0  0  0
   -4.3776   -0.4310   -0.7872 C   0  0  0  0  0  0  0  0  0  0  0  0
   -4.3973    0.6574   -1.8700 C   0  0  0  0  0  0  0  0  0  0  0  0
   -5.3118    1.7570   -1.3311 C   0  0  0  0  0  0  0  0  0  0  0  0
   -6.1712    1.1103   -0.2469 C   0  0  0  0  0  0  0  0  0  0  0  0
   -5.8130   -0.3728   -0.2551 C   0  0  0  0  0  0  0  0  0  0  0  0
   -3.4545   -0.0928    0.2682 N   0  0  0  0  0  0  0  0  0  0  0  0
    0.7254    0.3343    2.2105 C   0  0  0  0  0  0  0  0  0  0  0  0
    2.1138    0.2187    2.3415 C   0  0  0  0  0  0  0  0  0  0  0  0
    7.2199    0.4890    1.8406 H   0  0  0  0  0  0  0  0  0  0  0  0
    8.1736    0.4471    0.3428 H   0  0  0  0  0  0  0  0  0  0  0  0
    7.8803    1.9844    1.1726 H   0  0  0  0  0  0  0  0  0  0  0  0
    6.4153    1.8792   -0.7653 H   0  0  0  0  0  0  0  0  0  0  0  0
    5.4367    1.7891    0.6916 H   0  0  0  0  0  0  0  0  0  0  0  0
    4.7006    0.2175   -1.0701 H   0  0  0  0  0  0  0  0  0  0  0  0
    6.2732   -0.5701   -1.0903 H   0  0  0  0  0  0  0  0  0  0  0  0
    5.9566   -1.3830    1.2119 H   0  0  0  0  0  0  0  0  0  0  0  0
    4.6427   -1.9365    0.2166 H   0  0  0  0  0  0  0  0  0  0  0  0
    2.7845   -1.2376   -0.6540 H   0  0  0  0  0  0  0  0  0  0  0  0
    0.3929   -1.0236   -0.8787 H   0  0  0  0  0  0  0  0  0  0  0  0
   -1.7509    0.3679    1.8253 H   0  0  0  0  0  0  0  0  0  0  0  0
   -1.9448   -3.8733   -1.4140 H   0  0  0  0  0  0  0  0  0  0  0  0
   -3.5323   -3.9404   -2.0158 H   0  0  0  0  0  0  0  0  0  0  0  0
   -3.4008    1.0449   -2.1094 H   0  0  0  0  0  0  0  0  0  0  0  0
   -4.8236    0.2662   -2.8032 H   0  0  0  0  0  0  0  0  0  0  0  0
   -5.9259    2.1822   -2.1318 H   0  0  0  0  0  0  0  0  0  0  0  0
   -4.7220    2.5757   -0.9035 H   0  0  0  0  0  0  0  0  0  0  0  0
   -5.9345    1.5532    0.7277 H   0  0  0  0  0  0  0  0  0  0  0  0
   -7.2399    1.2664   -0.4250 H   0  0  0  0  0  0  0  0  0  0  0  0
   -6.4987   -0.9041   -0.9285 H   0  0  0  0  0  0  0  0  0  0  0  0
   -5.9213   -0.8204    0.7390 H   0  0  0  0  0  0  0  0  0  0  0  0
   -3.4607    0.8908    0.5036 H   0  0  0  0  0  0  0  0  0  0  0  0
    0.1682    0.7952    3.0218 H   0  0  0  0  0  0  0  0  0  0  0  0
    2.6008    0.5837    3.2424 H   0  0  0  0  0  0  0  0  0  0  0  0
  1  2  1  0
  2  3  1  0
  3  4  1  0
  4  5  1  0
  5  6  1  0
  6  7  2  0
  7  8  1  0
  8  9  2  0
  9 10  1  0
 10 11  1  0
 11 12  2  0
 12 13  1  0
 13 14  1  0
 13 15  2  0
 15 16  1  0
 16 17  1  0
 17 18  1  0
 18 19  1  0
 19 20  1  0
 16 21  1  0
  9 22  1  0
 22 23  2  0
 23  6  1  0
 21 11  1  0
 20 16  1  0
  1 24  1  0
  1 25  1  0
  1 26  1  0
  2 27  1  0
  2 28  1  0
  3 29  1  0
  3 30  1  0
  4 31  1  0
  4 32  1  0
  7 33  1  0
  8 34  1  0
 10 35  1  0
 14 36  1  0
 14 37  1  0
 17 38  1  0
 17 39  1  0
 18 40  1  0
 18 41  1  0
 19 42  1  0
 19 43  1  0
 20 44  1  0
 20 45  1  0
 21 46  1  0
 22 47  1  0
 23 48  1  0
M  END
$$$$
