
     RDKit          3D

 53 56  0  0  0  0  0  0  0  0999 V2000
    0.4346   -1.8216   -1.3332 C   0  0  0  0  0  0  0  0  0  0  0  0
   -0.4237   -1.1157   -0.3147 C   0  0  0  0  0  0  0  0  0  0  0  0
    0.1061   -0.7243    0.9266 C   0  0  0  0  0  0  0  0  0  0  0  0
    1.4224   -1.0330    1.1299 O   0  0  0  0  0  0  0  0  0  0  0  0
    2.0287   -0.8114    2.4063 C   0  0  0  0  0  0  0  0  0  0  0  0
    1.6972   -1.9540    3.3600 C   0  0  0  0  0  0  0  0  0  0  0  0
    3.5485   -0.7322    2.1723 C   0  0  0  0  0  0  0  0  0  0  0  0
    4.3777   -1.3167    2.8647 O   0  0  0  0  0  0  0  0  0  0  0  0
    3.9068    0.1145    1.1468 N   0  0  0  0  0  0  0  0  0  0  0  0
    5.2924    0.3898    0.8373 C   0  0  0  0  0  0  0  0  0  0  0  0
    5.4330    1.1267   -0.4729 C   0  0  0  0  0  0  0  0  0  0  0  0
    5.4861    0.4161   -1.6730 C   0  0  0  0  0  0  0  0  0  0  0  0
    5.5880    1.1222   -2.8685 C   0  0  0  0  0  0  0  0  0  0  0  0
    5.6278    2.5120   -2.8355 C   0  0  0  0  0  0  0  0  0  0  0  0
    5.5512    3.1429   -1.6040 C   0  0  0  0  0  0  0  0  0  0  0  0
    5.4456    2.4850   -0.4286 N   0  0  0  0  0  0  0  0  0  0  0  0
   -0.7131   -0.0559    1.8388 C   0  0  0  0  0  0  0  0  0  0  0  0
   -2.0502    0.2290    1.5264 C   0  0  0  0  0  0  0  0  0  0  0  0
   -2.6007   -0.1399    0.2951 C   0  0  0  0  0  0  0  0  0  0  0  0
   -3.9953    0.1390   -0.0878 C   0  0  0  0  0  0  0  0  0  0  0  0
   -4.4191   -0.1995   -1.3214 C   0  0  0  0  0  0  0  0  0  0  0  0
   -3.5414   -0.9001   -2.2912 C   0  0  0  0  0  0  0  0  0  0  0  0
   -3.9456   -1.2512   -3.3967 O   0  0  0  0  0  0  0  0  0  0  0  0
   -2.2456   -1.1600   -1.8835 O   0  0  0  0  0  0  0  0  0  0  0  0
   -1.7633   -0.7941   -0.6090 C   0  0  0  0  0  0  0  0  0  0  0  0
   -5.8090    0.0971   -1.8286 C   0  0  0  0  0  0  0  0  0  0  0  0
   -6.5808    1.0826   -0.9498 C   0  0  0  0  0  0  0  0  0  0  0  0
   -6.3989    0.7424    0.5210 C   0  0  0  0  0  0  0  0  0  0  0  0
   -4.9203    0.7954    0.9130 C   0  0  0  0  0  0  0  0  0  0  0  0
    0.9540   -1.0880   -1.9592 H   0  0  0  0  0  0  0  0  0  0  0  0
    1.1761   -2.4671   -0.8517 H   0  0  0  0  0  0  0  0  0  0  0  0
   -0.1609   -2.4786   -1.9775 H   0  0  0  0  0  0  0  0  0  0  0  0
    1.7475    0.1585    2.8316 H   0  0  0  0  0  0  0  0  0  0  0  0
    2.2052   -1.8304    4.3218 H   0  0  0  0  0  0  0  0  0  0  0  0
    0.6208   -2.0190    3.5476 H   0  0  0  0  0  0  0  0  0  0  0  0
    2.0026   -2.9153    2.9323 H   0  0  0  0  0  0  0  0  0  0  0  0
    3.1819    0.6045    0.6329 H   0  0  0  0  0  0  0  0  0  0  0  0
    5.8548   -0.5520    0.8128 H   0  0  0  0  0  0  0  0  0  0  0  0
    5.7067    0.9927    1.6561 H   0  0  0  0  0  0  0  0  0  0  0  0
    5.4488   -0.6707   -1.6787 H   0  0  0  0  0  0  0  0  0  0  0  0
    5.6400    0.5895   -3.8153 H   0  0  0  0  0  0  0  0  0  0  0  0
    5.7136    3.0915   -3.7486 H   0  0  0  0  0  0  0  0  0  0  0  0
    5.5776    4.2276   -1.5251 H   0  0  0  0  0  0  0  0  0  0  0  0
   -0.3539    0.2628    2.8117 H   0  0  0  0  0  0  0  0  0  0  0  0
   -2.6391    0.7583    2.2720 H   0  0  0  0  0  0  0  0  0  0  0  0
   -6.3672   -0.8463   -1.8917 H   0  0  0  0  0  0  0  0  0  0  0  0
   -5.7626    0.5156   -2.8435 H   0  0  0  0  0  0  0  0  0  0  0  0
   -7.6425    1.0626   -1.2178 H   0  0  0  0  0  0  0  0  0  0  0  0
   -6.2253    2.1049   -1.1366 H   0  0  0  0  0  0  0  0  0  0  0  0
   -6.9705    1.4402    1.1438 H   0  0  0  0  0  0  0  0  0  0  0  0
   -6.7978   -0.2617    0.7176 H   0  0  0  0  0  0  0  0  0  0  0  0
   -4.8278    0.3213    1.8992 H   0  0  0  0  0  0  0  0  0  0  0  0
   -4.6212    1.8469    1.0267 H   0  0  0  0  0  0  0  0  0  0  0  0
  1  2  1  0
  2  3  2  0
  3  4  1  0
  4  5  1  0
  5  6  1  0
  5  7  1  0
  7  8  2  0
  7  9  1  0
  9 10  1  0
 10 11  1  0
 11 12  2  0
 12 13  1  0
 13 14  2  0
 14 15  1  0
 15 16  2  0
  3 17  1  0
 17 18  2  0
 18 19  1  0
 19 20  1  0
 20 21  2  0
 21 22  1  0
 22 23  2  0
 22 24  1  0
 24 25  1  0
 21 26  1  0
 26 27  1  0
 27 28  1  0
 28 29  1  0
 25  2  1  0
 16 11  1  0
 25 19  2  0
 29 20  1  0
  1 30  1  0
  1 31  1  0
  1 32  1  0
  5 33  1  0
  6 34  1  0
  6 35  1  0
  6 36  1  0
  9 37  1  0
 10 38  1  0
 10 39  1  0
 12 40  1  0
 13 41  1  0
 14 42  1  0
 15 43  1  0
 17 44  1  0
 18 45  1  0
 26 46  1  0
 26 47  1  0
 27 48  1  0
 27 49  1  0
 28 50  1  0
 28 51  1  0
 29 52  1  0
 29 53  1  0
M  END
$$$$
