
     RDKit          3D

 62 63  0  0  0  0  0  0  0  0999 V2000
   -5.1353    0.9072    2.7138 C   0  0  0  0  0  0  0  0  0  0  0  0
   -4.9529    1.2466    1.2183 C   0  0  0  0  0  0  0  0  0  0  0  0
   -6.3667    1.3733    0.6059 C   0  0  0  0  0  0  0  0  0  0  0  0
   -4.2746    2.6279    1.0898 C   0  0  0  0  0  0  0  0  0  0  0  0
   -4.0695    0.1802    0.5432 C   0  0  0  0  0  0  0  0  0  0  0  0
   -2.7725   -0.0696    1.0267 C   0  0  0  0  0  0  0  0  0  0  0  0
   -1.9385   -1.0216    0.4329 C   0  0  0  0  0  0  0  0  0  0  0  0
   -2.3777   -1.7370   -0.6777 C   0  0  0  0  0  0  0  0  0  0  0  0
   -1.6261   -2.6790   -1.3398 O   0  0  0  0  0  0  0  0  0  0  0  0
   -0.2105   -2.4761   -1.3767 C   0  0  0  0  0  0  0  0  0  0  0  0
    0.1810   -1.3379   -2.3235 C   0  0  0  0  0  0  0  0  0  0  0  0
    1.5991   -1.2317   -2.4588 O   0  0  0  0  0  0  0  0  0  0  0  0
    2.3116   -0.6045   -1.4640 C   0  0  0  0  0  0  0  0  0  0  0  0
    1.7631    0.1816   -0.4529 C   0  0  0  0  0  0  0  0  0  0  0  0
    2.5861    0.7654    0.5190 C   0  0  0  0  0  0  0  0  0  0  0  0
    3.9766    0.5861    0.5045 C   0  0  0  0  0  0  0  0  0  0  0  0
    4.9089    1.2116    1.5583 C   0  0  0  0  0  0  0  0  0  0  0  0
    4.1675    2.0243    2.6439 C   0  0  0  0  0  0  0  0  0  0  0  0
    5.6958    0.0989    2.2848 C   0  0  0  0  0  0  0  0  0  0  0  0
    5.9030    2.1705    0.8681 C   0  0  0  0  0  0  0  0  0  0  0  0
    4.5167   -0.1972   -0.5370 C   0  0  0  0  0  0  0  0  0  0  0  0
    3.7064   -0.7846   -1.5150 C   0  0  0  0  0  0  0  0  0  0  0  0
    4.2142   -1.5658   -2.5763 N   0  0  0  0  0  0  0  0  0  0  0  0
    5.5200   -1.8880   -2.8475 C   0  0  0  0  0  0  0  0  0  0  0  0
    6.5332   -1.5943   -2.2311 O   0  0  0  0  0  0  0  0  0  0  0  0
   -3.6810   -1.5337   -1.1652 C   0  0  0  0  0  0  0  0  0  0  0  0
   -4.0820   -2.3227   -2.2658 N   0  0  0  0  0  0  0  0  0  0  0  0
   -5.2851   -2.3150   -2.9249 C   0  0  0  0  0  0  0  0  0  0  0  0
   -6.2696   -1.6189   -2.7287 O   0  0  0  0  0  0  0  0  0  0  0  0
   -4.5059   -0.5774   -0.5599 C   0  0  0  0  0  0  0  0  0  0  0  0
   -4.1874    0.9214    3.2628 H   0  0  0  0  0  0  0  0  0  0  0  0
   -5.5742   -0.0898    2.8409 H   0  0  0  0  0  0  0  0  0  0  0  0
   -5.7983    1.6292    3.2056 H   0  0  0  0  0  0  0  0  0  0  0  0
   -6.9544    2.1408    1.1239 H   0  0  0  0  0  0  0  0  0  0  0  0
   -6.9252    0.4325    0.6826 H   0  0  0  0  0  0  0  0  0  0  0  0
   -6.3259    1.6614   -0.4511 H   0  0  0  0  0  0  0  0  0  0  0  0
   -3.3012    2.6603    1.5921 H   0  0  0  0  0  0  0  0  0  0  0  0
   -4.1101    2.8889    0.0374 H   0  0  0  0  0  0  0  0  0  0  0  0
   -4.8931    3.4161    1.5363 H   0  0  0  0  0  0  0  0  0  0  0  0
   -2.3916    0.4786    1.8866 H   0  0  0  0  0  0  0  0  0  0  0  0
   -0.9637   -1.1876    0.8774 H   0  0  0  0  0  0  0  0  0  0  0  0
    0.2216   -2.3730   -0.3770 H   0  0  0  0  0  0  0  0  0  0  0  0
    0.2260   -3.4050   -1.7643 H   0  0  0  0  0  0  0  0  0  0  0  0
   -0.2868   -0.3798   -2.0735 H   0  0  0  0  0  0  0  0  0  0  0  0
   -0.2098   -1.5765   -3.3204 H   0  0  0  0  0  0  0  0  0  0  0  0
    0.7001    0.3813   -0.3864 H   0  0  0  0  0  0  0  0  0  0  0  0
    2.1037    1.3687    1.2839 H   0  0  0  0  0  0  0  0  0  0  0  0
    4.8710    2.4418    3.3740 H   0  0  0  0  0  0  0  0  0  0  0  0
    3.4585    1.4000    3.2003 H   0  0  0  0  0  0  0  0  0  0  0  0
    3.6153    2.8669    2.2124 H   0  0  0  0  0  0  0  0  0  0  0  0
    6.3464    0.5175    3.0617 H   0  0  0  0  0  0  0  0  0  0  0  0
    6.3378   -0.4704    1.6043 H   0  0  0  0  0  0  0  0  0  0  0  0
    5.0154   -0.6116    2.7677 H   0  0  0  0  0  0  0  0  0  0  0  0
    6.5554    2.6577    1.6011 H   0  0  0  0  0  0  0  0  0  0  0  0
    6.5533    1.6515    0.1572 H   0  0  0  0  0  0  0  0  0  0  0  0
    5.3756    2.9571    0.3168 H   0  0  0  0  0  0  0  0  0  0  0  0
    5.5926   -0.3403   -0.5758 H   0  0  0  0  0  0  0  0  0  0  0  0
    3.5056   -1.9090   -3.2155 H   0  0  0  0  0  0  0  0  0  0  0  0
    5.5790   -2.4987   -3.7662 H   0  0  0  0  0  0  0  0  0  0  0  0
   -3.3838   -2.9903   -2.5756 H   0  0  0  0  0  0  0  0  0  0  0  0
   -5.2840   -3.0701   -3.7300 H   0  0  0  0  0  0  0  0  0  0  0  0
   -5.5033   -0.4203   -0.9538 H   0  0  0  0  0  0  0  0  0  0  0  0
  1  2  1  0
  2  3  1  0
  2  4  1  0
  2  5  1  0
  5  6  2  0
  6  7  1  0
  7  8  2  0
  8  9  1  0
  9 10  1  0
 10 11  1  0
 11 12  1  0
 12 13  1  0
 13 14  2  0
 14 15  1  0
 15 16  2  0
 16 17  1  0
 17 18  1  0
 17 19  1  0
 17 20  1  0
 16 21  1  0
 21 22  2  0
 22 23  1  0
 23 24  1  0
 24 25  2  0
  8 26  1  0
 26 27  1  0
 27 28  1  0
 28 29  2  0
 26 30  2  0
 30  5  1  0
 22 13  1  0
  1 31  1  0
  1 32  1  0
  1 33  1  0
  3 34  1  0
  3 35  1  0
  3 36  1  0
  4 37  1  0
  4 38  1  0
  4 39  1  0
  6 40  1  0
  7 41  1  0
 10 42  1  0
 10 43  1  0
 11 44  1  0
 11 45  1  0
 14 46  1  0
 15 47  1  0
 18 48  1  0
 18 49  1  0
 18 50  1  0
 19 51  1  0
 19 52  1  0
 19 53  1  0
 20 54  1  0
 20 55  1  0
 20 56  1  0
 21 57  1  0
 23 58  1  0
 24 59  1  0
 27 60  1  0
 28 61  1  0
 30 62  1  0
M  END
$$$$
