
     RDKit          3D

 65 69  0  0  0  0  0  0  0  0999 V2000
   -6.7897    5.2958    2.3780 C   0  0  0  0  0  0  0  0  0  0  0  0
   -7.0370    3.9036    2.2244 O   0  0  0  0  0  0  0  0  0  0  0  0
   -6.0190    3.1451    1.7115 C   0  0  0  0  0  0  0  0  0  0  0  0
   -4.7846    3.6189    1.2887 C   0  0  0  0  0  0  0  0  0  0  0  0
   -3.8220    2.7351    0.7817 C   0  0  0  0  0  0  0  0  0  0  0  0
   -4.0855    1.3449    0.6870 C   0  0  0  0  0  0  0  0  0  0  0  0
   -3.2640    0.2549    0.2118 C   0  0  0  0  0  0  0  0  0  0  0  0
   -1.9091    0.3699   -0.3125 C   0  0  0  0  0  0  0  0  0  0  0  0
   -1.6938    0.8904   -1.5907 C   0  0  0  0  0  0  0  0  0  0  0  0
   -0.3925    1.0059   -2.0850 C   0  0  0  0  0  0  0  0  0  0  0  0
    0.7024    0.6107   -1.3115 C   0  0  0  0  0  0  0  0  0  0  0  0
    1.9179    0.7786   -1.9163 O   0  0  0  0  0  0  0  0  0  0  0  0
    3.0771    0.4598   -1.1389 C   0  0  0  0  0  0  0  0  0  0  0  0
    4.3209    0.7694   -1.9880 C   0  0  0  0  0  0  0  0  0  0  0  0
    5.5976    0.5568   -1.2833 N   0  0  0  0  0  0  0  0  0  0  0  0
    5.7956   -0.8527   -0.8998 C   0  0  0  0  0  0  0  0  0  0  0  0
    7.2679   -1.2627   -0.7478 C   0  0  0  0  0  0  0  0  0  0  0  0
    8.1208   -0.0999   -0.2643 C   0  0  0  0  0  0  0  0  0  0  0  0
    7.9984    1.0976   -1.2091 C   0  0  0  0  0  0  0  0  0  0  0  0
    6.7260    1.0671   -2.0650 C   0  0  0  0  0  0  0  0  0  0  0  0
    0.4860    0.0934   -0.0335 C   0  0  0  0  0  0  0  0  0  0  0  0
   -0.8159   -0.0250    0.4649 C   0  0  0  0  0  0  0  0  0  0  0  0
   -3.9053   -0.9689    0.3024 C   0  0  0  0  0  0  0  0  0  0  0  0
   -3.4390   -2.3079   -0.0800 C   0  0  0  0  0  0  0  0  0  0  0  0
   -3.5950   -2.7180   -1.4141 C   0  0  0  0  0  0  0  0  0  0  0  0
   -3.1606   -3.9769   -1.8234 C   0  0  0  0  0  0  0  0  0  0  0  0
   -2.5632   -4.8343   -0.9044 C   0  0  0  0  0  0  0  0  0  0  0  0
   -2.3969   -4.4374    0.4257 C   0  0  0  0  0  0  0  0  0  0  0  0
   -2.8319   -3.1764    0.8507 C   0  0  0  0  0  0  0  0  0  0  0  0
   -2.6947   -2.7017    2.1308 O   0  0  0  0  0  0  0  0  0  0  0  0
   -2.2074   -3.6011    3.1170 C   0  0  0  0  0  0  0  0  0  0  0  0
   -5.4837   -0.8098    0.9385 S   0  0  0  0  0  0  0  0  0  0  0  0
   -5.3330    0.8927    1.1183 C   0  0  0  0  0  0  0  0  0  0  0  0
   -6.3033    1.7787    1.6278 C   0  0  0  0  0  0  0  0  0  0  0  0
   -6.6067    5.7728    1.4091 H   0  0  0  0  0  0  0  0  0  0  0  0
   -7.6883    5.7495    2.8079 H   0  0  0  0  0  0  0  0  0  0  0  0
   -5.9610    5.4758    3.0717 H   0  0  0  0  0  0  0  0  0  0  0  0
   -4.5269    4.6716    1.3366 H   0  0  0  0  0  0  0  0  0  0  0  0
   -2.8578    3.1235    0.4606 H   0  0  0  0  0  0  0  0  0  0  0  0
   -2.5315    1.2042   -2.2079 H   0  0  0  0  0  0  0  0  0  0  0  0
   -0.2297    1.4085   -3.0814 H   0  0  0  0  0  0  0  0  0  0  0  0
    3.0977    1.0732   -0.2289 H   0  0  0  0  0  0  0  0  0  0  0  0
    3.0587   -0.6047   -0.8767 H   0  0  0  0  0  0  0  0  0  0  0  0
    4.2840    0.1866   -2.9179 H   0  0  0  0  0  0  0  0  0  0  0  0
    4.2459    1.8209   -2.2961 H   0  0  0  0  0  0  0  0  0  0  0  0
    5.2873   -1.0168    0.0583 H   0  0  0  0  0  0  0  0  0  0  0  0
    5.3371   -1.5348   -1.6279 H   0  0  0  0  0  0  0  0  0  0  0  0
    7.3477   -2.1050   -0.0514 H   0  0  0  0  0  0  0  0  0  0  0  0
    7.6532   -1.6121   -1.7148 H   0  0  0  0  0  0  0  0  0  0  0  0
    9.1700   -0.4025   -0.1725 H   0  0  0  0  0  0  0  0  0  0  0  0
    7.7900    0.1946    0.7399 H   0  0  0  0  0  0  0  0  0  0  0  0
    8.0296    2.0191   -0.6146 H   0  0  0  0  0  0  0  0  0  0  0  0
    8.8670    1.1303   -1.8768 H   0  0  0  0  0  0  0  0  0  0  0  0
    6.8846    0.4556   -2.9634 H   0  0  0  0  0  0  0  0  0  0  0  0
    6.5320    2.0904   -2.4100 H   0  0  0  0  0  0  0  0  0  0  0  0
    1.3034   -0.2305    0.6013 H   0  0  0  0  0  0  0  0  0  0  0  0
   -0.9732   -0.4302    1.4625 H   0  0  0  0  0  0  0  0  0  0  0  0
   -4.0581   -2.0522   -2.1391 H   0  0  0  0  0  0  0  0  0  0  0  0
   -3.2876   -4.2856   -2.8578 H   0  0  0  0  0  0  0  0  0  0  0  0
   -2.2208   -5.8157   -1.2230 H   0  0  0  0  0  0  0  0  0  0  0  0
   -1.9184   -5.1358    1.1037 H   0  0  0  0  0  0  0  0  0  0  0  0
   -2.8493   -4.4844    3.2025 H   0  0  0  0  0  0  0  0  0  0  0  0
   -1.1695   -3.8831    2.9129 H   0  0  0  0  0  0  0  0  0  0  0  0
   -2.2256   -3.0824    4.0806 H   0  0  0  0  0  0  0  0  0  0  0  0
   -7.2674    1.4029    1.9596 H   0  0  0  0  0  0  0  0  0  0  0  0
  1  2  1  0
  2  3  1  0
  3  4  2  0
  4  5  1  0
  5  6  2  0
  6  7  1  0
  7  8  1  0
  8  9  2  0
  9 10  1  0
 10 11  2  0
 11 12  1  0
 12 13  1  0
 13 14  1  0
 14 15  1  0
 15 16  1  0
 16 17  1  0
 17 18  1  0
 18 19  1  0
 19 20  1  0
 11 21  1  0
 21 22  2  0
  7 23  2  0
 23 24  1  0
 24 25  2  0
 25 26  1  0
 26 27  2  0
 27 28  1  0
 28 29  2  0
 29 30  1  0
 30 31  1  0
 23 32  1  0
 32 33  1  0
 33 34  2  0
 34  3  1  0
 33  6  1  0
 22  8  1  0
 29 24  1  0
 20 15  1  0
  1 35  1  0
  1 36  1  0
  1 37  1  0
  4 38  1  0
  5 39  1  0
  9 40  1  0
 10 41  1  0
 13 42  1  0
 13 43  1  0
 14 44  1  0
 14 45  1  0
 16 46  1  0
 16 47  1  0
 17 48  1  0
 17 49  1  0
 18 50  1  0
 18 51  1  0
 19 52  1  0
 19 53  1  0
 20 54  1  0
 20 55  1  0
 21 56  1  0
 22 57  1  0
 25 58  1  0
 26 59  1  0
 27 60  1  0
 28 61  1  0
 31 62  1  0
 31 63  1  0
 31 64  1  0
 34 65  1  0
M  END
$$$$
