
     RDKit          3D

 66 68  0  0  0  0  0  0  0  0999 V2000
   -2.3642   -3.6701    2.7206 C   0  0  0  0  0  0  0  0  0  0  0  0
   -2.1887   -3.3620    1.2361 C   0  0  0  0  0  0  0  0  0  0  0  0
   -2.5233   -1.9760    0.8736 N   0  0  0  0  0  0  0  0  0  0  0  0
   -3.8965   -1.5739    1.2174 C   0  0  0  0  0  0  0  0  0  0  0  0
   -5.0201   -2.3677    0.5561 C   0  0  0  0  0  0  0  0  0  0  0  0
   -2.2186   -1.6870   -0.5396 C   0  0  0  0  0  0  0  0  0  0  0  0
   -0.7175   -1.6128   -0.8775 C   0  0  0  0  0  0  0  0  0  0  0  0
    0.0825   -0.5782   -0.0402 C   0  0  0  0  0  0  0  0  0  0  0  0
    1.5984   -0.6240   -0.2644 C   0  0  0  0  0  0  0  0  0  0  0  0
    2.1892   -0.9982   -1.4734 C   0  0  0  0  0  0  0  0  0  0  0  0
    3.5852   -0.9863   -1.6306 C   0  0  0  0  0  0  0  0  0  0  0  0
    4.4585   -0.6166   -0.5942 C   0  0  0  0  0  0  0  0  0  0  0  0
    5.8504   -0.5850   -0.7542 N   0  0  0  0  0  0  0  0  0  0  0  0
    6.6776   -0.7564    0.4406 C   0  0  0  0  0  0  0  0  0  0  0  0
    6.4359   -1.0700   -2.0014 C   0  0  0  0  0  0  0  0  0  0  0  0
    3.8448   -0.2265    0.6072 C   0  0  0  0  0  0  0  0  0  0  0  0
    2.4517   -0.2306    0.7734 C   0  0  0  0  0  0  0  0  0  0  0  0
   -0.4469    0.8596   -0.1379 C   0  0  0  0  0  0  0  0  0  0  0  0
   -0.8496    1.5546    1.0217 C   0  0  0  0  0  0  0  0  0  0  0  0
   -0.7358    0.8800    2.2109 O   0  0  0  0  0  0  0  0  0  0  0  0
   -1.5294    1.3359    3.3029 C   0  0  0  0  0  0  0  0  0  0  0  0
   -1.2913    2.8853    0.9378 C   0  0  0  0  0  0  0  0  0  0  0  0
   -1.3574    3.5503   -0.2925 C   0  0  0  0  0  0  0  0  0  0  0  0
   -1.7714    4.8501   -0.4476 O   0  0  0  0  0  0  0  0  0  0  0  0
   -2.3030    5.5176    0.6892 C   0  0  0  0  0  0  0  0  0  0  0  0
   -0.9627    2.8769   -1.4588 C   0  0  0  0  0  0  0  0  0  0  0  0
   -0.9824    3.5126   -2.7764 C   0  0  0  0  0  0  0  0  0  0  0  0
   -0.5924    2.8428   -3.8644 C   0  0  0  0  0  0  0  0  0  0  0  0
   -0.1364    1.4490   -3.7966 C   0  0  0  0  0  0  0  0  0  0  0  0
    0.1945    0.8394   -4.8069 O   0  0  0  0  0  0  0  0  0  0  0  0
   -0.1216    0.8690   -2.5396 O   0  0  0  0  0  0  0  0  0  0  0  0
   -0.5198    1.5517   -1.3627 C   0  0  0  0  0  0  0  0  0  0  0  0
   -1.9662   -4.6659    2.9437 H   0  0  0  0  0  0  0  0  0  0  0  0
   -3.4174   -3.6685    3.0172 H   0  0  0  0  0  0  0  0  0  0  0  0
   -1.8239   -2.9479    3.3404 H   0  0  0  0  0  0  0  0  0  0  0  0
   -2.7679   -4.0802    0.6437 H   0  0  0  0  0  0  0  0  0  0  0  0
   -1.1333   -3.5503    1.0100 H   0  0  0  0  0  0  0  0  0  0  0  0
   -4.0252   -0.5118    0.9684 H   0  0  0  0  0  0  0  0  0  0  0  0
   -4.0273   -1.6093    2.3058 H   0  0  0  0  0  0  0  0  0  0  0  0
   -5.9884   -1.9645    0.8694 H   0  0  0  0  0  0  0  0  0  0  0  0
   -4.9974   -3.4230    0.8441 H   0  0  0  0  0  0  0  0  0  0  0  0
   -4.9749   -2.3041   -0.5351 H   0  0  0  0  0  0  0  0  0  0  0  0
   -2.6651   -0.7254   -0.8248 H   0  0  0  0  0  0  0  0  0  0  0  0
   -2.6850   -2.4390   -1.1901 H   0  0  0  0  0  0  0  0  0  0  0  0
   -0.2626   -2.6036   -0.7498 H   0  0  0  0  0  0  0  0  0  0  0  0
   -0.6402   -1.4064   -1.9506 H   0  0  0  0  0  0  0  0  0  0  0  0
   -0.0412   -0.9326    0.9914 H   0  0  0  0  0  0  0  0  0  0  0  0
    1.5846   -1.2887   -2.3288 H   0  0  0  0  0  0  0  0  0  0  0  0
    3.9640   -1.2789   -2.6053 H   0  0  0  0  0  0  0  0  0  0  0  0
    7.7399   -0.8318    0.1826 H   0  0  0  0  0  0  0  0  0  0  0  0
    6.4068   -1.6712    0.9809 H   0  0  0  0  0  0  0  0  0  0  0  0
    6.5911    0.1070    1.1090 H   0  0  0  0  0  0  0  0  0  0  0  0
    6.2635   -2.1450   -2.1264 H   0  0  0  0  0  0  0  0  0  0  0  0
    6.0363   -0.5283   -2.8659 H   0  0  0  0  0  0  0  0  0  0  0  0
    7.5186   -0.9004   -2.0162 H   0  0  0  0  0  0  0  0  0  0  0  0
    4.4372    0.1191    1.4482 H   0  0  0  0  0  0  0  0  0  0  0  0
    2.0367    0.0918    1.7270 H   0  0  0  0  0  0  0  0  0  0  0  0
   -1.5114    0.5621    4.0762 H   0  0  0  0  0  0  0  0  0  0  0  0
   -2.5756    1.4873    3.0098 H   0  0  0  0  0  0  0  0  0  0  0  0
   -1.1024    2.2485    3.7363 H   0  0  0  0  0  0  0  0  0  0  0  0
   -1.5548    3.4124    1.8463 H   0  0  0  0  0  0  0  0  0  0  0  0
   -2.6471    6.5046    0.3653 H   0  0  0  0  0  0  0  0  0  0  0  0
   -1.5338    5.6686    1.4531 H   0  0  0  0  0  0  0  0  0  0  0  0
   -3.1667    4.9818    1.0956 H   0  0  0  0  0  0  0  0  0  0  0  0
   -1.3142    4.5428   -2.8531 H   0  0  0  0  0  0  0  0  0  0  0  0
   -0.5967    3.2975   -4.8468 H   0  0  0  0  0  0  0  0  0  0  0  0
  1  2  1  0
  2  3  1  0
  3  4  1  0
  4  5  1  0
  3  6  1  0
  6  7  1  0
  7  8  1  0
  8  9  1  0
  9 10  2  0
 10 11  1  0
 11 12  2  0
 12 13  1  0
 13 14  1  0
 13 15  1  0
 12 16  1  0
 16 17  2  0
  8 18  1  0
 18 19  2  0
 19 20  1  0
 20 21  1  0
 19 22  1  0
 22 23  2  0
 23 24  1  0
 24 25  1  0
 23 26  1  0
 26 27  1  0
 27 28  2  0
 28 29  1  0
 29 30  2  0
 29 31  1  0
 31 32  1  0
 17  9  1  0
 32 18  1  0
 32 26  2  0
  1 33  1  0
  1 34  1  0
  1 35  1  0
  2 36  1  0
  2 37  1  0
  4 38  1  0
  4 39  1  0
  5 40  1  0
  5 41  1  0
  5 42  1  0
  6 43  1  0
  6 44  1  0
  7 45  1  0
  7 46  1  0
  8 47  1  0
 10 48  1  0
 11 49  1  0
 14 50  1  0
 14 51  1  0
 14 52  1  0
 15 53  1  0
 15 54  1  0
 15 55  1  0
 16 56  1  0
 17 57  1  0
 21 58  1  0
 21 59  1  0
 21 60  1  0
 22 61  1  0
 25 62  1  0
 25 63  1  0
 25 64  1  0
 27 65  1  0
 28 66  1  0
M  END
$$$$
