
     RDKit          3D

 51 54  0  0  0  0  0  0  0  0999 V2000
    2.7850   -3.0726    2.7543 C   0  0  0  0  0  0  0  0  0  0  0  0
    3.9185   -2.7607    1.7868 C   0  0  0  0  0  0  0  0  0  0  0  0
    3.8729   -1.3330    1.2336 C   0  0  0  0  0  0  0  0  0  0  0  0
    2.7407   -1.1041    0.2824 C   0  0  0  0  0  0  0  0  0  0  0  0
    1.5043   -0.5050    0.4909 C   0  0  0  0  0  0  0  0  0  0  0  0
    0.9547    0.0785    1.7152 C   0  0  0  0  0  0  0  0  0  0  0  0
    1.5796    0.1159    2.7705 O   0  0  0  0  0  0  0  0  0  0  0  0
   -0.3259    0.5748    1.5253 N   0  0  0  0  0  0  0  0  0  0  0  0
   -1.0291    1.1246    2.5566 N   0  0  0  0  0  0  0  0  0  0  0  0
   -2.2066    1.6185    2.3063 C   0  0  0  0  0  0  0  0  0  0  0  0
   -2.8797    1.7480    0.9964 C   0  0  0  0  0  0  0  0  0  0  0  0
   -4.0688    1.0197    0.8124 C   0  0  0  0  0  0  0  0  0  0  0  0
   -4.4974    0.2637    1.8711 O   0  0  0  0  0  0  0  0  0  0  0  0
   -5.6606   -0.5340    1.6870 C   0  0  0  0  0  0  0  0  0  0  0  0
   -4.7211    1.1051   -0.4151 C   0  0  0  0  0  0  0  0  0  0  0  0
   -4.2015    1.9079   -1.4349 C   0  0  0  0  0  0  0  0  0  0  0  0
   -3.0302    2.6571   -1.2496 C   0  0  0  0  0  0  0  0  0  0  0  0
   -2.5382    3.4703   -2.2840 C   0  0  0  0  0  0  0  0  0  0  0  0
   -1.3864    4.2360   -2.1095 C   0  0  0  0  0  0  0  0  0  0  0  0
   -0.7141    4.2034   -0.8954 C   0  0  0  0  0  0  0  0  0  0  0  0
   -1.1903    3.3988    0.1411 C   0  0  0  0  0  0  0  0  0  0  0  0
   -2.3486    2.5975   -0.0123 C   0  0  0  0  0  0  0  0  0  0  0  0
    0.7904   -0.5271   -0.6785 N   0  0  0  0  0  0  0  0  0  0  0  0
    1.5273   -1.1090   -1.6050 N   0  0  0  0  0  0  0  0  0  0  0  0
    2.7297   -1.4703   -1.0660 N   0  0  0  0  0  0  0  0  0  0  0  0
    3.7258   -2.0947   -1.8615 C   0  0  0  0  0  0  0  0  0  0  0  0
    4.9252   -2.4004   -1.3657 N   0  0  0  0  0  0  0  0  0  0  0  0
    5.6056   -2.9680   -2.4410 O   0  0  0  0  0  0  0  0  0  0  0  0
    4.8121   -2.9962   -3.5823 N   0  0  0  0  0  0  0  0  0  0  0  0
    3.6463   -2.4632   -3.2191 C   0  0  0  0  0  0  0  0  0  0  0  0
    2.5902   -2.3185   -4.0421 N   0  0  0  0  0  0  0  0  0  0  0  0
    2.7785   -2.3686    3.5922 H   0  0  0  0  0  0  0  0  0  0  0  0
    1.8109   -3.0328    2.2582 H   0  0  0  0  0  0  0  0  0  0  0  0
    2.9084   -4.0806    3.1634 H   0  0  0  0  0  0  0  0  0  0  0  0
    3.9038   -3.4971    0.9758 H   0  0  0  0  0  0  0  0  0  0  0  0
    4.8682   -2.8946    2.3188 H   0  0  0  0  0  0  0  0  0  0  0  0
    4.8245   -1.0962    0.7461 H   0  0  0  0  0  0  0  0  0  0  0  0
    3.8166   -0.6252    2.0680 H   0  0  0  0  0  0  0  0  0  0  0  0
   -0.7527    0.4748    0.6088 H   0  0  0  0  0  0  0  0  0  0  0  0
   -2.7921    1.9811    3.1693 H   0  0  0  0  0  0  0  0  0  0  0  0
   -5.5140   -1.2676    0.8874 H   0  0  0  0  0  0  0  0  0  0  0  0
   -6.5395    0.0904    1.4966 H   0  0  0  0  0  0  0  0  0  0  0  0
   -5.8383   -1.0847    2.6157 H   0  0  0  0  0  0  0  0  0  0  0  0
   -5.6382    0.5615   -0.6187 H   0  0  0  0  0  0  0  0  0  0  0  0
   -4.7339    1.9511   -2.3842 H   0  0  0  0  0  0  0  0  0  0  0  0
   -3.0546    3.5183   -3.2409 H   0  0  0  0  0  0  0  0  0  0  0  0
   -1.0196    4.8614   -2.9194 H   0  0  0  0  0  0  0  0  0  0  0  0
    0.1805    4.8037   -0.7490 H   0  0  0  0  0  0  0  0  0  0  0  0
   -0.6400    3.4053    1.0816 H   0  0  0  0  0  0  0  0  0  0  0  0
    1.7966   -1.7350   -3.7814 H   0  0  0  0  0  0  0  0  0  0  0  0
    2.7252   -2.4280   -5.0415 H   0  0  0  0  0  0  0  0  0  0  0  0
  1  2  1  0
  2  3  1  0
  3  4  1  0
  4  5  2  0
  5  6  1  0
  6  7  2  0
  6  8  1  0
  8  9  1  0
  9 10  2  3
 10 11  1  0
 11 12  2  0
 12 13  1  0
 13 14  1  0
 12 15  1  0
 15 16  2  0
 16 17  1  0
 17 18  2  0
 18 19  1  0
 19 20  2  0
 20 21  1  0
 21 22  2  0
  5 23  1  0
 23 24  2  0
 24 25  1  0
 25 26  1  0
 26 27  2  0
 27 28  1  0
 28 29  1  0
 29 30  2  0
 30 31  1  0
 25  4  1  0
 30 26  1  0
 22 11  1  0
 22 17  1  0
  1 32  1  0
  1 33  1  0
  1 34  1  0
  2 35  1  0
  2 36  1  0
  3 37  1  0
  3 38  1  0
  8 39  1  0
 10 40  1  0
 14 41  1  0
 14 42  1  0
 14 43  1  0
 15 44  1  0
 16 45  1  0
 18 46  1  0
 19 47  1  0
 20 48  1  0
 21 49  1  0
 31 50  1  0
 31 51  1  0
M  END
$$$$
