
     RDKit          3D

 49 51  0  0  0  0  0  0  0  0999 V2000
   -6.0670    0.0105    4.1848 C   0  0  0  0  0  0  0  0  0  0  0  0
   -6.3204    0.1078    2.7909 O   0  0  0  0  0  0  0  0  0  0  0  0
   -5.2390    0.2337    1.9542 C   0  0  0  0  0  0  0  0  0  0  0  0
   -3.9106    0.3048    2.3854 C   0  0  0  0  0  0  0  0  0  0  0  0
   -2.8725    0.4334    1.4589 C   0  0  0  0  0  0  0  0  0  0  0  0
   -3.1496    0.4856    0.0913 C   0  0  0  0  0  0  0  0  0  0  0  0
   -2.0740    0.6350   -0.8943 C   0  0  0  0  0  0  0  0  0  0  0  0
   -1.1222   -0.2687   -1.1641 C   0  0  0  0  0  0  0  0  0  0  0  0
   -0.9073   -1.8263   -0.4713 S   0  0  0  0  0  0  0  0  0  0  0  0
    0.4959   -2.1619   -1.4661 C   0  0  0  0  0  0  0  0  0  0  0  0
    1.0610   -3.2447   -1.4660 O   0  0  0  0  0  0  0  0  0  0  0  0
    0.8167   -1.0664   -2.2210 N   0  0  0  0  0  0  0  0  0  0  0  0
    1.9365   -1.0745   -3.1509 C   0  0  0  0  0  0  0  0  0  0  0  0
    3.2977   -1.3613   -2.5138 C   0  0  0  0  0  0  0  0  0  0  0  0
    3.7144   -0.3144   -1.4961 C   0  0  0  0  0  0  0  0  0  0  0  0
    2.9960    0.6356   -1.2108 O   0  0  0  0  0  0  0  0  0  0  0  0
    4.9604   -0.5978   -0.9602 N   0  0  0  0  0  0  0  0  0  0  0  0
    5.6741    0.1504   -0.0005 C   0  0  0  0  0  0  0  0  0  0  0  0
    5.2265    1.3554    0.5437 C   0  0  0  0  0  0  0  0  0  0  0  0
    5.9991    2.0361    1.4909 C   0  0  0  0  0  0  0  0  0  0  0  0
    7.2251    1.5186    1.9011 C   0  0  0  0  0  0  0  0  0  0  0  0
    7.6818    0.3187    1.3639 C   0  0  0  0  0  0  0  0  0  0  0  0
    6.9103   -0.3612    0.4175 C   0  0  0  0  0  0  0  0  0  0  0  0
   -0.0822   -0.0229   -2.2000 C   0  0  0  0  0  0  0  0  0  0  0  0
   -0.0905    0.9467   -2.9462 O   0  0  0  0  0  0  0  0  0  0  0  0
   -4.4786    0.4260   -0.3456 C   0  0  0  0  0  0  0  0  0  0  0  0
   -5.5262    0.2970    0.5753 C   0  0  0  0  0  0  0  0  0  0  0  0
   -6.8549    0.2262    0.2336 O   0  0  0  0  0  0  0  0  0  0  0  0
   -7.1860    0.2742   -1.1464 C   0  0  0  0  0  0  0  0  0  0  0  0
   -5.4659   -0.8747    4.4171 H   0  0  0  0  0  0  0  0  0  0  0  0
   -7.0299   -0.0999    4.6929 H   0  0  0  0  0  0  0  0  0  0  0  0
   -5.5942    0.9221    4.5646 H   0  0  0  0  0  0  0  0  0  0  0  0
   -3.6470    0.2658    3.4368 H   0  0  0  0  0  0  0  0  0  0  0  0
   -1.8475    0.4946    1.8187 H   0  0  0  0  0  0  0  0  0  0  0  0
   -2.0940    1.5743   -1.4460 H   0  0  0  0  0  0  0  0  0  0  0  0
    1.7280   -1.8556   -3.8922 H   0  0  0  0  0  0  0  0  0  0  0  0
    1.9780   -0.1203   -3.6883 H   0  0  0  0  0  0  0  0  0  0  0  0
    4.0560   -1.3810   -3.3061 H   0  0  0  0  0  0  0  0  0  0  0  0
    3.3068   -2.3402   -2.0239 H   0  0  0  0  0  0  0  0  0  0  0  0
    5.4090   -1.4504   -1.2718 H   0  0  0  0  0  0  0  0  0  0  0  0
    4.2800    1.7990    0.2521 H   0  0  0  0  0  0  0  0  0  0  0  0
    5.6376    2.9739    1.9057 H   0  0  0  0  0  0  0  0  0  0  0  0
    7.8219    2.0507    2.6372 H   0  0  0  0  0  0  0  0  0  0  0  0
    8.6382   -0.0890    1.6809 H   0  0  0  0  0  0  0  0  0  0  0  0
    7.2918   -1.2961    0.0159 H   0  0  0  0  0  0  0  0  0  0  0  0
   -4.6740    0.4777   -1.4117 H   0  0  0  0  0  0  0  0  0  0  0  0
   -6.7520   -0.5733   -1.6870 H   0  0  0  0  0  0  0  0  0  0  0  0
   -6.8827    1.2270   -1.5925 H   0  0  0  0  0  0  0  0  0  0  0  0
   -8.2744    0.1996   -1.2320 H   0  0  0  0  0  0  0  0  0  0  0  0
  1  2  1  0
  2  3  1  0
  3  4  2  0
  4  5  1  0
  5  6  2  0
  6  7  1  0
  7  8  2  3
  8  9  1  0
  9 10  1  0
 10 11  2  0
 10 12  1  0
 12 13  1  0
 13 14  1  0
 14 15  1  0
 15 16  2  0
 15 17  1  0
 17 18  1  0
 18 19  2  0
 19 20  1  0
 20 21  2  0
 21 22  1  0
 22 23  2  0
 12 24  1  0
 24 25  2  0
  6 26  1  0
 26 27  2  0
 27 28  1  0
 28 29  1  0
 27  3  1  0
 24  8  1  0
 23 18  1  0
  1 30  1  0
  1 31  1  0
  1 32  1  0
  4 33  1  0
  5 34  1  0
  7 35  1  0
 13 36  1  0
 13 37  1  0
 14 38  1  0
 14 39  1  0
 17 40  1  0
 19 41  1  0
 20 42  1  0
 21 43  1  0
 22 44  1  0
 23 45  1  0
 26 46  1  0
 29 47  1  0
 29 48  1  0
 29 49  1  0
M  END
$$$$
