
     RDKit          3D

 46 48  0  0  0  0  0  0  0  0999 V2000
   -2.4165    3.5838    0.8675 C   0  0  0  0  0  0  0  0  0  0  0  0
   -1.8987    2.2592    0.8151 O   0  0  0  0  0  0  0  0  0  0  0  0
   -2.6373    1.3294    0.1171 C   0  0  0  0  0  0  0  0  0  0  0  0
   -3.8366    1.5941   -0.5476 C   0  0  0  0  0  0  0  0  0  0  0  0
   -4.5004    0.5712   -1.2297 C   0  0  0  0  0  0  0  0  0  0  0  0
   -3.9801   -0.7263   -1.2479 C   0  0  0  0  0  0  0  0  0  0  0  0
   -4.6765   -1.8159   -2.0099 C   0  0  0  0  0  0  0  0  0  0  0  0
   -2.7681   -0.9887   -0.5933 C   0  0  0  0  0  0  0  0  0  0  0  0
   -2.0976    0.0254    0.0946 C   0  0  0  0  0  0  0  0  0  0  0  0
   -0.8752   -0.1639    0.7790 N   0  0  0  0  0  0  0  0  0  0  0  0
   -0.1554   -1.3281    0.9438 C   0  0  0  0  0  0  0  0  0  0  0  0
   -0.4817   -2.4417    0.5492 O   0  0  0  0  0  0  0  0  0  0  0  0
    1.1595   -1.0994    1.6722 C   0  0  0  0  0  0  0  0  0  0  0  0
    1.7707   -2.3866    2.1991 C   0  0  0  0  0  0  0  0  0  0  0  0
    3.2275   -2.0582    2.2274 C   0  0  0  0  0  0  0  0  0  0  0  0
    4.0834   -2.6831    2.8308 O   0  0  0  0  0  0  0  0  0  0  0  0
    3.4780   -0.9519    1.4723 O   0  0  0  0  0  0  0  0  0  0  0  0
    2.2773   -0.5318    0.7895 C   0  0  0  0  0  0  0  0  0  0  0  0
    2.3247   -1.1057   -0.6438 C   0  0  0  0  0  0  0  0  0  0  0  0
    3.4918   -0.5390   -1.4558 C   0  0  0  0  0  0  0  0  0  0  0  0
    3.4721    0.9854   -1.4779 C   0  0  0  0  0  0  0  0  0  0  0  0
    3.4435    1.5673   -0.0689 C   0  0  0  0  0  0  0  0  0  0  0  0
    2.2784    1.0065    0.7497 C   0  0  0  0  0  0  0  0  0  0  0  0
   -3.3893    3.6080    1.3694 H   0  0  0  0  0  0  0  0  0  0  0  0
   -2.4732    4.0250   -0.1330 H   0  0  0  0  0  0  0  0  0  0  0  0
   -1.7225    4.1892    1.4585 H   0  0  0  0  0  0  0  0  0  0  0  0
   -4.2829    2.5824   -0.5601 H   0  0  0  0  0  0  0  0  0  0  0  0
   -5.4304    0.7948   -1.7487 H   0  0  0  0  0  0  0  0  0  0  0  0
   -4.5318   -2.7859   -1.5227 H   0  0  0  0  0  0  0  0  0  0  0  0
   -4.2839   -1.8683   -3.0300 H   0  0  0  0  0  0  0  0  0  0  0  0
   -5.7554   -1.6340   -2.0556 H   0  0  0  0  0  0  0  0  0  0  0  0
   -2.3674   -1.9969   -0.6360 H   0  0  0  0  0  0  0  0  0  0  0  0
   -0.5480    0.6844    1.2320 H   0  0  0  0  0  0  0  0  0  0  0  0
    0.9776   -0.4406    2.5330 H   0  0  0  0  0  0  0  0  0  0  0  0
    1.6183   -3.2514    1.5471 H   0  0  0  0  0  0  0  0  0  0  0  0
    1.4084   -2.6089    3.2066 H   0  0  0  0  0  0  0  0  0  0  0  0
    1.3929   -0.8779   -1.1753 H   0  0  0  0  0  0  0  0  0  0  0  0
    2.4291   -2.1970   -0.6200 H   0  0  0  0  0  0  0  0  0  0  0  0
    3.4424   -0.9211   -2.4818 H   0  0  0  0  0  0  0  0  0  0  0  0
    4.4420   -0.8884   -1.0341 H   0  0  0  0  0  0  0  0  0  0  0  0
    2.5911    1.3307   -2.0328 H   0  0  0  0  0  0  0  0  0  0  0  0
    4.3526    1.3581   -2.0132 H   0  0  0  0  0  0  0  0  0  0  0  0
    4.3918    1.3496    0.4374 H   0  0  0  0  0  0  0  0  0  0  0  0
    3.3590    2.6586   -0.1244 H   0  0  0  0  0  0  0  0  0  0  0  0
    1.3426    1.3780    0.3184 H   0  0  0  0  0  0  0  0  0  0  0  0
    2.3545    1.4097    1.7671 H   0  0  0  0  0  0  0  0  0  0  0  0
  1  2  1  0
  2  3  1  0
  3  4  2  0
  4  5  1  0
  5  6  2  0
  6  7  1  0
  6  8  1  0
  8  9  2  0
  9 10  1  0
 10 11  1  0
 11 12  2  0
 11 13  1  0
 13 14  1  0
 14 15  1  0
 15 16  2  0
 15 17  1  0
 17 18  1  0
 18 19  1  0
 19 20  1  0
 20 21  1  0
 21 22  1  0
 22 23  1  0
  9  3  1  0
 18 13  1  0
 23 18  1  0
  1 24  1  0
  1 25  1  0
  1 26  1  0
  4 27  1  0
  5 28  1  0
  7 29  1  0
  7 30  1  0
  7 31  1  0
  8 32  1  0
 10 33  1  0
 13 34  1  0
 14 35  1  0
 14 36  1  0
 19 37  1  0
 19 38  1  0
 20 39  1  0
 20 40  1  0
 21 41  1  0
 21 42  1  0
 22 43  1  0
 22 44  1  0
 23 45  1  0
 23 46  1  0
M  END
$$$$
