
     RDKit          3D

 59 62  0  0  0  0  0  0  0  0999 V2000
   -7.8364   -0.2966   -0.9341 C   0  0  0  0  0  0  0  0  0  0  0  0
   -6.7773    0.5949   -0.2922 C   0  0  0  0  0  0  0  0  0  0  0  0
   -5.8594    1.1568   -1.2952 N   0  0  0  0  0  0  0  0  0  0  0  0
   -5.1565    2.3392   -0.7650 C   0  0  0  0  0  0  0  0  0  0  0  0
   -4.1045    2.0485    0.3385 C   0  0  0  0  0  0  0  0  0  0  0  0
   -3.5093    0.6927    0.2792 N   0  0  0  0  0  0  0  0  0  0  0  0
   -2.1781    0.6818    0.9179 C   0  0  0  0  0  0  0  0  0  0  0  0
   -1.6932   -0.7055    1.2616 C   0  0  0  0  0  0  0  0  0  0  0  0
   -2.5402   -1.7353    1.7134 C   0  0  0  0  0  0  0  0  0  0  0  0
   -3.8962   -1.5576    1.7896 O   0  0  0  0  0  0  0  0  0  0  0  0
   -2.0565   -2.9998    2.0984 C   0  0  0  0  0  0  0  0  0  0  0  0
   -0.6920   -3.2816    2.0455 C   0  0  0  0  0  0  0  0  0  0  0  0
    0.1361   -2.2680    1.6093 C   0  0  0  0  0  0  0  0  0  0  0  0
   -0.3409   -1.0109    1.2322 C   0  0  0  0  0  0  0  0  0  0  0  0
    0.6688   -0.1524    0.8495 O   0  0  0  0  0  0  0  0  0  0  0  0
    1.8523   -0.8730    0.9702 C   0  0  0  0  0  0  0  0  0  0  0  0
    3.0798   -0.4145    0.6930 C   0  0  0  0  0  0  0  0  0  0  0  0
    3.3580    0.9221    0.2101 C   0  0  0  0  0  0  0  0  0  0  0  0
    4.5695    1.4424   -0.0471 C   0  0  0  0  0  0  0  0  0  0  0  0
    5.8742    0.7831    0.1326 C   0  0  0  0  0  0  0  0  0  0  0  0
    6.2901    0.4205    1.4233 C   0  0  0  0  0  0  0  0  0  0  0  0
    7.5258   -0.1922    1.6232 C   0  0  0  0  0  0  0  0  0  0  0  0
    8.3596   -0.4381    0.5367 C   0  0  0  0  0  0  0  0  0  0  0  0
    7.9644   -0.0681   -0.7521 C   0  0  0  0  0  0  0  0  0  0  0  0
    6.7253    0.5477   -0.9660 C   0  0  0  0  0  0  0  0  0  0  0  0
    6.2620    0.9570   -2.1923 O   0  0  0  0  0  0  0  0  0  0  0  0
    7.0601    0.6513   -3.3279 C   0  0  0  0  0  0  0  0  0  0  0  0
    1.5858   -2.2505    1.4599 C   0  0  0  0  0  0  0  0  0  0  0  0
    2.3654   -3.1487    1.6889 O   0  0  0  0  0  0  0  0  0  0  0  0
   -3.4513    0.2515   -1.1294 C   0  0  0  0  0  0  0  0  0  0  0  0
   -4.8648    0.1651   -1.7691 C   0  0  0  0  0  0  0  0  0  0  0  0
   -8.5611   -0.6166   -0.1780 H   0  0  0  0  0  0  0  0  0  0  0  0
   -8.3843    0.2433   -1.7138 H   0  0  0  0  0  0  0  0  0  0  0  0
   -7.4052   -1.1981   -1.3792 H   0  0  0  0  0  0  0  0  0  0  0  0
   -7.3171    1.4095    0.2073 H   0  0  0  0  0  0  0  0  0  0  0  0
   -6.2474    0.0404    0.4905 H   0  0  0  0  0  0  0  0  0  0  0  0
   -5.8739    3.0872   -0.4048 H   0  0  0  0  0  0  0  0  0  0  0  0
   -4.6442    2.8199   -1.6099 H   0  0  0  0  0  0  0  0  0  0  0  0
   -4.5821    2.1549    1.3199 H   0  0  0  0  0  0  0  0  0  0  0  0
   -3.3297    2.8233    0.2669 H   0  0  0  0  0  0  0  0  0  0  0  0
   -2.2262    1.2285    1.8694 H   0  0  0  0  0  0  0  0  0  0  0  0
   -1.4531    1.2059    0.2821 H   0  0  0  0  0  0  0  0  0  0  0  0
   -4.0958   -0.7190    1.3157 H   0  0  0  0  0  0  0  0  0  0  0  0
   -2.7575   -3.7593    2.4373 H   0  0  0  0  0  0  0  0  0  0  0  0
   -0.2969   -4.2484    2.3374 H   0  0  0  0  0  0  0  0  0  0  0  0
    3.9218   -1.0917    0.8247 H   0  0  0  0  0  0  0  0  0  0  0  0
    2.4939    1.5556    0.0135 H   0  0  0  0  0  0  0  0  0  0  0  0
    4.6352    2.4479   -0.4588 H   0  0  0  0  0  0  0  0  0  0  0  0
    5.6496    0.6145    2.2809 H   0  0  0  0  0  0  0  0  0  0  0  0
    7.8360   -0.4759    2.6255 H   0  0  0  0  0  0  0  0  0  0  0  0
    9.3235   -0.9167    0.6910 H   0  0  0  0  0  0  0  0  0  0  0  0
    8.6504   -0.2724   -1.5670 H   0  0  0  0  0  0  0  0  0  0  0  0
    6.5302    1.0107   -4.2157 H   0  0  0  0  0  0  0  0  0  0  0  0
    7.1965   -0.4296   -3.4375 H   0  0  0  0  0  0  0  0  0  0  0  0
    8.0228    1.1709   -3.2831 H   0  0  0  0  0  0  0  0  0  0  0  0
   -2.9865   -0.7381   -1.2107 H   0  0  0  0  0  0  0  0  0  0  0  0
   -2.8315    0.9447   -1.7145 H   0  0  0  0  0  0  0  0  0  0  0  0
   -5.2394   -0.8576   -1.6444 H   0  0  0  0  0  0  0  0  0  0  0  0
   -4.7489    0.3045   -2.8512 H   0  0  0  0  0  0  0  0  0  0  0  0
  1  2  1  0
  2  3  1  0
  3  4  1  0
  4  5  1  0
  5  6  1  0
  6  7  1  0
  7  8  1  0
  8  9  2  0
  9 10  1  0
  9 11  1  0
 11 12  2  0
 12 13  1  0
 13 14  2  0
 14 15  1  0
 15 16  1  0
 16 17  2  3
 17 18  1  0
 18 19  2  3
 19 20  1  0
 20 21  2  0
 21 22  1  0
 22 23  2  0
 23 24  1  0
 24 25  2  0
 25 26  1  0
 26 27  1  0
 16 28  1  0
 28 29  2  0
  6 30  1  0
 30 31  1  0
 31  3  1  0
 14  8  1  0
 25 20  1  0
 28 13  1  0
  1 32  1  0
  1 33  1  0
  1 34  1  0
  2 35  1  0
  2 36  1  0
  4 37  1  0
  4 38  1  0
  5 39  1  0
  5 40  1  0
  7 41  1  0
  7 42  1  0
 10 43  1  0
 11 44  1  0
 12 45  1  0
 17 46  1  0
 18 47  1  0
 19 48  1  0
 21 49  1  0
 22 50  1  0
 23 51  1  0
 24 52  1  0
 27 53  1  0
 27 54  1  0
 27 55  1  0
 30 56  1  0
 30 57  1  0
 31 58  1  0
 31 59  1  0
M  END
$$$$
