
     RDKit          3D

 33 35  0  0  0  0  0  0  0  0999 V2000
   -3.9765   -0.9293    3.8131 C   0  0  0  0  0  0  0  0  0  0  0  0
   -2.8730   -0.7205    2.7880 C   0  0  0  0  0  0  0  0  0  0  0  0
   -3.3048   -1.0510    1.4028 C   0  0  0  0  0  0  0  0  0  0  0  0
   -4.4890   -1.4758    0.9992 N   0  0  0  0  0  0  0  0  0  0  0  0
   -4.4313   -1.6768   -0.3620 N   0  0  0  0  0  0  0  0  0  0  0  0
   -3.2217   -1.3550   -0.7459 C   0  0  0  0  0  0  0  0  0  0  0  0
   -2.4636   -0.9323    0.3152 N   0  0  0  0  0  0  0  0  0  0  0  0
   -1.1560   -0.5385    0.3544 N   0  0  0  0  0  0  0  0  0  0  0  0
   -0.5835   -0.2607   -0.7850 C   0  0  0  0  0  0  0  0  0  0  0  0
    0.8659    0.1182   -0.7491 C   0  0  0  0  0  0  0  0  0  0  0  0
    1.4146    1.0193   -1.6684 C   0  0  0  0  0  0  0  0  0  0  0  0
    2.7741    1.3543   -1.6049 C   0  0  0  0  0  0  0  0  0  0  0  0
    3.5919    0.7969   -0.6215 C   0  0  0  0  0  0  0  0  0  0  0  0
    4.9262    1.0386   -0.4517 O   0  0  0  0  0  0  0  0  0  0  0  0
    5.5421    1.9387   -1.3643 C   0  0  0  0  0  0  0  0  0  0  0  0
    3.0387   -0.0933    0.3014 C   0  0  0  0  0  0  0  0  0  0  0  0
    1.6841   -0.4303    0.2441 C   0  0  0  0  0  0  0  0  0  0  0  0
   -1.2756   -0.2083   -2.1432 C   0  0  0  0  0  0  0  0  0  0  0  0
   -2.5500   -1.4702   -2.3232 S   0  0  0  0  0  0  0  0  0  0  0  0
   -4.8448   -0.2979    3.5955 H   0  0  0  0  0  0  0  0  0  0  0  0
   -4.3122   -1.9719    3.8278 H   0  0  0  0  0  0  0  0  0  0  0  0
   -3.6159   -0.6754    4.8150 H   0  0  0  0  0  0  0  0  0  0  0  0
   -2.0133   -1.3444    3.0592 H   0  0  0  0  0  0  0  0  0  0  0  0
   -2.5448    0.3248    2.8266 H   0  0  0  0  0  0  0  0  0  0  0  0
    0.8060    1.4928   -2.4338 H   0  0  0  0  0  0  0  0  0  0  0  0
    3.1612    2.0584   -2.3347 H   0  0  0  0  0  0  0  0  0  0  0  0
    5.4877    1.5593   -2.3901 H   0  0  0  0  0  0  0  0  0  0  0  0
    6.5995    2.0177   -1.0940 H   0  0  0  0  0  0  0  0  0  0  0  0
    5.1031    2.9389   -1.2885 H   0  0  0  0  0  0  0  0  0  0  0  0
    3.6687   -0.5279    1.0745 H   0  0  0  0  0  0  0  0  0  0  0  0
    1.2799   -1.1253    0.9769 H   0  0  0  0  0  0  0  0  0  0  0  0
   -1.7313    0.7814   -2.2556 H   0  0  0  0  0  0  0  0  0  0  0  0
   -0.5563   -0.3543   -2.9534 H   0  0  0  0  0  0  0  0  0  0  0  0
  1  2  1  0
  2  3  1  0
  3  4  2  0
  4  5  1  0
  5  6  2  0
  6  7  1  0
  7  8  1  0
  8  9  2  0
  9 10  1  0
 10 11  2  0
 11 12  1  0
 12 13  2  0
 13 14  1  0
 14 15  1  0
 13 16  1  0
 16 17  2  0
  9 18  1  0
 18 19  1  0
  7  3  1  0
 17 10  1  0
 19  6  1  0
  1 20  1  0
  1 21  1  0
  1 22  1  0
  2 23  1  0
  2 24  1  0
 11 25  1  0
 12 26  1  0
 15 27  1  0
 15 28  1  0
 15 29  1  0
 16 30  1  0
 17 31  1  0
 18 32  1  0
 18 33  1  0
M  END
$$$$
