
     RDKit          3D

 49 51  0  0  0  0  0  0  0  0999 V2000
   -4.3851   -0.3061    2.5981 C   0  0  0  0  0  0  0  0  0  0  0  0
   -3.8539    0.2345    1.3033 C   0  0  0  0  0  0  0  0  0  0  0  0
   -4.6924    0.9380    0.4333 C   0  0  0  0  0  0  0  0  0  0  0  0
   -4.2116    1.4094   -0.7937 C   0  0  0  0  0  0  0  0  0  0  0  0
   -5.1037    2.2006   -1.7046 C   0  0  0  0  0  0  0  0  0  0  0  0
   -2.8710    1.1827   -1.1421 C   0  0  0  0  0  0  0  0  0  0  0  0
   -2.0241    0.4678   -0.2949 C   0  0  0  0  0  0  0  0  0  0  0  0
   -0.6742    0.1891   -0.5817 N   0  0  0  0  0  0  0  0  0  0  0  0
    0.0511    0.5316   -1.7167 C   0  0  0  0  0  0  0  0  0  0  0  0
   -0.3805    1.1188   -2.7067 O   0  0  0  0  0  0  0  0  0  0  0  0
    1.5175    0.0288   -1.6579 C   0  0  0  0  0  0  0  0  0  0  0  0
    2.0234   -0.0287   -0.3122 O   0  0  0  0  0  0  0  0  0  0  0  0
    2.3566    1.1733    0.2168 C   0  0  0  0  0  0  0  0  0  0  0  0
    2.2421    2.2529   -0.3365 O   0  0  0  0  0  0  0  0  0  0  0  0
    2.8485    1.0098    1.6099 C   0  0  0  0  0  0  0  0  0  0  0  0
    2.9867    2.1598    2.4008 C   0  0  0  0  0  0  0  0  0  0  0  0
    3.4392    2.0611    3.7190 C   0  0  0  0  0  0  0  0  0  0  0  0
    3.7552    0.8106    4.2396 C   0  0  0  0  0  0  0  0  0  0  0  0
    4.1997    0.6652    5.5194 O   0  0  0  0  0  0  0  0  0  0  0  0
    3.6288   -0.3380    3.4663 C   0  0  0  0  0  0  0  0  0  0  0  0
    3.1765   -0.2422    2.1481 C   0  0  0  0  0  0  0  0  0  0  0  0
    1.6254   -1.3529   -2.2916 C   0  0  0  0  0  0  0  0  0  0  0  0
    1.6093   -2.5307   -1.5272 C   0  0  0  0  0  0  0  0  0  0  0  0
    1.6819   -3.7811   -2.1451 C   0  0  0  0  0  0  0  0  0  0  0  0
    1.7631   -3.8722   -3.5329 C   0  0  0  0  0  0  0  0  0  0  0  0
    1.7697   -2.7141   -4.3057 C   0  0  0  0  0  0  0  0  0  0  0  0
    1.6992   -1.4633   -3.6906 C   0  0  0  0  0  0  0  0  0  0  0  0
   -2.5264   -0.0075    0.9237 C   0  0  0  0  0  0  0  0  0  0  0  0
   -4.7898   -1.3117    2.4458 H   0  0  0  0  0  0  0  0  0  0  0  0
   -3.5953   -0.3536    3.3550 H   0  0  0  0  0  0  0  0  0  0  0  0
   -5.1763    0.3376    2.9963 H   0  0  0  0  0  0  0  0  0  0  0  0
   -5.7285    1.1220    0.7113 H   0  0  0  0  0  0  0  0  0  0  0  0
   -4.8147    2.0636   -2.7520 H   0  0  0  0  0  0  0  0  0  0  0  0
   -5.0420    3.2646   -1.4567 H   0  0  0  0  0  0  0  0  0  0  0  0
   -6.1447    1.8735   -1.6113 H   0  0  0  0  0  0  0  0  0  0  0  0
   -2.5132    1.5767   -2.0881 H   0  0  0  0  0  0  0  0  0  0  0  0
   -0.1632   -0.3309    0.1207 H   0  0  0  0  0  0  0  0  0  0  0  0
    2.1439    0.7193   -2.2390 H   0  0  0  0  0  0  0  0  0  0  0  0
    2.7400    3.1382    1.9917 H   0  0  0  0  0  0  0  0  0  0  0  0
    3.5382    2.9632    4.3156 H   0  0  0  0  0  0  0  0  0  0  0  0
    4.2661    1.5435    5.9305 H   0  0  0  0  0  0  0  0  0  0  0  0
    3.8869   -1.3056    3.8884 H   0  0  0  0  0  0  0  0  0  0  0  0
    3.0952   -1.1500    1.5559 H   0  0  0  0  0  0  0  0  0  0  0  0
    1.5380   -2.4903   -0.4434 H   0  0  0  0  0  0  0  0  0  0  0  0
    1.6695   -4.6861   -1.5438 H   0  0  0  0  0  0  0  0  0  0  0  0
    1.8139   -4.8459   -4.0133 H   0  0  0  0  0  0  0  0  0  0  0  0
    1.8210   -2.7837   -5.3898 H   0  0  0  0  0  0  0  0  0  0  0  0
    1.6878   -0.5696   -4.3139 H   0  0  0  0  0  0  0  0  0  0  0  0
   -1.8841   -0.5718    1.5957 H   0  0  0  0  0  0  0  0  0  0  0  0
  1  2  1  0
  2  3  2  0
  3  4  1  0
  4  5  1  0
  4  6  2  0
  6  7  1  0
  7  8  1  0
  8  9  1  0
  9 10  2  0
  9 11  1  0
 11 12  1  0
 12 13  1  0
 13 14  2  0
 13 15  1  0
 15 16  2  0
 16 17  1  0
 17 18  2  0
 18 19  1  0
 18 20  1  0
 20 21  2  0
 11 22  1  0
 22 23  2  0
 23 24  1  0
 24 25  2  0
 25 26  1  0
 26 27  2  0
  7 28  2  0
 28  2  1  0
 21 15  1  0
 27 22  1  0
  1 29  1  0
  1 30  1  0
  1 31  1  0
  3 32  1  0
  5 33  1  0
  5 34  1  0
  5 35  1  0
  6 36  1  0
  8 37  1  0
 11 38  1  0
 16 39  1  0
 17 40  1  0
 19 41  1  0
 20 42  1  0
 21 43  1  0
 23 44  1  0
 24 45  1  0
 25 46  1  0
 26 47  1  0
 27 48  1  0
 28 49  1  0
M  END
$$$$
