
     RDKit          3D

 53 56  0  0  0  0  0  0  0  0999 V2000
   -0.6395   -0.8267    2.1374 C   0  0  0  0  0  0  0  0  0  0  0  0
   -0.4817   -2.0242    1.2053 C   0  0  0  0  0  0  0  0  0  0  0  0
   -0.6194   -1.6540   -0.2210 N   0  0  0  0  0  0  0  0  0  0  0  0
    0.2938   -2.0603   -1.2087 C   0  0  0  0  0  0  0  0  0  0  0  0
    0.0471   -1.9458   -2.4174 O   0  0  0  0  0  0  0  0  0  0  0  0
    1.6479   -2.6155   -0.7903 C   0  0  0  0  0  0  0  0  0  0  0  0
    2.6699   -1.2683   -0.1199 S   0  0  0  0  0  0  0  0  0  0  0  0
    4.1302   -2.1321    0.2190 C   0  0  0  0  0  0  0  0  0  0  0  0
    4.5248   -3.2387   -0.3703 N   0  0  0  0  0  0  0  0  0  0  0  0
    5.7487   -3.5830    0.1629 N   0  0  0  0  0  0  0  0  0  0  0  0
    6.0660   -2.6803    1.0650 C   0  0  0  0  0  0  0  0  0  0  0  0
    7.1890   -2.5304    1.9173 C   0  0  0  0  0  0  0  0  0  0  0  0
    7.2433   -1.4854    2.7625 C   0  0  0  0  0  0  0  0  0  0  0  0
    6.1761   -0.4968    2.8282 C   0  0  0  0  0  0  0  0  0  0  0  0
    5.1109   -0.6387    2.0201 C   0  0  0  0  0  0  0  0  0  0  0  0
    5.0611   -1.7231    1.1426 N   0  0  0  0  0  0  0  0  0  0  0  0
   -1.8422   -1.0666   -0.6284 C   0  0  0  0  0  0  0  0  0  0  0  0
   -1.9205    0.0742   -1.3763 C   0  0  0  0  0  0  0  0  0  0  0  0
   -0.7674    0.7644   -1.7655 N   0  0  0  0  0  0  0  0  0  0  0  0
   -3.1706    0.5917   -1.7330 N   0  0  0  0  0  0  0  0  0  0  0  0
   -3.2844    1.8650   -2.4549 C   0  0  0  0  0  0  0  0  0  0  0  0
   -3.3564    3.0685   -1.5365 C   0  0  0  0  0  0  0  0  0  0  0  0
   -4.5950    3.5283   -1.0610 C   0  0  0  0  0  0  0  0  0  0  0  0
   -4.6657    4.6431   -0.2208 C   0  0  0  0  0  0  0  0  0  0  0  0
   -3.5000    5.3083    0.1582 C   0  0  0  0  0  0  0  0  0  0  0  0
   -2.2627    4.8572   -0.2989 C   0  0  0  0  0  0  0  0  0  0  0  0
   -2.1914    3.7426   -1.1401 C   0  0  0  0  0  0  0  0  0  0  0  0
   -4.3678   -0.0024   -1.3543 C   0  0  0  0  0  0  0  0  0  0  0  0
   -5.4847    0.3912   -1.6850 O   0  0  0  0  0  0  0  0  0  0  0  0
   -4.2744   -1.1044   -0.5651 N   0  0  0  0  0  0  0  0  0  0  0  0
   -3.1235   -1.7415   -0.2393 C   0  0  0  0  0  0  0  0  0  0  0  0
   -3.1653   -2.8364    0.3145 O   0  0  0  0  0  0  0  0  0  0  0  0
   -1.6453   -0.3970    2.0814 H   0  0  0  0  0  0  0  0  0  0  0  0
    0.0800   -0.0406    1.8849 H   0  0  0  0  0  0  0  0  0  0  0  0
   -0.4647   -1.1319    3.1726 H   0  0  0  0  0  0  0  0  0  0  0  0
    0.4959   -2.4671    1.4015 H   0  0  0  0  0  0  0  0  0  0  0  0
   -1.2007   -2.8090    1.4643 H   0  0  0  0  0  0  0  0  0  0  0  0
    1.5337   -3.4450   -0.0910 H   0  0  0  0  0  0  0  0  0  0  0  0
    2.1341   -3.0158   -1.6849 H   0  0  0  0  0  0  0  0  0  0  0  0
    7.9838   -3.2661    1.8686 H   0  0  0  0  0  0  0  0  0  0  0  0
    8.0977   -1.3515    3.4254 H   0  0  0  0  0  0  0  0  0  0  0  0
    6.2606    0.3270    3.5294 H   0  0  0  0  0  0  0  0  0  0  0  0
    4.2816    0.0578    2.0184 H   0  0  0  0  0  0  0  0  0  0  0  0
   -0.7630    0.8777   -2.7773 H   0  0  0  0  0  0  0  0  0  0  0  0
    0.0751    0.2483   -1.5241 H   0  0  0  0  0  0  0  0  0  0  0  0
   -4.1883    1.8481   -3.0832 H   0  0  0  0  0  0  0  0  0  0  0  0
   -2.4637    1.9843   -3.1741 H   0  0  0  0  0  0  0  0  0  0  0  0
   -5.5148    3.0212   -1.3446 H   0  0  0  0  0  0  0  0  0  0  0  0
   -5.6323    4.9927    0.1352 H   0  0  0  0  0  0  0  0  0  0  0  0
   -3.5564    6.1784    0.8071 H   0  0  0  0  0  0  0  0  0  0  0  0
   -1.3517    5.3743   -0.0042 H   0  0  0  0  0  0  0  0  0  0  0  0
   -1.2168    3.4026   -1.4847 H   0  0  0  0  0  0  0  0  0  0  0  0
   -5.1407   -1.5686   -0.3352 H   0  0  0  0  0  0  0  0  0  0  0  0
  1  2  1  0
  2  3  1  0
  3  4  1  0
  4  5  2  0
  4  6  1  0
  6  7  1  0
  7  8  1  0
  8  9  2  0
  9 10  1  0
 10 11  2  0
 11 12  1  0
 12 13  2  0
 13 14  1  0
 14 15  2  0
 15 16  1  0
  3 17  1  0
 17 18  2  0
 18 19  1  0
 18 20  1  0
 20 21  1  0
 21 22  1  0
 22 23  2  0
 23 24  1  0
 24 25  2  0
 25 26  1  0
 26 27  2  0
 20 28  1  0
 28 29  2  0
 28 30  1  0
 30 31  1  0
 31 32  2  0
 16  8  1  0
 31 17  1  0
 16 11  1  0
 27 22  1  0
  1 33  1  0
  1 34  1  0
  1 35  1  0
  2 36  1  0
  2 37  1  0
  6 38  1  0
  6 39  1  0
 12 40  1  0
 13 41  1  0
 14 42  1  0
 15 43  1  0
 19 44  1  0
 19 45  1  0
 21 46  1  0
 21 47  1  0
 23 48  1  0
 24 49  1  0
 25 50  1  0
 26 51  1  0
 27 52  1  0
 30 53  1  0
M  END
$$$$
