
     RDKit          3D

 36 37  0  0  0  0  0  0  0  0999 V2000
    5.2760   -0.3346   -2.6911 C   0  0  0  0  0  0  0  0  0  0  0  0
    4.6833   -0.8953   -1.5263 O   0  0  0  0  0  0  0  0  0  0  0  0
    3.4461   -0.4289   -1.1741 C   0  0  0  0  0  0  0  0  0  0  0  0
    2.6855    0.4912   -1.8907 C   0  0  0  0  0  0  0  0  0  0  0  0
    1.4285    0.8779   -1.4169 C   0  0  0  0  0  0  0  0  0  0  0  0
    0.9326    0.3742   -0.2078 C   0  0  0  0  0  0  0  0  0  0  0  0
   -0.3467    0.8257    0.1935 N   0  0  0  0  0  0  0  0  0  0  0  0
   -0.7645    1.1852    1.4511 C   0  0  0  0  0  0  0  0  0  0  0  0
    0.2008    1.6862    2.7297 S   0  0  0  0  0  0  0  0  0  0  0  0
   -2.1213    1.2995    1.6274 N   0  0  0  0  0  0  0  0  0  0  0  0
   -3.2060    0.7777    0.8936 C   0  0  0  0  0  0  0  0  0  0  0  0
   -3.0937   -0.2398   -0.0568 C   0  0  0  0  0  0  0  0  0  0  0  0
   -4.2259   -0.7081   -0.7314 C   0  0  0  0  0  0  0  0  0  0  0  0
   -5.4807   -0.1724   -0.4521 C   0  0  0  0  0  0  0  0  0  0  0  0
   -5.6074    0.8229    0.5128 C   0  0  0  0  0  0  0  0  0  0  0  0
   -4.4763    1.2887    1.1881 C   0  0  0  0  0  0  0  0  0  0  0  0
    1.6750   -0.5925    0.4948 C   0  0  0  0  0  0  0  0  0  0  0  0
    1.0669   -1.2065    1.5608 O   0  0  0  0  0  0  0  0  0  0  0  0
    1.9220   -1.8352    2.5077 C   0  0  0  0  0  0  0  0  0  0  0  0
    2.9315   -0.9754    0.0067 C   0  0  0  0  0  0  0  0  0  0  0  0
    5.4126    0.7467   -2.5846 H   0  0  0  0  0  0  0  0  0  0  0  0
    6.2659   -0.7849   -2.8122 H   0  0  0  0  0  0  0  0  0  0  0  0
    4.6900   -0.5737   -3.5847 H   0  0  0  0  0  0  0  0  0  0  0  0
    3.0368    0.9262   -2.8201 H   0  0  0  0  0  0  0  0  0  0  0  0
    0.8564    1.6040   -1.9888 H   0  0  0  0  0  0  0  0  0  0  0  0
   -0.9040    1.2674   -0.5271 H   0  0  0  0  0  0  0  0  0  0  0  0
   -2.3609    1.7976    2.4782 H   0  0  0  0  0  0  0  0  0  0  0  0
   -2.1463   -0.7294   -0.2601 H   0  0  0  0  0  0  0  0  0  0  0  0
   -4.1264   -1.5059   -1.4633 H   0  0  0  0  0  0  0  0  0  0  0  0
   -6.3595   -0.5411   -0.9747 H   0  0  0  0  0  0  0  0  0  0  0  0
   -6.5861    1.2356    0.7435 H   0  0  0  0  0  0  0  0  0  0  0  0
   -4.6007    2.0675    1.9364 H   0  0  0  0  0  0  0  0  0  0  0  0
    1.3271   -2.0565    3.3992 H   0  0  0  0  0  0  0  0  0  0  0  0
    2.2994   -2.7854    2.1171 H   0  0  0  0  0  0  0  0  0  0  0  0
    2.7446   -1.1782    2.8104 H   0  0  0  0  0  0  0  0  0  0  0  0
    3.5254   -1.7302    0.5119 H   0  0  0  0  0  0  0  0  0  0  0  0
  1  2  1  0
  2  3  1  0
  3  4  2  0
  4  5  1  0
  5  6  2  0
  6  7  1  0
  7  8  1  0
  8  9  2  0
  8 10  1  0
 10 11  1  0
 11 12  2  0
 12 13  1  0
 13 14  2  0
 14 15  1  0
 15 16  2  0
  6 17  1  0
 17 18  1  0
 18 19  1  0
 17 20  2  0
 20  3  1  0
 16 11  1  0
  1 21  1  0
  1 22  1  0
  1 23  1  0
  4 24  1  0
  5 25  1  0
  7 26  1  0
 10 27  1  0
 12 28  1  0
 13 29  1  0
 14 30  1  0
 15 31  1  0
 16 32  1  0
 19 33  1  0
 19 34  1  0
 19 35  1  0
 20 36  1  0
M  END
$$$$
