
     RDKit          3D

 36 38  0  0  0  0  0  0  0  0999 V2000
    3.1412    1.9532    1.6290 N   0  0  0  0  0  0  0  0  0  0  0  0
    2.3417    1.3850    1.0072 C   0  0  0  0  0  0  0  0  0  0  0  0
    1.3468    0.6913    0.2421 C   0  0  0  0  0  0  0  0  0  0  0  0
    0.0077    1.1224    0.2387 C   0  0  0  0  0  0  0  0  0  0  0  0
   -0.4490    2.3049    0.9850 C   0  0  0  0  0  0  0  0  0  0  0  0
   -0.1547    3.6007    0.5328 C   0  0  0  0  0  0  0  0  0  0  0  0
   -0.5952    4.7205    1.2419 C   0  0  0  0  0  0  0  0  0  0  0  0
   -1.3384    4.5597    2.4090 C   0  0  0  0  0  0  0  0  0  0  0  0
   -1.6429    3.2806    2.8686 C   0  0  0  0  0  0  0  0  0  0  0  0
   -1.2023    2.1602    2.1608 C   0  0  0  0  0  0  0  0  0  0  0  0
   -0.9320    0.3908   -0.5065 C   0  0  0  0  0  0  0  0  0  0  0  0
   -0.5260   -0.7289   -1.2192 C   0  0  0  0  0  0  0  0  0  0  0  0
   -1.4202   -1.5690   -2.0346 C   0  0  0  0  0  0  0  0  0  0  0  0
   -1.0666   -2.5593   -2.9395 C   0  0  0  0  0  0  0  0  0  0  0  0
   -2.1879   -3.1867   -3.5546 C   0  0  0  0  0  0  0  0  0  0  0  0
   -3.3761   -2.6647   -3.1014 C   0  0  0  0  0  0  0  0  0  0  0  0
   -3.1329   -1.4325   -1.9451 S   0  0  0  0  0  0  0  0  0  0  0  0
    0.7630   -1.1398   -1.2239 N   0  0  0  0  0  0  0  0  0  0  0  0
    1.6737   -0.4448   -0.4978 C   0  0  0  0  0  0  0  0  0  0  0  0
    3.3438   -1.0781   -0.6087 S   0  0  0  0  0  0  0  0  0  0  0  0
    3.0235   -2.8387   -0.2726 C   0  0  0  0  0  0  0  0  0  0  0  0
    2.8055   -3.1307    1.1912 C   0  0  0  0  0  0  0  0  0  0  0  0
    3.2242   -4.1188    1.7779 O   0  0  0  0  0  0  0  0  0  0  0  0
    2.0292   -2.2517    1.8558 O   0  0  0  0  0  0  0  0  0  0  0  0
    0.4229    3.7509   -0.3773 H   0  0  0  0  0  0  0  0  0  0  0  0
   -0.3546    5.7186    0.8842 H   0  0  0  0  0  0  0  0  0  0  0  0
   -1.6775    5.4321    2.9621 H   0  0  0  0  0  0  0  0  0  0  0  0
   -2.2205    3.1549    3.7809 H   0  0  0  0  0  0  0  0  0  0  0  0
   -1.4471    1.1697    2.5394 H   0  0  0  0  0  0  0  0  0  0  0  0
   -1.9673    0.7205   -0.5238 H   0  0  0  0  0  0  0  0  0  0  0  0
   -0.0354   -2.8185   -3.1516 H   0  0  0  0  0  0  0  0  0  0  0  0
   -2.1234   -3.9795   -4.2899 H   0  0  0  0  0  0  0  0  0  0  0  0
   -4.3781   -2.9490   -3.3927 H   0  0  0  0  0  0  0  0  0  0  0  0
    2.1833   -3.2297   -0.8525 H   0  0  0  0  0  0  0  0  0  0  0  0
    3.9225   -3.3818   -0.5822 H   0  0  0  0  0  0  0  0  0  0  0  0
    1.9994   -2.6136    2.7673 H   0  0  0  0  0  0  0  0  0  0  0  0
  1  2  3  0
  2  3  1  0
  3  4  2  0
  4  5  1  0
  5  6  2  0
  6  7  1  0
  7  8  2  0
  8  9  1  0
  9 10  2  0
  4 11  1  0
 11 12  2  0
 12 13  1  0
 13 14  2  0
 14 15  1  0
 15 16  2  0
 16 17  1  0
 12 18  1  0
 18 19  2  0
 19 20  1  0
 20 21  1  0
 21 22  1  0
 22 23  2  0
 22 24  1  0
 19  3  1  0
 10  5  1  0
 17 13  1  0
  6 25  1  0
  7 26  1  0
  8 27  1  0
  9 28  1  0
 10 29  1  0
 11 30  1  0
 14 31  1  0
 15 32  1  0
 16 33  1  0
 21 34  1  0
 21 35  1  0
 24 36  1  0
M  END
$$$$
