
     RDKit          3D

 48 51  0  0  0  0  0  0  0  0999 V2000
    4.8216   -2.9287    2.2536 O   0  0  0  0  0  0  0  0  0  0  0  0
    5.3755   -1.6033    2.0843 S   0  0  0  0  0  6  0  0  0  0  0  0
    6.6964   -1.2711    2.5739 O   0  0  0  0  0  0  0  0  0  0  0  0
    4.3250   -0.4593    2.7425 N   0  0  0  0  0  0  0  0  0  0  0  0
    3.0115   -0.3277    2.2165 C   0  0  0  0  0  0  0  0  0  0  0  0
    2.6525    0.8592    1.5849 C   0  0  0  0  0  0  0  0  0  0  0  0
    1.3828    0.9868    1.0109 C   0  0  0  0  0  0  0  0  0  0  0  0
    0.4443   -0.0628    1.0515 C   0  0  0  0  0  0  0  0  0  0  0  0
   -0.8846    0.0919    0.4301 C   0  0  0  0  0  0  0  0  0  0  0  0
   -1.6204   -0.9531   -0.1058 C   0  0  0  0  0  0  0  0  0  0  0  0
   -2.8701   -0.6937   -0.6766 C   0  0  0  0  0  0  0  0  0  0  0  0
   -3.3804    0.5982   -0.7046 C   0  0  0  0  0  0  0  0  0  0  0  0
   -4.6129    0.8774   -1.2893 N   0  0  0  0  0  0  0  0  0  0  0  0
   -5.7450   -0.0318   -1.0359 C   0  0  0  0  0  0  0  0  0  0  0  0
   -6.9658    0.7434   -0.5103 C   0  0  0  0  0  0  0  0  0  0  0  0
   -7.4061    1.7876   -1.3887 O   0  0  0  0  0  0  0  0  0  0  0  0
   -6.3292    2.4479   -2.0740 C   0  0  0  0  0  0  0  0  0  0  0  0
   -4.9664    2.3051   -1.3783 C   0  0  0  0  0  0  0  0  0  0  0  0
   -2.6212    1.5909   -0.1979 N   0  0  0  0  0  0  0  0  0  0  0  0
   -1.3818    1.3436    0.3754 N   0  0  0  0  0  0  0  0  0  0  0  0
    0.8298   -1.2434    1.7124 C   0  0  0  0  0  0  0  0  0  0  0  0
    2.0991   -1.3757    2.2886 C   0  0  0  0  0  0  0  0  0  0  0  0
    5.3450   -1.2195    0.3455 C   0  0  0  0  0  0  0  0  0  0  0  0
    6.2141   -0.2508   -0.1635 C   0  0  0  0  0  0  0  0  0  0  0  0
    6.1868    0.0446   -1.5280 C   0  0  0  0  0  0  0  0  0  0  0  0
    5.3015   -0.6290   -2.3785 C   0  0  0  0  0  0  0  0  0  0  0  0
    5.3179   -0.2030   -4.0523 Cl  0  0  0  0  0  0  0  0  0  0  0  0
    4.4459   -1.6112   -1.8620 C   0  0  0  0  0  0  0  0  0  0  0  0
    3.3277   -2.4794   -2.8522 Cl  0  0  0  0  0  0  0  0  0  0  0  0
    4.4744   -1.9155   -0.4993 C   0  0  0  0  0  0  0  0  0  0  0  0
    4.8080    0.3842    3.0477 H   0  0  0  0  0  0  0  0  0  0  0  0
    3.3462    1.6924    1.5185 H   0  0  0  0  0  0  0  0  0  0  0  0
    1.1261    1.9243    0.5167 H   0  0  0  0  0  0  0  0  0  0  0  0
   -1.2356   -1.9670   -0.1173 H   0  0  0  0  0  0  0  0  0  0  0  0
   -3.4207   -1.5132   -1.1265 H   0  0  0  0  0  0  0  0  0  0  0  0
   -5.5026   -0.8171   -0.3111 H   0  0  0  0  0  0  0  0  0  0  0  0
   -6.0032   -0.5149   -1.9854 H   0  0  0  0  0  0  0  0  0  0  0  0
   -6.7434    1.1940    0.4643 H   0  0  0  0  0  0  0  0  0  0  0  0
   -7.8087    0.0599   -0.3659 H   0  0  0  0  0  0  0  0  0  0  0  0
   -6.2832    2.0307   -3.0868 H   0  0  0  0  0  0  0  0  0  0  0  0
   -6.5981    3.5049   -2.1666 H   0  0  0  0  0  0  0  0  0  0  0  0
   -5.0245    2.7448   -0.3743 H   0  0  0  0  0  0  0  0  0  0  0  0
   -4.2128    2.8496   -1.9595 H   0  0  0  0  0  0  0  0  0  0  0  0
    0.1389   -2.0787    1.8077 H   0  0  0  0  0  0  0  0  0  0  0  0
    2.3568   -2.3006    2.8002 H   0  0  0  0  0  0  0  0  0  0  0  0
    6.9123    0.2720    0.4876 H   0  0  0  0  0  0  0  0  0  0  0  0
    6.8610    0.8003   -1.9262 H   0  0  0  0  0  0  0  0  0  0  0  0
    3.8153   -2.6830   -0.0984 H   0  0  0  0  0  0  0  0  0  0  0  0
  1  2  2  0
  2  3  2  0
  2  4  1  0
  4  5  1  0
  5  6  2  0
  6  7  1  0
  7  8  2  0
  8  9  1  0
  9 10  2  0
 10 11  1  0
 11 12  2  0
 12 13  1  0
 13 14  1  0
 14 15  1  0
 15 16  1  0
 16 17  1  0
 17 18  1  0
 12 19  1  0
 19 20  2  0
  8 21  1  0
 21 22  2  0
  2 23  1  0
 23 24  2  0
 24 25  1  0
 25 26  2  0
 26 27  1  0
 26 28  1  0
 28 29  1  0
 28 30  2  0
 22  5  1  0
 30 23  1  0
 20  9  1  0
 18 13  1  0
  4 31  1  0
  6 32  1  0
  7 33  1  0
 10 34  1  0
 11 35  1  0
 14 36  1  0
 14 37  1  0
 15 38  1  0
 15 39  1  0
 17 40  1  0
 17 41  1  0
 18 42  1  0
 18 43  1  0
 21 44  1  0
 22 45  1  0
 24 46  1  0
 25 47  1  0
 30 48  1  0
M  END
$$$$
