
     RDKit          3D

 45 48  0  0  0  0  0  0  0  0999 V2000
    6.7855    0.9241    0.5633 C   0  0  0  0  0  0  0  0  0  0  0  0
    5.6798    0.9554    1.4565 O   0  0  0  0  0  0  0  0  0  0  0  0
    4.6213    0.1426    1.1582 C   0  0  0  0  0  0  0  0  0  0  0  0
    4.5219   -0.7058    0.0562 C   0  0  0  0  0  0  0  0  0  0  0  0
    3.3753   -1.4868   -0.1306 C   0  0  0  0  0  0  0  0  0  0  0  0
    2.3138   -1.4342    0.7833 C   0  0  0  0  0  0  0  0  0  0  0  0
    1.0645   -2.2624    0.5664 C   0  0  0  0  0  0  0  0  0  0  0  0
    0.0562   -1.5379   -0.1941 N   0  0  0  0  0  0  0  0  0  0  0  0
    0.1168   -1.6406   -1.5839 C   0  0  0  0  0  0  0  0  0  0  0  0
    0.9133   -2.3361   -2.2062 O   0  0  0  0  0  0  0  0  0  0  0  0
   -0.8539   -0.8429   -2.2371 C   0  0  0  0  0  0  0  0  0  0  0  0
   -1.0492   -0.6256   -3.5698 N   0  0  0  0  0  0  0  0  0  0  0  0
   -2.0797    0.2679   -3.6746 C   0  0  0  0  0  0  0  0  0  0  0  0
   -2.5457    0.6089   -2.4913 N   0  0  0  0  0  0  0  0  0  0  0  0
   -1.7940   -0.0970   -1.5915 C   0  0  0  0  0  0  0  0  0  0  0  0
   -1.8638   -0.0879   -0.2104 N   0  0  0  0  0  0  0  0  0  0  0  0
   -2.8178    0.7738    0.4099 C   0  0  0  0  0  0  0  0  0  0  0  0
   -2.3560    1.7025    1.3626 C   0  0  0  0  0  0  0  0  0  0  0  0
   -3.2252    2.6016    1.9824 C   0  0  0  0  0  0  0  0  0  0  0  0
   -4.5772    2.5845    1.6666 C   0  0  0  0  0  0  0  0  0  0  0  0
   -5.0616    1.6532    0.7500 C   0  0  0  0  0  0  0  0  0  0  0  0
   -4.2025    0.7238    0.1309 C   0  0  0  0  0  0  0  0  0  0  0  0
   -4.8376   -0.2994   -0.7723 C   0  0  0  0  0  0  0  0  0  0  0  0
   -0.8972   -0.7887    0.5350 C   0  0  0  0  0  0  0  0  0  0  0  0
   -0.8843   -0.7962    1.7711 O   0  0  0  0  0  0  0  0  0  0  0  0
    2.4185   -0.5758    1.8844 C   0  0  0  0  0  0  0  0  0  0  0  0
    3.5640    0.2026    2.0678 C   0  0  0  0  0  0  0  0  0  0  0  0
    7.5411    1.6190    0.9423 H   0  0  0  0  0  0  0  0  0  0  0  0
    6.4947    1.2618   -0.4369 H   0  0  0  0  0  0  0  0  0  0  0  0
    7.2376   -0.0727    0.5290 H   0  0  0  0  0  0  0  0  0  0  0  0
    5.3155   -0.7841   -0.6792 H   0  0  0  0  0  0  0  0  0  0  0  0
    3.3180   -2.1381   -1.0016 H   0  0  0  0  0  0  0  0  0  0  0  0
    1.3300   -3.1902    0.0441 H   0  0  0  0  0  0  0  0  0  0  0  0
    0.6620   -2.5777    1.5367 H   0  0  0  0  0  0  0  0  0  0  0  0
   -0.5127   -1.0291   -4.3274 H   0  0  0  0  0  0  0  0  0  0  0  0
   -2.4402    0.6328   -4.6278 H   0  0  0  0  0  0  0  0  0  0  0  0
   -1.2986    1.7542    1.6133 H   0  0  0  0  0  0  0  0  0  0  0  0
   -2.8409    3.3174    2.7039 H   0  0  0  0  0  0  0  0  0  0  0  0
   -5.2576    3.2870    2.1404 H   0  0  0  0  0  0  0  0  0  0  0  0
   -6.1272    1.6395    0.5290 H   0  0  0  0  0  0  0  0  0  0  0  0
   -4.2390   -1.2121   -0.8443 H   0  0  0  0  0  0  0  0  0  0  0  0
   -5.8103   -0.6075   -0.3714 H   0  0  0  0  0  0  0  0  0  0  0  0
   -4.9979    0.1162   -1.7710 H   0  0  0  0  0  0  0  0  0  0  0  0
    1.6090   -0.5038    2.6092 H   0  0  0  0  0  0  0  0  0  0  0  0
    3.6312    0.8637    2.9286 H   0  0  0  0  0  0  0  0  0  0  0  0
  1  2  1  0
  2  3  1  0
  3  4  2  0
  4  5  1  0
  5  6  2  0
  6  7  1  0
  7  8  1  0
  8  9  1  0
  9 10  2  0
  9 11  1  0
 11 12  1  0
 12 13  1  0
 13 14  2  0
 14 15  1  0
 15 16  1  0
 16 17  1  0
 17 18  2  0
 18 19  1  0
 19 20  2  0
 20 21  1  0
 21 22  2  0
 22 23  1  0
 16 24  1  0
 24 25  2  0
  6 26  1  0
 26 27  2  0
 27  3  1  0
 24  8  1  0
 15 11  2  0
 22 17  1  0
  1 28  1  0
  1 29  1  0
  1 30  1  0
  4 31  1  0
  5 32  1  0
  7 33  1  0
  7 34  1  0
 12 35  1  0
 13 36  1  0
 18 37  1  0
 19 38  1  0
 20 39  1  0
 21 40  1  0
 23 41  1  0
 23 42  1  0
 23 43  1  0
 26 44  1  0
 27 45  1  0
M  END
$$$$
