
     RDKit          3D

 64 68  0  0  0  0  0  0  0  0999 V2000
    1.4648   -1.5669    2.4316 O   0  0  0  0  0  0  0  0  0  0  0  0
    1.6604   -0.7100    1.5651 C   0  0  0  0  0  0  0  0  0  0  0  0
    0.5509    0.2846    1.1889 C   0  0  0  0  0  0  0  0  0  0  0  0
   -0.1554   -0.1730   -0.0998 C   0  0  0  0  0  0  0  0  0  0  0  0
   -1.6377    0.1910   -0.1167 C   0  0  0  0  0  0  0  0  0  0  0  0
   -2.4099   -0.4967    1.0228 C   0  0  0  0  0  0  0  0  0  0  0  0
   -3.7767    0.1690    1.2907 C   0  0  0  0  0  0  0  0  0  0  0  0
   -4.6391    0.0788    0.1186 N   0  0  0  0  0  0  0  0  0  0  0  0
   -6.0191    0.2583    0.0916 C   0  0  0  0  0  0  0  0  0  0  0  0
   -6.7426    0.0314    1.2338 N   0  0  0  0  0  0  0  0  0  0  0  0
   -8.1028    0.1276    1.3617 C   0  0  0  0  0  0  0  0  0  0  0  0
   -8.7770   -0.2456    2.8540 S   0  0  0  0  0  0  0  0  0  0  0  0
   -8.8336    0.5206    0.2778 N   0  0  0  0  0  0  0  0  0  0  0  0
   -8.1910    0.7494   -0.8235 C   0  0  0  0  0  0  0  0  0  0  0  0
   -8.9715    1.1780   -2.0177 C   0  0  0  0  0  0  0  0  0  0  0  0
   -8.3642    1.4116   -3.1889 C   0  0  0  0  0  0  0  0  0  0  0  0
   -6.9413    1.2509   -3.3578 C   0  0  0  0  0  0  0  0  0  0  0  0
   -6.1540    0.8817   -2.3385 C   0  0  0  0  0  0  0  0  0  0  0  0
   -6.7059    0.6200   -1.0179 C   0  0  0  0  0  0  0  0  0  0  0  0
   -1.5758   -0.5666    2.3179 C   0  0  0  0  0  0  0  0  0  0  0  0
   -0.4449    0.4597    2.3551 C   0  0  0  0  0  0  0  0  0  0  0  0
    2.8655   -0.6435    0.8820 N   0  0  0  0  0  0  0  0  0  0  0  0
    3.2561    0.4129   -0.0590 C   0  0  0  0  0  0  0  0  0  0  0  0
    4.4720    0.0365   -0.9311 C   0  0  0  0  0  0  0  0  0  0  0  0
    5.6275   -0.3454   -0.1047 N   0  0  0  0  0  0  0  0  0  0  0  0
    6.9233   -0.3057   -0.5992 C   0  0  0  0  0  0  0  0  0  0  0  0
    8.0403   -0.3785    0.2556 C   0  0  0  0  0  0  0  0  0  0  0  0
    9.3531   -0.3360   -0.2292 C   0  0  0  0  0  0  0  0  0  0  0  0
    9.5726   -0.2129   -1.5899 C   0  0  0  0  0  0  0  0  0  0  0  0
   10.8248   -0.1792   -2.0631 F   0  0  0  0  0  0  0  0  0  0  0  0
    8.5054   -0.1291   -2.4682 C   0  0  0  0  0  0  0  0  0  0  0  0
    7.1958   -0.1744   -1.9726 C   0  0  0  0  0  0  0  0  0  0  0  0
    5.3368   -0.9718    1.2014 C   0  0  0  0  0  0  0  0  0  0  0  0
    3.9274   -1.5919    1.2432 C   0  0  0  0  0  0  0  0  0  0  0  0
    1.0156    1.2650    1.0332 H   0  0  0  0  0  0  0  0  0  0  0  0
    0.3212    0.2888   -0.9705 H   0  0  0  0  0  0  0  0  0  0  0  0
   -0.0488   -1.2568   -0.2363 H   0  0  0  0  0  0  0  0  0  0  0  0
   -2.0645   -0.1013   -1.0825 H   0  0  0  0  0  0  0  0  0  0  0  0
   -1.7408    1.2811   -0.0474 H   0  0  0  0  0  0  0  0  0  0  0  0
   -2.6087   -1.5329    0.7126 H   0  0  0  0  0  0  0  0  0  0  0  0
   -3.6444    1.2216    1.5669 H   0  0  0  0  0  0  0  0  0  0  0  0
   -4.2418   -0.3405    2.1408 H   0  0  0  0  0  0  0  0  0  0  0  0
   -4.1857    0.4019   -0.7273 H   0  0  0  0  0  0  0  0  0  0  0  0
   -6.2612   -0.2865    2.0597 H   0  0  0  0  0  0  0  0  0  0  0  0
  -10.0425    1.2892   -1.8877 H   0  0  0  0  0  0  0  0  0  0  0  0
   -8.9440    1.7219   -4.0528 H   0  0  0  0  0  0  0  0  0  0  0  0
   -6.5263    1.4345   -4.3437 H   0  0  0  0  0  0  0  0  0  0  0  0
   -5.0916    0.7630   -2.5135 H   0  0  0  0  0  0  0  0  0  0  0  0
   -2.2097   -0.4406    3.2024 H   0  0  0  0  0  0  0  0  0  0  0  0
   -1.1475   -1.5718    2.4011 H   0  0  0  0  0  0  0  0  0  0  0  0
    0.0710    0.4024    3.3211 H   0  0  0  0  0  0  0  0  0  0  0  0
   -0.8824    1.4653    2.3047 H   0  0  0  0  0  0  0  0  0  0  0  0
    3.4915    1.2993    0.5451 H   0  0  0  0  0  0  0  0  0  0  0  0
    2.4166    0.6678   -0.7080 H   0  0  0  0  0  0  0  0  0  0  0  0
    4.2062   -0.8010   -1.5897 H   0  0  0  0  0  0  0  0  0  0  0  0
    4.7089    0.9072   -1.5559 H   0  0  0  0  0  0  0  0  0  0  0  0
    7.9076   -0.4519    1.3311 H   0  0  0  0  0  0  0  0  0  0  0  0
   10.1970   -0.3945    0.4496 H   0  0  0  0  0  0  0  0  0  0  0  0
    8.6920   -0.0339   -3.5335 H   0  0  0  0  0  0  0  0  0  0  0  0
    6.3891   -0.1267   -2.6979 H   0  0  0  0  0  0  0  0  0  0  0  0
    5.4250   -0.2050    1.9828 H   0  0  0  0  0  0  0  0  0  0  0  0
    6.0498   -1.7759    1.4238 H   0  0  0  0  0  0  0  0  0  0  0  0
    3.8652   -2.4161    0.5197 H   0  0  0  0  0  0  0  0  0  0  0  0
    3.7490   -2.0166    2.2378 H   0  0  0  0  0  0  0  0  0  0  0  0
  1  2  2  0
  2  3  1  0
  3  4  1  0
  4  5  1  0
  5  6  1  0
  6  7  1  0
  7  8  1  0
  8  9  1  0
  9 10  1  0
 10 11  1  0
 11 12  2  0
 11 13  1  0
 13 14  2  0
 14 15  1  0
 15 16  2  0
 16 17  1  0
 17 18  2  0
 18 19  1  0
  6 20  1  0
 20 21  1  0
  2 22  1  0
 22 23  1  0
 23 24  1  0
 24 25  1  0
 25 26  1  0
 26 27  2  0
 27 28  1  0
 28 29  2  0
 29 30  1  0
 29 31  1  0
 31 32  2  0
 25 33  1  0
 33 34  1  0
 21  3  1  0
 34 22  1  0
 19  9  2  0
 32 26  1  0
 19 14  1  0
  3 35  1  0
  4 36  1  0
  4 37  1  0
  5 38  1  0
  5 39  1  0
  6 40  1  0
  7 41  1  0
  7 42  1  0
  8 43  1  0
 10 44  1  0
 15 45  1  0
 16 46  1  0
 17 47  1  0
 18 48  1  0
 20 49  1  0
 20 50  1  0
 21 51  1  0
 21 52  1  0
 23 53  1  0
 23 54  1  0
 24 55  1  0
 24 56  1  0
 27 57  1  0
 28 58  1  0
 31 59  1  0
 32 60  1  0
 33 61  1  0
 33 62  1  0
 34 63  1  0
 34 64  1  0
M  END
$$$$
