
     RDKit          3D

 54 56  0  0  0  0  0  0  0  0999 V2000
    8.7414   -0.3511   -1.7245 C   0  0  0  0  0  0  0  0  0  0  0  0
    7.5833   -0.0174   -2.4790 O   0  0  0  0  0  0  0  0  0  0  0  0
    6.4288    0.1921   -1.7758 C   0  0  0  0  0  0  0  0  0  0  0  0
    5.3169    0.5080   -2.5597 C   0  0  0  0  0  0  0  0  0  0  0  0
    4.0717    0.7464   -1.9719 C   0  0  0  0  0  0  0  0  0  0  0  0
    3.9210    0.6756   -0.5821 C   0  0  0  0  0  0  0  0  0  0  0  0
    2.5801    0.9294    0.0665 C   0  0  0  0  0  0  0  0  0  0  0  0
    2.0555   -0.2956    0.6651 N   0  0  0  0  0  0  0  0  0  0  0  0
    0.7501   -0.1144    1.2997 C   0  0  0  0  0  0  0  0  0  0  0  0
   -0.4102   -0.0718    0.2941 C   0  0  0  0  0  0  0  0  0  0  0  0
   -1.7826    0.1371    0.9849 C   0  0  0  0  0  0  0  0  0  0  0  0
   -2.1696   -1.0432    1.8728 C   0  0  0  0  0  0  0  0  0  0  0  0
   -2.3061   -0.8603    3.2606 C   0  0  0  0  0  0  0  0  0  0  0  0
   -2.6567   -1.9297    4.0864 C   0  0  0  0  0  0  0  0  0  0  0  0
   -2.8748   -3.1832    3.5298 C   0  0  0  0  0  0  0  0  0  0  0  0
   -3.2123   -4.2080    4.3236 F   0  0  0  0  0  0  0  0  0  0  0  0
   -2.7499   -3.3888    2.1622 C   0  0  0  0  0  0  0  0  0  0  0  0
   -2.3985   -2.3216    1.3339 C   0  0  0  0  0  0  0  0  0  0  0  0
   -2.9134    0.5082    0.0239 C   0  0  0  0  0  0  0  0  0  0  0  0
   -3.9944    1.2675    0.5041 C   0  0  0  0  0  0  0  0  0  0  0  0
   -5.0613    1.6217   -0.3306 C   0  0  0  0  0  0  0  0  0  0  0  0
   -5.0706    1.2180   -1.6635 C   0  0  0  0  0  0  0  0  0  0  0  0
   -6.0442    1.4931   -2.5833 O   0  0  0  0  0  0  0  0  0  0  0  0
   -7.1593    2.2503   -2.1305 C   0  0  0  0  0  0  0  0  0  0  0  0
   -4.0069    0.4563   -2.1482 C   0  0  0  0  0  0  0  0  0  0  0  0
   -2.9408    0.0999   -1.3163 C   0  0  0  0  0  0  0  0  0  0  0  0
    5.0394    0.3547    0.2002 C   0  0  0  0  0  0  0  0  0  0  0  0
    6.2849    0.1151   -0.3911 C   0  0  0  0  0  0  0  0  0  0  0  0
    8.6036   -1.2943   -1.1855 H   0  0  0  0  0  0  0  0  0  0  0  0
    9.0146    0.4597   -1.0410 H   0  0  0  0  0  0  0  0  0  0  0  0
    9.5697   -0.4873   -2.4264 H   0  0  0  0  0  0  0  0  0  0  0  0
    5.4219    0.5675   -3.6403 H   0  0  0  0  0  0  0  0  0  0  0  0
    3.2246    0.9872   -2.6094 H   0  0  0  0  0  0  0  0  0  0  0  0
    2.7096    1.7058    0.8308 H   0  0  0  0  0  0  0  0  0  0  0  0
    1.8875    1.3296   -0.6822 H   0  0  0  0  0  0  0  0  0  0  0  0
    2.0089   -1.0246   -0.0458 H   0  0  0  0  0  0  0  0  0  0  0  0
    0.7526    0.7834    1.9295 H   0  0  0  0  0  0  0  0  0  0  0  0
    0.6086   -0.9635    1.9772 H   0  0  0  0  0  0  0  0  0  0  0  0
   -0.2465    0.7541   -0.4092 H   0  0  0  0  0  0  0  0  0  0  0  0
   -0.4048   -0.9956   -0.2984 H   0  0  0  0  0  0  0  0  0  0  0  0
   -1.6499    1.0190    1.6299 H   0  0  0  0  0  0  0  0  0  0  0  0
   -2.1390    0.1166    3.7091 H   0  0  0  0  0  0  0  0  0  0  0  0
   -2.7616   -1.7930    5.1578 H   0  0  0  0  0  0  0  0  0  0  0  0
   -2.9297   -4.3758    1.7484 H   0  0  0  0  0  0  0  0  0  0  0  0
   -2.3130   -2.4944    0.2635 H   0  0  0  0  0  0  0  0  0  0  0  0
   -4.0172    1.5873    1.5444 H   0  0  0  0  0  0  0  0  0  0  0  0
   -5.8674    2.2090    0.0955 H   0  0  0  0  0  0  0  0  0  0  0  0
   -6.8510    3.2475   -1.7996 H   0  0  0  0  0  0  0  0  0  0  0  0
   -7.7018    1.7208   -1.3403 H   0  0  0  0  0  0  0  0  0  0  0  0
   -7.8427    2.3768   -2.9757 H   0  0  0  0  0  0  0  0  0  0  0  0
   -4.0098    0.1317   -3.1862 H   0  0  0  0  0  0  0  0  0  0  0  0
   -2.1430   -0.5047   -1.7385 H   0  0  0  0  0  0  0  0  0  0  0  0
    4.9375    0.2807    1.2815 H   0  0  0  0  0  0  0  0  0  0  0  0
    7.1167   -0.1317    0.2595 H   0  0  0  0  0  0  0  0  0  0  0  0
  1  2  1  0
  2  3  1  0
  3  4  2  0
  4  5  1  0
  5  6  2  0
  6  7  1  0
  7  8  1  0
  8  9  1  0
  9 10  1  0
 10 11  1  0
 11 12  1  0
 12 13  2  0
 13 14  1  0
 14 15  2  0
 15 16  1  0
 15 17  1  0
 17 18  2  0
 11 19  1  0
 19 20  2  0
 20 21  1  0
 21 22  2  0
 22 23  1  0
 23 24  1  0
 22 25  1  0
 25 26  2  0
  6 27  1  0
 27 28  2  0
 28  3  1  0
 18 12  1  0
 26 19  1  0
  1 29  1  0
  1 30  1  0
  1 31  1  0
  4 32  1  0
  5 33  1  0
  7 34  1  0
  7 35  1  0
  8 36  1  0
  9 37  1  0
  9 38  1  0
 10 39  1  0
 10 40  1  0
 11 41  1  0
 13 42  1  0
 14 43  1  0
 17 44  1  0
 18 45  1  0
 20 46  1  0
 21 47  1  0
 24 48  1  0
 24 49  1  0
 24 50  1  0
 25 51  1  0
 26 52  1  0
 27 53  1  0
 28 54  1  0
M  END
$$$$
