
     RDKit          3D

 46 48  0  0  0  0  0  0  0  0999 V2000
   -2.7678    5.4217    0.1792 C   0  0  0  0  0  0  0  0  0  0  0  0
   -2.7247    3.9695    0.6163 C   0  0  0  0  0  0  0  0  0  0  0  0
   -1.4340    3.4078    0.3409 O   0  0  0  0  0  0  0  0  0  0  0  0
   -1.2840    2.8966   -0.9005 C   0  0  0  0  0  0  0  0  0  0  0  0
   -2.0988    2.8558   -1.8015 O   0  0  0  0  0  0  0  0  0  0  0  0
    0.1182    2.3607   -1.0285 C   0  0  0  0  0  0  0  0  0  0  0  0
    0.9367    2.7412   -1.9623 N   0  0  0  0  0  0  0  0  0  0  0  0
    2.1218    2.0971   -1.7255 N   0  0  0  0  0  0  0  0  0  0  0  0
    2.0588    1.1998   -0.5646 C   0  0  0  0  0  0  0  0  0  0  0  0
    2.5701   -0.1926   -0.9507 C   0  0  0  0  0  0  0  0  0  0  0  0
    2.8208   -0.4951   -2.1190 O   0  0  0  0  0  0  0  0  0  0  0  0
    2.7803   -1.2107    0.1221 C   0  0  0  0  0  0  0  0  0  0  0  0
    2.8151   -2.5618   -0.2489 C   0  0  0  0  0  0  0  0  0  0  0  0
    2.9895   -3.5542    0.7166 C   0  0  0  0  0  0  0  0  0  0  0  0
    3.1375   -3.2029    2.0565 C   0  0  0  0  0  0  0  0  0  0  0  0
    3.1153   -1.8605    2.4325 C   0  0  0  0  0  0  0  0  0  0  0  0
    2.9388   -0.8630    1.4694 C   0  0  0  0  0  0  0  0  0  0  0  0
    0.6113    1.3192   -0.0644 C   0  0  0  0  0  0  0  0  0  0  0  0
   -0.2458    0.0734   -0.0688 C   0  0  0  0  0  0  0  0  0  0  0  0
   -0.5920   -0.5810   -1.2611 C   0  0  0  0  0  0  0  0  0  0  0  0
   -1.3718   -1.7426   -1.2430 C   0  0  0  0  0  0  0  0  0  0  0  0
   -1.8197   -2.2686   -0.0332 C   0  0  0  0  0  0  0  0  0  0  0  0
   -2.5820   -3.3927    0.1245 O   0  0  0  0  0  0  0  0  0  0  0  0
   -2.9614   -4.0808   -1.0610 C   0  0  0  0  0  0  0  0  0  0  0  0
   -1.4819   -1.6204    1.1556 C   0  0  0  0  0  0  0  0  0  0  0  0
   -0.7050   -0.4596    1.1424 C   0  0  0  0  0  0  0  0  0  0  0  0
   -2.6192    5.5111   -0.9015 H   0  0  0  0  0  0  0  0  0  0  0  0
   -1.9656    5.9916    0.6594 H   0  0  0  0  0  0  0  0  0  0  0  0
   -3.7281    5.8764    0.4385 H   0  0  0  0  0  0  0  0  0  0  0  0
   -3.5234    3.3851    0.1447 H   0  0  0  0  0  0  0  0  0  0  0  0
   -2.8767    3.9062    1.6988 H   0  0  0  0  0  0  0  0  0  0  0  0
    2.6133    1.7801   -2.5672 H   0  0  0  0  0  0  0  0  0  0  0  0
    2.7608    1.6423    0.1508 H   0  0  0  0  0  0  0  0  0  0  0  0
    2.6958   -2.8484   -1.2923 H   0  0  0  0  0  0  0  0  0  0  0  0
    3.0078   -4.6005    0.4214 H   0  0  0  0  0  0  0  0  0  0  0  0
    3.2735   -3.9771    2.8081 H   0  0  0  0  0  0  0  0  0  0  0  0
    3.2393   -1.5920    3.4791 H   0  0  0  0  0  0  0  0  0  0  0  0
    2.9409    0.1696    1.8018 H   0  0  0  0  0  0  0  0  0  0  0  0
    0.6138    1.7698    0.9362 H   0  0  0  0  0  0  0  0  0  0  0  0
   -0.2520   -0.2013   -2.2257 H   0  0  0  0  0  0  0  0  0  0  0  0
   -1.6073   -2.2094   -2.1939 H   0  0  0  0  0  0  0  0  0  0  0  0
   -3.5790   -3.4465   -1.7056 H   0  0  0  0  0  0  0  0  0  0  0  0
   -2.0837   -4.4560   -1.5976 H   0  0  0  0  0  0  0  0  0  0  0  0
   -3.5656   -4.9445   -0.7670 H   0  0  0  0  0  0  0  0  0  0  0  0
   -1.8278   -2.0267    2.1033 H   0  0  0  0  0  0  0  0  0  0  0  0
   -0.4623    0.0137    2.0912 H   0  0  0  0  0  0  0  0  0  0  0  0
  1  2  1  0
  2  3  1  0
  3  4  1  0
  4  5  2  0
  4  6  1  0
  6  7  2  0
  7  8  1  0
  8  9  1  0
  9 10  1  0
 10 11  2  0
 10 12  1  0
 12 13  2  0
 13 14  1  0
 14 15  2  0
 15 16  1  0
 16 17  2  0
  9 18  1  0
 18 19  1  0
 19 20  2  0
 20 21  1  0
 21 22  2  0
 22 23  1  0
 23 24  1  0
 22 25  1  0
 25 26  2  0
 18  6  1  0
 26 19  1  0
 17 12  1  0
  1 27  1  0
  1 28  1  0
  1 29  1  0
  2 30  1  0
  2 31  1  0
  8 32  1  0
  9 33  1  0
 13 34  1  0
 14 35  1  0
 15 36  1  0
 16 37  1  0
 17 38  1  0
 18 39  1  0
 20 40  1  0
 21 41  1  0
 24 42  1  0
 24 43  1  0
 24 44  1  0
 25 45  1  0
 26 46  1  0
M  END
$$$$
