
     RDKit          3D

 49 52  0  0  0  0  0  0  0  0999 V2000
   -0.7955    4.8681    0.3086 C   0  0  0  0  0  0  0  0  0  0  0  0
   -0.6574    3.3899   -0.0461 C   0  0  0  0  0  0  0  0  0  0  0  0
   -0.6501    2.5252    1.2168 C   0  0  0  0  0  0  0  0  0  0  0  0
   -0.4587    1.0753    0.8761 C   0  0  0  0  0  0  0  0  0  0  0  0
    0.8030    0.6264    0.7562 N   0  0  0  0  0  0  0  0  0  0  0  0
    1.0381   -0.6520    0.3631 C   0  0  0  0  0  0  0  0  0  0  0  0
    2.3906   -1.0489    0.2414 N   0  0  0  0  0  0  0  0  0  0  0  0
    2.7618   -1.6725   -1.0533 C   0  0  0  0  0  0  0  0  0  0  0  0
    4.2698   -2.0450   -1.0943 C   0  0  0  0  0  0  0  0  0  0  0  0
    5.2063   -0.9576   -0.7584 N   0  0  0  0  0  0  0  0  0  0  0  0
    5.2433    0.0730   -1.8014 C   0  0  0  0  0  0  0  0  0  0  0  0
    4.8142   -0.4018    0.5535 C   0  0  0  0  0  0  0  0  0  0  0  0
    3.3324    0.0231    0.6717 C   0  0  0  0  0  0  0  0  0  0  0  0
   -0.0504   -1.4893    0.1526 C   0  0  0  0  0  0  0  0  0  0  0  0
   -0.1716   -3.1967   -0.3039 S   0  0  0  0  0  0  0  0  0  0  0  0
   -1.9442   -3.1500   -0.3134 C   0  0  0  0  0  0  0  0  0  0  0  0
   -2.8268   -4.5322   -0.6448 S   0  0  0  0  0  0  0  0  0  0  0  0
   -2.3713   -1.8708    0.0473 N   0  0  0  0  0  0  0  0  0  0  0  0
   -3.7228   -1.4529    0.1940 C   0  0  0  0  0  0  0  0  0  0  0  0
   -4.6701   -1.7081   -0.8131 C   0  0  0  0  0  0  0  0  0  0  0  0
   -6.0081   -1.3340   -0.6490 C   0  0  0  0  0  0  0  0  0  0  0  0
   -6.4207   -0.7019    0.5258 C   0  0  0  0  0  0  0  0  0  0  0  0
   -5.4887   -0.4190    1.5237 C   0  0  0  0  0  0  0  0  0  0  0  0
   -4.1485   -0.7820    1.3539 C   0  0  0  0  0  0  0  0  0  0  0  0
   -1.3180   -0.9474    0.3262 C   0  0  0  0  0  0  0  0  0  0  0  0
   -1.5458    0.3364    0.6563 N   0  0  0  0  0  0  0  0  0  0  0  0
    0.0899    5.2079    0.8705 H   0  0  0  0  0  0  0  0  0  0  0  0
   -1.6844    5.0396    0.9267 H   0  0  0  0  0  0  0  0  0  0  0  0
   -0.8893    5.4713   -0.6008 H   0  0  0  0  0  0  0  0  0  0  0  0
    0.2673    3.2318   -0.6146 H   0  0  0  0  0  0  0  0  0  0  0  0
   -1.4901    3.0964   -0.7034 H   0  0  0  0  0  0  0  0  0  0  0  0
   -1.5947    2.6489    1.7603 H   0  0  0  0  0  0  0  0  0  0  0  0
    0.1543    2.8429    1.8932 H   0  0  0  0  0  0  0  0  0  0  0  0
    2.2432   -2.6177   -1.2136 H   0  0  0  0  0  0  0  0  0  0  0  0
    2.5042   -1.0218   -1.9063 H   0  0  0  0  0  0  0  0  0  0  0  0
    4.4424   -2.8570   -0.3689 H   0  0  0  0  0  0  0  0  0  0  0  0
    4.5235   -2.4844   -2.0742 H   0  0  0  0  0  0  0  0  0  0  0  0
    6.0212    0.8280   -1.5874 H   0  0  0  0  0  0  0  0  0  0  0  0
    5.5174   -0.3894   -2.7597 H   0  0  0  0  0  0  0  0  0  0  0  0
    4.2968    0.5985   -1.9299 H   0  0  0  0  0  0  0  0  0  0  0  0
    5.4539    0.4500    0.8161 H   0  0  0  0  0  0  0  0  0  0  0  0
    5.0246   -1.1569    1.3300 H   0  0  0  0  0  0  0  0  0  0  0  0
    3.1567    0.2596    1.7351 H   0  0  0  0  0  0  0  0  0  0  0  0
    3.1755    0.9390    0.0822 H   0  0  0  0  0  0  0  0  0  0  0  0
   -4.3783   -2.1731   -1.7576 H   0  0  0  0  0  0  0  0  0  0  0  0
   -6.7289   -1.5539   -1.4328 H   0  0  0  0  0  0  0  0  0  0  0  0
   -7.4644   -0.4282    0.6585 H   0  0  0  0  0  0  0  0  0  0  0  0
   -5.8029    0.0838    2.4299 H   0  0  0  0  0  0  0  0  0  0  0  0
   -3.4489   -0.5708    2.1573 H   0  0  0  0  0  0  0  0  0  0  0  0
  1  2  1  0
  2  3  1  0
  3  4  1  0
  4  5  2  0
  5  6  1  0
  6  7  1  0
  7  8  1  0
  8  9  1  0
  9 10  1  0
 10 11  1  0
 10 12  1  0
 12 13  1  0
  6 14  2  0
 14 15  1  0
 15 16  1  0
 16 17  2  0
 16 18  1  0
 18 19  1  0
 19 20  2  0
 20 21  1  0
 21 22  2  0
 22 23  1  0
 23 24  2  0
 18 25  1  0
 25 26  2  0
 26  4  1  0
 13  7  1  0
 25 14  1  0
 24 19  1  0
  1 27  1  0
  1 28  1  0
  1 29  1  0
  2 30  1  0
  2 31  1  0
  3 32  1  0
  3 33  1  0
  8 34  1  0
  8 35  1  0
  9 36  1  0
  9 37  1  0
 11 38  1  0
 11 39  1  0
 11 40  1  0
 12 41  1  0
 12 42  1  0
 13 43  1  0
 13 44  1  0
 20 45  1  0
 21 46  1  0
 22 47  1  0
 23 48  1  0
 24 49  1  0
M  END
$$$$
