
     RDKit          3D

 59 62  0  0  0  0  0  0  0  0999 V2000
    7.6028    0.8493   -5.6819 C   0  0  0  0  0  0  0  0  0  0  0  0
    6.6980    0.0384   -4.8018 C   0  0  0  0  0  0  0  0  0  0  0  0
    5.6515   -0.7090   -5.3545 C   0  0  0  0  0  0  0  0  0  0  0  0
    4.7913   -1.4416   -4.5323 C   0  0  0  0  0  0  0  0  0  0  0  0
    4.9609   -1.4355   -3.1418 C   0  0  0  0  0  0  0  0  0  0  0  0
    4.0257   -2.2037   -2.2445 C   0  0  0  0  0  0  0  0  0  0  0  0
    2.9846   -1.3412   -1.7334 N   0  0  0  0  0  0  0  0  0  0  0  0
    3.0595   -0.7839   -0.4750 C   0  0  0  0  0  0  0  0  0  0  0  0
    3.9313   -1.0607    0.3403 O   0  0  0  0  0  0  0  0  0  0  0  0
    1.9414    0.2050   -0.2092 C   0  0  0  0  0  0  0  0  0  0  0  0
    2.0456    0.8387    1.1771 C   0  0  0  0  0  0  0  0  0  0  0  0
    1.0461    1.9773    1.3792 C   0  0  0  0  0  0  0  0  0  0  0  0
   -0.3410    1.5272    1.3693 N   0  0  0  0  0  0  0  0  0  0  0  0
   -0.9931    1.5900    0.1314 N   0  0  0  0  0  0  0  0  0  0  0  0
   -2.2345    1.2105    0.0064 C   0  0  0  0  0  0  0  0  0  0  0  0
   -2.8790    1.3163   -1.3464 C   0  0  0  0  0  0  0  0  0  0  0  0
   -2.9410    0.7029    1.1564 C   0  0  0  0  0  0  0  0  0  0  0  0
   -4.2049    0.1725    1.3562 C   0  0  0  0  0  0  0  0  0  0  0  0
   -5.2539   -0.1903    0.3687 C   0  0  0  0  0  0  0  0  0  0  0  0
   -4.3060   -0.0322    2.7384 N   0  0  0  0  0  0  0  0  0  0  0  0
   -5.4379   -0.3464    3.5533 C   0  0  0  0  0  0  0  0  0  0  0  0
   -6.7543   -0.1436    3.1206 C   0  0  0  0  0  0  0  0  0  0  0  0
   -7.8298   -0.4552    3.9599 C   0  0  0  0  0  0  0  0  0  0  0  0
   -7.6025   -0.9577    5.2389 C   0  0  0  0  0  0  0  0  0  0  0  0
   -6.2981   -1.1403    5.6893 C   0  0  0  0  0  0  0  0  0  0  0  0
   -5.2211   -0.8298    4.8559 C   0  0  0  0  0  0  0  0  0  0  0  0
   -3.0944    0.1175    3.3390 N   0  0  0  0  0  0  0  0  0  0  0  0
   -2.2997    0.6293    2.3971 C   0  0  0  0  0  0  0  0  0  0  0  0
   -0.9141    1.0469    2.5670 C   0  0  0  0  0  0  0  0  0  0  0  0
   -0.3098    0.9891    3.6356 O   0  0  0  0  0  0  0  0  0  0  0  0
    5.9945   -0.6672   -2.5894 C   0  0  0  0  0  0  0  0  0  0  0  0
    6.8536    0.0648   -3.4117 C   0  0  0  0  0  0  0  0  0  0  0  0
    8.6055    0.9242   -5.2484 H   0  0  0  0  0  0  0  0  0  0  0  0
    7.7096    0.3839   -6.6668 H   0  0  0  0  0  0  0  0  0  0  0  0
    7.1955    1.8567   -5.8102 H   0  0  0  0  0  0  0  0  0  0  0  0
    5.5011   -0.7266   -6.4317 H   0  0  0  0  0  0  0  0  0  0  0  0
    3.9887   -2.0175   -4.9872 H   0  0  0  0  0  0  0  0  0  0  0  0
    4.5830   -2.6728   -1.4257 H   0  0  0  0  0  0  0  0  0  0  0  0
    3.5348   -3.0073   -2.8048 H   0  0  0  0  0  0  0  0  0  0  0  0
    2.3561   -0.9264   -2.4068 H   0  0  0  0  0  0  0  0  0  0  0  0
    0.9900   -0.3286   -0.3125 H   0  0  0  0  0  0  0  0  0  0  0  0
    1.9882    0.9834   -0.9797 H   0  0  0  0  0  0  0  0  0  0  0  0
    3.0564    1.2411    1.3186 H   0  0  0  0  0  0  0  0  0  0  0  0
    1.9041    0.0680    1.9444 H   0  0  0  0  0  0  0  0  0  0  0  0
    1.2472    2.4613    2.3420 H   0  0  0  0  0  0  0  0  0  0  0  0
    1.1707    2.7435    0.6046 H   0  0  0  0  0  0  0  0  0  0  0  0
   -2.2557    1.9135   -2.0185 H   0  0  0  0  0  0  0  0  0  0  0  0
   -3.8580    1.7959   -1.2632 H   0  0  0  0  0  0  0  0  0  0  0  0
   -2.9918    0.3173   -1.7760 H   0  0  0  0  0  0  0  0  0  0  0  0
   -5.9155    0.6590    0.1750 H   0  0  0  0  0  0  0  0  0  0  0  0
   -4.8071   -0.4913   -0.5828 H   0  0  0  0  0  0  0  0  0  0  0  0
   -5.8465   -1.0492    0.6972 H   0  0  0  0  0  0  0  0  0  0  0  0
   -6.9896    0.2983    2.1604 H   0  0  0  0  0  0  0  0  0  0  0  0
   -8.8496   -0.2899    3.6192 H   0  0  0  0  0  0  0  0  0  0  0  0
   -8.4403   -1.1945    5.8893 H   0  0  0  0  0  0  0  0  0  0  0  0
   -6.1136   -1.5216    6.6908 H   0  0  0  0  0  0  0  0  0  0  0  0
   -4.2112   -0.9807    5.2365 H   0  0  0  0  0  0  0  0  0  0  0  0
    6.1303   -0.6330   -1.5088 H   0  0  0  0  0  0  0  0  0  0  0  0
    7.6457    0.6557   -2.9571 H   0  0  0  0  0  0  0  0  0  0  0  0
  1  2  1  0
  2  3  2  0
  3  4  1  0
  4  5  2  0
  5  6  1  0
  6  7  1  0
  7  8  1  0
  8  9  2  0
  8 10  1  0
 10 11  1  0
 11 12  1  0
 12 13  1  0
 13 14  1  0
 14 15  2  0
 15 16  1  0
 15 17  1  0
 17 18  2  0
 18 19  1  0
 18 20  1  0
 20 21  1  0
 21 22  2  0
 22 23  1  0
 23 24  2  0
 24 25  1  0
 25 26  2  0
 20 27  1  0
 27 28  2  0
 28 29  1  0
 29 30  2  0
  5 31  1  0
 31 32  2  0
 32  2  1  0
 29 13  1  0
 28 17  1  0
 26 21  1  0
  1 33  1  0
  1 34  1  0
  1 35  1  0
  3 36  1  0
  4 37  1  0
  6 38  1  0
  6 39  1  0
  7 40  1  0
 10 41  1  0
 10 42  1  0
 11 43  1  0
 11 44  1  0
 12 45  1  0
 12 46  1  0
 16 47  1  0
 16 48  1  0
 16 49  1  0
 19 50  1  0
 19 51  1  0
 19 52  1  0
 22 53  1  0
 23 54  1  0
 24 55  1  0
 25 56  1  0
 26 57  1  0
 31 58  1  0
 32 59  1  0
M  END
$$$$
