
     RDKit          3D

 48 51  0  0  0  0  0  0  0  0999 V2000
    4.0251    2.1851   -1.1447 C   0  0  0  0  0  0  0  0  0  0  0  0
    2.9940    1.0587   -1.1565 C   0  0  0  0  0  0  0  0  0  0  0  0
    1.6435    1.5798   -1.6495 C   0  0  0  0  0  0  0  0  0  0  0  0
    2.8795    0.4232    0.2351 C   0  0  0  0  0  0  0  0  0  0  0  0
    1.9845   -0.6929    0.1657 O   0  0  0  0  0  0  0  0  0  0  0  0
    1.9780   -1.4779    1.2727 C   0  0  0  0  0  0  0  0  0  0  0  0
    2.6825   -1.3491    2.2610 O   0  0  0  0  0  0  0  0  0  0  0  0
    1.0887   -2.6361    1.0257 C   0  0  0  0  0  0  0  0  0  0  0  0
    1.6705   -3.8965    1.2471 C   0  0  0  0  0  0  0  0  0  0  0  0
    0.9940   -5.0617    0.8880 C   0  0  0  0  0  0  0  0  0  0  0  0
   -0.2635   -4.9769    0.2973 C   0  0  0  0  0  0  0  0  0  0  0  0
   -0.8602   -3.7303    0.0899 C   0  0  0  0  0  0  0  0  0  0  0  0
   -0.2020   -2.5489    0.4744 C   0  0  0  0  0  0  0  0  0  0  0  0
   -0.9032   -1.3100    0.3553 N   0  0  0  0  0  0  0  0  0  0  0  0
   -1.7601   -0.9411   -0.7051 C   0  0  0  0  0  0  0  0  0  0  0  0
   -1.9410   -1.6972   -1.7841 O   0  0  0  0  0  0  0  0  0  0  0  0
   -2.2633    0.2886   -0.3969 C   0  0  0  0  0  0  0  0  0  0  0  0
   -1.7583    0.6895    0.8518 C   0  0  0  0  0  0  0  0  0  0  0  0
   -0.9408   -0.2904    1.3310 C   0  0  0  0  0  0  0  0  0  0  0  0
   -0.3201   -0.3960    2.5003 O   0  0  0  0  0  0  0  0  0  0  0  0
   -2.3681    2.0181    1.1729 C   0  0  0  0  0  0  0  0  0  0  0  0
   -1.7716    3.0659    0.2001 C   0  0  0  0  0  0  0  0  0  0  0  0
   -2.3135    2.6202   -1.1975 C   0  0  0  0  0  0  0  0  0  0  0  0
   -3.1771    1.3732   -0.8739 C   0  0  0  0  0  0  0  0  0  0  0  0
   -3.7683    1.8303    0.5004 C   0  0  0  0  0  0  0  0  0  0  0  0
    5.0070    1.8104   -0.8369 H   0  0  0  0  0  0  0  0  0  0  0  0
    4.1335    2.6244   -2.1419 H   0  0  0  0  0  0  0  0  0  0  0  0
    3.7346    2.9829   -0.4526 H   0  0  0  0  0  0  0  0  0  0  0  0
    3.3245    0.2872   -1.8637 H   0  0  0  0  0  0  0  0  0  0  0  0
    0.9063    0.7738   -1.7158 H   0  0  0  0  0  0  0  0  0  0  0  0
    1.2498    2.3484   -0.9774 H   0  0  0  0  0  0  0  0  0  0  0  0
    1.7391    2.0217   -2.6471 H   0  0  0  0  0  0  0  0  0  0  0  0
    2.4892    1.1474    0.9602 H   0  0  0  0  0  0  0  0  0  0  0  0
    3.8700    0.0845    0.5630 H   0  0  0  0  0  0  0  0  0  0  0  0
    2.6683   -3.9674    1.6766 H   0  0  0  0  0  0  0  0  0  0  0  0
    1.4543   -6.0320    1.0557 H   0  0  0  0  0  0  0  0  0  0  0  0
   -0.7919   -5.8828    0.0100 H   0  0  0  0  0  0  0  0  0  0  0  0
   -1.8627   -3.7028   -0.3313 H   0  0  0  0  0  0  0  0  0  0  0  0
   -2.5177   -1.1974   -2.3878 H   0  0  0  0  0  0  0  0  0  0  0  0
   -0.4936    0.4200    3.0010 H   0  0  0  0  0  0  0  0  0  0  0  0
   -2.3821    2.2967    2.2263 H   0  0  0  0  0  0  0  0  0  0  0  0
   -0.6775    3.0818    0.2206 H   0  0  0  0  0  0  0  0  0  0  0  0
   -2.1374    4.0715    0.4364 H   0  0  0  0  0  0  0  0  0  0  0  0
   -1.4950    2.3955   -1.8897 H   0  0  0  0  0  0  0  0  0  0  0  0
   -2.9262    3.4191   -1.6299 H   0  0  0  0  0  0  0  0  0  0  0  0
   -3.9055    1.0860   -1.6318 H   0  0  0  0  0  0  0  0  0  0  0  0
   -4.3506    2.7562    0.4385 H   0  0  0  0  0  0  0  0  0  0  0  0
   -4.3657    1.0470    0.9836 H   0  0  0  0  0  0  0  0  0  0  0  0
  1  2  1  0
  2  3  1  0
  2  4  1  0
  4  5  1  0
  5  6  1  0
  6  7  2  0
  6  8  1  0
  8  9  2  0
  9 10  1  0
 10 11  2  0
 11 12  1  0
 12 13  2  0
 13 14  1  0
 14 15  1  0
 15 16  1  0
 15 17  2  0
 17 18  1  0
 18 19  2  0
 19 20  1  0
 18 21  1  0
 21 22  1  0
 22 23  1  0
 23 24  1  0
 24 25  1  0
 13  8  1  0
 19 14  1  0
 25 21  1  0
 24 17  1  0
  1 26  1  0
  1 27  1  0
  1 28  1  0
  2 29  1  0
  3 30  1  0
  3 31  1  0
  3 32  1  0
  4 33  1  0
  4 34  1  0
  9 35  1  0
 10 36  1  0
 11 37  1  0
 12 38  1  0
 16 39  1  0
 20 40  1  0
 21 41  1  0
 22 42  1  0
 22 43  1  0
 23 44  1  0
 23 45  1  0
 24 46  1  0
 25 47  1  0
 25 48  1  0
M  END
$$$$
