
     RDKit          3D

 43 46  0  0  0  0  0  0  0  0999 V2000
    8.0620    1.3984    0.5416 C   0  0  0  0  0  0  0  0  0  0  0  0
    6.5917    1.1219    0.4235 C   0  0  0  0  0  0  0  0  0  0  0  0
    5.7065    1.5575    1.4175 C   0  0  0  0  0  0  0  0  0  0  0  0
    4.3323    1.3312    1.2943 C   0  0  0  0  0  0  0  0  0  0  0  0
    3.8301    0.6655    0.1689 C   0  0  0  0  0  0  0  0  0  0  0  0
    2.3729    0.3999   -0.0080 C   0  0  0  0  0  0  0  0  0  0  0  0
    1.9179    0.4005   -1.1450 O   0  0  0  0  0  0  0  0  0  0  0  0
    1.6917    0.1440    1.1548 N   0  0  0  0  0  0  0  0  0  0  0  0
    0.3360   -0.1163    1.2667 C   0  0  0  0  0  0  0  0  0  0  0  0
   -0.0658   -0.3849    2.5205 N   0  0  0  0  0  0  0  0  0  0  0  0
   -1.3816   -0.6433    2.6929 C   0  0  0  0  0  0  0  0  0  0  0  0
   -2.2932   -0.6360    1.6629 C   0  0  0  0  0  0  0  0  0  0  0  0
   -1.7935   -0.3426    0.4128 C   0  0  0  0  0  0  0  0  0  0  0  0
   -0.4833   -0.0840    0.2080 N   0  0  0  0  0  0  0  0  0  0  0  0
   -2.6870   -0.3328   -0.7971 C   0  0  0  0  0  0  0  0  0  0  0  0
   -4.1230    0.0378   -0.4091 C   0  0  0  0  0  0  0  0  0  0  0  0
   -5.0213    0.0223   -1.5997 C   0  0  0  0  0  0  0  0  0  0  0  0
   -5.7432    1.0004   -2.2510 C   0  0  0  0  0  0  0  0  0  0  0  0
   -6.4028    0.3583   -3.3265 C   0  0  0  0  0  0  0  0  0  0  0  0
   -6.0417   -0.9666   -3.2624 C   0  0  0  0  0  0  0  0  0  0  0  0
   -5.2034   -1.1799   -2.2164 O   0  0  0  0  0  0  0  0  0  0  0  0
   -4.6391   -0.9023    0.6839 C   0  0  0  0  0  0  0  0  0  0  0  0
   -3.7200   -0.9141    1.8838 C   0  0  0  0  0  0  0  0  0  0  0  0
   -4.1176   -1.1864    3.0122 O   0  0  0  0  0  0  0  0  0  0  0  0
    4.7089    0.2587   -0.8415 C   0  0  0  0  0  0  0  0  0  0  0  0
    6.0813    0.4857   -0.7143 C   0  0  0  0  0  0  0  0  0  0  0  0
    8.3744    1.4069    1.5911 H   0  0  0  0  0  0  0  0  0  0  0  0
    8.6468    0.6233    0.0353 H   0  0  0  0  0  0  0  0  0  0  0  0
    8.2973    2.3689    0.0941 H   0  0  0  0  0  0  0  0  0  0  0  0
    6.0829    2.0861    2.2913 H   0  0  0  0  0  0  0  0  0  0  0  0
    3.6704    1.7097    2.0680 H   0  0  0  0  0  0  0  0  0  0  0  0
    2.1756    0.0576    2.0332 H   0  0  0  0  0  0  0  0  0  0  0  0
   -1.6814   -0.8615    3.7149 H   0  0  0  0  0  0  0  0  0  0  0  0
   -2.3007    0.3837   -1.5330 H   0  0  0  0  0  0  0  0  0  0  0  0
   -2.6472   -1.3266   -1.2613 H   0  0  0  0  0  0  0  0  0  0  0  0
   -4.1153    1.0601   -0.0025 H   0  0  0  0  0  0  0  0  0  0  0  0
   -5.7869    2.0478   -1.9854 H   0  0  0  0  0  0  0  0  0  0  0  0
   -7.0592    0.8049   -4.0601 H   0  0  0  0  0  0  0  0  0  0  0  0
   -6.2814   -1.8384   -3.8552 H   0  0  0  0  0  0  0  0  0  0  0  0
   -5.6299   -0.5697    1.0168 H   0  0  0  0  0  0  0  0  0  0  0  0
   -4.7333   -1.9339    0.3239 H   0  0  0  0  0  0  0  0  0  0  0  0
    4.3253   -0.2356   -1.7322 H   0  0  0  0  0  0  0  0  0  0  0  0
    6.7478    0.1653   -1.5124 H   0  0  0  0  0  0  0  0  0  0  0  0
  1  2  1  0
  2  3  2  0
  3  4  1  0
  4  5  2  0
  5  6  1  0
  6  7  2  0
  6  8  1  0
  8  9  1  0
  9 10  2  0
 10 11  1  0
 11 12  2  0
 12 13  1  0
 13 14  2  0
 13 15  1  0
 15 16  1  0
 16 17  1  0
 17 18  2  0
 18 19  1  0
 19 20  2  0
 20 21  1  0
 16 22  1  0
 22 23  1  0
 23 24  2  0
  5 25  1  0
 25 26  2  0
 26  2  1  0
 14  9  1  0
 21 17  1  0
 23 12  1  0
  1 27  1  0
  1 28  1  0
  1 29  1  0
  3 30  1  0
  4 31  1  0
  8 32  1  0
 11 33  1  0
 15 34  1  0
 15 35  1  0
 16 36  1  0
 18 37  1  0
 19 38  1  0
 20 39  1  0
 22 40  1  0
 22 41  1  0
 25 42  1  0
 26 43  1  0
M  END
$$$$
