
     RDKit          3D

 54 57  0  0  0  0  0  0  0  0999 V2000
   -3.7035   -4.8906   -1.9624 C   0  0  0  0  0  0  0  0  0  0  0  0
   -2.9353   -3.7997   -2.4540 O   0  0  0  0  0  0  0  0  0  0  0  0
   -3.0149   -2.6250   -1.7585 C   0  0  0  0  0  0  0  0  0  0  0  0
   -3.7761   -2.3991   -0.6121 C   0  0  0  0  0  0  0  0  0  0  0  0
   -3.7649   -1.1411    0.0036 C   0  0  0  0  0  0  0  0  0  0  0  0
   -2.9950   -0.0935   -0.5193 C   0  0  0  0  0  0  0  0  0  0  0  0
   -2.9700    1.2211    0.1342 C   0  0  0  0  0  0  0  0  0  0  0  0
   -4.4210    2.1268    0.1934 S   0  0  0  0  0  0  0  0  0  0  0  0
   -3.6764    3.4426    1.0069 C   0  0  0  0  0  0  0  0  0  0  0  0
   -4.2965    4.6396    1.4187 C   0  0  0  0  0  0  0  0  0  0  0  0
   -3.5358    5.6064    2.0787 C   0  0  0  0  0  0  0  0  0  0  0  0
   -2.1889    5.3914    2.3278 C   0  0  0  0  0  0  0  0  0  0  0  0
   -1.5784    4.2030    1.9162 C   0  0  0  0  0  0  0  0  0  0  0  0
   -2.3208    3.2009    1.2371 C   0  0  0  0  0  0  0  0  0  0  0  0
   -1.9184    1.9099    0.7203 C   0  0  0  0  0  0  0  0  0  0  0  0
   -0.5723    1.3493    0.7876 C   0  0  0  0  0  0  0  0  0  0  0  0
   -0.3019    0.2433    1.5976 C   0  0  0  0  0  0  0  0  0  0  0  0
    0.9910   -0.2825    1.6512 C   0  0  0  0  0  0  0  0  0  0  0  0
    2.0246    0.2860    0.9021 C   0  0  0  0  0  0  0  0  0  0  0  0
    3.2367   -0.3288    1.0472 O   0  0  0  0  0  0  0  0  0  0  0  0
    4.3071    0.1322    0.2207 C   0  0  0  0  0  0  0  0  0  0  0  0
    5.5659   -0.7235    0.4714 C   0  0  0  0  0  0  0  0  0  0  0  0
    5.6258   -2.0791   -0.1096 N   0  0  0  0  0  0  0  0  0  0  0  0
    4.5750   -2.9565    0.4014 C   0  0  0  0  0  0  0  0  0  0  0  0
    5.6280   -2.0707   -1.5694 C   0  0  0  0  0  0  0  0  0  0  0  0
    1.7573    1.3965    0.1010 C   0  0  0  0  0  0  0  0  0  0  0  0
    0.4632    1.9267    0.0444 C   0  0  0  0  0  0  0  0  0  0  0  0
   -2.2331   -0.3275   -1.6692 C   0  0  0  0  0  0  0  0  0  0  0  0
   -2.2451   -1.5838   -2.2815 C   0  0  0  0  0  0  0  0  0  0  0  0
   -3.3810   -5.1789   -0.9564 H   0  0  0  0  0  0  0  0  0  0  0  0
   -4.7740   -4.6616   -1.9848 H   0  0  0  0  0  0  0  0  0  0  0  0
   -3.5322   -5.7451   -2.6242 H   0  0  0  0  0  0  0  0  0  0  0  0
   -4.3883   -3.1767   -0.1683 H   0  0  0  0  0  0  0  0  0  0  0  0
   -4.3599   -0.9878    0.9015 H   0  0  0  0  0  0  0  0  0  0  0  0
   -5.3527    4.8083    1.2277 H   0  0  0  0  0  0  0  0  0  0  0  0
   -4.0063    6.5322    2.4013 H   0  0  0  0  0  0  0  0  0  0  0  0
   -1.6035    6.1464    2.8468 H   0  0  0  0  0  0  0  0  0  0  0  0
   -0.5225    4.0465    2.1252 H   0  0  0  0  0  0  0  0  0  0  0  0
   -1.0900   -0.2170    2.1883 H   0  0  0  0  0  0  0  0  0  0  0  0
    1.1936   -1.1459    2.2802 H   0  0  0  0  0  0  0  0  0  0  0  0
    4.5462    1.1666    0.4973 H   0  0  0  0  0  0  0  0  0  0  0  0
    4.0263    0.1033   -0.8376 H   0  0  0  0  0  0  0  0  0  0  0  0
    5.7185   -0.8152    1.5546 H   0  0  0  0  0  0  0  0  0  0  0  0
    6.4340   -0.1660    0.0966 H   0  0  0  0  0  0  0  0  0  0  0  0
    4.7639   -3.9901    0.0897 H   0  0  0  0  0  0  0  0  0  0  0  0
    3.5789   -2.6774    0.0422 H   0  0  0  0  0  0  0  0  0  0  0  0
    4.5660   -2.9591    1.4969 H   0  0  0  0  0  0  0  0  0  0  0  0
    5.8250   -3.0778   -1.9541 H   0  0  0  0  0  0  0  0  0  0  0  0
    6.4289   -1.4289   -1.9528 H   0  0  0  0  0  0  0  0  0  0  0  0
    4.6777   -1.7291   -1.9929 H   0  0  0  0  0  0  0  0  0  0  0  0
    2.5295    1.8760   -0.4905 H   0  0  0  0  0  0  0  0  0  0  0  0
    0.2683    2.7900   -0.5882 H   0  0  0  0  0  0  0  0  0  0  0  0
   -1.6252    0.4650   -2.0987 H   0  0  0  0  0  0  0  0  0  0  0  0
   -1.6477   -1.7518   -3.1742 H   0  0  0  0  0  0  0  0  0  0  0  0
  1  2  1  0
  2  3  1  0
  3  4  2  0
  4  5  1  0
  5  6  2  0
  6  7  1  0
  7  8  1  0
  8  9  1  0
  9 10  2  0
 10 11  1  0
 11 12  2  0
 12 13  1  0
 13 14  2  0
 14 15  1  0
 15 16  1  0
 16 17  2  0
 17 18  1  0
 18 19  2  0
 19 20  1  0
 20 21  1  0
 21 22  1  0
 22 23  1  0
 23 24  1  0
 23 25  1  0
 19 26  1  0
 26 27  2  0
  6 28  1  0
 28 29  2  0
 29  3  1  0
 15  7  2  0
 27 16  1  0
 14  9  1  0
  1 30  1  0
  1 31  1  0
  1 32  1  0
  4 33  1  0
  5 34  1  0
 10 35  1  0
 11 36  1  0
 12 37  1  0
 13 38  1  0
 17 39  1  0
 18 40  1  0
 21 41  1  0
 21 42  1  0
 22 43  1  0
 22 44  1  0
 24 45  1  0
 24 46  1  0
 24 47  1  0
 25 48  1  0
 25 49  1  0
 25 50  1  0
 26 51  1  0
 27 52  1  0
 28 53  1  0
 29 54  1  0
M  END
$$$$
