
     RDKit          3D

 52 55  0  0  0  0  0  0  0  0999 V2000
   -8.9685   -1.2272   -0.1550 C   0  0  0  0  0  0  0  0  0  0  0  0
   -8.1526   -0.4841    0.7416 O   0  0  0  0  0  0  0  0  0  0  0  0
   -6.8548   -0.8926    0.8795 C   0  0  0  0  0  0  0  0  0  0  0  0
   -6.2645   -1.9834    0.2407 C   0  0  0  0  0  0  0  0  0  0  0  0
   -4.9189   -2.2919    0.4736 C   0  0  0  0  0  0  0  0  0  0  0  0
   -4.1534   -1.5109    1.3444 C   0  0  0  0  0  0  0  0  0  0  0  0
   -2.7470   -1.8454    1.5776 C   0  0  0  0  0  0  0  0  0  0  0  0
   -1.6968   -1.2062    1.0423 C   0  0  0  0  0  0  0  0  0  0  0  0
   -1.7329    0.1465   -0.0163 S   0  0  0  0  0  0  0  0  0  0  0  0
   -0.0135    0.0022   -0.3388 C   0  0  0  0  0  0  0  0  0  0  0  0
    0.5389    0.6028   -1.4173 C   0  0  0  0  0  0  0  0  0  0  0  0
   -0.1719    1.5108   -2.2524 C   0  0  0  0  0  0  0  0  0  0  0  0
   -0.7186    2.2804   -2.9276 N   0  0  0  0  0  0  0  0  0  0  0  0
    1.8804    0.2086   -1.9172 C   0  0  0  0  0  0  0  0  0  0  0  0
    2.1381   -0.9597   -2.1841 O   0  0  0  0  0  0  0  0  0  0  0  0
    2.7648    1.2437   -2.0783 N   0  0  0  0  0  0  0  0  0  0  0  0
    4.1030    1.0189   -2.5773 C   0  0  0  0  0  0  0  0  0  0  0  0
    5.0008    2.0444   -1.9918 C   0  0  0  0  0  0  0  0  0  0  0  0
    6.2096    1.9763   -1.3304 C   0  0  0  0  0  0  0  0  0  0  0  0
    6.5665    3.3083   -1.0107 C   0  0  0  0  0  0  0  0  0  0  0  0
    5.5557    4.1039   -1.4960 C   0  0  0  0  0  0  0  0  0  0  0  0
    4.5980    3.3471   -2.0908 O   0  0  0  0  0  0  0  0  0  0  0  0
    0.5929   -0.8613    0.5814 N   0  0  0  0  0  0  0  0  0  0  0  0
    1.9822   -0.8858    0.9310 C   0  0  0  0  0  0  0  0  0  0  0  0
    2.6384   -2.0931    1.2029 C   0  0  0  0  0  0  0  0  0  0  0  0
    3.9898   -2.1078    1.5598 C   0  0  0  0  0  0  0  0  0  0  0  0
    4.6990   -0.9141    1.6655 C   0  0  0  0  0  0  0  0  0  0  0  0
    4.0560    0.2960    1.4220 C   0  0  0  0  0  0  0  0  0  0  0  0
    2.7057    0.3109    1.0615 C   0  0  0  0  0  0  0  0  0  0  0  0
   -0.3028   -1.6239    1.3542 C   0  0  0  0  0  0  0  0  0  0  0  0
   -0.0490   -2.4703    2.2023 O   0  0  0  0  0  0  0  0  0  0  0  0
   -4.7454   -0.4210    1.9870 C   0  0  0  0  0  0  0  0  0  0  0  0
   -6.0886   -0.1165    1.7527 C   0  0  0  0  0  0  0  0  0  0  0  0
   -8.5767   -1.1812   -1.1765 H   0  0  0  0  0  0  0  0  0  0  0  0
   -9.9627   -0.7701   -0.1592 H   0  0  0  0  0  0  0  0  0  0  0  0
   -9.0802   -2.2637    0.1801 H   0  0  0  0  0  0  0  0  0  0  0  0
   -6.8202   -2.6149   -0.4442 H   0  0  0  0  0  0  0  0  0  0  0  0
   -4.4755   -3.1454   -0.0347 H   0  0  0  0  0  0  0  0  0  0  0  0
   -2.5878   -2.6969    2.2374 H   0  0  0  0  0  0  0  0  0  0  0  0
    2.4959    2.2108   -1.9404 H   0  0  0  0  0  0  0  0  0  0  0  0
    4.0736    1.1126   -3.6674 H   0  0  0  0  0  0  0  0  0  0  0  0
    4.4398    0.0088   -2.3228 H   0  0  0  0  0  0  0  0  0  0  0  0
    6.7621    1.0738   -1.1070 H   0  0  0  0  0  0  0  0  0  0  0  0
    7.4525    3.6486   -0.4932 H   0  0  0  0  0  0  0  0  0  0  0  0
    5.3785    5.1707   -1.4998 H   0  0  0  0  0  0  0  0  0  0  0  0
    2.1147   -3.0425    1.1165 H   0  0  0  0  0  0  0  0  0  0  0  0
    4.4846   -3.0557    1.7560 H   0  0  0  0  0  0  0  0  0  0  0  0
    5.7482   -0.9284    1.9485 H   0  0  0  0  0  0  0  0  0  0  0  0
    4.6015    1.2313    1.5215 H   0  0  0  0  0  0  0  0  0  0  0  0
    2.2260    1.2755    0.9220 H   0  0  0  0  0  0  0  0  0  0  0  0
   -4.1722    0.1987    2.6721 H   0  0  0  0  0  0  0  0  0  0  0  0
   -6.5426    0.7344    2.2548 H   0  0  0  0  0  0  0  0  0  0  0  0
  1  2  1  0
  2  3  1  0
  3  4  2  0
  4  5  1  0
  5  6  2  0
  6  7  1  0
  7  8  2  3
  8  9  1  0
  9 10  1  0
 10 11  2  3
 11 12  1  0
 12 13  3  0
 11 14  1  0
 14 15  2  0
 14 16  1  0
 16 17  1  0
 17 18  1  0
 18 19  2  0
 19 20  1  0
 20 21  2  0
 21 22  1  0
 10 23  1  0
 23 24  1  0
 24 25  2  0
 25 26  1  0
 26 27  2  0
 27 28  1  0
 28 29  2  0
 23 30  1  0
 30 31  2  0
  6 32  1  0
 32 33  2  0
 33  3  1  0
 30  8  1  0
 22 18  1  0
 29 24  1  0
  1 34  1  0
  1 35  1  0
  1 36  1  0
  4 37  1  0
  5 38  1  0
  7 39  1  0
 16 40  1  0
 17 41  1  0
 17 42  1  0
 19 43  1  0
 20 44  1  0
 21 45  1  0
 25 46  1  0
 26 47  1  0
 27 48  1  0
 28 49  1  0
 29 50  1  0
 32 51  1  0
 33 52  1  0
M  END
$$$$
