
     RDKit          3D

 34 35  0  0  0  0  0  0  0  0999 V2000
   -1.9380   -1.8697    1.9638 C   0  0  0  0  0  0  0  0  0  0  0  0
   -0.8692   -1.2344    1.1942 N   0  0  0  0  0  0  0  0  0  0  0  0
    0.1773   -0.6652    1.9406 C   0  0  0  0  0  0  0  0  0  0  0  0
    0.2045   -0.7325    3.1737 O   0  0  0  0  0  0  0  0  0  0  0  0
    1.3314    0.0140    1.2186 C   0  0  0  0  0  0  0  0  0  0  0  0
    0.8920    1.7286    0.8182 S   0  0  0  0  0  0  0  0  0  0  0  0
    2.4277    2.2603    0.1114 C   0  0  0  0  0  0  0  0  0  0  0  0
    3.2527    1.3354   -0.4106 N   0  0  0  0  0  0  0  0  0  0  0  0
    4.3962    1.7958   -0.9532 C   0  0  0  0  0  0  0  0  0  0  0  0
    4.7343    3.1268   -0.9984 C   0  0  0  0  0  0  0  0  0  0  0  0
    3.8170    3.9874   -0.4466 C   0  0  0  0  0  0  0  0  0  0  0  0
    2.6603    3.5825    0.1082 N   0  0  0  0  0  0  0  0  0  0  0  0
   -1.0871   -0.9894   -0.2539 C   0  0  0  0  0  0  0  0  0  0  0  0
   -1.5429   -2.2188   -1.0591 C   0  0  0  0  0  0  0  0  0  0  0  0
   -3.0606   -2.2522   -1.0834 C   0  0  0  0  0  0  0  0  0  0  0  0
   -3.5660   -0.5506   -1.1414 S   0  0  0  0  0  6  0  0  0  0  0  0
   -3.7238   -0.1767   -2.5321 O   0  0  0  0  0  0  0  0  0  0  0  0
   -4.6164   -0.3525   -0.1652 O   0  0  0  0  0  0  0  0  0  0  0  0
   -2.0543    0.1681   -0.5337 C   0  0  0  0  0  0  0  0  0  0  0  0
   -2.8487   -1.2726    1.8755 H   0  0  0  0  0  0  0  0  0  0  0  0
   -1.6962   -1.9653    3.0254 H   0  0  0  0  0  0  0  0  0  0  0  0
   -2.1043   -2.8780    1.5781 H   0  0  0  0  0  0  0  0  0  0  0  0
    2.1909    0.0140    1.8997 H   0  0  0  0  0  0  0  0  0  0  0  0
    1.6271   -0.5674    0.3415 H   0  0  0  0  0  0  0  0  0  0  0  0
    5.0546    1.0361   -1.3651 H   0  0  0  0  0  0  0  0  0  0  0  0
    5.6582    3.4740   -1.4392 H   0  0  0  0  0  0  0  0  0  0  0  0
    3.9871    5.0603   -0.4331 H   0  0  0  0  0  0  0  0  0  0  0  0
   -0.1216   -0.7041   -0.6747 H   0  0  0  0  0  0  0  0  0  0  0  0
   -1.1882   -2.1040   -2.0921 H   0  0  0  0  0  0  0  0  0  0  0  0
   -1.1218   -3.1548   -0.6787 H   0  0  0  0  0  0  0  0  0  0  0  0
   -3.4486   -2.7772   -1.9596 H   0  0  0  0  0  0  0  0  0  0  0  0
   -3.4814   -2.7029   -0.1827 H   0  0  0  0  0  0  0  0  0  0  0  0
   -2.2751    0.7741    0.3485 H   0  0  0  0  0  0  0  0  0  0  0  0
   -1.6669    0.8110   -1.3305 H   0  0  0  0  0  0  0  0  0  0  0  0
  1  2  1  0
  2  3  1  0
  3  4  2  0
  3  5  1  0
  5  6  1  0
  6  7  1  0
  7  8  2  0
  8  9  1  0
  9 10  2  0
 10 11  1  0
 11 12  2  0
  2 13  1  0
 13 14  1  0
 14 15  1  0
 15 16  1  0
 16 17  2  0
 16 18  2  0
 16 19  1  0
 12  7  1  0
 19 13  1  0
  1 20  1  0
  1 21  1  0
  1 22  1  0
  5 23  1  0
  5 24  1  0
  9 25  1  0
 10 26  1  0
 11 27  1  0
 13 28  1  0
 14 29  1  0
 14 30  1  0
 15 31  1  0
 15 32  1  0
 19 33  1  0
 19 34  1  0
M  END
$$$$
