
     RDKit          3D

 61 65  0  0  0  0  0  0  0  0999 V2000
   -6.8354    2.4390    3.2107 C   0  0  0  0  0  0  0  0  0  0  0  0
   -6.4454    1.3009    2.3150 C   0  0  0  0  0  0  0  0  0  0  0  0
   -7.2129    0.9882    1.1883 C   0  0  0  0  0  0  0  0  0  0  0  0
   -6.8655   -0.0899    0.3714 C   0  0  0  0  0  0  0  0  0  0  0  0
   -5.7524   -0.8852    0.6764 C   0  0  0  0  0  0  0  0  0  0  0  0
   -5.3727   -2.0424   -0.2121 C   0  0  0  0  0  0  0  0  0  0  0  0
   -4.5446   -1.6135   -1.3190 N   0  0  0  0  0  0  0  0  0  0  0  0
   -5.0947   -1.2929   -2.5169 N   0  0  0  0  0  0  0  0  0  0  0  0
   -4.1018   -0.9685   -3.3454 N   0  0  0  0  0  0  0  0  0  0  0  0
   -2.9369   -1.1120   -2.6565 C   0  0  0  0  0  0  0  0  0  0  0  0
   -1.5719   -0.9076   -3.0605 C   0  0  0  0  0  0  0  0  0  0  0  0
   -1.2052   -0.5441   -4.1713 O   0  0  0  0  0  0  0  0  0  0  0  0
   -0.6809   -1.1819   -2.0297 N   0  0  0  0  0  0  0  0  0  0  0  0
   -1.0522   -1.6235   -0.7659 C   0  0  0  0  0  0  0  0  0  0  0  0
    0.0723   -1.8800    0.2356 C   0  0  0  0  0  0  0  0  0  0  0  0
    1.1426   -2.8302   -0.3259 C   0  0  0  0  0  0  0  0  0  0  0  0
    2.4459   -2.1186   -0.6836 C   0  0  0  0  0  0  0  0  0  0  0  0
    2.1157   -0.7998   -1.2658 N   0  0  0  0  0  0  0  0  0  0  0  0
    3.2669   -0.1472   -2.3610 S   0  0  0  0  0  6  0  0  0  0  0  0
    3.5178   -1.1919   -3.3314 O   0  0  0  0  0  0  0  0  0  0  0  0
    2.7368    1.1322   -2.7828 O   0  0  0  0  0  0  0  0  0  0  0  0
    4.7231    0.0840   -1.4470 C   0  0  0  0  0  0  0  0  0  0  0  0
    4.9521    1.2502   -0.8255 C   0  0  0  0  0  0  0  0  0  0  0  0
    6.1636    1.5382   -0.0473 C   0  0  0  0  0  0  0  0  0  0  0  0
    6.6722    2.8435   -0.0533 C   0  0  0  0  0  0  0  0  0  0  0  0
    7.8059    3.1695    0.6954 C   0  0  0  0  0  0  0  0  0  0  0  0
    8.4353    2.1961    1.4680 C   0  0  0  0  0  0  0  0  0  0  0  0
    7.9301    0.8982    1.4951 C   0  0  0  0  0  0  0  0  0  0  0  0
    6.7977    0.5710    0.7444 C   0  0  0  0  0  0  0  0  0  0  0  0
    1.5485    0.1578   -0.2785 C   0  0  0  0  0  0  0  0  0  0  0  0
    0.6693   -0.5644    0.7453 C   0  0  0  0  0  0  0  0  0  0  0  0
   -2.2888   -1.8115   -0.3907 N   0  0  0  0  0  0  0  0  0  0  0  0
   -3.1825   -1.5362   -1.3728 C   0  0  0  0  0  0  0  0  0  0  0  0
   -4.9864   -0.5720    1.8072 C   0  0  0  0  0  0  0  0  0  0  0  0
   -5.3352    0.5066    2.6234 C   0  0  0  0  0  0  0  0  0  0  0  0
   -5.9475    2.9341    3.6175 H   0  0  0  0  0  0  0  0  0  0  0  0
   -7.4056    3.1951    2.6610 H   0  0  0  0  0  0  0  0  0  0  0  0
   -7.4483    2.0698    4.0386 H   0  0  0  0  0  0  0  0  0  0  0  0
   -8.0851    1.5867    0.9332 H   0  0  0  0  0  0  0  0  0  0  0  0
   -7.4680   -0.3007   -0.5108 H   0  0  0  0  0  0  0  0  0  0  0  0
   -6.2660   -2.5296   -0.6208 H   0  0  0  0  0  0  0  0  0  0  0  0
   -4.8236   -2.8072    0.3493 H   0  0  0  0  0  0  0  0  0  0  0  0
    0.2991   -1.0520   -2.2622 H   0  0  0  0  0  0  0  0  0  0  0  0
   -0.3988   -2.3857    1.0905 H   0  0  0  0  0  0  0  0  0  0  0  0
    1.3708   -3.6057    0.4160 H   0  0  0  0  0  0  0  0  0  0  0  0
    0.7611   -3.3635   -1.2059 H   0  0  0  0  0  0  0  0  0  0  0  0
    3.0063   -2.7453   -1.3839 H   0  0  0  0  0  0  0  0  0  0  0  0
    3.0686   -1.9837    0.2086 H   0  0  0  0  0  0  0  0  0  0  0  0
    5.4226   -0.7384   -1.4482 H   0  0  0  0  0  0  0  0  0  0  0  0
    4.2373    2.0681   -0.9015 H   0  0  0  0  0  0  0  0  0  0  0  0
    6.1976    3.6199   -0.6504 H   0  0  0  0  0  0  0  0  0  0  0  0
    8.1968    4.1839    0.6735 H   0  0  0  0  0  0  0  0  0  0  0  0
    9.3172    2.4501    2.0509 H   0  0  0  0  0  0  0  0  0  0  0  0
    8.4170    0.1403    2.1039 H   0  0  0  0  0  0  0  0  0  0  0  0
    6.4183   -0.4455    0.7977 H   0  0  0  0  0  0  0  0  0  0  0  0
    0.9376    0.8909   -0.8175 H   0  0  0  0  0  0  0  0  0  0  0  0
    2.3392    0.6990    0.2492 H   0  0  0  0  0  0  0  0  0  0  0  0
    1.2822   -0.7887    1.6287 H   0  0  0  0  0  0  0  0  0  0  0  0
   -0.1190    0.1160    1.0899 H   0  0  0  0  0  0  0  0  0  0  0  0
   -4.1087   -1.1646    2.0587 H   0  0  0  0  0  0  0  0  0  0  0  0
   -4.7316    0.7269    3.5007 H   0  0  0  0  0  0  0  0  0  0  0  0
  1  2  1  0
  2  3  2  0
  3  4  1  0
  4  5  2  0
  5  6  1  0
  6  7  1  0
  7  8  1  0
  8  9  2  0
  9 10  1  0
 10 11  1  0
 11 12  2  0
 11 13  1  0
 13 14  1  0
 14 15  1  0
 15 16  1  0
 16 17  1  0
 17 18  1  0
 18 19  1  0
 19 20  2  0
 19 21  2  0
 19 22  1  0
 22 23  2  3
 23 24  1  0
 24 25  2  0
 25 26  1  0
 26 27  2  0
 27 28  1  0
 28 29  2  0
 18 30  1  0
 30 31  1  0
 14 32  2  0
 32 33  1  0
  5 34  1  0
 34 35  2  0
 35  2  1  0
 33  7  1  0
 33 10  2  0
 31 15  1  0
 29 24  1  0
  1 36  1  0
  1 37  1  0
  1 38  1  0
  3 39  1  0
  4 40  1  0
  6 41  1  0
  6 42  1  0
 13 43  1  0
 15 44  1  0
 16 45  1  0
 16 46  1  0
 17 47  1  0
 17 48  1  0
 22 49  1  0
 23 50  1  0
 25 51  1  0
 26 52  1  0
 27 53  1  0
 28 54  1  0
 29 55  1  0
 30 56  1  0
 30 57  1  0
 31 58  1  0
 31 59  1  0
 34 60  1  0
 35 61  1  0
M  END
$$$$
