
     RDKit          3D

 42 44  0  0  0  0  0  0  0  0999 V2000
   -5.1490    0.7872    4.6450 C   0  0  0  0  0  0  0  0  0  0  0  0
   -3.8370    1.4622    5.0134 C   0  0  0  0  0  0  0  0  0  0  0  0
   -2.7506    1.3078    3.9470 C   0  0  0  0  0  0  0  0  0  0  0  0
   -3.0873    2.0194    2.6339 C   0  0  0  0  0  0  0  0  0  0  0  0
   -1.9453    1.9388    1.6505 C   0  0  0  0  0  0  0  0  0  0  0  0
   -0.9701    2.9413    1.6084 C   0  0  0  0  0  0  0  0  0  0  0  0
    0.0982    2.8587    0.7079 C   0  0  0  0  0  0  0  0  0  0  0  0
    0.2139    1.7707   -0.1681 C   0  0  0  0  0  0  0  0  0  0  0  0
    1.3155    1.6504   -1.1205 C   0  0  0  0  0  0  0  0  0  0  0  0
    2.0872    2.7012   -1.5662 C   0  0  0  0  0  0  0  0  0  0  0  0
    3.2642    2.1436   -2.6729 S   0  0  0  0  0  0  0  0  0  0  0  0
    2.6729    0.5145   -2.5118 C   0  0  0  0  0  0  0  0  0  0  0  0
    3.2695   -0.5819   -3.2370 C   0  0  0  0  0  0  0  0  0  0  0  0
    4.3333   -0.3404   -4.1631 C   0  0  0  0  0  0  0  0  0  0  0  0
    5.1943   -0.0920   -4.9027 N   0  0  0  0  0  0  0  0  0  0  0  0
    2.7746   -1.8154   -2.9947 C   0  0  0  0  0  0  0  0  0  0  0  0
    3.2216   -3.0230   -3.6047 C   0  0  0  0  0  0  0  0  0  0  0  0
    2.7522   -4.3153   -3.3858 C   0  0  0  0  0  0  0  0  0  0  0  0
    3.4899   -5.1975   -4.2106 C   0  0  0  0  0  0  0  0  0  0  0  0
    4.3766   -4.4095   -4.8964 C   0  0  0  0  0  0  0  0  0  0  0  0
    4.2238   -3.1122   -4.5419 O   0  0  0  0  0  0  0  0  0  0  0  0
    1.6516    0.4220   -1.6729 N   0  0  0  0  0  0  0  0  0  0  0  0
   -0.7589    0.7628   -0.1109 C   0  0  0  0  0  0  0  0  0  0  0  0
   -1.8272    0.8443    0.7877 C   0  0  0  0  0  0  0  0  0  0  0  0
   -4.9943   -0.2707    4.4103 H   0  0  0  0  0  0  0  0  0  0  0  0
   -5.6197    1.2681    3.7825 H   0  0  0  0  0  0  0  0  0  0  0  0
   -5.8511    0.8493    5.4827 H   0  0  0  0  0  0  0  0  0  0  0  0
   -3.4703    1.0225    5.9487 H   0  0  0  0  0  0  0  0  0  0  0  0
   -4.0163    2.5251    5.2124 H   0  0  0  0  0  0  0  0  0  0  0  0
   -2.5683    0.2417    3.7607 H   0  0  0  0  0  0  0  0  0  0  0  0
   -1.8147    1.7140    4.3520 H   0  0  0  0  0  0  0  0  0  0  0  0
   -3.9813    1.5822    2.1737 H   0  0  0  0  0  0  0  0  0  0  0  0
   -3.3289    3.0725    2.8257 H   0  0  0  0  0  0  0  0  0  0  0  0
   -1.0318    3.7937    2.2817 H   0  0  0  0  0  0  0  0  0  0  0  0
    0.8395    3.6530    0.7205 H   0  0  0  0  0  0  0  0  0  0  0  0
    2.0261    3.7504   -1.3174 H   0  0  0  0  0  0  0  0  0  0  0  0
    1.9647   -1.9312   -2.2758 H   0  0  0  0  0  0  0  0  0  0  0  0
    1.9597   -4.5860   -2.7007 H   0  0  0  0  0  0  0  0  0  0  0  0
    3.3877   -6.2703   -4.2934 H   0  0  0  0  0  0  0  0  0  0  0  0
    5.1430   -4.6050   -5.6337 H   0  0  0  0  0  0  0  0  0  0  0  0
   -0.6930   -0.0989   -0.7722 H   0  0  0  0  0  0  0  0  0  0  0  0
   -2.5647    0.0450    0.8086 H   0  0  0  0  0  0  0  0  0  0  0  0
  1  2  1  0
  2  3  1  0
  3  4  1  0
  4  5  1  0
  5  6  2  0
  6  7  1  0
  7  8  2  0
  8  9  1  0
  9 10  2  0
 10 11  1  0
 11 12  1  0
 12 13  1  0
 13 14  1  0
 14 15  3  0
 13 16  2  3
 16 17  1  0
 17 18  2  0
 18 19  1  0
 19 20  2  0
 20 21  1  0
 12 22  2  0
  8 23  1  0
 23 24  2  0
 24  5  1  0
 22  9  1  0
 21 17  1  0
  1 25  1  0
  1 26  1  0
  1 27  1  0
  2 28  1  0
  2 29  1  0
  3 30  1  0
  3 31  1  0
  4 32  1  0
  4 33  1  0
  6 34  1  0
  7 35  1  0
 10 36  1  0
 16 37  1  0
 18 38  1  0
 19 39  1  0
 20 40  1  0
 23 41  1  0
 24 42  1  0
M  END
$$$$
