
     RDKit          3D

 32 34  0  0  0  0  0  0  0  0999 V2000
    4.6413    0.0735    1.5340 C   0  0  0  0  0  0  0  0  0  0  0  0
    3.6368    0.0338    0.4183 C   0  0  0  0  0  0  0  0  0  0  0  0
    3.9935   -0.4969   -0.8313 C   0  0  0  0  0  0  0  0  0  0  0  0
    3.0770   -0.5776   -1.8881 C   0  0  0  0  0  0  0  0  0  0  0  0
    1.7865   -0.1142   -1.6313 C   0  0  0  0  0  0  0  0  0  0  0  0
    0.6602   -0.0375   -2.4092 N   0  0  0  0  0  0  0  0  0  0  0  0
   -0.3682    0.5007   -1.6555 C   0  0  0  0  0  0  0  0  0  0  0  0
   -1.6510    0.6770   -2.2604 C   0  0  0  0  0  0  0  0  0  0  0  0
   -1.7285    0.9341   -3.6670 C   0  0  0  0  0  0  0  0  0  0  0  0
   -1.7559    1.1133   -4.8131 N   0  0  0  0  0  0  0  0  0  0  0  0
   -2.8178    0.5850   -1.5900 C   0  0  0  0  0  0  0  0  0  0  0  0
   -2.9937    0.2880   -0.2108 C   0  0  0  0  0  0  0  0  0  0  0  0
   -2.5127    0.9207    0.9340 C   0  0  0  0  0  0  0  0  0  0  0  0
   -3.0164    0.2382    2.0690 C   0  0  0  0  0  0  0  0  0  0  0  0
   -3.8025   -0.7599    1.5580 C   0  0  0  0  0  0  0  0  0  0  0  0
   -4.5817   -1.7775    2.1881 N   0  0  0  0  0  4  0  0  0  0  0  0
   -4.5439   -1.8113    3.4262 O   0  0  0  0  0  0  0  0  0  0  0  0
   -5.2338   -2.5400    1.4624 O   0  0  0  0  0  1  0  0  0  0  0  0
   -3.8221   -0.7367    0.2022 O   0  0  0  0  0  0  0  0  0  0  0  0
    0.0689    0.7678   -0.4387 N   0  0  0  0  0  0  0  0  0  0  0  0
    1.3908    0.4001   -0.4064 C   0  0  0  0  0  0  0  0  0  0  0  0
    2.3199    0.4735    0.6418 C   0  0  0  0  0  0  0  0  0  0  0  0
    4.4037    0.8680    2.2498 H   0  0  0  0  0  0  0  0  0  0  0  0
    4.6505   -0.8856    2.0614 H   0  0  0  0  0  0  0  0  0  0  0  0
    5.6451    0.2754    1.1450 H   0  0  0  0  0  0  0  0  0  0  0  0
    5.0093   -0.8548   -0.9944 H   0  0  0  0  0  0  0  0  0  0  0  0
    3.3663   -0.9795   -2.8532 H   0  0  0  0  0  0  0  0  0  0  0  0
    0.6025   -0.3418   -3.3715 H   0  0  0  0  0  0  0  0  0  0  0  0
   -3.7503    0.6690   -2.1472 H   0  0  0  0  0  0  0  0  0  0  0  0
   -1.8531    1.7793    0.9390 H   0  0  0  0  0  0  0  0  0  0  0  0
   -2.8305    0.4507    3.1125 H   0  0  0  0  0  0  0  0  0  0  0  0
    2.0098    0.8650    1.6045 H   0  0  0  0  0  0  0  0  0  0  0  0
  1  2  1  0
  2  3  2  0
  3  4  1  0
  4  5  2  0
  5  6  1  0
  6  7  1  0
  7  8  1  0
  8  9  1  0
  9 10  3  0
  8 11  2  3
 11 12  1  0
 12 13  2  0
 13 14  1  0
 14 15  2  0
 15 16  1  0
 16 17  2  0
 16 18  1  0
 15 19  1  0
  7 20  2  0
 20 21  1  0
 21 22  2  0
 22  2  1  0
 21  5  1  0
 19 12  1  0
  1 23  1  0
  1 24  1  0
  1 25  1  0
  3 26  1  0
  4 27  1  0
  6 28  1  0
 11 29  1  0
 13 30  1  0
 14 31  1  0
 22 32  1  0
M  CHG  2  16   1  18  -1
M  END
$$$$
