
     RDKit          3D

 52 54  0  0  0  0  0  0  0  0999 V2000
    3.6418   -0.8470    1.5095 O   0  0  0  0  0  0  0  0  0  0  0  0
    2.6414   -1.1344    0.8647 C   0  0  0  0  0  0  0  0  0  0  0  0
    2.3892   -2.3071    0.1825 N   0  0  0  0  0  0  0  0  0  0  0  0
    3.2144   -3.4407    0.0688 C   0  0  0  0  0  0  0  0  0  0  0  0
    4.4702   -3.5535    0.6673 C   0  0  0  0  0  0  0  0  0  0  0  0
    5.2296   -4.7171    0.5057 C   0  0  0  0  0  0  0  0  0  0  0  0
    4.7393   -5.7760   -0.2549 C   0  0  0  0  0  0  0  0  0  0  0  0
    3.4879   -5.6732   -0.8559 C   0  0  0  0  0  0  0  0  0  0  0  0
    2.7294   -4.5108   -0.6944 C   0  0  0  0  0  0  0  0  0  0  0  0
    1.4846   -0.1720    0.7344 C   0  0  0  0  0  0  0  0  0  0  0  0
    1.5889    1.0527    1.2772 C   0  0  0  0  0  0  0  0  0  0  0  0
    0.5141    2.0924    1.1331 C   0  0  0  0  0  0  0  0  0  0  0  0
    1.0631    3.4704    0.8005 C   0  0  0  0  0  0  0  0  0  0  0  0
    1.9015    3.6775   -0.3084 C   0  0  0  0  0  0  0  0  0  0  0  0
    2.3901    4.9518   -0.6060 C   0  0  0  0  0  0  0  0  0  0  0  0
    2.0424    6.0309    0.2021 C   0  0  0  0  0  0  0  0  0  0  0  0
    2.7016    7.7562   -0.1998 Br  0  0  0  0  0  0  0  0  0  0  0  0
    1.2114    5.8475    1.3044 C   0  0  0  0  0  0  0  0  0  0  0  0
    0.7233    4.5724    1.6016 C   0  0  0  0  0  0  0  0  0  0  0  0
   -0.5341    1.6561    0.1041 C   0  0  0  0  0  0  0  0  0  0  0  0
   -0.8187    0.1671    0.2779 C   0  0  0  0  0  0  0  0  0  0  0  0
   -1.8038   -0.2437   -0.6740 O   0  0  0  0  0  0  0  0  0  0  0  0
   -3.1377   -0.1109   -0.1884 C   0  0  0  0  0  0  0  0  0  0  0  0
   -4.0897   -0.5272   -1.3033 C   0  0  0  0  0  0  0  0  0  0  0  0
   -5.5458   -0.4180   -0.8676 C   0  0  0  0  0  0  0  0  0  0  0  0
   -6.4983   -0.8324   -1.9794 C   0  0  0  0  0  0  0  0  0  0  0  0
   -7.8314   -0.7047   -1.5053 O   0  0  0  0  0  0  0  0  0  0  0  0
    0.3655   -0.6091    0.0460 O   0  0  0  0  0  0  0  0  0  0  0  0
    1.4958   -2.3386   -0.2987 H   0  0  0  0  0  0  0  0  0  0  0  0
    4.8894   -2.7523    1.2676 H   0  0  0  0  0  0  0  0  0  0  0  0
    6.2063   -4.7911    0.9771 H   0  0  0  0  0  0  0  0  0  0  0  0
    5.3326   -6.6781   -0.3783 H   0  0  0  0  0  0  0  0  0  0  0  0
    3.1011   -6.4963   -1.4507 H   0  0  0  0  0  0  0  0  0  0  0  0
    1.7558   -4.4541   -1.1740 H   0  0  0  0  0  0  0  0  0  0  0  0
    2.4869    1.3309    1.8271 H   0  0  0  0  0  0  0  0  0  0  0  0
    0.0207    2.1488    2.1138 H   0  0  0  0  0  0  0  0  0  0  0  0
    2.1846    2.8444   -0.9495 H   0  0  0  0  0  0  0  0  0  0  0  0
    3.0398    5.0889   -1.4663 H   0  0  0  0  0  0  0  0  0  0  0  0
    0.9388    6.6873    1.9381 H   0  0  0  0  0  0  0  0  0  0  0  0
    0.0762    4.4486    2.4675 H   0  0  0  0  0  0  0  0  0  0  0  0
   -1.4466    2.2541    0.2112 H   0  0  0  0  0  0  0  0  0  0  0  0
   -0.1809    1.8302   -0.9217 H   0  0  0  0  0  0  0  0  0  0  0  0
   -1.1701   -0.0583    1.2943 H   0  0  0  0  0  0  0  0  0  0  0  0
   -3.2732   -0.7596    0.6846 H   0  0  0  0  0  0  0  0  0  0  0  0
   -3.3308    0.9266    0.1045 H   0  0  0  0  0  0  0  0  0  0  0  0
   -3.9094    0.0982   -2.1866 H   0  0  0  0  0  0  0  0  0  0  0  0
   -3.8611   -1.5552   -1.6114 H   0  0  0  0  0  0  0  0  0  0  0  0
   -5.7257   -1.0427    0.0163 H   0  0  0  0  0  0  0  0  0  0  0  0
   -5.7737    0.6099   -0.5587 H   0  0  0  0  0  0  0  0  0  0  0  0
   -6.3299   -1.8739   -2.2714 H   0  0  0  0  0  0  0  0  0  0  0  0
   -6.3774   -0.1909   -2.8580 H   0  0  0  0  0  0  0  0  0  0  0  0
   -8.4196   -0.9739   -2.2318 H   0  0  0  0  0  0  0  0  0  0  0  0
  1  2  2  0
  2  3  1  0
  3  4  1  0
  4  5  2  0
  5  6  1  0
  6  7  2  0
  7  8  1  0
  8  9  2  0
  2 10  1  0
 10 11  2  0
 11 12  1  0
 12 13  1  0
 13 14  2  0
 14 15  1  0
 15 16  2  0
 16 17  1  0
 16 18  1  0
 18 19  2  0
 12 20  1  0
 20 21  1  0
 21 22  1  0
 22 23  1  0
 23 24  1  0
 24 25  1  0
 25 26  1  0
 26 27  1  0
 21 28  1  0
  9  4  1  0
 28 10  1  0
 19 13  1  0
  3 29  1  0
  5 30  1  0
  6 31  1  0
  7 32  1  0
  8 33  1  0
  9 34  1  0
 11 35  1  0
 12 36  1  0
 14 37  1  0
 15 38  1  0
 18 39  1  0
 19 40  1  0
 20 41  1  0
 20 42  1  0
 21 43  1  0
 23 44  1  0
 23 45  1  0
 24 46  1  0
 24 47  1  0
 25 48  1  0
 25 49  1  0
 26 50  1  0
 26 51  1  0
 27 52  1  0
M  END
$$$$
