
     RDKit          3D

 53 56  0  0  0  0  0  0  0  0999 V2000
   -0.1808   -2.5972   -0.2411 C   0  0  0  0  0  0  0  0  0  0  0  0
   -1.0012   -1.5381    0.4403 C   0  0  0  0  0  0  0  0  0  0  0  0
   -0.5165   -0.8536    1.5591 C   0  0  0  0  0  0  0  0  0  0  0  0
    0.7175   -1.1512    2.0755 O   0  0  0  0  0  0  0  0  0  0  0  0
    1.7134   -0.2200    1.6307 C   0  0  0  0  0  0  0  0  0  0  0  0
    2.2450    0.5241    2.8572 C   0  0  0  0  0  0  0  0  0  0  0  0
    2.8774   -0.9612    0.9409 C   0  0  0  0  0  0  0  0  0  0  0  0
    2.9981   -2.1837    0.9135 O   0  0  0  0  0  0  0  0  0  0  0  0
    3.7989   -0.1295    0.3426 N   0  0  0  0  0  0  0  0  0  0  0  0
    4.9084   -0.6724   -0.4158 C   0  0  0  0  0  0  0  0  0  0  0  0
    5.8273    0.4286   -0.8884 C   0  0  0  0  0  0  0  0  0  0  0  0
    7.2100    0.2532   -0.8636 C   0  0  0  0  0  0  0  0  0  0  0  0
    8.0228    1.2811   -1.3346 C   0  0  0  0  0  0  0  0  0  0  0  0
    7.4416    2.4423   -1.8324 C   0  0  0  0  0  0  0  0  0  0  0  0
    6.0583    2.5401   -1.8207 C   0  0  0  0  0  0  0  0  0  0  0  0
    5.2423    1.5713   -1.3497 N   0  0  0  0  0  0  0  0  0  0  0  0
   -1.3044    0.0928    2.2132 C   0  0  0  0  0  0  0  0  0  0  0  0
   -2.5687    0.4201    1.7166 C   0  0  0  0  0  0  0  0  0  0  0  0
   -3.0634   -0.1921    0.5580 C   0  0  0  0  0  0  0  0  0  0  0  0
   -4.3777    0.1282   -0.0271 C   0  0  0  0  0  0  0  0  0  0  0  0
   -4.7954   -0.5446   -1.1174 C   0  0  0  0  0  0  0  0  0  0  0  0
   -3.9492   -1.5628   -1.7876 C   0  0  0  0  0  0  0  0  0  0  0  0
   -4.3122   -2.1365   -2.8094 O   0  0  0  0  0  0  0  0  0  0  0  0
   -2.7176   -1.8251   -1.2147 O   0  0  0  0  0  0  0  0  0  0  0  0
   -2.2652   -1.1660   -0.0523 C   0  0  0  0  0  0  0  0  0  0  0  0
   -6.1448   -0.3260   -1.7558 C   0  0  0  0  0  0  0  0  0  0  0  0
   -7.1091    0.4812   -0.8867 C   0  0  0  0  0  0  0  0  0  0  0  0
   -6.3994    1.6714   -0.2602 C   0  0  0  0  0  0  0  0  0  0  0  0
   -5.2213    1.2144    0.6052 C   0  0  0  0  0  0  0  0  0  0  0  0
   -0.8124   -3.3603   -0.7067 H   0  0  0  0  0  0  0  0  0  0  0  0
    0.4559   -3.1269    0.4734 H   0  0  0  0  0  0  0  0  0  0  0  0
    0.4500   -2.1413   -1.0099 H   0  0  0  0  0  0  0  0  0  0  0  0
    1.3093    0.5048    0.9074 H   0  0  0  0  0  0  0  0  0  0  0  0
    1.4314    1.0277    3.3980 H   0  0  0  0  0  0  0  0  0  0  0  0
    2.9959    1.2732    2.5858 H   0  0  0  0  0  0  0  0  0  0  0  0
    2.7062   -0.1779    3.5675 H   0  0  0  0  0  0  0  0  0  0  0  0
    3.5497    0.8270    0.1088 H   0  0  0  0  0  0  0  0  0  0  0  0
    5.4402   -1.3919    0.2200 H   0  0  0  0  0  0  0  0  0  0  0  0
    4.5085   -1.2106   -1.2835 H   0  0  0  0  0  0  0  0  0  0  0  0
    7.6571   -0.6633   -0.4772 H   0  0  0  0  0  0  0  0  0  0  0  0
    9.1050    1.1643   -1.3267 H   0  0  0  0  0  0  0  0  0  0  0  0
    8.0520    3.2504   -2.2210 H   0  0  0  0  0  0  0  0  0  0  0  0
    5.5560    3.4280   -2.2022 H   0  0  0  0  0  0  0  0  0  0  0  0
   -0.9413    0.5710    3.1184 H   0  0  0  0  0  0  0  0  0  0  0  0
   -3.1513    1.1572    2.2621 H   0  0  0  0  0  0  0  0  0  0  0  0
   -5.9991    0.1942   -2.7110 H   0  0  0  0  0  0  0  0  0  0  0  0
   -6.6204   -1.2891   -1.9827 H   0  0  0  0  0  0  0  0  0  0  0  0
   -7.5198   -0.1607   -0.0977 H   0  0  0  0  0  0  0  0  0  0  0  0
   -7.9570    0.8210   -1.4933 H   0  0  0  0  0  0  0  0  0  0  0  0
   -7.1001    2.2553    0.3485 H   0  0  0  0  0  0  0  0  0  0  0  0
   -6.0354    2.3391   -1.0517 H   0  0  0  0  0  0  0  0  0  0  0  0
   -4.6113    2.1026    0.8118 H   0  0  0  0  0  0  0  0  0  0  0  0
   -5.6032    0.8500    1.5668 H   0  0  0  0  0  0  0  0  0  0  0  0
  1  2  1  0
  2  3  2  0
  3  4  1  0
  4  5  1  0
  5  6  1  0
  5  7  1  0
  7  8  2  0
  7  9  1  0
  9 10  1  0
 10 11  1  0
 11 12  2  0
 12 13  1  0
 13 14  2  0
 14 15  1  0
 15 16  2  0
  3 17  1  0
 17 18  2  0
 18 19  1  0
 19 20  1  0
 20 21  2  0
 21 22  1  0
 22 23  2  0
 22 24  1  0
 24 25  1  0
 21 26  1  0
 26 27  1  0
 27 28  1  0
 28 29  1  0
 25  2  1  0
 16 11  1  0
 25 19  2  0
 29 20  1  0
  1 30  1  0
  1 31  1  0
  1 32  1  0
  5 33  1  0
  6 34  1  0
  6 35  1  0
  6 36  1  0
  9 37  1  0
 10 38  1  0
 10 39  1  0
 12 40  1  0
 13 41  1  0
 14 42  1  0
 15 43  1  0
 17 44  1  0
 18 45  1  0
 26 46  1  0
 26 47  1  0
 27 48  1  0
 27 49  1  0
 28 50  1  0
 28 51  1  0
 29 52  1  0
 29 53  1  0
M  END
$$$$
