
     RDKit          3D

 58 62  0  0  0  0  0  0  0  0999 V2000
   -5.8179    3.7835    0.2806 C   0  0  0  0  0  0  0  0  0  0  0  0
   -4.8642    2.7300    0.2347 O   0  0  0  0  0  0  0  0  0  0  0  0
   -5.1524    1.6488   -0.5602 C   0  0  0  0  0  0  0  0  0  0  0  0
   -6.2787    1.5517   -1.3855 C   0  0  0  0  0  0  0  0  0  0  0  0
   -6.4853    0.4156   -2.1687 C   0  0  0  0  0  0  0  0  0  0  0  0
   -5.5689   -0.6290   -2.1343 C   0  0  0  0  0  0  0  0  0  0  0  0
   -4.4428   -0.5420   -1.3151 C   0  0  0  0  0  0  0  0  0  0  0  0
   -4.2176    0.5914   -0.5151 C   0  0  0  0  0  0  0  0  0  0  0  0
   -3.0017    0.7302    0.3867 C   0  0  0  0  0  0  0  0  0  0  0  0
   -2.1221   -0.4362    0.4617 N   0  0  0  0  0  0  0  0  0  0  0  0
   -2.3539   -1.4040    1.4314 C   0  0  0  0  0  0  0  0  0  0  0  0
   -3.2762   -1.3433    2.2421 O   0  0  0  0  0  0  0  0  0  0  0  0
   -1.4317   -2.5750    1.4838 C   0  0  0  0  0  0  0  0  0  0  0  0
   -1.6613   -3.5585    2.4588 C   0  0  0  0  0  0  0  0  0  0  0  0
   -0.8224   -4.6655    2.5512 C   0  0  0  0  0  0  0  0  0  0  0  0
    0.2491   -4.7916    1.6726 C   0  0  0  0  0  0  0  0  0  0  0  0
    0.4862   -3.8179    0.6959 C   0  0  0  0  0  0  0  0  0  0  0  0
   -0.3545   -2.7055    0.5919 C   0  0  0  0  0  0  0  0  0  0  0  0
   -0.1955   -1.6777   -0.3642 N   0  0  0  0  0  0  0  0  0  0  0  0
    0.6906   -1.4309   -1.3951 C   0  0  0  0  0  0  0  0  0  0  0  0
    2.0492   -2.3893   -1.8802 S   0  0  0  0  0  0  0  0  0  0  0  0
    3.3366   -1.1009   -1.8432 C   0  0  0  0  0  0  0  0  0  0  0  0
    3.5643   -0.5414   -0.4367 C   0  0  0  0  0  0  0  0  0  0  0  0
    3.0204   -1.0300    0.5578 O   0  0  0  0  0  0  0  0  0  0  0  0
    4.4536    0.5378   -0.3233 N   0  0  0  0  0  0  0  0  0  0  0  0
    4.8769    1.3386   -1.4751 C   0  0  0  0  0  0  0  0  0  0  0  0
    6.2076    2.0468   -1.2402 C   0  0  0  0  0  0  0  0  0  0  0  0
    6.2043    2.8276    0.0678 C   0  0  0  0  0  0  0  0  0  0  0  0
    5.8418    1.9050    1.2242 C   0  0  0  0  0  0  0  0  0  0  0  0
    4.5090    1.2070    0.9781 C   0  0  0  0  0  0  0  0  0  0  0  0
    0.3924   -0.2971   -1.9918 N   0  0  0  0  0  0  0  0  0  0  0  0
   -0.7044    0.2287   -1.3717 N   0  0  0  0  0  0  0  0  0  0  0  0
   -1.0549   -0.5920   -0.4062 C   0  0  0  0  0  0  0  0  0  0  0  0
   -5.4484    4.5382    0.9822 H   0  0  0  0  0  0  0  0  0  0  0  0
   -5.9219    4.2635   -0.6980 H   0  0  0  0  0  0  0  0  0  0  0  0
   -6.7836    3.4274    0.6545 H   0  0  0  0  0  0  0  0  0  0  0  0
   -7.0151    2.3458   -1.4455 H   0  0  0  0  0  0  0  0  0  0  0  0
   -7.3620    0.3480   -2.8074 H   0  0  0  0  0  0  0  0  0  0  0  0
   -5.7274   -1.5134   -2.7459 H   0  0  0  0  0  0  0  0  0  0  0  0
   -3.7463   -1.3751   -1.3153 H   0  0  0  0  0  0  0  0  0  0  0  0
   -2.4053    1.5888    0.0537 H   0  0  0  0  0  0  0  0  0  0  0  0
   -3.3493    0.9533    1.4032 H   0  0  0  0  0  0  0  0  0  0  0  0
   -2.4952   -3.4624    3.1530 H   0  0  0  0  0  0  0  0  0  0  0  0
   -1.0010   -5.4234    3.3102 H   0  0  0  0  0  0  0  0  0  0  0  0
    0.9122   -5.6511    1.7491 H   0  0  0  0  0  0  0  0  0  0  0  0
    1.3457   -3.9766    0.0577 H   0  0  0  0  0  0  0  0  0  0  0  0
    3.0405   -0.3020   -2.5285 H   0  0  0  0  0  0  0  0  0  0  0  0
    4.2718   -1.5489   -2.1925 H   0  0  0  0  0  0  0  0  0  0  0  0
    4.0820    2.0677   -1.6727 H   0  0  0  0  0  0  0  0  0  0  0  0
    4.9755    0.7101   -2.3642 H   0  0  0  0  0  0  0  0  0  0  0  0
    6.4226    2.7200   -2.0773 H   0  0  0  0  0  0  0  0  0  0  0  0
    7.0128    1.3019   -1.2108 H   0  0  0  0  0  0  0  0  0  0  0  0
    5.4833    3.6516    0.0078 H   0  0  0  0  0  0  0  0  0  0  0  0
    7.1912    3.2710    0.2400 H   0  0  0  0  0  0  0  0  0  0  0  0
    6.6295    1.1511    1.3454 H   0  0  0  0  0  0  0  0  0  0  0  0
    5.7953    2.4764    2.1580 H   0  0  0  0  0  0  0  0  0  0  0  0
    3.6878    1.9342    1.0021 H   0  0  0  0  0  0  0  0  0  0  0  0
    4.3293    0.4891    1.7858 H   0  0  0  0  0  0  0  0  0  0  0  0
  1  2  1  0
  2  3  1  0
  3  4  2  0
  4  5  1  0
  5  6  2  0
  6  7  1  0
  7  8  2  0
  8  9  1  0
  9 10  1  0
 10 11  1  0
 11 12  2  0
 11 13  1  0
 13 14  2  0
 14 15  1  0
 15 16  2  0
 16 17  1  0
 17 18  2  0
 18 19  1  0
 19 20  1  0
 20 21  1  0
 21 22  1  0
 22 23  1  0
 23 24  2  0
 23 25  1  0
 25 26  1  0
 26 27  1  0
 27 28  1  0
 28 29  1  0
 29 30  1  0
 20 31  2  0
 31 32  1  0
 32 33  2  0
  8  3  1  0
 33 10  1  0
 18 13  1  0
 33 19  1  0
 30 25  1  0
  1 34  1  0
  1 35  1  0
  1 36  1  0
  4 37  1  0
  5 38  1  0
  6 39  1  0
  7 40  1  0
  9 41  1  0
  9 42  1  0
 14 43  1  0
 15 44  1  0
 16 45  1  0
 17 46  1  0
 22 47  1  0
 22 48  1  0
 26 49  1  0
 26 50  1  0
 27 51  1  0
 27 52  1  0
 28 53  1  0
 28 54  1  0
 29 55  1  0
 29 56  1  0
 30 57  1  0
 30 58  1  0
M  END
$$$$
