
     RDKit          3D

 51 55  0  0  0  0  0  0  0  0999 V2000
    3.3202   -2.9874   -0.6531 C   0  0  0  0  0  0  0  0  0  0  0  0
    2.9510   -2.1185    0.5393 C   0  0  0  0  0  0  0  0  0  0  0  0
    2.5621   -0.7800    0.1126 N   0  0  0  0  0  0  0  0  0  0  0  0
    1.2670   -0.3543   -0.2059 C   0  0  0  0  0  0  0  0  0  0  0  0
    0.1518   -1.1117   -0.1850 C   0  0  0  0  0  0  0  0  0  0  0  0
   -1.2047   -0.6672   -0.5400 C   0  0  0  0  0  0  0  0  0  0  0  0
   -1.5194   -0.5656   -1.8962 C   0  0  0  0  0  0  0  0  0  0  0  0
   -2.7802   -0.1602   -2.2883 C   0  0  0  0  0  0  0  0  0  0  0  0
   -3.7295    0.1446   -1.3217 C   0  0  0  0  0  0  0  0  0  0  0  0
   -5.0091    0.5635   -1.7197 C   0  0  0  0  0  0  0  0  0  0  0  0
   -5.9927    0.8740   -0.7773 C   0  0  0  0  0  0  0  0  0  0  0  0
   -7.3461    1.3542   -1.2182 C   0  0  0  0  0  0  0  0  0  0  0  0
   -5.6774    0.7895    0.5768 C   0  0  0  0  0  0  0  0  0  0  0  0
   -4.4052    0.3722    0.9871 C   0  0  0  0  0  0  0  0  0  0  0  0
   -3.4022    0.0339    0.0574 C   0  0  0  0  0  0  0  0  0  0  0  0
   -2.1400   -0.3868    0.4185 N   0  0  0  0  0  4  0  0  0  0  0  0
   -1.7861   -0.5539    1.8612 C   0  0  0  0  0  0  0  0  0  0  0  0
   -1.3517    0.7693    2.4617 C   0  0  0  0  0  0  0  0  0  0  0  0
    1.1602    1.3594   -0.6592 S   0  0  0  0  0  0  0  0  0  0  0  0
    2.9346    1.4879   -0.4652 C   0  0  0  0  0  0  0  0  0  0  0  0
    3.6317    2.6589   -0.6871 C   0  0  0  0  0  0  0  0  0  0  0  0
    5.0081    2.6523   -0.5201 C   0  0  0  0  0  0  0  0  0  0  0  0
    5.6565    1.4545   -0.1473 C   0  0  0  0  0  0  0  0  0  0  0  0
    7.3593    1.2935    0.0834 S   0  0  0  0  0  0  0  0  0  0  0  0
    7.2263   -0.3561    0.4475 C   0  0  0  0  0  0  0  0  0  0  0  0
    5.9205   -0.7854    0.4066 C   0  0  0  0  0  0  0  0  0  0  0  0
    4.9666    0.2485    0.0774 C   0  0  0  0  0  0  0  0  0  0  0  0
    3.5433    0.2579   -0.0675 C   0  0  0  0  0  0  0  0  0  0  0  0
    4.1400   -2.5553   -1.2347 H   0  0  0  0  0  0  0  0  0  0  0  0
    2.4666   -3.1087   -1.3285 H   0  0  0  0  0  0  0  0  0  0  0  0
    3.6277   -3.9820   -0.3157 H   0  0  0  0  0  0  0  0  0  0  0  0
    3.7492   -2.0869    1.2843 H   0  0  0  0  0  0  0  0  0  0  0  0
    2.1233   -2.5993    1.0747 H   0  0  0  0  0  0  0  0  0  0  0  0
    0.2100   -2.1633    0.0776 H   0  0  0  0  0  0  0  0  0  0  0  0
   -0.7741   -0.7952   -2.6574 H   0  0  0  0  0  0  0  0  0  0  0  0
   -3.0082   -0.0792   -3.3508 H   0  0  0  0  0  0  0  0  0  0  0  0
   -5.2518    0.6531   -2.7796 H   0  0  0  0  0  0  0  0  0  0  0  0
   -7.6344    0.8894   -2.1669 H   0  0  0  0  0  0  0  0  0  0  0  0
   -7.3341    2.4411   -1.3443 H   0  0  0  0  0  0  0  0  0  0  0  0
   -8.1129    1.0914   -0.4819 H   0  0  0  0  0  0  0  0  0  0  0  0
   -6.4237    1.0515    1.3272 H   0  0  0  0  0  0  0  0  0  0  0  0
   -4.2435    0.3409    2.0600 H   0  0  0  0  0  0  0  0  0  0  0  0
   -0.9985   -1.3047    1.9658 H   0  0  0  0  0  0  0  0  0  0  0  0
   -2.6476   -0.9803    2.3833 H   0  0  0  0  0  0  0  0  0  0  0  0
   -1.1391    0.6457    3.5281 H   0  0  0  0  0  0  0  0  0  0  0  0
   -0.4455    1.1458    1.9821 H   0  0  0  0  0  0  0  0  0  0  0  0
   -2.1215    1.5390    2.3570 H   0  0  0  0  0  0  0  0  0  0  0  0
    3.1242    3.5708   -0.9867 H   0  0  0  0  0  0  0  0  0  0  0  0
    5.5844    3.5600   -0.6858 H   0  0  0  0  0  0  0  0  0  0  0  0
    8.1089   -0.9408    0.6707 H   0  0  0  0  0  0  0  0  0  0  0  0
    5.6856   -1.8202    0.6026 H   0  0  0  0  0  0  0  0  0  0  0  0
  1  2  1  0
  2  3  1  0
  3  4  1  0
  4  5  2  3
  5  6  1  0
  6  7  2  0
  7  8  1  0
  8  9  2  0
  9 10  1  0
 10 11  2  0
 11 12  1  0
 11 13  1  0
 13 14  2  0
 14 15  1  0
 15 16  2  0
 16 17  1  0
 17 18  1  0
  4 19  1  0
 19 20  1  0
 20 21  2  0
 21 22  1  0
 22 23  2  0
 23 24  1  0
 24 25  1  0
 25 26  2  0
 26 27  1  0
 27 28  2  0
 28  3  1  0
 16  6  1  0
 28 20  1  0
 15  9  1  0
 27 23  1  0
  1 29  1  0
  1 30  1  0
  1 31  1  0
  2 32  1  0
  2 33  1  0
  5 34  1  0
  7 35  1  0
  8 36  1  0
 10 37  1  0
 12 38  1  0
 12 39  1  0
 12 40  1  0
 13 41  1  0
 14 42  1  0
 17 43  1  0
 17 44  1  0
 18 45  1  0
 18 46  1  0
 18 47  1  0
 21 48  1  0
 22 49  1  0
 25 50  1  0
 26 51  1  0
M  CHG  1  16   1
M  END
$$$$
