
     RDKit          3D

 52 55  0  0  0  0  0  0  0  0999 V2000
   -6.3551    1.3906    2.1935 C   0  0  0  0  0  0  0  0  0  0  0  0
   -6.4583    1.0251    0.7208 C   0  0  0  0  0  0  0  0  0  0  0  0
   -5.1004    0.9162    0.0238 C   0  0  0  0  0  0  0  0  0  0  0  0
   -4.2603   -0.2641    0.5183 C   0  0  0  0  0  0  0  0  0  0  0  0
   -2.9813   -0.3799   -0.2344 C   0  0  0  0  0  0  0  0  0  0  0  0
   -2.8435   -1.1467   -1.3034 N   0  0  0  0  0  0  0  0  0  0  0  0
   -1.5477   -1.0691   -1.7389 N   0  0  0  0  0  0  0  0  0  0  0  0
   -0.9137   -0.2669   -0.9173 C   0  0  0  0  0  0  0  0  0  0  0  0
    0.4548    0.1465   -0.9621 C   0  0  0  0  0  0  0  0  0  0  0  0
    1.2990   -0.4238   -1.9361 N   0  0  0  0  0  0  0  0  0  0  0  0
    2.2504    0.3989   -2.7003 C   0  0  0  0  0  0  0  0  0  0  0  0
    1.6657   -2.0795   -1.8406 S   0  0  0  0  0  6  0  0  0  0  0  0
    0.8250   -2.7248   -0.8553 O   0  0  0  0  0  0  0  0  0  0  0  0
    1.7920   -2.5941   -3.1887 O   0  0  0  0  0  0  0  0  0  0  0  0
    3.3033   -2.0516   -1.1276 C   0  0  0  0  0  0  0  0  0  0  0  0
    3.4543   -1.7067    0.2183 C   0  0  0  0  0  0  0  0  0  0  0  0
    4.7307   -1.6828    0.7817 C   0  0  0  0  0  0  0  0  0  0  0  0
    5.8553   -1.9998    0.0071 C   0  0  0  0  0  0  0  0  0  0  0  0
    7.2224   -2.0102    0.6267 C   0  0  0  0  0  0  0  0  0  0  0  0
    5.6844   -2.3706   -1.3341 C   0  0  0  0  0  0  0  0  0  0  0  0
    4.4111   -2.3962   -1.9054 C   0  0  0  0  0  0  0  0  0  0  0  0
    0.9095    1.0732   -0.1771 N   0  0  0  0  0  0  0  0  0  0  0  0
    0.0338    1.6131    0.7929 C   0  0  0  0  0  0  0  0  0  0  0  0
    0.5540    2.5832    1.6534 C   0  0  0  0  0  0  0  0  0  0  0  0
   -0.2449    3.1629    2.6375 C   0  0  0  0  0  0  0  0  0  0  0  0
   -1.5766    2.7760    2.7675 C   0  0  0  0  0  0  0  0  0  0  0  0
   -2.1198    1.8077    1.9182 C   0  0  0  0  0  0  0  0  0  0  0  0
   -1.3195    1.2226    0.9356 C   0  0  0  0  0  0  0  0  0  0  0  0
   -1.7748    0.2470    0.0195 N   0  0  0  0  0  0  0  0  0  0  0  0
   -5.7891    2.3176    2.3294 H   0  0  0  0  0  0  0  0  0  0  0  0
   -5.8683    0.5998    2.7713 H   0  0  0  0  0  0  0  0  0  0  0  0
   -7.3548    1.5401    2.6138 H   0  0  0  0  0  0  0  0  0  0  0  0
   -7.0103    0.0840    0.6148 H   0  0  0  0  0  0  0  0  0  0  0  0
   -7.0482    1.7971    0.2125 H   0  0  0  0  0  0  0  0  0  0  0  0
   -4.5522    1.8587    0.1385 H   0  0  0  0  0  0  0  0  0  0  0  0
   -5.2785    0.8003   -1.0536 H   0  0  0  0  0  0  0  0  0  0  0  0
   -4.0764   -0.2310    1.5944 H   0  0  0  0  0  0  0  0  0  0  0  0
   -4.8322   -1.1877    0.3564 H   0  0  0  0  0  0  0  0  0  0  0  0
    3.0830    0.7200   -2.0681 H   0  0  0  0  0  0  0  0  0  0  0  0
    2.6394   -0.1339   -3.5723 H   0  0  0  0  0  0  0  0  0  0  0  0
    1.7383    1.2908   -3.0766 H   0  0  0  0  0  0  0  0  0  0  0  0
    2.5897   -1.4627    0.8310 H   0  0  0  0  0  0  0  0  0  0  0  0
    4.8439   -1.4200    1.8316 H   0  0  0  0  0  0  0  0  0  0  0  0
    7.2946   -1.2643    1.4252 H   0  0  0  0  0  0  0  0  0  0  0  0
    7.9893   -1.7658   -0.1158 H   0  0  0  0  0  0  0  0  0  0  0  0
    7.4360   -2.9987    1.0447 H   0  0  0  0  0  0  0  0  0  0  0  0
    6.5447   -2.6476   -1.9405 H   0  0  0  0  0  0  0  0  0  0  0  0
    4.2946   -2.6905   -2.9461 H   0  0  0  0  0  0  0  0  0  0  0  0
    1.5930    2.8886    1.5530 H   0  0  0  0  0  0  0  0  0  0  0  0
    0.1720    3.9172    3.3006 H   0  0  0  0  0  0  0  0  0  0  0  0
   -2.1979    3.2337    3.5350 H   0  0  0  0  0  0  0  0  0  0  0  0
   -3.1605    1.5578    2.0653 H   0  0  0  0  0  0  0  0  0  0  0  0
  1  2  1  0
  2  3  1  0
  3  4  1  0
  4  5  1  0
  5  6  2  0
  6  7  1  0
  7  8  2  0
  8  9  1  0
  9 10  1  0
 10 11  1  0
 10 12  1  0
 12 13  2  0
 12 14  2  0
 12 15  1  0
 15 16  2  0
 16 17  1  0
 17 18  2  0
 18 19  1  0
 18 20  1  0
 20 21  2  0
  9 22  2  0
 22 23  1  0
 23 24  2  0
 24 25  1  0
 25 26  2  0
 26 27  1  0
 27 28  2  0
 28 29  1  0
 29  5  1  0
 29  8  1  0
 21 15  1  0
 28 23  1  0
  1 30  1  0
  1 31  1  0
  1 32  1  0
  2 33  1  0
  2 34  1  0
  3 35  1  0
  3 36  1  0
  4 37  1  0
  4 38  1  0
 11 39  1  0
 11 40  1  0
 11 41  1  0
 16 42  1  0
 17 43  1  0
 19 44  1  0
 19 45  1  0
 19 46  1  0
 20 47  1  0
 21 48  1  0
 24 49  1  0
 25 50  1  0
 26 51  1  0
 27 52  1  0
M  END
$$$$
