
     RDKit          3D

 46 49  0  0  0  0  0  0  0  0999 V2000
    3.9446    1.4808   -1.8338 C   0  0  0  0  0  0  0  0  0  0  0  0
    4.0738    0.1566   -1.6797 C   0  0  0  0  0  0  0  0  0  0  0  0
    3.5095   -0.7296   -0.5878 C   0  0  0  0  0  0  0  0  0  0  0  0
    2.9483   -0.0451    0.6933 C   0  0  0  0  0  0  0  0  0  0  0  0
    1.5387   -0.4369    0.9615 N   0  0  0  0  0  0  0  0  0  0  0  0
    1.5060   -1.8980    1.1734 C   0  0  0  0  0  0  0  0  0  0  0  0
    2.0278   -2.6668   -0.0489 C   0  0  0  0  0  0  0  0  0  0  0  0
    2.4119   -1.6702   -1.1565 C   0  0  0  0  0  0  0  0  0  0  0  0
    1.1415   -0.8570   -1.4774 C   0  0  0  0  0  0  0  0  0  0  0  0
    0.7369   -0.0435   -0.2267 C   0  0  0  0  0  0  0  0  0  0  0  0
   -0.7406   -0.0486    0.0833 C   0  0  0  0  0  0  0  0  0  0  0  0
   -1.5377   -1.1585   -0.0736 N   0  0  0  0  0  0  0  0  0  0  0  0
   -2.8400   -0.8852    0.2646 C   0  0  0  0  0  0  0  0  0  0  0  0
   -3.9702   -1.7112    0.2381 C   0  0  0  0  0  0  0  0  0  0  0  0
   -5.1846   -1.1608    0.6573 C   0  0  0  0  0  0  0  0  0  0  0  0
   -5.2607    0.1608    1.0886 C   0  0  0  0  0  0  0  0  0  0  0  0
   -4.1188    0.9702    1.1103 C   0  0  0  0  0  0  0  0  0  0  0  0
   -2.8820    0.4400    0.6875 C   0  0  0  0  0  0  0  0  0  0  0  0
   -1.5538    0.9671    0.5798 C   0  0  0  0  0  0  0  0  0  0  0  0
   -1.1289    2.3616    0.9471 C   0  0  0  0  0  0  0  0  0  0  0  0
   -1.4749    3.3885   -0.1315 C   0  0  0  0  0  0  0  0  0  0  0  0
   -0.7021    3.1855   -1.3126 O   0  0  0  0  0  0  0  0  0  0  0  0
    3.3701    2.1076   -1.1608 H   0  0  0  0  0  0  0  0  0  0  0  0
    4.4124    1.9823   -2.6769 H   0  0  0  0  0  0  0  0  0  0  0  0
    4.6610   -0.3733   -2.4308 H   0  0  0  0  0  0  0  0  0  0  0  0
    4.3503   -1.3595   -0.2618 H   0  0  0  0  0  0  0  0  0  0  0  0
    3.5657   -0.3358    1.5544 H   0  0  0  0  0  0  0  0  0  0  0  0
    3.0193    1.0464    0.6668 H   0  0  0  0  0  0  0  0  0  0  0  0
    2.1104   -2.1536    2.0535 H   0  0  0  0  0  0  0  0  0  0  0  0
    0.4941   -2.2320    1.4275 H   0  0  0  0  0  0  0  0  0  0  0  0
    2.8977   -3.2728    0.2311 H   0  0  0  0  0  0  0  0  0  0  0  0
    1.2567   -3.3561   -0.4132 H   0  0  0  0  0  0  0  0  0  0  0  0
    2.7620   -2.2077   -2.0450 H   0  0  0  0  0  0  0  0  0  0  0  0
    0.3558   -1.5392   -1.8197 H   0  0  0  0  0  0  0  0  0  0  0  0
    1.3317   -0.1731   -2.3136 H   0  0  0  0  0  0  0  0  0  0  0  0
    0.9764    1.0057   -0.4515 H   0  0  0  0  0  0  0  0  0  0  0  0
   -1.2171   -2.0638   -0.3835 H   0  0  0  0  0  0  0  0  0  0  0  0
   -3.9124   -2.7429   -0.0923 H   0  0  0  0  0  0  0  0  0  0  0  0
   -6.0815   -1.7757    0.6495 H   0  0  0  0  0  0  0  0  0  0  0  0
   -6.2140    0.5692    1.4145 H   0  0  0  0  0  0  0  0  0  0  0  0
   -4.1905    1.9977    1.4533 H   0  0  0  0  0  0  0  0  0  0  0  0
   -0.0498    2.3806    1.1384 H   0  0  0  0  0  0  0  0  0  0  0  0
   -1.6209    2.6457    1.8851 H   0  0  0  0  0  0  0  0  0  0  0  0
   -2.5352    3.3569   -0.4031 H   0  0  0  0  0  0  0  0  0  0  0  0
   -1.2511    4.3956    0.2340 H   0  0  0  0  0  0  0  0  0  0  0  0
   -0.9357    2.2975   -1.6389 H   0  0  0  0  0  0  0  0  0  0  0  0
  1  2  2  0
  2  3  1  0
  3  4  1  0
  4  5  1  0
  5  6  1  0
  6  7  1  0
  7  8  1  0
  8  9  1  0
  9 10  1  0
 10 11  1  0
 11 12  1  0
 12 13  1  0
 13 14  2  0
 14 15  1  0
 15 16  2  0
 16 17  1  0
 17 18  2  0
 18 19  1  0
 19 20  1  0
 20 21  1  0
 21 22  1  0
  8  3  1  0
 19 11  2  0
 10  5  1  0
 18 13  1  0
  1 23  1  0
  1 24  1  0
  2 25  1  0
  3 26  1  0
  4 27  1  0
  4 28  1  0
  6 29  1  0
  6 30  1  0
  7 31  1  0
  7 32  1  0
  8 33  1  0
  9 34  1  0
  9 35  1  0
 10 36  1  0
 12 37  1  0
 14 38  1  0
 15 39  1  0
 16 40  1  0
 17 41  1  0
 20 42  1  0
 20 43  1  0
 21 44  1  0
 21 45  1  0
 22 46  1  0
M  END
$$$$
