
     RDKit          3D

 46 48  0  0  0  0  0  0  0  0999 V2000
   -2.8345   -4.1334    1.6257 C   0  0  0  0  0  0  0  0  0  0  0  0
   -2.1930   -2.9780    1.0990 O   0  0  0  0  0  0  0  0  0  0  0  0
   -2.9419   -2.1740    0.2684 C   0  0  0  0  0  0  0  0  0  0  0  0
   -4.2393   -2.4580   -0.1636 C   0  0  0  0  0  0  0  0  0  0  0  0
   -4.9074   -1.5665   -1.0067 C   0  0  0  0  0  0  0  0  0  0  0  0
   -4.2914   -0.3819   -1.4220 C   0  0  0  0  0  0  0  0  0  0  0  0
   -4.9963    0.5586   -2.3558 C   0  0  0  0  0  0  0  0  0  0  0  0
   -2.9821   -0.1058   -1.0027 C   0  0  0  0  0  0  0  0  0  0  0  0
   -2.3048   -0.9885   -0.1585 C   0  0  0  0  0  0  0  0  0  0  0  0
   -0.9901   -0.7728    0.3150 N   0  0  0  0  0  0  0  0  0  0  0  0
   -0.1492    0.2966    0.0645 C   0  0  0  0  0  0  0  0  0  0  0  0
   -0.4165    1.2719   -0.6237 O   0  0  0  0  0  0  0  0  0  0  0  0
    1.1797    0.1586    0.8113 C   0  0  0  0  0  0  0  0  0  0  0  0
    0.9483    0.5893    2.2511 C   0  0  0  0  0  0  0  0  0  0  0  0
    1.4180    2.0130    2.2426 C   0  0  0  0  0  0  0  0  0  0  0  0
    1.2222    2.8178    3.1388 O   0  0  0  0  0  0  0  0  0  0  0  0
    2.1440    2.2726    1.1198 O   0  0  0  0  0  0  0  0  0  0  0  0
    2.3363    1.0610    0.3659 C   0  0  0  0  0  0  0  0  0  0  0  0
    3.6971    0.4639    0.7981 C   0  0  0  0  0  0  0  0  0  0  0  0
    4.8684    1.4257    0.5670 C   0  0  0  0  0  0  0  0  0  0  0  0
    4.6853    2.3274   -0.6516 C   0  0  0  0  0  0  0  0  0  0  0  0
    3.7819    1.6847   -1.6905 C   0  0  0  0  0  0  0  0  0  0  0  0
    2.3787    1.3910   -1.1413 C   0  0  0  0  0  0  0  0  0  0  0  0
   -2.1281   -4.6262    2.3011 H   0  0  0  0  0  0  0  0  0  0  0  0
   -3.7200   -3.8660    2.2109 H   0  0  0  0  0  0  0  0  0  0  0  0
   -3.0852   -4.8424    0.8298 H   0  0  0  0  0  0  0  0  0  0  0  0
   -4.7582   -3.3641    0.1277 H   0  0  0  0  0  0  0  0  0  0  0  0
   -5.9158   -1.8039   -1.3401 H   0  0  0  0  0  0  0  0  0  0  0  0
   -4.7278    0.3278   -3.3913 H   0  0  0  0  0  0  0  0  0  0  0  0
   -4.7239    1.5972   -2.1400 H   0  0  0  0  0  0  0  0  0  0  0  0
   -6.0832    0.4788   -2.2474 H   0  0  0  0  0  0  0  0  0  0  0  0
   -2.5120    0.8091   -1.3506 H   0  0  0  0  0  0  0  0  0  0  0  0
   -0.6644   -1.5231    0.9171 H   0  0  0  0  0  0  0  0  0  0  0  0
    1.4723   -0.8976    0.7478 H   0  0  0  0  0  0  0  0  0  0  0  0
   -0.0982    0.5451    2.5639 H   0  0  0  0  0  0  0  0  0  0  0  0
    1.5706    0.0189    2.9469 H   0  0  0  0  0  0  0  0  0  0  0  0
    3.8761   -0.4648    0.2401 H   0  0  0  0  0  0  0  0  0  0  0  0
    3.6980    0.1914    1.8602 H   0  0  0  0  0  0  0  0  0  0  0  0
    5.7866    0.8360    0.4581 H   0  0  0  0  0  0  0  0  0  0  0  0
    5.0157    2.0549    1.4534 H   0  0  0  0  0  0  0  0  0  0  0  0
    5.6635    2.5595   -1.0881 H   0  0  0  0  0  0  0  0  0  0  0  0
    4.2519    3.2853   -0.3387 H   0  0  0  0  0  0  0  0  0  0  0  0
    4.2386    0.7475   -2.0331 H   0  0  0  0  0  0  0  0  0  0  0  0
    3.7014    2.3292   -2.5732 H   0  0  0  0  0  0  0  0  0  0  0  0
    1.7584    2.2734   -1.3400 H   0  0  0  0  0  0  0  0  0  0  0  0
    1.9701    0.5610   -1.7310 H   0  0  0  0  0  0  0  0  0  0  0  0
  1  2  1  0
  2  3  1  0
  3  4  2  0
  4  5  1  0
  5  6  2  0
  6  7  1  0
  6  8  1  0
  8  9  2  0
  9 10  1  0
 10 11  1  0
 11 12  2  0
 11 13  1  0
 13 14  1  0
 14 15  1  0
 15 16  2  0
 15 17  1  0
 17 18  1  0
 18 19  1  0
 19 20  1  0
 20 21  1  0
 21 22  1  0
 22 23  1  0
  9  3  1  0
 18 13  1  0
 23 18  1  0
  1 24  1  0
  1 25  1  0
  1 26  1  0
  4 27  1  0
  5 28  1  0
  7 29  1  0
  7 30  1  0
  7 31  1  0
  8 32  1  0
 10 33  1  0
 13 34  1  0
 14 35  1  0
 14 36  1  0
 19 37  1  0
 19 38  1  0
 20 39  1  0
 20 40  1  0
 21 41  1  0
 21 42  1  0
 22 43  1  0
 22 44  1  0
 23 45  1  0
 23 46  1  0
M  END
$$$$
