
     RDKit          3D

 42 44  0  0  0  0  0  0  0  0999 V2000
    1.6782    3.7704    2.3822 C   0  0  0  0  0  0  0  0  0  0  0  0
   -0.0604    3.4479    1.9853 S   0  0  0  0  0  0  0  0  0  0  0  0
    0.0634    1.8702    1.1401 C   0  0  0  0  0  0  0  0  0  0  0  0
    1.3112    1.4454    0.8577 N   0  0  0  0  0  0  0  0  0  0  0  0
    1.4304    0.3040    0.1620 C   0  0  0  0  0  0  0  0  0  0  0  0
    2.7909   -0.1729   -0.1597 C   0  0  0  0  0  0  0  0  0  0  0  0
    3.9364    0.5449    0.2373 C   0  0  0  0  0  0  0  0  0  0  0  0
    5.2253    0.0955   -0.0683 C   0  0  0  0  0  0  0  0  0  0  0  0
    5.4000   -1.0865   -0.7808 C   0  0  0  0  0  0  0  0  0  0  0  0
    4.2888   -1.8190   -1.1862 C   0  0  0  0  0  0  0  0  0  0  0  0
    3.0016   -1.3665   -0.8784 C   0  0  0  0  0  0  0  0  0  0  0  0
    0.3881   -0.4260   -0.2742 N   0  0  0  0  0  0  0  0  0  0  0  0
   -0.8568   -0.0074    0.0221 C   0  0  0  0  0  0  0  0  0  0  0  0
   -1.9529   -0.7709   -0.4407 N   0  0  0  0  0  0  0  0  0  0  0  0
   -2.5274   -1.6039    0.6500 C   0  0  0  0  0  0  0  0  0  0  0  0
   -3.7591   -2.3587    0.1196 C   0  0  0  0  0  0  0  0  0  0  0  0
   -3.4327   -3.1671   -1.0238 O   0  0  0  0  0  0  0  0  0  0  0  0
   -2.8933   -2.3499   -2.0770 C   0  0  0  0  0  0  0  0  0  0  0  0
   -1.6251   -1.6148   -1.6146 C   0  0  0  0  0  0  0  0  0  0  0  0
   -1.0578    1.1655    0.7405 C   0  0  0  0  0  0  0  0  0  0  0  0
   -2.4159    1.6593    0.9974 C   0  0  0  0  0  0  0  0  0  0  0  0
   -3.1793    2.2232   -0.1695 C   0  0  0  0  0  0  0  0  0  0  0  0
   -2.8898    1.5758    2.1270 O   0  0  0  0  0  0  0  0  0  0  0  0
    2.2645    3.8951    1.4667 H   0  0  0  0  0  0  0  0  0  0  0  0
    1.7422    4.6993    2.9567 H   0  0  0  0  0  0  0  0  0  0  0  0
    2.0977    2.9627    2.9889 H   0  0  0  0  0  0  0  0  0  0  0  0
    3.8313    1.4742    0.7956 H   0  0  0  0  0  0  0  0  0  0  0  0
    6.0898    0.6714    0.2522 H   0  0  0  0  0  0  0  0  0  0  0  0
    6.4008   -1.4371   -1.0186 H   0  0  0  0  0  0  0  0  0  0  0  0
    4.4195   -2.7443   -1.7420 H   0  0  0  0  0  0  0  0  0  0  0  0
    2.1512   -1.9621   -1.2074 H   0  0  0  0  0  0  0  0  0  0  0  0
   -2.8336   -0.9968    1.5076 H   0  0  0  0  0  0  0  0  0  0  0  0
   -1.7778   -2.3296    0.9940 H   0  0  0  0  0  0  0  0  0  0  0  0
   -4.1491   -3.0248    0.8949 H   0  0  0  0  0  0  0  0  0  0  0  0
   -4.5592   -1.6605   -0.1560 H   0  0  0  0  0  0  0  0  0  0  0  0
   -3.6631   -1.6432   -2.4063 H   0  0  0  0  0  0  0  0  0  0  0  0
   -2.6571   -3.0077   -2.9194 H   0  0  0  0  0  0  0  0  0  0  0  0
   -1.2490   -0.9951   -2.4370 H   0  0  0  0  0  0  0  0  0  0  0  0
   -0.8632   -2.3608   -1.3527 H   0  0  0  0  0  0  0  0  0  0  0  0
   -3.5583    3.2126    0.0985 H   0  0  0  0  0  0  0  0  0  0  0  0
   -2.5391    2.3307   -1.0500 H   0  0  0  0  0  0  0  0  0  0  0  0
   -4.0112    1.5575   -0.4137 H   0  0  0  0  0  0  0  0  0  0  0  0
  1  2  1  0
  2  3  1  0
  3  4  2  0
  4  5  1  0
  5  6  1  0
  6  7  2  0
  7  8  1  0
  8  9  2  0
  9 10  1  0
 10 11  2  0
  5 12  2  0
 12 13  1  0
 13 14  1  0
 14 15  1  0
 15 16  1  0
 16 17  1  0
 17 18  1  0
 18 19  1  0
 13 20  2  0
 20 21  1  0
 21 22  1  0
 21 23  2  0
 20  3  1  0
 11  6  1  0
 19 14  1  0
  1 24  1  0
  1 25  1  0
  1 26  1  0
  7 27  1  0
  8 28  1  0
  9 29  1  0
 10 30  1  0
 11 31  1  0
 15 32  1  0
 15 33  1  0
 16 34  1  0
 16 35  1  0
 18 36  1  0
 18 37  1  0
 19 38  1  0
 19 39  1  0
 22 40  1  0
 22 41  1  0
 22 42  1  0
M  END
$$$$
