
     RDKit          3D

 40 43  0  0  0  0  0  0  0  0999 V2000
    1.8178    2.2256    0.6853 O   0  0  0  0  0  0  0  0  0  0  0  0
    2.1969    1.4488   -0.4786 S   0  0  0  0  0  6  0  0  0  0  0  0
    2.6129    2.0991   -1.7007 O   0  0  0  0  0  0  0  0  0  0  0  0
    3.4880    0.3712    0.0008 C   0  0  0  0  0  0  0  0  0  0  0  0
    4.1690    0.5399    1.2277 C   0  0  0  0  0  0  0  0  0  0  0  0
    5.2178   -0.3184    1.6451 C   0  0  0  0  0  0  0  0  0  0  0  0
    5.6663   -1.4076    0.8753 C   0  0  0  0  0  0  0  0  0  0  0  0
    4.9943   -1.5858   -0.3499 C   0  0  0  0  0  0  0  0  0  0  0  0
    5.1881   -2.5226   -1.2843 N   0  0  0  0  0  0  0  0  0  0  0  0
    4.2727   -2.2509   -2.2850 O   0  0  0  0  0  0  0  0  0  0  0  0
    3.4924   -1.1514   -1.9820 N   0  0  0  0  0  0  0  0  0  0  0  0
    3.9140   -0.7077   -0.7904 C   0  0  0  0  0  0  0  0  0  0  0  0
    0.8984    0.4088   -0.8115 N   0  0  0  0  0  0  0  0  0  0  0  0
    0.3046   -0.3055    0.3623 C   0  0  0  0  0  0  0  0  0  0  0  0
   -1.0230    0.3209    0.8297 C   0  0  0  0  0  0  0  0  0  0  0  0
   -2.0183    0.3349   -0.2561 N   0  0  0  0  0  0  0  0  0  0  0  0
   -3.3711    0.1518    0.0056 C   0  0  0  0  0  0  0  0  0  0  0  0
   -3.9236    0.5436    1.2394 C   0  0  0  0  0  0  0  0  0  0  0  0
   -5.2851    0.3835    1.5330 C   0  0  0  0  0  0  0  0  0  0  0  0
   -6.1431   -0.1753    0.5931 C   0  0  0  0  0  0  0  0  0  0  0  0
   -5.6365   -0.5688   -0.6391 C   0  0  0  0  0  0  0  0  0  0  0  0
   -4.2779   -0.4034   -0.9217 C   0  0  0  0  0  0  0  0  0  0  0  0
   -3.8541   -0.8300   -2.1232 F   0  0  0  0  0  0  0  0  0  0  0  0
   -1.4916    0.2968   -1.6319 C   0  0  0  0  0  0  0  0  0  0  0  0
   -0.1332    1.0169   -1.7165 C   0  0  0  0  0  0  0  0  0  0  0  0
    3.8885    1.3656    1.8848 H   0  0  0  0  0  0  0  0  0  0  0  0
    5.7007   -0.1232    2.6041 H   0  0  0  0  0  0  0  0  0  0  0  0
    6.4683   -2.0610    1.1954 H   0  0  0  0  0  0  0  0  0  0  0  0
    0.1416   -1.3477    0.0597 H   0  0  0  0  0  0  0  0  0  0  0  0
    1.0082   -0.3386    1.2006 H   0  0  0  0  0  0  0  0  0  0  0  0
   -0.8568    1.3483    1.1735 H   0  0  0  0  0  0  0  0  0  0  0  0
   -1.3774   -0.2701    1.6826 H   0  0  0  0  0  0  0  0  0  0  0  0
   -3.3002    1.0156    1.9947 H   0  0  0  0  0  0  0  0  0  0  0  0
   -5.6704    0.7067    2.4971 H   0  0  0  0  0  0  0  0  0  0  0  0
   -7.1988   -0.2994    0.8175 H   0  0  0  0  0  0  0  0  0  0  0  0
   -6.2848   -1.0092   -1.3899 H   0  0  0  0  0  0  0  0  0  0  0  0
   -1.3807   -0.7453   -1.9551 H   0  0  0  0  0  0  0  0  0  0  0  0
   -2.1748    0.8069   -2.3211 H   0  0  0  0  0  0  0  0  0  0  0  0
    0.2381    0.9645   -2.7458 H   0  0  0  0  0  0  0  0  0  0  0  0
   -0.2772    2.0722   -1.4528 H   0  0  0  0  0  0  0  0  0  0  0  0
  1  2  2  0
  2  3  2  0
  2  4  1  0
  4  5  2  0
  5  6  1  0
  6  7  2  0
  7  8  1  0
  8  9  2  0
  9 10  1  0
 10 11  1  0
 11 12  2  0
  2 13  1  0
 13 14  1  0
 14 15  1  0
 15 16  1  0
 16 17  1  0
 17 18  2  0
 18 19  1  0
 19 20  2  0
 20 21  1  0
 21 22  2  0
 22 23  1  0
 16 24  1  0
 24 25  1  0
 12  4  1  0
 25 13  1  0
 12  8  1  0
 22 17  1  0
  5 26  1  0
  6 27  1  0
  7 28  1  0
 14 29  1  0
 14 30  1  0
 15 31  1  0
 15 32  1  0
 18 33  1  0
 19 34  1  0
 20 35  1  0
 21 36  1  0
 24 37  1  0
 24 38  1  0
 25 39  1  0
 25 40  1  0
M  END
$$$$
