
     RDKit          3D

 59 62  0  0  0  0  0  0  0  0999 V2000
    2.9425    3.3420   -3.8178 C   0  0  0  0  0  0  0  0  0  0  0  0
    3.3542    1.9658   -3.3871 C   0  0  0  0  0  0  0  0  0  0  0  0
    2.6954    0.8397   -3.8924 C   0  0  0  0  0  0  0  0  0  0  0  0
    3.0571   -0.4412   -3.4694 C   0  0  0  0  0  0  0  0  0  0  0  0
    4.0846   -0.6199   -2.5339 C   0  0  0  0  0  0  0  0  0  0  0  0
    4.4658   -2.0059   -2.0822 C   0  0  0  0  0  0  0  0  0  0  0  0
    3.5692   -2.4809   -1.0537 N   0  0  0  0  0  0  0  0  0  0  0  0
    2.5183   -3.3225   -1.3436 C   0  0  0  0  0  0  0  0  0  0  0  0
    2.3357   -3.8279   -2.4459 O   0  0  0  0  0  0  0  0  0  0  0  0
    1.6441   -3.6150   -0.1388 C   0  0  0  0  0  0  0  0  0  0  0  0
    0.2864   -4.2065   -0.5168 C   0  0  0  0  0  0  0  0  0  0  0  0
   -0.6100   -3.2438   -1.3021 C   0  0  0  0  0  0  0  0  0  0  0  0
   -0.9716   -2.0560   -0.5341 N   0  0  0  0  0  0  0  0  0  0  0  0
   -0.1785   -0.9251   -0.7577 N   0  0  0  0  0  0  0  0  0  0  0  0
   -0.4042    0.1929   -0.1267 C   0  0  0  0  0  0  0  0  0  0  0  0
    0.4756    1.3721   -0.4266 C   0  0  0  0  0  0  0  0  0  0  0  0
   -1.4744    0.2569    0.8380 C   0  0  0  0  0  0  0  0  0  0  0  0
   -1.9303    1.2311    1.7111 C   0  0  0  0  0  0  0  0  0  0  0  0
   -1.3508    2.5577    2.0450 C   0  0  0  0  0  0  0  0  0  0  0  0
   -3.0736    0.6862    2.3098 N   0  0  0  0  0  0  0  0  0  0  0  0
   -4.0756    1.2937    3.1295 C   0  0  0  0  0  0  0  0  0  0  0  0
   -4.9278    0.4662    3.8822 C   0  0  0  0  0  0  0  0  0  0  0  0
   -5.9235    1.0166    4.6928 C   0  0  0  0  0  0  0  0  0  0  0  0
   -6.0906    2.3969    4.7497 C   0  0  0  0  0  0  0  0  0  0  0  0
   -5.2709    3.2258    3.9873 C   0  0  0  0  0  0  0  0  0  0  0  0
   -4.2711    2.6792    3.1746 C   0  0  0  0  0  0  0  0  0  0  0  0
   -3.1866   -0.6385    2.0202 N   0  0  0  0  0  0  0  0  0  0  0  0
   -2.2687   -0.8688    1.0793 C   0  0  0  0  0  0  0  0  0  0  0  0
   -2.0418   -2.1286    0.3824 C   0  0  0  0  0  0  0  0  0  0  0  0
   -2.7037   -3.1456    0.5784 O   0  0  0  0  0  0  0  0  0  0  0  0
    4.7256    0.5099   -2.0096 C   0  0  0  0  0  0  0  0  0  0  0  0
    4.3614    1.7916   -2.4313 C   0  0  0  0  0  0  0  0  0  0  0  0
    2.1447    3.7139   -3.1675 H   0  0  0  0  0  0  0  0  0  0  0  0
    2.5832    3.3364   -4.8523 H   0  0  0  0  0  0  0  0  0  0  0  0
    3.7888    4.0355   -3.7721 H   0  0  0  0  0  0  0  0  0  0  0  0
    1.8927    0.9491   -4.6183 H   0  0  0  0  0  0  0  0  0  0  0  0
    2.5296   -1.3058   -3.8708 H   0  0  0  0  0  0  0  0  0  0  0  0
    5.4744   -2.0020   -1.6542 H   0  0  0  0  0  0  0  0  0  0  0  0
    4.4805   -2.6926   -2.9361 H   0  0  0  0  0  0  0  0  0  0  0  0
    3.5425   -1.9608   -0.1880 H   0  0  0  0  0  0  0  0  0  0  0  0
    2.1860   -4.3399    0.4807 H   0  0  0  0  0  0  0  0  0  0  0  0
    1.5174   -2.7078    0.4609 H   0  0  0  0  0  0  0  0  0  0  0  0
   -0.2250   -4.5151    0.4029 H   0  0  0  0  0  0  0  0  0  0  0  0
    0.4333   -5.1139   -1.1151 H   0  0  0  0  0  0  0  0  0  0  0  0
   -1.5331   -3.7678   -1.5769 H   0  0  0  0  0  0  0  0  0  0  0  0
   -0.1379   -2.9250   -2.2378 H   0  0  0  0  0  0  0  0  0  0  0  0
   -0.1292    2.2691   -0.5815 H   0  0  0  0  0  0  0  0  0  0  0  0
    1.0575    1.1869   -1.3323 H   0  0  0  0  0  0  0  0  0  0  0  0
    1.1685    1.5311    0.4038 H   0  0  0  0  0  0  0  0  0  0  0  0
   -1.5360    2.8356    3.0867 H   0  0  0  0  0  0  0  0  0  0  0  0
   -0.2627    2.5472    1.9364 H   0  0  0  0  0  0  0  0  0  0  0  0
   -1.7464    3.3325    1.3819 H   0  0  0  0  0  0  0  0  0  0  0  0
   -4.8218   -0.6179    3.8562 H   0  0  0  0  0  0  0  0  0  0  0  0
   -6.5688    0.3634    5.2748 H   0  0  0  0  0  0  0  0  0  0  0  0
   -6.8685    2.8250    5.3766 H   0  0  0  0  0  0  0  0  0  0  0  0
   -5.4200    4.3027    4.0134 H   0  0  0  0  0  0  0  0  0  0  0  0
   -3.7040    3.3668    2.5595 H   0  0  0  0  0  0  0  0  0  0  0  0
    5.5180    0.4007   -1.2729 H   0  0  0  0  0  0  0  0  0  0  0  0
    4.8743    2.6544   -2.0123 H   0  0  0  0  0  0  0  0  0  0  0  0
  1  2  1  0
  2  3  2  0
  3  4  1  0
  4  5  2  0
  5  6  1  0
  6  7  1  0
  7  8  1  0
  8  9  2  0
  8 10  1  0
 10 11  1  0
 11 12  1  0
 12 13  1  0
 13 14  1  0
 14 15  2  0
 15 16  1  0
 15 17  1  0
 17 18  2  0
 18 19  1  0
 18 20  1  0
 20 21  1  0
 21 22  2  0
 22 23  1  0
 23 24  2  0
 24 25  1  0
 25 26  2  0
 20 27  1  0
 27 28  2  0
 28 29  1  0
 29 30  2  0
  5 31  1  0
 31 32  2  0
 32  2  1  0
 29 13  1  0
 28 17  1  0
 26 21  1  0
  1 33  1  0
  1 34  1  0
  1 35  1  0
  3 36  1  0
  4 37  1  0
  6 38  1  0
  6 39  1  0
  7 40  1  0
 10 41  1  0
 10 42  1  0
 11 43  1  0
 11 44  1  0
 12 45  1  0
 12 46  1  0
 16 47  1  0
 16 48  1  0
 16 49  1  0
 19 50  1  0
 19 51  1  0
 19 52  1  0
 22 53  1  0
 23 54  1  0
 24 55  1  0
 25 56  1  0
 26 57  1  0
 31 58  1  0
 32 59  1  0
M  END
$$$$
