
     RDKit          3D

 53 58  0  0  0  0  0  0  0  0999 V2000
   -0.6060   -1.9559    0.4982 O   0  0  0  0  0  0  0  0  0  0  0  0
   -1.1498   -0.9321    0.9225 C   0  0  0  0  0  0  0  0  0  0  0  0
   -0.2578    0.2778    1.2899 C   0  0  0  0  0  0  0  0  0  0  0  0
    0.9514    0.3251    0.4413 N   0  0  0  0  0  4  0  0  0  0  0  0
    2.2708    0.4666    0.8696 C   0  0  0  0  0  0  0  0  0  0  0  0
    3.1139    0.4247   -0.2371 C   0  0  0  0  0  0  0  0  0  0  0  0
    4.6823    0.5134   -0.2214 C   0  0  0  0  0  0  0  0  0  0  0  0
    5.3573    0.7410    0.9840 C   0  0  0  0  0  0  0  0  0  0  0  0
    6.7529    0.8140    1.0044 C   0  0  0  0  0  0  0  0  0  0  0  0
    7.4800    0.6587   -0.1735 C   0  0  0  0  0  0  0  0  0  0  0  0
    6.8121    0.4284   -1.3735 C   0  0  0  0  0  0  0  0  0  0  0  0
    5.4167    0.3538   -1.3984 C   0  0  0  0  0  0  0  0  0  0  0  0
    2.2361    0.2882   -1.2998 N   0  0  0  0  0  0  0  0  0  0  0  0
    0.9774    0.1863   -0.8833 C   0  0  0  0  0  0  0  0  0  0  0  0
    0.0112    0.0069   -1.9964 C   0  0  0  0  0  0  0  0  0  0  0  0
    0.8665    0.3743   -3.2250 C   0  0  0  0  0  0  0  0  0  0  0  0
    2.3357    0.1965   -2.7504 C   0  0  0  0  0  0  0  0  0  0  0  0
   -2.5363   -0.6750    0.9351 N   0  0  0  0  0  0  0  0  0  0  0  0
   -3.4119   -1.2586   -0.0524 C   0  0  0  0  0  0  0  0  0  0  0  0
   -3.1529   -2.5324   -0.5931 C   0  0  0  0  0  0  0  0  0  0  0  0
   -3.9638   -3.0871   -1.5897 C   0  0  0  0  0  0  0  0  0  0  0  0
   -5.0544   -2.3803   -2.0715 C   0  0  0  0  0  0  0  0  0  0  0  0
   -5.3397   -1.1219   -1.5488 C   0  0  0  0  0  0  0  0  0  0  0  0
   -4.5324   -0.5619   -0.5459 C   0  0  0  0  0  0  0  0  0  0  0  0
   -4.9358    1.0854   -0.0121 S   0  0  0  0  0  0  0  0  0  0  0  0
   -4.2253    1.0309    1.6086 C   0  0  0  0  0  0  0  0  0  0  0  0
   -4.7543    1.8812    2.5905 C   0  0  0  0  0  0  0  0  0  0  0  0
   -4.2205    1.9012    3.8781 C   0  0  0  0  0  0  0  0  0  0  0  0
   -3.1607    1.0629    4.1963 C   0  0  0  0  0  0  0  0  0  0  0  0
   -2.6231    0.2208    3.2204 C   0  0  0  0  0  0  0  0  0  0  0  0
   -3.1287    0.2083    1.9035 C   0  0  0  0  0  0  0  0  0  0  0  0
    0.0540    0.1958    2.3360 H   0  0  0  0  0  0  0  0  0  0  0  0
   -0.7807    1.2265    1.1247 H   0  0  0  0  0  0  0  0  0  0  0  0
    2.4463    0.5646    1.9297 H   0  0  0  0  0  0  0  0  0  0  0  0
    4.8347    0.8692    1.9269 H   0  0  0  0  0  0  0  0  0  0  0  0
    7.2760    0.9867    1.9444 H   0  0  0  0  0  0  0  0  0  0  0  0
    8.5666    0.7092   -0.1526 H   0  0  0  0  0  0  0  0  0  0  0  0
    7.3821    0.2984   -2.2904 H   0  0  0  0  0  0  0  0  0  0  0  0
    4.9445    0.1547   -2.3534 H   0  0  0  0  0  0  0  0  0  0  0  0
   -0.8402    0.6704   -1.8422 H   0  0  0  0  0  0  0  0  0  0  0  0
   -0.2821   -1.0452   -2.0013 H   0  0  0  0  0  0  0  0  0  0  0  0
    0.7004    1.4288   -3.4767 H   0  0  0  0  0  0  0  0  0  0  0  0
    0.6285   -0.2261   -4.1080 H   0  0  0  0  0  0  0  0  0  0  0  0
    2.9778    0.9836   -3.1533 H   0  0  0  0  0  0  0  0  0  0  0  0
    2.7176   -0.7966   -3.0127 H   0  0  0  0  0  0  0  0  0  0  0  0
   -2.3465   -3.1588   -0.2197 H   0  0  0  0  0  0  0  0  0  0  0  0
   -3.7473   -4.0817   -1.9759 H   0  0  0  0  0  0  0  0  0  0  0  0
   -5.6878   -2.8088   -2.8435 H   0  0  0  0  0  0  0  0  0  0  0  0
   -6.1957   -0.5754   -1.9390 H   0  0  0  0  0  0  0  0  0  0  0  0
   -5.5957    2.5345    2.3586 H   0  0  0  0  0  0  0  0  0  0  0  0
   -4.6498    2.5545    4.6358 H   0  0  0  0  0  0  0  0  0  0  0  0
   -2.7699    1.0459    5.2107 H   0  0  0  0  0  0  0  0  0  0  0  0
   -1.8435   -0.4714    3.5318 H   0  0  0  0  0  0  0  0  0  0  0  0
  1  2  2  0
  2  3  1  0
  3  4  1  0
  4  5  1  0
  5  6  2  0
  6  7  1  0
  7  8  2  0
  8  9  1  0
  9 10  2  0
 10 11  1  0
 11 12  2  0
  6 13  1  0
 13 14  1  0
 14 15  1  0
 15 16  1  0
 16 17  1  0
  2 18  1  0
 18 19  1  0
 19 20  2  0
 20 21  1  0
 21 22  2  0
 22 23  1  0
 23 24  2  0
 24 25  1  0
 25 26  1  0
 26 27  2  0
 27 28  1  0
 28 29  2  0
 29 30  1  0
 30 31  2  0
 14  4  2  0
 31 18  1  0
 12  7  1  0
 17 13  1  0
 24 19  1  0
 31 26  1  0
  3 32  1  0
  3 33  1  0
  5 34  1  0
  8 35  1  0
  9 36  1  0
 10 37  1  0
 11 38  1  0
 12 39  1  0
 15 40  1  0
 15 41  1  0
 16 42  1  0
 16 43  1  0
 17 44  1  0
 17 45  1  0
 20 46  1  0
 21 47  1  0
 22 48  1  0
 23 49  1  0
 27 50  1  0
 28 51  1  0
 29 52  1  0
 30 53  1  0
M  CHG  1   4   1
M  END
$$$$
