
     RDKit          3D

 45 47  0  0  0  0  0  0  0  0999 V2000
   -2.9225   -0.6294   -1.3821 O   0  0  0  0  0  0  0  0  0  0  0  0
   -3.2021    0.0844   -0.4236 C   0  0  0  0  0  0  0  0  0  0  0  0
   -2.1884    0.5158    0.6349 C   0  0  0  0  0  0  0  0  0  0  0  0
   -0.8703    0.1044    0.2814 O   0  0  0  0  0  0  0  0  0  0  0  0
    0.0631    0.3632    1.2366 C   0  0  0  0  0  0  0  0  0  0  0  0
   -0.1778    0.8781    2.3218 O   0  0  0  0  0  0  0  0  0  0  0  0
    1.4340   -0.0612    0.7690 C   0  0  0  0  0  0  0  0  0  0  0  0
    2.3609    1.3956    0.1960 S   0  0  0  0  0  0  0  0  0  0  0  0
    3.9091    0.6055   -0.1970 C   0  0  0  0  0  0  0  0  0  0  0  0
    4.0087   -0.2840   -1.2678 C   0  0  0  0  0  0  0  0  0  0  0  0
    5.2302   -0.8938   -1.5642 C   0  0  0  0  0  0  0  0  0  0  0  0
    6.3732   -0.6184   -0.7985 C   0  0  0  0  0  0  0  0  0  0  0  0
    7.6080   -1.2237   -1.0826 C   0  0  0  0  0  0  0  0  0  0  0  0
    8.7367   -0.9361   -0.3136 C   0  0  0  0  0  0  0  0  0  0  0  0
    8.6458   -0.0401    0.7474 C   0  0  0  0  0  0  0  0  0  0  0  0
    7.4257    0.5705    1.0424 C   0  0  0  0  0  0  0  0  0  0  0  0
    6.2801    0.2914    0.2795 C   0  0  0  0  0  0  0  0  0  0  0  0
    5.0447    0.8974    0.5645 C   0  0  0  0  0  0  0  0  0  0  0  0
   -4.4757    0.5761   -0.1940 N   0  0  0  0  0  0  0  0  0  0  0  0
   -5.5957    0.1930   -1.0404 C   0  0  0  0  0  0  0  0  0  0  0  0
   -6.1853   -1.1535   -0.6269 C   0  0  0  0  0  0  0  0  0  0  0  0
   -7.0865   -0.8259    0.5599 C   0  0  0  0  0  0  0  0  0  0  0  0
   -7.5122    0.6309    0.3770 C   0  0  0  0  0  0  0  0  0  0  0  0
   -6.7788    1.1397   -0.8630 C   0  0  0  0  0  0  0  0  0  0  0  0
   -2.4856    0.0539    1.5840 H   0  0  0  0  0  0  0  0  0  0  0  0
   -2.2186    1.6085    0.7160 H   0  0  0  0  0  0  0  0  0  0  0  0
    1.9474   -0.5439    1.6071 H   0  0  0  0  0  0  0  0  0  0  0  0
    1.3378   -0.8019   -0.0315 H   0  0  0  0  0  0  0  0  0  0  0  0
    3.1437   -0.5050   -1.8885 H   0  0  0  0  0  0  0  0  0  0  0  0
    5.2835   -1.5833   -2.4040 H   0  0  0  0  0  0  0  0  0  0  0  0
    7.6999   -1.9251   -1.9089 H   0  0  0  0  0  0  0  0  0  0  0  0
    9.6866   -1.4112   -0.5448 H   0  0  0  0  0  0  0  0  0  0  0  0
    9.5244    0.1858    1.3460 H   0  0  0  0  0  0  0  0  0  0  0  0
    7.3755    1.2690    1.8748 H   0  0  0  0  0  0  0  0  0  0  0  0
    4.9689    1.6024    1.3902 H   0  0  0  0  0  0  0  0  0  0  0  0
   -4.6748    1.0022    0.7026 H   0  0  0  0  0  0  0  0  0  0  0  0
   -5.2517    0.1725   -2.0801 H   0  0  0  0  0  0  0  0  0  0  0  0
   -6.7965   -1.5552   -1.4445 H   0  0  0  0  0  0  0  0  0  0  0  0
   -5.4309   -1.9037   -0.3703 H   0  0  0  0  0  0  0  0  0  0  0  0
   -6.5314   -0.9339    1.4992 H   0  0  0  0  0  0  0  0  0  0  0  0
   -7.9471   -1.5005    0.6089 H   0  0  0  0  0  0  0  0  0  0  0  0
   -8.5967    0.7234    0.2576 H   0  0  0  0  0  0  0  0  0  0  0  0
   -7.2298    1.2162    1.2595 H   0  0  0  0  0  0  0  0  0  0  0  0
   -7.4457    1.0609   -1.7305 H   0  0  0  0  0  0  0  0  0  0  0  0
   -6.4836    2.1890   -0.7617 H   0  0  0  0  0  0  0  0  0  0  0  0
  1  2  2  0
  2  3  1  0
  3  4  1  0
  4  5  1  0
  5  6  2  0
  5  7  1  0
  7  8  1  0
  8  9  1  0
  9 10  2  0
 10 11  1  0
 11 12  2  0
 12 13  1  0
 13 14  2  0
 14 15  1  0
 15 16  2  0
 16 17  1  0
 17 18  2  0
  2 19  1  0
 19 20  1  0
 20 21  1  0
 21 22  1  0
 22 23  1  0
 23 24  1  0
 18  9  1  0
 24 20  1  0
 17 12  1  0
  3 25  1  0
  3 26  1  0
  7 27  1  0
  7 28  1  0
 10 29  1  0
 11 30  1  0
 13 31  1  0
 14 32  1  0
 15 33  1  0
 16 34  1  0
 18 35  1  0
 19 36  1  0
 20 37  1  0
 21 38  1  0
 21 39  1  0
 22 40  1  0
 22 41  1  0
 23 42  1  0
 23 43  1  0
 24 44  1  0
 24 45  1  0
M  END
$$$$
