
     RDKit          3D

 44 47  0  0  0  0  0  0  0  0999 V2000
    6.1132    0.2728    0.2250 C   0  0  0  0  0  0  0  0  0  0  0  0
    5.3345   -0.5366   -0.8011 C   0  0  0  0  0  0  0  0  0  0  0  0
    3.8546   -0.4080   -0.6013 C   0  0  0  0  0  0  0  0  0  0  0  0
    3.0324   -1.1674    0.2082 C   0  0  0  0  0  0  0  0  0  0  0  0
    1.6732   -0.7423    0.1368 C   0  0  0  0  0  0  0  0  0  0  0  0
    0.5125   -1.2648    0.8250 C   0  0  0  0  0  0  0  0  0  0  0  0
    0.6149   -2.2083    1.6050 O   0  0  0  0  0  0  0  0  0  0  0  0
   -0.6900   -0.6165    0.5182 N   0  0  0  0  0  0  0  0  0  0  0  0
   -1.8789   -1.1081    1.2185 C   0  0  0  0  0  0  0  0  0  0  0  0
   -2.6936   -2.0856    0.3935 C   0  0  0  0  0  0  0  0  0  0  0  0
   -4.0071   -1.7747    0.0098 C   0  0  0  0  0  0  0  0  0  0  0  0
   -4.7610   -2.6744   -0.7465 C   0  0  0  0  0  0  0  0  0  0  0  0
   -4.2159   -3.8998   -1.1214 C   0  0  0  0  0  0  0  0  0  0  0  0
   -2.9188   -4.2288   -0.7360 C   0  0  0  0  0  0  0  0  0  0  0  0
   -2.1633   -3.3299    0.0194 C   0  0  0  0  0  0  0  0  0  0  0  0
   -0.7010    0.4623   -0.3655 C   0  0  0  0  0  0  0  0  0  0  0  0
   -2.2224    1.2812   -0.6952 S   0  0  0  0  0  0  0  0  0  0  0  0
   -1.8195    2.9676   -0.1678 C   0  0  0  0  0  0  0  0  0  0  0  0
   -1.1127    3.8056   -1.2088 C   0  0  0  0  0  0  0  0  0  0  0  0
   -0.3689    4.8035   -0.3538 C   0  0  0  0  0  0  0  0  0  0  0  0
   -0.0555    4.1261    0.8646 O   0  0  0  0  0  0  0  0  0  0  0  0
   -0.8798    3.0449    1.0079 C   0  0  0  0  0  0  0  0  0  0  0  0
   -0.8666    2.3009    1.9774 O   0  0  0  0  0  0  0  0  0  0  0  0
    0.3327    0.9386   -0.9882 N   0  0  0  0  0  0  0  0  0  0  0  0
    1.4996    0.3153   -0.7175 C   0  0  0  0  0  0  0  0  0  0  0  0
    2.9670    0.8006   -1.4348 S   0  0  0  0  0  0  0  0  0  0  0  0
    7.1892    0.1497    0.0665 H   0  0  0  0  0  0  0  0  0  0  0  0
    5.8812   -0.0514    1.2452 H   0  0  0  0  0  0  0  0  0  0  0  0
    5.8794    1.3403    0.1507 H   0  0  0  0  0  0  0  0  0  0  0  0
    5.6196   -1.5925   -0.7180 H   0  0  0  0  0  0  0  0  0  0  0  0
    5.6176   -0.2176   -1.8113 H   0  0  0  0  0  0  0  0  0  0  0  0
    3.3827   -1.9860    0.8268 H   0  0  0  0  0  0  0  0  0  0  0  0
   -1.5959   -1.6087    2.1528 H   0  0  0  0  0  0  0  0  0  0  0  0
   -2.4974   -0.2594    1.5304 H   0  0  0  0  0  0  0  0  0  0  0  0
   -4.4571   -0.8262    0.2949 H   0  0  0  0  0  0  0  0  0  0  0  0
   -5.7753   -2.4184   -1.0420 H   0  0  0  0  0  0  0  0  0  0  0  0
   -4.8031   -4.6003   -1.7091 H   0  0  0  0  0  0  0  0  0  0  0  0
   -2.4942   -5.1885   -1.0194 H   0  0  0  0  0  0  0  0  0  0  0  0
   -1.1585   -3.6182    0.3215 H   0  0  0  0  0  0  0  0  0  0  0  0
   -2.7511    3.4619    0.1317 H   0  0  0  0  0  0  0  0  0  0  0  0
   -0.3913    3.2297   -1.7971 H   0  0  0  0  0  0  0  0  0  0  0  0
   -1.7966    4.2910   -1.9118 H   0  0  0  0  0  0  0  0  0  0  0  0
    0.5541    5.1425   -0.8332 H   0  0  0  0  0  0  0  0  0  0  0  0
   -0.9832    5.6783   -0.1148 H   0  0  0  0  0  0  0  0  0  0  0  0
  1  2  1  0
  2  3  1  0
  3  4  2  0
  4  5  1  0
  5  6  1  0
  6  7  2  0
  6  8  1  0
  8  9  1  0
  9 10  1  0
 10 11  2  0
 11 12  1  0
 12 13  2  0
 13 14  1  0
 14 15  2  0
  8 16  1  0
 16 17  1  0
 17 18  1  0
 18 19  1  0
 19 20  1  0
 20 21  1  0
 21 22  1  0
 22 23  2  0
 16 24  2  0
 24 25  1  0
 25 26  1  0
 26  3  1  0
 25  5  2  0
 15 10  1  0
 22 18  1  0
  1 27  1  0
  1 28  1  0
  1 29  1  0
  2 30  1  0
  2 31  1  0
  4 32  1  0
  9 33  1  0
  9 34  1  0
 11 35  1  0
 12 36  1  0
 13 37  1  0
 14 38  1  0
 15 39  1  0
 18 40  1  0
 19 41  1  0
 19 42  1  0
 20 43  1  0
 20 44  1  0
M  END
$$$$
