
     RDKit          3D

 36 38  0  0  0  0  0  0  0  0999 V2000
   -0.6770    3.9210    0.1622 C   0  0  0  0  0  0  0  0  0  0  0  0
   -1.4974    2.6783   -0.0076 C   0  0  0  0  0  0  0  0  0  0  0  0
   -2.7504    2.7176   -0.6115 C   0  0  0  0  0  0  0  0  0  0  0  0
   -3.4881    1.5401   -0.7681 C   0  0  0  0  0  0  0  0  0  0  0  0
   -3.0071    0.3061   -0.3498 C   0  0  0  0  0  0  0  0  0  0  0  0
   -3.7875   -0.7662   -0.5201 N   0  0  0  0  0  0  0  0  0  0  0  0
   -3.3396   -1.9678   -0.0934 C   0  0  0  0  0  0  0  0  0  0  0  0
   -4.2529   -3.1877   -0.2976 C   0  0  0  0  0  0  0  0  0  0  0  0
   -5.8612   -2.9003    0.4592 Cl  0  0  0  0  0  0  0  0  0  0  0  0
   -3.5837   -4.6959    0.4292 Cl  0  0  0  0  0  0  0  0  0  0  0  0
   -4.4871   -3.4914   -2.0558 Cl  0  0  0  0  0  0  0  0  0  0  0  0
   -2.1290   -2.1340    0.4769 N   0  0  0  0  0  0  0  0  0  0  0  0
   -1.3360   -1.0515    0.6131 C   0  0  0  0  0  0  0  0  0  0  0  0
   -0.0791   -1.3333    1.1974 N   0  0  0  0  0  0  0  0  0  0  0  0
    1.0229   -0.8282    0.5644 N   0  0  0  0  0  0  0  0  0  0  0  0
    2.1487   -1.2604    1.0379 C   0  0  0  0  0  0  0  0  0  0  0  0
    3.4409   -0.8272    0.4762 C   0  0  0  0  0  0  0  0  0  0  0  0
    4.6173   -1.3122    1.0411 C   0  0  0  0  0  0  0  0  0  0  0  0
    5.8128   -0.8879    0.4903 C   0  0  0  0  0  0  0  0  0  0  0  0
    5.8971   -0.0377   -0.5556 N   0  0  0  0  0  0  0  0  0  0  0  0
    4.7360    0.4141   -1.0783 C   0  0  0  0  0  0  0  0  0  0  0  0
    3.4900    0.0528   -0.6022 C   0  0  0  0  0  0  0  0  0  0  0  0
   -1.7400    0.2397    0.2334 C   0  0  0  0  0  0  0  0  0  0  0  0
   -0.9977    1.4398    0.4081 C   0  0  0  0  0  0  0  0  0  0  0  0
   -0.2697    3.9734    1.1770 H   0  0  0  0  0  0  0  0  0  0  0  0
    0.1481    3.9268   -0.5568 H   0  0  0  0  0  0  0  0  0  0  0  0
   -1.2800    4.8209    0.0028 H   0  0  0  0  0  0  0  0  0  0  0  0
   -3.1705    3.6582   -0.9600 H   0  0  0  0  0  0  0  0  0  0  0  0
   -4.4716    1.5921   -1.2303 H   0  0  0  0  0  0  0  0  0  0  0  0
   -0.0820   -2.3449    1.3487 H   0  0  0  0  0  0  0  0  0  0  0  0
    2.1827   -1.9690    1.8856 H   0  0  0  0  0  0  0  0  0  0  0  0
    4.6154   -1.9954    1.8821 H   0  0  0  0  0  0  0  0  0  0  0  0
    6.7657   -1.2301    0.8847 H   0  0  0  0  0  0  0  0  0  0  0  0
    4.8395    1.0955   -1.9182 H   0  0  0  0  0  0  0  0  0  0  0  0
    2.5891    0.4455   -1.0611 H   0  0  0  0  0  0  0  0  0  0  0  0
   -0.0186    1.3990    0.8816 H   0  0  0  0  0  0  0  0  0  0  0  0
  1  2  1  0
  2  3  2  0
  3  4  1  0
  4  5  2  0
  5  6  1  0
  6  7  2  0
  7  8  1  0
  8  9  1  0
  8 10  1  0
  8 11  1  0
  7 12  1  0
 12 13  2  0
 13 14  1  0
 14 15  1  0
 15 16  2  3
 16 17  1  0
 17 18  2  0
 18 19  1  0
 19 20  2  0
 20 21  1  0
 21 22  2  0
 13 23  1  0
 23 24  2  0
 24  2  1  0
 23  5  1  0
 22 17  1  0
  1 25  1  0
  1 26  1  0
  1 27  1  0
  3 28  1  0
  4 29  1  0
 14 30  1  0
 16 31  1  0
 18 32  1  0
 19 33  1  0
 21 34  1  0
 22 35  1  0
 24 36  1  0
M  END
$$$$
