
     RDKit          3D

 29 31  0  0  0  0  0  0  0  0999 V2000
    3.9825   -1.6096   -0.3574 N   0  0  0  0  0  0  0  0  0  0  0  0
    2.8986   -0.8851    0.1784 C   0  0  0  0  0  0  0  0  0  0  0  0
    1.5888   -1.2483   -0.2502 C   0  0  0  0  0  0  0  0  0  0  0  0
    0.3840   -0.5651    0.0911 C   0  0  0  0  0  0  0  0  0  0  0  0
   -0.8368   -1.0758   -0.4130 N   0  0  0  0  0  0  0  0  0  0  0  0
   -2.0695   -0.4209   -0.6089 C   0  0  0  0  0  0  0  0  0  0  0  0
   -3.2644   -1.1380   -0.4475 C   0  0  0  0  0  0  0  0  0  0  0  0
   -4.5047   -0.5276   -0.6555 C   0  0  0  0  0  0  0  0  0  0  0  0
   -4.5674    0.8086   -1.0400 C   0  0  0  0  0  0  0  0  0  0  0  0
   -3.3910    1.5300   -1.2225 C   0  0  0  0  0  0  0  0  0  0  0  0
   -2.1523    0.9161   -1.0138 C   0  0  0  0  0  0  0  0  0  0  0  0
    0.5934    0.5750    0.9170 C   0  0  0  0  0  0  0  0  0  0  0  0
   -0.2925    1.4120    1.4749 N   0  0  0  0  0  0  0  0  0  0  0  0
    0.4359    2.3432    2.1812 O   0  0  0  0  0  0  0  0  0  0  0  0
    1.7903    2.0948    2.1031 N   0  0  0  0  0  0  0  0  0  0  0  0
    1.9283    1.0089    1.3290 C   0  0  0  0  0  0  0  0  0  0  0  0
    3.0708    0.2985    0.9244 C   0  0  0  0  0  0  0  0  0  0  0  0
    4.3596    0.7822    1.3294 N   0  0  0  0  0  4  0  0  0  0  0  0
    5.1303   -0.0438    1.8430 O   0  0  0  0  0  0  0  0  0  0  0  0
    4.6309    1.9684    1.1058 O   0  0  0  0  0  1  0  0  0  0  0  0
    3.7757   -2.5710   -0.6171 H   0  0  0  0  0  0  0  0  0  0  0  0
    4.8438   -1.5540    0.1930 H   0  0  0  0  0  0  0  0  0  0  0  0
    1.4941   -2.1138   -0.9106 H   0  0  0  0  0  0  0  0  0  0  0  0
   -0.9501   -2.0611   -0.1933 H   0  0  0  0  0  0  0  0  0  0  0  0
   -3.2447   -2.1823   -0.1481 H   0  0  0  0  0  0  0  0  0  0  0  0
   -5.4203   -1.0962   -0.5164 H   0  0  0  0  0  0  0  0  0  0  0  0
   -5.5300    1.2865   -1.2010 H   0  0  0  0  0  0  0  0  0  0  0  0
   -3.4322    2.5715   -1.5302 H   0  0  0  0  0  0  0  0  0  0  0  0
   -1.2509    1.4970   -1.1868 H   0  0  0  0  0  0  0  0  0  0  0  0
  1  2  1  0
  2  3  1  0
  3  4  2  0
  4  5  1  0
  5  6  1  0
  6  7  2  0
  7  8  1  0
  8  9  2  0
  9 10  1  0
 10 11  2  0
  4 12  1  0
 12 13  2  0
 13 14  1  0
 14 15  1  0
 15 16  2  0
 16 17  1  0
 17 18  1  0
 18 19  2  0
 18 20  1  0
 17  2  2  0
 11  6  1  0
 16 12  1  0
  1 21  1  0
  1 22  1  0
  3 23  1  0
  5 24  1  0
  7 25  1  0
  8 26  1  0
  9 27  1  0
 10 28  1  0
 11 29  1  0
M  CHG  2  18   1  20  -1
M  END
$$$$
