
     RDKit          3D

 43 44  0  0  0  0  0  0  0  0999 V2000
    6.3050   -0.1599    2.3097 C   0  0  0  0  0  0  0  0  0  0  0  0
    5.1981    0.0608    1.4349 O   0  0  0  0  0  0  0  0  0  0  0  0
    5.5263    0.0614    0.1192 C   0  0  0  0  0  0  0  0  0  0  0  0
    6.6458   -0.1107   -0.3372 O   0  0  0  0  0  0  0  0  0  0  0  0
    4.3240    0.2972   -0.7247 C   0  0  0  0  0  0  0  0  0  0  0  0
    4.4896    0.3345   -2.1154 C   0  0  0  0  0  0  0  0  0  0  0  0
    3.3940    0.5618   -2.9529 C   0  0  0  0  0  0  0  0  0  0  0  0
    2.1129    0.7172   -2.4176 C   0  0  0  0  0  0  0  0  0  0  0  0
    1.0495    1.0790   -3.2639 N   0  0  0  0  0  0  0  0  0  0  0  0
    1.9492    0.7065   -1.0130 C   0  0  0  0  0  0  0  0  0  0  0  0
    0.6794    0.9121   -0.4384 N   0  0  0  0  0  0  0  0  0  0  0  0
   -0.0613   -0.1453   -0.3386 C   0  0  0  0  0  0  0  0  0  0  0  0
   -1.4684   -0.0373    0.1777 C   0  0  0  0  0  0  0  0  0  0  0  0
   -2.4657   -0.2881   -0.9281 C   0  0  0  0  0  0  0  0  0  0  0  0
   -2.2043   -0.0488   -2.1087 O   0  0  0  0  0  0  0  0  0  0  0  0
   -3.8070   -0.8859   -0.5490 C   0  0  0  0  0  0  0  0  0  0  0  0
   -4.2304   -0.5678    0.8971 C   0  0  0  0  0  0  0  0  0  0  0  0
   -4.5536    0.9319    1.0542 C   0  0  0  0  0  0  0  0  0  0  0  0
   -5.5252   -1.3483    1.2073 C   0  0  0  0  0  0  0  0  0  0  0  0
   -3.1379   -1.0034    1.8991 C   0  0  0  0  0  0  0  0  0  0  0  0
   -1.7263   -0.9530    1.3431 C   0  0  0  0  0  0  0  0  0  0  0  0
   -0.8310   -1.6138    1.8706 O   0  0  0  0  0  0  0  0  0  0  0  0
    3.0508    0.4929   -0.1777 C   0  0  0  0  0  0  0  0  0  0  0  0
    6.7512   -1.1418    2.1232 H   0  0  0  0  0  0  0  0  0  0  0  0
    5.9336   -0.1383    3.3380 H   0  0  0  0  0  0  0  0  0  0  0  0
    7.0498    0.6336    2.1937 H   0  0  0  0  0  0  0  0  0  0  0  0
    5.4778    0.2064   -2.5542 H   0  0  0  0  0  0  0  0  0  0  0  0
    3.5504    0.6303   -4.0263 H   0  0  0  0  0  0  0  0  0  0  0  0
    1.0811    0.6719   -4.1907 H   0  0  0  0  0  0  0  0  0  0  0  0
    0.1385    0.9875   -2.8142 H   0  0  0  0  0  0  0  0  0  0  0  0
    0.2848   -1.1467   -0.6587 H   0  0  0  0  0  0  0  0  0  0  0  0
   -1.6109    0.9893    0.5331 H   0  0  0  0  0  0  0  0  0  0  0  0
   -4.5581   -0.5136   -1.2561 H   0  0  0  0  0  0  0  0  0  0  0  0
   -3.7217   -1.9704   -0.6914 H   0  0  0  0  0  0  0  0  0  0  0  0
   -4.9156    1.1511    2.0654 H   0  0  0  0  0  0  0  0  0  0  0  0
   -5.3368    1.2398    0.3517 H   0  0  0  0  0  0  0  0  0  0  0  0
   -3.6864    1.5718    0.8753 H   0  0  0  0  0  0  0  0  0  0  0  0
   -5.8598   -1.1659    2.2348 H   0  0  0  0  0  0  0  0  0  0  0  0
   -6.3373   -1.0530    0.5331 H   0  0  0  0  0  0  0  0  0  0  0  0
   -5.3768   -2.4280    1.0920 H   0  0  0  0  0  0  0  0  0  0  0  0
   -3.1687   -0.3909    2.8072 H   0  0  0  0  0  0  0  0  0  0  0  0
   -3.3039   -2.0463    2.1987 H   0  0  0  0  0  0  0  0  0  0  0  0
    2.8956    0.4906    0.8975 H   0  0  0  0  0  0  0  0  0  0  0  0
  1  2  1  0
  2  3  1  0
  3  4  2  0
  3  5  1  0
  5  6  2  0
  6  7  1  0
  7  8  2  0
  8  9  1  0
  8 10  1  0
 10 11  1  0
 11 12  2  3
 12 13  1  0
 13 14  1  0
 14 15  2  0
 14 16  1  0
 16 17  1  0
 17 18  1  0
 17 19  1  0
 17 20  1  0
 20 21  1  0
 21 22  2  0
 10 23  2  0
 23  5  1  0
 21 13  1  0
  1 24  1  0
  1 25  1  0
  1 26  1  0
  6 27  1  0
  7 28  1  0
  9 29  1  0
  9 30  1  0
 12 31  1  0
 13 32  1  0
 16 33  1  0
 16 34  1  0
 18 35  1  0
 18 36  1  0
 18 37  1  0
 19 38  1  0
 19 39  1  0
 19 40  1  0
 20 41  1  0
 20 42  1  0
 23 43  1  0
M  END
$$$$
