
     RDKit          3D

 54 57  0  0  0  0  0  0  0  0999 V2000
   -0.3783    1.6846    1.1568 C   0  0  0  0  0  0  0  0  0  0  0  0
   -1.7126    1.3756    1.8499 C   0  0  0  0  0  0  0  0  0  0  0  0
   -2.6489    2.6001    1.7590 C   0  0  0  0  0  0  0  0  0  0  0  0
   -4.1226    2.2864    2.0207 C   0  0  0  0  0  0  0  0  0  0  0  0
   -4.2952    1.0161    2.8398 C   0  0  0  0  0  0  0  0  0  0  0  0
   -3.7145   -0.2053    2.1172 C   0  0  0  0  0  0  0  0  0  0  0  0
   -2.4154    0.1069    1.3328 C   0  0  0  0  0  0  0  0  0  0  0  0
   -2.6775    0.1562   -0.0940 N   0  0  0  0  0  0  0  0  0  0  0  0
   -2.2539   -0.9831   -0.7358 C   0  0  0  0  0  0  0  0  0  0  0  0
   -2.4917   -1.2347   -1.9005 O   0  0  0  0  0  0  0  0  0  0  0  0
   -1.5447   -1.7363    0.1438 N   0  0  0  0  0  0  0  0  0  0  0  0
   -0.9992   -3.0443   -0.1455 C   0  0  0  0  0  0  0  0  0  0  0  0
    0.4579   -3.0660   -0.5911 C   0  0  0  0  0  0  0  0  0  0  0  0
    1.0461   -4.1403   -0.7502 O   0  0  0  0  0  0  0  0  0  0  0  0
    1.0677   -1.8479   -0.8193 N   0  0  0  0  0  0  0  0  0  0  0  0
    2.4774   -1.7717   -1.2142 C   0  0  0  0  0  0  0  0  0  0  0  0
    2.6423   -1.9585   -2.7354 C   0  0  0  0  0  0  0  0  0  0  0  0
    2.3188   -0.6480   -3.4892 C   0  0  0  0  0  0  0  0  0  0  0  0
    3.3236    0.4310   -3.0709 C   0  0  0  0  0  0  0  0  0  0  0  0
    3.3886    0.5922   -1.5656 C   0  0  0  0  0  0  0  0  0  0  0  0
    3.8696    1.7905   -1.0245 C   0  0  0  0  0  0  0  0  0  0  0  0
    4.0390    1.9332    0.3627 C   0  0  0  0  0  0  0  0  0  0  0  0
    3.7523    0.8732    1.2210 C   0  0  0  0  0  0  0  0  0  0  0  0
    3.2647   -0.3194    0.6942 C   0  0  0  0  0  0  0  0  0  0  0  0
    3.0703   -0.4725   -0.6984 C   0  0  0  0  0  0  0  0  0  0  0  0
   -1.5230   -1.1505    1.3761 C   0  0  0  0  0  0  0  0  0  0  0  0
   -0.9541   -1.5816    2.3660 O   0  0  0  0  0  0  0  0  0  0  0  0
   -0.5076    1.8337    0.0799 H   0  0  0  0  0  0  0  0  0  0  0  0
    0.3424    0.8739    1.3048 H   0  0  0  0  0  0  0  0  0  0  0  0
    0.0703    2.5980    1.5665 H   0  0  0  0  0  0  0  0  0  0  0  0
   -1.4796    1.2130    2.9117 H   0  0  0  0  0  0  0  0  0  0  0  0
   -2.5691    3.0729    0.7797 H   0  0  0  0  0  0  0  0  0  0  0  0
   -2.3131    3.3494    2.4817 H   0  0  0  0  0  0  0  0  0  0  0  0
   -4.6494    2.1637    1.0629 H   0  0  0  0  0  0  0  0  0  0  0  0
   -4.5945    3.1397    2.5307 H   0  0  0  0  0  0  0  0  0  0  0  0
   -3.7970    1.1446    3.8143 H   0  0  0  0  0  0  0  0  0  0  0  0
   -5.3585    0.8384    3.0502 H   0  0  0  0  0  0  0  0  0  0  0  0
   -4.4842   -0.6167    1.4376 H   0  0  0  0  0  0  0  0  0  0  0  0
   -3.5399   -0.9886    2.8751 H   0  0  0  0  0  0  0  0  0  0  0  0
   -3.3256    0.7863   -0.5530 H   0  0  0  0  0  0  0  0  0  0  0  0
   -1.0616   -3.6395    0.7556 H   0  0  0  0  0  0  0  0  0  0  0  0
   -1.5858   -3.5178   -0.9220 H   0  0  0  0  0  0  0  0  0  0  0  0
    0.5223   -0.9998   -0.8381 H   0  0  0  0  0  0  0  0  0  0  0  0
    3.0121   -2.6094   -0.7245 H   0  0  0  0  0  0  0  0  0  0  0  0
    2.0243   -2.8049   -3.1135 H   0  0  0  0  0  0  0  0  0  0  0  0
    3.7135   -2.2231   -2.9407 H   0  0  0  0  0  0  0  0  0  0  0  0
    2.4094   -0.8266   -4.5741 H   0  0  0  0  0  0  0  0  0  0  0  0
    1.2872   -0.2945   -3.2994 H   0  0  0  0  0  0  0  0  0  0  0  0
    4.3323    0.1325   -3.4148 H   0  0  0  0  0  0  0  0  0  0  0  0
    3.0739    1.3870   -3.5634 H   0  0  0  0  0  0  0  0  0  0  0  0
    4.1240    2.6142   -1.6809 H   0  0  0  0  0  0  0  0  0  0  0  0
    4.4179    2.8613    0.7728 H   0  0  0  0  0  0  0  0  0  0  0  0
    3.9053    0.9695    2.3046 H   0  0  0  0  0  0  0  0  0  0  0  0
    3.0442   -1.1428    1.3782 H   0  0  0  0  0  0  0  0  0  0  0  0
  1  2  1  0
  2  3  1  0
  3  4  1  0
  4  5  1  0
  5  6  1  0
  6  7  1  0
  7  8  1  0
  8  9  1  0
  9 10  2  0
  9 11  1  0
 11 12  1  0
 12 13  1  0
 13 14  2  0
 13 15  1  0
 15 16  1  0
 16 17  1  0
 17 18  1  0
 18 19  1  0
 19 20  1  0
 20 21  2  0
 21 22  1  0
 22 23  2  0
 23 24  1  0
 24 25  2  0
 11 26  1  0
 26 27  2  0
  7  2  1  0
 25 16  1  0
 26  7  1  0
 25 20  1  0
  1 28  1  0
  1 29  1  0
  1 30  1  0
  2 31  1  0
  3 32  1  0
  3 33  1  0
  4 34  1  0
  4 35  1  0
  5 36  1  0
  5 37  1  0
  6 38  1  0
  6 39  1  0
  8 40  1  0
 12 41  1  0
 12 42  1  0
 15 43  1  0
 16 44  1  0
 17 45  1  0
 17 46  1  0
 18 47  1  0
 18 48  1  0
 19 49  1  0
 19 50  1  0
 21 51  1  0
 22 52  1  0
 23 53  1  0
 24 54  1  0
M  END
$$$$
