
     RDKit          3D

 47 50  0  0  0  0  0  0  0  0999 V2000
   -6.2939   -1.8417   -0.2672 C   0  0  0  0  0  0  0  0  0  0  0  0
   -5.6989   -1.1554    0.9528 C   0  0  0  0  0  0  0  0  0  0  0  0
   -5.0454    0.1095    0.5897 N   0  0  0  0  0  0  0  0  0  0  0  0
   -5.9059    1.3003    0.5411 C   0  0  0  0  0  0  0  0  0  0  0  0
   -6.1186    1.7841   -0.8872 C   0  0  0  0  0  0  0  0  0  0  0  0
   -3.6763    0.1752    0.3499 C   0  0  0  0  0  0  0  0  0  0  0  0
   -2.9029   -0.9721    0.1015 C   0  0  0  0  0  0  0  0  0  0  0  0
   -1.5214   -0.9150   -0.1396 C   0  0  0  0  0  0  0  0  0  0  0  0
   -0.8554    0.3074   -0.1328 C   0  0  0  0  0  0  0  0  0  0  0  0
    0.5824    0.4020   -0.3961 C   0  0  0  0  0  0  0  0  0  0  0  0
    1.5584   -0.0864    0.3821 C   0  0  0  0  0  0  0  0  0  0  0  0
    1.3848   -0.9346    1.9016 S   0  0  0  0  0  0  0  0  0  0  0  0
    3.0915   -1.0601    2.0139 C   0  0  0  0  0  0  0  0  0  0  0  0
    3.9208   -1.5306    2.9003 N   0  0  0  0  0  0  0  0  0  0  0  0
    5.1919   -1.2930    2.3934 N   0  0  0  0  0  0  0  0  0  0  0  0
    5.0786   -0.7086    1.2052 C   0  0  0  0  0  0  0  0  0  0  0  0
    6.1748   -0.3126    0.3308 C   0  0  0  0  0  0  0  0  0  0  0  0
    7.0934    0.6390    0.8022 C   0  0  0  0  0  0  0  0  0  0  0  0
    8.1610    1.0565    0.0043 C   0  0  0  0  0  0  0  0  0  0  0  0
    8.3299    0.5203   -1.2699 C   0  0  0  0  0  0  0  0  0  0  0  0
    7.4380   -0.4417   -1.7440 C   0  0  0  0  0  0  0  0  0  0  0  0
    6.3682   -0.8630   -0.9471 C   0  0  0  0  0  0  0  0  0  0  0  0
    5.3387   -2.1032   -1.5806 Cl  0  0  0  0  0  0  0  0  0  0  0  0
    3.7438   -0.5122    0.9652 N   0  0  0  0  0  0  0  0  0  0  0  0
    2.9882    0.0954   -0.0060 C   0  0  0  0  0  0  0  0  0  0  0  0
    3.4696    0.6777   -0.9590 O   0  0  0  0  0  0  0  0  0  0  0  0
   -1.5927    1.4653    0.0968 C   0  0  0  0  0  0  0  0  0  0  0  0
   -2.9741    1.3927    0.3350 C   0  0  0  0  0  0  0  0  0  0  0  0
   -7.0835   -1.2311   -0.7163 H   0  0  0  0  0  0  0  0  0  0  0  0
   -5.5387   -2.0291   -1.0364 H   0  0  0  0  0  0  0  0  0  0  0  0
   -6.7357   -2.8016    0.0183 H   0  0  0  0  0  0  0  0  0  0  0  0
   -5.0142   -1.8312    1.4783 H   0  0  0  0  0  0  0  0  0  0  0  0
   -6.5023   -0.9633    1.6752 H   0  0  0  0  0  0  0  0  0  0  0  0
   -6.8919    1.0700    0.9638 H   0  0  0  0  0  0  0  0  0  0  0  0
   -5.5092    2.1031    1.1722 H   0  0  0  0  0  0  0  0  0  0  0  0
   -5.1828    2.0995   -1.3574 H   0  0  0  0  0  0  0  0  0  0  0  0
   -6.8019    2.6393   -0.8961 H   0  0  0  0  0  0  0  0  0  0  0  0
   -6.5540    0.9973   -1.5110 H   0  0  0  0  0  0  0  0  0  0  0  0
   -3.3617   -1.9555    0.0656 H   0  0  0  0  0  0  0  0  0  0  0  0
   -0.9864   -1.8405   -0.3378 H   0  0  0  0  0  0  0  0  0  0  0  0
    0.8363    0.9409   -1.3087 H   0  0  0  0  0  0  0  0  0  0  0  0
    6.9816    1.0603    1.8003 H   0  0  0  0  0  0  0  0  0  0  0  0
    8.8625    1.7976    0.3807 H   0  0  0  0  0  0  0  0  0  0  0  0
    9.1618    0.8437   -1.8912 H   0  0  0  0  0  0  0  0  0  0  0  0
    7.5862   -0.8662   -2.7340 H   0  0  0  0  0  0  0  0  0  0  0  0
   -1.1100    2.4397    0.1021 H   0  0  0  0  0  0  0  0  0  0  0  0
   -3.4845    2.3321    0.5226 H   0  0  0  0  0  0  0  0  0  0  0  0
  1  2  1  0
  2  3  1  0
  3  4  1  0
  4  5  1  0
  3  6  1  0
  6  7  2  0
  7  8  1  0
  8  9  2  0
  9 10  1  0
 10 11  2  3
 11 12  1  0
 12 13  1  0
 13 14  2  0
 14 15  1  0
 15 16  2  0
 16 17  1  0
 17 18  2  0
 18 19  1  0
 19 20  2  0
 20 21  1  0
 21 22  2  0
 22 23  1  0
 16 24  1  0
 24 25  1  0
 25 26  2  0
  9 27  1  0
 27 28  2  0
 28  6  1  0
 25 11  1  0
 24 13  1  0
 22 17  1  0
  1 29  1  0
  1 30  1  0
  1 31  1  0
  2 32  1  0
  2 33  1  0
  4 34  1  0
  4 35  1  0
  5 36  1  0
  5 37  1  0
  5 38  1  0
  7 39  1  0
  8 40  1  0
 10 41  1  0
 18 42  1  0
 19 43  1  0
 20 44  1  0
 21 45  1  0
 27 46  1  0
 28 47  1  0
M  END
$$$$
