
     RDKit          3D

 39 41  0  0  0  0  0  0  0  0999 V2000
   -7.3889    0.0561   -0.9783 C   0  0  0  0  0  0  0  0  0  0  0  0
   -6.4585    1.0992   -1.2415 O   0  0  0  0  0  0  0  0  0  0  0  0
   -5.1576    0.8740   -0.8872 C   0  0  0  0  0  0  0  0  0  0  0  0
   -4.6579   -0.2818   -0.2868 C   0  0  0  0  0  0  0  0  0  0  0  0
   -3.2966   -0.3836    0.0244 C   0  0  0  0  0  0  0  0  0  0  0  0
   -2.4274    0.6772   -0.2608 C   0  0  0  0  0  0  0  0  0  0  0  0
   -1.0417    0.5744    0.0598 N   0  0  0  0  0  0  0  0  0  0  0  0
   -0.2379    1.5955    0.5761 C   0  0  0  0  0  0  0  0  0  0  0  0
   -0.6775    2.8072    0.9197 O   0  0  0  0  0  0  0  0  0  0  0  0
    1.0396    1.1009    0.7299 C   0  0  0  0  0  0  0  0  0  0  0  0
    1.0211   -0.2535    0.3541 C   0  0  0  0  0  0  0  0  0  0  0  0
    2.0461   -1.1356    0.3650 N   0  0  0  0  0  0  0  0  0  0  0  0
    3.3821   -0.7208    0.4117 N   0  0  0  0  0  0  0  0  0  0  0  0
    4.3384   -1.5284   -0.1846 C   0  0  0  0  0  0  0  0  0  0  0  0
    4.0421   -2.4756   -0.9131 O   0  0  0  0  0  0  0  0  0  0  0  0
    5.6993   -1.1627    0.1456 C   0  0  0  0  0  0  0  0  0  0  0  0
    6.9077   -1.7017   -0.2549 C   0  0  0  0  0  0  0  0  0  0  0  0
    7.9226   -0.9488    0.3823 C   0  0  0  0  0  0  0  0  0  0  0  0
    7.2771    0.0032    1.1348 C   0  0  0  0  0  0  0  0  0  0  0  0
    5.9308   -0.1157    1.0024 O   0  0  0  0  0  0  0  0  0  0  0  0
   -0.2486   -0.5676   -0.0817 C   0  0  0  0  0  0  0  0  0  0  0  0
   -0.6666   -1.7184   -0.6199 O   0  0  0  0  0  0  0  0  0  0  0  0
   -2.9263    1.8376   -0.8618 C   0  0  0  0  0  0  0  0  0  0  0  0
   -4.2855    1.9280   -1.1722 C   0  0  0  0  0  0  0  0  0  0  0  0
   -7.1326   -0.8513   -1.5351 H   0  0  0  0  0  0  0  0  0  0  0  0
   -7.4618   -0.1455    0.0955 H   0  0  0  0  0  0  0  0  0  0  0  0
   -8.3724    0.3909   -1.3217 H   0  0  0  0  0  0  0  0  0  0  0  0
   -5.3014   -1.1196   -0.0374 H   0  0  0  0  0  0  0  0  0  0  0  0
   -2.9464   -1.2815    0.5317 H   0  0  0  0  0  0  0  0  0  0  0  0
   -1.6392    2.7702    1.0673 H   0  0  0  0  0  0  0  0  0  0  0  0
    1.8754    1.6674    1.1147 H   0  0  0  0  0  0  0  0  0  0  0  0
    1.9205   -2.0145   -0.1548 H   0  0  0  0  0  0  0  0  0  0  0  0
    3.6521   -0.1044    1.1716 H   0  0  0  0  0  0  0  0  0  0  0  0
    7.0265   -2.5397   -0.9289 H   0  0  0  0  0  0  0  0  0  0  0  0
    8.9924   -1.0832    0.3031 H   0  0  0  0  0  0  0  0  0  0  0  0
    7.6149    0.7974    1.7864 H   0  0  0  0  0  0  0  0  0  0  0  0
   -1.4216   -1.5342   -1.2063 H   0  0  0  0  0  0  0  0  0  0  0  0
   -2.2730    2.6626   -1.1404 H   0  0  0  0  0  0  0  0  0  0  0  0
   -4.6694    2.8263   -1.6516 H   0  0  0  0  0  0  0  0  0  0  0  0
  1  2  1  0
  2  3  1  0
  3  4  2  0
  4  5  1  0
  5  6  2  0
  6  7  1  0
  7  8  1  0
  8  9  1  0
  8 10  2  0
 10 11  1  0
 11 12  1  0
 12 13  1  0
 13 14  1  0
 14 15  2  0
 14 16  1  0
 16 17  2  0
 17 18  1  0
 18 19  2  0
 19 20  1  0
 11 21  2  0
 21 22  1  0
  6 23  1  0
 23 24  2  0
 24  3  1  0
 21  7  1  0
 20 16  1  0
  1 25  1  0
  1 26  1  0
  1 27  1  0
  4 28  1  0
  5 29  1  0
  9 30  1  0
 10 31  1  0
 12 32  1  0
 13 33  1  0
 17 34  1  0
 18 35  1  0
 19 36  1  0
 22 37  1  0
 23 38  1  0
 24 39  1  0
M  END
$$$$
