
     RDKit          3D

 31 32  0  0  0  0  0  0  0  0999 V2000
   -6.9876   -0.5220    0.2992 N   0  0  0  0  0  0  0  0  0  0  0  0
   -5.6962   -0.0828   -0.0685 N   0  0  0  0  0  0  0  0  0  0  0  0
   -4.5888   -0.5535    0.6397 C   0  0  0  0  0  0  0  0  0  0  0  0
   -4.6996   -1.2814    1.6240 O   0  0  0  0  0  0  0  0  0  0  0  0
   -3.2622   -0.0624    0.0581 C   0  0  0  0  0  0  0  0  0  0  0  0
   -2.1606   -0.5544    0.8047 O   0  0  0  0  0  0  0  0  0  0  0  0
   -0.9105   -0.1905    0.3898 C   0  0  0  0  0  0  0  0  0  0  0  0
   -0.6079    0.6247   -0.6993 C   0  0  0  0  0  0  0  0  0  0  0  0
    0.7262    0.9171   -1.0118 C   0  0  0  0  0  0  0  0  0  0  0  0
    1.7831    0.4022   -0.2428 C   0  0  0  0  0  0  0  0  0  0  0  0
    3.2154    0.7348   -0.6114 C   0  0  0  0  0  0  0  0  0  0  0  0
    4.1600   -0.7401   -1.1221 S   0  0  0  0  0  0  0  0  0  0  0  0
    5.3399   -0.7235    0.2502 C   0  0  0  0  0  0  0  0  0  0  0  0
    5.6615    0.7230    0.5637 C   0  0  0  0  0  0  0  0  0  0  0  0
    4.0938    1.6120    0.7250 S   0  0  0  0  0  0  0  0  0  0  0  0
    1.4624   -0.4184    0.8505 C   0  0  0  0  0  0  0  0  0  0  0  0
    0.1308   -0.7083    1.1602 C   0  0  0  0  0  0  0  0  0  0  0  0
   -6.8882   -1.4874    0.6441 H   0  0  0  0  0  0  0  0  0  0  0  0
   -7.2541   -0.0089    1.1466 H   0  0  0  0  0  0  0  0  0  0  0  0
   -5.5827    0.3935   -0.9610 H   0  0  0  0  0  0  0  0  0  0  0  0
   -3.2068   -0.4212   -0.9769 H   0  0  0  0  0  0  0  0  0  0  0  0
   -3.2790    1.0338    0.0874 H   0  0  0  0  0  0  0  0  0  0  0  0
   -1.3798    1.0518   -1.3297 H   0  0  0  0  0  0  0  0  0  0  0  0
    0.9328    1.5554   -1.8691 H   0  0  0  0  0  0  0  0  0  0  0  0
    3.2197    1.4106   -1.4733 H   0  0  0  0  0  0  0  0  0  0  0  0
    4.8978   -1.2331    1.1134 H   0  0  0  0  0  0  0  0  0  0  0  0
    6.2433   -1.2721   -0.0326 H   0  0  0  0  0  0  0  0  0  0  0  0
    6.2305    0.8042    1.4946 H   0  0  0  0  0  0  0  0  0  0  0  0
    6.2568    1.1838   -0.2324 H   0  0  0  0  0  0  0  0  0  0  0  0
    2.2465   -0.8412    1.4748 H   0  0  0  0  0  0  0  0  0  0  0  0
   -0.0962   -1.3456    2.0121 H   0  0  0  0  0  0  0  0  0  0  0  0
  1  2  1  0
  2  3  1  0
  3  4  2  0
  3  5  1  0
  5  6  1  0
  6  7  1  0
  7  8  2  0
  8  9  1  0
  9 10  2  0
 10 11  1  0
 11 12  1  0
 12 13  1  0
 13 14  1  0
 14 15  1  0
 10 16  1  0
 16 17  2  0
 17  7  1  0
 15 11  1  0
  1 18  1  0
  1 19  1  0
  2 20  1  0
  5 21  1  0
  5 22  1  0
  8 23  1  0
  9 24  1  0
 11 25  1  0
 13 26  1  0
 13 27  1  0
 14 28  1  0
 14 29  1  0
 16 30  1  0
 17 31  1  0
M  END
$$$$
