
     RDKit          3D

 43 45  0  0  0  0  0  0  0  0999 V2000
    6.4362   -2.4782   -0.1738 C   0  0  0  0  0  0  0  0  0  0  0  0
    5.6968   -1.1771   -0.0586 C   0  0  0  0  0  0  0  0  0  0  0  0
    6.3923    0.0297    0.0481 C   0  0  0  0  0  0  0  0  0  0  0  0
    5.6984    1.2373    0.1287 C   0  0  0  0  0  0  0  0  0  0  0  0
    4.2972    1.2591    0.0929 C   0  0  0  0  0  0  0  0  0  0  0  0
    3.5697    2.5727    0.1845 C   0  0  0  0  0  0  0  0  0  0  0  0
    3.5900    0.0495   -0.0274 C   0  0  0  0  0  0  0  0  0  0  0  0
    2.2247    0.1657   -0.0554 O   0  0  0  0  0  0  0  0  0  0  0  0
    1.4655   -1.0241   -0.2593 C   0  0  0  0  0  0  0  0  0  0  0  0
    0.0364   -0.6333   -0.2939 C   0  0  0  0  0  0  0  0  0  0  0  0
   -0.6558    0.5458   -0.1657 C   0  0  0  0  0  0  0  0  0  0  0  0
   -2.0235    0.1880   -0.3046 C   0  0  0  0  0  0  0  0  0  0  0  0
   -3.1637    1.1166   -0.2962 C   0  0  0  0  0  0  0  0  0  0  0  0
   -2.9794    2.3107   -0.5406 O   0  0  0  0  0  0  0  0  0  0  0  0
   -4.4498    0.6331   -0.0386 N   0  0  0  0  0  0  0  0  0  0  0  0
   -4.7517   -0.5048    0.8323 C   0  0  0  0  0  0  0  0  0  0  0  0
   -5.9555   -1.2619    0.2786 C   0  0  0  0  0  0  0  0  0  0  0  0
   -7.0916   -0.3841    0.0790 N   0  0  0  0  0  0  0  0  0  0  0  0
   -6.9495    0.9075   -0.3698 C   0  0  0  0  0  0  0  0  0  0  0  0
   -7.9382    1.5279   -0.7568 O   0  0  0  0  0  0  0  0  0  0  0  0
   -5.5639    1.5628   -0.2381 C   0  0  0  0  0  0  0  0  0  0  0  0
   -2.1338   -1.1317   -0.5405 N   0  0  0  0  0  0  0  0  0  0  0  0
   -0.8504   -1.6402   -0.5127 O   0  0  0  0  0  0  0  0  0  0  0  0
    4.2942   -1.1583   -0.1044 C   0  0  0  0  0  0  0  0  0  0  0  0
    6.4503   -2.8083   -1.2171 H   0  0  0  0  0  0  0  0  0  0  0  0
    5.9563   -3.2483    0.4393 H   0  0  0  0  0  0  0  0  0  0  0  0
    7.4700   -2.3814    0.1742 H   0  0  0  0  0  0  0  0  0  0  0  0
    7.4799    0.0402    0.0695 H   0  0  0  0  0  0  0  0  0  0  0  0
    6.2602    2.1643    0.2174 H   0  0  0  0  0  0  0  0  0  0  0  0
    2.9415    2.7229   -0.6995 H   0  0  0  0  0  0  0  0  0  0  0  0
    2.9447    2.5965    1.0835 H   0  0  0  0  0  0  0  0  0  0  0  0
    4.2662    3.4162    0.2408 H   0  0  0  0  0  0  0  0  0  0  0  0
    1.7339   -1.4904   -1.2145 H   0  0  0  0  0  0  0  0  0  0  0  0
    1.6244   -1.7243    0.5688 H   0  0  0  0  0  0  0  0  0  0  0  0
   -0.2442    1.5320   -0.0037 H   0  0  0  0  0  0  0  0  0  0  0  0
   -3.9088   -1.1772    0.9791 H   0  0  0  0  0  0  0  0  0  0  0  0
   -4.9880   -0.0887    1.8205 H   0  0  0  0  0  0  0  0  0  0  0  0
   -6.2639   -2.0604    0.9605 H   0  0  0  0  0  0  0  0  0  0  0  0
   -5.7164   -1.7053   -0.6949 H   0  0  0  0  0  0  0  0  0  0  0  0
   -8.0060   -0.7824   -0.0975 H   0  0  0  0  0  0  0  0  0  0  0  0
   -5.5907    2.2406    0.6222 H   0  0  0  0  0  0  0  0  0  0  0  0
   -5.3824    2.1500   -1.1450 H   0  0  0  0  0  0  0  0  0  0  0  0
    3.7788   -2.1088   -0.2002 H   0  0  0  0  0  0  0  0  0  0  0  0
  1  2  1  0
  2  3  2  0
  3  4  1  0
  4  5  2  0
  5  6  1  0
  5  7  1  0
  7  8  1  0
  8  9  1  0
  9 10  1  0
 10 11  2  0
 11 12  1  0
 12 13  1  0
 13 14  2  0
 13 15  1  0
 15 16  1  0
 16 17  1  0
 17 18  1  0
 18 19  1  0
 19 20  2  0
 19 21  1  0
 12 22  2  0
 22 23  1  0
  7 24  2  0
 24  2  1  0
 23 10  1  0
 21 15  1  0
  1 25  1  0
  1 26  1  0
  1 27  1  0
  3 28  1  0
  4 29  1  0
  6 30  1  0
  6 31  1  0
  6 32  1  0
  9 33  1  0
  9 34  1  0
 11 35  1  0
 16 36  1  0
 16 37  1  0
 17 38  1  0
 17 39  1  0
 18 40  1  0
 21 41  1  0
 21 42  1  0
 24 43  1  0
M  END
$$$$
