
     RDKit          3D

 54 56  0  0  0  0  0  0  0  0999 V2000
   -5.4681   -0.3487    0.9719 C   0  0  0  0  0  0  0  0  0  0  0  0
   -4.4189   -0.5065    2.0584 C   0  0  0  0  0  0  0  0  0  0  0  0
   -3.1073   -0.3223    1.5122 O   0  0  0  0  0  0  0  0  0  0  0  0
   -2.6856    0.9730    1.3972 C   0  0  0  0  0  0  0  0  0  0  0  0
   -3.3465    1.9407    1.7567 O   0  0  0  0  0  0  0  0  0  0  0  0
   -1.3641    1.0585    0.7837 C   0  0  0  0  0  0  0  0  0  0  0  0
   -1.0573    2.0142   -0.1761 C   0  0  0  0  0  0  0  0  0  0  0  0
   -1.8075    3.0186   -0.6940 N   0  0  0  0  0  0  0  0  0  0  0  0
   -2.8450    2.7344   -1.4089 C   0  0  0  0  0  0  0  0  0  0  0  0
   -3.3906    1.5697   -1.9315 N   0  0  0  0  0  0  0  0  0  0  0  0
   -4.7073    1.6422   -2.5589 C   0  0  0  0  0  0  0  0  0  0  0  0
   -2.5280    0.5126   -2.4502 C   0  0  0  0  0  0  0  0  0  0  0  0
    0.5707    1.8737   -0.6960 S   0  0  0  0  0  0  0  0  0  0  0  0
    0.8808    0.5313    0.3101 C   0  0  0  0  0  0  0  0  0  0  0  0
    2.1966   -0.0752    0.3262 C   0  0  0  0  0  0  0  0  0  0  0  0
    3.1214    0.2355   -0.5285 N   0  0  0  0  0  0  0  0  0  0  0  0
    4.3003   -0.4321   -0.3671 N   0  0  0  0  0  0  0  0  0  0  0  0
    5.3587   -0.1137   -1.2519 C   0  0  0  0  0  0  0  0  0  0  0  0
    6.6413   -0.6191   -0.9935 C   0  0  0  0  0  0  0  0  0  0  0  0
    7.6989   -0.3830   -1.8772 C   0  0  0  0  0  0  0  0  0  0  0  0
    7.4826    0.3465   -3.0438 C   0  0  0  0  0  0  0  0  0  0  0  0
    6.2089    0.8292   -3.3311 C   0  0  0  0  0  0  0  0  0  0  0  0
    5.1531    0.5877   -2.4471 C   0  0  0  0  0  0  0  0  0  0  0  0
   -0.2394    0.1877    1.0502 C   0  0  0  0  0  0  0  0  0  0  0  0
   -0.2043   -0.9018    2.0175 C   0  0  0  0  0  0  0  0  0  0  0  0
   -0.2405   -2.2325    1.5835 C   0  0  0  0  0  0  0  0  0  0  0  0
   -0.2089   -3.2720    2.5163 C   0  0  0  0  0  0  0  0  0  0  0  0
   -0.1452   -2.9799    3.8781 C   0  0  0  0  0  0  0  0  0  0  0  0
   -0.1041   -4.2619    5.0245 Cl  0  0  0  0  0  0  0  0  0  0  0  0
   -0.1133   -1.6575    4.3173 C   0  0  0  0  0  0  0  0  0  0  0  0
   -0.1441   -0.6158    3.3871 C   0  0  0  0  0  0  0  0  0  0  0  0
   -5.4631    0.6688    0.5655 H   0  0  0  0  0  0  0  0  0  0  0  0
   -6.4666   -0.5615    1.3630 H   0  0  0  0  0  0  0  0  0  0  0  0
   -5.2638   -1.0257    0.1357 H   0  0  0  0  0  0  0  0  0  0  0  0
   -4.4583   -1.5246    2.4590 H   0  0  0  0  0  0  0  0  0  0  0  0
   -4.6000    0.1766    2.8955 H   0  0  0  0  0  0  0  0  0  0  0  0
   -3.4644    3.6088   -1.6803 H   0  0  0  0  0  0  0  0  0  0  0  0
   -4.6287    2.0536   -3.5702 H   0  0  0  0  0  0  0  0  0  0  0  0
   -5.1656    0.6492   -2.6166 H   0  0  0  0  0  0  0  0  0  0  0  0
   -5.3828    2.2758   -1.9734 H   0  0  0  0  0  0  0  0  0  0  0  0
   -2.1848   -0.1389   -1.6438 H   0  0  0  0  0  0  0  0  0  0  0  0
   -1.6629    0.9326   -2.9731 H   0  0  0  0  0  0  0  0  0  0  0  0
   -3.0575   -0.1260   -3.1653 H   0  0  0  0  0  0  0  0  0  0  0  0
    2.3915   -0.8417    1.0970 H   0  0  0  0  0  0  0  0  0  0  0  0
    4.6364   -0.5901    0.5823 H   0  0  0  0  0  0  0  0  0  0  0  0
    6.8282   -1.2070   -0.0989 H   0  0  0  0  0  0  0  0  0  0  0  0
    8.6877   -0.7750   -1.6574 H   0  0  0  0  0  0  0  0  0  0  0  0
    8.3016    0.5315   -3.7325 H   0  0  0  0  0  0  0  0  0  0  0  0
    6.0295    1.3885   -4.2453 H   0  0  0  0  0  0  0  0  0  0  0  0
    4.1615    0.9595   -2.6931 H   0  0  0  0  0  0  0  0  0  0  0  0
   -0.3011   -2.4679    0.5231 H   0  0  0  0  0  0  0  0  0  0  0  0
   -0.2375   -4.3035    2.1750 H   0  0  0  0  0  0  0  0  0  0  0  0
   -0.0659   -1.4305    5.3800 H   0  0  0  0  0  0  0  0  0  0  0  0
   -0.1209    0.4141    3.7387 H   0  0  0  0  0  0  0  0  0  0  0  0
  1  2  1  0
  2  3  1  0
  3  4  1  0
  4  5  2  0
  4  6  1  0
  6  7  2  0
  7  8  1  0
  8  9  2  3
  9 10  1  0
 10 11  1  0
 10 12  1  0
  7 13  1  0
 13 14  1  0
 14 15  1  0
 15 16  2  3
 16 17  1  0
 17 18  1  0
 18 19  2  0
 19 20  1  0
 20 21  2  0
 21 22  1  0
 22 23  2  0
 14 24  2  0
 24 25  1  0
 25 26  2  0
 26 27  1  0
 27 28  2  0
 28 29  1  0
 28 30  1  0
 30 31  2  0
 24  6  1  0
 31 25  1  0
 23 18  1  0
  1 32  1  0
  1 33  1  0
  1 34  1  0
  2 35  1  0
  2 36  1  0
  9 37  1  0
 11 38  1  0
 11 39  1  0
 11 40  1  0
 12 41  1  0
 12 42  1  0
 12 43  1  0
 15 44  1  0
 17 45  1  0
 19 46  1  0
 20 47  1  0
 21 48  1  0
 22 49  1  0
 23 50  1  0
 26 51  1  0
 27 52  1  0
 30 53  1  0
 31 54  1  0
M  END
$$$$
