
     RDKit          3D

 53 56  0  0  0  0  0  0  0  0999 V2000
   -2.5422    5.7737   -2.3833 C   0  0  0  0  0  0  0  0  0  0  0  0
   -2.4089    5.4948   -0.9941 O   0  0  0  0  0  0  0  0  0  0  0  0
   -1.9895    4.2385   -0.6547 C   0  0  0  0  0  0  0  0  0  0  0  0
   -2.0044    3.9713    0.7149 C   0  0  0  0  0  0  0  0  0  0  0  0
   -1.5996    2.7270    1.2043 C   0  0  0  0  0  0  0  0  0  0  0  0
   -1.1605    1.7247    0.3272 C   0  0  0  0  0  0  0  0  0  0  0  0
   -0.7475    0.3718    0.8820 C   0  0  0  0  0  0  0  0  0  0  0  0
   -1.9358   -0.5951    0.8789 C   0  0  0  0  0  0  0  0  0  0  0  0
   -1.3516   -1.7329    0.0972 C   0  0  0  0  0  0  0  0  0  0  0  0
   -2.1104   -2.9739   -0.1428 C   0  0  0  0  0  0  0  0  0  0  0  0
   -3.4315   -2.8696   -0.5908 C   0  0  0  0  0  0  0  0  0  0  0  0
   -4.1690   -4.0176   -0.8812 C   0  0  0  0  0  0  0  0  0  0  0  0
   -3.5877   -5.2708   -0.7335 C   0  0  0  0  0  0  0  0  0  0  0  0
   -2.2720   -5.3800   -0.2816 C   0  0  0  0  0  0  0  0  0  0  0  0
   -1.5152   -4.2345    0.0314 C   0  0  0  0  0  0  0  0  0  0  0  0
   -0.1129   -4.3993    0.5707 C   0  0  0  0  0  0  0  0  0  0  0  0
    0.1107   -5.6680    1.0308 F   0  0  0  0  0  0  0  0  0  0  0  0
    0.1530   -3.5990    1.6406 F   0  0  0  0  0  0  0  0  0  0  0  0
    0.8633   -4.1850   -0.3496 F   0  0  0  0  0  0  0  0  0  0  0  0
   -0.1443   -1.5631   -0.3310 N   0  0  0  0  0  0  0  0  0  0  0  0
    0.2610   -0.3196    0.0663 N   0  0  0  0  0  0  0  0  0  0  0  0
    1.6295   -0.0250    0.0835 C   0  0  0  0  0  0  0  0  0  0  0  0
    2.1473    1.1356    0.6839 C   0  0  0  0  0  0  0  0  0  0  0  0
    3.5195    1.4135    0.6846 C   0  0  0  0  0  0  0  0  0  0  0  0
    4.4041    0.5197    0.0835 C   0  0  0  0  0  0  0  0  0  0  0  0
    6.1387    0.8678    0.1211 S   0  0  0  0  0  6  0  0  0  0  0  0
    6.4843    0.7035    1.7639 N   0  0  0  0  0  0  0  0  0  0  0  0
    6.3331    2.2487   -0.2453 O   0  0  0  0  0  0  0  0  0  0  0  0
    6.8484   -0.2174   -0.5171 O   0  0  0  0  0  0  0  0  0  0  0  0
    3.9293   -0.6295   -0.5389 C   0  0  0  0  0  0  0  0  0  0  0  0
    2.5547   -0.8881   -0.5359 C   0  0  0  0  0  0  0  0  0  0  0  0
   -1.1535    2.0009   -1.0476 C   0  0  0  0  0  0  0  0  0  0  0  0
   -1.5592    3.2493   -1.5347 C   0  0  0  0  0  0  0  0  0  0  0  0
   -1.5682    5.7670   -2.8833 H   0  0  0  0  0  0  0  0  0  0  0  0
   -3.2346    5.0749   -2.8636 H   0  0  0  0  0  0  0  0  0  0  0  0
   -2.9628    6.7784   -2.4847 H   0  0  0  0  0  0  0  0  0  0  0  0
   -2.3345    4.7426    1.4086 H   0  0  0  0  0  0  0  0  0  0  0  0
   -1.6304    2.5537    2.2780 H   0  0  0  0  0  0  0  0  0  0  0  0
   -0.3799    0.4844    1.9104 H   0  0  0  0  0  0  0  0  0  0  0  0
   -2.1852   -0.9289    1.8914 H   0  0  0  0  0  0  0  0  0  0  0  0
   -2.8312   -0.1974    0.3925 H   0  0  0  0  0  0  0  0  0  0  0  0
   -3.8961   -1.9016   -0.7469 H   0  0  0  0  0  0  0  0  0  0  0  0
   -5.1927   -3.9337   -1.2370 H   0  0  0  0  0  0  0  0  0  0  0  0
   -4.1592   -6.1666   -0.9680 H   0  0  0  0  0  0  0  0  0  0  0  0
   -1.8371   -6.3729   -0.1650 H   0  0  0  0  0  0  0  0  0  0  0  0
    1.4901    1.8605    1.1547 H   0  0  0  0  0  0  0  0  0  0  0  0
    3.8839    2.3296    1.1466 H   0  0  0  0  0  0  0  0  0  0  0  0
    5.6491    0.5688    2.3345 H   0  0  0  0  0  0  0  0  0  0  0  0
    7.1385   -0.0726    1.8782 H   0  0  0  0  0  0  0  0  0  0  0  0
    4.6030   -1.3273   -1.0299 H   0  0  0  0  0  0  0  0  0  0  0  0
    2.1973   -1.7898   -1.0297 H   0  0  0  0  0  0  0  0  0  0  0  0
   -0.8181    1.2445   -1.7550 H   0  0  0  0  0  0  0  0  0  0  0  0
   -1.5128    3.4140   -2.6034 H   0  0  0  0  0  0  0  0  0  0  0  0
  1  2  1  0
  2  3  1  0
  3  4  2  0
  4  5  1  0
  5  6  2  0
  6  7  1  0
  7  8  1  0
  8  9  1  0
  9 10  1  0
 10 11  2  0
 11 12  1  0
 12 13  2  0
 13 14  1  0
 14 15  2  0
 15 16  1  0
 16 17  1  0
 16 18  1  0
 16 19  1  0
  9 20  2  0
 20 21  1  0
 21 22  1  0
 22 23  2  0
 23 24  1  0
 24 25  2  0
 25 26  1  0
 26 27  1  0
 26 28  2  0
 26 29  2  0
 25 30  1  0
 30 31  2  0
  6 32  1  0
 32 33  2  0
 33  3  1  0
 21  7  1  0
 31 22  1  0
 15 10  1  0
  1 34  1  0
  1 35  1  0
  1 36  1  0
  4 37  1  0
  5 38  1  0
  7 39  1  0
  8 40  1  0
  8 41  1  0
 11 42  1  0
 12 43  1  0
 13 44  1  0
 14 45  1  0
 23 46  1  0
 24 47  1  0
 27 48  1  0
 27 49  1  0
 30 50  1  0
 31 51  1  0
 32 52  1  0
 33 53  1  0
M  END
$$$$
