
     RDKit          3D

 41 41  0  0  0  0  0  0  0  0999 V2000
    4.7178   -0.7610    2.1143 C   0  0  0  0  0  0  0  0  0  0  0  0
    3.4846   -0.9821    2.9765 C   0  0  0  0  0  0  0  0  0  0  0  0
    2.2418   -1.3767    2.1757 C   0  0  0  0  0  0  0  0  0  0  0  0
    1.7490   -0.2718    1.2367 C   0  0  0  0  0  0  0  0  0  0  0  0
    0.4417   -0.6787    0.5463 C   0  0  0  0  0  0  0  0  0  0  0  0
   -0.0369    0.3392   -0.5102 C   0  0  0  0  0  0  0  0  0  0  0  0
   -0.4426    1.6825    0.1058 C   0  0  0  0  0  0  0  0  0  0  0  0
   -0.8713    2.6756   -0.9631 C   0  0  0  0  0  0  0  0  0  0  0  0
   -0.6220    3.9290   -0.7291 N   0  0  0  0  0  0  0  0  0  0  0  0
   -1.0595    4.7604   -1.7664 O   0  0  0  0  0  0  0  0  0  0  0  0
   -1.5645    2.1358   -2.1701 C   0  0  0  0  0  0  0  0  0  0  0  0
   -1.7210    0.8133   -2.3544 C   0  0  0  0  0  0  0  0  0  0  0  0
   -2.4503    0.2816   -3.5577 C   0  0  0  0  0  0  0  0  0  0  0  0
   -1.1780   -0.2278   -1.3897 C   0  0  0  0  0  0  0  0  0  0  0  0
   -2.3324   -0.7901   -0.5523 C   0  0  0  0  0  0  0  0  0  0  0  0
   -3.2091   -0.1260   -0.0154 O   0  0  0  0  0  0  0  0  0  0  0  0
   -2.2270   -2.1489   -0.4691 O   0  0  0  0  0  0  0  0  0  0  0  0
   -3.2518   -2.7631    0.3134 C   0  0  0  0  0  0  0  0  0  0  0  0
    5.5913   -0.5787    2.7486 H   0  0  0  0  0  0  0  0  0  0  0  0
    4.9267   -1.6385    1.4944 H   0  0  0  0  0  0  0  0  0  0  0  0
    4.5989    0.1065    1.4587 H   0  0  0  0  0  0  0  0  0  0  0  0
    3.7017   -1.7808    3.6959 H   0  0  0  0  0  0  0  0  0  0  0  0
    3.2808   -0.0771    3.5605 H   0  0  0  0  0  0  0  0  0  0  0  0
    1.4429   -1.6271    2.8847 H   0  0  0  0  0  0  0  0  0  0  0  0
    2.4500   -2.2868    1.6000 H   0  0  0  0  0  0  0  0  0  0  0  0
    1.6001    0.6465    1.8146 H   0  0  0  0  0  0  0  0  0  0  0  0
    2.5078   -0.0624    0.4748 H   0  0  0  0  0  0  0  0  0  0  0  0
    0.5948   -1.6492    0.0571 H   0  0  0  0  0  0  0  0  0  0  0  0
   -0.3329   -0.8232    1.3094 H   0  0  0  0  0  0  0  0  0  0  0  0
    0.8115    0.5319   -1.1846 H   0  0  0  0  0  0  0  0  0  0  0  0
    0.4018    2.1210    0.6491 H   0  0  0  0  0  0  0  0  0  0  0  0
   -1.2658    1.5696    0.8200 H   0  0  0  0  0  0  0  0  0  0  0  0
   -0.8266    5.6465   -1.4323 H   0  0  0  0  0  0  0  0  0  0  0  0
   -1.9523    2.8603   -2.8770 H   0  0  0  0  0  0  0  0  0  0  0  0
   -3.3219   -0.3050   -3.2504 H   0  0  0  0  0  0  0  0  0  0  0  0
   -1.7892   -0.3603   -4.1489 H   0  0  0  0  0  0  0  0  0  0  0  0
   -2.8055    1.0845   -4.2124 H   0  0  0  0  0  0  0  0  0  0  0  0
   -0.7597   -1.0489   -1.9888 H   0  0  0  0  0  0  0  0  0  0  0  0
   -3.0774   -3.8425    0.3124 H   0  0  0  0  0  0  0  0  0  0  0  0
   -3.2093   -2.4065    1.3473 H   0  0  0  0  0  0  0  0  0  0  0  0
   -4.2361   -2.5708   -0.1246 H   0  0  0  0  0  0  0  0  0  0  0  0
  1  2  1  0
  2  3  1  0
  3  4  1  0
  4  5  1  0
  5  6  1  0
  6  7  1  0
  7  8  1  0
  8  9  2  3
  9 10  1  0
  8 11  1  0
 11 12  2  0
 12 13  1  0
 12 14  1  0
 14 15  1  0
 15 16  2  0
 15 17  1  0
 17 18  1  0
 14  6  1  0
  1 19  1  0
  1 20  1  0
  1 21  1  0
  2 22  1  0
  2 23  1  0
  3 24  1  0
  3 25  1  0
  4 26  1  0
  4 27  1  0
  5 28  1  0
  5 29  1  0
  6 30  1  0
  7 31  1  0
  7 32  1  0
 10 33  1  0
 11 34  1  0
 13 35  1  0
 13 36  1  0
 13 37  1  0
 14 38  1  0
 18 39  1  0
 18 40  1  0
 18 41  1  0
M  END
$$$$
