
     RDKit          3D

 56 59  0  0  0  0  0  0  0  0999 V2000
    4.0130   -0.4635    3.5600 C   0  0  0  0  0  0  0  0  0  0  0  0
    3.2897    0.0822    2.3295 C   0  0  0  0  0  0  0  0  0  0  0  0
    4.2375    0.0975    1.1188 C   0  0  0  0  0  0  0  0  0  0  0  0
    3.6468    0.8167   -0.0987 C   0  0  0  0  0  0  0  0  0  0  0  0
    4.6494    0.9045   -1.2242 C   0  0  0  0  0  0  0  0  0  0  0  0
    5.4744    2.0294   -1.3536 C   0  0  0  0  0  0  0  0  0  0  0  0
    6.4139    2.1024   -2.3832 C   0  0  0  0  0  0  0  0  0  0  0  0
    6.5398    1.0513   -3.2896 C   0  0  0  0  0  0  0  0  0  0  0  0
    5.7271   -0.0742   -3.1669 C   0  0  0  0  0  0  0  0  0  0  0  0
    4.7871   -0.1491   -2.1379 C   0  0  0  0  0  0  0  0  0  0  0  0
    2.1076   -0.7323    2.0713 N   0  0  0  0  0  0  0  0  0  0  0  0
    0.9071   -0.1834    1.6544 C   0  0  0  0  0  0  0  0  0  0  0  0
    0.7346    1.0242    1.5243 O   0  0  0  0  0  0  0  0  0  0  0  0
   -0.1673   -1.2319    1.3686 C   0  0  0  0  0  0  0  0  0  0  0  0
   -1.3737   -0.6337    0.9052 O   0  0  0  0  0  0  0  0  0  0  0  0
   -2.2986   -1.5322    0.4956 C   0  0  0  0  0  0  0  0  0  0  0  0
   -2.1914   -2.7462    0.5085 O   0  0  0  0  0  0  0  0  0  0  0  0
   -3.5007   -0.7986    0.0559 C   0  0  0  0  0  0  0  0  0  0  0  0
   -3.4699   -0.1089   -1.1889 C   0  0  0  0  0  0  0  0  0  0  0  0
   -2.3553   -0.0763   -2.0651 C   0  0  0  0  0  0  0  0  0  0  0  0
   -2.3912    0.6230   -3.2729 C   0  0  0  0  0  0  0  0  0  0  0  0
   -3.5417    1.3056   -3.6410 C   0  0  0  0  0  0  0  0  0  0  0  0
   -4.6544    1.2863   -2.8021 C   0  0  0  0  0  0  0  0  0  0  0  0
   -4.6327    0.5866   -1.5833 C   0  0  0  0  0  0  0  0  0  0  0  0
   -5.7665    0.5752   -0.7562 C   0  0  0  0  0  0  0  0  0  0  0  0
   -5.7927   -0.1166    0.4646 C   0  0  0  0  0  0  0  0  0  0  0  0
   -6.9520   -0.1047    1.2594 C   0  0  0  0  0  0  0  0  0  0  0  0
   -6.9989   -0.7862    2.4742 C   0  0  0  0  0  0  0  0  0  0  0  0
   -5.8860   -1.4903    2.9113 C   0  0  0  0  0  0  0  0  0  0  0  0
   -4.7271   -1.5101    2.1327 C   0  0  0  0  0  0  0  0  0  0  0  0
   -4.6504   -0.8255    0.8933 C   0  0  0  0  0  0  0  0  0  0  0  0
    4.8857    0.1499    3.8062 H   0  0  0  0  0  0  0  0  0  0  0  0
    3.3471   -0.4684    4.4299 H   0  0  0  0  0  0  0  0  0  0  0  0
    4.3526   -1.4929    3.3988 H   0  0  0  0  0  0  0  0  0  0  0  0
    2.9723    1.1087    2.5489 H   0  0  0  0  0  0  0  0  0  0  0  0
    5.1729    0.5958    1.4063 H   0  0  0  0  0  0  0  0  0  0  0  0
    4.5051   -0.9316    0.8436 H   0  0  0  0  0  0  0  0  0  0  0  0
    3.3202    1.8267    0.1787 H   0  0  0  0  0  0  0  0  0  0  0  0
    2.7543    0.2950   -0.4634 H   0  0  0  0  0  0  0  0  0  0  0  0
    5.3878    2.8569   -0.6531 H   0  0  0  0  0  0  0  0  0  0  0  0
    7.0470    2.9806   -2.4781 H   0  0  0  0  0  0  0  0  0  0  0  0
    7.2707    1.1097   -4.0915 H   0  0  0  0  0  0  0  0  0  0  0  0
    5.8252   -0.8940   -3.8735 H   0  0  0  0  0  0  0  0  0  0  0  0
    4.1606   -1.0336   -2.0538 H   0  0  0  0  0  0  0  0  0  0  0  0
    2.2207   -1.7385    2.0443 H   0  0  0  0  0  0  0  0  0  0  0  0
    0.2300   -1.9142    0.6071 H   0  0  0  0  0  0  0  0  0  0  0  0
   -0.3661   -1.7762    2.2991 H   0  0  0  0  0  0  0  0  0  0  0  0
   -1.4339   -0.5976   -1.8131 H   0  0  0  0  0  0  0  0  0  0  0  0
   -1.5182    0.6344   -3.9205 H   0  0  0  0  0  0  0  0  0  0  0  0
   -3.5753    1.8537   -4.5787 H   0  0  0  0  0  0  0  0  0  0  0  0
   -5.5470    1.8274   -3.1105 H   0  0  0  0  0  0  0  0  0  0  0  0
   -6.6563    1.1184   -1.0738 H   0  0  0  0  0  0  0  0  0  0  0  0
   -7.8361    0.4407    0.9348 H   0  0  0  0  0  0  0  0  0  0  0  0
   -7.9041   -0.7668    3.0754 H   0  0  0  0  0  0  0  0  0  0  0  0
   -5.9151   -2.0270    3.8561 H   0  0  0  0  0  0  0  0  0  0  0  0
   -3.8775   -2.0784    2.5076 H   0  0  0  0  0  0  0  0  0  0  0  0
  1  2  1  0
  2  3  1  0
  3  4  1  0
  4  5  1  0
  5  6  2  0
  6  7  1  0
  7  8  2  0
  8  9  1  0
  9 10  2  0
  2 11  1  0
 11 12  1  0
 12 13  2  0
 12 14  1  0
 14 15  1  0
 15 16  1  0
 16 17  2  0
 16 18  1  0
 18 19  1  0
 19 20  2  0
 20 21  1  0
 21 22  2  0
 22 23  1  0
 23 24  2  0
 24 25  1  0
 25 26  2  0
 26 27  1  0
 27 28  2  0
 28 29  1  0
 29 30  2  0
 30 31  1  0
 10  5  1  0
 31 18  2  0
 24 19  1  0
 31 26  1  0
  1 32  1  0
  1 33  1  0
  1 34  1  0
  2 35  1  0
  3 36  1  0
  3 37  1  0
  4 38  1  0
  4 39  1  0
  6 40  1  0
  7 41  1  0
  8 42  1  0
  9 43  1  0
 10 44  1  0
 11 45  1  0
 14 46  1  0
 14 47  1  0
 20 48  1  0
 21 49  1  0
 22 50  1  0
 23 51  1  0
 25 52  1  0
 27 53  1  0
 28 54  1  0
 29 55  1  0
 30 56  1  0
M  END
$$$$
