
     RDKit          3D

 41 43  0  0  0  0  0  0  0  0999 V2000
    2.9377    0.2335    0.7681 Cl  0  0  0  0  0  0  0  0  0  0  0  0
    3.8809   -0.4453   -0.5122 C   0  0  0  0  0  0  0  0  0  0  0  0
    5.1232   -0.9900   -0.1672 C   0  0  0  0  0  0  0  0  0  0  0  0
    5.9476   -1.5429   -1.1457 C   0  0  0  0  0  0  0  0  0  0  0  0
    5.5333   -1.5520   -2.4732 C   0  0  0  0  0  0  0  0  0  0  0  0
    4.2945   -1.0108   -2.8214 C   0  0  0  0  0  0  0  0  0  0  0  0
    3.4446   -0.4496   -1.8475 C   0  0  0  0  0  0  0  0  0  0  0  0
    2.1118    0.1104   -2.2852 C   0  0  0  0  0  0  0  0  0  0  0  0
    0.9126   -1.1638   -2.7817 S   0  0  0  0  0  0  0  0  0  0  0  0
    0.6092   -1.9383   -1.2668 C   0  0  0  0  0  0  0  0  0  0  0  0
    0.9981   -3.1479   -0.9273 N   0  0  0  0  0  0  0  0  0  0  0  0
    0.5754   -3.3754    0.3671 N   0  0  0  0  0  0  0  0  0  0  0  0
   -0.0674   -2.3009    0.7677 C   0  0  0  0  0  0  0  0  0  0  0  0
   -0.1081   -1.3770   -0.2389 N   0  0  0  0  0  0  0  0  0  0  0  0
   -0.7125   -0.0766   -0.1744 N   0  0  0  0  0  0  0  0  0  0  0  0
   -2.0922   -0.0805   -0.6529 C   0  0  0  0  0  0  0  0  0  0  0  0
   -3.0278   -0.8255    0.2557 C   0  0  0  0  0  0  0  0  0  0  0  0
   -3.7456   -0.3195    1.2721 C   0  0  0  0  0  0  0  0  0  0  0  0
   -3.6920    1.0764    1.7043 C   0  0  0  0  0  0  0  0  0  0  0  0
   -4.4536    2.0519    1.0527 C   0  0  0  0  0  0  0  0  0  0  0  0
   -4.3845    3.3847    1.4622 C   0  0  0  0  0  0  0  0  0  0  0  0
   -3.5558    3.7467    2.5237 C   0  0  0  0  0  0  0  0  0  0  0  0
   -2.7974    2.7772    3.1789 C   0  0  0  0  0  0  0  0  0  0  0  0
   -2.8656    1.4437    2.7715 C   0  0  0  0  0  0  0  0  0  0  0  0
    5.4538   -0.9905    0.8686 H   0  0  0  0  0  0  0  0  0  0  0  0
    6.9082   -1.9707   -0.8708 H   0  0  0  0  0  0  0  0  0  0  0  0
    6.1693   -1.9892   -3.2393 H   0  0  0  0  0  0  0  0  0  0  0  0
    3.9861   -1.0394   -3.8655 H   0  0  0  0  0  0  0  0  0  0  0  0
    2.2832    0.7518   -3.1587 H   0  0  0  0  0  0  0  0  0  0  0  0
    1.6651    0.7704   -1.5375 H   0  0  0  0  0  0  0  0  0  0  0  0
   -0.5150   -2.1468    1.7376 H   0  0  0  0  0  0  0  0  0  0  0  0
   -0.6871    0.3199    0.7633 H   0  0  0  0  0  0  0  0  0  0  0  0
   -2.1566   -0.5066   -1.6618 H   0  0  0  0  0  0  0  0  0  0  0  0
   -2.4131    0.9606   -0.7664 H   0  0  0  0  0  0  0  0  0  0  0  0
   -3.1452   -1.8863    0.0359 H   0  0  0  0  0  0  0  0  0  0  0  0
   -4.4020   -0.9635    1.8529 H   0  0  0  0  0  0  0  0  0  0  0  0
   -5.1028    1.7807    0.2236 H   0  0  0  0  0  0  0  0  0  0  0  0
   -4.9778    4.1403    0.9535 H   0  0  0  0  0  0  0  0  0  0  0  0
   -3.5037    4.7849    2.8424 H   0  0  0  0  0  0  0  0  0  0  0  0
   -2.1549    3.0600    4.0089 H   0  0  0  0  0  0  0  0  0  0  0  0
   -2.2739    0.6962    3.2945 H   0  0  0  0  0  0  0  0  0  0  0  0
  1  2  1  0
  2  3  2  0
  3  4  1  0
  4  5  2  0
  5  6  1  0
  6  7  2  0
  7  8  1  0
  8  9  1  0
  9 10  1  0
 10 11  2  0
 11 12  1  0
 12 13  2  0
 13 14  1  0
 14 15  1  0
 15 16  1  0
 16 17  1  0
 17 18  2  3
 18 19  1  0
 19 20  2  0
 20 21  1  0
 21 22  2  0
 22 23  1  0
 23 24  2  0
  7  2  1  0
 14 10  1  0
 24 19  1  0
  3 25  1  0
  4 26  1  0
  5 27  1  0
  6 28  1  0
  8 29  1  0
  8 30  1  0
 13 31  1  0
 15 32  1  0
 16 33  1  0
 16 34  1  0
 17 35  1  0
 18 36  1  0
 20 37  1  0
 21 38  1  0
 22 39  1  0
 23 40  1  0
 24 41  1  0
M  END
$$$$
