
     RDKit          3D

 41 44  0  0  0  0  0  0  0  0999 V2000
   -6.9276   -0.5775   -0.3454 C   0  0  0  0  0  0  0  0  0  0  0  0
   -5.6933   -1.4250   -0.0270 C   0  0  0  0  0  0  0  0  0  0  0  0
   -5.7471   -1.9487    1.4104 C   0  0  0  0  0  0  0  0  0  0  0  0
   -4.4079   -0.6618   -0.2951 C   0  0  0  0  0  0  0  0  0  0  0  0
   -3.5104   -1.1281   -1.2664 C   0  0  0  0  0  0  0  0  0  0  0  0
   -2.3207   -0.4428   -1.5291 C   0  0  0  0  0  0  0  0  0  0  0  0
   -2.0049    0.7193   -0.8199 C   0  0  0  0  0  0  0  0  0  0  0  0
   -0.7668    1.4562   -1.0850 C   0  0  0  0  0  0  0  0  0  0  0  0
    0.4698    1.0408   -0.7767 C   0  0  0  0  0  0  0  0  0  0  0  0
    0.9182   -0.4585    0.0172 S   0  0  0  0  0  0  0  0  0  0  0  0
    2.5671    0.0034   -0.0612 C   0  0  0  0  0  0  0  0  0  0  0  0
    3.6982   -0.5249    0.3057 N   0  0  0  0  0  0  0  0  0  0  0  0
    4.6115    0.4469   -0.0941 C   0  0  0  0  0  0  0  0  0  0  0  0
    6.0460    0.2877    0.1176 C   0  0  0  0  0  0  0  0  0  0  0  0
    6.5444   -0.8606    0.7375 C   0  0  0  0  0  0  0  0  0  0  0  0
    7.9121   -0.9722    0.9192 C   0  0  0  0  0  0  0  0  0  0  0  0
    8.7994   -0.0324    0.5311 N   0  0  0  0  0  0  0  0  0  0  0  0
    8.2973    1.0692   -0.0657 C   0  0  0  0  0  0  0  0  0  0  0  0
    6.9471    1.2736   -0.2921 C   0  0  0  0  0  0  0  0  0  0  0  0
    4.0568    1.5290   -0.6848 N   0  0  0  0  0  0  0  0  0  0  0  0
    2.7536    1.2033   -0.6425 N   0  0  0  0  0  0  0  0  0  0  0  0
    1.6527    1.8992   -1.0923 C   0  0  0  0  0  0  0  0  0  0  0  0
    1.7031    2.9902   -1.6301 O   0  0  0  0  0  0  0  0  0  0  0  0
   -2.8971    1.1963    0.1435 C   0  0  0  0  0  0  0  0  0  0  0  0
   -4.0865    0.5101    0.4051 C   0  0  0  0  0  0  0  0  0  0  0  0
   -6.8958   -0.2123   -1.3780 H   0  0  0  0  0  0  0  0  0  0  0  0
   -7.8416   -1.1695   -0.2273 H   0  0  0  0  0  0  0  0  0  0  0  0
   -7.0083    0.2933    0.3142 H   0  0  0  0  0  0  0  0  0  0  0  0
   -5.7242   -2.3002   -0.6896 H   0  0  0  0  0  0  0  0  0  0  0  0
   -6.6387   -2.5667    1.5615 H   0  0  0  0  0  0  0  0  0  0  0  0
   -5.7793   -1.1345    2.1425 H   0  0  0  0  0  0  0  0  0  0  0  0
   -4.8697   -2.5653    1.6353 H   0  0  0  0  0  0  0  0  0  0  0  0
   -3.7308   -2.0321   -1.8304 H   0  0  0  0  0  0  0  0  0  0  0  0
   -1.6493   -0.8272   -2.2933 H   0  0  0  0  0  0  0  0  0  0  0  0
   -0.9132    2.4270   -1.5581 H   0  0  0  0  0  0  0  0  0  0  0  0
    5.8860   -1.6550    1.0741 H   0  0  0  0  0  0  0  0  0  0  0  0
    8.3434   -1.8476    1.3966 H   0  0  0  0  0  0  0  0  0  0  0  0
    9.0331    1.8092   -0.3677 H   0  0  0  0  0  0  0  0  0  0  0  0
    6.6110    2.1842   -0.7781 H   0  0  0  0  0  0  0  0  0  0  0  0
   -2.6766    2.1025    0.7031 H   0  0  0  0  0  0  0  0  0  0  0  0
   -4.7610    0.9017    1.1635 H   0  0  0  0  0  0  0  0  0  0  0  0
  1  2  1  0
  2  3  1  0
  2  4  1  0
  4  5  2  0
  5  6  1  0
  6  7  2  0
  7  8  1  0
  8  9  2  3
  9 10  1  0
 10 11  1  0
 11 12  2  0
 12 13  1  0
 13 14  1  0
 14 15  2  0
 15 16  1  0
 16 17  2  0
 17 18  1  0
 18 19  2  0
 13 20  2  0
 20 21  1  0
 21 22  1  0
 22 23  2  0
  7 24  1  0
 24 25  2  0
 25  4  1  0
 22  9  1  0
 21 11  1  0
 19 14  1  0
  1 26  1  0
  1 27  1  0
  1 28  1  0
  2 29  1  0
  3 30  1  0
  3 31  1  0
  3 32  1  0
  5 33  1  0
  6 34  1  0
  8 35  1  0
 15 36  1  0
 16 37  1  0
 18 38  1  0
 19 39  1  0
 24 40  1  0
 25 41  1  0
M  END
$$$$
