
     RDKit          3D

 43 45  0  0  0  0  0  0  0  0999 V2000
   -0.7824   -3.8811   -0.4176 C   0  0  0  0  0  0  0  0  0  0  0  0
   -0.6836   -3.0515    0.8353 C   0  0  0  0  0  0  0  0  0  0  0  0
   -1.4179   -3.2477    1.8034 O   0  0  0  0  0  0  0  0  0  0  0  0
    0.3321   -1.9716    0.8583 C   0  0  0  0  0  0  0  0  0  0  0  0
    0.0455   -0.8018    0.2417 C   0  0  0  0  0  0  0  0  0  0  0  0
   -1.1833   -0.5428   -0.3742 N   0  0  0  0  0  0  0  0  0  0  0  0
   -2.3834   -0.2882    0.4685 C   0  0  0  0  0  0  0  0  0  0  0  0
   -3.6802   -0.6053   -0.3097 C   0  0  0  0  0  0  0  0  0  0  0  0
   -3.8080    0.0716   -1.6204 N   0  0  0  0  0  0  0  0  0  0  0  0
   -4.1045    1.4936   -1.4689 C   0  0  0  0  0  0  0  0  0  0  0  0
   -2.5761   -0.1551   -2.4051 C   0  0  0  0  0  0  0  0  0  0  0  0
   -1.2543    0.1679   -1.6704 C   0  0  0  0  0  0  0  0  0  0  0  0
    1.0276    0.1606    0.2202 N   0  0  0  0  0  0  0  0  0  0  0  0
    2.2001    0.0323    0.9195 C   0  0  0  0  0  0  0  0  0  0  0  0
    3.1392    1.1947    1.0036 C   0  0  0  0  0  0  0  0  0  0  0  0
    3.1384    2.1956    0.0233 C   0  0  0  0  0  0  0  0  0  0  0  0
    4.0186    3.2759    0.1265 C   0  0  0  0  0  0  0  0  0  0  0  0
    4.9024    3.3584    1.2021 C   0  0  0  0  0  0  0  0  0  0  0  0
    4.9152    2.3588    2.1737 C   0  0  0  0  0  0  0  0  0  0  0  0
    4.0385    1.2770    2.0742 C   0  0  0  0  0  0  0  0  0  0  0  0
    2.5272   -1.0671    1.5290 N   0  0  0  0  0  0  0  0  0  0  0  0
    1.6913   -2.1688    1.4640 C   0  0  0  0  0  0  0  0  0  0  0  0
    2.2379   -3.6627    2.0483 S   0  0  0  0  0  0  0  0  0  0  0  0
   -1.7480   -3.6978   -0.8959 H   0  0  0  0  0  0  0  0  0  0  0  0
   -0.6868   -4.9384   -0.1566 H   0  0  0  0  0  0  0  0  0  0  0  0
    0.0141   -3.6278   -1.1231 H   0  0  0  0  0  0  0  0  0  0  0  0
   -2.3766    0.7605    0.7899 H   0  0  0  0  0  0  0  0  0  0  0  0
   -2.3644   -0.8941    1.3797 H   0  0  0  0  0  0  0  0  0  0  0  0
   -4.5509   -0.3773    0.3171 H   0  0  0  0  0  0  0  0  0  0  0  0
   -3.7193   -1.6878   -0.4900 H   0  0  0  0  0  0  0  0  0  0  0  0
   -3.3219    2.0466   -0.9400 H   0  0  0  0  0  0  0  0  0  0  0  0
   -4.2442    1.9591   -2.4509 H   0  0  0  0  0  0  0  0  0  0  0  0
   -5.0452    1.6304   -0.9239 H   0  0  0  0  0  0  0  0  0  0  0  0
   -2.5587   -1.2144   -2.6945 H   0  0  0  0  0  0  0  0  0  0  0  0
   -2.6201    0.4073   -3.3458 H   0  0  0  0  0  0  0  0  0  0  0  0
   -1.1601    1.2481   -1.5075 H   0  0  0  0  0  0  0  0  0  0  0  0
   -0.4195   -0.1439   -2.3100 H   0  0  0  0  0  0  0  0  0  0  0  0
    0.6931    1.0830   -0.0195 H   0  0  0  0  0  0  0  0  0  0  0  0
    2.4847    2.1387   -0.8412 H   0  0  0  0  0  0  0  0  0  0  0  0
    4.0241    4.0497   -0.6375 H   0  0  0  0  0  0  0  0  0  0  0  0
    5.5896    4.1976    1.2792 H   0  0  0  0  0  0  0  0  0  0  0  0
    5.6101    2.4172    3.0080 H   0  0  0  0  0  0  0  0  0  0  0  0
    4.0597    0.5008    2.8367 H   0  0  0  0  0  0  0  0  0  0  0  0
  1  2  1  0
  2  3  2  0
  2  4  1  0
  4  5  2  0
  5  6  1  0
  6  7  1  0
  7  8  1  0
  8  9  1  0
  9 10  1  0
  9 11  1  0
 11 12  1  0
  5 13  1  0
 13 14  1  0
 14 15  1  0
 15 16  2  0
 16 17  1  0
 17 18  2  0
 18 19  1  0
 19 20  2  0
 14 21  2  0
 21 22  1  0
 22 23  2  0
 22  4  1  0
 12  6  1  0
 20 15  1  0
  1 24  1  0
  1 25  1  0
  1 26  1  0
  7 27  1  0
  7 28  1  0
  8 29  1  0
  8 30  1  0
 10 31  1  0
 10 32  1  0
 10 33  1  0
 11 34  1  0
 11 35  1  0
 12 36  1  0
 12 37  1  0
 13 38  1  0
 16 39  1  0
 17 40  1  0
 18 41  1  0
 19 42  1  0
 20 43  1  0
M  END
$$$$
