
     RDKit          3D

 45 47  0  0  0  0  0  0  0  0999 V2000
    5.5165   -1.2250    2.9374 C   0  0  0  0  0  0  0  0  0  0  0  0
    4.4961   -0.5857    2.0424 C   0  0  0  0  0  0  0  0  0  0  0  0
    3.1448   -0.5852    2.3932 C   0  0  0  0  0  0  0  0  0  0  0  0
    2.2069    0.0417    1.5718 C   0  0  0  0  0  0  0  0  0  0  0  0
    2.6019    0.6936    0.3924 C   0  0  0  0  0  0  0  0  0  0  0  0
    1.5649    1.3428   -0.3954 C   0  0  0  0  0  0  0  0  0  0  0  0
    1.5618    2.6883   -0.7003 C   0  0  0  0  0  0  0  0  0  0  0  0
    0.1605    3.0775   -1.6046 S   0  0  0  0  0  0  0  0  0  0  0  0
   -0.3560    1.4309   -1.5076 C   0  0  0  0  0  0  0  0  0  0  0  0
   -1.6440    0.9545   -2.1194 C   0  0  0  0  0  0  0  0  0  0  0  0
   -1.7087    1.2601   -3.5525 C   0  0  0  0  0  0  0  0  0  0  0  0
   -1.7771    1.5119   -4.6845 N   0  0  0  0  0  0  0  0  0  0  0  0
   -2.7943    1.6232   -1.4013 C   0  0  0  0  0  0  0  0  0  0  0  0
   -3.5581    1.1302   -0.4674 N   0  0  0  0  0  0  0  0  0  0  0  0
   -3.3538   -0.1873   -0.0264 C   0  0  0  0  0  0  0  0  0  0  0  0
   -2.4552   -0.4122    1.0235 C   0  0  0  0  0  0  0  0  0  0  0  0
   -2.2058   -1.7050    1.4834 C   0  0  0  0  0  0  0  0  0  0  0  0
   -2.8616   -2.7869    0.9020 C   0  0  0  0  0  0  0  0  0  0  0  0
   -3.7751   -2.5767   -0.1322 C   0  0  0  0  0  0  0  0  0  0  0  0
   -4.0417   -1.2793   -0.5914 C   0  0  0  0  0  0  0  0  0  0  0  0
   -5.2125   -1.0815   -1.9295 S   0  0  0  0  0  0  0  0  0  0  0  0
   -6.5816   -0.3766   -1.0023 C   0  0  0  0  0  0  0  0  0  0  0  0
   -6.8439   -1.0773    0.1281 F   0  0  0  0  0  0  0  0  0  0  0  0
   -7.7149   -0.4048   -1.7500 F   0  0  0  0  0  0  0  0  0  0  0  0
   -6.3791    0.9137   -0.6548 F   0  0  0  0  0  0  0  0  0  0  0  0
    0.4577    0.6393   -0.8358 N   0  0  0  0  0  0  0  0  0  0  0  0
    3.9596    0.6836    0.0163 C   0  0  0  0  0  0  0  0  0  0  0  0
    4.4572    1.3235   -1.2520 C   0  0  0  0  0  0  0  0  0  0  0  0
    4.8947    0.0598    0.8637 C   0  0  0  0  0  0  0  0  0  0  0  0
    5.9534   -0.4745    3.6034 H   0  0  0  0  0  0  0  0  0  0  0  0
    6.3153   -1.6864    2.3472 H   0  0  0  0  0  0  0  0  0  0  0  0
    5.0651   -2.0154    3.5466 H   0  0  0  0  0  0  0  0  0  0  0  0
    2.8110   -1.0725    3.3066 H   0  0  0  0  0  0  0  0  0  0  0  0
    1.1570    0.0261    1.8583 H   0  0  0  0  0  0  0  0  0  0  0  0
    2.2900    3.4432   -0.4393 H   0  0  0  0  0  0  0  0  0  0  0  0
   -1.7012   -0.1319   -2.0003 H   0  0  0  0  0  0  0  0  0  0  0  0
   -2.9988    2.6741   -1.6768 H   0  0  0  0  0  0  0  0  0  0  0  0
   -1.9381    0.4286    1.4794 H   0  0  0  0  0  0  0  0  0  0  0  0
   -1.4970   -1.8659    2.2917 H   0  0  0  0  0  0  0  0  0  0  0  0
   -2.6640   -3.7957    1.2566 H   0  0  0  0  0  0  0  0  0  0  0  0
   -4.2798   -3.4352   -0.5711 H   0  0  0  0  0  0  0  0  0  0  0  0
    5.4441    0.9364   -1.5289 H   0  0  0  0  0  0  0  0  0  0  0  0
    3.7902    1.1044   -2.0923 H   0  0  0  0  0  0  0  0  0  0  0  0
    4.5431    2.4067   -1.1221 H   0  0  0  0  0  0  0  0  0  0  0  0
    5.9505    0.0658    0.5938 H   0  0  0  0  0  0  0  0  0  0  0  0
  1  2  1  0
  2  3  2  0
  3  4  1  0
  4  5  2  0
  5  6  1  0
  6  7  2  0
  7  8  1  0
  8  9  1  0
  9 10  1  0
 10 11  1  0
 11 12  3  0
 10 13  1  0
 13 14  2  3
 14 15  1  0
 15 16  2  0
 16 17  1  0
 17 18  2  0
 18 19  1  0
 19 20  2  0
 20 21  1  0
 21 22  1  0
 22 23  1  0
 22 24  1  0
 22 25  1  0
  9 26  2  0
  5 27  1  0
 27 28  1  0
 27 29  2  0
 29  2  1  0
 26  6  1  0
 20 15  1  0
  1 30  1  0
  1 31  1  0
  1 32  1  0
  3 33  1  0
  4 34  1  0
  7 35  1  0
 10 36  1  0
 13 37  1  0
 16 38  1  0
 17 39  1  0
 18 40  1  0
 19 41  1  0
 28 42  1  0
 28 43  1  0
 28 44  1  0
 29 45  1  0
M  END
$$$$
