
     RDKit          3D

 54 58  0  0  0  0  0  0  0  0999 V2000
   -6.4394    1.1703    4.5163 O   0  0  0  0  0  0  0  0  0  0  0  0
   -6.4308    1.2730    3.3037 C   0  0  0  0  0  0  0  0  0  0  0  0
   -7.4819    1.7857    2.6395 O   0  0  0  0  0  0  0  0  0  0  0  0
   -5.3225    0.8718    2.4046 C   0  0  0  0  0  0  0  0  0  0  0  0
   -4.1593    0.3492    2.9716 C   0  0  0  0  0  0  0  0  0  0  0  0
   -3.0893   -0.0423    2.1556 C   0  0  0  0  0  0  0  0  0  0  0  0
   -3.1547    0.0688    0.7575 C   0  0  0  0  0  0  0  0  0  0  0  0
   -2.0578   -0.3418   -0.0656 N   0  0  0  0  0  0  0  0  0  0  0  0
   -0.7137   -0.2861    0.3964 C   0  0  0  0  0  0  0  0  0  0  0  0
   -0.2745    0.0774    1.4721 O   0  0  0  0  0  0  0  0  0  0  0  0
    0.1056   -0.7324   -0.7870 C   0  0  0  0  0  0  0  0  0  0  0  0
    1.4298   -0.8694   -0.9401 C   0  0  0  0  0  0  0  0  0  0  0  0
    2.4342   -0.6508    0.0397 C   0  0  0  0  0  0  0  0  0  0  0  0
    2.4756   -0.8906    1.4063 C   0  0  0  0  0  0  0  0  0  0  0  0
    3.7535   -0.5109    1.8839 C   0  0  0  0  0  0  0  0  0  0  0  0
    4.4641   -0.0743    0.7893 C   0  0  0  0  0  0  0  0  0  0  0  0
    5.8163    0.4405    0.5817 C   0  0  0  0  0  0  0  0  0  0  0  0
    6.2577    0.8326   -0.6939 C   0  0  0  0  0  0  0  0  0  0  0  0
    7.5523    1.3256   -0.8935 C   0  0  0  0  0  0  0  0  0  0  0  0
    8.4238    1.4309    0.1951 C   0  0  0  0  0  0  0  0  0  0  0  0
    9.7838    1.9460   -0.0057 N   0  0  0  0  0  4  0  0  0  0  0  0
   10.5240    2.0209    0.9855 O   0  0  0  0  0  0  0  0  0  0  0  0
   10.1126    2.2748   -1.1546 O   0  0  0  0  0  1  0  0  0  0  0  0
    8.0070    1.0477    1.4747 C   0  0  0  0  0  0  0  0  0  0  0  0
    6.7090    0.5563    1.6601 C   0  0  0  0  0  0  0  0  0  0  0  0
    3.6782   -0.1760   -0.3203 O   0  0  0  0  0  0  0  0  0  0  0  0
   -0.8348   -1.0002   -1.8501 C   0  0  0  0  0  0  0  0  0  0  0  0
   -2.0742   -0.7679   -1.3941 C   0  0  0  0  0  0  0  0  0  0  0  0
   -3.2553   -1.0863   -2.1982 C   0  0  0  0  0  0  0  0  0  0  0  0
   -3.5017   -0.4111   -3.4025 C   0  0  0  0  0  0  0  0  0  0  0  0
   -4.6203   -0.7295   -4.1754 C   0  0  0  0  0  0  0  0  0  0  0  0
   -5.4967   -1.7290   -3.7562 C   0  0  0  0  0  0  0  0  0  0  0  0
   -5.2558   -2.4137   -2.5664 C   0  0  0  0  0  0  0  0  0  0  0  0
   -4.1378   -2.0974   -1.7921 C   0  0  0  0  0  0  0  0  0  0  0  0
   -4.3282    0.6075    0.2078 C   0  0  0  0  0  0  0  0  0  0  0  0
   -5.4026    1.0029    1.0174 C   0  0  0  0  0  0  0  0  0  0  0  0
   -8.1210    2.0055    3.3495 H   0  0  0  0  0  0  0  0  0  0  0  0
   -4.0738    0.2405    4.0514 H   0  0  0  0  0  0  0  0  0  0  0  0
   -2.2152   -0.4627    2.6474 H   0  0  0  0  0  0  0  0  0  0  0  0
    1.8133   -1.1480   -1.9189 H   0  0  0  0  0  0  0  0  0  0  0  0
    1.6704   -1.2973    2.0025 H   0  0  0  0  0  0  0  0  0  0  0  0
    4.1019   -0.5599    2.9052 H   0  0  0  0  0  0  0  0  0  0  0  0
    5.5902    0.7583   -1.5512 H   0  0  0  0  0  0  0  0  0  0  0  0
    7.8572    1.6194   -1.8958 H   0  0  0  0  0  0  0  0  0  0  0  0
    8.6715    1.1238    2.3331 H   0  0  0  0  0  0  0  0  0  0  0  0
    6.4051    0.2649    2.6635 H   0  0  0  0  0  0  0  0  0  0  0  0
   -0.5726   -1.3782   -2.8268 H   0  0  0  0  0  0  0  0  0  0  0  0
   -2.8305    0.3749   -3.7421 H   0  0  0  0  0  0  0  0  0  0  0  0
   -4.8084   -0.1973   -5.1046 H   0  0  0  0  0  0  0  0  0  0  0  0
   -6.3677   -1.9762   -4.3582 H   0  0  0  0  0  0  0  0  0  0  0  0
   -5.9379   -3.1951   -2.2405 H   0  0  0  0  0  0  0  0  0  0  0  0
   -3.9616   -2.6424   -0.8669 H   0  0  0  0  0  0  0  0  0  0  0  0
   -4.4265    0.7773   -0.8595 H   0  0  0  0  0  0  0  0  0  0  0  0
   -6.2907    1.4203    0.5486 H   0  0  0  0  0  0  0  0  0  0  0  0
  1  2  2  0
  2  3  1  0
  2  4  1  0
  4  5  2  0
  5  6  1  0
  6  7  2  0
  7  8  1  0
  8  9  1  0
  9 10  2  0
  9 11  1  0
 11 12  2  3
 12 13  1  0
 13 14  2  0
 14 15  1  0
 15 16  2  0
 16 17  1  0
 17 18  2  0
 18 19  1  0
 19 20  2  0
 20 21  1  0
 21 22  2  0
 21 23  1  0
 20 24  1  0
 24 25  2  0
 16 26  1  0
 11 27  1  0
 27 28  2  0
 28 29  1  0
 29 30  2  0
 30 31  1  0
 31 32  2  0
 32 33  1  0
 33 34  2  0
  7 35  1  0
 35 36  2  0
 36  4  1  0
 28  8  1  0
 34 29  1  0
 26 13  1  0
 25 17  1  0
  3 37  1  0
  5 38  1  0
  6 39  1  0
 12 40  1  0
 14 41  1  0
 15 42  1  0
 18 43  1  0
 19 44  1  0
 24 45  1  0
 25 46  1  0
 27 47  1  0
 30 48  1  0
 31 49  1  0
 32 50  1  0
 33 51  1  0
 34 52  1  0
 35 53  1  0
 36 54  1  0
M  CHG  2  21   1  23  -1
M  END
$$$$
