
     RDKit          3D

 40 44  0  0  0  0  0  0  0  0999 V2000
    6.4088   -1.3909   -3.3371 O   0  0  0  0  0  0  0  0  0  0  0  0
    6.7961   -1.2710   -2.1895 C   0  0  0  0  0  0  0  0  0  0  0  0
    8.0553   -1.5882   -1.8407 O   0  0  0  0  0  0  0  0  0  0  0  0
    5.9865   -0.7812   -1.0480 C   0  0  0  0  0  0  0  0  0  0  0  0
    6.5153   -0.6693    0.2416 C   0  0  0  0  0  0  0  0  0  0  0  0
    5.7129   -0.2029    1.2810 C   0  0  0  0  0  0  0  0  0  0  0  0
    4.3837    0.1518    1.0338 C   0  0  0  0  0  0  0  0  0  0  0  0
    3.8317    0.0478   -0.2529 C   0  0  0  0  0  0  0  0  0  0  0  0
    2.4423    0.4175   -0.5150 C   0  0  0  0  0  0  0  0  0  0  0  0
    1.6346    0.4110   -1.6295 C   0  0  0  0  0  0  0  0  0  0  0  0
    0.3736    0.9050   -1.2144 C   0  0  0  0  0  0  0  0  0  0  0  0
    0.4423    1.1749    0.1456 C   0  0  0  0  0  0  0  0  0  0  0  0
   -0.5023    1.7087    1.0618 C   0  0  0  0  0  0  0  0  0  0  0  0
   -1.8151    1.4401    1.1095 C   0  0  0  0  0  0  0  0  0  0  0  0
   -2.8301    2.2135    2.3325 S   0  0  0  0  0  0  0  0  0  0  0  0
   -4.2018    1.3684    1.7398 C   0  0  0  0  0  0  0  0  0  0  0  0
   -5.4564    1.3599    2.0928 N   0  0  0  0  0  0  0  0  0  0  0  0
   -6.0282    0.4617    1.2133 C   0  0  0  0  0  0  0  0  0  0  0  0
   -7.3633    0.0430    1.1143 C   0  0  0  0  0  0  0  0  0  0  0  0
   -7.7064   -0.8908    0.1281 C   0  0  0  0  0  0  0  0  0  0  0  0
   -6.7419   -1.4004   -0.7446 C   0  0  0  0  0  0  0  0  0  0  0  0
   -5.4039   -0.9985   -0.6665 C   0  0  0  0  0  0  0  0  0  0  0  0
   -5.0826   -0.0655    0.3247 C   0  0  0  0  0  0  0  0  0  0  0  0
   -3.9155    0.5506    0.7002 N   0  0  0  0  0  0  0  0  0  0  0  0
   -2.6108    0.4994    0.2573 C   0  0  0  0  0  0  0  0  0  0  0  0
   -2.2794   -0.2212   -0.6634 O   0  0  0  0  0  0  0  0  0  0  0  0
    1.7299    0.8919    0.5467 O   0  0  0  0  0  0  0  0  0  0  0  0
    4.6511   -0.4237   -1.2896 C   0  0  0  0  0  0  0  0  0  0  0  0
    8.4625   -1.8909   -2.6794 H   0  0  0  0  0  0  0  0  0  0  0  0
    7.5476   -0.9421    0.4467 H   0  0  0  0  0  0  0  0  0  0  0  0
    6.1193   -0.1146    2.2857 H   0  0  0  0  0  0  0  0  0  0  0  0
    3.7779    0.5123    1.8634 H   0  0  0  0  0  0  0  0  0  0  0  0
    1.9112    0.0975   -2.6260 H   0  0  0  0  0  0  0  0  0  0  0  0
   -0.4898    1.0484   -1.8496 H   0  0  0  0  0  0  0  0  0  0  0  0
   -0.0729    2.3714    1.8108 H   0  0  0  0  0  0  0  0  0  0  0  0
   -8.1105    0.4395    1.7934 H   0  0  0  0  0  0  0  0  0  0  0  0
   -8.7389   -1.2227    0.0430 H   0  0  0  0  0  0  0  0  0  0  0  0
   -7.0359   -2.1258   -1.5014 H   0  0  0  0  0  0  0  0  0  0  0  0
   -4.6545   -1.3962   -1.3450 H   0  0  0  0  0  0  0  0  0  0  0  0
    4.2576   -0.5181   -2.2999 H   0  0  0  0  0  0  0  0  0  0  0  0
  1  2  2  0
  2  3  1  0
  2  4  1  0
  4  5  2  0
  5  6  1  0
  6  7  2  0
  7  8  1  0
  8  9  1  0
  9 10  2  0
 10 11  1  0
 11 12  2  0
 12 13  1  0
 13 14  2  3
 14 15  1  0
 15 16  1  0
 16 17  2  0
 17 18  1  0
 18 19  2  0
 19 20  1  0
 20 21  2  0
 21 22  1  0
 22 23  2  0
 23 24  1  0
 24 25  1  0
 25 26  2  0
 12 27  1  0
  8 28  2  0
 28  4  1  0
 27  9  1  0
 25 14  1  0
 24 16  1  0
 23 18  1  0
  3 29  1  0
  5 30  1  0
  6 31  1  0
  7 32  1  0
 10 33  1  0
 11 34  1  0
 13 35  1  0
 19 36  1  0
 20 37  1  0
 21 38  1  0
 22 39  1  0
 28 40  1  0
M  END
$$$$
