
     RDKit          3D

 30 31  0  0  0  0  0  0  0  0999 V2000
   -2.9979   -1.0517    3.1165 C   0  0  0  0  0  0  0  0  0  0  0  0
   -3.1789   -1.6403    1.8353 O   0  0  0  0  0  0  0  0  0  0  0  0
   -2.0856   -1.7024    1.0140 C   0  0  0  0  0  0  0  0  0  0  0  0
   -0.8209   -1.1899    1.3075 C   0  0  0  0  0  0  0  0  0  0  0  0
    0.2139   -1.3180    0.3683 C   0  0  0  0  0  0  0  0  0  0  0  0
    1.8254   -0.6915    0.7744 S   0  0  0  0  0  6  0  0  0  0  0  0
    2.0538   -1.0254    2.1676 O   0  0  0  0  0  0  0  0  0  0  0  0
    2.7777   -1.1026   -0.2347 O   0  0  0  0  0  0  0  0  0  0  0  0
    1.6477    0.9695    0.7452 N   0  0  0  0  0  0  0  0  0  0  0  0
    1.6160    1.6329   -0.4941 C   0  0  0  0  0  0  0  0  0  0  0  0
    2.2290    2.8702   -0.6244 C   0  0  0  0  0  0  0  0  0  0  0  0
    2.1028    3.5467   -1.8348 C   0  0  0  0  0  0  0  0  0  0  0  0
    1.3533    2.9758   -2.8563 C   0  0  0  0  0  0  0  0  0  0  0  0
    0.7527    1.7511   -2.6178 C   0  0  0  0  0  0  0  0  0  0  0  0
    0.8574    1.0772   -1.4516 N   0  0  0  0  0  0  0  0  0  0  0  0
    0.0081   -1.9717   -0.8506 C   0  0  0  0  0  0  0  0  0  0  0  0
   -1.2545   -2.4800   -1.1444 C   0  0  0  0  0  0  0  0  0  0  0  0
   -2.2862   -2.3402   -0.2175 C   0  0  0  0  0  0  0  0  0  0  0  0
   -3.4928   -2.8396   -0.5273 F   0  0  0  0  0  0  0  0  0  0  0  0
   -2.7241    0.0049    3.0292 H   0  0  0  0  0  0  0  0  0  0  0  0
   -2.2586   -1.6050    3.7051 H   0  0  0  0  0  0  0  0  0  0  0  0
   -3.9534   -1.1050    3.6472 H   0  0  0  0  0  0  0  0  0  0  0  0
   -0.6121   -0.6911    2.2482 H   0  0  0  0  0  0  0  0  0  0  0  0
    2.0891    1.4229    1.5376 H   0  0  0  0  0  0  0  0  0  0  0  0
    2.8019    3.3054    0.1858 H   0  0  0  0  0  0  0  0  0  0  0  0
    2.5820    4.5111   -1.9783 H   0  0  0  0  0  0  0  0  0  0  0  0
    1.2346    3.4742   -3.8121 H   0  0  0  0  0  0  0  0  0  0  0  0
    0.1489    1.2659   -3.3798 H   0  0  0  0  0  0  0  0  0  0  0  0
    0.8165   -2.0714   -1.5716 H   0  0  0  0  0  0  0  0  0  0  0  0
   -1.4458   -2.9831   -2.0868 H   0  0  0  0  0  0  0  0  0  0  0  0
  1  2  1  0
  2  3  1  0
  3  4  2  0
  4  5  1  0
  5  6  1  0
  6  7  2  0
  6  8  2  0
  6  9  1  0
  9 10  1  0
 10 11  2  0
 11 12  1  0
 12 13  2  0
 13 14  1  0
 14 15  2  0
  5 16  2  0
 16 17  1  0
 17 18  2  0
 18 19  1  0
 18  3  1  0
 15 10  1  0
  1 20  1  0
  1 21  1  0
  1 22  1  0
  4 23  1  0
  9 24  1  0
 11 25  1  0
 12 26  1  0
 13 27  1  0
 14 28  1  0
 16 29  1  0
 17 30  1  0
M  END
$$$$
