
     RDKit          3D

 36 37  0  0  0  0  0  0  0  0999 V2000
   -2.9561    2.3486    1.3376 C   0  0  0  0  0  0  0  0  0  0  0  0
   -2.0469    1.4935    0.5303 C   0  0  0  0  0  0  0  0  0  0  0  0
   -0.7718    1.2560    1.0209 N   0  0  0  0  0  0  0  0  0  0  0  0
   -0.0914    0.5442    0.1621 C   0  0  0  0  0  0  0  0  0  0  0  0
    1.1987    0.0925    0.2189 N   0  0  0  0  0  0  0  0  0  0  0  0
    2.1035    0.2906    1.2305 C   0  0  0  0  0  0  0  0  0  0  0  0
    1.9157    1.1045    2.6803 S   0  0  0  0  0  0  0  0  0  0  0  0
    3.3510   -0.2717    1.0115 N   0  0  0  0  0  0  0  0  0  0  0  0
    3.8116   -1.0019   -0.0759 C   0  0  0  0  0  0  0  0  0  0  0  0
    3.0997   -1.2635   -1.0451 O   0  0  0  0  0  0  0  0  0  0  0  0
    5.1904   -1.4205    0.0461 C   0  0  0  0  0  0  0  0  0  0  0  0
    6.0031   -2.1466   -0.8033 C   0  0  0  0  0  0  0  0  0  0  0  0
    7.2629   -2.2555   -0.1669 C   0  0  0  0  0  0  0  0  0  0  0  0
    7.1457   -1.5913    1.0309 C   0  0  0  0  0  0  0  0  0  0  0  0
    5.8951   -1.0809    1.1725 O   0  0  0  0  0  0  0  0  0  0  0  0
   -0.9116    0.0915   -1.2634 S   0  0  0  0  0  0  0  0  0  0  0  0
   -2.3163    0.8885   -0.6873 C   0  0  0  0  0  0  0  0  0  0  0  0
   -3.5186    0.8973   -1.4911 C   0  0  0  0  0  0  0  0  0  0  0  0
   -3.5113    1.2972   -2.6556 O   0  0  0  0  0  0  0  0  0  0  0  0
   -4.7067    0.4570   -0.8895 N   0  0  0  0  0  0  0  0  0  0  0  0
   -5.9361    0.5743   -1.6544 C   0  0  0  0  0  0  0  0  0  0  0  0
   -4.7528   -0.4569    0.2446 C   0  0  0  0  0  0  0  0  0  0  0  0
   -3.5266    1.7360    2.0421 H   0  0  0  0  0  0  0  0  0  0  0  0
   -3.6582    2.8961    0.7014 H   0  0  0  0  0  0  0  0  0  0  0  0
   -2.3827    3.0840    1.9111 H   0  0  0  0  0  0  0  0  0  0  0  0
    1.5047   -0.4386   -0.5930 H   0  0  0  0  0  0  0  0  0  0  0  0
    4.0211   -0.1188    1.7572 H   0  0  0  0  0  0  0  0  0  0  0  0
    5.7110   -2.5451   -1.7661 H   0  0  0  0  0  0  0  0  0  0  0  0
    8.1478   -2.7559   -0.5355 H   0  0  0  0  0  0  0  0  0  0  0  0
    7.8254   -1.4016    1.8508 H   0  0  0  0  0  0  0  0  0  0  0  0
   -6.7753    0.7222   -0.9685 H   0  0  0  0  0  0  0  0  0  0  0  0
   -6.0839   -0.3460   -2.2272 H   0  0  0  0  0  0  0  0  0  0  0  0
   -5.8953    1.4220   -2.3444 H   0  0  0  0  0  0  0  0  0  0  0  0
   -5.1071   -1.4305   -0.1092 H   0  0  0  0  0  0  0  0  0  0  0  0
   -5.4570   -0.0625    0.9827 H   0  0  0  0  0  0  0  0  0  0  0  0
   -3.7820   -0.6083    0.7169 H   0  0  0  0  0  0  0  0  0  0  0  0
  1  2  1  0
  2  3  1  0
  3  4  2  0
  4  5  1  0
  5  6  1  0
  6  7  2  0
  6  8  1  0
  8  9  1  0
  9 10  2  0
  9 11  1  0
 11 12  2  0
 12 13  1  0
 13 14  2  0
 14 15  1  0
  4 16  1  0
 16 17  1  0
 17 18  1  0
 18 19  2  0
 18 20  1  0
 20 21  1  0
 20 22  1  0
 17  2  2  0
 15 11  1  0
  1 23  1  0
  1 24  1  0
  1 25  1  0
  5 26  1  0
  8 27  1  0
 12 28  1  0
 13 29  1  0
 14 30  1  0
 21 31  1  0
 21 32  1  0
 21 33  1  0
 22 34  1  0
 22 35  1  0
 22 36  1  0
M  END
$$$$
