
     RDKit          3D

 49 52  0  0  0  0  0  0  0  0999 V2000
    0.0032    0.0784    4.0680 O   0  0  0  0  0  0  0  0  0  0  0  0
    0.7956   -0.1993    3.1707 C   0  0  0  0  0  0  0  0  0  0  0  0
    2.2282   -0.6381    3.4932 C   0  0  0  0  0  0  0  0  0  0  0  0
    2.8334   -1.4150    2.4082 N   0  0  0  0  0  0  0  0  0  0  0  0
    3.3116   -0.7025    1.3244 N   0  0  0  0  0  0  0  0  0  0  0  0
    3.8362   -1.3690    0.3403 C   0  0  0  0  0  0  0  0  0  0  0  0
    4.3510   -0.6207   -0.8417 C   0  0  0  0  0  0  0  0  0  0  0  0
    4.9154    0.6481   -0.6376 C   0  0  0  0  0  0  0  0  0  0  0  0
    5.3948    1.3860   -1.7217 C   0  0  0  0  0  0  0  0  0  0  0  0
    5.2997    0.8594   -3.0042 C   0  0  0  0  0  0  0  0  0  0  0  0
    5.7584    1.5668   -4.0441 F   0  0  0  0  0  0  0  0  0  0  0  0
    4.7287   -0.3894   -3.2249 C   0  0  0  0  0  0  0  0  0  0  0  0
    4.2480   -1.1327   -2.1435 C   0  0  0  0  0  0  0  0  0  0  0  0
    3.9679   -2.8414    0.3175 C   0  0  0  0  0  0  0  0  0  0  0  0
    3.4597   -3.5096    1.3535 C   0  0  0  0  0  0  0  0  0  0  0  0
    2.8151   -2.8012    2.4766 C   0  0  0  0  0  0  0  0  0  0  0  0
    2.3237   -3.4565    3.3899 O   0  0  0  0  0  0  0  0  0  0  0  0
    0.5794   -0.0222    1.8150 N   0  0  0  0  0  0  0  0  0  0  0  0
   -0.5867    0.4007    1.1585 C   0  0  0  0  0  0  0  0  0  0  0  0
   -1.7856    0.6923    1.8111 C   0  0  0  0  0  0  0  0  0  0  0  0
   -2.9112    1.1034    1.0849 C   0  0  0  0  0  0  0  0  0  0  0  0
   -2.8485    1.2150   -0.3082 C   0  0  0  0  0  0  0  0  0  0  0  0
   -4.0158    1.6442   -1.1282 C   0  0  0  0  0  0  0  0  0  0  0  0
   -3.8325    2.1938   -2.2096 O   0  0  0  0  0  0  0  0  0  0  0  0
   -5.2661    1.3556   -0.6124 N   0  0  0  0  0  0  0  0  0  0  0  0
   -6.4662    1.6607   -1.3256 C   0  0  0  0  0  0  0  0  0  0  0  0
   -7.8029    1.1990   -0.8128 C   0  0  0  0  0  0  0  0  0  0  0  0
   -7.2189    0.5781   -2.0476 C   0  0  0  0  0  0  0  0  0  0  0  0
   -1.6433    0.9396   -0.9629 C   0  0  0  0  0  0  0  0  0  0  0  0
   -0.5224    0.5309   -0.2337 C   0  0  0  0  0  0  0  0  0  0  0  0
    2.2073   -1.2344    4.4110 H   0  0  0  0  0  0  0  0  0  0  0  0
    2.8380    0.2553    3.6648 H   0  0  0  0  0  0  0  0  0  0  0  0
    4.9900    1.0658    0.3647 H   0  0  0  0  0  0  0  0  0  0  0  0
    5.8375    2.3664   -1.5740 H   0  0  0  0  0  0  0  0  0  0  0  0
    4.6545   -0.7706   -4.2392 H   0  0  0  0  0  0  0  0  0  0  0  0
    3.7774   -2.0917   -2.3416 H   0  0  0  0  0  0  0  0  0  0  0  0
    4.4733   -3.3492   -0.4920 H   0  0  0  0  0  0  0  0  0  0  0  0
    3.5079   -4.5885    1.4306 H   0  0  0  0  0  0  0  0  0  0  0  0
    1.4014   -0.2122    1.2415 H   0  0  0  0  0  0  0  0  0  0  0  0
   -1.8764    0.6169    2.8909 H   0  0  0  0  0  0  0  0  0  0  0  0
   -3.8132    1.3572    1.6341 H   0  0  0  0  0  0  0  0  0  0  0  0
   -5.3395    0.7661    0.2061 H   0  0  0  0  0  0  0  0  0  0  0  0
   -6.4425    2.6403   -1.8006 H   0  0  0  0  0  0  0  0  0  0  0  0
   -8.6462    1.8697   -0.9328 H   0  0  0  0  0  0  0  0  0  0  0  0
   -7.8410    0.5973    0.0868 H   0  0  0  0  0  0  0  0  0  0  0  0
   -7.6581    0.8300   -3.0061 H   0  0  0  0  0  0  0  0  0  0  0  0
   -6.8458   -0.4371   -1.9853 H   0  0  0  0  0  0  0  0  0  0  0  0
   -1.5743    1.0417   -2.0444 H   0  0  0  0  0  0  0  0  0  0  0  0
    0.4000    0.3227   -0.7701 H   0  0  0  0  0  0  0  0  0  0  0  0
  1  2  2  0
  2  3  1  0
  3  4  1  0
  4  5  1  0
  5  6  2  0
  6  7  1  0
  7  8  2  0
  8  9  1  0
  9 10  2  0
 10 11  1  0
 10 12  1  0
 12 13  2  0
  6 14  1  0
 14 15  2  0
 15 16  1  0
 16 17  2  0
  2 18  1  0
 18 19  1  0
 19 20  2  0
 20 21  1  0
 21 22  2  0
 22 23  1  0
 23 24  2  0
 23 25  1  0
 25 26  1  0
 26 27  1  0
 27 28  1  0
 22 29  1  0
 29 30  2  0
 16  4  1  0
 30 19  1  0
 13  7  1  0
 28 26  1  0
  3 31  1  0
  3 32  1  0
  8 33  1  0
  9 34  1  0
 12 35  1  0
 13 36  1  0
 14 37  1  0
 15 38  1  0
 18 39  1  0
 20 40  1  0
 21 41  1  0
 25 42  1  0
 26 43  1  0
 27 44  1  0
 27 45  1  0
 28 46  1  0
 28 47  1  0
 29 48  1  0
 30 49  1  0
M  END
$$$$
