
     RDKit          3D

 53 57  0  0  0  0  0  0  0  0999 V2000
    4.6564   -0.1814   -0.6534 C   0  0  0  0  0  0  0  0  0  0  0  0
    4.4267    0.2011    0.7818 C   0  0  0  0  0  0  0  0  0  0  0  0
    5.3971    0.9888    1.4269 C   0  0  0  0  0  0  0  0  0  0  0  0
    5.2530    1.3602    2.7654 C   0  0  0  0  0  0  0  0  0  0  0  0
    4.1395    0.9455    3.4890 C   0  0  0  0  0  0  0  0  0  0  0  0
    3.1680    0.1571    2.8743 C   0  0  0  0  0  0  0  0  0  0  0  0
    3.3042   -0.2129    1.5262 C   0  0  0  0  0  0  0  0  0  0  0  0
    2.0317   -1.2484    0.8246 S   0  0  0  0  0  6  0  0  0  0  0  0
    1.0681   -1.5933    1.8519 O   0  0  0  0  0  0  0  0  0  0  0  0
    2.6860   -2.3058    0.0807 O   0  0  0  0  0  0  0  0  0  0  0  0
    1.2814   -0.2728   -0.3083 N   0  0  0  0  0  0  0  0  0  0  0  0
    0.3021    0.6151    0.2002 C   0  0  0  0  0  0  0  0  0  0  0  0
    0.7757    1.5960    0.9891 N   0  0  0  0  0  0  0  0  0  0  0  0
   -0.1318    2.4884    1.4150 C   0  0  0  0  0  0  0  0  0  0  0  0
    0.2773    3.5287    2.2394 C   0  0  0  0  0  0  0  0  0  0  0  0
   -0.6268    4.4851    2.7028 C   0  0  0  0  0  0  0  0  0  0  0  0
   -1.9634    4.4002    2.3346 C   0  0  0  0  0  0  0  0  0  0  0  0
   -2.3856    3.3594    1.5056 C   0  0  0  0  0  0  0  0  0  0  0  0
   -1.4967    2.3994    1.0383 C   0  0  0  0  0  0  0  0  0  0  0  0
   -1.9499    1.4090    0.2424 N   0  0  0  0  0  0  0  0  0  0  0  0
   -1.0541    0.4861   -0.1742 C   0  0  0  0  0  0  0  0  0  0  0  0
   -1.4767   -0.5896   -0.9928 N   0  0  0  0  0  0  0  0  0  0  0  0
   -1.5230   -1.8683   -0.2359 C   0  0  0  0  0  0  0  0  0  0  0  0
   -2.7110   -2.7792   -0.5932 C   0  0  0  0  0  0  0  0  0  0  0  0
   -3.0521   -2.7071   -2.0561 C   0  0  0  0  0  0  0  0  0  0  0  0
   -3.4252   -3.8273   -2.8009 C   0  0  0  0  0  0  0  0  0  0  0  0
   -3.7608   -3.6815   -4.1470 C   0  0  0  0  0  0  0  0  0  0  0  0
   -3.7374   -2.4200   -4.7453 C   0  0  0  0  0  0  0  0  0  0  0  0
   -3.3797   -1.2958   -4.0002 C   0  0  0  0  0  0  0  0  0  0  0  0
   -3.0311   -1.4351   -2.6539 C   0  0  0  0  0  0  0  0  0  0  0  0
   -2.6725   -0.2549   -1.7792 C   0  0  0  0  0  0  0  0  0  0  0  0
    4.9342   -1.2368   -0.7265 H   0  0  0  0  0  0  0  0  0  0  0  0
    3.7718    0.0155   -1.2644 H   0  0  0  0  0  0  0  0  0  0  0  0
    5.4726    0.4028   -1.0940 H   0  0  0  0  0  0  0  0  0  0  0  0
    6.2813    1.3216    0.8855 H   0  0  0  0  0  0  0  0  0  0  0  0
    6.0152    1.9713    3.2431 H   0  0  0  0  0  0  0  0  0  0  0  0
    4.0280    1.2318    4.5315 H   0  0  0  0  0  0  0  0  0  0  0  0
    2.3019   -0.1599    3.4517 H   0  0  0  0  0  0  0  0  0  0  0  0
    0.9674   -0.8074   -1.1181 H   0  0  0  0  0  0  0  0  0  0  0  0
    1.3253    3.5952    2.5234 H   0  0  0  0  0  0  0  0  0  0  0  0
   -0.2842    5.2909    3.3471 H   0  0  0  0  0  0  0  0  0  0  0  0
   -2.6786    5.1390    2.6885 H   0  0  0  0  0  0  0  0  0  0  0  0
   -3.4326    3.2936    1.2175 H   0  0  0  0  0  0  0  0  0  0  0  0
   -0.6015   -2.4159   -0.4681 H   0  0  0  0  0  0  0  0  0  0  0  0
   -1.5378   -1.7056    0.8499 H   0  0  0  0  0  0  0  0  0  0  0  0
   -3.5966   -2.4712   -0.0232 H   0  0  0  0  0  0  0  0  0  0  0  0
   -2.4784   -3.8076   -0.2933 H   0  0  0  0  0  0  0  0  0  0  0  0
   -3.4559   -4.8126   -2.3430 H   0  0  0  0  0  0  0  0  0  0  0  0
   -4.0439   -4.5528   -4.7317 H   0  0  0  0  0  0  0  0  0  0  0  0
   -4.0029   -2.3136   -5.7942 H   0  0  0  0  0  0  0  0  0  0  0  0
   -3.3724   -0.3178   -4.4752 H   0  0  0  0  0  0  0  0  0  0  0  0
   -3.5369   -0.0248   -1.1421 H   0  0  0  0  0  0  0  0  0  0  0  0
   -2.4655    0.6178   -2.4121 H   0  0  0  0  0  0  0  0  0  0  0  0
  1  2  1  0
  2  3  2  0
  3  4  1  0
  4  5  2  0
  5  6  1  0
  6  7  2  0
  7  8  1  0
  8  9  2  0
  8 10  2  0
  8 11  1  0
 11 12  1  0
 12 13  2  0
 13 14  1  0
 14 15  2  0
 15 16  1  0
 16 17  2  0
 17 18  1  0
 18 19  2  0
 19 20  1  0
 20 21  2  0
 21 22  1  0
 22 23  1  0
 23 24  1  0
 24 25  1  0
 25 26  2  0
 26 27  1  0
 27 28  2  0
 28 29  1  0
 29 30  2  0
 30 31  1  0
  7  2  1  0
 21 12  1  0
 31 22  1  0
 19 14  1  0
 30 25  1  0
  1 32  1  0
  1 33  1  0
  1 34  1  0
  3 35  1  0
  4 36  1  0
  5 37  1  0
  6 38  1  0
 11 39  1  0
 15 40  1  0
 16 41  1  0
 17 42  1  0
 18 43  1  0
 23 44  1  0
 23 45  1  0
 24 46  1  0
 24 47  1  0
 26 48  1  0
 27 49  1  0
 28 50  1  0
 29 51  1  0
 31 52  1  0
 31 53  1  0
M  END
$$$$
