
     RDKit          3D

 44 45  0  0  0  0  0  0  0  0999 V2000
    7.1119   -1.9009   -0.8417 C   0  0  0  0  0  0  0  0  0  0  0  0
    5.9272   -1.1355   -0.3283 C   0  0  0  0  0  0  0  0  0  0  0  0
    5.9216   -0.6042    0.9679 C   0  0  0  0  0  0  0  0  0  0  0  0
    4.8131    0.1021    1.4500 C   0  0  0  0  0  0  0  0  0  0  0  0
    3.6792    0.2691    0.6505 C   0  0  0  0  0  0  0  0  0  0  0  0
    2.6042    1.0045    1.0678 O   0  0  0  0  0  0  0  0  0  0  0  0
    2.1744    0.7336    2.4020 C   0  0  0  0  0  0  0  0  0  0  0  0
    0.6842    1.0362    2.5641 C   0  0  0  0  0  0  0  0  0  0  0  0
    0.2234    1.3640    3.6558 O   0  0  0  0  0  0  0  0  0  0  0  0
   -0.0431    0.8409    1.4060 N   0  0  0  0  0  0  0  0  0  0  0  0
   -1.4069    1.0175    1.3020 C   0  0  0  0  0  0  0  0  0  0  0  0
   -2.3822    1.3970    2.2491 C   0  0  0  0  0  0  0  0  0  0  0  0
   -3.6120    1.4453    1.7235 N   0  0  0  0  0  0  0  0  0  0  0  0
   -3.4162    1.1004    0.4371 N   0  0  0  0  0  0  0  0  0  0  0  0
   -4.5476    1.0410   -0.4724 C   0  0  0  0  0  0  0  0  0  0  0  0
   -5.3348   -0.2605   -0.3112 C   0  0  0  0  0  0  0  0  0  0  0  0
   -6.5916   -0.2986   -1.1728 C   0  0  0  0  0  0  0  0  0  0  0  0
   -6.2621   -0.4760   -2.6279 C   0  0  0  0  0  0  0  0  0  0  0  0
   -5.7291    0.3515   -3.3476 O   0  0  0  0  0  0  0  0  0  0  0  0
   -6.5902   -1.6924   -3.0979 O   0  0  0  0  0  0  0  0  0  0  0  0
   -2.1119    0.8328    0.1365 C   0  0  0  0  0  0  0  0  0  0  0  0
    3.6881   -0.2613   -0.6461 C   0  0  0  0  0  0  0  0  0  0  0  0
    2.5218   -0.1200   -1.5118 N   0  0  0  0  0  4  0  0  0  0  0  0
    1.3969   -0.2088   -0.9927 O   0  0  0  0  0  0  0  0  0  0  0  0
    2.7290    0.0483   -2.7218 O   0  0  0  0  0  1  0  0  0  0  0  0
    4.7986   -0.9642   -1.1383 C   0  0  0  0  0  0  0  0  0  0  0  0
    7.3983   -1.5379   -1.8344 H   0  0  0  0  0  0  0  0  0  0  0  0
    7.9796   -1.7823   -0.1844 H   0  0  0  0  0  0  0  0  0  0  0  0
    6.8710   -2.9668   -0.9037 H   0  0  0  0  0  0  0  0  0  0  0  0
    6.7919   -0.7230    1.6121 H   0  0  0  0  0  0  0  0  0  0  0  0
    4.8679    0.5350    2.4456 H   0  0  0  0  0  0  0  0  0  0  0  0
    2.7260    1.3831    3.0905 H   0  0  0  0  0  0  0  0  0  0  0  0
    2.3183   -0.3197    2.6733 H   0  0  0  0  0  0  0  0  0  0  0  0
    0.4542    0.5692    0.5579 H   0  0  0  0  0  0  0  0  0  0  0  0
   -2.2518    1.6394    3.2960 H   0  0  0  0  0  0  0  0  0  0  0  0
   -4.1499    1.1474   -1.4866 H   0  0  0  0  0  0  0  0  0  0  0  0
   -5.1759    1.9145   -0.2636 H   0  0  0  0  0  0  0  0  0  0  0  0
   -5.6323   -0.3765    0.7387 H   0  0  0  0  0  0  0  0  0  0  0  0
   -4.6876   -1.1147   -0.5484 H   0  0  0  0  0  0  0  0  0  0  0  0
   -7.2265   -1.1334   -0.8527 H   0  0  0  0  0  0  0  0  0  0  0  0
   -7.1925    0.6103   -1.0598 H   0  0  0  0  0  0  0  0  0  0  0  0
   -6.3214   -1.6708   -4.0403 H   0  0  0  0  0  0  0  0  0  0  0  0
   -1.8049    0.5413   -0.8581 H   0  0  0  0  0  0  0  0  0  0  0  0
    4.7893   -1.3770   -2.1463 H   0  0  0  0  0  0  0  0  0  0  0  0
  1  2  1  0
  2  3  2  0
  3  4  1  0
  4  5  2  0
  5  6  1  0
  6  7  1  0
  7  8  1  0
  8  9  2  0
  8 10  1  0
 10 11  1  0
 11 12  1  0
 12 13  2  0
 13 14  1  0
 14 15  1  0
 15 16  1  0
 16 17  1  0
 17 18  1  0
 18 19  2  0
 18 20  1  0
 14 21  1  0
  5 22  1  0
 22 23  1  0
 23 24  2  0
 23 25  1  0
 22 26  2  0
 26  2  1  0
 21 11  2  0
  1 27  1  0
  1 28  1  0
  1 29  1  0
  3 30  1  0
  4 31  1  0
  7 32  1  0
  7 33  1  0
 10 34  1  0
 12 35  1  0
 15 36  1  0
 15 37  1  0
 16 38  1  0
 16 39  1  0
 17 40  1  0
 17 41  1  0
 20 42  1  0
 21 43  1  0
 26 44  1  0
M  CHG  2  23   1  25  -1
M  END
$$$$
