
     RDKit          3D

 38 41  0  0  0  0  0  0  0  0999 V2000
    6.0822    1.1287   -1.6764 C   0  0  0  0  0  0  0  0  0  0  0  0
    5.3309   -0.0932   -1.4988 N   0  0  0  0  0  0  0  0  0  0  0  0
    4.1030   -0.0270   -0.9381 C   0  0  0  0  0  0  0  0  0  0  0  0
    3.6330    0.9985   -0.2593 N   0  0  0  0  0  0  0  0  0  0  0  0
    2.3708    0.7065    0.1605 C   0  0  0  0  0  0  0  0  0  0  0  0
    1.6223    1.5792    0.9067 N   0  0  0  0  0  0  0  0  0  0  0  0
    0.3564    1.2550    1.3309 C   0  0  0  0  0  0  0  0  0  0  0  0
   -0.2971    2.0078    2.0458 O   0  0  0  0  0  0  0  0  0  0  0  0
   -0.1982   -0.0777    0.8949 C   0  0  0  0  0  0  0  0  0  0  0  0
    0.5597   -0.9353    0.1893 C   0  0  0  0  0  0  0  0  0  0  0  0
    1.8549   -0.5192   -0.1859 C   0  0  0  0  0  0  0  0  0  0  0  0
    3.0143   -1.3678   -1.0945 S   0  0  0  0  0  0  0  0  0  0  0  0
    0.1324   -2.1976   -0.2387 O   0  0  0  0  0  0  0  0  0  0  0  0
   -1.0486   -2.6694    0.2175 C   0  0  0  0  0  0  0  0  0  0  0  0
   -1.5349   -3.7251   -0.3450 N   0  0  0  0  0  0  0  0  0  0  0  0
   -1.7467   -1.9879    1.3663 C   0  0  0  0  0  0  0  0  0  0  0  0
   -1.1899   -2.5299    2.6173 C   0  0  0  0  0  0  0  0  0  0  0  0
   -0.7347   -2.9247    3.6092 N   0  0  0  0  0  0  0  0  0  0  0  0
   -1.5890   -0.4556    1.3212 C   0  0  0  0  0  0  0  0  0  0  0  0
   -2.6492    0.2297    0.4577 C   0  0  0  0  0  0  0  0  0  0  0  0
   -3.3571    1.3221    0.9892 C   0  0  0  0  0  0  0  0  0  0  0  0
   -4.3290    1.9841    0.2370 C   0  0  0  0  0  0  0  0  0  0  0  0
   -4.6069    1.5696   -1.0615 C   0  0  0  0  0  0  0  0  0  0  0  0
   -3.9075    0.4984   -1.6100 C   0  0  0  0  0  0  0  0  0  0  0  0
   -2.9322   -0.1649   -0.8601 C   0  0  0  0  0  0  0  0  0  0  0  0
    5.5848    1.7948   -2.3892 H   0  0  0  0  0  0  0  0  0  0  0  0
    7.0752    0.8921   -2.0713 H   0  0  0  0  0  0  0  0  0  0  0  0
    6.2210    1.6567   -0.7269 H   0  0  0  0  0  0  0  0  0  0  0  0
    5.4754   -0.8025   -2.2086 H   0  0  0  0  0  0  0  0  0  0  0  0
    2.0323    2.4627    1.1743 H   0  0  0  0  0  0  0  0  0  0  0  0
   -0.8794   -4.0227   -1.0795 H   0  0  0  0  0  0  0  0  0  0  0  0
   -2.8115   -2.2536    1.3271 H   0  0  0  0  0  0  0  0  0  0  0  0
   -1.7371   -0.0975    2.3512 H   0  0  0  0  0  0  0  0  0  0  0  0
   -3.1471    1.6806    1.9967 H   0  0  0  0  0  0  0  0  0  0  0  0
   -4.8635    2.8284    0.6655 H   0  0  0  0  0  0  0  0  0  0  0  0
   -5.3627    2.0856   -1.6478 H   0  0  0  0  0  0  0  0  0  0  0  0
   -4.1196    0.1793   -2.6278 H   0  0  0  0  0  0  0  0  0  0  0  0
   -2.4068   -0.9863   -1.3388 H   0  0  0  0  0  0  0  0  0  0  0  0
  1  2  1  0
  2  3  1  0
  3  4  2  0
  4  5  1  0
  5  6  1  0
  6  7  1  0
  7  8  2  0
  7  9  1  0
  9 10  2  0
 10 11  1  0
 11 12  1  0
 10 13  1  0
 13 14  1  0
 14 15  2  3
 14 16  1  0
 16 17  1  0
 17 18  3  0
 16 19  1  0
 19 20  1  0
 20 21  2  0
 21 22  1  0
 22 23  2  0
 23 24  1  0
 24 25  2  0
 12  3  1  0
 25 20  1  0
 11  5  2  0
 19  9  1  0
  1 26  1  0
  1 27  1  0
  1 28  1  0
  2 29  1  0
  6 30  1  0
 15 31  1  0
 16 32  1  0
 19 33  1  0
 21 34  1  0
 22 35  1  0
 23 36  1  0
 24 37  1  0
 25 38  1  0
M  END
$$$$
