
     RDKit          3D

 43 45  0  0  0  0  0  0  0  0999 V2000
   -3.3360   -1.9058   -2.1074 C   0  0  0  0  0  0  0  0  0  0  0  0
   -2.8198   -2.8029   -0.9851 C   0  0  0  0  0  0  0  0  0  0  0  0
   -3.5236   -4.1587   -1.0246 C   0  0  0  0  0  0  0  0  0  0  0  0
   -1.0152   -3.0911   -1.1657 S   0  0  0  0  0  0  0  0  0  0  0  0
   -0.3344   -1.5339   -0.6089 C   0  0  0  0  0  0  0  0  0  0  0  0
    0.9980   -1.2781   -0.8525 C   0  0  0  0  0  0  0  0  0  0  0  0
    1.5114   -0.0789   -0.4018 C   0  0  0  0  0  0  0  0  0  0  0  0
    2.8401    0.2633   -0.6262 N   0  0  0  0  0  0  0  0  0  0  0  0
    3.8897   -0.7641   -0.4951 C   0  0  0  0  0  0  0  0  0  0  0  0
    5.0243   -0.2742    0.4215 C   0  0  0  0  0  0  0  0  0  0  0  0
    5.6344    0.9469   -0.0169 O   0  0  0  0  0  0  0  0  0  0  0  0
    4.7102    1.8542   -0.6387 C   0  0  0  0  0  0  0  0  0  0  0  0
    3.2450    1.6248   -0.2369 C   0  0  0  0  0  0  0  0  0  0  0  0
    0.7151    0.8042    0.2233 N   0  0  0  0  0  0  0  0  0  0  0  0
   -0.5734    0.4756    0.4296 C   0  0  0  0  0  0  0  0  0  0  0  0
   -1.4304    1.4554    1.1306 C   0  0  0  0  0  0  0  0  0  0  0  0
   -0.9223    2.6936    1.5735 C   0  0  0  0  0  0  0  0  0  0  0  0
   -1.7312    3.6240    2.2370 C   0  0  0  0  0  0  0  0  0  0  0  0
   -3.0705    3.3320    2.4712 C   0  0  0  0  0  0  0  0  0  0  0  0
   -4.0673    4.4723    3.2858 Cl  0  0  0  0  0  0  0  0  0  0  0  0
   -3.6060    2.1201    2.0484 C   0  0  0  0  0  0  0  0  0  0  0  0
   -2.7922    1.1937    1.3854 C   0  0  0  0  0  0  0  0  0  0  0  0
   -1.1330   -0.6787    0.0413 N   0  0  0  0  0  0  0  0  0  0  0  0
   -4.4159   -1.7518   -2.0030 H   0  0  0  0  0  0  0  0  0  0  0  0
   -2.8673   -0.9168   -2.0907 H   0  0  0  0  0  0  0  0  0  0  0  0
   -3.1619   -2.3492   -3.0944 H   0  0  0  0  0  0  0  0  0  0  0  0
   -3.0274   -2.3462   -0.0118 H   0  0  0  0  0  0  0  0  0  0  0  0
   -3.1797   -4.8103   -0.2134 H   0  0  0  0  0  0  0  0  0  0  0  0
   -4.6047   -4.0296   -0.9006 H   0  0  0  0  0  0  0  0  0  0  0  0
   -3.3617   -4.6775   -1.9764 H   0  0  0  0  0  0  0  0  0  0  0  0
    1.6066   -1.9846   -1.4008 H   0  0  0  0  0  0  0  0  0  0  0  0
    4.2896   -0.9642   -1.4958 H   0  0  0  0  0  0  0  0  0  0  0  0
    3.5072   -1.7060   -0.0861 H   0  0  0  0  0  0  0  0  0  0  0  0
    4.6515   -0.1167    1.4407 H   0  0  0  0  0  0  0  0  0  0  0  0
    5.8123   -1.0320    0.4788 H   0  0  0  0  0  0  0  0  0  0  0  0
    5.0201    2.8704   -0.3749 H   0  0  0  0  0  0  0  0  0  0  0  0
    4.8271    1.7467   -1.7234 H   0  0  0  0  0  0  0  0  0  0  0  0
    3.1404    1.7532    0.8481 H   0  0  0  0  0  0  0  0  0  0  0  0
    2.6200    2.3701   -0.7429 H   0  0  0  0  0  0  0  0  0  0  0  0
    0.1237    2.9445    1.4012 H   0  0  0  0  0  0  0  0  0  0  0  0
   -1.3064    4.5690    2.5647 H   0  0  0  0  0  0  0  0  0  0  0  0
   -4.6517    1.8856    2.2285 H   0  0  0  0  0  0  0  0  0  0  0  0
   -3.2345    0.2515    1.0644 H   0  0  0  0  0  0  0  0  0  0  0  0
  1  2  1  0
  2  3  1  0
  2  4  1  0
  4  5  1  0
  5  6  2  0
  6  7  1  0
  7  8  1  0
  8  9  1  0
  9 10  1  0
 10 11  1  0
 11 12  1  0
 12 13  1  0
  7 14  2  0
 14 15  1  0
 15 16  1  0
 16 17  2  0
 17 18  1  0
 18 19  2  0
 19 20  1  0
 19 21  1  0
 21 22  2  0
 15 23  2  0
 23  5  1  0
 13  8  1  0
 22 16  1  0
  1 24  1  0
  1 25  1  0
  1 26  1  0
  2 27  1  0
  3 28  1  0
  3 29  1  0
  3 30  1  0
  6 31  1  0
  9 32  1  0
  9 33  1  0
 10 34  1  0
 10 35  1  0
 12 36  1  0
 12 37  1  0
 13 38  1  0
 13 39  1  0
 17 40  1  0
 18 41  1  0
 21 42  1  0
 22 43  1  0
M  END
$$$$
