
     RDKit          3D

 83 84  0  0  0  0  0  0  0  0999 V2000
    0.4996    0.9369    2.5553 C   0  0  0  0  0  0  0  0  0  0  0  0
    0.3929    1.1962    1.2363 C   0  0  0  0  0  0  0  0  0  0  0  0
    1.6056    1.5522    0.3733 C   0  0  1  0  0  0  0  0  0  0  0  0
    1.9114    2.9292    0.6819 O   0  0  0  0  0  0  0  0  0  0  0  0
    2.5634    3.6184   -0.2928 C   0  0  0  0  0  0  0  0  0  0  0  0
    2.7334    5.0467    0.1257 C   0  0  0  0  0  0  0  0  0  0  0  0
    2.9788    3.1557   -1.3473 O   0  0  0  0  0  0  0  0  0  0  0  0
    2.8600    0.6818    0.6160 C   0  0  0  0  0  0  0  0  0  0  0  0
    2.7304   -0.7237   -0.0081 C   0  0  1  0  0  0  0  0  0  0  0  0
    3.5023   -0.7097   -1.2402 O   0  0  0  0  0  0  0  0  0  0  0  0
    2.8397   -0.4021   -2.3855 C   0  0  0  0  0  0  0  0  0  0  0  0
    3.7996   -0.2905   -3.5289 C   0  0  0  0  0  0  0  0  0  0  0  0
    1.6337   -0.2219   -2.4775 O   0  0  0  0  0  0  0  0  0  0  0  0
    3.2685   -1.8867    0.8915 C   0  0  0  0  0  0  0  0  0  0  0  0
    3.2064   -3.2288    0.1265 C   0  0  0  0  0  0  0  0  0  0  0  0
    4.7662   -1.6598    1.2294 C   0  0  0  0  0  0  0  0  0  0  0  0
    2.4955   -1.9794    2.2090 C   0  0  0  0  0  0  0  0  0  0  0  0
    1.2240   -2.3399    2.4643 C   0  0  0  0  0  0  0  0  0  0  0  0
    0.1211   -2.7632    1.5182 C   0  0  0  0  0  0  0  0  0  0  0  0
   -0.1990   -4.2379    1.7559 C   0  0  0  0  0  0  0  0  0  0  0  0
   -1.1410   -1.9236    1.7726 C   0  0  0  0  0  0  0  0  0  0  0  0
   -1.6109   -1.8366    2.9165 O   0  0  0  0  0  0  0  0  0  0  0  0
   -1.8531   -1.1959    0.5875 C   0  0  1  0  0  0  0  0  0  0  0  0
   -1.2225   -1.2154   -0.7057 O   0  0  0  0  0  0  0  0  0  0  0  0
   -1.2273   -2.3622   -1.4365 C   0  0  0  0  0  0  0  0  0  0  0  0
   -0.7388   -2.1279   -2.8293 C   0  0  0  0  0  0  0  0  0  0  0  0
   -1.5709   -3.4569   -1.0147 O   0  0  0  0  0  0  0  0  0  0  0  0
   -3.3255   -1.7295    0.4818 C   0  0  0  0  0  0  0  0  0  0  0  0
   -4.2518   -0.5631    0.8442 C   0  0  2  0  0  0  0  0  0  0  0  0
   -5.6197   -0.6687    0.1854 C   0  0  0  0  0  0  0  0  0  0  0  0
   -3.4447    0.6662    0.4294 C   0  0  2  0  0  0  0  0  0  0  0  0
   -3.3924    0.7623   -1.0048 O   0  0  0  0  0  0  0  0  0  0  0  0
   -3.8584    1.9088   -1.5720 C   0  0  0  0  0  0  0  0  0  0  0  0
   -3.7017    1.8377   -3.0600 C   0  0  0  0  0  0  0  0  0  0  0  0
   -4.3280    2.8619   -0.9686 O   0  0  0  0  0  0  0  0  0  0  0  0
   -2.0526    0.3145    0.9883 C   0  0  2  0  0  0  0  0  0  0  0  0
   -0.9588    1.3114    0.5353 C   0  0  1  0  0  0  0  0  0  0  0  0
   -1.4405    2.6409    0.8541 O   0  0  0  0  0  0  0  0  0  0  0  0
   -1.3308    3.5893   -0.1137 C   0  0  0  0  0  0  0  0  0  0  0  0
   -1.8625    4.8970    0.3876 C   0  0  0  0  0  0  0  0  0  0  0  0
   -0.8520    3.4214   -1.2274 O   0  0  0  0  0  0  0  0  0  0  0  0
   -0.3620    0.7619    3.1923 H   0  0  0  0  0  0  0  0  0  0  0  0
    1.4542    0.9404    3.0709 H   0  0  0  0  0  0  0  0  0  0  0  0
    1.3189    1.4854   -0.6804 H   0  0  0  0  0  0  0  0  0  0  0  0
    1.7564    5.4866    0.3429 H   0  0  0  0  0  0  0  0  0  0  0  0
    3.1906    5.6097   -0.6914 H   0  0  0  0  0  0  0  0  0  0  0  0
    3.3875    5.0989    1.0006 H   0  0  0  0  0  0  0  0  0  0  0  0
    3.0708    0.6391    1.6875 H   0  0  0  0  0  0  0  0  0  0  0  0
    3.7362    1.1873    0.1900 H   0  0  0  0  0  0  0  0  0  0  0  0
    1.6816   -0.9380   -0.2394 H   0  0  0  0  0  0  0  0  0  0  0  0
    4.3261    0.6649   -3.4740 H   0  0  0  0  0  0  0  0  0  0  0  0
    4.5111   -1.1218   -3.5079 H   0  0  0  0  0  0  0  0  0  0  0  0
    3.2469   -0.3469   -4.4705 H   0  0  0  0  0  0  0  0  0  0  0  0
    2.2303   -3.4003   -0.3364 H   0  0  0  0  0  0  0  0  0  0  0  0
    3.4154   -4.0760    0.7906 H   0  0  0  0  0  0  0  0  0  0  0  0
    3.9456   -3.2622   -0.6822 H   0  0  0  0  0  0  0  0  0  0  0  0
    4.9271   -0.7363    1.7964 H   0  0  0  0  0  0  0  0  0  0  0  0
    5.1613   -2.4840    1.8360 H   0  0  0  0  0  0  0  0  0  0  0  0
    5.3795   -1.5993    0.3235 H   0  0  0  0  0  0  0  0  0  0  0  0
    3.0795   -1.7053    3.0924 H   0  0  0  0  0  0  0  0  0  0  0  0
    0.9211   -2.3269    3.5151 H   0  0  0  0  0  0  0  0  0  0  0  0
    0.4421   -2.6229    0.4914 H   0  0  0  0  0  0  0  0  0  0  0  0
    0.6684   -4.8665    1.5315 H   0  0  0  0  0  0  0  0  0  0  0  0
   -0.4865   -4.4243    2.7972 H   0  0  0  0  0  0  0  0  0  0  0  0
   -1.0309   -4.5761    1.1348 H   0  0  0  0  0  0  0  0  0  0  0  0
   -0.8669   -1.0790   -3.1119 H   0  0  0  0  0  0  0  0  0  0  0  0
   -1.3323   -2.7294   -3.5227 H   0  0  0  0  0  0  0  0  0  0  0  0
    0.3121   -2.4127   -2.8979 H   0  0  0  0  0  0  0  0  0  0  0  0
   -3.5147   -2.5761    1.1520 H   0  0  0  0  0  0  0  0  0  0  0  0
   -3.5646   -2.0668   -0.5325 H   0  0  0  0  0  0  0  0  0  0  0  0
   -4.3909   -0.5493    1.9341 H   0  0  0  0  0  0  0  0  0  0  0  0
   -6.1442   -1.5635    0.5357 H   0  0  0  0  0  0  0  0  0  0  0  0
   -5.5476   -0.7323   -0.9059 H   0  0  0  0  0  0  0  0  0  0  0  0
   -6.2340    0.2027    0.4354 H   0  0  0  0  0  0  0  0  0  0  0  0
   -3.8512    1.5687    0.9001 H   0  0  0  0  0  0  0  0  0  0  0  0
   -2.6441    1.7429   -3.3179 H   0  0  0  0  0  0  0  0  0  0  0  0
   -4.0911    2.7535   -3.5125 H   0  0  0  0  0  0  0  0  0  0  0  0
   -4.2679    0.9879   -3.4510 H   0  0  0  0  0  0  0  0  0  0  0  0
   -2.1680    0.4008    2.0768 H   0  0  0  0  0  0  0  0  0  0  0  0
   -0.8251    1.1990   -0.5460 H   0  0  0  0  0  0  0  0  0  0  0  0
   -1.9811    5.5853   -0.4537 H   0  0  0  0  0  0  0  0  0  0  0  0
   -1.1643    5.3262    1.1108 H   0  0  0  0  0  0  0  0  0  0  0  0
   -2.8449    4.7494    0.8433 H   0  0  0  0  0  0  0  0  0  0  0  0
  1  2  2  0
  2  3  1  0
  3  4  1  0
  4  5  1  0
  5  6  1  0
  5  7  2  0
  3  8  1  0
  8  9  1  0
  9 10  1  0
 10 11  1  0
 11 12  1  0
 11 13  2  0
  9 14  1  0
 14 15  1  0
 14 16  1  0
 14 17  1  0
 17 18  2  3
 18 19  1  0
 19 20  1  0
 19 21  1  0
 21 22  2  0
 21 23  1  0
 23 24  1  6
 24 25  1  0
 25 26  1  0
 25 27  2  0
 23 28  1  0
 28 29  1  0
 29 30  1  0
 29 31  1  0
 31 32  1  0
 32 33  1  0
 33 34  1  0
 33 35  2  0
 31 36  1  0
 36 37  1  0
 37 38  1  0
 38 39  1  0
 39 40  1  0
 39 41  2  0
 37  2  1  0
 36 23  1  0
  1 42  1  0
  1 43  1  0
  3 44  1  6
  6 45  1  0
  6 46  1  0
  6 47  1  0
  8 48  1  0
  8 49  1  0
  9 50  1  6
 12 51  1  0
 12 52  1  0
 12 53  1  0
 15 54  1  0
 15 55  1  0
 15 56  1  0
 16 57  1  0
 16 58  1  0
 16 59  1  0
 17 60  1  0
 18 61  1  0
 19 62  1  0
 20 63  1  0
 20 64  1  0
 20 65  1  0
 26 66  1  0
 26 67  1  0
 26 68  1  0
 28 69  1  0
 28 70  1  0
 29 71  1  1
 30 72  1  0
 30 73  1  0
 30 74  1  0
 31 75  1  1
 34 76  1  0
 34 77  1  0
 34 78  1  0
 36 79  1  1
 37 80  1  6
 40 81  1  0
 40 82  1  0
 40 83  1  0
M  END
$$$$
