
     RDKit          3D

 77 83  0  0  0  0  0  0  0  0999 V2000
   -4.4783   -2.8535    1.6831 C   0  0  0  0  0  0  0  0  0  0  0  0
   -5.1605   -2.7271    0.3166 C   0  0  0  0  0  0  0  0  0  0  0  0
   -5.5210   -4.1328   -0.1936 C   0  0  0  0  0  0  0  0  0  0  0  0
   -6.4497   -1.9009    0.3988 C   0  0  0  0  0  0  0  0  0  0  0  0
   -4.1993   -2.2208   -0.6473 O   0  0  0  0  0  0  0  0  0  0  0  0
   -3.8347   -0.9117   -0.6606 C   0  0  0  0  0  0  0  0  0  0  0  0
   -4.3212   -0.0499    0.0569 O   0  0  0  0  0  0  0  0  0  0  0  0
   -2.8300   -0.6659   -1.5886 N   0  0  0  0  0  0  0  0  0  0  0  0
   -1.7962   -1.6926   -1.8110 C   0  0  0  0  0  0  0  0  0  0  0  0
   -0.5979   -1.4935   -0.8383 C   0  0  0  0  0  0  0  0  0  0  0  0
   -0.1146   -0.1322   -0.9977 N   0  0  0  0  0  0  0  0  0  0  0  0
   -1.1727    0.8914   -0.6994 C   0  0  2  0  0  0  0  0  0  0  0  0
   -2.3234    0.7179   -1.6863 C   0  0  0  0  0  0  0  0  0  0  0  0
   -0.3450    2.1118   -0.7640 C   0  0  0  0  0  0  0  0  0  0  0  0
    1.0005    1.7899   -0.5197 C   0  0  0  0  0  0  0  0  0  0  0  0
    1.7346    2.9458   -0.5366 C   0  0  0  0  0  0  0  0  0  0  0  0
    3.0539    3.0843   -0.4164 O   0  0  0  0  0  0  0  0  0  0  0  0
    0.8328    4.0026   -0.7825 N   0  0  0  0  0  0  0  0  0  0  0  0
    1.1806    5.3822   -0.8788 C   0  0  0  0  0  0  0  0  0  0  0  0
    2.1619    5.9200   -0.0365 C   0  0  0  0  0  0  0  0  0  0  0  0
    2.5181    7.2658   -0.1497 C   0  0  0  0  0  0  0  0  0  0  0  0
    1.8952    8.0764   -1.0967 C   0  0  0  0  0  0  0  0  0  0  0  0
    0.9140    7.5484   -1.9306 C   0  0  0  0  0  0  0  0  0  0  0  0
    0.5519    6.2032   -1.8228 C   0  0  0  0  0  0  0  0  0  0  0  0
   -0.4644    3.4635   -0.9138 C   0  0  0  0  0  0  0  0  0  0  0  0
   -1.5754    4.1766   -1.0794 O   0  0  0  0  0  0  0  0  0  0  0  0
    1.1458    0.3164   -0.3662 C   0  0  1  0  0  0  0  0  0  0  0  0
    1.3268   -0.1130    1.1099 C   0  0  0  0  0  0  0  0  0  0  0  0
    0.5385    0.0440    2.0317 O   0  0  0  0  0  0  0  0  0  0  0  0
    2.5896   -0.7260    1.1867 N   0  0  0  0  0  0  0  0  0  0  0  0
    3.1373   -1.2505    2.4129 C   0  0  0  0  0  0  0  0  0  0  0  0
    2.7379   -2.6861    2.6558 C   0  0  0  0  0  0  0  0  0  0  0  0
    3.6285   -3.7349    2.3980 C   0  0  0  0  0  0  0  0  0  0  0  0
    3.2504   -5.0595    2.6284 C   0  0  0  0  0  0  0  0  0  0  0  0
    1.9775   -5.3497    3.1152 C   0  0  0  0  0  0  0  0  0  0  0  0
    1.0819   -4.3155    3.3787 C   0  0  0  0  0  0  0  0  0  0  0  0
    1.4580   -2.9927    3.1471 C   0  0  0  0  0  0  0  0  0  0  0  0
    3.2230   -0.7496   -0.0685 C   0  0  0  0  0  0  0  0  0  0  0  0
    4.4616   -1.2626   -0.4085 C   0  0  0  0  0  0  0  0  0  0  0  0
    4.8700   -1.1757   -1.7435 C   0  0  0  0  0  0  0  0  0  0  0  0
    4.0426   -0.5820   -2.7112 C   0  0  0  0  0  0  0  0  0  0  0  0
    2.7959   -0.0660   -2.3573 C   0  0  0  0  0  0  0  0  0  0  0  0
    2.4010   -0.1475   -1.0296 C   0  0  0  0  0  0  0  0  0  0  0  0
   -5.1577   -3.2786    2.4297 H   0  0  0  0  0  0  0  0  0  0  0  0
   -4.1229   -1.8854    2.0431 H   0  0  0  0  0  0  0  0  0  0  0  0
   -3.6037   -3.5027    1.6047 H   0  0  0  0  0  0  0  0  0  0  0  0
   -6.1907   -4.6546    0.4978 H   0  0  0  0  0  0  0  0  0  0  0  0
   -4.6237   -4.7447   -0.3344 H   0  0  0  0  0  0  0  0  0  0  0  0
   -6.0114   -4.0696   -1.1711 H   0  0  0  0  0  0  0  0  0  0  0  0
   -6.3078   -0.9797    0.9735 H   0  0  0  0  0  0  0  0  0  0  0  0
   -7.2484   -2.4599    0.9002 H   0  0  0  0  0  0  0  0  0  0  0  0
   -6.8023   -1.6126   -0.5967 H   0  0  0  0  0  0  0  0  0  0  0  0
   -2.2014   -2.7004   -1.6890 H   0  0  0  0  0  0  0  0  0  0  0  0
   -1.4588   -1.5927   -2.8491 H   0  0  0  0  0  0  0  0  0  0  0  0
   -0.9195   -1.6825    0.1946 H   0  0  0  0  0  0  0  0  0  0  0  0
    0.1821   -2.2191   -1.0925 H   0  0  0  0  0  0  0  0  0  0  0  0
   -1.5353    0.7584    0.3307 H   0  0  0  0  0  0  0  0  0  0  0  0
   -1.9951    0.8792   -2.7198 H   0  0  0  0  0  0  0  0  0  0  0  0
   -3.1264    1.4367   -1.4839 H   0  0  0  0  0  0  0  0  0  0  0  0
    3.3345    3.8700   -0.9176 H   0  0  0  0  0  0  0  0  0  0  0  0
    2.6370    5.3202    0.7393 H   0  0  0  0  0  0  0  0  0  0  0  0
    3.2717    7.6840    0.5104 H   0  0  0  0  0  0  0  0  0  0  0  0
    2.1747    9.1236   -1.1823 H   0  0  0  0  0  0  0  0  0  0  0  0
    0.4339    8.1812   -2.6718 H   0  0  0  0  0  0  0  0  0  0  0  0
   -0.1836    5.8129   -2.5206 H   0  0  0  0  0  0  0  0  0  0  0  0
   -1.4366    5.0796   -0.7414 H   0  0  0  0  0  0  0  0  0  0  0  0
    2.7724   -0.6376    3.2492 H   0  0  0  0  0  0  0  0  0  0  0  0
    4.2272   -1.1370    2.4144 H   0  0  0  0  0  0  0  0  0  0  0  0
    4.6243   -3.5306    2.0157 H   0  0  0  0  0  0  0  0  0  0  0  0
    3.9493   -5.8690    2.4273 H   0  0  0  0  0  0  0  0  0  0  0  0
    1.6815   -6.3790    3.2983 H   0  0  0  0  0  0  0  0  0  0  0  0
    0.0887   -4.5386    3.7598 H   0  0  0  0  0  0  0  0  0  0  0  0
    0.7434   -2.1950    3.3516 H   0  0  0  0  0  0  0  0  0  0  0  0
    5.1087   -1.7269    0.3247 H   0  0  0  0  0  0  0  0  0  0  0  0
    5.8392   -1.5710   -2.0369 H   0  0  0  0  0  0  0  0  0  0  0  0
    4.3787   -0.5222   -3.7436 H   0  0  0  0  0  0  0  0  0  0  0  0
    2.1523    0.3955   -3.0994 H   0  0  0  0  0  0  0  0  0  0  0  0
  1  2  1  0
  2  3  1  0
  2  4  1  0
  2  5  1  0
  5  6  1  0
  6  7  2  0
  6  8  1  0
  8  9  1  0
  9 10  1  0
 10 11  1  0
 11 12  1  0
 12 13  1  0
 12 14  1  0
 14 15  1  0
 15 16  2  0
 16 17  1  0
 16 18  1  0
 18 19  1  0
 19 20  2  0
 20 21  1  0
 21 22  2  0
 22 23  1  0
 23 24  2  0
 18 25  1  0
 25 26  1  0
 15 27  1  0
 27 28  1  0
 28 29  2  0
 28 30  1  0
 30 31  1  0
 31 32  1  0
 32 33  2  0
 33 34  1  0
 34 35  2  0
 35 36  1  0
 36 37  2  0
 30 38  1  0
 38 39  2  0
 39 40  1  0
 40 41  2  0
 41 42  1  0
 42 43  2  0
 13  8  1  0
 25 14  2  0
 43 27  1  0
 27 11  1  6
 37 32  1  0
 43 38  1  0
 24 19  1  0
  1 44  1  0
  1 45  1  0
  1 46  1  0
  3 47  1  0
  3 48  1  0
  3 49  1  0
  4 50  1  0
  4 51  1  0
  4 52  1  0
  9 53  1  0
  9 54  1  0
 10 55  1  0
 10 56  1  0
 12 57  1  1
 13 58  1  0
 13 59  1  0
 17 60  1  0
 20 61  1  0
 21 62  1  0
 22 63  1  0
 23 64  1  0
 24 65  1  0
 26 66  1  0
 31 67  1  0
 31 68  1  0
 33 69  1  0
 34 70  1  0
 35 71  1  0
 36 72  1  0
 37 73  1  0
 39 74  1  0
 40 75  1  0
 41 76  1  0
 42 77  1  0
M  END
$$$$
