
     RDKit          3D

 36 37  0  0  0  0  0  0  0  0999 V2000
   -3.2460   -1.0412    2.0880 C   0  0  0  0  0  0  0  0  0  0  0  0
   -2.3184   -1.6612    1.0383 C   0  0  0  0  0  0  0  0  0  0  0  0
   -2.4338   -0.9614   -0.3221 C   0  0  0  0  0  0  0  0  0  0  0  0
   -1.7412    0.4125   -0.3878 C   0  0  0  0  0  0  0  0  0  0  0  0
   -2.7458    1.5631   -0.3275 C   0  0  0  0  0  0  0  0  0  0  0  0
   -0.6615    0.5811    0.6879 C   0  0  0  0  0  0  0  0  0  0  0  0
    0.0176   -0.7189    0.8868 N   0  0  0  0  0  0  0  0  0  0  0  0
    1.5677   -0.6187    1.6053 S   0  0  0  0  0  6  0  0  0  0  0  0
    2.0746   -1.9632    1.7712 O   0  0  0  0  0  0  0  0  0  0  0  0
    1.4792    0.3176    2.7044 O   0  0  0  0  0  0  0  0  0  0  0  0
    2.6452    0.1128    0.3959 C   0  0  0  0  0  0  0  0  0  0  0  0
    2.5575    0.2239   -0.9788 C   0  0  0  0  0  0  0  0  0  0  0  0
    3.6892    0.8937   -1.5703 C   0  0  0  0  0  0  0  0  0  0  0  0
    3.8659    1.1586   -2.9868 C   0  0  0  0  0  0  0  0  0  0  0  0
    4.8161    1.7100   -3.5193 O   0  0  0  0  0  0  0  0  0  0  0  0
    2.8348    0.7310   -3.7520 O   0  0  0  0  0  0  0  0  0  0  0  0
    4.5836    1.2408   -0.5807 C   0  0  0  0  0  0  0  0  0  0  0  0
    6.0948    2.0555   -0.7309 Cl  0  0  0  0  0  0  0  0  0  0  0  0
    4.0990    0.7861    0.9813 S   0  0  0  0  0  0  0  0  0  0  0  0
   -0.8619   -1.7345    1.5352 C   0  0  0  0  0  0  0  0  0  0  0  0
   -3.2482   -1.6486    2.9998 H   0  0  0  0  0  0  0  0  0  0  0  0
   -4.2760   -0.9989    1.7182 H   0  0  0  0  0  0  0  0  0  0  0  0
   -2.9463   -0.0291    2.3697 H   0  0  0  0  0  0  0  0  0  0  0  0
   -2.6725   -2.6933    0.9085 H   0  0  0  0  0  0  0  0  0  0  0  0
   -1.9512   -1.6124   -1.0649 H   0  0  0  0  0  0  0  0  0  0  0  0
   -3.4832   -0.8917   -0.6333 H   0  0  0  0  0  0  0  0  0  0  0  0
   -1.2514    0.4727   -1.3699 H   0  0  0  0  0  0  0  0  0  0  0  0
   -2.2345    2.5273   -0.4204 H   0  0  0  0  0  0  0  0  0  0  0  0
   -3.4687    1.4897   -1.1469 H   0  0  0  0  0  0  0  0  0  0  0  0
   -3.3027    1.5662    0.6142 H   0  0  0  0  0  0  0  0  0  0  0  0
    0.0471    1.3453    0.3502 H   0  0  0  0  0  0  0  0  0  0  0  0
   -1.0802    0.9323    1.6374 H   0  0  0  0  0  0  0  0  0  0  0  0
    1.7151   -0.1641   -1.5420 H   0  0  0  0  0  0  0  0  0  0  0  0
    3.1177    0.9786   -4.6573 H   0  0  0  0  0  0  0  0  0  0  0  0
   -0.4639   -2.7221    1.2704 H   0  0  0  0  0  0  0  0  0  0  0  0
   -0.8175   -1.6395    2.6264 H   0  0  0  0  0  0  0  0  0  0  0  0
  1  2  1  0
  2  3  1  0
  3  4  1  0
  4  5  1  0
  4  6  1  0
  6  7  1  0
  7  8  1  0
  8  9  2  0
  8 10  2  0
  8 11  1  0
 11 12  2  0
 12 13  1  0
 13 14  1  0
 14 15  2  0
 14 16  1  0
 13 17  2  0
 17 18  1  0
 17 19  1  0
  7 20  1  0
 20  2  1  0
 19 11  1  0
  1 21  1  0
  1 22  1  0
  1 23  1  0
  2 24  1  0
  3 25  1  0
  3 26  1  0
  4 27  1  0
  5 28  1  0
  5 29  1  0
  5 30  1  0
  6 31  1  0
  6 32  1  0
 12 33  1  0
 16 34  1  0
 20 35  1  0
 20 36  1  0
M  END
$$$$
