
     RDKit          3D

 50 53  0  0  0  0  0  0  0  0999 V2000
    1.6428   -0.7828    2.8588 O   0  0  0  0  0  0  0  0  0  0  0  0
    0.9597   -0.3654    1.9420 C   0  0  0  0  0  0  0  0  0  0  0  0
   -0.5182   -0.0283    2.0769 C   0  0  0  0  0  0  0  0  0  0  0  0
   -1.1311   -0.0989    3.1206 O   0  0  0  0  0  0  0  0  0  0  0  0
   -0.9608    0.4004    0.8301 N   0  0  0  0  0  0  0  0  0  0  0  0
   -2.1354    1.2740    0.7358 C   0  0  0  0  0  0  0  0  0  0  0  0
   -3.4113    0.8093    1.4507 C   0  0  0  0  0  0  0  0  0  0  0  0
   -3.9324   -0.5440    1.0055 C   0  0  0  0  0  0  0  0  0  0  0  0
   -5.3817   -0.4511    1.4126 C   0  0  0  0  0  0  0  0  0  0  0  0
   -5.7100    0.9906    1.0829 C   0  0  0  0  0  0  0  0  0  0  0  0
   -4.4834    1.7356    1.1621 O   0  0  0  0  0  0  0  0  0  0  0  0
    0.1994    0.6638   -0.0153 C   0  0  0  0  0  0  0  0  0  0  0  0
   -0.0311    0.4183   -1.4994 C   0  0  0  0  0  0  0  0  0  0  0  0
    0.4749    1.3888   -2.3904 C   0  0  0  0  0  0  0  0  0  0  0  0
    0.3089    1.2717   -3.7735 C   0  0  0  0  0  0  0  0  0  0  0  0
   -0.3652    0.1796   -4.3094 C   0  0  0  0  0  0  0  0  0  0  0  0
   -0.8675   -0.8043   -3.4624 C   0  0  0  0  0  0  0  0  0  0  0  0
   -0.6948   -0.6890   -2.0709 C   0  0  0  0  0  0  0  0  0  0  0  0
   -1.2218   -1.7884   -1.2654 N   0  0  0  0  0  4  0  0  0  0  0  0
   -2.3538   -2.2040   -1.5448 O   0  0  0  0  0  0  0  0  0  0  0  0
   -0.4862   -2.2603   -0.3886 O   0  0  0  0  0  1  0  0  0  0  0  0
    1.4094   -0.1212    0.5414 C   0  0  0  0  0  0  0  0  0  0  0  0
    2.6952    0.6673    0.4521 C   0  0  0  0  0  0  0  0  0  0  0  0
    2.6872    1.8821    0.2503 O   0  0  0  0  0  0  0  0  0  0  0  0
    4.0127   -0.0349    0.5733 C   0  0  0  0  0  0  0  0  0  0  0  0
    4.1284   -1.3888    0.9108 C   0  0  0  0  0  0  0  0  0  0  0  0
    5.3891   -1.9887    0.9928 C   0  0  0  0  0  0  0  0  0  0  0  0
    6.5396   -1.2450    0.7381 C   0  0  0  0  0  0  0  0  0  0  0  0
    6.4354    0.1027    0.4044 C   0  0  0  0  0  0  0  0  0  0  0  0
    5.1784    0.7056    0.3233 C   0  0  0  0  0  0  0  0  0  0  0  0
   -1.8494    2.2563    1.1335 H   0  0  0  0  0  0  0  0  0  0  0  0
   -2.3620    1.4276   -0.3261 H   0  0  0  0  0  0  0  0  0  0  0  0
   -3.2787    0.8276    2.5377 H   0  0  0  0  0  0  0  0  0  0  0  0
   -3.4052   -1.3842    1.4645 H   0  0  0  0  0  0  0  0  0  0  0  0
   -3.8739   -0.6405   -0.0836 H   0  0  0  0  0  0  0  0  0  0  0  0
   -6.0307   -1.1639    0.8971 H   0  0  0  0  0  0  0  0  0  0  0  0
   -5.4786   -0.6201    2.4917 H   0  0  0  0  0  0  0  0  0  0  0  0
   -6.0900    1.0874    0.0606 H   0  0  0  0  0  0  0  0  0  0  0  0
   -6.4452    1.4192    1.7700 H   0  0  0  0  0  0  0  0  0  0  0  0
    0.3673    1.7418    0.1215 H   0  0  0  0  0  0  0  0  0  0  0  0
    1.0096    2.2619   -2.0110 H   0  0  0  0  0  0  0  0  0  0  0  0
    0.7072    2.0409   -4.4328 H   0  0  0  0  0  0  0  0  0  0  0  0
   -0.4959    0.0941   -5.3860 H   0  0  0  0  0  0  0  0  0  0  0  0
   -1.3870   -1.6592   -3.8933 H   0  0  0  0  0  0  0  0  0  0  0  0
    1.5332   -1.0738    0.0227 H   0  0  0  0  0  0  0  0  0  0  0  0
    3.2637   -2.0054    1.1381 H   0  0  0  0  0  0  0  0  0  0  0  0
    5.4724   -3.0383    1.2664 H   0  0  0  0  0  0  0  0  0  0  0  0
    7.5178   -1.7147    0.8080 H   0  0  0  0  0  0  0  0  0  0  0  0
    7.3316    0.6874    0.2118 H   0  0  0  0  0  0  0  0  0  0  0  0
    5.1173    1.7614    0.0647 H   0  0  0  0  0  0  0  0  0  0  0  0
  1  2  2  0
  2  3  1  0
  3  4  2  0
  3  5  1  0
  5  6  1  0
  6  7  1  0
  7  8  1  0
  8  9  1  0
  9 10  1  0
 10 11  1  0
  5 12  1  0
 12 13  1  0
 13 14  2  0
 14 15  1  0
 15 16  2  0
 16 17  1  0
 17 18  2  0
 18 19  1  0
 19 20  2  0
 19 21  1  0
 12 22  1  0
 22 23  1  0
 23 24  2  0
 23 25  1  0
 25 26  2  0
 26 27  1  0
 27 28  2  0
 28 29  1  0
 29 30  2  0
 22  2  1  0
 30 25  1  0
 11  7  1  0
 18 13  1  0
  6 31  1  0
  6 32  1  0
  7 33  1  0
  8 34  1  0
  8 35  1  0
  9 36  1  0
  9 37  1  0
 10 38  1  0
 10 39  1  0
 12 40  1  0
 14 41  1  0
 15 42  1  0
 16 43  1  0
 17 44  1  0
 22 45  1  0
 26 46  1  0
 27 47  1  0
 28 48  1  0
 29 49  1  0
 30 50  1  0
M  CHG  2  19   1  21  -1
M  END
$$$$
