
     RDKit          3D

 53 55  0  0  0  0  0  0  0  0999 V2000
    5.9648   -2.9456    3.3248 C   0  0  0  0  0  0  0  0  0  0  0  0
    5.2999   -3.6652    2.2950 O   0  0  0  0  0  0  0  0  0  0  0  0
    4.5897   -2.9323    1.3840 C   0  0  0  0  0  0  0  0  0  0  0  0
    3.9020   -3.6912    0.4377 C   0  0  0  0  0  0  0  0  0  0  0  0
    3.1359   -3.0722   -0.5519 C   0  0  0  0  0  0  0  0  0  0  0  0
    3.0459   -1.6749   -0.6127 C   0  0  0  0  0  0  0  0  0  0  0  0
    2.2788   -1.0345   -1.6002 C   0  0  0  0  0  0  0  0  0  0  0  0
    2.1871    0.3656   -1.6569 C   0  0  0  0  0  0  0  0  0  0  0  0
    1.3450    1.0551   -2.7202 C   0  0  0  0  0  0  0  0  0  0  0  0
    2.0018    0.9209   -4.0956 C   0  0  0  0  0  0  0  0  0  0  0  0
   -0.1131    0.5588   -2.7369 C   0  0  0  0  0  0  0  0  0  0  0  0
   -0.6387    0.1324   -3.7612 O   0  0  0  0  0  0  0  0  0  0  0  0
   -0.7387    0.7014   -1.5045 N   0  0  0  0  0  0  0  0  0  0  0  0
   -2.0682    0.3762   -1.1672 C   0  0  0  0  0  0  0  0  0  0  0  0
   -3.0018   -0.1427   -2.0684 C   0  0  0  0  0  0  0  0  0  0  0  0
   -4.3017   -0.4561   -1.6531 C   0  0  0  0  0  0  0  0  0  0  0  0
   -4.6885   -0.2378   -0.3337 C   0  0  0  0  0  0  0  0  0  0  0  0
   -3.7690    0.3098    0.5617 C   0  0  0  0  0  0  0  0  0  0  0  0
   -4.2437    0.5860    2.2556 S   0  0  0  0  0  6  0  0  0  0  0  0
   -3.0298    0.5959    3.0457 O   0  0  0  0  0  0  0  0  0  0  0  0
   -5.3254   -0.3279    2.5572 O   0  0  0  0  0  0  0  0  0  0  0  0
   -4.8712    2.1681    2.2276 N   0  0  0  0  0  0  0  0  0  0  0  0
   -3.9148    3.2623    1.9933 C   0  0  0  0  0  0  0  0  0  0  0  0
   -6.1589    2.3630    1.5391 C   0  0  0  0  0  0  0  0  0  0  0  0
   -2.4583    0.5944    0.1588 C   0  0  0  0  0  0  0  0  0  0  0  0
    2.8894    1.1261   -0.7145 C   0  0  0  0  0  0  0  0  0  0  0  0
    3.6548    0.5008    0.2727 C   0  0  0  0  0  0  0  0  0  0  0  0
    3.7422   -0.8985    0.3393 C   0  0  0  0  0  0  0  0  0  0  0  0
    4.5094   -1.5395    1.3309 C   0  0  0  0  0  0  0  0  0  0  0  0
    6.4537   -3.6732    3.9799 H   0  0  0  0  0  0  0  0  0  0  0  0
    6.7421   -2.2945    2.9121 H   0  0  0  0  0  0  0  0  0  0  0  0
    5.2536   -2.3757    3.9318 H   0  0  0  0  0  0  0  0  0  0  0  0
    3.9612   -4.7763    0.4709 H   0  0  0  0  0  0  0  0  0  0  0  0
    2.6100   -3.6936   -1.2732 H   0  0  0  0  0  0  0  0  0  0  0  0
    1.7440   -1.6379   -2.3339 H   0  0  0  0  0  0  0  0  0  0  0  0
    1.2879    2.1291   -2.4917 H   0  0  0  0  0  0  0  0  0  0  0  0
    1.4393    1.4836   -4.8491 H   0  0  0  0  0  0  0  0  0  0  0  0
    3.0266    1.3082   -4.0832 H   0  0  0  0  0  0  0  0  0  0  0  0
    2.0419   -0.1225   -4.4289 H   0  0  0  0  0  0  0  0  0  0  0  0
   -0.1526    1.0201   -0.7415 H   0  0  0  0  0  0  0  0  0  0  0  0
   -2.7472   -0.3330   -3.1070 H   0  0  0  0  0  0  0  0  0  0  0  0
   -5.0058   -0.8794   -2.3658 H   0  0  0  0  0  0  0  0  0  0  0  0
   -5.6949   -0.4979   -0.0142 H   0  0  0  0  0  0  0  0  0  0  0  0
   -3.6279    3.3150    0.9398 H   0  0  0  0  0  0  0  0  0  0  0  0
   -4.3712    4.2168    2.2745 H   0  0  0  0  0  0  0  0  0  0  0  0
   -3.0198    3.1452    2.6104 H   0  0  0  0  0  0  0  0  0  0  0  0
   -6.5910    3.3253    1.8328 H   0  0  0  0  0  0  0  0  0  0  0  0
   -6.8809    1.5929    1.8244 H   0  0  0  0  0  0  0  0  0  0  0  0
   -6.0302    2.3595    0.4536 H   0  0  0  0  0  0  0  0  0  0  0  0
   -1.7494    0.9844    0.8851 H   0  0  0  0  0  0  0  0  0  0  0  0
    2.8556    2.2134   -0.7404 H   0  0  0  0  0  0  0  0  0  0  0  0
    4.1905    1.1183    0.9908 H   0  0  0  0  0  0  0  0  0  0  0  0
    5.0396   -0.9262    2.0526 H   0  0  0  0  0  0  0  0  0  0  0  0
  1  2  1  0
  2  3  1  0
  3  4  2  0
  4  5  1  0
  5  6  2  0
  6  7  1  0
  7  8  2  0
  8  9  1  0
  9 10  1  0
  9 11  1  0
 11 12  2  0
 11 13  1  0
 13 14  1  0
 14 15  2  0
 15 16  1  0
 16 17  2  0
 17 18  1  0
 18 19  1  0
 19 20  2  0
 19 21  2  0
 19 22  1  0
 22 23  1  0
 22 24  1  0
 18 25  2  0
  8 26  1  0
 26 27  2  0
 27 28  1  0
 28 29  2  0
 29  3  1  0
 28  6  1  0
 25 14  1  0
  1 30  1  0
  1 31  1  0
  1 32  1  0
  4 33  1  0
  5 34  1  0
  7 35  1  0
  9 36  1  0
 10 37  1  0
 10 38  1  0
 10 39  1  0
 13 40  1  0
 15 41  1  0
 16 42  1  0
 17 43  1  0
 23 44  1  0
 23 45  1  0
 23 46  1  0
 24 47  1  0
 24 48  1  0
 24 49  1  0
 25 50  1  0
 26 51  1  0
 27 52  1  0
 29 53  1  0
M  END
$$$$
