
     RDKit          3D

 47 48  0  0  0  0  0  0  0  0999 V2000
    7.9344   -1.1024    1.0891 C   0  0  0  0  0  0  0  0  0  0  0  0
    6.9652   -0.0655    0.6150 C   0  0  0  0  0  0  0  0  0  0  0  0
    6.9977    1.2251    1.1516 C   0  0  0  0  0  0  0  0  0  0  0  0
    6.1218    2.2065    0.6864 C   0  0  0  0  0  0  0  0  0  0  0  0
    5.2065    1.9216   -0.3374 C   0  0  0  0  0  0  0  0  0  0  0  0
    4.2617    2.9867   -0.8354 C   0  0  0  0  0  0  0  0  0  0  0  0
    2.7216    3.0583    0.1239 S   0  0  0  0  0  0  0  0  0  0  0  0
    1.6819    2.0281   -0.8059 C   0  0  0  0  0  0  0  0  0  0  0  0
    2.0097    1.4089   -1.9232 N   0  0  0  0  0  0  0  0  0  0  0  0
    0.8870    0.7312   -2.3500 N   0  0  0  0  0  0  0  0  0  0  0  0
   -0.0484    0.9778   -1.4634 C   0  0  0  0  0  0  0  0  0  0  0  0
   -1.4462    0.4996   -1.4120 C   0  0  0  0  0  0  0  0  0  0  0  0
   -1.5260   -0.8597   -0.7235 C   0  0  0  0  0  0  0  0  0  0  0  0
   -2.8671   -1.3966   -0.7113 N   0  0  0  0  0  0  0  0  0  0  0  0
   -3.8434   -0.9194    0.1093 C   0  0  0  0  0  0  0  0  0  0  0  0
   -3.7048    0.0159    0.8786 O   0  0  0  0  0  0  0  0  0  0  0  0
   -4.9675   -1.6448   -0.0827 O   0  0  0  0  0  0  0  0  0  0  0  0
   -6.1755   -1.3435    0.6630 C   0  0  0  0  0  0  0  0  0  0  0  0
   -5.9695   -1.5489    2.1690 C   0  0  0  0  0  0  0  0  0  0  0  0
   -7.2074   -2.3703    0.1672 C   0  0  0  0  0  0  0  0  0  0  0  0
   -6.6905    0.0630    0.3425 C   0  0  0  0  0  0  0  0  0  0  0  0
    0.3777    1.7917   -0.4535 O   0  0  0  0  0  0  0  0  0  0  0  0
    5.1805    0.6282   -0.8759 C   0  0  0  0  0  0  0  0  0  0  0  0
    6.0550   -0.3548   -0.4064 C   0  0  0  0  0  0  0  0  0  0  0  0
    7.5572   -2.1108    0.8978 H   0  0  0  0  0  0  0  0  0  0  0  0
    8.8883   -0.9814    0.5729 H   0  0  0  0  0  0  0  0  0  0  0  0
    8.0974   -1.0110    2.1678 H   0  0  0  0  0  0  0  0  0  0  0  0
    7.7065    1.4746    1.9376 H   0  0  0  0  0  0  0  0  0  0  0  0
    6.1615    3.1990    1.1279 H   0  0  0  0  0  0  0  0  0  0  0  0
    4.0717    2.8724   -1.9088 H   0  0  0  0  0  0  0  0  0  0  0  0
    4.7503    3.9635   -0.7364 H   0  0  0  0  0  0  0  0  0  0  0  0
   -1.8400    0.4202   -2.4327 H   0  0  0  0  0  0  0  0  0  0  0  0
   -2.0722    1.2345   -0.8935 H   0  0  0  0  0  0  0  0  0  0  0  0
   -0.8935   -1.5930   -1.2361 H   0  0  0  0  0  0  0  0  0  0  0  0
   -1.1773   -0.7848    0.3119 H   0  0  0  0  0  0  0  0  0  0  0  0
   -3.1126   -2.1923   -1.2810 H   0  0  0  0  0  0  0  0  0  0  0  0
   -6.9157   -1.4642    2.7158 H   0  0  0  0  0  0  0  0  0  0  0  0
   -5.2796   -0.8142    2.5942 H   0  0  0  0  0  0  0  0  0  0  0  0
   -5.5398   -2.5363    2.3685 H   0  0  0  0  0  0  0  0  0  0  0  0
   -6.8558   -3.3936    0.3477 H   0  0  0  0  0  0  0  0  0  0  0  0
   -8.1768   -2.2479    0.6629 H   0  0  0  0  0  0  0  0  0  0  0  0
   -7.3593   -2.2817   -0.9173 H   0  0  0  0  0  0  0  0  0  0  0  0
   -7.6813    0.2325    0.7781 H   0  0  0  0  0  0  0  0  0  0  0  0
   -6.0269    0.8401    0.7298 H   0  0  0  0  0  0  0  0  0  0  0  0
   -6.7540    0.2163   -0.7391 H   0  0  0  0  0  0  0  0  0  0  0  0
    4.4793    0.3733   -1.6686 H   0  0  0  0  0  0  0  0  0  0  0  0
    6.0181   -1.3520   -0.8442 H   0  0  0  0  0  0  0  0  0  0  0  0
  1  2  1  0
  2  3  2  0
  3  4  1  0
  4  5  2  0
  5  6  1  0
  6  7  1  0
  7  8  1  0
  8  9  2  0
  9 10  1  0
 10 11  2  0
 11 12  1  0
 12 13  1  0
 13 14  1  0
 14 15  1  0
 15 16  2  0
 15 17  1  0
 17 18  1  0
 18 19  1  0
 18 20  1  0
 18 21  1  0
 11 22  1  0
  5 23  1  0
 23 24  2  0
 24  2  1  0
 22  8  1  0
  1 25  1  0
  1 26  1  0
  1 27  1  0
  3 28  1  0
  4 29  1  0
  6 30  1  0
  6 31  1  0
 12 32  1  0
 12 33  1  0
 13 34  1  0
 13 35  1  0
 14 36  1  0
 19 37  1  0
 19 38  1  0
 19 39  1  0
 20 40  1  0
 20 41  1  0
 20 42  1  0
 21 43  1  0
 21 44  1  0
 21 45  1  0
 23 46  1  0
 24 47  1  0
M  END
$$$$
