
     RDKit          3D

 54 56  0  0  0  0  0  0  0  0999 V2000
    7.2650    2.1480   -0.3035 C   0  0  0  0  0  0  0  0  0  0  0  0
    5.9407    2.3775   -0.7677 O   0  0  0  0  0  0  0  0  0  0  0  0
    5.1544    1.2754   -0.9616 C   0  0  0  0  0  0  0  0  0  0  0  0
    3.8701    1.5510   -1.4355 C   0  0  0  0  0  0  0  0  0  0  0  0
    2.9611    0.5182   -1.6768 C   0  0  0  0  0  0  0  0  0  0  0  0
    3.3253   -0.8139   -1.4458 C   0  0  0  0  0  0  0  0  0  0  0  0
    2.3411   -1.9335   -1.6892 C   0  0  0  0  0  0  0  0  0  0  0  0
    1.8033   -2.5284   -0.4632 N   0  0  0  0  0  0  0  0  0  0  0  0
    0.9687   -1.6337    0.3453 C   0  0  0  0  0  0  0  0  0  0  0  0
   -0.3652   -1.2720   -0.3232 C   0  0  0  0  0  0  0  0  0  0  0  0
   -1.2253   -0.3264    0.5544 C   0  0  0  0  0  0  0  0  0  0  0  0
   -1.6742   -0.9816    1.8583 C   0  0  0  0  0  0  0  0  0  0  0  0
   -2.4914   -2.1256    1.8603 C   0  0  0  0  0  0  0  0  0  0  0  0
   -2.8914   -2.7104    3.0631 C   0  0  0  0  0  0  0  0  0  0  0  0
   -2.4788   -2.1540    4.2666 C   0  0  0  0  0  0  0  0  0  0  0  0
   -2.8628   -2.7160    5.4203 F   0  0  0  0  0  0  0  0  0  0  0  0
   -1.6744   -1.0221    4.2917 C   0  0  0  0  0  0  0  0  0  0  0  0
   -1.2733   -0.4349    3.0906 C   0  0  0  0  0  0  0  0  0  0  0  0
   -2.4045    0.3058   -0.1869 C   0  0  0  0  0  0  0  0  0  0  0  0
   -3.0696   -0.3313   -1.2429 C   0  0  0  0  0  0  0  0  0  0  0  0
   -4.1518    0.2851   -1.8788 C   0  0  0  0  0  0  0  0  0  0  0  0
   -4.5998    1.5427   -1.4730 C   0  0  0  0  0  0  0  0  0  0  0  0
   -5.6653    2.0270   -2.1800 O   0  0  0  0  0  0  0  0  0  0  0  0
   -6.1696    3.2980   -1.7899 C   0  0  0  0  0  0  0  0  0  0  0  0
   -3.9542    2.1826   -0.4178 C   0  0  0  0  0  0  0  0  0  0  0  0
   -2.8695    1.5682    0.2198 C   0  0  0  0  0  0  0  0  0  0  0  0
    4.6155   -1.0862   -0.9696 C   0  0  0  0  0  0  0  0  0  0  0  0
    5.5243   -0.0490   -0.7295 C   0  0  0  0  0  0  0  0  0  0  0  0
    7.2605    1.6799    0.6864 H   0  0  0  0  0  0  0  0  0  0  0  0
    7.8376    1.5514   -1.0213 H   0  0  0  0  0  0  0  0  0  0  0  0
    7.7593    3.1198   -0.2096 H   0  0  0  0  0  0  0  0  0  0  0  0
    3.5748    2.5812   -1.6193 H   0  0  0  0  0  0  0  0  0  0  0  0
    1.9668    0.7627   -2.0438 H   0  0  0  0  0  0  0  0  0  0  0  0
    2.8607   -2.7229   -2.2474 H   0  0  0  0  0  0  0  0  0  0  0  0
    1.5375   -1.6078   -2.3589 H   0  0  0  0  0  0  0  0  0  0  0  0
    2.5867   -2.8419    0.1088 H   0  0  0  0  0  0  0  0  0  0  0  0
    0.7608   -2.1645    1.2813 H   0  0  0  0  0  0  0  0  0  0  0  0
    1.5193   -0.7294    0.6276 H   0  0  0  0  0  0  0  0  0  0  0  0
   -0.1699   -0.7667   -1.2766 H   0  0  0  0  0  0  0  0  0  0  0  0
   -0.9075   -2.1959   -0.5603 H   0  0  0  0  0  0  0  0  0  0  0  0
   -0.5587    0.5118    0.8088 H   0  0  0  0  0  0  0  0  0  0  0  0
   -2.8278   -2.5665    0.9246 H   0  0  0  0  0  0  0  0  0  0  0  0
   -3.5233   -3.5925    3.0668 H   0  0  0  0  0  0  0  0  0  0  0  0
   -1.3665   -0.6038    5.2444 H   0  0  0  0  0  0  0  0  0  0  0  0
   -0.6449    0.4526    3.1233 H   0  0  0  0  0  0  0  0  0  0  0  0
   -2.7659   -1.3160   -1.5876 H   0  0  0  0  0  0  0  0  0  0  0  0
   -4.6540   -0.2243   -2.6979 H   0  0  0  0  0  0  0  0  0  0  0  0
   -5.4150    4.0801   -1.9238 H   0  0  0  0  0  0  0  0  0  0  0  0
   -7.0152    3.5366   -2.4423 H   0  0  0  0  0  0  0  0  0  0  0  0
   -6.5399    3.2770   -0.7596 H   0  0  0  0  0  0  0  0  0  0  0  0
   -4.2683    3.1575   -0.0609 H   0  0  0  0  0  0  0  0  0  0  0  0
   -2.3892    2.0857    1.0481 H   0  0  0  0  0  0  0  0  0  0  0  0
    4.9229   -2.1132   -0.7840 H   0  0  0  0  0  0  0  0  0  0  0  0
    6.5105   -0.3114   -0.3621 H   0  0  0  0  0  0  0  0  0  0  0  0
  1  2  1  0
  2  3  1  0
  3  4  2  0
  4  5  1  0
  5  6  2  0
  6  7  1  0
  7  8  1  0
  8  9  1  0
  9 10  1  0
 10 11  1  0
 11 12  1  0
 12 13  2  0
 13 14  1  0
 14 15  2  0
 15 16  1  0
 15 17  1  0
 17 18  2  0
 11 19  1  0
 19 20  2  0
 20 21  1  0
 21 22  2  0
 22 23  1  0
 23 24  1  0
 22 25  1  0
 25 26  2  0
  6 27  1  0
 27 28  2  0
 28  3  1  0
 18 12  1  0
 26 19  1  0
  1 29  1  0
  1 30  1  0
  1 31  1  0
  4 32  1  0
  5 33  1  0
  7 34  1  0
  7 35  1  0
  8 36  1  0
  9 37  1  0
  9 38  1  0
 10 39  1  0
 10 40  1  0
 11 41  1  0
 13 42  1  0
 14 43  1  0
 17 44  1  0
 18 45  1  0
 20 46  1  0
 21 47  1  0
 24 48  1  0
 24 49  1  0
 24 50  1  0
 25 51  1  0
 26 52  1  0
 27 53  1  0
 28 54  1  0
M  END
$$$$
