
     RDKit          3D

 47 50  0  0  0  0  0  0  0  0999 V2000
    0.6510   -2.0064    0.5085 C   0  0  0  0  0  0  0  0  0  0  0  0
   -0.2065   -1.8877   -0.7677 C   0  0  0  0  0  0  0  0  0  0  0  0
   -0.5594   -3.3182   -1.2245 C   0  0  0  0  0  0  0  0  0  0  0  0
   -1.5309   -1.1246   -0.4521 C   0  0  0  0  0  0  0  0  0  0  0  0
   -1.3312    0.3552   -0.4596 C   0  0  0  0  0  0  0  0  0  0  0  0
   -0.2302    0.9920   -1.0060 C   0  0  0  0  0  0  0  0  0  0  0  0
   -0.4357    2.3497   -0.7447 C   0  0  0  0  0  0  0  0  0  0  0  0
   -1.5630    2.5695   -0.0742 N   0  0  0  0  0  0  0  0  0  0  0  0
   -2.1593    1.3471    0.0542 N   0  0  0  0  0  0  0  0  0  0  0  0
   -3.4581    1.2792    0.6530 C   0  0  0  0  0  0  0  0  0  0  0  0
   -4.2569    0.1290    0.6102 C   0  0  0  0  0  0  0  0  0  0  0  0
   -5.5204    0.1222    1.2143 C   0  0  0  0  0  0  0  0  0  0  0  0
   -5.9912    1.2619    1.8529 C   0  0  0  0  0  0  0  0  0  0  0  0
   -7.2011    1.2459    2.4265 F   0  0  0  0  0  0  0  0  0  0  0  0
   -5.2265    2.4175    1.8949 C   0  0  0  0  0  0  0  0  0  0  0  0
   -3.9656    2.4289    1.2929 C   0  0  0  0  0  0  0  0  0  0  0  0
    0.9074    0.3077   -1.6779 C   0  0  0  0  0  0  0  0  0  0  0  0
    2.0817    0.4863   -0.8549 N   0  0  0  0  0  0  0  0  0  0  0  0
    3.3603    0.3046   -1.3314 C   0  0  0  0  0  0  0  0  0  0  0  0
    3.6281    0.0475   -2.4986 O   0  0  0  0  0  0  0  0  0  0  0  0
    4.4250    0.4374   -0.2988 C   0  0  0  0  0  0  0  0  0  0  0  0
    5.7589    0.3015   -0.6508 C   0  0  0  0  0  0  0  0  0  0  0  0
    6.7602    0.4122    0.2602 N   0  0  0  0  0  0  0  0  0  0  0  0
    6.3633    0.6641    1.5296 C   0  0  0  0  0  0  0  0  0  0  0  0
    5.0279    0.7986    1.8808 C   0  0  0  0  0  0  0  0  0  0  0  0
    4.0218    0.6883    0.9822 N   0  0  0  0  0  0  0  0  0  0  0  0
    0.5795   -1.1853   -1.9203 C   0  0  0  0  0  0  0  0  0  0  0  0
    0.1614   -2.6487    1.2500 H   0  0  0  0  0  0  0  0  0  0  0  0
    1.6294   -2.4467    0.2865 H   0  0  0  0  0  0  0  0  0  0  0  0
    0.8156   -1.0401    0.9926 H   0  0  0  0  0  0  0  0  0  0  0  0
    0.3453   -3.9027   -1.4268 H   0  0  0  0  0  0  0  0  0  0  0  0
   -1.1593   -3.3062   -2.1415 H   0  0  0  0  0  0  0  0  0  0  0  0
   -1.1364   -3.8477   -0.4580 H   0  0  0  0  0  0  0  0  0  0  0  0
   -1.9139   -1.4624    0.5173 H   0  0  0  0  0  0  0  0  0  0  0  0
   -2.2747   -1.3678   -1.2213 H   0  0  0  0  0  0  0  0  0  0  0  0
    0.2000    3.1899   -0.9952 H   0  0  0  0  0  0  0  0  0  0  0  0
   -3.9613   -0.7722    0.0910 H   0  0  0  0  0  0  0  0  0  0  0  0
   -6.1448   -0.7656    1.1800 H   0  0  0  0  0  0  0  0  0  0  0  0
   -5.6107    3.3028    2.3913 H   0  0  0  0  0  0  0  0  0  0  0  0
   -3.3814    3.3474    1.3388 H   0  0  0  0  0  0  0  0  0  0  0  0
    1.1077    0.7805   -2.6475 H   0  0  0  0  0  0  0  0  0  0  0  0
    1.9874    0.6455    0.1453 H   0  0  0  0  0  0  0  0  0  0  0  0
    6.0646    0.1002   -1.6720 H   0  0  0  0  0  0  0  0  0  0  0  0
    7.1551    0.7561    2.2651 H   0  0  0  0  0  0  0  0  0  0  0  0
    4.7328    1.0007    2.9049 H   0  0  0  0  0  0  0  0  0  0  0  0
    1.4955   -1.7460   -2.1462 H   0  0  0  0  0  0  0  0  0  0  0  0
   -0.0411   -1.2408   -2.8268 H   0  0  0  0  0  0  0  0  0  0  0  0
  1  2  1  0
  2  3  1  0
  2  4  1  0
  4  5  1  0
  5  6  2  0
  6  7  1  0
  7  8  2  0
  8  9  1  0
  9 10  1  0
 10 11  2  0
 11 12  1  0
 12 13  2  0
 13 14  1  0
 13 15  1  0
 15 16  2  0
  6 17  1  0
 17 18  1  0
 18 19  1  0
 19 20  2  0
 19 21  1  0
 21 22  2  0
 22 23  1  0
 23 24  2  0
 24 25  1  0
 25 26  2  0
 17 27  1  0
 27  2  1  0
  9  5  1  0
 16 10  1  0
 26 21  1  0
  1 28  1  0
  1 29  1  0
  1 30  1  0
  3 31  1  0
  3 32  1  0
  3 33  1  0
  4 34  1  0
  4 35  1  0
  7 36  1  0
 11 37  1  0
 12 38  1  0
 15 39  1  0
 16 40  1  0
 17 41  1  0
 18 42  1  0
 22 43  1  0
 24 44  1  0
 25 45  1  0
 27 46  1  0
 27 47  1  0
M  END
$$$$
