
     RDKit          3D

 58 62  0  0  0  0  0  0  0  0999 V2000
    4.3075    0.6990    4.6263 C   0  0  0  0  0  0  0  0  0  0  0  0
    4.4937    0.4658    3.2299 O   0  0  0  0  0  0  0  0  0  0  0  0
    3.6603   -0.4694    2.7115 C   0  0  0  0  0  0  0  0  0  0  0  0
    2.8054   -1.0819    3.3351 O   0  0  0  0  0  0  0  0  0  0  0  0
    3.8930   -0.6662    1.2556 C   0  0  0  0  0  0  0  0  0  0  0  0
    5.0401   -0.2687    0.6856 C   0  0  0  0  0  0  0  0  0  0  0  0
    5.4025   -0.5063   -0.6153 O   0  0  0  0  0  0  0  0  0  0  0  0
    4.7035   -1.6156   -1.2014 C   0  0  0  0  0  0  0  0  0  0  0  0
    5.1731   -1.7440   -2.6480 C   0  0  0  0  0  0  0  0  0  0  0  0
    3.1776   -1.4799   -1.0524 C   0  0  0  0  0  0  0  0  0  0  0  0
    2.5841   -0.2983   -1.8360 C   0  0  0  0  0  0  0  0  0  0  0  0
    1.1096   -0.2952   -1.8140 N   0  0  0  0  0  0  0  0  0  0  0  0
    0.6076    1.0622   -2.1506 C   0  0  0  0  0  0  0  0  0  0  0  0
   -0.9294    1.1389   -2.2897 C   0  0  0  0  0  0  0  0  0  0  0  0
   -1.5597    0.5301   -1.0916 C   0  0  0  0  0  0  0  0  0  0  0  0
   -0.8641   -0.3863   -0.3313 C   0  0  0  0  0  0  0  0  0  0  0  0
   -1.6845   -0.7945    0.6859 N   0  0  0  0  0  0  0  0  0  0  0  0
   -2.8972   -0.1435    0.6003 C   0  0  0  0  0  0  0  0  0  0  0  0
   -4.0239   -0.2322    1.4224 C   0  0  0  0  0  0  0  0  0  0  0  0
   -5.1345    0.5457    1.0723 C   0  0  0  0  0  0  0  0  0  0  0  0
   -6.2461    0.4979    1.8822 O   0  0  0  0  0  0  0  0  0  0  0  0
   -7.0159   -0.6729    1.5835 C   0  0  0  0  0  0  0  0  0  0  0  0
   -5.1253    1.4073   -0.0342 C   0  0  0  0  0  0  0  0  0  0  0  0
   -6.2786    2.1173   -0.2533 O   0  0  0  0  0  0  0  0  0  0  0  0
   -6.3340    2.9294   -1.4128 C   0  0  0  0  0  0  0  0  0  0  0  0
   -3.9755    1.4842   -0.8325 C   0  0  0  0  0  0  0  0  0  0  0  0
   -2.8460    0.6968   -0.5149 C   0  0  0  0  0  0  0  0  0  0  0  0
    0.5318   -0.8764   -0.5735 C   0  0  0  0  0  0  0  0  0  0  0  0
    1.4438   -0.6510    0.6352 C   0  0  0  0  0  0  0  0  0  0  0  0
    2.8080   -1.3564    0.4529 C   0  0  0  0  0  0  0  0  0  0  0  0
    4.5659   -0.1965    5.1979 H   0  0  0  0  0  0  0  0  0  0  0  0
    4.9777    1.5084    4.9289 H   0  0  0  0  0  0  0  0  0  0  0  0
    3.2791    1.0071    4.8352 H   0  0  0  0  0  0  0  0  0  0  0  0
    5.8250    0.2858    1.1880 H   0  0  0  0  0  0  0  0  0  0  0  0
    5.0276   -2.5286   -0.6789 H   0  0  0  0  0  0  0  0  0  0  0  0
    5.0759   -0.7987   -3.1910 H   0  0  0  0  0  0  0  0  0  0  0  0
    6.2387   -1.9971   -2.6718 H   0  0  0  0  0  0  0  0  0  0  0  0
    4.6221   -2.5245   -3.1810 H   0  0  0  0  0  0  0  0  0  0  0  0
    2.7287   -2.4032   -1.4464 H   0  0  0  0  0  0  0  0  0  0  0  0
    2.9833    0.6394   -1.4275 H   0  0  0  0  0  0  0  0  0  0  0  0
    2.8897   -0.3438   -2.8858 H   0  0  0  0  0  0  0  0  0  0  0  0
    0.9344    1.7788   -1.3843 H   0  0  0  0  0  0  0  0  0  0  0  0
    1.0455    1.3857   -3.1034 H   0  0  0  0  0  0  0  0  0  0  0  0
   -1.2466    0.5857   -3.1823 H   0  0  0  0  0  0  0  0  0  0  0  0
   -1.2396    2.1822   -2.4123 H   0  0  0  0  0  0  0  0  0  0  0  0
   -1.4457   -1.4662    1.4028 H   0  0  0  0  0  0  0  0  0  0  0  0
   -4.0433   -0.8711    2.2984 H   0  0  0  0  0  0  0  0  0  0  0  0
   -7.1271   -0.8407    0.5001 H   0  0  0  0  0  0  0  0  0  0  0  0
   -8.0149   -0.5279    2.0083 H   0  0  0  0  0  0  0  0  0  0  0  0
   -6.5651   -1.5551    2.0618 H   0  0  0  0  0  0  0  0  0  0  0  0
   -6.1845    2.3370   -2.3215 H   0  0  0  0  0  0  0  0  0  0  0  0
   -5.6125    3.7497   -1.3530 H   0  0  0  0  0  0  0  0  0  0  0  0
   -7.3358    3.3687   -1.4663 H   0  0  0  0  0  0  0  0  0  0  0  0
   -3.9158    2.1397   -1.6928 H   0  0  0  0  0  0  0  0  0  0  0  0
    0.4499   -1.9600   -0.7405 H   0  0  0  0  0  0  0  0  0  0  0  0
    1.5757    0.4278    0.8037 H   0  0  0  0  0  0  0  0  0  0  0  0
    0.9649   -1.0378    1.5438 H   0  0  0  0  0  0  0  0  0  0  0  0
    2.7200   -2.3806    0.8427 H   0  0  0  0  0  0  0  0  0  0  0  0
  1  2  1  0
  2  3  1  0
  3  4  2  0
  3  5  1  0
  5  6  2  0
  6  7  1  0
  7  8  1  0
  8  9  1  0
  8 10  1  0
 10 11  1  0
 11 12  1  0
 12 13  1  0
 13 14  1  0
 14 15  1  0
 15 16  2  0
 16 17  1  0
 17 18  1  0
 18 19  2  0
 19 20  1  0
 20 21  1  0
 21 22  1  0
 20 23  2  0
 23 24  1  0
 24 25  1  0
 23 26  1  0
 26 27  2  0
 16 28  1  0
 28 29  1  0
 29 30  1  0
 30  5  1  0
 30 10  1  0
 28 12  1  0
 27 15  1  0
 27 18  1  0
  1 31  1  0
  1 32  1  0
  1 33  1  0
  6 34  1  0
  8 35  1  0
  9 36  1  0
  9 37  1  0
  9 38  1  0
 10 39  1  0
 11 40  1  0
 11 41  1  0
 13 42  1  0
 13 43  1  0
 14 44  1  0
 14 45  1  0
 17 46  1  0
 19 47  1  0
 22 48  1  0
 22 49  1  0
 22 50  1  0
 25 51  1  0
 25 52  1  0
 25 53  1  0
 26 54  1  0
 28 55  1  0
 29 56  1  0
 29 57  1  0
 30 58  1  0
M  END
$$$$
