
     RDKit          3D

 42 44  0  0  0  0  0  0  0  0999 V2000
   -4.8636    2.1856    0.0314 C   0  0  0  0  0  0  0  0  0  0  0  0
   -4.7262    0.7000   -0.3481 C   0  0  0  0  0  0  0  0  0  0  0  0
   -5.5391   -0.1341    0.6542 C   0  0  0  0  0  0  0  0  0  0  0  0
   -5.2829    0.5086   -1.7676 C   0  0  0  0  0  0  0  0  0  0  0  0
   -3.3057    0.3464   -0.2914 N   0  0  0  0  0  0  0  0  0  0  0  0
   -2.7682   -0.8989   -0.5655 C   0  0  0  0  0  0  0  0  0  0  0  0
   -3.4326   -1.8747   -0.8987 O   0  0  0  0  0  0  0  0  0  0  0  0
   -1.2964   -0.9218   -0.4104 C   0  0  0  0  0  0  0  0  0  0  0  0
   -0.5909    0.2032   -0.0340 N   0  0  0  0  0  0  0  0  0  0  0  0
    0.6571   -0.2026   -0.0027 C   0  0  0  0  0  0  0  0  0  0  0  0
    1.7758    0.5083    0.3130 N   0  0  0  0  0  0  0  0  0  0  0  0
    2.9117   -0.1276    0.2823 C   0  0  0  0  0  0  0  0  0  0  0  0
    4.1630    0.6077    0.6273 C   0  0  0  0  0  0  0  0  0  0  0  0
    4.2493    1.9683    0.3035 C   0  0  0  0  0  0  0  0  0  0  0  0
    5.4026    2.6926    0.6101 C   0  0  0  0  0  0  0  0  0  0  0  0
    6.4701    2.0651    1.2498 C   0  0  0  0  0  0  0  0  0  0  0  0
    6.3839    0.7159    1.5912 C   0  0  0  0  0  0  0  0  0  0  0  0
    5.2319   -0.0136    1.2858 C   0  0  0  0  0  0  0  0  0  0  0  0
    3.0612   -1.5675   -0.1073 C   0  0  0  0  0  0  0  0  0  0  0  0
    1.9266   -2.2272   -0.4117 C   0  0  0  0  0  0  0  0  0  0  0  0
    1.8796   -3.6483   -0.8232 C   0  0  0  0  0  0  0  0  0  0  0  0
    1.1539   -4.4149    0.0257 F   0  0  0  0  0  0  0  0  0  0  0  0
    1.3824   -3.8161   -2.0719 F   0  0  0  0  0  0  0  0  0  0  0  0
    3.1286   -4.1946   -0.8423 F   0  0  0  0  0  0  0  0  0  0  0  0
    0.7143   -1.5555   -0.3575 N   0  0  0  0  0  0  0  0  0  0  0  0
   -0.5316   -2.0051   -0.6146 N   0  0  0  0  0  0  0  0  0  0  0  0
   -4.2965    2.8230   -0.6573 H   0  0  0  0  0  0  0  0  0  0  0  0
   -4.4765    2.3728    1.0400 H   0  0  0  0  0  0  0  0  0  0  0  0
   -5.9096    2.5110    0.0069 H   0  0  0  0  0  0  0  0  0  0  0  0
   -5.5286   -1.1997    0.4033 H   0  0  0  0  0  0  0  0  0  0  0  0
   -5.1348   -0.0338    1.6681 H   0  0  0  0  0  0  0  0  0  0  0  0
   -6.5872    0.1852    0.6765 H   0  0  0  0  0  0  0  0  0  0  0  0
   -6.3212    0.8526   -1.8350 H   0  0  0  0  0  0  0  0  0  0  0  0
   -4.6932    1.0716   -2.5002 H   0  0  0  0  0  0  0  0  0  0  0  0
   -5.2675   -0.5420   -2.0751 H   0  0  0  0  0  0  0  0  0  0  0  0
   -2.6267    1.0557   -0.0237 H   0  0  0  0  0  0  0  0  0  0  0  0
    3.4205    2.4721   -0.1903 H   0  0  0  0  0  0  0  0  0  0  0  0
    5.4648    3.7476    0.3538 H   0  0  0  0  0  0  0  0  0  0  0  0
    7.3663    2.6315    1.4919 H   0  0  0  0  0  0  0  0  0  0  0  0
    7.2128    0.2348    2.1056 H   0  0  0  0  0  0  0  0  0  0  0  0
    5.1828   -1.0534    1.5955 H   0  0  0  0  0  0  0  0  0  0  0  0
    4.0398   -2.0281   -0.1639 H   0  0  0  0  0  0  0  0  0  0  0  0
  1  2  1  0
  2  3  1  0
  2  4  1  0
  2  5  1  0
  5  6  1  0
  6  7  2  0
  6  8  1  0
  8  9  1  0
  9 10  2  0
 10 11  1  0
 11 12  2  0
 12 13  1  0
 13 14  2  0
 14 15  1  0
 15 16  2  0
 16 17  1  0
 17 18  2  0
 12 19  1  0
 19 20  2  0
 20 21  1  0
 21 22  1  0
 21 23  1  0
 21 24  1  0
 20 25  1  0
 25 26  1  0
 26  8  2  0
 25 10  1  0
 18 13  1  0
  1 27  1  0
  1 28  1  0
  1 29  1  0
  3 30  1  0
  3 31  1  0
  3 32  1  0
  4 33  1  0
  4 34  1  0
  4 35  1  0
  5 36  1  0
 14 37  1  0
 15 38  1  0
 16 39  1  0
 17 40  1  0
 18 41  1  0
 19 42  1  0
M  END
$$$$
