
     RDKit          3D

 46 48  0  0  0  0  0  0  0  0999 V2000
   -3.7412    4.0292   -1.7442 C   0  0  0  0  0  0  0  0  0  0  0  0
   -2.8679    3.9901   -0.5055 C   0  0  0  0  0  0  0  0  0  0  0  0
   -1.6059    3.4222   -0.8663 O   0  0  0  0  0  0  0  0  0  0  0  0
   -0.7402    3.3141    0.1580 C   0  0  0  0  0  0  0  0  0  0  0  0
   -0.9049    3.6176    1.3263 O   0  0  0  0  0  0  0  0  0  0  0  0
    0.5322    2.6678   -0.3111 C   0  0  0  0  0  0  0  0  0  0  0  0
    1.2543    3.1268   -1.2890 N   0  0  0  0  0  0  0  0  0  0  0  0
    2.3604    2.3228   -1.3580 N   0  0  0  0  0  0  0  0  0  0  0  0
    2.3519    1.2557   -0.3489 C   0  0  0  0  0  0  0  0  0  0  0  0
    2.6750   -0.0911   -1.0036 C   0  0  0  0  0  0  0  0  0  0  0  0
    2.7987   -0.2112   -2.2240 O   0  0  0  0  0  0  0  0  0  0  0  0
    2.8568   -1.2915   -0.1344 C   0  0  0  0  0  0  0  0  0  0  0  0
    2.6843   -2.5567   -0.7115 C   0  0  0  0  0  0  0  0  0  0  0  0
    2.8242   -3.7093    0.0625 C   0  0  0  0  0  0  0  0  0  0  0  0
    3.1443   -3.6051    1.4146 C   0  0  0  0  0  0  0  0  0  0  0  0
    3.3281   -2.3500    1.9935 C   0  0  0  0  0  0  0  0  0  0  0  0
    3.1868   -1.1925    1.2231 C   0  0  0  0  0  0  0  0  0  0  0  0
    0.9947    1.4044    0.3542 C   0  0  0  0  0  0  0  0  0  0  0  0
   -0.0110    0.2835    0.2018 C   0  0  0  0  0  0  0  0  0  0  0  0
   -0.5133   -0.0935   -1.0518 C   0  0  0  0  0  0  0  0  0  0  0  0
   -1.4306   -1.1408   -1.1619 C   0  0  0  0  0  0  0  0  0  0  0  0
   -1.8676   -1.8295   -0.0300 C   0  0  0  0  0  0  0  0  0  0  0  0
   -2.7623   -2.8325   -0.2801 O   0  0  0  0  0  0  0  0  0  0  0  0
   -3.2235   -3.5772    0.8398 C   0  0  0  0  0  0  0  0  0  0  0  0
   -1.3800   -1.4564    1.2210 C   0  0  0  0  0  0  0  0  0  0  0  0
   -0.4607   -0.4070    1.3361 C   0  0  0  0  0  0  0  0  0  0  0  0
   -4.7213    4.4577   -1.5174 H   0  0  0  0  0  0  0  0  0  0  0  0
   -3.8807    3.0213   -2.1491 H   0  0  0  0  0  0  0  0  0  0  0  0
   -3.2677    4.6257   -2.5311 H   0  0  0  0  0  0  0  0  0  0  0  0
   -3.3459    3.3733    0.2641 H   0  0  0  0  0  0  0  0  0  0  0  0
   -2.7202    5.0064   -0.1233 H   0  0  0  0  0  0  0  0  0  0  0  0
    2.6912    2.1111   -2.3045 H   0  0  0  0  0  0  0  0  0  0  0  0
    3.1750    1.5205    0.3245 H   0  0  0  0  0  0  0  0  0  0  0  0
    2.4290   -2.6494   -1.7659 H   0  0  0  0  0  0  0  0  0  0  0  0
    2.6823   -4.6870   -0.3916 H   0  0  0  0  0  0  0  0  0  0  0  0
    3.2554   -4.5042    2.0161 H   0  0  0  0  0  0  0  0  0  0  0  0
    3.5872   -2.2749    3.0472 H   0  0  0  0  0  0  0  0  0  0  0  0
    3.3529   -0.2355    1.7067 H   0  0  0  0  0  0  0  0  0  0  0  0
    1.1574    1.6261    1.4165 H   0  0  0  0  0  0  0  0  0  0  0  0
   -0.1924    0.4136   -1.9621 H   0  0  0  0  0  0  0  0  0  0  0  0
   -1.8053   -1.4244   -2.1429 H   0  0  0  0  0  0  0  0  0  0  0  0
   -3.9175   -4.3390    0.4718 H   0  0  0  0  0  0  0  0  0  0  0  0
   -2.3965   -4.0934    1.3387 H   0  0  0  0  0  0  0  0  0  0  0  0
   -3.7714   -2.9381    1.5400 H   0  0  0  0  0  0  0  0  0  0  0  0
   -1.6936   -1.9603    2.1292 H   0  0  0  0  0  0  0  0  0  0  0  0
   -0.1007   -0.1394    2.3280 H   0  0  0  0  0  0  0  0  0  0  0  0
  1  2  1  0
  2  3  1  0
  3  4  1  0
  4  5  2  0
  4  6  1  0
  6  7  2  0
  7  8  1  0
  8  9  1  0
  9 10  1  0
 10 11  2  0
 10 12  1  0
 12 13  2  0
 13 14  1  0
 14 15  2  0
 15 16  1  0
 16 17  2  0
  9 18  1  0
 18 19  1  0
 19 20  2  0
 20 21  1  0
 21 22  2  0
 22 23  1  0
 23 24  1  0
 22 25  1  0
 25 26  2  0
 18  6  1  0
 26 19  1  0
 17 12  1  0
  1 27  1  0
  1 28  1  0
  1 29  1  0
  2 30  1  0
  2 31  1  0
  8 32  1  0
  9 33  1  0
 13 34  1  0
 14 35  1  0
 15 36  1  0
 16 37  1  0
 17 38  1  0
 18 39  1  0
 20 40  1  0
 21 41  1  0
 24 42  1  0
 24 43  1  0
 24 44  1  0
 25 45  1  0
 26 46  1  0
M  END
$$$$
