
     RDKit          3D

 57 61  0  0  0  0  0  0  0  0999 V2000
   -4.3940    3.5881    0.5447 C   0  0  0  0  0  0  0  0  0  0  0  0
   -5.0536    3.2020   -0.7146 N   0  0  0  0  0  0  0  0  0  0  0  0
   -6.3189    2.4768   -0.5081 C   0  0  0  0  0  0  0  0  0  0  0  0
   -4.0559    2.6669   -1.9820 S   0  0  0  0  0  6  0  0  0  0  0  0
   -2.9043    3.5405   -2.0625 O   0  0  0  0  0  0  0  0  0  0  0  0
   -4.8832    2.4140   -3.1424 O   0  0  0  0  0  0  0  0  0  0  0  0
   -3.4691    1.0905   -1.3976 C   0  0  0  0  0  0  0  0  0  0  0  0
   -4.1549   -0.0749   -1.7332 C   0  0  0  0  0  0  0  0  0  0  0  0
   -3.6757   -1.3072   -1.2801 C   0  0  0  0  0  0  0  0  0  0  0  0
   -2.5016   -1.4147   -0.5099 C   0  0  0  0  0  0  0  0  0  0  0  0
   -2.1477   -2.7052   -0.1165 N   0  0  0  0  0  0  0  0  0  0  0  0
   -2.5419   -3.0489    1.2621 C   0  0  0  0  0  0  0  0  0  0  0  0
   -1.5684   -4.1525    1.6597 C   0  0  0  0  0  0  0  0  0  0  0  0
   -0.2884   -3.7312    0.9608 C   0  0  0  0  0  0  0  0  0  0  0  0
   -0.7893   -3.2036   -0.3796 C   0  0  0  0  0  0  0  0  0  0  0  0
   -1.8196   -0.2184   -0.2061 C   0  0  0  0  0  0  0  0  0  0  0  0
   -0.6040   -0.1801    0.6364 C   0  0  0  0  0  0  0  0  0  0  0  0
   -0.7296   -0.3277    1.8436 O   0  0  0  0  0  0  0  0  0  0  0  0
    0.5385    0.0689   -0.0850 N   0  0  0  0  0  0  0  0  0  0  0  0
    1.8184    0.1555    0.3983 C   0  0  0  0  0  0  0  0  0  0  0  0
    2.8241    0.3647   -0.4139 N   0  0  0  0  0  0  0  0  0  0  0  0
    4.0158    0.4102    0.3080 C   0  0  0  0  0  0  0  0  0  0  0  0
    3.8690    0.2251    1.6846 C   0  0  0  0  0  0  0  0  0  0  0  0
    4.9631    0.2390    2.5633 C   0  0  0  0  0  0  0  0  0  0  0  0
    6.2407    0.4459    2.0323 C   0  0  0  0  0  0  0  0  0  0  0  0
    6.4384    0.6361    0.6601 C   0  0  0  0  0  0  0  0  0  0  0  0
    7.7178    0.8445    0.1213 C   0  0  0  0  0  0  0  0  0  0  0  0
    7.8925    1.0331   -1.2528 C   0  0  0  0  0  0  0  0  0  0  0  0
    6.7937    1.0168   -2.1099 C   0  0  0  0  0  0  0  0  0  0  0  0
    5.5133    0.8114   -1.5976 C   0  0  0  0  0  0  0  0  0  0  0  0
    5.3253    0.6200   -0.2148 C   0  0  0  0  0  0  0  0  0  0  0  0
    2.2017   -0.0045    2.0439 S   0  0  0  0  0  0  0  0  0  0  0  0
   -2.2922    1.0273   -0.6515 C   0  0  0  0  0  0  0  0  0  0  0  0
   -5.0767    4.1997    1.1437 H   0  0  0  0  0  0  0  0  0  0  0  0
   -3.5058    4.1974    0.3571 H   0  0  0  0  0  0  0  0  0  0  0  0
   -4.1156    2.7070    1.1295 H   0  0  0  0  0  0  0  0  0  0  0  0
   -6.8318    2.2959   -1.4566 H   0  0  0  0  0  0  0  0  0  0  0  0
   -6.1479    1.5247    0.0021 H   0  0  0  0  0  0  0  0  0  0  0  0
   -6.9935    3.0824    0.1060 H   0  0  0  0  0  0  0  0  0  0  0  0
   -5.0561   -0.0399   -2.3417 H   0  0  0  0  0  0  0  0  0  0  0  0
   -4.2204   -2.2144   -1.5402 H   0  0  0  0  0  0  0  0  0  0  0  0
   -2.4449   -2.2003    1.9481 H   0  0  0  0  0  0  0  0  0  0  0  0
   -3.5776   -3.4031    1.2962 H   0  0  0  0  0  0  0  0  0  0  0  0
   -1.9101   -5.1187    1.2696 H   0  0  0  0  0  0  0  0  0  0  0  0
   -1.4530   -4.2395    2.7435 H   0  0  0  0  0  0  0  0  0  0  0  0
    0.4220   -4.5546    0.8453 H   0  0  0  0  0  0  0  0  0  0  0  0
    0.2050   -2.9339    1.5269 H   0  0  0  0  0  0  0  0  0  0  0  0
   -0.8686   -4.0311   -1.0947 H   0  0  0  0  0  0  0  0  0  0  0  0
   -0.1066   -2.4694   -0.8152 H   0  0  0  0  0  0  0  0  0  0  0  0
    0.4851    0.1775   -1.0891 H   0  0  0  0  0  0  0  0  0  0  0  0
    4.8237    0.0934    3.6306 H   0  0  0  0  0  0  0  0  0  0  0  0
    7.0901    0.4572    2.7136 H   0  0  0  0  0  0  0  0  0  0  0  0
    8.5922    0.8625    0.7681 H   0  0  0  0  0  0  0  0  0  0  0  0
    8.8900    1.1940   -1.6543 H   0  0  0  0  0  0  0  0  0  0  0  0
    6.9332    1.1650   -3.1777 H   0  0  0  0  0  0  0  0  0  0  0  0
    4.6604    0.8014   -2.2733 H   0  0  0  0  0  0  0  0  0  0  0  0
   -1.7530    1.9385   -0.3982 H   0  0  0  0  0  0  0  0  0  0  0  0
  1  2  1  0
  2  3  1  0
  2  4  1  0
  4  5  2  0
  4  6  2  0
  4  7  1  0
  7  8  2  0
  8  9  1  0
  9 10  2  0
 10 11  1  0
 11 12  1  0
 12 13  1  0
 13 14  1  0
 14 15  1  0
 10 16  1  0
 16 17  1  0
 17 18  2  0
 17 19  1  0
 19 20  1  0
 20 21  2  0
 21 22  1  0
 22 23  2  0
 23 24  1  0
 24 25  2  0
 25 26  1  0
 26 27  2  0
 27 28  1  0
 28 29  2  0
 29 30  1  0
 30 31  2  0
 23 32  1  0
 16 33  2  0
 33  7  1  0
 15 11  1  0
 32 20  1  0
 31 22  1  0
 31 26  1  0
  1 34  1  0
  1 35  1  0
  1 36  1  0
  3 37  1  0
  3 38  1  0
  3 39  1  0
  8 40  1  0
  9 41  1  0
 12 42  1  0
 12 43  1  0
 13 44  1  0
 13 45  1  0
 14 46  1  0
 14 47  1  0
 15 48  1  0
 15 49  1  0
 19 50  1  0
 24 51  1  0
 25 52  1  0
 27 53  1  0
 28 54  1  0
 29 55  1  0
 30 56  1  0
 33 57  1  0
M  END
$$$$
