
     RDKit          3D

 46 49  0  0  0  0  0  0  0  0999 V2000
    3.4964    1.8331    1.0547 O   0  0  0  0  0  0  0  0  0  0  0  0
    2.4876    1.6061    0.3910 C   0  0  0  0  0  0  0  0  0  0  0  0
    1.3389    2.6197    0.3276 C   0  0  0  0  0  0  0  0  0  0  0  0
    0.0544    2.0897    0.6561 O   0  0  0  0  0  0  0  0  0  0  0  0
   -0.5800    1.4491   -0.3540 C   0  0  0  0  0  0  0  0  0  0  0  0
   -0.1462    1.2699   -1.4797 O   0  0  0  0  0  0  0  0  0  0  0  0
   -1.9045    1.0087    0.1230 C   0  0  0  0  0  0  0  0  0  0  0  0
   -1.9820   -0.0787    1.0396 C   0  0  0  0  0  0  0  0  0  0  0  0
   -0.8659   -0.8022    1.5328 C   0  0  0  0  0  0  0  0  0  0  0  0
   -1.0135   -1.8574    2.4349 C   0  0  0  0  0  0  0  0  0  0  0  0
   -2.2801   -2.2234    2.8663 C   0  0  0  0  0  0  0  0  0  0  0  0
   -3.3961   -1.5353    2.3934 C   0  0  0  0  0  0  0  0  0  0  0  0
   -3.2623   -0.4706    1.4854 C   0  0  0  0  0  0  0  0  0  0  0  0
   -4.4006    0.2040    1.0177 C   0  0  0  0  0  0  0  0  0  0  0  0
   -4.3163    1.2667    0.1049 C   0  0  0  0  0  0  0  0  0  0  0  0
   -5.4839    1.9104   -0.3398 C   0  0  0  0  0  0  0  0  0  0  0  0
   -5.4224    2.9670   -1.2466 C   0  0  0  0  0  0  0  0  0  0  0  0
   -4.1910    3.3943   -1.7223 C   0  0  0  0  0  0  0  0  0  0  0  0
   -3.0225    2.7649   -1.2884 C   0  0  0  0  0  0  0  0  0  0  0  0
   -3.0547    1.6883   -0.3658 C   0  0  0  0  0  0  0  0  0  0  0  0
    2.3011    0.5058   -0.4187 N   0  0  0  0  0  0  0  0  0  0  0  0
    3.2100   -0.5484   -0.5601 C   0  0  0  0  0  0  0  0  0  0  0  0
    3.3381   -0.9574   -1.8460 N   0  0  0  0  0  0  0  0  0  0  0  0
    4.2212   -1.9476   -2.1127 C   0  0  0  0  0  0  0  0  0  0  0  0
    4.9812   -2.5865   -1.1473 C   0  0  0  0  0  0  0  0  0  0  0  0
    5.9165   -3.6898   -1.5312 C   0  0  0  0  0  0  0  0  0  0  0  0
    5.2891   -4.8947   -1.6030 F   0  0  0  0  0  0  0  0  0  0  0  0
    6.4971   -3.4960   -2.7468 F   0  0  0  0  0  0  0  0  0  0  0  0
    6.9411   -3.8521   -0.6500 F   0  0  0  0  0  0  0  0  0  0  0  0
    4.7834   -2.2025    0.1826 C   0  0  0  0  0  0  0  0  0  0  0  0
    3.8799   -1.1814    0.4925 C   0  0  0  0  0  0  0  0  0  0  0  0
    3.5259   -0.9314    2.1642 Cl  0  0  0  0  0  0  0  0  0  0  0  0
    1.5493    3.4040    1.0632 H   0  0  0  0  0  0  0  0  0  0  0  0
    1.3337    3.1039   -0.6567 H   0  0  0  0  0  0  0  0  0  0  0  0
    0.1451   -0.5516    1.2207 H   0  0  0  0  0  0  0  0  0  0  0  0
   -0.1367   -2.3879    2.7983 H   0  0  0  0  0  0  0  0  0  0  0  0
   -2.4022   -3.0433    3.5691 H   0  0  0  0  0  0  0  0  0  0  0  0
   -4.3807   -1.8408    2.7427 H   0  0  0  0  0  0  0  0  0  0  0  0
   -5.3824   -0.1103    1.3719 H   0  0  0  0  0  0  0  0  0  0  0  0
   -6.4603    1.5902    0.0193 H   0  0  0  0  0  0  0  0  0  0  0  0
   -6.3357    3.4522   -1.5811 H   0  0  0  0  0  0  0  0  0  0  0  0
   -4.1347    4.2149   -2.4331 H   0  0  0  0  0  0  0  0  0  0  0  0
   -2.0777    3.1259   -1.6913 H   0  0  0  0  0  0  0  0  0  0  0  0
    1.7310    0.6538   -1.2508 H   0  0  0  0  0  0  0  0  0  0  0  0
    4.2965   -2.2157   -3.1655 H   0  0  0  0  0  0  0  0  0  0  0  0
    5.3152   -2.7175    0.9814 H   0  0  0  0  0  0  0  0  0  0  0  0
  1  2  2  0
  2  3  1  0
  3  4  1  0
  4  5  1  0
  5  6  2  0
  5  7  1  0
  7  8  1  0
  8  9  2  0
  9 10  1  0
 10 11  2  0
 11 12  1  0
 12 13  2  0
 13 14  1  0
 14 15  2  0
 15 16  1  0
 16 17  2  0
 17 18  1  0
 18 19  2  0
 19 20  1  0
  2 21  1  0
 21 22  1  0
 22 23  2  0
 23 24  1  0
 24 25  2  0
 25 26  1  0
 26 27  1  0
 26 28  1  0
 26 29  1  0
 25 30  1  0
 30 31  2  0
 31 32  1  0
 20  7  2  0
 31 22  1  0
 13  8  1  0
 20 15  1  0
  3 33  1  0
  3 34  1  0
  9 35  1  0
 10 36  1  0
 11 37  1  0
 12 38  1  0
 14 39  1  0
 16 40  1  0
 17 41  1  0
 18 42  1  0
 19 43  1  0
 21 44  1  0
 24 45  1  0
 30 46  1  0
M  END
$$$$
