
     RDKit          3D

 38 40  0  0  0  0  0  0  0  0999 V2000
    2.4167    1.6243    1.3561 O   0  0  0  0  0  0  0  0  0  0  0  0
    2.3039    1.0386    0.2816 C   0  0  0  0  0  0  0  0  0  0  0  0
    1.0735    0.8081   -0.3057 N   0  0  0  0  0  0  0  0  0  0  0  0
   -0.0594    1.0789    0.4932 N   0  0  0  0  0  0  0  0  0  0  0  0
   -1.0324    0.0891    0.5291 C   0  0  0  0  0  0  0  0  0  0  0  0
   -0.9843   -0.8760   -0.2354 O   0  0  0  0  0  0  0  0  0  0  0  0
   -2.1021    0.2847    1.6197 C   0  0  0  0  0  0  0  0  0  0  0  0
   -2.8400    1.6130    1.4783 C   0  0  0  0  0  0  0  0  0  0  0  0
   -3.6415    1.6554    0.2938 O   0  0  0  0  0  0  0  0  0  0  0  0
   -4.3566    0.4974    0.1342 C   0  0  0  0  0  0  0  0  0  0  0  0
   -5.4109    0.5324   -0.7765 C   0  0  0  0  0  0  0  0  0  0  0  0
   -6.1947   -0.6050   -0.9767 C   0  0  0  0  0  0  0  0  0  0  0  0
   -5.9198   -1.7763   -0.2692 C   0  0  0  0  0  0  0  0  0  0  0  0
   -4.8548   -1.8147    0.6324 C   0  0  0  0  0  0  0  0  0  0  0  0
   -4.0657   -0.6822    0.8246 C   0  0  0  0  0  0  0  0  0  0  0  0
   -3.0243   -0.8019    1.7077 O   0  0  0  0  0  0  0  0  0  0  0  0
    3.4996    0.5092   -0.4297 C   0  0  0  0  0  0  0  0  0  0  0  0
    3.4866    0.2337   -1.8053 C   0  0  0  0  0  0  0  0  0  0  0  0
    4.6333   -0.2562   -2.4371 C   0  0  0  0  0  0  0  0  0  0  0  0
    5.8015   -0.4682   -1.7039 C   0  0  0  0  0  0  0  0  0  0  0  0
    5.8183   -0.1812   -0.3323 C   0  0  0  0  0  0  0  0  0  0  0  0
    7.0487   -0.3988    0.4391 N   0  0  0  0  0  4  0  0  0  0  0  0
    8.0605   -0.7554   -0.1810 O   0  0  0  0  0  0  0  0  0  0  0  0
    7.0016   -0.2162    1.6632 O   0  0  0  0  0  1  0  0  0  0  0  0
    4.6741    0.3102    0.3090 C   0  0  0  0  0  0  0  0  0  0  0  0
    0.9441    0.0399   -0.9663 H   0  0  0  0  0  0  0  0  0  0  0  0
    0.1485    1.6314    1.3267 H   0  0  0  0  0  0  0  0  0  0  0  0
   -1.5584    0.2931    2.5729 H   0  0  0  0  0  0  0  0  0  0  0  0
   -3.5010    1.7801    2.3390 H   0  0  0  0  0  0  0  0  0  0  0  0
   -2.1463    2.4586    1.4334 H   0  0  0  0  0  0  0  0  0  0  0  0
   -5.6269    1.4458   -1.3233 H   0  0  0  0  0  0  0  0  0  0  0  0
   -7.0198   -0.5778   -1.6838 H   0  0  0  0  0  0  0  0  0  0  0  0
   -6.5296   -2.6624   -0.4256 H   0  0  0  0  0  0  0  0  0  0  0  0
   -4.6309   -2.7305    1.1723 H   0  0  0  0  0  0  0  0  0  0  0  0
    2.6012    0.4152   -2.4105 H   0  0  0  0  0  0  0  0  0  0  0  0
    4.6178   -0.4663   -3.5052 H   0  0  0  0  0  0  0  0  0  0  0  0
    6.6852   -0.8496   -2.2130 H   0  0  0  0  0  0  0  0  0  0  0  0
    4.6845    0.5385    1.3743 H   0  0  0  0  0  0  0  0  0  0  0  0
  1  2  2  0
  2  3  1  0
  3  4  1  0
  4  5  1  0
  5  6  2  0
  5  7  1  0
  7  8  1  0
  8  9  1  0
  9 10  1  0
 10 11  2  0
 11 12  1  0
 12 13  2  0
 13 14  1  0
 14 15  2  0
 15 16  1  0
  2 17  1  0
 17 18  2  0
 18 19  1  0
 19 20  2  0
 20 21  1  0
 21 22  1  0
 22 23  2  0
 22 24  1  0
 21 25  2  0
 16  7  1  0
 25 17  1  0
 15 10  1  0
  3 26  1  0
  4 27  1  0
  7 28  1  0
  8 29  1  0
  8 30  1  0
 11 31  1  0
 12 32  1  0
 13 33  1  0
 14 34  1  0
 18 35  1  0
 19 36  1  0
 20 37  1  0
 25 38  1  0
M  CHG  2  22   1  24  -1
M  END
$$$$
