
     RDKit          3D

 57 60  0  0  0  0  0  0  0  0999 V2000
   -3.9900   -0.2276    3.5069 C   0  0  0  0  0  0  0  0  0  0  0  0
   -4.1769    0.3115    2.1959 O   0  0  0  0  0  0  0  0  0  0  0  0
   -2.9808    0.6046    1.6034 C   0  0  0  0  0  0  0  0  0  0  0  0
   -2.2723    1.7264    2.0505 C   0  0  0  0  0  0  0  0  0  0  0  0
   -1.0721    2.0913    1.4386 C   0  0  0  0  0  0  0  0  0  0  0  0
   -0.5742    1.3330    0.3758 C   0  0  0  0  0  0  0  0  0  0  0  0
    0.6897    1.7546   -0.2757 C   0  0  0  0  0  0  0  0  0  0  0  0
    0.8460    2.9534   -0.4947 O   0  0  0  0  0  0  0  0  0  0  0  0
    1.6196    0.7797   -0.6380 N   0  0  0  0  0  0  0  0  0  0  0  0
    2.8228    1.2378   -1.3464 C   0  0  0  0  0  0  0  0  0  0  0  0
    3.9649    1.5398   -0.3538 C   0  0  0  0  0  0  0  0  0  0  0  0
    4.2447    0.3453    0.4921 N   0  0  0  0  0  0  0  0  0  0  0  0
    5.2150   -0.5408    0.0159 C   0  0  0  0  0  0  0  0  0  0  0  0
    5.0206   -1.9267   -0.0816 C   0  0  0  0  0  0  0  0  0  0  0  0
    6.0240   -2.7821   -0.5568 C   0  0  0  0  0  0  0  0  0  0  0  0
    7.2601   -2.2711   -0.9333 C   0  0  0  0  0  0  0  0  0  0  0  0
    7.4938   -0.9068   -0.8249 C   0  0  0  0  0  0  0  0  0  0  0  0
    6.4849   -0.0602   -0.3515 C   0  0  0  0  0  0  0  0  0  0  0  0
    3.0350   -0.1607    1.1805 C   0  0  0  0  0  0  0  0  0  0  0  0
    1.8726   -0.4134    0.1908 C   0  0  0  0  0  0  0  0  0  0  0  0
   -1.3023    0.2411   -0.1074 C   0  0  0  0  0  0  0  0  0  0  0  0
   -2.5153   -0.1179    0.5014 C   0  0  0  0  0  0  0  0  0  0  0  0
   -3.3508   -1.5717   -0.0979 S   0  0  0  0  0  6  0  0  0  0  0  0
   -2.3756   -2.3167   -0.8718 O   0  0  0  0  0  0  0  0  0  0  0  0
   -4.0277   -2.2104    1.0102 O   0  0  0  0  0  0  0  0  0  0  0  0
   -4.4972   -0.9877   -1.1753 N   0  0  0  0  0  0  0  0  0  0  0  0
   -4.0775   -0.4091   -2.4670 C   0  0  0  0  0  0  0  0  0  0  0  0
   -5.0551    0.7349   -2.7162 C   0  0  0  0  0  0  0  0  0  0  0  0
   -6.2920    0.3157   -1.9426 C   0  0  0  0  0  0  0  0  0  0  0  0
   -5.6925   -0.2853   -0.6784 C   0  0  0  0  0  0  0  0  0  0  0  0
   -4.9330   -0.6879    3.8163 H   0  0  0  0  0  0  0  0  0  0  0  0
   -3.7510    0.5683    4.2196 H   0  0  0  0  0  0  0  0  0  0  0  0
   -3.2121   -0.9994    3.5235 H   0  0  0  0  0  0  0  0  0  0  0  0
   -2.6611    2.3312    2.8664 H   0  0  0  0  0  0  0  0  0  0  0  0
   -0.5308    2.9701    1.7841 H   0  0  0  0  0  0  0  0  0  0  0  0
    2.5982    2.1270   -1.9447 H   0  0  0  0  0  0  0  0  0  0  0  0
    3.1181    0.4396   -2.0376 H   0  0  0  0  0  0  0  0  0  0  0  0
    4.8419    1.8938   -0.9045 H   0  0  0  0  0  0  0  0  0  0  0  0
    3.6647    2.3592    0.3113 H   0  0  0  0  0  0  0  0  0  0  0  0
    4.0773   -2.3848    0.1950 H   0  0  0  0  0  0  0  0  0  0  0  0
    5.8337   -3.8498   -0.6280 H   0  0  0  0  0  0  0  0  0  0  0  0
    8.0401   -2.9339   -1.2972 H   0  0  0  0  0  0  0  0  0  0  0  0
    8.4626   -0.4953   -1.0944 H   0  0  0  0  0  0  0  0  0  0  0  0
    6.7204    0.9949   -0.2370 H   0  0  0  0  0  0  0  0  0  0  0  0
    3.2447   -1.0536    1.7799 H   0  0  0  0  0  0  0  0  0  0  0  0
    2.7197    0.6096    1.8966 H   0  0  0  0  0  0  0  0  0  0  0  0
    2.1137   -1.2324   -0.4951 H   0  0  0  0  0  0  0  0  0  0  0  0
    0.9891   -0.7046    0.7617 H   0  0  0  0  0  0  0  0  0  0  0  0
   -0.9239   -0.3218   -0.9589 H   0  0  0  0  0  0  0  0  0  0  0  0
   -3.0484   -0.0431   -2.4644 H   0  0  0  0  0  0  0  0  0  0  0  0
   -4.1753   -1.1780   -3.2406 H   0  0  0  0  0  0  0  0  0  0  0  0
   -4.6528    1.6672   -2.3013 H   0  0  0  0  0  0  0  0  0  0  0  0
   -5.2512    0.8928   -3.7804 H   0  0  0  0  0  0  0  0  0  0  0  0
   -6.9649    1.1514   -1.7316 H   0  0  0  0  0  0  0  0  0  0  0  0
   -6.8480   -0.4460   -2.5021 H   0  0  0  0  0  0  0  0  0  0  0  0
   -5.4237    0.5185    0.0099 H   0  0  0  0  0  0  0  0  0  0  0  0
   -6.3895   -0.9738   -0.1944 H   0  0  0  0  0  0  0  0  0  0  0  0
  1  2  1  0
  2  3  1  0
  3  4  2  0
  4  5  1  0
  5  6  2  0
  6  7  1  0
  7  8  2  0
  7  9  1  0
  9 10  1  0
 10 11  1  0
 11 12  1  0
 12 13  1  0
 13 14  2  0
 14 15  1  0
 15 16  2  0
 16 17  1  0
 17 18  2  0
 12 19  1  0
 19 20  1  0
  6 21  1  0
 21 22  2  0
 22 23  1  0
 23 24  2  0
 23 25  2  0
 23 26  1  0
 26 27  1  0
 27 28  1  0
 28 29  1  0
 29 30  1  0
 22  3  1  0
 30 26  1  0
 20  9  1  0
 18 13  1  0
  1 31  1  0
  1 32  1  0
  1 33  1  0
  4 34  1  0
  5 35  1  0
 10 36  1  0
 10 37  1  0
 11 38  1  0
 11 39  1  0
 14 40  1  0
 15 41  1  0
 16 42  1  0
 17 43  1  0
 18 44  1  0
 19 45  1  0
 19 46  1  0
 20 47  1  0
 20 48  1  0
 21 49  1  0
 27 50  1  0
 27 51  1  0
 28 52  1  0
 28 53  1  0
 29 54  1  0
 29 55  1  0
 30 56  1  0
 30 57  1  0
M  END
$$$$
