
     RDKit          3D

 50 53  0  0  0  0  0  0  0  0999 V2000
   -8.3942   -0.0937    1.5275 C   0  0  0  0  0  0  0  0  0  0  0  0
   -7.0011    0.3207    1.1523 C   0  0  0  0  0  0  0  0  0  0  0  0
   -5.9988   -0.6409    0.9899 C   0  0  0  0  0  0  0  0  0  0  0  0
   -4.7012   -0.2689    0.6168 C   0  0  0  0  0  0  0  0  0  0  0  0
   -4.3889    1.0705    0.3855 C   0  0  0  0  0  0  0  0  0  0  0  0
   -3.1101    1.5335   -0.0021 N   0  0  0  0  0  0  0  0  0  0  0  0
   -1.9693    0.7720   -0.2116 C   0  0  0  0  0  0  0  0  0  0  0  0
   -1.8717   -0.4463   -0.0795 O   0  0  0  0  0  0  0  0  0  0  0  0
   -0.7699    1.6079   -0.6826 C   0  0  0  0  0  0  0  0  0  0  0  0
    0.4801    0.8348   -0.6920 N   0  0  0  0  0  4  0  0  0  0  0  0
    1.6071    1.0498    0.1006 C   0  0  0  0  0  0  0  0  0  0  0  0
    2.5569    0.0748   -0.1866 C   0  0  0  0  0  0  0  0  0  0  0  0
    3.9701   -0.0769    0.4840 C   0  0  0  0  0  0  0  0  0  0  0  0
    4.4095    0.8800    1.4071 C   0  0  0  0  0  0  0  0  0  0  0  0
    5.6704    0.7585    2.0006 C   0  0  0  0  0  0  0  0  0  0  0  0
    6.5059   -0.3154    1.6785 C   0  0  0  0  0  0  0  0  0  0  0  0
    7.8507   -0.4666    2.3266 C   0  0  0  0  0  0  0  0  0  0  0  0
    6.0530   -1.2797    0.7724 C   0  0  0  0  0  0  0  0  0  0  0  0
    4.7938   -1.1606    0.1754 C   0  0  0  0  0  0  0  0  0  0  0  0
    1.9475   -0.6812   -1.1701 N   0  0  0  0  0  0  0  0  0  0  0  0
    0.7125   -0.2533   -1.4229 C   0  0  0  0  0  0  0  0  0  0  0  0
    0.0195   -1.0647   -2.4523 C   0  0  0  0  0  0  0  0  0  0  0  0
    1.1852   -1.8694   -3.0623 C   0  0  0  0  0  0  0  0  0  0  0  0
    2.2958   -1.8423   -1.9776 C   0  0  0  0  0  0  0  0  0  0  0  0
   -5.3970    2.0328    0.5377 C   0  0  0  0  0  0  0  0  0  0  0  0
   -6.6927    1.6612    0.9128 C   0  0  0  0  0  0  0  0  0  0  0  0
   -8.3692   -0.8734    2.2970 H   0  0  0  0  0  0  0  0  0  0  0  0
   -8.9644    0.7479    1.9348 H   0  0  0  0  0  0  0  0  0  0  0  0
   -8.9190   -0.4765    0.6456 H   0  0  0  0  0  0  0  0  0  0  0  0
   -6.2190   -1.6933    1.1664 H   0  0  0  0  0  0  0  0  0  0  0  0
   -3.9620   -1.0586    0.5285 H   0  0  0  0  0  0  0  0  0  0  0  0
   -3.0504    2.5369   -0.1340 H   0  0  0  0  0  0  0  0  0  0  0  0
   -0.6467    2.4712   -0.0203 H   0  0  0  0  0  0  0  0  0  0  0  0
   -0.9587    1.9599   -1.7014 H   0  0  0  0  0  0  0  0  0  0  0  0
    1.5878    1.8741    0.7945 H   0  0  0  0  0  0  0  0  0  0  0  0
    3.8029    1.7364    1.6864 H   0  0  0  0  0  0  0  0  0  0  0  0
    5.9986    1.5110    2.7173 H   0  0  0  0  0  0  0  0  0  0  0  0
    8.6039   -0.7501    1.5827 H   0  0  0  0  0  0  0  0  0  0  0  0
    7.8097   -1.2340    3.1057 H   0  0  0  0  0  0  0  0  0  0  0  0
    8.1815    0.4733    2.7823 H   0  0  0  0  0  0  0  0  0  0  0  0
    6.6831   -2.1345    0.5303 H   0  0  0  0  0  0  0  0  0  0  0  0
    4.4889   -1.9391   -0.5110 H   0  0  0  0  0  0  0  0  0  0  0  0
   -0.6888   -1.7113   -1.9319 H   0  0  0  0  0  0  0  0  0  0  0  0
   -0.4732   -0.4004   -3.1632 H   0  0  0  0  0  0  0  0  0  0  0  0
    0.8992   -2.8838   -3.3549 H   0  0  0  0  0  0  0  0  0  0  0  0
    1.5487   -1.3507   -3.9578 H   0  0  0  0  0  0  0  0  0  0  0  0
    2.2561   -2.7346   -1.3461 H   0  0  0  0  0  0  0  0  0  0  0  0
    3.2827   -1.7258   -2.4304 H   0  0  0  0  0  0  0  0  0  0  0  0
   -5.1988    3.0891    0.3737 H   0  0  0  0  0  0  0  0  0  0  0  0
   -7.4560    2.4298    1.0277 H   0  0  0  0  0  0  0  0  0  0  0  0
  1  2  1  0
  2  3  2  0
  3  4  1  0
  4  5  2  0
  5  6  1  0
  6  7  1  0
  7  8  2  0
  7  9  1  0
  9 10  1  0
 10 11  1  0
 11 12  2  0
 12 13  1  0
 13 14  2  0
 14 15  1  0
 15 16  2  0
 16 17  1  0
 16 18  1  0
 18 19  2  0
 12 20  1  0
 20 21  1  0
 21 22  1  0
 22 23  1  0
 23 24  1  0
  5 25  1  0
 25 26  2  0
 26  2  1  0
 21 10  2  0
 19 13  1  0
 24 20  1  0
  1 27  1  0
  1 28  1  0
  1 29  1  0
  3 30  1  0
  4 31  1  0
  6 32  1  0
  9 33  1  0
  9 34  1  0
 11 35  1  0
 14 36  1  0
 15 37  1  0
 17 38  1  0
 17 39  1  0
 17 40  1  0
 18 41  1  0
 19 42  1  0
 22 43  1  0
 22 44  1  0
 23 45  1  0
 23 46  1  0
 24 47  1  0
 24 48  1  0
 25 49  1  0
 26 50  1  0
M  CHG  1  10   1
M  END
$$$$
