
     RDKit          3D

 58 60  0  0  0  0  0  0  0  0999 V2000
    8.9230    0.3816    0.0991 C   0  0  0  0  0  0  0  0  0  0  0  0
    7.7018    0.7388   -0.7353 C   0  0  0  0  0  0  0  0  0  0  0  0
    6.4453   -0.0318   -0.3313 C   0  0  0  0  0  0  0  0  0  0  0  0
    5.9118    0.3566    1.0466 C   0  0  0  0  0  0  0  0  0  0  0  0
    4.7324   -0.3890    1.3570 O   0  0  0  0  0  0  0  0  0  0  0  0
    3.5141    0.1221    1.0087 C   0  0  0  0  0  0  0  0  0  0  0  0
    3.2844    1.2489    0.2220 C   0  0  0  0  0  0  0  0  0  0  0  0
    1.9735    1.6516   -0.0638 C   0  0  0  0  0  0  0  0  0  0  0  0
    0.8816    0.9302    0.4344 C   0  0  0  0  0  0  0  0  0  0  0  0
   -0.5043    1.3788    0.1029 C   0  0  0  0  0  0  0  0  0  0  0  0
   -0.6834    2.3968   -0.5555 O   0  0  0  0  0  0  0  0  0  0  0  0
   -1.5232    0.6071    0.6043 N   0  0  0  0  0  0  0  0  0  0  0  0
   -2.5071    0.3145   -0.1954 C   0  0  0  0  0  0  0  0  0  0  0  0
   -3.7054   -0.4812    0.2696 C   0  0  0  0  0  0  0  0  0  0  0  0
   -3.4424   -1.3387    1.4864 C   0  0  0  0  0  0  0  0  0  0  0  0
   -3.7748   -0.8701    2.7675 C   0  0  0  0  0  0  0  0  0  0  0  0
   -3.5034   -1.6434    3.8986 C   0  0  0  0  0  0  0  0  0  0  0  0
   -2.8871   -2.8917    3.7485 C   0  0  0  0  0  0  0  0  0  0  0  0
   -2.5924   -3.7058    4.9342 N   0  0  0  0  0  4  0  0  0  0  0  0
   -2.9703   -3.2798    6.0351 O   0  0  0  0  0  0  0  0  0  0  0  0
   -1.9826   -4.7722    4.7653 O   0  0  0  0  0  1  0  0  0  0  0  0
   -2.5442   -3.3684    2.4766 C   0  0  0  0  0  0  0  0  0  0  0  0
   -2.8230   -2.5906    1.3505 C   0  0  0  0  0  0  0  0  0  0  0  0
   -2.5715    0.7439   -1.6481 C   0  0  0  0  0  0  0  0  0  0  0  0
   -1.8782    0.2233   -2.5009 O   0  0  0  0  0  0  0  0  0  0  0  0
   -3.4927    1.7119   -1.7708 O   0  0  0  0  0  0  0  0  0  0  0  0
   -3.6109    2.2767   -3.0814 C   0  0  0  0  0  0  0  0  0  0  0  0
   -4.8523    1.7270   -3.6794 C   0  0  0  0  0  0  0  0  0  0  0  0
   -5.1596    0.5265   -4.2876 C   0  0  0  0  0  0  0  0  0  0  0  0
   -6.5279    0.6022   -4.6473 C   0  0  0  0  0  0  0  0  0  0  0  0
   -6.9642    1.8418   -4.2429 C   0  0  0  0  0  0  0  0  0  0  0  0
   -5.9554    2.5311   -3.6514 O   0  0  0  0  0  0  0  0  0  0  0  0
    1.1125   -0.2021    1.2207 C   0  0  0  0  0  0  0  0  0  0  0  0
    2.4229   -0.6009    1.5004 C   0  0  0  0  0  0  0  0  0  0  0  0
    8.7866    0.6515    1.1516 H   0  0  0  0  0  0  0  0  0  0  0  0
    9.1343   -0.6924    0.0432 H   0  0  0  0  0  0  0  0  0  0  0  0
    9.8025    0.9197   -0.2717 H   0  0  0  0  0  0  0  0  0  0  0  0
    7.5160    1.8186   -0.6711 H   0  0  0  0  0  0  0  0  0  0  0  0
    7.9250    0.5185   -1.7867 H   0  0  0  0  0  0  0  0  0  0  0  0
    5.6705    0.1413   -1.0882 H   0  0  0  0  0  0  0  0  0  0  0  0
    6.6392   -1.1107   -0.3550 H   0  0  0  0  0  0  0  0  0  0  0  0
    6.6462    0.0813    1.8126 H   0  0  0  0  0  0  0  0  0  0  0  0
    5.7599    1.4369    1.1526 H   0  0  0  0  0  0  0  0  0  0  0  0
    4.0965    1.8333   -0.1977 H   0  0  0  0  0  0  0  0  0  0  0  0
    1.8116    2.5310   -0.6832 H   0  0  0  0  0  0  0  0  0  0  0  0
   -4.5221    0.2217    0.4721 H   0  0  0  0  0  0  0  0  0  0  0  0
   -4.0468   -1.1235   -0.5513 H   0  0  0  0  0  0  0  0  0  0  0  0
   -4.2391    0.1070    2.8935 H   0  0  0  0  0  0  0  0  0  0  0  0
   -3.7712   -1.2583    4.8798 H   0  0  0  0  0  0  0  0  0  0  0  0
   -2.0612   -4.3355    2.3469 H   0  0  0  0  0  0  0  0  0  0  0  0
   -2.5467   -2.9658    0.3656 H   0  0  0  0  0  0  0  0  0  0  0  0
   -3.6760    3.3637   -2.9705 H   0  0  0  0  0  0  0  0  0  0  0  0
   -2.7421    2.0698   -3.7189 H   0  0  0  0  0  0  0  0  0  0  0  0
   -4.4759   -0.2981   -4.4519 H   0  0  0  0  0  0  0  0  0  0  0  0
   -7.1222   -0.1493   -5.1464 H   0  0  0  0  0  0  0  0  0  0  0  0
   -7.9139    2.3592   -4.2981 H   0  0  0  0  0  0  0  0  0  0  0  0
    0.2872   -0.7823    1.6245 H   0  0  0  0  0  0  0  0  0  0  0  0
    2.5951   -1.4834    2.1112 H   0  0  0  0  0  0  0  0  0  0  0  0
  1  2  1  0
  2  3  1  0
  3  4  1  0
  4  5  1  0
  5  6  1  0
  6  7  2  0
  7  8  1  0
  8  9  2  0
  9 10  1  0
 10 11  2  0
 10 12  1  0
 12 13  2  3
 13 14  1  0
 14 15  1  0
 15 16  2  0
 16 17  1  0
 17 18  2  0
 18 19  1  0
 19 20  2  0
 19 21  1  0
 18 22  1  0
 22 23  2  0
 13 24  1  0
 24 25  2  0
 24 26  1  0
 26 27  1  0
 27 28  1  0
 28 29  2  0
 29 30  1  0
 30 31  2  0
 31 32  1  0
  9 33  1  0
 33 34  2  0
 34  6  1  0
 23 15  1  0
 32 28  1  0
  1 35  1  0
  1 36  1  0
  1 37  1  0
  2 38  1  0
  2 39  1  0
  3 40  1  0
  3 41  1  0
  4 42  1  0
  4 43  1  0
  7 44  1  0
  8 45  1  0
 14 46  1  0
 14 47  1  0
 16 48  1  0
 17 49  1  0
 22 50  1  0
 23 51  1  0
 27 52  1  0
 27 53  1  0
 29 54  1  0
 30 55  1  0
 31 56  1  0
 33 57  1  0
 34 58  1  0
M  CHG  2  19   1  21  -1
M  END
$$$$
