
     RDKit          3D

 56 60  0  0  0  0  0  0  0  0999 V2000
   -0.1549   -0.3754   -0.5686 C   0  0  0  0  0  0  0  0  0  0  0  0
   -0.4856   -0.2164    0.7206 C   0  0  0  0  0  0  0  0  0  0  0  0
    0.3904    0.2258    1.8240 C   0  0  0  0  0  0  0  0  0  0  0  0
    1.6142    0.7812    1.8408 C   0  0  0  0  0  0  0  0  0  0  0  0
    2.4818    1.1522    0.7350 C   0  0  0  0  0  0  0  0  0  0  0  0
    2.1991    2.0974   -0.1704 C   0  0  0  0  0  0  0  0  0  0  0  0
    1.0539    2.8423   -0.2311 O   0  0  0  0  0  0  0  0  0  0  0  0
    3.0695    2.4162   -1.1483 N   0  0  0  0  0  0  0  0  0  0  0  0
    4.3090    1.8735   -1.3197 C   0  0  0  0  0  0  0  0  0  0  0  0
    5.0002    2.3281   -2.2316 O   0  0  0  0  0  0  0  0  0  0  0  0
    4.6801    0.8830   -0.4051 N   0  0  0  0  0  0  0  0  0  0  0  0
    5.9815    0.2578   -0.5372 C   0  0  0  0  0  0  0  0  0  0  0  0
    6.7127   -0.1657    0.5873 C   0  0  0  0  0  0  0  0  0  0  0  0
    7.9698   -0.7715    0.4588 C   0  0  0  0  0  0  0  0  0  0  0  0
    8.5207   -0.9651   -0.8017 C   0  0  0  0  0  0  0  0  0  0  0  0
   10.0624   -1.7086   -0.9621 Cl  0  0  0  0  0  0  0  0  0  0  0  0
    7.8245   -0.5572   -1.9325 C   0  0  0  0  0  0  0  0  0  0  0  0
    6.5678    0.0481   -1.7990 C   0  0  0  0  0  0  0  0  0  0  0  0
    3.8294    0.4879    0.6371 C   0  0  0  0  0  0  0  0  0  0  0  0
    4.0789   -0.3948    1.4631 O   0  0  0  0  0  0  0  0  0  0  0  0
   -0.3508    0.0268    3.0665 C   0  0  0  0  0  0  0  0  0  0  0  0
   -1.5861   -0.3947    2.7333 C   0  0  0  0  0  0  0  0  0  0  0  0
   -2.6919   -0.6512    3.7012 C   0  0  0  0  0  0  0  0  0  0  0  0
   -1.7201   -0.5284    1.3324 N   0  0  0  0  0  0  0  0  0  0  0  0
   -2.8977   -0.7568    0.6682 C   0  0  0  0  0  0  0  0  0  0  0  0
   -3.6929   -2.2853    0.7232 S   0  0  0  0  0  0  0  0  0  0  0  0
   -4.9345   -1.7628   -0.3097 C   0  0  0  0  0  0  0  0  0  0  0  0
   -4.7891   -0.4455   -0.6971 C   0  0  0  0  0  0  0  0  0  0  0  0
   -3.6051    0.1310   -0.1312 C   0  0  0  0  0  0  0  0  0  0  0  0
   -3.1794    1.4858   -0.3359 C   0  0  0  0  0  0  0  0  0  0  0  0
   -2.8347    2.5822   -0.5013 N   0  0  0  0  0  0  0  0  0  0  0  0
   -5.7705    0.2220   -1.6186 C   0  0  0  0  0  0  0  0  0  0  0  0
   -7.0849   -0.5675   -1.7241 C   0  0  0  0  0  0  0  0  0  0  0  0
   -6.8313   -2.0716   -1.8980 C   0  0  0  0  0  0  0  0  0  0  0  0
   -6.0682   -2.6607   -0.7018 C   0  0  0  0  0  0  0  0  0  0  0  0
   -0.8709   -0.7606   -1.2871 H   0  0  0  0  0  0  0  0  0  0  0  0
    0.8350   -0.1828   -0.9569 H   0  0  0  0  0  0  0  0  0  0  0  0
    2.0758    0.9799    2.8099 H   0  0  0  0  0  0  0  0  0  0  0  0
    0.4171    2.5275    0.4355 H   0  0  0  0  0  0  0  0  0  0  0  0
    2.8080    3.1504   -1.7952 H   0  0  0  0  0  0  0  0  0  0  0  0
    6.3399   -0.0088    1.5968 H   0  0  0  0  0  0  0  0  0  0  0  0
    8.5082   -1.0829    1.3502 H   0  0  0  0  0  0  0  0  0  0  0  0
    8.2447   -0.7069   -2.9237 H   0  0  0  0  0  0  0  0  0  0  0  0
    6.0501    0.3225   -2.7156 H   0  0  0  0  0  0  0  0  0  0  0  0
    0.0170    0.2251    4.0607 H   0  0  0  0  0  0  0  0  0  0  0  0
   -2.3981   -0.3807    4.7212 H   0  0  0  0  0  0  0  0  0  0  0  0
   -2.9635   -1.7109    3.7090 H   0  0  0  0  0  0  0  0  0  0  0  0
   -3.5772   -0.0593    3.4483 H   0  0  0  0  0  0  0  0  0  0  0  0
   -5.9881    1.2398   -1.2757 H   0  0  0  0  0  0  0  0  0  0  0  0
   -5.3141    0.3001   -2.6132 H   0  0  0  0  0  0  0  0  0  0  0  0
   -7.6727   -0.1866   -2.5668 H   0  0  0  0  0  0  0  0  0  0  0  0
   -7.6830   -0.4075   -0.8177 H   0  0  0  0  0  0  0  0  0  0  0  0
   -6.2544   -2.2334   -2.8177 H   0  0  0  0  0  0  0  0  0  0  0  0
   -7.7831   -2.6007   -2.0201 H   0  0  0  0  0  0  0  0  0  0  0  0
   -6.7517   -2.7613    0.1504 H   0  0  0  0  0  0  0  0  0  0  0  0
   -5.7074   -3.6632   -0.9583 H   0  0  0  0  0  0  0  0  0  0  0  0
  1  2  2  0
  2  3  1  0
  3  4  2  3
  4  5  1  0
  5  6  2  0
  6  7  1  0
  6  8  1  0
  8  9  1  0
  9 10  2  0
  9 11  1  0
 11 12  1  0
 12 13  2  0
 13 14  1  0
 14 15  2  0
 15 16  1  0
 15 17  1  0
 17 18  2  0
 11 19  1  0
 19 20  2  0
  3 21  1  0
 21 22  2  0
 22 23  1  0
 22 24  1  0
 24 25  1  0
 25 26  1  0
 26 27  1  0
 27 28  2  0
 28 29  1  0
 29 30  1  0
 30 31  3  0
 28 32  1  0
 32 33  1  0
 33 34  1  0
 34 35  1  0
 24  2  1  0
 29 25  2  0
 19  5  1  0
 35 27  1  0
 18 12  1  0
  1 36  1  0
  1 37  1  0
  4 38  1  0
  7 39  1  0
  8 40  1  0
 13 41  1  0
 14 42  1  0
 17 43  1  0
 18 44  1  0
 21 45  1  0
 23 46  1  0
 23 47  1  0
 23 48  1  0
 32 49  1  0
 32 50  1  0
 33 51  1  0
 33 52  1  0
 34 53  1  0
 34 54  1  0
 35 55  1  0
 35 56  1  0
M  END
$$$$
