
     RDKit          3D

 37 37  0  0  0  0  0  0  0  0999 V2000
   -4.5252    1.4380   -0.0589 C   0  0  0  0  0  0  0  0  0  0  0  0
   -3.9063    0.2515   -0.7819 C   0  0  0  0  0  0  0  0  0  0  0  0
   -2.9277   -0.4413    0.0676 N   0  0  0  0  0  0  0  0  0  0  0  0
   -3.4609   -1.4794    0.9630 C   0  0  0  0  0  0  0  0  0  0  0  0
   -3.4054   -1.0475    2.4224 C   0  0  0  0  0  0  0  0  0  0  0  0
   -1.5671   -0.1622   -0.0122 C   0  0  0  0  0  0  0  0  0  0  0  0
   -1.0767    1.0020   -0.6332 C   0  0  0  0  0  0  0  0  0  0  0  0
    0.2930    1.2935   -0.7191 C   0  0  0  0  0  0  0  0  0  0  0  0
    1.2212    0.4123   -0.1761 C   0  0  0  0  0  0  0  0  0  0  0  0
    2.6589    0.7302   -0.2732 C   0  0  0  0  0  0  0  0  0  0  0  0
    3.5628   -0.0525    0.2094 N   0  0  0  0  0  0  0  0  0  0  0  0
    4.9561    0.3990    0.0359 C   0  0  0  0  0  0  0  0  0  0  0  0
    5.7615   -0.1285    1.1497 C   0  0  0  0  0  0  0  0  0  0  0  0
    6.4280   -0.5087    2.0212 N   0  0  0  0  0  0  0  0  0  0  0  0
    5.4734   -0.1078   -1.2849 C   0  0  0  0  0  0  0  0  0  0  0  0
    5.7492    0.6232   -2.3222 N   0  0  0  0  0  0  0  0  0  0  0  0
    5.6611   -1.5264   -1.5040 C   0  0  0  0  0  0  0  0  0  0  0  0
    5.8105   -2.6674   -1.6673 N   0  0  0  0  0  0  0  0  0  0  0  0
    0.7812   -0.7492    0.4480 C   0  0  0  0  0  0  0  0  0  0  0  0
   -0.5921   -1.0230    0.5248 C   0  0  0  0  0  0  0  0  0  0  0  0
   -3.7654    2.1506    0.2760 H   0  0  0  0  0  0  0  0  0  0  0  0
   -5.2179    1.9646   -0.7228 H   0  0  0  0  0  0  0  0  0  0  0  0
   -5.0885    1.1123    0.8212 H   0  0  0  0  0  0  0  0  0  0  0  0
   -4.7065   -0.4428   -1.0682 H   0  0  0  0  0  0  0  0  0  0  0  0
   -3.4658    0.5691   -1.7341 H   0  0  0  0  0  0  0  0  0  0  0  0
   -4.5105   -1.6854    0.7180 H   0  0  0  0  0  0  0  0  0  0  0  0
   -2.9447   -2.4345    0.8161 H   0  0  0  0  0  0  0  0  0  0  0  0
   -2.3790   -0.8866    2.7642 H   0  0  0  0  0  0  0  0  0  0  0  0
   -3.9572   -0.1157    2.5805 H   0  0  0  0  0  0  0  0  0  0  0  0
   -3.8528   -1.8175    3.0590 H   0  0  0  0  0  0  0  0  0  0  0  0
   -1.7591    1.7339   -1.0556 H   0  0  0  0  0  0  0  0  0  0  0  0
    0.6050    2.2114   -1.2090 H   0  0  0  0  0  0  0  0  0  0  0  0
    2.9169    1.6751   -0.7861 H   0  0  0  0  0  0  0  0  0  0  0  0
    5.0204    1.4945    0.0476 H   0  0  0  0  0  0  0  0  0  0  0  0
    5.5948    1.6198   -2.1408 H   0  0  0  0  0  0  0  0  0  0  0  0
    1.4890   -1.4542    0.8779 H   0  0  0  0  0  0  0  0  0  0  0  0
   -0.8742   -1.9505    1.0140 H   0  0  0  0  0  0  0  0  0  0  0  0
  1  2  1  0
  2  3  1  0
  3  4  1  0
  4  5  1  0
  3  6  1  0
  6  7  2  0
  7  8  1  0
  8  9  2  0
  9 10  1  0
 10 11  2  3
 11 12  1  0
 12 13  1  0
 13 14  3  0
 12 15  1  0
 15 16  2  3
 15 17  1  0
 17 18  3  0
  9 19  1  0
 19 20  2  0
 20  6  1  0
  1 21  1  0
  1 22  1  0
  1 23  1  0
  2 24  1  0
  2 25  1  0
  4 26  1  0
  4 27  1  0
  5 28  1  0
  5 29  1  0
  5 30  1  0
  7 31  1  0
  8 32  1  0
 10 33  1  0
 12 34  1  0
 16 35  1  0
 19 36  1  0
 20 37  1  0
M  END
$$$$
