
     RDKit          3D

 43 46  0  0  0  0  0  0  0  0999 V2000
   -4.4244   -2.9923   -0.2625 C   0  0  0  0  0  0  0  0  0  0  0  0
   -3.9996   -1.7439   -0.8782 N   0  0  0  0  0  0  0  0  0  0  0  0
   -4.9789   -0.9460   -1.4669 C   0  0  0  0  0  0  0  0  0  0  0  0
   -6.1724   -1.2370   -1.4829 O   0  0  0  0  0  0  0  0  0  0  0  0
   -4.5368    0.3655   -2.1260 C   0  0  0  0  0  0  0  0  0  0  0  0
   -5.3921    1.0767   -2.6476 O   0  0  0  0  0  0  0  0  0  0  0  0
   -3.1809    0.6871   -2.0966 N   0  0  0  0  0  0  0  0  0  0  0  0
   -2.7660    1.9275   -2.7364 C   0  0  0  0  0  0  0  0  0  0  0  0
   -2.2225   -0.1596   -1.4748 C   0  0  0  0  0  0  0  0  0  0  0  0
   -0.8614    0.1944   -1.4518 C   0  0  0  0  0  0  0  0  0  0  0  0
    0.0772   -0.6355   -0.8341 C   0  0  0  0  0  0  0  0  0  0  0  0
    1.8003   -0.1832   -0.8109 S   0  0  0  0  0  6  0  0  0  0  0  0
    1.9338    1.0628   -1.5382 O   0  0  0  0  0  0  0  0  0  0  0  0
    2.5298   -1.3678   -1.2118 O   0  0  0  0  0  0  0  0  0  0  0  0
    2.0503    0.1279    0.8442 N   0  0  0  0  0  0  0  0  0  0  0  0
    1.2184    1.2272    1.4439 C   0  0  0  0  0  0  0  0  0  0  0  0
    2.0360    1.7974    2.6132 C   0  0  0  0  0  0  0  0  0  0  0  0
    3.4171    1.3394    2.2813 C   0  0  0  0  0  0  0  0  0  0  0  0
    4.6009    1.7139    2.8990 C   0  0  0  0  0  0  0  0  0  0  0  0
    5.7844    1.1004    2.4869 C   0  0  0  0  0  0  0  0  0  0  0  0
    5.7642    0.1137    1.4904 C   0  0  0  0  0  0  0  0  0  0  0  0
    4.5618   -0.2628    0.8837 C   0  0  0  0  0  0  0  0  0  0  0  0
    3.3993    0.3846    1.2647 C   0  0  0  0  0  0  0  0  0  0  0  0
   -0.3125   -1.8336   -0.2475 C   0  0  0  0  0  0  0  0  0  0  0  0
   -1.6599   -2.1924   -0.2662 C   0  0  0  0  0  0  0  0  0  0  0  0
   -2.6288   -1.3672   -0.8718 C   0  0  0  0  0  0  0  0  0  0  0  0
   -4.1736   -2.9767    0.8029 H   0  0  0  0  0  0  0  0  0  0  0  0
   -5.5036   -3.1485   -0.3465 H   0  0  0  0  0  0  0  0  0  0  0  0
   -3.9286   -3.8314   -0.7609 H   0  0  0  0  0  0  0  0  0  0  0  0
   -2.3041    2.5841   -1.9921 H   0  0  0  0  0  0  0  0  0  0  0  0
   -3.6089    2.4674   -3.1769 H   0  0  0  0  0  0  0  0  0  0  0  0
   -2.0590    1.7033   -3.5415 H   0  0  0  0  0  0  0  0  0  0  0  0
   -0.5092    1.1128   -1.9132 H   0  0  0  0  0  0  0  0  0  0  0  0
    1.0345    2.0210    0.7103 H   0  0  0  0  0  0  0  0  0  0  0  0
    0.2553    0.8403    1.7906 H   0  0  0  0  0  0  0  0  0  0  0  0
    1.9536    2.8868    2.6646 H   0  0  0  0  0  0  0  0  0  0  0  0
    1.7145    1.3575    3.5632 H   0  0  0  0  0  0  0  0  0  0  0  0
    4.6119    2.4556    3.6914 H   0  0  0  0  0  0  0  0  0  0  0  0
    6.7282    1.3753    2.9525 H   0  0  0  0  0  0  0  0  0  0  0  0
    6.6912   -0.3718    1.1934 H   0  0  0  0  0  0  0  0  0  0  0  0
    4.5645   -1.0490    0.1370 H   0  0  0  0  0  0  0  0  0  0  0  0
    0.4216   -2.4882    0.2193 H   0  0  0  0  0  0  0  0  0  0  0  0
   -1.9254   -3.1360    0.2028 H   0  0  0  0  0  0  0  0  0  0  0  0
  1  2  1  0
  2  3  1  0
  3  4  2  0
  3  5  1  0
  5  6  2  0
  5  7  1  0
  7  8  1  0
  7  9  1  0
  9 10  2  0
 10 11  1  0
 11 12  1  0
 12 13  2  0
 12 14  2  0
 12 15  1  0
 15 16  1  0
 16 17  1  0
 17 18  1  0
 18 19  2  0
 19 20  1  0
 20 21  2  0
 21 22  1  0
 22 23  2  0
 11 24  2  0
 24 25  1  0
 25 26  2  0
 26  2  1  0
 26  9  1  0
 23 15  1  0
 23 18  1  0
  1 27  1  0
  1 28  1  0
  1 29  1  0
  8 30  1  0
  8 31  1  0
  8 32  1  0
 10 33  1  0
 16 34  1  0
 16 35  1  0
 17 36  1  0
 17 37  1  0
 19 38  1  0
 20 39  1  0
 21 40  1  0
 22 41  1  0
 24 42  1  0
 25 43  1  0
M  END
$$$$
