
     RDKit          3D

 62 65  0  0  0  0  0  0  0  0999 V2000
   -4.2949   -1.6595   -4.7394 C   0  0  0  0  0  0  0  0  0  0  0  0
   -4.5434   -1.3885   -3.2651 C   0  0  0  0  0  0  0  0  0  0  0  0
   -3.3745   -1.7714   -2.5278 O   0  0  0  0  0  0  0  0  0  0  0  0
   -3.5989   -2.0427   -1.2139 C   0  0  0  0  0  0  0  0  0  0  0  0
   -4.6740   -2.0059   -0.6348 O   0  0  0  0  0  0  0  0  0  0  0  0
   -2.3231   -2.4335   -0.5827 C   0  0  0  0  0  0  0  0  0  0  0  0
   -2.0826   -3.7742   -0.5574 C   0  0  0  0  0  0  0  0  0  0  0  0
   -3.0542   -4.8176   -1.0694 C   0  0  0  0  0  0  0  0  0  0  0  0
   -0.9102   -4.3497   -0.0852 N   0  0  0  0  0  0  0  0  0  0  0  0
    0.0616   -3.5458    0.1767 C   0  0  0  0  0  0  0  0  0  0  0  0
    1.6614   -4.1152    0.5363 S   0  0  0  0  0  0  0  0  0  0  0  0
    2.3482   -2.5155    0.3033 C   0  0  0  0  0  0  0  0  0  0  0  0
    3.6678   -2.2993    0.5136 C   0  0  0  0  0  0  0  0  0  0  0  0
    4.5280   -3.3411    0.8191 O   0  0  0  0  0  0  0  0  0  0  0  0
    4.3336   -0.9858    0.5105 C   0  0  0  0  0  0  0  0  0  0  0  0
    4.0522   -0.0381    1.5012 C   0  0  0  0  0  0  0  0  0  0  0  0
    4.7009    1.2031    1.5071 C   0  0  0  0  0  0  0  0  0  0  0  0
    5.6422    1.5061    0.5213 C   0  0  0  0  0  0  0  0  0  0  0  0
    6.3449    2.6769    0.4157 O   0  0  0  0  0  0  0  0  0  0  0  0
    6.0091    3.7107    1.3398 C   0  0  0  0  0  0  0  0  0  0  0  0
    5.9367    0.5535   -0.4582 C   0  0  0  0  0  0  0  0  0  0  0  0
    5.2909   -0.6871   -0.4658 C   0  0  0  0  0  0  0  0  0  0  0  0
    1.2696   -1.5591   -0.0195 C   0  0  0  0  0  0  0  0  0  0  0  0
    1.5560   -0.2594   -0.4043 N   0  0  0  0  0  0  0  0  0  0  0  0
    0.0226   -2.0700    0.0999 C   0  0  0  0  0  0  0  0  0  0  0  0
   -1.3288   -1.4765   -0.0082 C   0  0  0  0  0  0  0  0  0  0  0  0
   -1.6275   -0.2471    0.5363 C   0  0  0  0  0  0  0  0  0  0  0  0
   -2.8798    0.5015    0.2927 C   0  0  0  0  0  0  0  0  0  0  0  0
   -3.0963    1.7247    0.8127 C   0  0  0  0  0  0  0  0  0  0  0  0
   -2.1120    2.3633    1.6875 C   0  0  0  0  0  0  0  0  0  0  0  0
   -2.3284    3.5969    2.1955 C   0  0  0  0  0  0  0  0  0  0  0  0
   -1.4510    4.1703    3.0982 O   0  0  0  0  0  0  0  0  0  0  0  0
   -3.4825    4.3028    1.9192 O   0  0  0  0  0  0  0  0  0  0  0  0
   -3.1718    5.4564    1.1360 C   0  0  0  0  0  0  0  0  0  0  0  0
   -0.9189    1.6026    2.0432 C   0  0  0  0  0  0  0  0  0  0  0  0
   -0.6981    0.3877    1.5130 C   0  0  0  0  0  0  0  0  0  0  0  0
   -5.1476   -1.3364   -5.3471 H   0  0  0  0  0  0  0  0  0  0  0  0
   -4.1377   -2.7288   -4.9117 H   0  0  0  0  0  0  0  0  0  0  0  0
   -3.3928   -1.1414   -5.0945 H   0  0  0  0  0  0  0  0  0  0  0  0
   -5.4284   -1.9532   -2.9362 H   0  0  0  0  0  0  0  0  0  0  0  0
   -4.7160   -0.3196   -3.1009 H   0  0  0  0  0  0  0  0  0  0  0  0
   -2.9801   -5.7312   -0.4672 H   0  0  0  0  0  0  0  0  0  0  0  0
   -4.0994   -4.5011   -1.0155 H   0  0  0  0  0  0  0  0  0  0  0  0
   -2.8179   -5.0706   -2.1096 H   0  0  0  0  0  0  0  0  0  0  0  0
    5.3330   -2.9614    1.2157 H   0  0  0  0  0  0  0  0  0  0  0  0
    3.3146   -0.2516    2.2741 H   0  0  0  0  0  0  0  0  0  0  0  0
    4.4496    1.8987    2.3045 H   0  0  0  0  0  0  0  0  0  0  0  0
    6.2060    3.3972    2.3716 H   0  0  0  0  0  0  0  0  0  0  0  0
    6.6470    4.5748    1.1282 H   0  0  0  0  0  0  0  0  0  0  0  0
    4.9678    4.0255    1.2083 H   0  0  0  0  0  0  0  0  0  0  0  0
    6.6789    0.7838   -1.2201 H   0  0  0  0  0  0  0  0  0  0  0  0
    5.5450   -1.4205   -1.2280 H   0  0  0  0  0  0  0  0  0  0  0  0
    0.7790    0.2185   -0.8616 H   0  0  0  0  0  0  0  0  0  0  0  0
    2.4116   -0.1713   -0.9462 H   0  0  0  0  0  0  0  0  0  0  0  0
   -3.6592    0.1294   -0.3453 H   0  0  0  0  0  0  0  0  0  0  0  0
   -4.0209    2.2485    0.5956 H   0  0  0  0  0  0  0  0  0  0  0  0
   -2.0078    4.7972    3.5905 H   0  0  0  0  0  0  0  0  0  0  0  0
   -4.1182    5.9095    0.8192 H   0  0  0  0  0  0  0  0  0  0  0  0
   -2.5998    5.1819    0.2377 H   0  0  0  0  0  0  0  0  0  0  0  0
   -2.6190    6.1936    1.7343 H   0  0  0  0  0  0  0  0  0  0  0  0
   -0.2260    2.0153    2.7742 H   0  0  0  0  0  0  0  0  0  0  0  0
    0.1636   -0.1599    1.8832 H   0  0  0  0  0  0  0  0  0  0  0  0
  1  2  1  0
  2  3  1  0
  3  4  1  0
  4  5  2  0
  4  6  1  0
  6  7  2  0
  7  8  1  0
  7  9  1  0
  9 10  2  0
 10 11  1  0
 11 12  1  0
 12 13  2  3
 13 14  1  0
 13 15  1  0
 15 16  2  0
 16 17  1  0
 17 18  2  0
 18 19  1  0
 19 20  1  0
 18 21  1  0
 21 22  2  0
 12 23  1  0
 23 24  1  0
 23 25  2  0
 25 26  1  0
 26 27  2  3
 27 28  1  0
 28 29  2  0
 29 30  1  0
 30 31  2  3
 31 32  1  0
 31 33  1  0
 33 34  1  0
 30 35  1  0
 35 36  2  0
 26  6  1  0
 36 27  1  0
 25 10  1  0
 22 15  1  0
  1 37  1  0
  1 38  1  0
  1 39  1  0
  2 40  1  0
  2 41  1  0
  8 42  1  0
  8 43  1  0
  8 44  1  0
 14 45  1  0
 16 46  1  0
 17 47  1  0
 20 48  1  0
 20 49  1  0
 20 50  1  0
 21 51  1  0
 22 52  1  0
 24 53  1  0
 24 54  1  0
 28 55  1  0
 29 56  1  0
 32 57  1  0
 34 58  1  0
 34 59  1  0
 34 60  1  0
 35 61  1  0
 36 62  1  0
M  END
$$$$
