
     RDKit          3D

 48 51  0  0  0  0  0  0  0  0999 V2000
   -7.6896   -1.9757    0.8862 C   0  0  0  0  0  0  0  0  0  0  0  0
   -6.5035   -1.2289    0.3466 C   0  0  0  0  0  0  0  0  0  0  0  0
   -6.6559   -0.4229   -0.7757 C   0  0  0  0  0  0  0  0  0  0  0  0
   -5.5573    0.2791   -1.3019 C   0  0  0  0  0  0  0  0  0  0  0  0
   -5.7633    1.1334   -2.5215 C   0  0  0  0  0  0  0  0  0  0  0  0
   -4.3128    0.1386   -0.6251 C   0  0  0  0  0  0  0  0  0  0  0  0
   -2.9946    0.6924   -0.8245 C   0  0  0  0  0  0  0  0  0  0  0  0
   -2.6764    1.5697   -1.8081 N   0  0  0  0  0  0  0  0  0  0  0  0
   -2.0583    0.2380    0.0911 C   0  0  0  0  0  0  0  0  0  0  0  0
   -0.6483    0.6046    0.1835 C   0  0  0  0  0  0  0  0  0  0  0  0
   -0.1402    1.4860   -0.5134 O   0  0  0  0  0  0  0  0  0  0  0  0
    0.1014   -0.0998    1.1235 N   0  0  0  0  0  0  0  0  0  0  0  0
    1.5167   -0.0858    0.9964 N   0  0  0  0  0  0  0  0  0  0  0  0
    2.1586    1.0229    1.6859 C   0  0  0  0  0  0  0  0  0  0  0  0
    3.6009    1.1963    1.2078 C   0  0  0  0  0  0  0  0  0  0  0  0
    4.1959    2.2571    1.3981 O   0  0  0  0  0  0  0  0  0  0  0  0
    4.1981    0.0169    0.7229 N   0  0  0  0  0  0  0  0  0  0  0  0
    5.5145    0.0621    0.1583 C   0  0  0  0  0  0  0  0  0  0  0  0
    6.4587   -0.9428    0.4201 C   0  0  0  0  0  0  0  0  0  0  0  0
    7.7411   -0.8866   -0.1408 C   0  0  0  0  0  0  0  0  0  0  0  0
    8.0964    0.1645   -0.9832 C   0  0  0  0  0  0  0  0  0  0  0  0
    7.1665    1.1583   -1.2721 C   0  0  0  0  0  0  0  0  0  0  0  0
    5.8913    1.1012   -0.7105 C   0  0  0  0  0  0  0  0  0  0  0  0
    5.0010    2.0271   -1.0993 F   0  0  0  0  0  0  0  0  0  0  0  0
    3.6489   -1.2606    1.1799 C   0  0  0  0  0  0  0  0  0  0  0  0
    2.1344   -1.3294    1.0114 C   0  0  0  0  0  0  0  0  0  0  0  0
    1.5081   -2.3882    1.0037 O   0  0  0  0  0  0  0  0  0  0  0  0
   -2.7693   -0.8497    1.2043 S   0  0  0  0  0  0  0  0  0  0  0  0
   -4.2991   -0.7108    0.4782 C   0  0  0  0  0  0  0  0  0  0  0  0
   -5.3371   -1.3987    0.9937 N   0  0  0  0  0  0  0  0  0  0  0  0
   -8.0535   -2.6918    0.1430 H   0  0  0  0  0  0  0  0  0  0  0  0
   -8.4939   -1.2767    1.1386 H   0  0  0  0  0  0  0  0  0  0  0  0
   -7.4231   -2.5291    1.7932 H   0  0  0  0  0  0  0  0  0  0  0  0
   -7.6323   -0.3435   -1.2478 H   0  0  0  0  0  0  0  0  0  0  0  0
   -6.7495    0.9681   -2.9685 H   0  0  0  0  0  0  0  0  0  0  0  0
   -5.0180    0.8939   -3.2855 H   0  0  0  0  0  0  0  0  0  0  0  0
   -5.6878    2.1914   -2.2535 H   0  0  0  0  0  0  0  0  0  0  0  0
   -3.3766    2.1585   -2.2443 H   0  0  0  0  0  0  0  0  0  0  0  0
   -1.7552    2.0198   -1.7918 H   0  0  0  0  0  0  0  0  0  0  0  0
   -0.2853   -0.9937    1.4303 H   0  0  0  0  0  0  0  0  0  0  0  0
    2.1718    0.8170    2.7618 H   0  0  0  0  0  0  0  0  0  0  0  0
    1.6123    1.9492    1.4820 H   0  0  0  0  0  0  0  0  0  0  0  0
    6.2402   -1.7679    1.0912 H   0  0  0  0  0  0  0  0  0  0  0  0
    8.4658   -1.6658    0.0862 H   0  0  0  0  0  0  0  0  0  0  0  0
    9.0913    0.2049   -1.4190 H   0  0  0  0  0  0  0  0  0  0  0  0
    7.4146    1.9733   -1.9447 H   0  0  0  0  0  0  0  0  0  0  0  0
    3.8927   -1.3957    2.2390 H   0  0  0  0  0  0  0  0  0  0  0  0
    4.0596   -2.0802    0.5811 H   0  0  0  0  0  0  0  0  0  0  0  0
  1  2  1  0
  2  3  2  0
  3  4  1  0
  4  5  1  0
  4  6  2  0
  6  7  1  0
  7  8  1  0
  7  9  2  0
  9 10  1  0
 10 11  2  0
 10 12  1  0
 12 13  1  0
 13 14  1  0
 14 15  1  0
 15 16  2  0
 15 17  1  0
 17 18  1  0
 18 19  2  0
 19 20  1  0
 20 21  2  0
 21 22  1  0
 22 23  2  0
 23 24  1  0
 17 25  1  0
 25 26  1  0
 26 27  2  0
  9 28  1  0
 28 29  1  0
 29 30  2  0
 30  2  1  0
 29  6  1  0
 26 13  1  0
 23 18  1  0
  1 31  1  0
  1 32  1  0
  1 33  1  0
  3 34  1  0
  5 35  1  0
  5 36  1  0
  5 37  1  0
  8 38  1  0
  8 39  1  0
 12 40  1  0
 14 41  1  0
 14 42  1  0
 19 43  1  0
 20 44  1  0
 21 45  1  0
 22 46  1  0
 25 47  1  0
 25 48  1  0
M  END
$$$$
