
     RDKit          3D

 42 44  0  0  0  0  0  0  0  0999 V2000
    4.8280    0.9193   -1.9165 C   0  0  0  0  0  0  0  0  0  0  0  0
    3.8327   -0.2181   -1.7410 C   0  0  0  0  0  0  0  0  0  0  0  0
    3.9464   -0.8350   -0.3484 C   0  0  0  0  0  0  0  0  0  0  0  0
    2.7656   -2.2088   -0.1170 S   0  0  0  0  0  0  0  0  0  0  0  0
    1.2319   -1.3264    0.1508 C   0  0  0  0  0  0  0  0  0  0  0  0
    0.0598   -2.0501    0.2024 C   0  0  0  0  0  0  0  0  0  0  0  0
   -1.1119   -1.3537    0.4103 C   0  0  0  0  0  0  0  0  0  0  0  0
   -2.3276   -1.9858    0.4888 N   0  0  0  0  0  0  0  0  0  0  0  0
   -3.5488   -1.2122    0.6748 C   0  0  0  0  0  0  0  0  0  0  0  0
   -4.6313   -2.2853    0.7377 C   0  0  0  0  0  0  0  0  0  0  0  0
   -4.1148   -3.3406   -0.2274 C   0  0  0  0  0  0  0  0  0  0  0  0
   -2.6036   -3.3311    0.0049 C   0  0  0  0  0  0  0  0  0  0  0  0
   -1.0845   -0.0194    0.5692 N   0  0  0  0  0  0  0  0  0  0  0  0
    0.1014    0.6138    0.5125 C   0  0  0  0  0  0  0  0  0  0  0  0
    0.1099    2.0815    0.6851 C   0  0  0  0  0  0  0  0  0  0  0  0
    1.3119    2.8167    0.6827 C   0  0  0  0  0  0  0  0  0  0  0  0
    1.3219    4.2056    0.8489 C   0  0  0  0  0  0  0  0  0  0  0  0
    0.1258    4.8951    1.0216 C   0  0  0  0  0  0  0  0  0  0  0  0
   -1.0781    4.1980    1.0261 C   0  0  0  0  0  0  0  0  0  0  0  0
   -1.0836    2.8091    0.8599 C   0  0  0  0  0  0  0  0  0  0  0  0
    1.2764    0.0021    0.3068 N   0  0  0  0  0  0  0  0  0  0  0  0
    4.6433    1.7168   -1.1900 H   0  0  0  0  0  0  0  0  0  0  0  0
    4.7402    1.3475   -2.9198 H   0  0  0  0  0  0  0  0  0  0  0  0
    5.8554    0.5657   -1.7864 H   0  0  0  0  0  0  0  0  0  0  0  0
    4.0258   -0.9776   -2.5085 H   0  0  0  0  0  0  0  0  0  0  0  0
    2.8253    0.1742   -1.9180 H   0  0  0  0  0  0  0  0  0  0  0  0
    4.9497   -1.2563   -0.2228 H   0  0  0  0  0  0  0  0  0  0  0  0
    3.8224   -0.0841    0.4389 H   0  0  0  0  0  0  0  0  0  0  0  0
    0.0702   -3.1255    0.0939 H   0  0  0  0  0  0  0  0  0  0  0  0
   -3.5348   -0.6193    1.5956 H   0  0  0  0  0  0  0  0  0  0  0  0
   -3.7200   -0.5493   -0.1818 H   0  0  0  0  0  0  0  0  0  0  0  0
   -4.6922   -2.7030    1.7497 H   0  0  0  0  0  0  0  0  0  0  0  0
   -5.6183   -1.9030    0.4632 H   0  0  0  0  0  0  0  0  0  0  0  0
   -4.5575   -4.3262   -0.0575 H   0  0  0  0  0  0  0  0  0  0  0  0
   -4.3369   -3.0414   -1.2592 H   0  0  0  0  0  0  0  0  0  0  0  0
   -2.3249   -4.0649    0.7688 H   0  0  0  0  0  0  0  0  0  0  0  0
   -2.0801   -3.5672   -0.9277 H   0  0  0  0  0  0  0  0  0  0  0  0
    2.2629    2.3030    0.5526 H   0  0  0  0  0  0  0  0  0  0  0  0
    2.2659    4.7442    0.8450 H   0  0  0  0  0  0  0  0  0  0  0  0
    0.1319    5.9736    1.1530 H   0  0  0  0  0  0  0  0  0  0  0  0
   -2.0160    4.7305    1.1600 H   0  0  0  0  0  0  0  0  0  0  0  0
   -2.0397    2.2880    0.8670 H   0  0  0  0  0  0  0  0  0  0  0  0
  1  2  1  0
  2  3  1  0
  3  4  1  0
  4  5  1  0
  5  6  2  0
  6  7  1  0
  7  8  1  0
  8  9  1  0
  9 10  1  0
 10 11  1  0
 11 12  1  0
  7 13  2  0
 13 14  1  0
 14 15  1  0
 15 16  2  0
 16 17  1  0
 17 18  2  0
 18 19  1  0
 19 20  2  0
 14 21  2  0
 21  5  1  0
 12  8  1  0
 20 15  1  0
  1 22  1  0
  1 23  1  0
  1 24  1  0
  2 25  1  0
  2 26  1  0
  3 27  1  0
  3 28  1  0
  6 29  1  0
  9 30  1  0
  9 31  1  0
 10 32  1  0
 10 33  1  0
 11 34  1  0
 11 35  1  0
 12 36  1  0
 12 37  1  0
 16 38  1  0
 17 39  1  0
 18 40  1  0
 19 41  1  0
 20 42  1  0
M  END
$$$$
