
     RDKit          3D

 40 43  0  0  0  0  0  0  0  0999 V2000
    7.1357    1.0746    1.4682 O   0  0  0  0  0  0  0  0  0  0  0  0
    6.2984    0.3370    2.0086 N   0  0  0  0  0  4  0  0  0  0  0  0
    6.5049   -0.3210    3.0386 O   0  0  0  0  0  1  0  0  0  0  0  0
    4.9727    0.2372    1.3866 C   0  0  0  0  0  0  0  0  0  0  0  0
    3.9995   -0.5917    1.9536 C   0  0  0  0  0  0  0  0  0  0  0  0
    2.7388   -0.6796    1.3535 C   0  0  0  0  0  0  0  0  0  0  0  0
    2.4332    0.0529    0.1929 C   0  0  0  0  0  0  0  0  0  0  0  0
    1.1009   -0.0560   -0.4170 C   0  0  0  0  0  0  0  0  0  0  0  0
    0.2927   -1.1488   -0.1279 N   0  0  0  0  0  0  0  0  0  0  0  0
   -0.8689   -0.9243   -0.8393 N   0  0  0  0  0  0  0  0  0  0  0  0
   -1.9836   -1.8465   -0.8221 C   0  0  0  0  0  0  0  0  0  0  0  0
   -3.0104   -1.4678    0.2172 C   0  0  0  0  0  0  0  0  0  0  0  0
   -4.2569   -0.9509   -0.1640 C   0  0  0  0  0  0  0  0  0  0  0  0
   -5.2061   -0.6058    0.7998 C   0  0  0  0  0  0  0  0  0  0  0  0
   -4.9193   -0.7715    2.1535 C   0  0  0  0  0  0  0  0  0  0  0  0
   -3.6827   -1.2800    2.5456 C   0  0  0  0  0  0  0  0  0  0  0  0
   -2.7331   -1.6263    1.5836 C   0  0  0  0  0  0  0  0  0  0  0  0
   -0.7476    0.2280   -1.5311 C   0  0  0  0  0  0  0  0  0  0  0  0
   -1.4670    0.9715   -2.3836 C   0  0  0  0  0  0  0  0  0  0  0  0
   -2.6777    0.6779   -2.8341 O   0  0  0  0  0  0  0  0  0  0  0  0
   -0.7513    2.1083   -2.7391 N   0  0  0  0  0  0  0  0  0  0  0  0
    0.4855    2.0401   -2.0631 C   0  0  0  0  0  0  0  0  0  0  0  0
    1.4152    2.9800   -2.1832 O   0  0  0  0  0  0  0  0  0  0  0  0
    0.4560    0.8773   -1.3419 C   0  0  0  0  0  0  0  0  0  0  0  0
    3.4258    0.8738   -0.3619 C   0  0  0  0  0  0  0  0  0  0  0  0
    4.6917    0.9710    0.2284 C   0  0  0  0  0  0  0  0  0  0  0  0
    4.1984   -1.1725    2.8515 H   0  0  0  0  0  0  0  0  0  0  0  0
    1.9853   -1.3277    1.8001 H   0  0  0  0  0  0  0  0  0  0  0  0
   -1.5897   -2.8481   -0.6129 H   0  0  0  0  0  0  0  0  0  0  0  0
   -2.4160   -1.8788   -1.8282 H   0  0  0  0  0  0  0  0  0  0  0  0
   -4.4933   -0.8082   -1.2163 H   0  0  0  0  0  0  0  0  0  0  0  0
   -6.1688   -0.2050    0.4942 H   0  0  0  0  0  0  0  0  0  0  0  0
   -5.6575   -0.5007    2.9035 H   0  0  0  0  0  0  0  0  0  0  0  0
   -3.4542   -1.4037    3.6009 H   0  0  0  0  0  0  0  0  0  0  0  0
   -1.7662   -2.0132    1.9028 H   0  0  0  0  0  0  0  0  0  0  0  0
   -2.9972    1.3916   -3.4121 H   0  0  0  0  0  0  0  0  0  0  0  0
   -1.0483    2.8430   -3.3646 H   0  0  0  0  0  0  0  0  0  0  0  0
    1.0903    3.7039   -2.7438 H   0  0  0  0  0  0  0  0  0  0  0  0
    3.2330    1.4428   -1.2679 H   0  0  0  0  0  0  0  0  0  0  0  0
    5.4377    1.6176   -0.2287 H   0  0  0  0  0  0  0  0  0  0  0  0
  1  2  2  0
  2  3  1  0
  2  4  1  0
  4  5  2  0
  5  6  1  0
  6  7  2  0
  7  8  1  0
  8  9  2  0
  9 10  1  0
 10 11  1  0
 11 12  1  0
 12 13  2  0
 13 14  1  0
 14 15  2  0
 15 16  1  0
 16 17  2  0
 10 18  1  0
 18 19  2  0
 19 20  1  0
 19 21  1  0
 21 22  1  0
 22 23  1  0
 22 24  2  0
  7 25  1  0
 25 26  2  0
 26  4  1  0
 24  8  1  0
 17 12  1  0
 24 18  1  0
  5 27  1  0
  6 28  1  0
 11 29  1  0
 11 30  1  0
 13 31  1  0
 14 32  1  0
 15 33  1  0
 16 34  1  0
 17 35  1  0
 20 36  1  0
 21 37  1  0
 23 38  1  0
 25 39  1  0
 26 40  1  0
M  CHG  2   2   1   3  -1
M  END
$$$$
