
     RDKit          3D

 69 73  0  0  0  0  0  0  0  0999 V2000
   -1.4267    5.9668    3.7737 C   0  0  0  0  0  0  0  0  0  0  0  0
   -1.2478    4.9495    2.6866 C   0  0  0  0  0  0  0  0  0  0  0  0
   -0.2219    4.0016    2.7734 C   0  0  0  0  0  0  0  0  0  0  0  0
   -0.0330    3.0661    1.7534 C   0  0  0  0  0  0  0  0  0  0  0  0
   -0.8632    3.0618    0.6249 C   0  0  0  0  0  0  0  0  0  0  0  0
   -0.6745    2.0377   -0.4760 C   0  0  0  0  0  0  0  0  0  0  0  0
   -1.4452    0.8171   -0.2472 N   0  0  0  0  0  0  0  0  0  0  0  0
   -2.7724    0.8101   -0.6956 C   0  0  0  0  0  0  0  0  0  0  0  0
   -3.2322    1.6622   -1.4605 O   0  0  0  0  0  0  0  0  0  0  0  0
   -3.6335   -0.3983   -0.2766 C   0  0  0  0  0  0  0  0  0  0  0  0
   -3.4749   -1.5298   -1.3073 C   0  0  0  0  0  0  0  0  0  0  0  0
   -4.3166   -2.7944   -1.0403 C   0  0  0  0  0  0  0  0  0  0  0  0
   -5.8133   -2.4953   -0.9507 C   0  0  0  0  0  0  0  0  0  0  0  0
   -4.0585   -3.8258   -2.1429 C   0  0  0  0  0  0  0  0  0  0  0  0
   -3.3061   -0.8237    1.0799 N   0  0  0  0  0  0  0  0  0  0  0  0
   -1.9459   -0.9893    1.3249 C   0  0  0  0  0  0  0  0  0  0  0  0
   -1.6504   -1.9257    2.2365 N   0  0  0  0  0  0  0  0  0  0  0  0
   -0.3548   -2.0750    2.5117 C   0  0  0  0  0  0  0  0  0  0  0  0
    0.6545   -1.4247    1.9246 N   0  0  0  0  0  0  0  0  0  0  0  0
    0.3440   -0.5142    0.9761 C   0  0  0  0  0  0  0  0  0  0  0  0
    1.4190    0.0143    0.2264 N   0  0  0  0  0  0  0  0  0  0  0  0
    2.7212   -0.0310    0.9435 C   0  0  0  0  0  0  0  0  0  0  0  0
    3.8171    0.6537    0.0900 C   0  0  0  0  0  0  0  0  0  0  0  0
    3.9370    0.0062   -1.2448 N   0  0  0  0  0  0  0  0  0  0  0  0
    4.8386   -1.0572   -1.3429 C   0  0  0  0  0  0  0  0  0  0  0  0
    6.1659   -0.8948   -0.9065 C   0  0  0  0  0  0  0  0  0  0  0  0
    7.1100   -1.9248   -0.9897 C   0  0  0  0  0  0  0  0  0  0  0  0
    6.7507   -3.1527   -1.5291 C   0  0  0  0  0  0  0  0  0  0  0  0
    5.4543   -3.3390   -1.9939 C   0  0  0  0  0  0  0  0  0  0  0  0
    4.5170   -2.3005   -1.9083 C   0  0  0  0  0  0  0  0  0  0  0  0
    2.6375   -0.0348   -1.9536 C   0  0  0  0  0  0  0  0  0  0  0  0
    1.5173   -0.6712   -1.0930 C   0  0  0  0  0  0  0  0  0  0  0  0
   -0.9913   -0.1990    0.6725 C   0  0  0  0  0  0  0  0  0  0  0  0
   -1.8892    4.0137    0.5419 C   0  0  0  0  0  0  0  0  0  0  0  0
   -2.0745    4.9540    1.5583 C   0  0  0  0  0  0  0  0  0  0  0  0
   -2.3938    6.4742    3.6910 H   0  0  0  0  0  0  0  0  0  0  0  0
   -0.6354    6.7210    3.7142 H   0  0  0  0  0  0  0  0  0  0  0  0
   -1.3915    5.4871    4.7576 H   0  0  0  0  0  0  0  0  0  0  0  0
    0.4362    3.9837    3.6402 H   0  0  0  0  0  0  0  0  0  0  0  0
    0.7689    2.3389    1.8483 H   0  0  0  0  0  0  0  0  0  0  0  0
    0.3855    1.8523   -0.6361 H   0  0  0  0  0  0  0  0  0  0  0  0
   -0.9984    2.4889   -1.4237 H   0  0  0  0  0  0  0  0  0  0  0  0
   -4.6699   -0.0431   -0.2660 H   0  0  0  0  0  0  0  0  0  0  0  0
   -2.4191   -1.8234   -1.3799 H   0  0  0  0  0  0  0  0  0  0  0  0
   -3.7325   -1.1314   -2.2987 H   0  0  0  0  0  0  0  0  0  0  0  0
   -3.9979   -3.2451   -0.0921 H   0  0  0  0  0  0  0  0  0  0  0  0
   -6.3921   -3.4222   -0.8668 H   0  0  0  0  0  0  0  0  0  0  0  0
   -6.0429   -1.8906   -0.0674 H   0  0  0  0  0  0  0  0  0  0  0  0
   -6.1658   -1.9547   -1.8369 H   0  0  0  0  0  0  0  0  0  0  0  0
   -2.9927   -4.0685   -2.2062 H   0  0  0  0  0  0  0  0  0  0  0  0
   -4.5991   -4.7558   -1.9398 H   0  0  0  0  0  0  0  0  0  0  0  0
   -4.3802   -3.4527   -3.1212 H   0  0  0  0  0  0  0  0  0  0  0  0
   -3.8320   -1.5887    1.4866 H   0  0  0  0  0  0  0  0  0  0  0  0
   -0.0933   -2.8051    3.2709 H   0  0  0  0  0  0  0  0  0  0  0  0
    3.0246   -1.0665    1.1481 H   0  0  0  0  0  0  0  0  0  0  0  0
    2.6398    0.5026    1.8979 H   0  0  0  0  0  0  0  0  0  0  0  0
    3.5406    1.7049   -0.0698 H   0  0  0  0  0  0  0  0  0  0  0  0
    4.7591    0.6667    0.6487 H   0  0  0  0  0  0  0  0  0  0  0  0
    6.4970    0.0664   -0.5196 H   0  0  0  0  0  0  0  0  0  0  0  0
    8.1252   -1.7552   -0.6423 H   0  0  0  0  0  0  0  0  0  0  0  0
    7.4786   -3.9558   -1.5987 H   0  0  0  0  0  0  0  0  0  0  0  0
    5.1648   -4.2925   -2.4292 H   0  0  0  0  0  0  0  0  0  0  0  0
    3.5225   -2.5076   -2.2875 H   0  0  0  0  0  0  0  0  0  0  0  0
    2.7159   -0.5335   -2.9263 H   0  0  0  0  0  0  0  0  0  0  0  0
    2.3534    1.0027   -2.1764 H   0  0  0  0  0  0  0  0  0  0  0  0
    0.5763   -0.5869   -1.6489 H   0  0  0  0  0  0  0  0  0  0  0  0
    1.7189   -1.7392   -0.9427 H   0  0  0  0  0  0  0  0  0  0  0  0
   -2.5545    4.0295   -0.3206 H   0  0  0  0  0  0  0  0  0  0  0  0
   -2.8738    5.6862    1.4615 H   0  0  0  0  0  0  0  0  0  0  0  0
  1  2  1  0
  2  3  2  0
  3  4  1  0
  4  5  2  0
  5  6  1  0
  6  7  1  0
  7  8  1  0
  8  9  2  0
  8 10  1  0
 10 11  1  0
 11 12  1  0
 12 13  1  0
 12 14  1  0
 10 15  1  0
 15 16  1  0
 16 17  2  0
 17 18  1  0
 18 19  2  0
 19 20  1  0
 20 21  1  0
 21 22  1  0
 22 23  1  0
 23 24  1  0
 24 25  1  0
 25 26  2  0
 26 27  1  0
 27 28  2  0
 28 29  1  0
 29 30  2  0
 24 31  1  0
 31 32  1  0
 20 33  2  0
  5 34  1  0
 34 35  2  0
 35  2  1  0
 33  7  1  0
 33 16  1  0
 32 21  1  0
 30 25  1  0
  1 36  1  0
  1 37  1  0
  1 38  1  0
  3 39  1  0
  4 40  1  0
  6 41  1  0
  6 42  1  0
 10 43  1  0
 11 44  1  0
 11 45  1  0
 12 46  1  0
 13 47  1  0
 13 48  1  0
 13 49  1  0
 14 50  1  0
 14 51  1  0
 14 52  1  0
 15 53  1  0
 18 54  1  0
 22 55  1  0
 22 56  1  0
 23 57  1  0
 23 58  1  0
 26 59  1  0
 27 60  1  0
 28 61  1  0
 29 62  1  0
 30 63  1  0
 31 64  1  0
 31 65  1  0
 32 66  1  0
 32 67  1  0
 34 68  1  0
 35 69  1  0
M  END
$$$$
