
     RDKit          3D

 38 40  0  0  0  0  0  0  0  0999 V2000
    2.3584    3.9590    2.0831 C   0  0  0  0  0  0  0  0  0  0  0  0
    2.3930    2.7853    1.1210 C   0  0  0  0  0  0  0  0  0  0  0  0
    1.6941    1.5603    1.6780 C   0  0  0  0  0  0  0  0  0  0  0  0
    1.1509    1.5267    2.7761 O   0  0  0  0  0  0  0  0  0  0  0  0
    1.7430    0.4879    0.8170 N   0  0  0  0  0  0  0  0  0  0  0  0
    0.9580   -0.7053    1.0706 C   0  0  0  0  0  0  0  0  0  0  0  0
    1.6814   -1.8931    0.5104 C   0  0  0  0  0  0  0  0  0  0  0  0
    2.2842   -2.1755   -0.7018 C   0  0  0  0  0  0  0  0  0  0  0  0
    2.7896   -3.4940   -0.6062 C   0  0  0  0  0  0  0  0  0  0  0  0
    2.4648   -3.9376    0.6531 C   0  0  0  0  0  0  0  0  0  0  0  0
    1.7912   -2.9784    1.3368 O   0  0  0  0  0  0  0  0  0  0  0  0
   -0.4495   -0.5824    0.5087 C   0  0  0  0  0  0  0  0  0  0  0  0
   -1.5322   -1.0497    1.2649 C   0  0  0  0  0  0  0  0  0  0  0  0
   -2.8380   -0.9714    0.7691 C   0  0  0  0  0  0  0  0  0  0  0  0
   -4.1051   -1.5762    1.7836 Cl  0  0  0  0  0  0  0  0  0  0  0  0
   -3.1049   -0.4245   -0.5094 C   0  0  0  0  0  0  0  0  0  0  0  0
   -4.3871   -0.3047   -1.0901 C   0  0  0  0  0  0  0  0  0  0  0  0
   -4.5418    0.2474   -2.3570 C   0  0  0  0  0  0  0  0  0  0  0  0
   -3.4090    0.6698   -3.0214 C   0  0  0  0  0  0  0  0  0  0  0  0
   -2.1618    0.5773   -2.5110 N   0  0  0  0  0  0  0  0  0  0  0  0
   -2.0221    0.0409   -1.2790 C   0  0  0  0  0  0  0  0  0  0  0  0
   -0.7313   -0.0506   -0.7569 C   0  0  0  0  0  0  0  0  0  0  0  0
    0.3013    0.4185   -1.5486 O   0  0  0  0  0  0  0  0  0  0  0  0
    1.3278    4.2518    2.3093 H   0  0  0  0  0  0  0  0  0  0  0  0
    2.8721    4.8226    1.6497 H   0  0  0  0  0  0  0  0  0  0  0  0
    2.8504    3.7071    3.0284 H   0  0  0  0  0  0  0  0  0  0  0  0
    1.9030    3.0684    0.1827 H   0  0  0  0  0  0  0  0  0  0  0  0
    3.4337    2.5222    0.9013 H   0  0  0  0  0  0  0  0  0  0  0  0
    1.8812    0.6932   -0.1653 H   0  0  0  0  0  0  0  0  0  0  0  0
    0.8927   -0.8260    2.1600 H   0  0  0  0  0  0  0  0  0  0  0  0
    2.3451   -1.5086   -1.5504 H   0  0  0  0  0  0  0  0  0  0  0  0
    3.3235   -4.0531   -1.3613 H   0  0  0  0  0  0  0  0  0  0  0  0
    2.6310   -4.8623    1.1880 H   0  0  0  0  0  0  0  0  0  0  0  0
   -1.3569   -1.4781    2.2513 H   0  0  0  0  0  0  0  0  0  0  0  0
   -5.2744   -0.6406   -0.5582 H   0  0  0  0  0  0  0  0  0  0  0  0
   -5.5224    0.3437   -2.8099 H   0  0  0  0  0  0  0  0  0  0  0  0
   -3.4745    1.1082   -4.0137 H   0  0  0  0  0  0  0  0  0  0  0  0
   -0.1593    0.7218   -2.3649 H   0  0  0  0  0  0  0  0  0  0  0  0
  1  2  1  0
  2  3  1  0
  3  4  2  0
  3  5  1  0
  5  6  1  0
  6  7  1  0
  7  8  2  0
  8  9  1  0
  9 10  2  0
 10 11  1  0
  6 12  1  0
 12 13  2  0
 13 14  1  0
 14 15  1  0
 14 16  2  0
 16 17  1  0
 17 18  2  0
 18 19  1  0
 19 20  2  0
 20 21  1  0
 21 22  2  0
 22 23  1  0
 11  7  1  0
 22 12  1  0
 21 16  1  0
  1 24  1  0
  1 25  1  0
  1 26  1  0
  2 27  1  0
  2 28  1  0
  5 29  1  0
  6 30  1  0
  8 31  1  0
  9 32  1  0
 10 33  1  0
 13 34  1  0
 17 35  1  0
 18 36  1  0
 19 37  1  0
 23 38  1  0
M  END
$$$$
