
     RDKit          3D

 45 47  0  0  0  0  0  0  0  0999 V2000
    0.0047    2.9919   -1.3312 C   0  0  0  0  0  0  0  0  0  0  0  0
    0.5846    1.8674   -0.5363 C   0  0  0  0  0  0  0  0  0  0  0  0
   -0.1203    0.9124    0.0918 C   0  0  0  0  0  0  0  0  0  0  0  0
   -1.4757    0.6345    0.1884 N   0  0  0  0  0  0  0  0  0  0  0  0
   -2.0950   -0.2717   -0.8062 C   0  0  0  0  0  0  0  0  0  0  0  0
   -2.5121    0.5035   -2.0556 C   0  0  0  0  0  0  0  0  0  0  0  0
   -3.1845   -1.0892   -0.1215 C   0  0  0  0  0  0  0  0  0  0  0  0
   -2.7822   -2.2625    0.5541 C   0  0  0  0  0  0  0  0  0  0  0  0
   -3.7016   -3.0673    1.2292 C   0  0  0  0  0  0  0  0  0  0  0  0
   -5.0454   -2.7129    1.2516 C   0  0  0  0  0  0  0  0  0  0  0  0
   -5.4657   -1.5509    0.6072 C   0  0  0  0  0  0  0  0  0  0  0  0
   -4.5407   -0.7450   -0.0663 C   0  0  0  0  0  0  0  0  0  0  0  0
   -4.9853    0.3971   -0.6670 O   0  0  0  0  0  0  0  0  0  0  0  0
    0.9088    0.0693    0.8015 C   0  0  0  0  0  0  0  0  0  0  0  0
    0.6033   -0.9172    1.4576 O   0  0  0  0  0  0  0  0  0  0  0  0
    2.1592    0.6051    0.4746 N   0  0  0  0  0  0  0  0  0  0  0  0
    3.3845   -0.1114    0.4774 C   0  0  0  0  0  0  0  0  0  0  0  0
    3.5925   -1.1741    1.3673 C   0  0  0  0  0  0  0  0  0  0  0  0
    4.7995   -1.8816    1.3768 C   0  0  0  0  0  0  0  0  0  0  0  0
    5.8172   -1.5401    0.4911 C   0  0  0  0  0  0  0  0  0  0  0  0
    5.6273   -0.4939   -0.4062 C   0  0  0  0  0  0  0  0  0  0  0  0
    4.4204    0.2130   -0.4126 C   0  0  0  0  0  0  0  0  0  0  0  0
    1.9720    1.7643   -0.3367 N   0  0  0  0  0  0  0  0  0  0  0  0
    2.6839    2.9534    0.1634 C   0  0  0  0  0  0  0  0  0  0  0  0
    0.3732    2.9562   -2.3613 H   0  0  0  0  0  0  0  0  0  0  0  0
    0.2782    3.9591   -0.8982 H   0  0  0  0  0  0  0  0  0  0  0  0
   -1.0880    2.9553   -1.3632 H   0  0  0  0  0  0  0  0  0  0  0  0
   -1.6026    0.1794    1.0987 H   0  0  0  0  0  0  0  0  0  0  0  0
   -1.3381   -0.9949   -1.1452 H   0  0  0  0  0  0  0  0  0  0  0  0
   -3.0792    1.4080   -1.8135 H   0  0  0  0  0  0  0  0  0  0  0  0
   -1.6283    0.8294   -2.6152 H   0  0  0  0  0  0  0  0  0  0  0  0
   -3.1118   -0.1183   -2.7289 H   0  0  0  0  0  0  0  0  0  0  0  0
   -1.7306   -2.5509    0.5644 H   0  0  0  0  0  0  0  0  0  0  0  0
   -3.3633   -3.9652    1.7400 H   0  0  0  0  0  0  0  0  0  0  0  0
   -5.7639   -3.3365    1.7766 H   0  0  0  0  0  0  0  0  0  0  0  0
   -6.5184   -1.2861    0.6416 H   0  0  0  0  0  0  0  0  0  0  0  0
   -5.9190    0.5337   -0.4400 H   0  0  0  0  0  0  0  0  0  0  0  0
    2.8278   -1.4621    2.0842 H   0  0  0  0  0  0  0  0  0  0  0  0
    4.9393   -2.6995    2.0791 H   0  0  0  0  0  0  0  0  0  0  0  0
    6.7531   -2.0925    0.4966 H   0  0  0  0  0  0  0  0  0  0  0  0
    6.4127   -0.2310   -1.1100 H   0  0  0  0  0  0  0  0  0  0  0  0
    4.2910    1.0006   -1.1497 H   0  0  0  0  0  0  0  0  0  0  0  0
    2.6640    3.7485   -0.5894 H   0  0  0  0  0  0  0  0  0  0  0  0
    3.7354    2.7444    0.3796 H   0  0  0  0  0  0  0  0  0  0  0  0
    2.2193    3.3281    1.0829 H   0  0  0  0  0  0  0  0  0  0  0  0
  1  2  1  0
  2  3  2  0
  3  4  1  0
  4  5  1  0
  5  6  1  0
  5  7  1  0
  7  8  2  0
  8  9  1  0
  9 10  2  0
 10 11  1  0
 11 12  2  0
 12 13  1  0
  3 14  1  0
 14 15  2  0
 14 16  1  0
 16 17  1  0
 17 18  2  0
 18 19  1  0
 19 20  2  0
 20 21  1  0
 21 22  2  0
 16 23  1  0
 23 24  1  0
 23  2  1  0
 12  7  1  0
 22 17  1  0
  1 25  1  0
  1 26  1  0
  1 27  1  0
  4 28  1  0
  5 29  1  0
  6 30  1  0
  6 31  1  0
  6 32  1  0
  8 33  1  0
  9 34  1  0
 10 35  1  0
 11 36  1  0
 13 37  1  0
 18 38  1  0
 19 39  1  0
 20 40  1  0
 21 41  1  0
 22 42  1  0
 24 43  1  0
 24 44  1  0
 24 45  1  0
M  END
$$$$
