
     RDKit          3D

 55 58  0  0  0  0  0  0  0  0999 V2000
    5.6719   -4.1937    1.1103 N   0  0  0  0  0  0  0  0  0  0  0  0
    4.5026   -4.0484    0.4142 C   0  0  0  0  0  0  0  0  0  0  0  0
    4.1222   -4.9160   -0.3683 O   0  0  0  0  0  0  0  0  0  0  0  0
    3.7655   -2.8035    0.6906 C   0  0  0  0  0  0  0  0  0  0  0  0
    4.2328   -1.9508    1.6163 N   0  0  0  0  0  0  0  0  0  0  0  0
    3.1972   -0.6678    1.7437 S   0  0  0  0  0  0  0  0  0  0  0  0
    2.0974   -1.1796    0.5405 C   0  0  0  0  0  0  0  0  0  0  0  0
    0.8936   -0.4270    0.2255 C   0  0  0  0  0  0  0  0  0  0  0  0
   -0.1503   -0.9911   -0.1191 O   0  0  0  0  0  0  0  0  0  0  0  0
    0.9454    0.9726    0.3421 N   0  0  0  0  0  0  0  0  0  0  0  0
    1.9523    1.7306   -0.3536 C   0  0  0  0  0  0  0  0  0  0  0  0
    2.6144    1.1959   -1.4725 C   0  0  0  0  0  0  0  0  0  0  0  0
    3.5846    1.9335   -2.1570 C   0  0  0  0  0  0  0  0  0  0  0  0
    3.9107    3.2186   -1.7372 C   0  0  0  0  0  0  0  0  0  0  0  0
    3.2697    3.7630   -0.6291 C   0  0  0  0  0  0  0  0  0  0  0  0
    2.2988    3.0263    0.0571 C   0  0  0  0  0  0  0  0  0  0  0  0
   -0.2788    1.6937    0.7696 C   0  0  0  0  0  0  0  0  0  0  0  0
   -1.3213    1.9842   -0.3381 C   0  0  0  0  0  0  0  0  0  0  0  0
   -2.0221    2.9993   -0.3057 O   0  0  0  0  0  0  0  0  0  0  0  0
   -1.5051    1.0026   -1.2885 N   0  0  0  0  0  0  0  0  0  0  0  0
   -2.6101    1.0419   -2.2155 C   0  0  0  0  0  0  0  0  0  0  0  0
   -3.8228    0.3623   -1.6278 C   0  0  0  0  0  0  0  0  0  0  0  0
   -3.9223   -1.0389   -1.6321 C   0  0  0  0  0  0  0  0  0  0  0  0
   -5.0248   -1.6700   -1.0518 C   0  0  0  0  0  0  0  0  0  0  0  0
   -6.0230   -0.9014   -0.4631 C   0  0  0  0  0  0  0  0  0  0  0  0
   -7.0774   -1.5094    0.0984 F   0  0  0  0  0  0  0  0  0  0  0  0
   -5.9401    0.4861   -0.4401 C   0  0  0  0  0  0  0  0  0  0  0  0
   -4.8383    1.1193   -1.0197 C   0  0  0  0  0  0  0  0  0  0  0  0
   -0.9286    1.0184    1.9474 C   0  0  0  0  0  0  0  0  0  0  0  0
   -2.2209    0.6334    2.2557 C   0  0  0  0  0  0  0  0  0  0  0  0
   -2.1747    0.0542    3.5469 C   0  0  0  0  0  0  0  0  0  0  0  0
   -0.8635    0.1226    3.9515 C   0  0  0  0  0  0  0  0  0  0  0  0
   -0.1016    0.7121    2.9958 O   0  0  0  0  0  0  0  0  0  0  0  0
    2.5310   -2.3982    0.0556 C   0  0  0  0  0  0  0  0  0  0  0  0
    1.8801   -3.1053   -0.9047 N   0  0  0  0  0  0  0  0  0  0  0  0
    6.2517   -5.0014    0.9463 H   0  0  0  0  0  0  0  0  0  0  0  0
    5.9830   -3.4468    1.7213 H   0  0  0  0  0  0  0  0  0  0  0  0
    2.3694    0.2118   -1.8661 H   0  0  0  0  0  0  0  0  0  0  0  0
    4.0775    1.5050   -3.0263 H   0  0  0  0  0  0  0  0  0  0  0  0
    4.6641    3.7920   -2.2693 H   0  0  0  0  0  0  0  0  0  0  0  0
    3.5314    4.7622   -0.2878 H   0  0  0  0  0  0  0  0  0  0  0  0
    1.8647    3.4852    0.9401 H   0  0  0  0  0  0  0  0  0  0  0  0
    0.0133    2.6777    1.1474 H   0  0  0  0  0  0  0  0  0  0  0  0
   -1.1376    0.0802   -1.0607 H   0  0  0  0  0  0  0  0  0  0  0  0
   -2.8368    2.0784   -2.4934 H   0  0  0  0  0  0  0  0  0  0  0  0
   -2.2950    0.5213   -3.1262 H   0  0  0  0  0  0  0  0  0  0  0  0
   -3.1366   -1.6450   -2.0802 H   0  0  0  0  0  0  0  0  0  0  0  0
   -5.1080   -2.7529   -1.0509 H   0  0  0  0  0  0  0  0  0  0  0  0
   -6.7285    1.0650    0.0317 H   0  0  0  0  0  0  0  0  0  0  0  0
   -4.7670    2.2064   -0.9854 H   0  0  0  0  0  0  0  0  0  0  0  0
   -3.0946    0.7589    1.6283 H   0  0  0  0  0  0  0  0  0  0  0  0
   -2.9978   -0.3561    4.1137 H   0  0  0  0  0  0  0  0  0  0  0  0
   -0.3394   -0.1798    4.8468 H   0  0  0  0  0  0  0  0  0  0  0  0
    0.8817   -2.9563   -1.0601 H   0  0  0  0  0  0  0  0  0  0  0  0
    2.1600   -4.0752   -1.0776 H   0  0  0  0  0  0  0  0  0  0  0  0
  1  2  1  0
  2  3  2  0
  2  4  1  0
  4  5  2  0
  5  6  1  0
  6  7  1  0
  7  8  1  0
  8  9  2  0
  8 10  1  0
 10 11  1  0
 11 12  2  0
 12 13  1  0
 13 14  2  0
 14 15  1  0
 15 16  2  0
 10 17  1  0
 17 18  1  0
 18 19  2  0
 18 20  1  0
 20 21  1  0
 21 22  1  0
 22 23  2  0
 23 24  1  0
 24 25  2  0
 25 26  1  0
 25 27  1  0
 27 28  2  0
 17 29  1  0
 29 30  2  0
 30 31  1  0
 31 32  2  0
 32 33  1  0
  7 34  2  0
 34 35  1  0
 34  4  1  0
 16 11  1  0
 28 22  1  0
 33 29  1  0
  1 36  1  0
  1 37  1  0
 12 38  1  0
 13 39  1  0
 14 40  1  0
 15 41  1  0
 16 42  1  0
 17 43  1  0
 20 44  1  0
 21 45  1  0
 21 46  1  0
 23 47  1  0
 24 48  1  0
 27 49  1  0
 28 50  1  0
 30 51  1  0
 31 52  1  0
 32 53  1  0
 35 54  1  0
 35 55  1  0
M  END
$$$$
