
     RDKit          3D

 48 51  0  0  0  0  0  0  0  0999 V2000
    7.3684   -1.5509   -0.8956 C   0  0  0  0  0  0  0  0  0  0  0  0
    5.9794   -0.9875   -0.8788 C   0  0  0  0  0  0  0  0  0  0  0  0
    5.0844   -1.2491   -1.9109 C   0  0  0  0  0  0  0  0  0  0  0  0
    3.7875   -0.7260   -1.8698 C   0  0  0  0  0  0  0  0  0  0  0  0
    3.3498    0.0660   -0.8159 C   0  0  0  0  0  0  0  0  0  0  0  0
    2.0941    0.5434   -0.8255 N   0  0  0  0  0  0  0  0  0  0  0  0
    1.6868    1.3446    0.1827 C   0  0  0  0  0  0  0  0  0  0  0  0
    0.0099    1.9548    0.0654 S   0  0  0  0  0  0  0  0  0  0  0  0
   -0.7093    0.6940   -1.0321 C   0  0  0  0  0  0  0  0  0  0  0  0
   -2.2167    0.8885   -1.1226 C   0  0  0  0  0  0  0  0  0  0  0  0
   -2.6474    1.8084   -1.8267 O   0  0  0  0  0  0  0  0  0  0  0  0
   -3.0332   -0.0020   -0.4317 N   0  0  0  0  0  0  0  0  0  0  0  0
   -4.4493    0.0078   -0.4892 C   0  0  0  0  0  0  0  0  0  0  0  0
   -5.3032    0.9102   -1.1017 C   0  0  0  0  0  0  0  0  0  0  0  0
   -6.6846    0.6874   -1.0293 C   0  0  0  0  0  0  0  0  0  0  0  0
   -7.1969   -0.4340   -0.3678 C   0  0  0  0  0  0  0  0  0  0  0  0
   -6.3352   -1.3444    0.2337 C   0  0  0  0  0  0  0  0  0  0  0  0
   -4.9686   -1.1060    0.1711 C   0  0  0  0  0  0  0  0  0  0  0  0
   -3.8781   -1.9900    0.6854 C   0  0  0  0  0  0  0  0  0  0  0  0
   -2.6239   -1.1124    0.4758 C   0  0  0  0  0  0  0  0  0  0  0  0
   -2.1221   -0.5875    1.8251 C   0  0  0  0  0  0  0  0  0  0  0  0
    2.5157    1.6983    1.2505 C   0  0  0  0  0  0  0  0  0  0  0  0
    2.0762    2.6105    2.3606 C   0  0  0  0  0  0  0  0  0  0  0  0
    3.8117    1.1684    1.2600 C   0  0  0  0  0  0  0  0  0  0  0  0
    4.2524    0.3416    0.2191 C   0  0  0  0  0  0  0  0  0  0  0  0
    5.5553   -0.1910    0.1890 C   0  0  0  0  0  0  0  0  0  0  0  0
    7.5049   -2.2407   -0.0578 H   0  0  0  0  0  0  0  0  0  0  0  0
    8.1033   -0.7447   -0.8245 H   0  0  0  0  0  0  0  0  0  0  0  0
    7.5657   -2.1029   -1.8198 H   0  0  0  0  0  0  0  0  0  0  0  0
    5.3844   -1.8516   -2.7650 H   0  0  0  0  0  0  0  0  0  0  0  0
    3.1058   -0.9271   -2.6873 H   0  0  0  0  0  0  0  0  0  0  0  0
   -0.4450   -0.3087   -0.7115 H   0  0  0  0  0  0  0  0  0  0  0  0
   -0.3077    0.8289   -2.0387 H   0  0  0  0  0  0  0  0  0  0  0  0
   -4.9313    1.7786   -1.6393 H   0  0  0  0  0  0  0  0  0  0  0  0
   -7.3624    1.3880   -1.5081 H   0  0  0  0  0  0  0  0  0  0  0  0
   -8.2713   -0.5965   -0.3385 H   0  0  0  0  0  0  0  0  0  0  0  0
   -6.7253   -2.2319    0.7158 H   0  0  0  0  0  0  0  0  0  0  0  0
   -3.8177   -2.8981    0.0711 H   0  0  0  0  0  0  0  0  0  0  0  0
   -4.0360   -2.2713    1.7309 H   0  0  0  0  0  0  0  0  0  0  0  0
   -1.8383   -1.7070   -0.0008 H   0  0  0  0  0  0  0  0  0  0  0  0
   -1.1534   -0.0939    1.7307 H   0  0  0  0  0  0  0  0  0  0  0  0
   -1.9931   -1.4046    2.5478 H   0  0  0  0  0  0  0  0  0  0  0  0
   -2.8211    0.1440    2.2516 H   0  0  0  0  0  0  0  0  0  0  0  0
    2.8667    2.7437    3.1061 H   0  0  0  0  0  0  0  0  0  0  0  0
    1.2049    2.1894    2.8795 H   0  0  0  0  0  0  0  0  0  0  0  0
    1.8307    3.5996    1.9671 H   0  0  0  0  0  0  0  0  0  0  0  0
    4.4868    1.4155    2.0703 H   0  0  0  0  0  0  0  0  0  0  0  0
    6.2464    0.0257    0.9996 H   0  0  0  0  0  0  0  0  0  0  0  0
  1  2  1  0
  2  3  2  0
  3  4  1  0
  4  5  2  0
  5  6  1  0
  6  7  2  0
  7  8  1  0
  8  9  1  0
  9 10  1  0
 10 11  2  0
 10 12  1  0
 12 13  1  0
 13 14  2  0
 14 15  1  0
 15 16  2  0
 16 17  1  0
 17 18  2  0
 18 19  1  0
 19 20  1  0
 20 21  1  0
  7 22  1  0
 22 23  1  0
 22 24  2  0
 24 25  1  0
 25 26  2  0
 26  2  1  0
 25  5  1  0
 20 12  1  0
 18 13  1  0
  1 27  1  0
  1 28  1  0
  1 29  1  0
  3 30  1  0
  4 31  1  0
  9 32  1  0
  9 33  1  0
 14 34  1  0
 15 35  1  0
 16 36  1  0
 17 37  1  0
 19 38  1  0
 19 39  1  0
 20 40  1  0
 21 41  1  0
 21 42  1  0
 21 43  1  0
 23 44  1  0
 23 45  1  0
 23 46  1  0
 24 47  1  0
 26 48  1  0
M  END
$$$$
