
     RDKit          3D

 63 67  0  0  0  0  0  0  0  0999 V2000
   -7.7862   -1.1324    3.9440 Cl  0  0  0  0  0  0  0  0  0  0  0  0
   -6.1753   -1.2011    3.3493 C   0  0  0  0  0  0  0  0  0  0  0  0
   -5.7841   -0.3601    2.3121 C   0  0  0  0  0  0  0  0  0  0  0  0
   -4.4758   -0.4163    1.8183 C   0  0  0  0  0  0  0  0  0  0  0  0
   -3.5403   -1.3162    2.3571 C   0  0  0  0  0  0  0  0  0  0  0  0
   -2.1006   -1.4112    1.8719 C   0  0  0  0  0  0  0  0  0  0  0  0
   -1.0484   -0.7546    2.7563 C   0  0  0  0  0  0  0  0  0  0  0  0
   -1.3260    0.3321    3.6042 C   0  0  0  0  0  0  0  0  0  0  0  0
   -0.3068    0.9318    4.3524 C   0  0  0  0  0  0  0  0  0  0  0  0
    0.9988    0.4558    4.2590 C   0  0  0  0  0  0  0  0  0  0  0  0
    2.2523    1.2087    5.1600 Cl  0  0  0  0  0  0  0  0  0  0  0  0
    1.2935   -0.6241    3.4342 C   0  0  0  0  0  0  0  0  0  0  0  0
    0.2764   -1.2245    2.6879 C   0  0  0  0  0  0  0  0  0  0  0  0
   -1.9683   -0.8943    0.4931 N   0  0  0  0  0  0  0  0  0  0  0  0
   -2.1774   -1.6420   -0.6613 C   0  0  0  0  0  0  0  0  0  0  0  0
   -1.8969   -0.8267   -1.7204 C   0  0  0  0  0  0  0  0  0  0  0  0
   -1.5336    0.4029   -1.1917 N   0  0  0  0  0  4  0  0  0  0  0  0
   -1.1475    1.5893   -1.9752 C   0  0  0  0  0  0  0  0  0  0  0  0
    0.2970    1.5775   -2.5482 C   0  0  0  0  0  0  0  0  0  0  0  0
    0.4856    0.4084   -3.3497 O   0  0  0  0  0  0  0  0  0  0  0  0
    1.4820    0.5295   -4.3677 C   0  0  0  0  0  0  0  0  0  0  0  0
    2.7039   -0.2739   -4.0102 C   0  0  0  0  0  0  0  0  0  0  0  0
    3.8968    0.3984   -3.6841 C   0  0  0  0  0  0  0  0  0  0  0  0
    5.0395   -0.3151   -3.3154 C   0  0  0  0  0  0  0  0  0  0  0  0
    5.0035   -1.7067   -3.2769 C   0  0  0  0  0  0  0  0  0  0  0  0
    6.4106   -2.5829   -2.8150 Cl  0  0  0  0  0  0  0  0  0  0  0  0
    3.8373   -2.3938   -3.6034 C   0  0  0  0  0  0  0  0  0  0  0  0
    2.6925   -1.6795   -3.9669 C   0  0  0  0  0  0  0  0  0  0  0  0
    1.2661   -2.5854   -4.3311 Cl  0  0  0  0  0  0  0  0  0  0  0  0
    1.3529    1.7988   -1.4706 C   0  0  0  0  0  0  0  0  0  0  0  0
    1.7989    3.1261   -1.2798 C   0  0  0  0  0  0  0  0  0  0  0  0
    2.7473    3.4431   -0.3060 C   0  0  0  0  0  0  0  0  0  0  0  0
    3.2671    2.4416    0.5029 C   0  0  0  0  0  0  0  0  0  0  0  0
    4.4149    2.8323    1.7215 Cl  0  0  0  0  0  0  0  0  0  0  0  0
    2.8517    1.1263    0.3367 C   0  0  0  0  0  0  0  0  0  0  0  0
    1.9025    0.8021   -0.6426 C   0  0  0  0  0  0  0  0  0  0  0  0
    1.4634   -0.8637   -0.7417 Cl  0  0  0  0  0  0  0  0  0  0  0  0
   -1.5604    0.3379    0.1482 C   0  0  0  0  0  0  0  0  0  0  0  0
   -3.9576   -2.1522    3.4136 C   0  0  0  0  0  0  0  0  0  0  0  0
   -5.2663   -2.0959    3.9045 C   0  0  0  0  0  0  0  0  0  0  0  0
   -6.4963    0.3410    1.8835 H   0  0  0  0  0  0  0  0  0  0  0  0
   -4.2133    0.2547    1.0059 H   0  0  0  0  0  0  0  0  0  0  0  0
   -1.8618   -2.4825    1.8182 H   0  0  0  0  0  0  0  0  0  0  0  0
   -2.3347    0.7282    3.7081 H   0  0  0  0  0  0  0  0  0  0  0  0
   -0.5364    1.7658    5.0125 H   0  0  0  0  0  0  0  0  0  0  0  0
    2.3110   -1.0046    3.3716 H   0  0  0  0  0  0  0  0  0  0  0  0
    0.5334   -2.0670    2.0442 H   0  0  0  0  0  0  0  0  0  0  0  0
   -2.4942   -2.6687   -0.5760 H   0  0  0  0  0  0  0  0  0  0  0  0
   -1.8969   -0.9630   -2.7889 H   0  0  0  0  0  0  0  0  0  0  0  0
   -1.8595    1.6434   -2.8115 H   0  0  0  0  0  0  0  0  0  0  0  0
   -1.3095    2.4770   -1.3498 H   0  0  0  0  0  0  0  0  0  0  0  0
    0.3274    2.4384   -3.2305 H   0  0  0  0  0  0  0  0  0  0  0  0
    1.7380    1.5785   -4.5672 H   0  0  0  0  0  0  0  0  0  0  0  0
    1.0551    0.1428   -5.3012 H   0  0  0  0  0  0  0  0  0  0  0  0
    3.9478    1.4860   -3.7081 H   0  0  0  0  0  0  0  0  0  0  0  0
    5.9545    0.2190   -3.0604 H   0  0  0  0  0  0  0  0  0  0  0  0
    3.8214   -3.4798   -3.5700 H   0  0  0  0  0  0  0  0  0  0  0  0
    1.4151    3.9409   -1.8953 H   0  0  0  0  0  0  0  0  0  0  0  0
    3.0779    4.4725   -0.1857 H   0  0  0  0  0  0  0  0  0  0  0  0
    3.2752    0.3500    0.9708 H   0  0  0  0  0  0  0  0  0  0  0  0
   -1.3007    1.1474    0.8213 H   0  0  0  0  0  0  0  0  0  0  0  0
   -3.2655   -2.8593    3.8723 H   0  0  0  0  0  0  0  0  0  0  0  0
   -5.5704   -2.7510    4.7201 H   0  0  0  0  0  0  0  0  0  0  0  0
  1  2  1  0
  2  3  2  0
  3  4  1  0
  4  5  2  0
  5  6  1  0
  6  7  1  0
  7  8  2  0
  8  9  1  0
  9 10  2  0
 10 11  1  0
 10 12  1  0
 12 13  2  0
  6 14  1  0
 14 15  1  0
 15 16  2  0
 16 17  1  0
 17 18  1  0
 18 19  1  0
 19 20  1  0
 20 21  1  0
 21 22  1  0
 22 23  2  0
 23 24  1  0
 24 25  2  0
 25 26  1  0
 25 27  1  0
 27 28  2  0
 28 29  1  0
 19 30  1  0
 30 31  2  0
 31 32  1  0
 32 33  2  0
 33 34  1  0
 33 35  1  0
 35 36  2  0
 36 37  1  0
 17 38  2  0
  5 39  1  0
 39 40  2  0
 40  2  1  0
 13  7  1  0
 38 14  1  0
 28 22  1  0
 36 30  1  0
  3 41  1  0
  4 42  1  0
  6 43  1  0
  8 44  1  0
  9 45  1  0
 12 46  1  0
 13 47  1  0
 15 48  1  0
 16 49  1  0
 18 50  1  0
 18 51  1  0
 19 52  1  0
 21 53  1  0
 21 54  1  0
 23 55  1  0
 24 56  1  0
 27 57  1  0
 31 58  1  0
 32 59  1  0
 35 60  1  0
 38 61  1  0
 39 62  1  0
 40 63  1  0
M  CHG  1  17   1
M  END
$$$$
