
     RDKit          3D

 51 53  0  0  0  0  0  0  0  0999 V2000
   -1.7794    0.9718   -3.5225 C   0  0  0  0  0  0  0  0  0  0  0  0
   -0.5210    0.1766   -3.2823 C   0  0  0  0  0  0  0  0  0  0  0  0
    0.3226   -0.0599   -4.3815 C   0  0  0  0  0  0  0  0  0  0  0  0
    1.5047   -0.7807   -4.2330 C   0  0  0  0  0  0  0  0  0  0  0  0
    1.8719   -1.2663   -2.9813 C   0  0  0  0  0  0  0  0  0  0  0  0
    3.0676   -2.0179   -2.9016 N   0  0  0  0  0  0  0  0  0  0  0  0
    3.7118   -2.4764   -1.8015 C   0  0  0  0  0  0  0  0  0  0  0  0
    4.4409   -3.9820   -1.8435 S   0  0  0  0  0  0  0  0  0  0  0  0
    3.8208   -1.7332   -0.6631 N   0  0  0  0  0  0  0  0  0  0  0  0
    3.9013   -0.3476   -0.5459 C   0  0  0  0  0  0  0  0  0  0  0  0
    3.8075    0.4633   -1.4596 O   0  0  0  0  0  0  0  0  0  0  0  0
    4.1377    0.1637    0.8315 C   0  0  0  0  0  0  0  0  0  0  0  0
    3.4922    1.3471    1.2119 C   0  0  0  0  0  0  0  0  0  0  0  0
    3.6798    1.8678    2.4927 C   0  0  0  0  0  0  0  0  0  0  0  0
    4.5214    1.2154    3.3927 C   0  0  0  0  0  0  0  0  0  0  0  0
    5.1831    0.0475    3.0121 C   0  0  0  0  0  0  0  0  0  0  0  0
    4.9979   -0.4790    1.7313 C   0  0  0  0  0  0  0  0  0  0  0  0
    1.0172   -1.0612   -1.8886 C   0  0  0  0  0  0  0  0  0  0  0  0
   -0.1734   -0.3340   -2.0087 C   0  0  0  0  0  0  0  0  0  0  0  0
   -1.0711   -0.1034   -0.9334 N   0  0  0  0  0  0  0  0  0  0  0  0
   -1.0389   -0.3525    0.4191 C   0  0  0  0  0  0  0  0  0  0  0  0
    0.1612   -1.0025    1.3820 S   0  0  0  0  0  0  0  0  0  0  0  0
   -2.2009    0.0024    1.0960 N   0  0  0  0  0  0  0  0  0  0  0  0
   -3.3639    0.5857    0.6086 C   0  0  0  0  0  0  0  0  0  0  0  0
   -3.4931    0.9767   -0.5481 O   0  0  0  0  0  0  0  0  0  0  0  0
   -4.4654    0.7714    1.5905 C   0  0  0  0  0  0  0  0  0  0  0  0
   -4.6740   -0.1212    2.6505 C   0  0  0  0  0  0  0  0  0  0  0  0
   -5.7234    0.0958    3.5467 C   0  0  0  0  0  0  0  0  0  0  0  0
   -6.5685    1.1936    3.3834 C   0  0  0  0  0  0  0  0  0  0  0  0
   -6.3746    2.0737    2.3194 C   0  0  0  0  0  0  0  0  0  0  0  0
   -5.3284    1.8613    1.4205 C   0  0  0  0  0  0  0  0  0  0  0  0
   -2.6618    0.3533   -3.3300 H   0  0  0  0  0  0  0  0  0  0  0  0
   -1.8450    1.3217   -4.5586 H   0  0  0  0  0  0  0  0  0  0  0  0
   -1.7984    1.8592   -2.8816 H   0  0  0  0  0  0  0  0  0  0  0  0
    0.0655    0.3255   -5.3660 H   0  0  0  0  0  0  0  0  0  0  0  0
    2.1426   -0.9336   -5.0990 H   0  0  0  0  0  0  0  0  0  0  0  0
    3.3527   -2.4576   -3.7691 H   0  0  0  0  0  0  0  0  0  0  0  0
    4.1373   -2.2737    0.1273 H   0  0  0  0  0  0  0  0  0  0  0  0
    2.8362    1.8595    0.5102 H   0  0  0  0  0  0  0  0  0  0  0  0
    3.1712    2.7829    2.7852 H   0  0  0  0  0  0  0  0  0  0  0  0
    4.6696    1.6237    4.3895 H   0  0  0  0  0  0  0  0  0  0  0  0
    5.8524   -0.4470    3.7123 H   0  0  0  0  0  0  0  0  0  0  0  0
    5.5559   -1.3666    1.4489 H   0  0  0  0  0  0  0  0  0  0  0  0
    1.2808   -1.5253   -0.9534 H   0  0  0  0  0  0  0  0  0  0  0  0
   -1.9240    0.3854   -1.2045 H   0  0  0  0  0  0  0  0  0  0  0  0
   -2.1380   -0.1734    2.0893 H   0  0  0  0  0  0  0  0  0  0  0  0
   -4.0553   -1.0048    2.7804 H   0  0  0  0  0  0  0  0  0  0  0  0
   -5.8910   -0.5975    4.3680 H   0  0  0  0  0  0  0  0  0  0  0  0
   -7.3870    1.3580    4.0806 H   0  0  0  0  0  0  0  0  0  0  0  0
   -7.0406    2.9230    2.1868 H   0  0  0  0  0  0  0  0  0  0  0  0
   -5.1870    2.5495    0.5892 H   0  0  0  0  0  0  0  0  0  0  0  0
  1  2  1  0
  2  3  2  0
  3  4  1  0
  4  5  2  0
  5  6  1  0
  6  7  1  0
  7  8  2  0
  7  9  1  0
  9 10  1  0
 10 11  2  0
 10 12  1  0
 12 13  2  0
 13 14  1  0
 14 15  2  0
 15 16  1  0
 16 17  2  0
  5 18  1  0
 18 19  2  0
 19 20  1  0
 20 21  1  0
 21 22  2  0
 21 23  1  0
 23 24  1  0
 24 25  2  0
 24 26  1  0
 26 27  2  0
 27 28  1  0
 28 29  2  0
 29 30  1  0
 30 31  2  0
 19  2  1  0
 31 26  1  0
 17 12  1  0
  1 32  1  0
  1 33  1  0
  1 34  1  0
  3 35  1  0
  4 36  1  0
  6 37  1  0
  9 38  1  0
 13 39  1  0
 14 40  1  0
 15 41  1  0
 16 42  1  0
 17 43  1  0
 18 44  1  0
 20 45  1  0
 23 46  1  0
 27 47  1  0
 28 48  1  0
 29 49  1  0
 30 50  1  0
 31 51  1  0
M  END
$$$$
