
     RDKit          3D

 49 50  0  0  0  0  0  0  0  0999 V2000
   -4.1136   -2.9338    0.3688 C   0  0  0  0  0  0  0  0  0  0  0  0
   -4.1661   -1.5310    0.1394 O   0  0  0  0  0  0  0  0  0  0  0  0
   -3.1483   -0.7769    0.6707 C   0  0  0  0  0  0  0  0  0  0  0  0
   -2.3260   -1.2018    1.7191 C   0  0  0  0  0  0  0  0  0  0  0  0
   -1.3062   -0.3734    2.1974 C   0  0  0  0  0  0  0  0  0  0  0  0
   -0.4212   -0.8324    3.2672 C   0  0  0  0  0  0  0  0  0  0  0  0
    0.6969   -1.5605    3.1207 C   0  0  0  0  0  0  0  0  0  0  0  0
    1.3050   -2.0868    1.8808 C   0  0  0  0  0  0  0  0  0  0  0  0
    2.5123   -2.2310    1.7712 O   0  0  0  0  0  0  0  0  0  0  0  0
    0.3747   -2.4203    0.9571 O   0  0  0  0  0  0  0  0  0  0  0  0
    0.9076   -2.9279   -0.2710 C   0  0  0  0  0  0  0  0  0  0  0  0
    1.4678   -1.8275   -1.1727 C   0  0  0  0  0  0  0  0  0  0  0  0
    2.4033   -2.0166   -1.9435 O   0  0  0  0  0  0  0  0  0  0  0  0
    0.7929   -0.6301   -1.0674 N   0  0  0  0  0  0  0  0  0  0  0  0
    1.2321    0.5823   -1.7303 C   0  0  0  0  0  0  0  0  0  0  0  0
    2.2477    1.3703   -0.8962 C   0  0  0  0  0  0  0  0  0  0  0  0
    3.6480    0.7783   -0.8726 C   0  0  0  0  0  0  0  0  0  0  0  0
    4.4898    1.9981   -0.5941 C   0  0  0  0  0  0  0  0  0  0  0  0
    3.7803    3.0518   -1.4142 C   0  0  0  0  0  0  0  0  0  0  0  0
    2.3857    2.7115   -1.4086 O   0  0  0  0  0  0  0  0  0  0  0  0
   -1.1271    0.8942    1.6412 C   0  0  0  0  0  0  0  0  0  0  0  0
   -1.9565    1.3346    0.6056 C   0  0  0  0  0  0  0  0  0  0  0  0
   -2.9737    0.5083    0.1189 C   0  0  0  0  0  0  0  0  0  0  0  0
   -3.8167    0.8313   -0.9131 O   0  0  0  0  0  0  0  0  0  0  0  0
   -3.9392    2.2017   -1.3037 C   0  0  0  0  0  0  0  0  0  0  0  0
   -2.9581    2.5722   -2.3347 C   0  0  0  0  0  0  0  0  0  0  0  0
   -2.1777    2.8967   -3.1313 N   0  0  0  0  0  0  0  0  0  0  0  0
   -4.8702   -3.4044   -0.2665 H   0  0  0  0  0  0  0  0  0  0  0  0
   -3.1397   -3.3480    0.0904 H   0  0  0  0  0  0  0  0  0  0  0  0
   -4.3609   -3.1665    1.4079 H   0  0  0  0  0  0  0  0  0  0  0  0
   -2.4580   -2.1782    2.1757 H   0  0  0  0  0  0  0  0  0  0  0  0
   -0.7058   -0.4990    4.2634 H   0  0  0  0  0  0  0  0  0  0  0  0
    1.3032   -1.7679    3.9985 H   0  0  0  0  0  0  0  0  0  0  0  0
    0.0897   -3.4187   -0.8096 H   0  0  0  0  0  0  0  0  0  0  0  0
    1.6811   -3.6799   -0.0768 H   0  0  0  0  0  0  0  0  0  0  0  0
    0.0369   -0.5690   -0.3954 H   0  0  0  0  0  0  0  0  0  0  0  0
    0.3382    1.1940   -1.8977 H   0  0  0  0  0  0  0  0  0  0  0  0
    1.6412    0.3413   -2.7183 H   0  0  0  0  0  0  0  0  0  0  0  0
    1.8755    1.4736    0.1310 H   0  0  0  0  0  0  0  0  0  0  0  0
    3.7665   -0.0073   -0.1219 H   0  0  0  0  0  0  0  0  0  0  0  0
    3.9180    0.3650   -1.8520 H   0  0  0  0  0  0  0  0  0  0  0  0
    4.4364    2.2517    0.4714 H   0  0  0  0  0  0  0  0  0  0  0  0
    5.5416    1.8797   -0.8675 H   0  0  0  0  0  0  0  0  0  0  0  0
    4.1219    3.0374   -2.4547 H   0  0  0  0  0  0  0  0  0  0  0  0
    3.9158    4.0607   -1.0148 H   0  0  0  0  0  0  0  0  0  0  0  0
   -0.3362    1.5491    2.0023 H   0  0  0  0  0  0  0  0  0  0  0  0
   -1.7600    2.3189    0.1930 H   0  0  0  0  0  0  0  0  0  0  0  0
   -3.9041    2.8749   -0.4384 H   0  0  0  0  0  0  0  0  0  0  0  0
   -4.9445    2.3113   -1.7263 H   0  0  0  0  0  0  0  0  0  0  0  0
  1  2  1  0
  2  3  1  0
  3  4  2  0
  4  5  1  0
  5  6  1  0
  6  7  2  3
  7  8  1  0
  8  9  2  0
  8 10  1  0
 10 11  1  0
 11 12  1  0
 12 13  2  0
 12 14  1  0
 14 15  1  0
 15 16  1  0
 16 17  1  0
 17 18  1  0
 18 19  1  0
 19 20  1  0
  5 21  2  0
 21 22  1  0
 22 23  2  0
 23 24  1  0
 24 25  1  0
 25 26  1  0
 26 27  3  0
 23  3  1  0
 20 16  1  0
  1 28  1  0
  1 29  1  0
  1 30  1  0
  4 31  1  0
  6 32  1  0
  7 33  1  0
 11 34  1  0
 11 35  1  0
 14 36  1  0
 15 37  1  0
 15 38  1  0
 16 39  1  0
 17 40  1  0
 17 41  1  0
 18 42  1  0
 18 43  1  0
 19 44  1  0
 19 45  1  0
 21 46  1  0
 22 47  1  0
 25 48  1  0
 25 49  1  0
M  END
$$$$
