
     RDKit          3D

 32 34  0  0  0  0  0  0  0  0999 V2000
    0.4345   -2.4553    2.2052 N   0  0  0  0  0  0  0  0  0  0  0  0
    0.8676   -1.6815    1.1095 C   0  0  0  0  0  0  0  0  0  0  0  0
    2.2279   -1.3661    1.0012 C   0  0  0  0  0  0  0  0  0  0  0  0
    2.6813   -0.5011    0.0045 C   0  0  0  0  0  0  0  0  0  0  0  0
    1.7779    0.0654   -0.8977 C   0  0  0  0  0  0  0  0  0  0  0  0
    0.4147   -0.1801   -0.7663 C   0  0  0  0  0  0  0  0  0  0  0  0
   -0.0429   -1.0237    0.2565 C   0  0  0  0  0  0  0  0  0  0  0  0
   -1.5001   -1.2757    0.3943 C   0  0  0  0  0  0  0  0  0  0  0  0
   -1.8963   -2.4268    0.5680 O   0  0  0  0  0  0  0  0  0  0  0  0
   -2.4846   -0.1643    0.3305 C   0  0  0  0  0  0  0  0  0  0  0  0
   -3.7740   -0.4426   -0.1417 C   0  0  0  0  0  0  0  0  0  0  0  0
   -4.7310    0.5710   -0.2100 C   0  0  0  0  0  0  0  0  0  0  0  0
   -4.4064    1.8630    0.2030 C   0  0  0  0  0  0  0  0  0  0  0  0
   -3.1280    2.1331    0.6910 C   0  0  0  0  0  0  0  0  0  0  0  0
   -2.6976    3.8826    1.2659 Br  0  0  0  0  0  0  0  0  0  0  0  0
   -2.1643    1.1274    0.7640 C   0  0  0  0  0  0  0  0  0  0  0  0
    2.1578    0.8902   -1.9249 O   0  0  0  0  0  0  0  0  0  0  0  0
    3.5688    0.8133   -2.1621 C   0  0  0  0  0  0  0  0  0  0  0  0
    4.3363    0.8774   -0.8519 C   0  0  0  0  0  0  0  0  0  0  0  0
    4.0305   -0.2562   -0.0314 O   0  0  0  0  0  0  0  0  0  0  0  0
    1.1090   -3.1529    2.5040 H   0  0  0  0  0  0  0  0  0  0  0  0
   -0.4806   -2.8815    2.0171 H   0  0  0  0  0  0  0  0  0  0  0  0
    2.9449   -1.7878    1.7006 H   0  0  0  0  0  0  0  0  0  0  0  0
   -0.2764    0.2762   -1.4696 H   0  0  0  0  0  0  0  0  0  0  0  0
   -4.0346   -1.4516   -0.4574 H   0  0  0  0  0  0  0  0  0  0  0  0
   -5.7295    0.3511   -0.5804 H   0  0  0  0  0  0  0  0  0  0  0  0
   -5.1572    2.6476    0.1493 H   0  0  0  0  0  0  0  0  0  0  0  0
   -1.1826    1.3512    1.1727 H   0  0  0  0  0  0  0  0  0  0  0  0
    3.8435    1.6564   -2.8037 H   0  0  0  0  0  0  0  0  0  0  0  0
    3.7806   -0.1149   -2.7071 H   0  0  0  0  0  0  0  0  0  0  0  0
    4.0968    1.7887   -0.2901 H   0  0  0  0  0  0  0  0  0  0  0  0
    5.4139    0.8674   -1.0432 H   0  0  0  0  0  0  0  0  0  0  0  0
  1  2  1  0
  2  3  2  0
  3  4  1  0
  4  5  2  0
  5  6  1  0
  6  7  2  0
  7  8  1  0
  8  9  2  0
  8 10  1  0
 10 11  2  0
 11 12  1  0
 12 13  2  0
 13 14  1  0
 14 15  1  0
 14 16  2  0
  5 17  1  0
 17 18  1  0
 18 19  1  0
 19 20  1  0
  7  2  1  0
 16 10  1  0
 20  4  1  0
  1 21  1  0
  1 22  1  0
  3 23  1  0
  6 24  1  0
 11 25  1  0
 12 26  1  0
 13 27  1  0
 16 28  1  0
 18 29  1  0
 18 30  1  0
 19 31  1  0
 19 32  1  0
M  END
$$$$
