
     RDKit          3D

 47 48  0  0  0  0  0  0  0  0999 V2000
    4.0294    0.4768    0.1095 C   0  0  0  0  0  0  0  0  0  0  0  0
    2.7226    0.5342    0.6896 O   0  0  0  0  0  0  0  0  0  0  0  0
    1.9823    1.5121    0.0750 C   0  0  0  0  0  0  0  0  0  0  0  0
    1.9081    2.7574    0.7018 C   0  0  0  0  0  0  0  0  0  0  0  0
    1.1503    3.7805    0.1295 C   0  0  0  0  0  0  0  0  0  0  0  0
    0.4592    3.5584   -1.0623 C   0  0  0  0  0  0  0  0  0  0  0  0
    0.5115    2.3066   -1.6774 C   0  0  0  0  0  0  0  0  0  0  0  0
    1.2555    1.2717   -1.0975 C   0  0  0  0  0  0  0  0  0  0  0  0
    1.2548   -0.0431   -1.7821 C   0  0  0  0  0  0  0  0  0  0  0  0
    1.6221   -0.0551   -2.9557 O   0  0  0  0  0  0  0  0  0  0  0  0
    0.8443   -1.1739   -1.0662 N   0  0  0  0  0  0  0  0  0  0  0  0
    0.2928   -1.0335    0.2281 N   0  0  0  0  0  0  0  0  0  0  0  0
   -0.9864   -0.5427    0.3841 C   0  0  0  0  0  0  0  0  0  0  0  0
   -1.8190   -0.4480   -0.5090 O   0  0  0  0  0  0  0  0  0  0  0  0
   -1.1581   -0.1583    1.7059 O   0  0  0  0  0  0  0  0  0  0  0  0
   -2.3816    0.4637    1.9649 C   0  0  0  0  0  0  0  0  0  0  0  0
   -2.5927    1.7836    1.5676 C   0  0  0  0  0  0  0  0  0  0  0  0
   -3.8004    2.4032    1.8852 C   0  0  0  0  0  0  0  0  0  0  0  0
   -4.7744    1.7077    2.6063 C   0  0  0  0  0  0  0  0  0  0  0  0
   -4.5429    0.3915    3.0144 C   0  0  0  0  0  0  0  0  0  0  0  0
   -3.3378   -0.2348    2.6994 C   0  0  0  0  0  0  0  0  0  0  0  0
    0.7760   -2.5477   -1.6408 C   0  0  0  0  0  0  0  0  0  0  0  0
    2.1709   -2.9690   -2.1499 C   0  0  0  0  0  0  0  0  0  0  0  0
   -0.2280   -2.5919   -2.8084 C   0  0  0  0  0  0  0  0  0  0  0  0
    0.3404   -3.6155   -0.6062 C   0  0  0  0  0  0  0  0  0  0  0  0
    3.9870    0.1914   -0.9463 H   0  0  0  0  0  0  0  0  0  0  0  0
    4.5964   -0.2919    0.6433 H   0  0  0  0  0  0  0  0  0  0  0  0
    4.5552    1.4306    0.2281 H   0  0  0  0  0  0  0  0  0  0  0  0
    2.4434    2.9337    1.6309 H   0  0  0  0  0  0  0  0  0  0  0  0
    1.1005    4.7539    0.6120 H   0  0  0  0  0  0  0  0  0  0  0  0
   -0.1263    4.3577   -1.5110 H   0  0  0  0  0  0  0  0  0  0  0  0
   -0.0376    2.1304   -2.6005 H   0  0  0  0  0  0  0  0  0  0  0  0
    0.9550   -0.8370    0.9731 H   0  0  0  0  0  0  0  0  0  0  0  0
   -1.8322    2.3216    1.0106 H   0  0  0  0  0  0  0  0  0  0  0  0
   -3.9845    3.4271    1.5711 H   0  0  0  0  0  0  0  0  0  0  0  0
   -5.7164    2.1925    2.8508 H   0  0  0  0  0  0  0  0  0  0  0  0
   -5.3026   -0.1438    3.5784 H   0  0  0  0  0  0  0  0  0  0  0  0
   -3.1508   -1.2548    3.0196 H   0  0  0  0  0  0  0  0  0  0  0  0
    2.5173   -2.3455   -2.9794 H   0  0  0  0  0  0  0  0  0  0  0  0
    2.1670   -4.0043   -2.5097 H   0  0  0  0  0  0  0  0  0  0  0  0
    2.9165   -2.8935   -1.3498 H   0  0  0  0  0  0  0  0  0  0  0  0
   -1.2265   -2.2822   -2.4807 H   0  0  0  0  0  0  0  0  0  0  0  0
    0.0652   -1.9309   -3.6300 H   0  0  0  0  0  0  0  0  0  0  0  0
   -0.3111   -3.6042   -3.2208 H   0  0  0  0  0  0  0  0  0  0  0  0
    0.3456   -4.6192   -1.0476 H   0  0  0  0  0  0  0  0  0  0  0  0
   -0.6757   -3.4330   -0.2381 H   0  0  0  0  0  0  0  0  0  0  0  0
    1.0157   -3.6324    0.2572 H   0  0  0  0  0  0  0  0  0  0  0  0
  1  2  1  0
  2  3  1  0
  3  4  2  0
  4  5  1  0
  5  6  2  0
  6  7  1  0
  7  8  2  0
  8  9  1  0
  9 10  2  0
  9 11  1  0
 11 12  1  0
 12 13  1  0
 13 14  2  0
 13 15  1  0
 15 16  1  0
 16 17  2  0
 17 18  1  0
 18 19  2  0
 19 20  1  0
 20 21  2  0
 11 22  1  0
 22 23  1  0
 22 24  1  0
 22 25  1  0
  8  3  1  0
 21 16  1  0
  1 26  1  0
  1 27  1  0
  1 28  1  0
  4 29  1  0
  5 30  1  0
  6 31  1  0
  7 32  1  0
 12 33  1  0
 17 34  1  0
 18 35  1  0
 19 36  1  0
 20 37  1  0
 21 38  1  0
 23 39  1  0
 23 40  1  0
 23 41  1  0
 24 42  1  0
 24 43  1  0
 24 44  1  0
 25 45  1  0
 25 46  1  0
 25 47  1  0
M  END
$$$$
