
     RDKit          3D

 54 57  0  0  0  0  0  0  0  0999 V2000
    8.3792   -2.0086    0.0407 C   0  0  0  0  0  0  0  0  0  0  0  0
    7.0152   -1.8380   -0.3209 O   0  0  0  0  0  0  0  0  0  0  0  0
    6.1602   -1.4069    0.6573 C   0  0  0  0  0  0  0  0  0  0  0  0
    6.5048   -1.1431    1.9822 C   0  0  0  0  0  0  0  0  0  0  0  0
    5.5297   -0.7122    2.8817 C   0  0  0  0  0  0  0  0  0  0  0  0
    4.2103   -0.5432    2.4585 C   0  0  0  0  0  0  0  0  0  0  0  0
    3.8495   -0.7997    1.1303 C   0  0  0  0  0  0  0  0  0  0  0  0
    2.4925   -0.6095    0.7873 N   0  0  0  0  0  0  0  0  0  0  0  0
    1.9184   -0.7286   -0.4646 C   0  0  0  0  0  0  0  0  0  0  0  0
    2.5092   -0.9329   -1.5199 O   0  0  0  0  0  0  0  0  0  0  0  0
    0.4403   -0.5014   -0.4934 C   0  0  0  0  0  0  0  0  0  0  0  0
   -0.3590   -0.9014    0.5108 C   0  0  0  0  0  0  0  0  0  0  0  0
   -1.7980   -0.6809    0.5127 C   0  0  0  0  0  0  0  0  0  0  0  0
   -2.5987   -1.1169    1.6919 C   0  0  0  0  0  0  0  0  0  0  0  0
   -2.0294   -1.6356    2.6557 O   0  0  0  0  0  0  0  0  0  0  0  0
   -3.9603   -0.8890    1.6222 N   0  0  0  0  0  0  0  0  0  0  0  0
   -4.7779   -1.2816    2.6768 C   0  0  0  0  0  0  0  0  0  0  0  0
   -6.0999   -1.0716    2.6592 C   0  0  0  0  0  0  0  0  0  0  0  0
   -6.7064   -0.4220    1.5282 C   0  0  0  0  0  0  0  0  0  0  0  0
   -5.9566   -0.0260    0.4928 C   0  0  0  0  0  0  0  0  0  0  0  0
   -4.4846   -0.2596    0.5091 C   0  0  0  0  0  0  0  0  0  0  0  0
   -3.7849    0.1352   -0.5045 N   0  0  0  0  0  0  0  0  0  0  0  0
   -2.4243   -0.0739   -0.5207 C   0  0  0  0  0  0  0  0  0  0  0  0
   -1.6447    0.3462   -1.6252 N   0  0  0  0  0  0  0  0  0  0  0  0
   -2.2934    0.9995   -2.7806 C   0  0  0  0  0  0  0  0  0  0  0  0
   -2.0917    2.5284   -2.7689 C   0  0  0  0  0  0  0  0  0  0  0  0
   -2.8225    3.2034   -1.6066 C   0  0  0  0  0  0  0  0  0  0  0  0
   -2.5741    3.1228   -4.0945 C   0  0  0  0  0  0  0  0  0  0  0  0
   -0.2606    0.1155   -1.6809 C   0  0  0  0  0  0  0  0  0  0  0  0
    0.4129    0.4315   -2.7521 N   0  0  0  0  0  0  0  0  0  0  0  0
    4.8331   -1.2347    0.2394 C   0  0  0  0  0  0  0  0  0  0  0  0
    8.9220   -2.3418   -0.8492 H   0  0  0  0  0  0  0  0  0  0  0  0
    8.4902   -2.7824    0.8074 H   0  0  0  0  0  0  0  0  0  0  0  0
    8.8232   -1.0621    0.3662 H   0  0  0  0  0  0  0  0  0  0  0  0
    7.5195   -1.2646    2.3457 H   0  0  0  0  0  0  0  0  0  0  0  0
    5.7985   -0.5082    3.9152 H   0  0  0  0  0  0  0  0  0  0  0  0
    3.4735   -0.2070    3.1834 H   0  0  0  0  0  0  0  0  0  0  0  0
    1.8995   -0.2951    1.5439 H   0  0  0  0  0  0  0  0  0  0  0  0
    0.0425   -1.4293    1.3720 H   0  0  0  0  0  0  0  0  0  0  0  0
   -4.2975   -1.7698    3.5213 H   0  0  0  0  0  0  0  0  0  0  0  0
   -6.7307   -1.3820    3.4861 H   0  0  0  0  0  0  0  0  0  0  0  0
   -7.7798   -0.2620    1.5353 H   0  0  0  0  0  0  0  0  0  0  0  0
   -6.3733    0.4661   -0.3772 H   0  0  0  0  0  0  0  0  0  0  0  0
   -3.3652    0.7678   -2.8233 H   0  0  0  0  0  0  0  0  0  0  0  0
   -1.8886    0.5761   -3.7094 H   0  0  0  0  0  0  0  0  0  0  0  0
   -1.0238    2.7580   -2.6706 H   0  0  0  0  0  0  0  0  0  0  0  0
   -2.7051    4.2915   -1.6550 H   0  0  0  0  0  0  0  0  0  0  0  0
   -3.8945    2.9802   -1.6265 H   0  0  0  0  0  0  0  0  0  0  0  0
   -2.4211    2.8775   -0.6423 H   0  0  0  0  0  0  0  0  0  0  0  0
   -3.6425    2.9363   -4.2485 H   0  0  0  0  0  0  0  0  0  0  0  0
   -2.0281    2.6870   -4.9378 H   0  0  0  0  0  0  0  0  0  0  0  0
   -2.4122    4.2057   -4.1180 H   0  0  0  0  0  0  0  0  0  0  0  0
    1.4039    0.1495   -2.6551 H   0  0  0  0  0  0  0  0  0  0  0  0
    4.6017   -1.4565   -0.7979 H   0  0  0  0  0  0  0  0  0  0  0  0
  1  2  1  0
  2  3  1  0
  3  4  2  0
  4  5  1  0
  5  6  2  0
  6  7  1  0
  7  8  1  0
  8  9  1  0
  9 10  2  0
  9 11  1  0
 11 12  2  0
 12 13  1  0
 13 14  1  0
 14 15  2  0
 14 16  1  0
 16 17  1  0
 17 18  2  0
 18 19  1  0
 19 20  2  0
 20 21  1  0
 21 22  2  0
 22 23  1  0
 23 24  1  0
 24 25  1  0
 25 26  1  0
 26 27  1  0
 26 28  1  0
 24 29  1  0
 29 30  2  3
  7 31  2  0
 31  3  1  0
 29 11  1  0
 23 13  2  0
 21 16  1  0
  1 32  1  0
  1 33  1  0
  1 34  1  0
  4 35  1  0
  5 36  1  0
  6 37  1  0
  8 38  1  0
 12 39  1  0
 17 40  1  0
 18 41  1  0
 19 42  1  0
 20 43  1  0
 25 44  1  0
 25 45  1  0
 26 46  1  0
 27 47  1  0
 27 48  1  0
 27 49  1  0
 28 50  1  0
 28 51  1  0
 28 52  1  0
 30 53  1  0
 31 54  1  0
M  END
$$$$
