
     RDKit          3D

 37 38  0  0  0  0  0  0  0  0999 V2000
   -3.0069    2.6661    1.4717 C   0  0  0  0  0  0  0  0  0  0  0  0
   -1.9701    1.6941    1.4571 O   0  0  0  0  0  0  0  0  0  0  0  0
   -2.1939    0.5381    0.7536 C   0  0  0  0  0  0  0  0  0  0  0  0
   -3.3683    0.2592    0.0393 C   0  0  0  0  0  0  0  0  0  0  0  0
   -3.5121   -0.9293   -0.6858 C   0  0  0  0  0  0  0  0  0  0  0  0
   -4.7340   -1.2390   -1.2999 N   0  0  0  0  0  0  0  0  0  0  0  0
   -2.5074   -1.8908   -0.6045 C   0  0  0  0  0  0  0  0  0  0  0  0
   -1.3326   -1.6287    0.1007 C   0  0  0  0  0  0  0  0  0  0  0  0
   -1.1578   -0.4126    0.7808 C   0  0  0  0  0  0  0  0  0  0  0  0
    0.1432   -0.1692    1.5206 C   0  0  0  0  0  0  0  0  0  0  0  0
    1.2868    0.2549    0.6195 C   0  0  0  0  0  0  0  0  0  0  0  0
    1.3423    1.5865    0.1770 C   0  0  0  0  0  0  0  0  0  0  0  0
    2.3718    2.0197   -0.6590 C   0  0  0  0  0  0  0  0  0  0  0  0
    3.3900    1.1470   -1.0366 C   0  0  0  0  0  0  0  0  0  0  0  0
    4.3590    1.5558   -1.9635 N   0  0  0  0  0  0  0  0  0  0  0  0
    3.3025   -0.1964   -0.6537 C   0  0  0  0  0  0  0  0  0  0  0  0
    2.2727   -0.6488    0.1843 C   0  0  0  0  0  0  0  0  0  0  0  0
    2.1419   -1.9414    0.6236 O   0  0  0  0  0  0  0  0  0  0  0  0
    3.0908   -2.8927    0.1605 C   0  0  0  0  0  0  0  0  0  0  0  0
   -3.2126    3.0396    0.4632 H   0  0  0  0  0  0  0  0  0  0  0  0
   -3.9130    2.2708    1.9425 H   0  0  0  0  0  0  0  0  0  0  0  0
   -2.6623    3.5120    2.0743 H   0  0  0  0  0  0  0  0  0  0  0  0
   -4.1941    0.9613    0.0290 H   0  0  0  0  0  0  0  0  0  0  0  0
   -5.2566   -0.4238   -1.6036 H   0  0  0  0  0  0  0  0  0  0  0  0
   -4.6518   -1.9364   -2.0334 H   0  0  0  0  0  0  0  0  0  0  0  0
   -2.6242   -2.8528   -1.0954 H   0  0  0  0  0  0  0  0  0  0  0  0
   -0.5494   -2.3835    0.1256 H   0  0  0  0  0  0  0  0  0  0  0  0
    0.4037   -1.0741    2.0848 H   0  0  0  0  0  0  0  0  0  0  0  0
    0.0135    0.5890    2.3036 H   0  0  0  0  0  0  0  0  0  0  0  0
    0.5674    2.2907    0.4730 H   0  0  0  0  0  0  0  0  0  0  0  0
    2.3689    3.0478   -1.0097 H   0  0  0  0  0  0  0  0  0  0  0  0
    5.2128    1.0083   -1.9325 H   0  0  0  0  0  0  0  0  0  0  0  0
    4.5415    2.5545   -1.9458 H   0  0  0  0  0  0  0  0  0  0  0  0
    4.0587   -0.8787   -1.0249 H   0  0  0  0  0  0  0  0  0  0  0  0
    2.8272   -3.8634    0.5914 H   0  0  0  0  0  0  0  0  0  0  0  0
    3.0517   -2.9922   -0.9293 H   0  0  0  0  0  0  0  0  0  0  0  0
    4.1004   -2.6416    0.5016 H   0  0  0  0  0  0  0  0  0  0  0  0
  1  2  1  0
  2  3  1  0
  3  4  2  0
  4  5  1  0
  5  6  1  0
  5  7  2  0
  7  8  1  0
  8  9  2  0
  9 10  1  0
 10 11  1  0
 11 12  2  0
 12 13  1  0
 13 14  2  0
 14 15  1  0
 14 16  1  0
 16 17  2  0
 17 18  1  0
 18 19  1  0
  9  3  1  0
 17 11  1  0
  1 20  1  0
  1 21  1  0
  1 22  1  0
  4 23  1  0
  6 24  1  0
  6 25  1  0
  7 26  1  0
  8 27  1  0
 10 28  1  0
 10 29  1  0
 12 30  1  0
 13 31  1  0
 15 32  1  0
 15 33  1  0
 16 34  1  0
 19 35  1  0
 19 36  1  0
 19 37  1  0
M  END
$$$$
