
     RDKit          3D

 46 48  0  0  0  0  0  0  0  0999 V2000
   -5.4554    2.3682   -0.8960 C   0  0  0  0  0  0  0  0  0  0  0  0
   -4.8259    2.0540    0.3374 O   0  0  0  0  0  0  0  0  0  0  0  0
   -3.7631    1.1845    0.3085 C   0  0  0  0  0  0  0  0  0  0  0  0
   -3.2937    0.5476   -0.8454 C   0  0  0  0  0  0  0  0  0  0  0  0
   -2.2046   -0.3354   -0.7861 C   0  0  0  0  0  0  0  0  0  0  0  0
   -1.5564   -0.5645    0.4408 C   0  0  0  0  0  0  0  0  0  0  0  0
   -2.0364    0.0692    1.5992 C   0  0  0  0  0  0  0  0  0  0  0  0
   -3.1298    0.9416    1.5426 C   0  0  0  0  0  0  0  0  0  0  0  0
   -3.6551    1.5976    2.6288 O   0  0  0  0  0  0  0  0  0  0  0  0
   -2.9871    1.4575    3.8736 C   0  0  0  0  0  0  0  0  0  0  0  0
   -0.3803   -1.5172    0.5528 C   0  0  0  0  0  0  0  0  0  0  0  0
    0.1871   -1.8746   -0.7553 N   0  0  0  0  0  0  0  0  0  0  0  0
    1.5172   -1.5678   -1.1026 C   0  0  0  0  0  0  0  0  0  0  0  0
    2.0785   -1.4476   -2.6862 S   0  0  0  0  0  0  0  0  0  0  0  0
    2.3408   -1.4726    0.0194 N   0  0  0  0  0  0  0  0  0  0  0  0
    3.6297   -0.8875    0.0711 C   0  0  0  0  0  0  0  0  0  0  0  0
    4.6571   -1.6851    0.5982 C   0  0  0  0  0  0  0  0  0  0  0  0
    5.9637   -1.2082    0.6670 C   0  0  0  0  0  0  0  0  0  0  0  0
    6.2494    0.0785    0.2252 C   0  0  0  0  0  0  0  0  0  0  0  0
    5.2236    0.9000   -0.2524 C   0  0  0  0  0  0  0  0  0  0  0  0
    5.6667    2.4975   -0.7532 Cl  0  0  0  0  0  0  0  0  0  0  0  0
    3.8893    0.4478   -0.3053 C   0  0  0  0  0  0  0  0  0  0  0  0
    2.7933    1.4037   -0.7023 C   0  0  0  0  0  0  0  0  0  0  0  0
   -0.8440   -2.2136   -1.7451 C   0  0  0  0  0  0  0  0  0  0  0  0
   -1.7029   -0.9882   -2.0544 C   0  0  0  0  0  0  0  0  0  0  0  0
   -4.7536    2.8433   -1.5894 H   0  0  0  0  0  0  0  0  0  0  0  0
   -5.9144    1.4799   -1.3421 H   0  0  0  0  0  0  0  0  0  0  0  0
   -6.2550    3.0862   -0.6899 H   0  0  0  0  0  0  0  0  0  0  0  0
   -3.7602    0.7205   -1.8100 H   0  0  0  0  0  0  0  0  0  0  0  0
   -1.5357   -0.1350    2.5402 H   0  0  0  0  0  0  0  0  0  0  0  0
   -3.5105    2.0796    4.6062 H   0  0  0  0  0  0  0  0  0  0  0  0
   -1.9539    1.8150    3.8122 H   0  0  0  0  0  0  0  0  0  0  0  0
   -3.0283    0.4224    4.2281 H   0  0  0  0  0  0  0  0  0  0  0  0
   -0.7240   -2.4489    1.0176 H   0  0  0  0  0  0  0  0  0  0  0  0
    0.3711   -1.0635    1.2048 H   0  0  0  0  0  0  0  0  0  0  0  0
    2.2291   -2.2956    0.5997 H   0  0  0  0  0  0  0  0  0  0  0  0
    4.4584   -2.7039    0.9219 H   0  0  0  0  0  0  0  0  0  0  0  0
    6.7587   -1.8430    1.0493 H   0  0  0  0  0  0  0  0  0  0  0  0
    7.2725    0.4444    0.2649 H   0  0  0  0  0  0  0  0  0  0  0  0
    2.8300    1.6051   -1.7771 H   0  0  0  0  0  0  0  0  0  0  0  0
    1.7969    1.0334   -0.4467 H   0  0  0  0  0  0  0  0  0  0  0  0
    2.8954    2.3495   -0.1588 H   0  0  0  0  0  0  0  0  0  0  0  0
   -1.4597   -3.0118   -1.3099 H   0  0  0  0  0  0  0  0  0  0  0  0
   -0.4133   -2.6224   -2.6626 H   0  0  0  0  0  0  0  0  0  0  0  0
   -1.1173   -0.2463   -2.6101 H   0  0  0  0  0  0  0  0  0  0  0  0
   -2.5483   -1.2942   -2.6814 H   0  0  0  0  0  0  0  0  0  0  0  0
  1  2  1  0
  2  3  1  0
  3  4  2  0
  4  5  1  0
  5  6  2  0
  6  7  1  0
  7  8  2  0
  8  9  1  0
  9 10  1  0
  6 11  1  0
 11 12  1  0
 12 13  1  0
 13 14  2  0
 13 15  1  0
 15 16  1  0
 16 17  2  0
 17 18  1  0
 18 19  2  0
 19 20  1  0
 20 21  1  0
 20 22  2  0
 22 23  1  0
 12 24  1  0
 24 25  1  0
  8  3  1  0
 22 16  1  0
 25  5  1  0
  1 26  1  0
  1 27  1  0
  1 28  1  0
  4 29  1  0
  7 30  1  0
 10 31  1  0
 10 32  1  0
 10 33  1  0
 11 34  1  0
 11 35  1  0
 15 36  1  0
 17 37  1  0
 18 38  1  0
 19 39  1  0
 23 40  1  0
 23 41  1  0
 23 42  1  0
 24 43  1  0
 24 44  1  0
 25 45  1  0
 25 46  1  0
M  END
$$$$
