
     RDKit          3D

 28 30  0  0  0  0  0  0  0  0999 V2000
    2.0735   -2.7866   -0.8968 O   0  0  0  0  0  0  0  0  0  0  0  0
    2.0880   -1.7218   -0.2867 C   0  0  0  0  0  0  0  0  0  0  0  0
    0.9416   -1.3396    0.5640 C   0  0  0  0  0  0  0  0  0  0  0  0
    0.9656   -0.1737    1.2339 C   0  0  0  0  0  0  0  0  0  0  0  0
   -0.1918    0.2757    2.1124 C   0  0  0  0  0  0  0  0  0  0  0  0
   -1.4275   -0.3720    1.7908 O   0  0  0  0  0  0  0  0  0  0  0  0
   -2.2120    0.1743    0.8125 C   0  0  0  0  0  0  0  0  0  0  0  0
   -1.8506    1.2078   -0.0519 C   0  0  0  0  0  0  0  0  0  0  0  0
   -2.7535    1.6605   -1.0205 C   0  0  0  0  0  0  0  0  0  0  0  0
   -4.0198    1.0811   -1.1339 C   0  0  0  0  0  0  0  0  0  0  0  0
   -5.0792    1.6927   -2.3529 Cl  0  0  0  0  0  0  0  0  0  0  0  0
   -4.3823    0.0408   -0.2744 C   0  0  0  0  0  0  0  0  0  0  0  0
   -5.9262   -0.7310   -0.3527 Cl  0  0  0  0  0  0  0  0  0  0  0  0
   -3.4770   -0.4089    0.6918 C   0  0  0  0  0  0  0  0  0  0  0  0
    2.0192    0.7166    1.1655 N   0  0  0  0  0  0  0  0  0  0  0  0
    3.0069    0.3621    0.4167 C   0  0  0  0  0  0  0  0  0  0  0  0
    4.4585    1.3191    0.1681 S   0  0  0  0  0  0  0  0  0  0  0  0
    5.1105    0.1011   -0.8953 C   0  0  0  0  0  0  0  0  0  0  0  0
    4.2715   -0.9324   -1.0306 C   0  0  0  0  0  0  0  0  0  0  0  0
    3.1039   -0.8006   -0.3107 N   0  0  0  0  0  0  0  0  0  0  0  0
    0.1173   -2.0400    0.6100 H   0  0  0  0  0  0  0  0  0  0  0  0
    0.0470    0.0000    3.1468 H   0  0  0  0  0  0  0  0  0  0  0  0
   -0.3071    1.3668    2.1152 H   0  0  0  0  0  0  0  0  0  0  0  0
   -0.8741    1.6816   -0.0105 H   0  0  0  0  0  0  0  0  0  0  0  0
   -2.4587    2.4679   -1.6875 H   0  0  0  0  0  0  0  0  0  0  0  0
   -3.7553   -1.2197    1.3617 H   0  0  0  0  0  0  0  0  0  0  0  0
    6.0764    0.1956   -1.3728 H   0  0  0  0  0  0  0  0  0  0  0  0
    4.4352   -1.8174   -1.6330 H   0  0  0  0  0  0  0  0  0  0  0  0
  1  2  2  0
  2  3  1  0
  3  4  2  0
  4  5  1  0
  5  6  1  0
  6  7  1  0
  7  8  2  0
  8  9  1  0
  9 10  2  0
 10 11  1  0
 10 12  1  0
 12 13  1  0
 12 14  2  0
  4 15  1  0
 15 16  2  0
 16 17  1  0
 17 18  1  0
 18 19  2  0
 19 20  1  0
 20  2  1  0
 14  7  1  0
 20 16  1  0
  3 21  1  0
  5 22  1  0
  5 23  1  0
  8 24  1  0
  9 25  1  0
 14 26  1  0
 18 27  1  0
 19 28  1  0
M  END
$$$$
