
     RDKit          3D

 34 36  0  0  0  0  0  0  0  0999 V2000
   -1.2001    2.6505    2.3334 Br  0  0  0  0  0  0  0  0  0  0  0  0
   -2.0316    1.3752    1.2462 C   0  0  0  0  0  0  0  0  0  0  0  0
   -1.3636    0.9569   -0.0270 C   0  0  0  0  0  0  0  0  0  0  0  0
   -0.1183    0.7537   -0.3316 N   0  0  0  0  0  0  0  0  0  0  0  0
    0.8184    0.8882    0.6428 N   0  0  0  0  0  0  0  0  0  0  0  0
    2.1347    0.6782    0.4479 C   0  0  0  0  0  0  0  0  0  0  0  0
    3.1194    0.8110    1.3050 N   0  0  0  0  0  0  0  0  0  0  0  0
    4.2539    0.4750    0.6033 C   0  0  0  0  0  0  0  0  0  0  0  0
    5.5914    0.4406    1.0242 C   0  0  0  0  0  0  0  0  0  0  0  0
    6.5764    0.0590    0.1037 C   0  0  0  0  0  0  0  0  0  0  0  0
    6.2371   -0.2814   -1.2087 C   0  0  0  0  0  0  0  0  0  0  0  0
    4.9082   -0.2534   -1.6484 C   0  0  0  0  0  0  0  0  0  0  0  0
    3.9484    0.1302   -0.7100 C   0  0  0  0  0  0  0  0  0  0  0  0
    2.5890    0.2702   -0.7766 N   0  0  0  0  0  0  0  0  0  0  0  0
   -3.2562    0.9131    1.5556 C   0  0  0  0  0  0  0  0  0  0  0  0
   -4.0285   -0.0796    0.8014 C   0  0  0  0  0  0  0  0  0  0  0  0
   -5.2678    0.2799    0.2606 C   0  0  0  0  0  0  0  0  0  0  0  0
   -6.0208   -0.6540   -0.4538 C   0  0  0  0  0  0  0  0  0  0  0  0
   -5.5432   -1.9525   -0.6246 C   0  0  0  0  0  0  0  0  0  0  0  0
   -4.3149   -2.3208   -0.0783 C   0  0  0  0  0  0  0  0  0  0  0  0
   -3.5600   -1.3890    0.6366 C   0  0  0  0  0  0  0  0  0  0  0  0
   -2.0682    0.7735   -0.8577 H   0  0  0  0  0  0  0  0  0  0  0  0
    0.5647    1.2360    1.5674 H   0  0  0  0  0  0  0  0  0  0  0  0
    5.8472    0.7063    2.0436 H   0  0  0  0  0  0  0  0  0  0  0  0
    7.6171    0.0285    0.4174 H   0  0  0  0  0  0  0  0  0  0  0  0
    7.0217   -0.5739   -1.9037 H   0  0  0  0  0  0  0  0  0  0  0  0
    4.6441   -0.5168   -2.6664 H   0  0  0  0  0  0  0  0  0  0  0  0
    1.9826    0.1161   -1.5665 H   0  0  0  0  0  0  0  0  0  0  0  0
   -3.7585    1.2734    2.4517 H   0  0  0  0  0  0  0  0  0  0  0  0
   -5.6561    1.2883    0.3858 H   0  0  0  0  0  0  0  0  0  0  0  0
   -6.9814   -0.3692   -0.8758 H   0  0  0  0  0  0  0  0  0  0  0  0
   -6.1309   -2.6795   -1.1798 H   0  0  0  0  0  0  0  0  0  0  0  0
   -3.9457   -3.3355   -0.2054 H   0  0  0  0  0  0  0  0  0  0  0  0
   -2.6085   -1.6982    1.0649 H   0  0  0  0  0  0  0  0  0  0  0  0
  1  2  1  0
  2  3  1  0
  3  4  2  3
  4  5  1  0
  5  6  1  0
  6  7  2  0
  7  8  1  0
  8  9  2  0
  9 10  1  0
 10 11  2  0
 11 12  1  0
 12 13  2  0
 13 14  1  0
  2 15  2  3
 15 16  1  0
 16 17  2  0
 17 18  1  0
 18 19  2  0
 19 20  1  0
 20 21  2  0
 14  6  1  0
 21 16  1  0
 13  8  1  0
  3 22  1  0
  5 23  1  0
  9 24  1  0
 10 25  1  0
 11 26  1  0
 12 27  1  0
 14 28  1  0
 15 29  1  0
 17 30  1  0
 18 31  1  0
 19 32  1  0
 20 33  1  0
 21 34  1  0
M  END
$$$$
