
     RDKit          3D

 43 46  0  0  0  0  0  0  0  0999 V2000
    2.5499    2.0258   -0.3497 O   0  0  0  0  0  0  0  0  0  0  0  0
    2.9153    0.9277    0.0647 C   0  0  0  0  0  0  0  0  0  0  0  0
    4.3302    0.5472   -0.0944 C   0  0  0  0  0  0  0  0  0  0  0  0
    5.2614    1.4336   -0.6465 C   0  0  0  0  0  0  0  0  0  0  0  0
    6.5927    1.0396   -0.7877 C   0  0  0  0  0  0  0  0  0  0  0  0
    6.9892   -0.2351   -0.3801 C   0  0  0  0  0  0  0  0  0  0  0  0
    6.0569   -1.1185    0.1691 C   0  0  0  0  0  0  0  0  0  0  0  0
    4.7273   -0.7193    0.3095 C   0  0  0  0  0  0  0  0  0  0  0  0
    3.7910   -1.5958    0.8510 N   0  0  0  0  0  0  0  0  0  0  0  0
    2.4707   -1.2887    1.0393 C   0  0  0  0  0  0  0  0  0  0  0  0
    1.5175   -2.5070    1.6922 S   0  0  0  0  0  0  0  0  0  0  0  0
    2.0618   -0.0076    0.6707 N   0  0  0  0  0  0  0  0  0  0  0  0
    0.6614    0.4284    0.8224 C   0  0  0  0  0  0  0  0  0  0  0  0
   -0.1712    0.1281   -0.4425 C   0  0  0  0  0  0  0  0  0  0  0  0
   -1.5990    0.4808   -0.3126 N   0  0  0  0  0  0  0  0  0  0  0  0
   -2.2505    0.4625   -1.6338 C   0  0  0  0  0  0  0  0  0  0  0  0
   -3.6768    1.0200   -1.5455 C   0  0  0  0  0  0  0  0  0  0  0  0
   -4.4739    0.3845   -0.4368 C   0  0  0  0  0  0  0  0  0  0  0  0
   -5.8696    0.5055   -0.4113 C   0  0  0  0  0  0  0  0  0  0  0  0
   -6.6059   -0.0553    0.6315 C   0  0  0  0  0  0  0  0  0  0  0  0
   -5.9538   -0.7343    1.6580 C   0  0  0  0  0  0  0  0  0  0  0  0
   -4.5634   -0.8493    1.6455 C   0  0  0  0  0  0  0  0  0  0  0  0
   -3.8097   -0.2809    0.6074 C   0  0  0  0  0  0  0  0  0  0  0  0
   -2.3037   -0.4517    0.5934 C   0  0  0  0  0  0  0  0  0  0  0  0
    4.9526    2.4269   -0.9655 H   0  0  0  0  0  0  0  0  0  0  0  0
    7.3195    1.7263   -1.2157 H   0  0  0  0  0  0  0  0  0  0  0  0
    8.0273   -0.5406   -0.4913 H   0  0  0  0  0  0  0  0  0  0  0  0
    6.3809   -2.1077    0.4807 H   0  0  0  0  0  0  0  0  0  0  0  0
    4.0820   -2.5252    1.1340 H   0  0  0  0  0  0  0  0  0  0  0  0
    0.6385    1.5073    1.0216 H   0  0  0  0  0  0  0  0  0  0  0  0
    0.2309   -0.0474    1.7069 H   0  0  0  0  0  0  0  0  0  0  0  0
   -0.0600   -0.9237   -0.7356 H   0  0  0  0  0  0  0  0  0  0  0  0
    0.2676    0.7145   -1.2606 H   0  0  0  0  0  0  0  0  0  0  0  0
   -1.6941    1.0870   -2.3438 H   0  0  0  0  0  0  0  0  0  0  0  0
   -2.2663   -0.5568   -2.0438 H   0  0  0  0  0  0  0  0  0  0  0  0
   -4.1795    0.8576   -2.5063 H   0  0  0  0  0  0  0  0  0  0  0  0
   -3.6383    2.1016   -1.3644 H   0  0  0  0  0  0  0  0  0  0  0  0
   -6.3878    1.0400   -1.2039 H   0  0  0  0  0  0  0  0  0  0  0  0
   -7.6883    0.0400    0.6443 H   0  0  0  0  0  0  0  0  0  0  0  0
   -6.5278   -1.1730    2.4697 H   0  0  0  0  0  0  0  0  0  0  0  0
   -4.0675   -1.3842    2.4524 H   0  0  0  0  0  0  0  0  0  0  0  0
   -2.0923   -1.4933    0.3168 H   0  0  0  0  0  0  0  0  0  0  0  0
   -1.9456   -0.2899    1.6161 H   0  0  0  0  0  0  0  0  0  0  0  0
  1  2  2  0
  2  3  1  0
  3  4  2  0
  4  5  1  0
  5  6  2  0
  6  7  1  0
  7  8  2  0
  8  9  1  0
  9 10  1  0
 10 11  2  0
 10 12  1  0
 12 13  1  0
 13 14  1  0
 14 15  1  0
 15 16  1  0
 16 17  1  0
 17 18  1  0
 18 19  2  0
 19 20  1  0
 20 21  2  0
 21 22  1  0
 22 23  2  0
 23 24  1  0
 12  2  1  0
 24 15  1  0
  8  3  1  0
 23 18  1  0
  4 25  1  0
  5 26  1  0
  6 27  1  0
  7 28  1  0
  9 29  1  0
 13 30  1  0
 13 31  1  0
 14 32  1  0
 14 33  1  0
 16 34  1  0
 16 35  1  0
 17 36  1  0
 17 37  1  0
 19 38  1  0
 20 39  1  0
 21 40  1  0
 22 41  1  0
 24 42  1  0
 24 43  1  0
M  END
$$$$
