
     RDKit          3D

 46 49  0  0  0  0  0  0  0  0999 V2000
   -2.2741   -5.5162   -0.0668 N   0  0  0  0  0  0  0  0  0  0  0  0
   -3.1320   -4.5327   -0.3980 C   0  0  0  0  0  0  0  0  0  0  0  0
   -4.4334   -4.7158   -0.6166 N   0  0  0  0  0  0  0  0  0  0  0  0
   -4.9362   -3.4611   -0.9427 O   0  0  0  0  0  0  0  0  0  0  0  0
   -3.9330   -2.4945   -0.9255 N   0  0  0  0  0  0  0  0  0  0  0  0
   -2.8366   -3.1670   -0.5747 C   0  0  0  0  0  0  0  0  0  0  0  0
   -1.5832   -2.5165   -0.4345 N   0  0  0  0  0  0  0  0  0  0  0  0
   -0.4560   -3.2169   -0.1043 N   0  0  0  0  0  0  0  0  0  0  0  0
    0.5745   -2.3926   -0.0676 N   0  0  0  0  0  0  0  0  0  0  0  0
    0.1270   -1.1311   -0.3592 C   0  0  0  0  0  0  0  0  0  0  0  0
    1.0268    0.0193   -0.3978 C   0  0  0  0  0  0  0  0  0  0  0  0
    0.6501    1.1406   -0.7243 O   0  0  0  0  0  0  0  0  0  0  0  0
    2.3249   -0.3169   -0.0414 N   0  0  0  0  0  0  0  0  0  0  0  0
    3.3102    0.6249   -0.0266 N   0  0  0  0  0  0  0  0  0  0  0  0
    4.4834    0.1979    0.3237 C   0  0  0  0  0  0  0  0  0  0  0  0
    5.6496    1.1079    0.3865 C   0  0  0  0  0  0  0  0  0  0  0  0
    5.4701    2.4623    0.0652 C   0  0  0  0  0  0  0  0  0  0  0  0
    6.5471    3.3492    0.1141 C   0  0  0  0  0  0  0  0  0  0  0  0
    7.8095    2.8916    0.4836 C   0  0  0  0  0  0  0  0  0  0  0  0
    7.9964    1.5461    0.8046 C   0  0  0  0  0  0  0  0  0  0  0  0
    6.9208    0.6512    0.7577 C   0  0  0  0  0  0  0  0  0  0  0  0
    7.2461   -0.9952    1.1710 Cl  0  0  0  0  0  0  0  0  0  0  0  0
   -1.2407   -1.1748   -0.5823 C   0  0  0  0  0  0  0  0  0  0  0  0
   -2.2045   -0.0851   -0.8761 C   0  0  0  0  0  0  0  0  0  0  0  0
   -2.9300    0.1172    0.3334 O   0  0  0  0  0  0  0  0  0  0  0  0
   -3.9473    1.0305    0.3051 C   0  0  0  0  0  0  0  0  0  0  0  0
   -4.2539    1.8873   -0.7554 C   0  0  0  0  0  0  0  0  0  0  0  0
   -5.3266    2.7778   -0.6467 C   0  0  0  0  0  0  0  0  0  0  0  0
   -6.0833    2.8087    0.5187 C   0  0  0  0  0  0  0  0  0  0  0  0
   -7.1096    3.6635    0.6172 F   0  0  0  0  0  0  0  0  0  0  0  0
   -5.7878    1.9668    1.5821 C   0  0  0  0  0  0  0  0  0  0  0  0
   -4.7168    1.0788    1.4735 C   0  0  0  0  0  0  0  0  0  0  0  0
   -1.3354   -5.3098    0.2700 H   0  0  0  0  0  0  0  0  0  0  0  0
   -2.6423   -6.4149    0.2268 H   0  0  0  0  0  0  0  0  0  0  0  0
    2.5310   -1.2806    0.2072 H   0  0  0  0  0  0  0  0  0  0  0  0
    4.6397   -0.8621    0.5850 H   0  0  0  0  0  0  0  0  0  0  0  0
    4.4891    2.8365   -0.2251 H   0  0  0  0  0  0  0  0  0  0  0  0
    6.3972    4.3971   -0.1365 H   0  0  0  0  0  0  0  0  0  0  0  0
    8.6488    3.5824    0.5219 H   0  0  0  0  0  0  0  0  0  0  0  0
    8.9873    1.2012    1.0916 H   0  0  0  0  0  0  0  0  0  0  0  0
   -1.6832    0.8358   -1.1517 H   0  0  0  0  0  0  0  0  0  0  0  0
   -2.8640   -0.3581   -1.7072 H   0  0  0  0  0  0  0  0  0  0  0  0
   -3.6781    1.8958   -1.6749 H   0  0  0  0  0  0  0  0  0  0  0  0
   -5.5735    3.4490   -1.4632 H   0  0  0  0  0  0  0  0  0  0  0  0
   -6.3877    2.0055    2.4850 H   0  0  0  0  0  0  0  0  0  0  0  0
   -4.4801    0.4171    2.3031 H   0  0  0  0  0  0  0  0  0  0  0  0
  1  2  1  0
  2  3  2  0
  3  4  1  0
  4  5  1  0
  5  6  2  0
  6  7  1  0
  7  8  1  0
  8  9  2  0
  9 10  1  0
 10 11  1  0
 11 12  2  0
 11 13  1  0
 13 14  1  0
 14 15  2  3
 15 16  1  0
 16 17  2  0
 17 18  1  0
 18 19  2  0
 19 20  1  0
 20 21  2  0
 21 22  1  0
 10 23  2  0
 23 24  1  0
 24 25  1  0
 25 26  1  0
 26 27  2  0
 27 28  1  0
 28 29  2  0
 29 30  1  0
 29 31  1  0
 31 32  2  0
  6  2  1  0
 23  7  1  0
 32 26  1  0
 21 16  1  0
  1 33  1  0
  1 34  1  0
 13 35  1  0
 15 36  1  0
 17 37  1  0
 18 38  1  0
 19 39  1  0
 20 40  1  0
 24 41  1  0
 24 42  1  0
 27 43  1  0
 28 44  1  0
 31 45  1  0
 32 46  1  0
M  END
$$$$
