
     RDKit          3D

 43 46  0  0  0  0  0  0  0  0999 V2000
    4.8969    2.3888    0.4087 C   0  0  0  0  0  0  0  0  0  0  0  0
    3.9371    1.4060    0.7983 O   0  0  0  0  0  0  0  0  0  0  0  0
    2.6704    1.8790    0.8839 C   0  0  0  0  0  0  0  0  0  0  0  0
    2.3073    3.0235    0.6620 O   0  0  0  0  0  0  0  0  0  0  0  0
    1.7324    0.7876    1.2066 C   0  0  0  0  0  0  0  0  0  0  0  0
    1.9001   -0.0760    2.2284 C   0  0  0  0  0  0  0  0  0  0  0  0
    3.0431   -0.0244    3.2097 C   0  0  0  0  0  0  0  0  0  0  0  0
    0.9819   -1.0704    2.5011 N   0  0  0  0  0  0  0  0  0  0  0  0
   -0.1246   -1.0531    1.8405 C   0  0  0  0  0  0  0  0  0  0  0  0
   -1.4279   -2.1518    2.1680 S   0  0  0  0  0  0  0  0  0  0  0  0
   -2.4729   -1.3807    1.0090 C   0  0  0  0  0  0  0  0  0  0  0  0
   -3.7273   -1.8136    0.8065 C   0  0  0  0  0  0  0  0  0  0  0  0
   -4.7257   -1.3570   -0.1025 C   0  0  0  0  0  0  0  0  0  0  0  0
   -6.1287   -1.3959    0.1180 C   0  0  0  0  0  0  0  0  0  0  0  0
   -6.7140   -0.9083   -1.0272 C   0  0  0  0  0  0  0  0  0  0  0  0
   -5.7661   -0.5925   -1.9450 O   0  0  0  0  0  0  0  0  0  0  0  0
   -4.5604   -0.8718   -1.3805 C   0  0  0  0  0  0  0  0  0  0  0  0
   -1.7424   -0.2384    0.3753 C   0  0  0  0  0  0  0  0  0  0  0  0
   -2.2280    0.5587   -0.4121 O   0  0  0  0  0  0  0  0  0  0  0  0
   -0.4500   -0.1917    0.8433 N   0  0  0  0  0  0  0  0  0  0  0  0
    0.5363    0.7248    0.2988 C   0  0  0  0  0  0  0  0  0  0  0  0
    0.9287    0.3050   -1.1192 C   0  0  0  0  0  0  0  0  0  0  0  0
    0.6442    1.1530   -2.2016 C   0  0  0  0  0  0  0  0  0  0  0  0
    0.9918    0.7863   -3.5026 C   0  0  0  0  0  0  0  0  0  0  0  0
    1.6273   -0.4304   -3.7397 C   0  0  0  0  0  0  0  0  0  0  0  0
    1.9147   -1.2841   -2.6774 C   0  0  0  0  0  0  0  0  0  0  0  0
    1.5675   -0.9219   -1.3749 C   0  0  0  0  0  0  0  0  0  0  0  0
    4.6635    2.7783   -0.5872 H   0  0  0  0  0  0  0  0  0  0  0  0
    4.9356    3.1991    1.1435 H   0  0  0  0  0  0  0  0  0  0  0  0
    5.8782    1.9079    0.3714 H   0  0  0  0  0  0  0  0  0  0  0  0
    3.5081    0.9637    3.2705 H   0  0  0  0  0  0  0  0  0  0  0  0
    3.8069   -0.7594    2.9370 H   0  0  0  0  0  0  0  0  0  0  0  0
    2.6884   -0.2605    4.2195 H   0  0  0  0  0  0  0  0  0  0  0  0
   -4.0608   -2.6410    1.4344 H   0  0  0  0  0  0  0  0  0  0  0  0
   -6.6544   -1.7317    1.0008 H   0  0  0  0  0  0  0  0  0  0  0  0
   -7.7364   -0.7392   -1.3346 H   0  0  0  0  0  0  0  0  0  0  0  0
   -3.7055   -0.6790   -2.0145 H   0  0  0  0  0  0  0  0  0  0  0  0
    0.0530    1.7104    0.2642 H   0  0  0  0  0  0  0  0  0  0  0  0
    0.1397    2.1047   -2.0406 H   0  0  0  0  0  0  0  0  0  0  0  0
    0.7618    1.4505   -4.3321 H   0  0  0  0  0  0  0  0  0  0  0  0
    1.8957   -0.7141   -4.7541 H   0  0  0  0  0  0  0  0  0  0  0  0
    2.4098   -2.2339   -2.8637 H   0  0  0  0  0  0  0  0  0  0  0  0
    1.8047   -1.6068   -0.5629 H   0  0  0  0  0  0  0  0  0  0  0  0
  1  2  1  0
  2  3  1  0
  3  4  2  0
  3  5  1  0
  5  6  2  0
  6  7  1  0
  6  8  1  0
  8  9  2  0
  9 10  1  0
 10 11  1  0
 11 12  2  3
 12 13  1  0
 13 14  1  0
 14 15  2  0
 15 16  1  0
 16 17  1  0
 11 18  1  0
 18 19  2  0
 18 20  1  0
 20 21  1  0
 21 22  1  0
 22 23  2  0
 23 24  1  0
 24 25  2  0
 25 26  1  0
 26 27  2  0
 21  5  1  0
 27 22  1  0
 20  9  1  0
 17 13  2  0
  1 28  1  0
  1 29  1  0
  1 30  1  0
  7 31  1  0
  7 32  1  0
  7 33  1  0
 12 34  1  0
 14 35  1  0
 15 36  1  0
 17 37  1  0
 21 38  1  0
 23 39  1  0
 24 40  1  0
 25 41  1  0
 26 42  1  0
 27 43  1  0
M  END
$$$$
