
     RDKit          3D

 71 76  0  0  0  0  0  0  0  0999 V2000
   -3.9818   -3.9447    3.4640 C   0  0  0  0  0  0  0  0  0  0  0  0
   -3.1490   -2.9699    2.8503 O   0  0  0  0  0  0  0  0  0  0  0  0
   -3.0426   -3.0079    1.4866 C   0  0  0  0  0  0  0  0  0  0  0  0
   -3.6753   -3.9387    0.6401 C   0  0  0  0  0  0  0  0  0  0  0  0
   -3.4943   -3.8902   -0.7479 C   0  0  0  0  0  0  0  0  0  0  0  0
   -2.6800   -2.8991   -1.2504 C   0  0  0  0  0  0  0  0  0  0  0  0
   -2.0490   -1.9622   -0.4300 C   0  0  0  0  0  0  0  0  0  0  0  0
   -2.2202   -2.0122    0.9448 C   0  0  0  0  0  0  0  0  0  0  0  0
   -1.2478   -1.0327   -1.2892 C   0  0  1  0  0  0  0  0  0  0  0  0
   -1.4882   -1.5890   -2.7212 C   0  0  0  0  0  0  0  0  0  0  0  0
   -1.0188   -1.2059   -3.7822 O   0  0  0  0  0  0  0  0  0  0  0  0
   -2.3587   -2.6754   -2.5827 N   0  0  0  0  0  0  0  0  0  0  0  0
   -1.7434    0.3580   -1.1092 C   0  0  0  0  0  0  0  0  0  0  0  0
   -0.6508    1.2543   -1.1005 C   0  0  0  0  0  0  0  0  0  0  0  0
   -1.1285    2.5268   -0.9500 C   0  0  0  0  0  0  0  0  0  0  0  0
   -0.5291    3.7101   -0.9191 O   0  0  0  0  0  0  0  0  0  0  0  0
   -2.5062    2.4112   -0.8224 N   0  0  0  0  0  0  0  0  0  0  0  0
   -3.4212    3.5308   -0.6373 C   0  0  0  0  0  0  0  0  0  0  0  0
   -3.6682    3.8170    0.8242 C   0  0  0  0  0  0  0  0  0  0  0  0
   -2.8334    4.6954    1.5303 C   0  0  0  0  0  0  0  0  0  0  0  0
   -3.0573    4.9531    2.8837 C   0  0  0  0  0  0  0  0  0  0  0  0
   -4.1144    4.3327    3.5468 C   0  0  0  0  0  0  0  0  0  0  0  0
   -4.9458    3.4509    2.8590 C   0  0  0  0  0  0  0  0  0  0  0  0
   -4.7231    3.1923    1.5056 C   0  0  0  0  0  0  0  0  0  0  0  0
   -2.8945    1.0836   -0.9440 C   0  0  0  0  0  0  0  0  0  0  0  0
   -4.1719    0.7287   -0.8763 O   0  0  0  0  0  0  0  0  0  0  0  0
    0.6073    0.5093   -1.3125 C   0  0  1  0  0  0  0  0  0  0  0  0
    1.8378    0.8844   -0.4966 C   0  0  0  0  0  0  0  0  0  0  0  0
    2.9087   -0.1104   -0.6854 N   0  0  0  0  0  0  0  0  0  0  0  0
    4.2109    0.2937   -0.4436 C   0  0  0  0  0  0  0  0  0  0  0  0
    4.5337    1.4635   -0.2806 O   0  0  0  0  0  0  0  0  0  0  0  0
    5.0738   -0.7535   -0.4133 O   0  0  0  0  0  0  0  0  0  0  0  0
    6.4894   -0.5514   -0.1710 C   0  0  0  0  0  0  0  0  0  0  0  0
    7.1315    0.2909   -1.2785 C   0  0  0  0  0  0  0  0  0  0  0  0
    7.0950   -1.9629   -0.2164 C   0  0  0  0  0  0  0  0  0  0  0  0
    6.7378    0.0416    1.2201 C   0  0  0  0  0  0  0  0  0  0  0  0
    2.5121   -1.5304   -0.6130 C   0  0  0  0  0  0  0  0  0  0  0  0
    1.1655   -1.8486   -1.3149 C   0  0  0  0  0  0  0  0  0  0  0  0
    0.1729   -0.8681   -0.9115 N   0  0  0  0  0  0  0  0  0  0  0  0
   -5.0195   -3.8444    3.1296 H   0  0  0  0  0  0  0  0  0  0  0  0
   -3.9619   -3.7695    4.5440 H   0  0  0  0  0  0  0  0  0  0  0  0
   -3.6034   -4.9564    3.2839 H   0  0  0  0  0  0  0  0  0  0  0  0
   -4.3153   -4.7196    1.0395 H   0  0  0  0  0  0  0  0  0  0  0  0
   -3.9789   -4.6135   -1.3942 H   0  0  0  0  0  0  0  0  0  0  0  0
   -1.7283   -1.2889    1.5903 H   0  0  0  0  0  0  0  0  0  0  0  0
   -2.6724   -3.2230   -3.3702 H   0  0  0  0  0  0  0  0  0  0  0  0
    0.4257    3.5649   -1.0372 H   0  0  0  0  0  0  0  0  0  0  0  0
   -4.3587    3.2985   -1.1560 H   0  0  0  0  0  0  0  0  0  0  0  0
   -3.0010    4.4081   -1.1428 H   0  0  0  0  0  0  0  0  0  0  0  0
   -1.9971    5.1769    1.0270 H   0  0  0  0  0  0  0  0  0  0  0  0
   -2.4023    5.6340    3.4206 H   0  0  0  0  0  0  0  0  0  0  0  0
   -4.2858    4.5308    4.6013 H   0  0  0  0  0  0  0  0  0  0  0  0
   -5.7645    2.9588    3.3771 H   0  0  0  0  0  0  0  0  0  0  0  0
   -5.3716    2.4919    0.9829 H   0  0  0  0  0  0  0  0  0  0  0  0
   -4.2036   -0.2442   -0.8490 H   0  0  0  0  0  0  0  0  0  0  0  0
    0.8506    0.5305   -2.3846 H   0  0  0  0  0  0  0  0  0  0  0  0
    1.6142    0.9250    0.5774 H   0  0  0  0  0  0  0  0  0  0  0  0
    2.1954    1.8786   -0.7874 H   0  0  0  0  0  0  0  0  0  0  0  0
    6.8674   -0.1007   -2.2672 H   0  0  0  0  0  0  0  0  0  0  0  0
    8.2231    0.3017   -1.1883 H   0  0  0  0  0  0  0  0  0  0  0  0
    6.7917    1.3305   -1.2519 H   0  0  0  0  0  0  0  0  0  0  0  0
    6.6335   -2.6090    0.5397 H   0  0  0  0  0  0  0  0  0  0  0  0
    6.9043   -2.4378   -1.1860 H   0  0  0  0  0  0  0  0  0  0  0  0
    8.1765   -1.9478   -0.0450 H   0  0  0  0  0  0  0  0  0  0  0  0
    6.1984   -0.5264    1.9865 H   0  0  0  0  0  0  0  0  0  0  0  0
    6.3889    1.0760    1.2930 H   0  0  0  0  0  0  0  0  0  0  0  0
    7.8042    0.0383    1.4701 H   0  0  0  0  0  0  0  0  0  0  0  0
    2.4411   -1.7794    0.4535 H   0  0  0  0  0  0  0  0  0  0  0  0
    3.2964   -2.1605   -1.0455 H   0  0  0  0  0  0  0  0  0  0  0  0
    0.8553   -2.8602   -1.0310 H   0  0  0  0  0  0  0  0  0  0  0  0
    1.3145   -1.8386   -2.4013 H   0  0  0  0  0  0  0  0  0  0  0  0
  1  2  1  0
  2  3  1  0
  3  4  2  0
  4  5  1  0
  5  6  2  0
  6  7  1  0
  7  8  2  0
  7  9  1  0
  9 10  1  0
 10 11  2  0
 10 12  1  0
  9 13  1  0
 13 14  1  0
 14 15  2  0
 15 16  1  0
 15 17  1  0
 17 18  1  0
 18 19  1  0
 19 20  2  0
 20 21  1  0
 21 22  2  0
 22 23  1  0
 23 24  2  0
 17 25  1  0
 25 26  1  0
 14 27  1  0
 27 28  1  0
 28 29  1  0
 29 30  1  0
 30 31  2  0
 30 32  1  0
 32 33  1  0
 33 34  1  0
 33 35  1  0
 33 36  1  0
 29 37  1  0
 37 38  1  0
 38 39  1  0
  8  3  1  0
  9 39  1  1
 12  6  1  0
 25 13  2  0
 39 27  1  0
 24 19  1  0
  1 40  1  0
  1 41  1  0
  1 42  1  0
  4 43  1  0
  5 44  1  0
  8 45  1  0
 12 46  1  0
 16 47  1  0
 18 48  1  0
 18 49  1  0
 20 50  1  0
 21 51  1  0
 22 52  1  0
 23 53  1  0
 24 54  1  0
 26 55  1  0
 27 56  1  6
 28 57  1  0
 28 58  1  0
 34 59  1  0
 34 60  1  0
 34 61  1  0
 35 62  1  0
 35 63  1  0
 35 64  1  0
 36 65  1  0
 36 66  1  0
 36 67  1  0
 37 68  1  0
 37 69  1  0
 38 70  1  0
 38 71  1  0
M  END
$$$$
