
     RDKit          3D

 35 36  0  0  0  0  0  0  0  0999 V2000
    4.1948   -0.2351   -2.3090 C   0  0  0  0  0  0  0  0  0  0  0  0
    3.8194    1.0544   -1.6002 C   0  0  0  0  0  0  0  0  0  0  0  0
    3.6484    0.8682   -0.1676 N   0  0  0  0  0  0  0  0  0  0  0  0
    4.7254    1.0863    0.6228 N   0  0  0  0  0  0  0  0  0  0  0  0
    4.2713    0.8642    1.8534 C   0  0  0  0  0  0  0  0  0  0  0  0
    2.9166    0.5160    1.8489 C   0  0  0  0  0  0  0  0  0  0  0  0
    1.9804    0.1182    3.4242 Br  0  0  0  0  0  0  0  0  0  0  0  0
    2.5023    0.5203    0.5283 C   0  0  0  0  0  0  0  0  0  0  0  0
    1.2227    0.2299   -0.1005 C   0  0  0  0  0  0  0  0  0  0  0  0
    1.1277    0.0661   -1.3119 O   0  0  0  0  0  0  0  0  0  0  0  0
    0.1534    0.1720    0.7728 N   0  0  0  0  0  0  0  0  0  0  0  0
   -1.2030   -0.0908    0.4859 C   0  0  0  0  0  0  0  0  0  0  0  0
   -2.0915   -0.0857    1.5707 C   0  0  0  0  0  0  0  0  0  0  0  0
   -3.4613   -0.3209    1.3880 C   0  0  0  0  0  0  0  0  0  0  0  0
   -4.3933   -0.3369    2.5634 C   0  0  0  0  0  0  0  0  0  0  0  0
   -3.9385   -0.5949    0.1027 C   0  0  0  0  0  0  0  0  0  0  0  0
   -3.0654   -0.6201   -0.9905 C   0  0  0  0  0  0  0  0  0  0  0  0
   -3.5881   -0.8747   -2.3743 C   0  0  0  0  0  0  0  0  0  0  0  0
   -1.7017   -0.3520   -0.7912 C   0  0  0  0  0  0  0  0  0  0  0  0
    5.1378   -0.6352   -1.9212 H   0  0  0  0  0  0  0  0  0  0  0  0
    4.3169   -0.0564   -3.3817 H   0  0  0  0  0  0  0  0  0  0  0  0
    3.4297   -1.0062   -2.1759 H   0  0  0  0  0  0  0  0  0  0  0  0
    4.6124    1.7991   -1.7399 H   0  0  0  0  0  0  0  0  0  0  0  0
    2.9067    1.4953   -2.0094 H   0  0  0  0  0  0  0  0  0  0  0  0
    4.9506    0.9651    2.6901 H   0  0  0  0  0  0  0  0  0  0  0  0
    0.3641    0.3406    1.7472 H   0  0  0  0  0  0  0  0  0  0  0  0
   -1.7245    0.1072    2.5762 H   0  0  0  0  0  0  0  0  0  0  0  0
   -4.0576    0.3612    3.3374 H   0  0  0  0  0  0  0  0  0  0  0  0
   -4.4396   -1.3435    2.9901 H   0  0  0  0  0  0  0  0  0  0  0  0
   -5.4022   -0.0312    2.2670 H   0  0  0  0  0  0  0  0  0  0  0  0
   -4.9982   -0.7910   -0.0498 H   0  0  0  0  0  0  0  0  0  0  0  0
   -2.8435   -1.3995   -2.9820 H   0  0  0  0  0  0  0  0  0  0  0  0
   -4.4840   -1.5038   -2.3454 H   0  0  0  0  0  0  0  0  0  0  0  0
   -3.8383    0.0737   -2.8595 H   0  0  0  0  0  0  0  0  0  0  0  0
   -1.0500   -0.3600   -1.6592 H   0  0  0  0  0  0  0  0  0  0  0  0
  1  2  1  0
  2  3  1  0
  3  4  1  0
  4  5  2  0
  5  6  1  0
  6  7  1  0
  6  8  2  0
  8  9  1  0
  9 10  2  0
  9 11  1  0
 11 12  1  0
 12 13  2  0
 13 14  1  0
 14 15  1  0
 14 16  2  0
 16 17  1  0
 17 18  1  0
 17 19  2  0
  8  3  1  0
 19 12  1  0
  1 20  1  0
  1 21  1  0
  1 22  1  0
  2 23  1  0
  2 24  1  0
  5 25  1  0
 11 26  1  0
 13 27  1  0
 15 28  1  0
 15 29  1  0
 15 30  1  0
 16 31  1  0
 18 32  1  0
 18 33  1  0
 18 34  1  0
 19 35  1  0
M  END
$$$$
