
     RDKit          3D

 39 41  0  0  0  0  0  0  0  0999 V2000
    2.3787    3.3124    0.0631 C   0  0  0  0  0  0  0  0  0  0  0  0
    1.8557    2.4462   -1.0527 C   0  0  0  0  0  0  0  0  0  0  0  0
    2.4623    2.3210   -2.1161 O   0  0  0  0  0  0  0  0  0  0  0  0
    0.5781    1.7323   -0.8150 C   0  0  0  0  0  0  0  0  0  0  0  0
    0.5974    0.5216   -0.2059 C   0  0  0  0  0  0  0  0  0  0  0  0
    1.7543   -0.1763    0.1611 N   0  0  0  0  0  0  0  0  0  0  0  0
    1.8288   -0.9999    1.3880 C   0  0  0  0  0  0  0  0  0  0  0  0
    3.2906   -1.3054    1.7411 C   0  0  0  0  0  0  0  0  0  0  0  0
    3.9671   -2.0640    0.7296 O   0  0  0  0  0  0  0  0  0  0  0  0
    3.4759   -1.8091   -0.5951 C   0  0  0  0  0  0  0  0  0  0  0  0
    2.8855   -0.4019   -0.7787 C   0  0  0  0  0  0  0  0  0  0  0  0
   -0.6233   -0.0490    0.0823 N   0  0  0  0  0  0  0  0  0  0  0  0
   -1.8139    0.4792   -0.3432 C   0  0  0  0  0  0  0  0  0  0  0  0
   -3.0788   -0.2954   -0.1404 C   0  0  0  0  0  0  0  0  0  0  0  0
   -3.1806   -1.2591    0.8714 C   0  0  0  0  0  0  0  0  0  0  0  0
   -4.3686   -1.9757    1.0374 C   0  0  0  0  0  0  0  0  0  0  0  0
   -5.4567   -1.7308    0.2001 C   0  0  0  0  0  0  0  0  0  0  0  0
   -5.3643   -0.7645   -0.8005 C   0  0  0  0  0  0  0  0  0  0  0  0
   -4.1798   -0.0453   -0.9694 C   0  0  0  0  0  0  0  0  0  0  0  0
   -1.8887    1.6335   -0.9317 N   0  0  0  0  0  0  0  0  0  0  0  0
   -0.7427    2.3811   -1.1314 C   0  0  0  0  0  0  0  0  0  0  0  0
   -0.8833    3.9682   -1.7118 S   0  0  0  0  0  0  0  0  0  0  0  0
    3.3280    2.9042    0.4196 H   0  0  0  0  0  0  0  0  0  0  0  0
    1.6762    3.3451    0.9007 H   0  0  0  0  0  0  0  0  0  0  0  0
    2.5234    4.3303   -0.3082 H   0  0  0  0  0  0  0  0  0  0  0  0
    1.2863   -1.9384    1.2238 H   0  0  0  0  0  0  0  0  0  0  0  0
    1.3591   -0.4666    2.2221 H   0  0  0  0  0  0  0  0  0  0  0  0
    3.8519   -0.3765    1.8962 H   0  0  0  0  0  0  0  0  0  0  0  0
    3.3425   -1.8797    2.6714 H   0  0  0  0  0  0  0  0  0  0  0  0
    2.7192   -2.5702   -0.8191 H   0  0  0  0  0  0  0  0  0  0  0  0
    4.3084   -1.9625   -1.2891 H   0  0  0  0  0  0  0  0  0  0  0  0
    3.6614    0.3447   -0.5764 H   0  0  0  0  0  0  0  0  0  0  0  0
    2.5512   -0.2997   -1.8169 H   0  0  0  0  0  0  0  0  0  0  0  0
   -0.5727   -1.0388    0.2778 H   0  0  0  0  0  0  0  0  0  0  0  0
   -2.3608   -1.4466    1.5575 H   0  0  0  0  0  0  0  0  0  0  0  0
   -4.4511   -2.7193    1.8265 H   0  0  0  0  0  0  0  0  0  0  0  0
   -6.3818   -2.2868    0.3326 H   0  0  0  0  0  0  0  0  0  0  0  0
   -6.2147   -0.5666   -1.4484 H   0  0  0  0  0  0  0  0  0  0  0  0
   -4.1202    0.7085   -1.7520 H   0  0  0  0  0  0  0  0  0  0  0  0
  1  2  1  0
  2  3  2  0
  2  4  1  0
  4  5  2  0
  5  6  1  0
  6  7  1  0
  7  8  1  0
  8  9  1  0
  9 10  1  0
 10 11  1  0
  5 12  1  0
 12 13  1  0
 13 14  1  0
 14 15  2  0
 15 16  1  0
 16 17  2  0
 17 18  1  0
 18 19  2  0
 13 20  2  0
 20 21  1  0
 21 22  2  0
 21  4  1  0
 11  6  1  0
 19 14  1  0
  1 23  1  0
  1 24  1  0
  1 25  1  0
  7 26  1  0
  7 27  1  0
  8 28  1  0
  8 29  1  0
 10 30  1  0
 10 31  1  0
 11 32  1  0
 11 33  1  0
 12 34  1  0
 15 35  1  0
 16 36  1  0
 17 37  1  0
 18 38  1  0
 19 39  1  0
M  END
$$$$
