
     RDKit          3D

 40 41  0  0  0  0  0  0  0  0999 V2000
   -3.4907   -0.7153    3.1721 C   0  0  0  0  0  0  0  0  0  0  0  0
   -3.9521    0.0624    1.9943 C   0  0  0  0  0  0  0  0  0  0  0  0
   -5.2517    0.3524    1.8625 N   0  0  0  0  0  0  0  0  0  0  0  0
   -5.3250    1.0330    0.7093 N   0  0  0  0  0  0  0  0  0  0  0  0
   -6.6164    1.4896    0.2492 C   0  0  0  0  0  0  0  0  0  0  0  0
   -4.1092    1.2195    0.1021 C   0  0  0  0  0  0  0  0  0  0  0  0
   -3.9579    1.9589   -1.1779 C   0  0  0  0  0  0  0  0  0  0  0  0
   -3.1816    0.5813    0.9158 C   0  0  0  0  0  0  0  0  0  0  0  0
   -1.7568    0.4926    0.6695 C   0  0  0  0  0  0  0  0  0  0  0  0
   -1.0046   -0.1251    1.5232 N   0  0  0  0  0  0  0  0  0  0  0  0
    0.3389   -0.2379    1.2654 N   0  0  0  0  0  0  0  0  0  0  0  0
    0.9058   -0.3863    0.0024 C   0  0  0  0  0  0  0  0  0  0  0  0
    0.3139   -0.3018   -1.0689 O   0  0  0  0  0  0  0  0  0  0  0  0
    2.3920   -0.6489    0.0856 C   0  0  0  0  0  0  0  0  0  0  0  0
    2.9710   -0.9100   -1.2973 C   0  0  0  0  0  0  0  0  0  0  0  0
    4.4104   -1.0956   -1.2569 N   0  0  0  0  0  0  0  0  0  0  0  0
    5.3549   -0.3157   -1.8595 C   0  0  0  0  0  0  0  0  0  0  0  0
    6.5697   -0.8905   -1.5442 C   0  0  0  0  0  0  0  0  0  0  0  0
    7.8665   -0.4456   -1.9440 N   0  0  0  0  0  4  0  0  0  0  0  0
    7.9223    0.5706   -2.6479 O   0  0  0  0  0  0  0  0  0  0  0  0
    8.8307   -1.1128   -1.5497 O   0  0  0  0  0  1  0  0  0  0  0  0
    6.2506   -2.0040   -0.7487 C   0  0  0  0  0  0  0  0  0  0  0  0
    4.9312   -2.1296   -0.5650 N   0  0  0  0  0  0  0  0  0  0  0  0
   -3.0110   -1.6464    2.8545 H   0  0  0  0  0  0  0  0  0  0  0  0
   -4.3253   -0.9791    3.8307 H   0  0  0  0  0  0  0  0  0  0  0  0
   -2.7742   -0.1330    3.7601 H   0  0  0  0  0  0  0  0  0  0  0  0
   -6.6878    2.5618    0.4469 H   0  0  0  0  0  0  0  0  0  0  0  0
   -6.7031    1.2861   -0.8209 H   0  0  0  0  0  0  0  0  0  0  0  0
   -7.4042    0.9543    0.7860 H   0  0  0  0  0  0  0  0  0  0  0  0
   -4.5557    2.8761   -1.1762 H   0  0  0  0  0  0  0  0  0  0  0  0
   -4.2824    1.3345   -2.0161 H   0  0  0  0  0  0  0  0  0  0  0  0
   -2.9190    2.2509   -1.3550 H   0  0  0  0  0  0  0  0  0  0  0  0
   -1.3741    0.9929   -0.2329 H   0  0  0  0  0  0  0  0  0  0  0  0
    0.8643   -0.5868    2.0636 H   0  0  0  0  0  0  0  0  0  0  0  0
    2.5604   -1.5120    0.7406 H   0  0  0  0  0  0  0  0  0  0  0  0
    2.8740    0.2235    0.5428 H   0  0  0  0  0  0  0  0  0  0  0  0
    2.5450   -1.8160   -1.7445 H   0  0  0  0  0  0  0  0  0  0  0  0
    2.7640   -0.0750   -1.9770 H   0  0  0  0  0  0  0  0  0  0  0  0
    5.0991    0.5536   -2.4508 H   0  0  0  0  0  0  0  0  0  0  0  0
    6.9183   -2.7266   -0.2952 H   0  0  0  0  0  0  0  0  0  0  0  0
  1  2  1  0
  2  3  2  0
  3  4  1  0
  4  5  1  0
  4  6  1  0
  6  7  1  0
  6  8  2  0
  8  9  1  0
  9 10  2  3
 10 11  1  0
 11 12  1  0
 12 13  2  0
 12 14  1  0
 14 15  1  0
 15 16  1  0
 16 17  1  0
 17 18  2  0
 18 19  1  0
 19 20  2  0
 19 21  1  0
 18 22  1  0
 22 23  2  0
  8  2  1  0
 23 16  1  0
  1 24  1  0
  1 25  1  0
  1 26  1  0
  5 27  1  0
  5 28  1  0
  5 29  1  0
  7 30  1  0
  7 31  1  0
  7 32  1  0
  9 33  1  0
 11 34  1  0
 14 35  1  0
 14 36  1  0
 15 37  1  0
 15 38  1  0
 17 39  1  0
 22 40  1  0
M  CHG  2  19   1  21  -1
M  END
$$$$
