
     RDKit          3D

 58 61  0  0  0  0  0  0  0  0999 V2000
   -5.8441    4.0697    1.1636 C   0  0  0  0  0  0  0  0  0  0  0  0
   -4.5358    3.7195    0.5187 C   0  0  0  0  0  0  0  0  0  0  0  0
   -3.9414    4.5911   -0.3991 C   0  0  0  0  0  0  0  0  0  0  0  0
   -2.7391    4.2503   -1.0171 C   0  0  0  0  0  0  0  0  0  0  0  0
   -2.1250    3.0292   -0.7304 C   0  0  0  0  0  0  0  0  0  0  0  0
   -2.7082    2.1301    0.1735 C   0  0  0  0  0  0  0  0  0  0  0  0
   -2.0942    0.8421    0.4863 C   0  0  0  0  0  0  0  0  0  0  0  0
   -2.5509   -0.1330    1.2488 N   0  0  0  0  0  0  0  0  0  0  0  0
   -1.5459   -1.0868    1.1889 C   0  0  0  0  0  0  0  0  0  0  0  0
   -1.6263   -2.6089    1.9902 S   0  0  0  0  0  6  0  0  0  0  0  0
   -2.1725   -2.3402    3.3060 O   0  0  0  0  0  0  0  0  0  0  0  0
   -0.3199   -3.2205    1.8169 O   0  0  0  0  0  0  0  0  0  0  0  0
   -2.8198   -3.5366    1.0639 C   0  0  0  0  0  0  0  0  0  0  0  0
   -2.3969   -4.5462    0.1913 C   0  0  0  0  0  0  0  0  0  0  0  0
   -3.3492   -5.2770   -0.5205 C   0  0  0  0  0  0  0  0  0  0  0  0
   -4.7025   -4.9980   -0.3480 C   0  0  0  0  0  0  0  0  0  0  0  0
   -5.6114   -5.7020   -1.0349 F   0  0  0  0  0  0  0  0  0  0  0  0
   -5.1268   -4.0023    0.5272 C   0  0  0  0  0  0  0  0  0  0  0  0
   -4.1825   -3.2667    1.2435 C   0  0  0  0  0  0  0  0  0  0  0  0
   -0.5269   -0.6545    0.3676 C   0  0  0  0  0  0  0  0  0  0  0  0
    0.6428   -1.1866   -0.0565 N   0  0  0  0  0  0  0  0  0  0  0  0
    1.6958   -0.3099   -0.5601 C   0  0  0  0  0  0  0  0  0  0  0  0
    2.8631   -1.1571   -1.0677 C   0  0  0  0  0  0  0  0  0  0  0  0
    3.9631   -0.3123   -1.7229 C   0  0  0  0  0  0  0  0  0  0  0  0
    4.5529    0.6990   -0.8351 N   0  0  0  0  0  0  0  0  0  0  0  0
    5.4721    1.6023   -1.5650 C   0  0  0  0  0  0  0  0  0  0  0  0
    6.9561    1.2476   -1.3835 C   0  0  0  0  0  0  0  0  0  0  0  0
    7.3817    1.2785   -0.0145 O   0  0  0  0  0  0  0  0  0  0  0  0
    6.3170    1.0196    0.9109 C   0  0  0  0  0  0  0  0  0  0  0  0
    5.2426    0.0900    0.3268 C   0  0  0  0  0  0  0  0  0  0  0  0
   -0.8753    0.5862   -0.0846 O   0  0  0  0  0  0  0  0  0  0  0  0
   -3.9198    2.4880    0.7872 C   0  0  0  0  0  0  0  0  0  0  0  0
   -6.6734    3.7108    0.5467 H   0  0  0  0  0  0  0  0  0  0  0  0
   -5.9396    5.1533    1.2898 H   0  0  0  0  0  0  0  0  0  0  0  0
   -5.9219    3.6192    2.1588 H   0  0  0  0  0  0  0  0  0  0  0  0
   -4.4112    5.5433   -0.6367 H   0  0  0  0  0  0  0  0  0  0  0  0
   -2.2797    4.9354   -1.7250 H   0  0  0  0  0  0  0  0  0  0  0  0
   -1.1874    2.7857   -1.2255 H   0  0  0  0  0  0  0  0  0  0  0  0
   -1.3404   -4.7694    0.0593 H   0  0  0  0  0  0  0  0  0  0  0  0
   -3.0476   -6.0629   -1.2065 H   0  0  0  0  0  0  0  0  0  0  0  0
   -6.1884   -3.8082    0.6464 H   0  0  0  0  0  0  0  0  0  0  0  0
   -4.5100   -2.4895    1.9321 H   0  0  0  0  0  0  0  0  0  0  0  0
    0.9877   -1.9923    0.4737 H   0  0  0  0  0  0  0  0  0  0  0  0
    1.3125    0.3071   -1.3819 H   0  0  0  0  0  0  0  0  0  0  0  0
    2.0279    0.3574    0.2435 H   0  0  0  0  0  0  0  0  0  0  0  0
    2.4915   -1.8745   -1.8110 H   0  0  0  0  0  0  0  0  0  0  0  0
    3.2747   -1.7601   -0.2491 H   0  0  0  0  0  0  0  0  0  0  0  0
    3.5129    0.1901   -2.5892 H   0  0  0  0  0  0  0  0  0  0  0  0
    4.7411   -0.9786   -2.1175 H   0  0  0  0  0  0  0  0  0  0  0  0
    5.2262    1.6558   -2.6321 H   0  0  0  0  0  0  0  0  0  0  0  0
    5.3079    2.6106   -1.1643 H   0  0  0  0  0  0  0  0  0  0  0  0
    7.5819    1.9565   -1.9354 H   0  0  0  0  0  0  0  0  0  0  0  0
    7.1670    0.2489   -1.7834 H   0  0  0  0  0  0  0  0  0  0  0  0
    5.8835    1.9793    1.2163 H   0  0  0  0  0  0  0  0  0  0  0  0
    6.7620    0.5662    1.8026 H   0  0  0  0  0  0  0  0  0  0  0  0
    4.5054   -0.1393    1.1041 H   0  0  0  0  0  0  0  0  0  0  0  0
    5.7314   -0.8472    0.0309 H   0  0  0  0  0  0  0  0  0  0  0  0
   -4.3871    1.7977    1.4890 H   0  0  0  0  0  0  0  0  0  0  0  0
  1  2  1  0
  2  3  2  0
  3  4  1  0
  4  5  2  0
  5  6  1  0
  6  7  1  0
  7  8  2  0
  8  9  1  0
  9 10  1  0
 10 11  2  0
 10 12  2  0
 10 13  1  0
 13 14  2  0
 14 15  1  0
 15 16  2  0
 16 17  1  0
 16 18  1  0
 18 19  2  0
  9 20  2  0
 20 21  1  0
 21 22  1  0
 22 23  1  0
 23 24  1  0
 24 25  1  0
 25 26  1  0
 26 27  1  0
 27 28  1  0
 28 29  1  0
 29 30  1  0
 20 31  1  0
  6 32  2  0
 32  2  1  0
 31  7  1  0
 19 13  1  0
 30 25  1  0
  1 33  1  0
  1 34  1  0
  1 35  1  0
  3 36  1  0
  4 37  1  0
  5 38  1  0
 14 39  1  0
 15 40  1  0
 18 41  1  0
 19 42  1  0
 21 43  1  0
 22 44  1  0
 22 45  1  0
 23 46  1  0
 23 47  1  0
 24 48  1  0
 24 49  1  0
 26 50  1  0
 26 51  1  0
 27 52  1  0
 27 53  1  0
 29 54  1  0
 29 55  1  0
 30 56  1  0
 30 57  1  0
 32 58  1  0
M  END
$$$$
