
     RDKit          3D

 43 45  0  0  0  0  0  0  0  0999 V2000
    2.0843    2.0980   -2.2719 O   0  0  0  0  0  0  0  0  0  0  0  0
    2.4398    1.5589   -1.2170 C   0  0  0  0  0  0  0  0  0  0  0  0
    3.8704    0.9846   -1.1169 C   0  0  0  0  0  0  0  0  0  0  0  0
    4.7830    1.8122   -0.2152 C   0  0  0  0  0  0  0  0  0  0  0  0
    5.4588    0.7978    0.6809 C   0  0  0  0  0  0  0  0  0  0  0  0
    5.2551   -0.5074   -0.0515 C   0  0  0  0  0  0  0  0  0  0  0  0
    3.9849   -0.3789   -0.6999 O   0  0  0  0  0  0  0  0  0  0  0  0
    1.5937    1.5236   -0.1116 N   0  0  0  0  0  0  0  0  0  0  0  0
    0.2139    1.9644   -0.3144 C   0  0  0  0  0  0  0  0  0  0  0  0
   -0.6795    0.7692   -0.6922 C   0  0  0  0  0  0  0  0  0  0  0  0
   -0.5503   -0.3542    0.2724 N   0  0  0  0  0  0  0  0  0  0  0  0
   -1.6492   -1.1359    0.6863 C   0  0  0  0  0  0  0  0  0  0  0  0
   -1.5903   -2.1895    1.9960 S   0  0  0  0  0  0  0  0  0  0  0  0
   -2.7545   -0.9705   -0.1391 N   0  0  0  0  0  0  0  0  0  0  0  0
   -4.1260   -1.2155    0.0902 C   0  0  0  0  0  0  0  0  0  0  0  0
   -4.9387   -1.4138   -1.0360 C   0  0  0  0  0  0  0  0  0  0  0  0
   -6.3119   -1.6286   -0.8935 C   0  0  0  0  0  0  0  0  0  0  0  0
   -6.8759   -1.6260    0.3748 C   0  0  0  0  0  0  0  0  0  0  0  0
   -8.1926   -1.8274    0.5130 F   0  0  0  0  0  0  0  0  0  0  0  0
   -6.0936   -1.4028    1.4995 C   0  0  0  0  0  0  0  0  0  0  0  0
   -4.7191   -1.1883    1.3561 C   0  0  0  0  0  0  0  0  0  0  0  0
    0.8558   -0.7088    0.6083 C   0  0  0  0  0  0  0  0  0  0  0  0
    1.6942    0.5311    0.9590 C   0  0  0  0  0  0  0  0  0  0  0  0
    4.2735    1.0160   -2.1387 H   0  0  0  0  0  0  0  0  0  0  0  0
    4.2531    2.5753    0.3642 H   0  0  0  0  0  0  0  0  0  0  0  0
    5.5251    2.3402   -0.8259 H   0  0  0  0  0  0  0  0  0  0  0  0
    6.5128    1.0189    0.8699 H   0  0  0  0  0  0  0  0  0  0  0  0
    4.9466    0.7671    1.6492 H   0  0  0  0  0  0  0  0  0  0  0  0
    5.2436   -1.3712    0.6185 H   0  0  0  0  0  0  0  0  0  0  0  0
    6.0225   -0.6625   -0.8180 H   0  0  0  0  0  0  0  0  0  0  0  0
   -0.1315    2.4090    0.6268 H   0  0  0  0  0  0  0  0  0  0  0  0
    0.1538    2.7408   -1.0839 H   0  0  0  0  0  0  0  0  0  0  0  0
   -0.3970    0.3738   -1.6749 H   0  0  0  0  0  0  0  0  0  0  0  0
   -1.7148    1.1186   -0.7468 H   0  0  0  0  0  0  0  0  0  0  0  0
   -2.5005   -0.8710   -1.1133 H   0  0  0  0  0  0  0  0  0  0  0  0
   -4.5131   -1.4200   -2.0361 H   0  0  0  0  0  0  0  0  0  0  0  0
   -6.9415   -1.7964   -1.7613 H   0  0  0  0  0  0  0  0  0  0  0  0
   -6.5546   -1.3867    2.4819 H   0  0  0  0  0  0  0  0  0  0  0  0
   -4.1426   -0.9700    2.2492 H   0  0  0  0  0  0  0  0  0  0  0  0
    0.9210   -1.4267    1.4271 H   0  0  0  0  0  0  0  0  0  0  0  0
    1.2638   -1.1994   -0.2839 H   0  0  0  0  0  0  0  0  0  0  0  0
    1.3031    0.9969    1.8720 H   0  0  0  0  0  0  0  0  0  0  0  0
    2.7243    0.2552    1.1664 H   0  0  0  0  0  0  0  0  0  0  0  0
  1  2  2  0
  2  3  1  0
  3  4  1  0
  4  5  1  0
  5  6  1  0
  6  7  1  0
  2  8  1  0
  8  9  1  0
  9 10  1  0
 10 11  1  0
 11 12  1  0
 12 13  2  0
 12 14  1  0
 14 15  1  0
 15 16  2  0
 16 17  1  0
 17 18  2  0
 18 19  1  0
 18 20  1  0
 20 21  2  0
 11 22  1  0
 22 23  1  0
  7  3  1  0
 23  8  1  0
 21 15  1  0
  3 24  1  0
  4 25  1  0
  4 26  1  0
  5 27  1  0
  5 28  1  0
  6 29  1  0
  6 30  1  0
  9 31  1  0
  9 32  1  0
 10 33  1  0
 10 34  1  0
 14 35  1  0
 16 36  1  0
 17 37  1  0
 20 38  1  0
 21 39  1  0
 22 40  1  0
 22 41  1  0
 23 42  1  0
 23 43  1  0
M  END
$$$$
