
     RDKit          3D

 51 54  0  0  0  0  0  0  0  0999 V2000
    1.7553    3.0273    3.5565 C   0  0  0  0  0  0  0  0  0  0  0  0
    0.2670    2.8084    3.7672 C   0  0  0  0  0  0  0  0  0  0  0  0
   -0.4831    3.2865    2.6545 O   0  0  0  0  0  0  0  0  0  0  0  0
   -0.6843    2.4816    1.5624 C   0  0  0  0  0  0  0  0  0  0  0  0
   -0.1883    1.1794    1.4266 C   0  0  0  0  0  0  0  0  0  0  0  0
   -0.4404    0.4205    0.2684 C   0  0  0  0  0  0  0  0  0  0  0  0
    0.0874   -1.0132    0.1875 C   0  0  0  0  0  0  0  0  0  0  0  0
   -1.0625   -2.0160    0.3285 C   0  0  0  0  0  0  0  0  0  0  0  0
   -0.7595   -3.1454    1.2990 C   0  0  0  0  0  0  0  0  0  0  0  0
    0.0759   -3.0404    2.1938 O   0  0  0  0  0  0  0  0  0  0  0  0
   -1.5737   -4.4208    1.1261 C   0  0  0  0  0  0  0  0  0  0  0  0
   -2.9127   -4.1226    0.4482 C   0  0  0  0  0  0  0  0  0  0  0  0
   -2.7422   -3.4973   -0.9393 C   0  0  0  0  0  0  0  0  0  0  0  0
   -1.4903   -2.6418   -0.9854 C   0  0  0  0  0  0  0  0  0  0  0  0
   -0.8438   -2.5680   -2.1049 N   0  0  0  0  0  0  0  0  0  0  0  0
    0.3490   -1.9304   -2.1131 C   0  0  0  0  0  0  0  0  0  0  0  0
    1.2528   -1.8732   -3.0628 N   0  0  0  0  0  0  0  0  0  0  0  0
    2.2949   -1.1340   -2.5208 C   0  0  0  0  0  0  0  0  0  0  0  0
    3.5341   -0.8321   -3.2653 C   0  0  0  0  0  0  0  0  0  0  0  0
    3.7443   -1.1935   -4.4205 O   0  0  0  0  0  0  0  0  0  0  0  0
    4.4328   -0.1021   -2.5298 O   0  0  0  0  0  0  0  0  0  0  0  0
    5.6397    0.2072   -3.2232 C   0  0  0  0  0  0  0  0  0  0  0  0
    2.0562   -0.7331   -1.2535 N   0  0  0  0  0  0  0  0  0  0  0  0
    0.8226   -1.2200   -1.0471 N   0  0  0  0  0  0  0  0  0  0  0  0
   -1.2093    0.9928   -0.7551 C   0  0  0  0  0  0  0  0  0  0  0  0
   -1.7043    2.2935   -0.6303 C   0  0  0  0  0  0  0  0  0  0  0  0
   -1.4470    3.0446    0.5202 C   0  0  0  0  0  0  0  0  0  0  0  0
   -1.9021    4.3235    0.7271 O   0  0  0  0  0  0  0  0  0  0  0  0
   -2.5485    4.9762   -0.3562 C   0  0  0  0  0  0  0  0  0  0  0  0
    2.3189    2.7295    4.4454 H   0  0  0  0  0  0  0  0  0  0  0  0
    1.9610    4.0822    3.3468 H   0  0  0  0  0  0  0  0  0  0  0  0
    2.1287    2.4562    2.7013 H   0  0  0  0  0  0  0  0  0  0  0  0
    0.0250    1.7711    4.0216 H   0  0  0  0  0  0  0  0  0  0  0  0
   -0.0480    3.4063    4.6302 H   0  0  0  0  0  0  0  0  0  0  0  0
    0.4118    0.7315    2.2130 H   0  0  0  0  0  0  0  0  0  0  0  0
    0.8338   -1.1474    0.9800 H   0  0  0  0  0  0  0  0  0  0  0  0
   -1.9453   -1.5173    0.7538 H   0  0  0  0  0  0  0  0  0  0  0  0
   -0.9858   -5.1284    0.5320 H   0  0  0  0  0  0  0  0  0  0  0  0
   -1.7529   -4.8540    2.1157 H   0  0  0  0  0  0  0  0  0  0  0  0
   -3.5071   -5.0396    0.3668 H   0  0  0  0  0  0  0  0  0  0  0  0
   -3.4878   -3.4330    1.0799 H   0  0  0  0  0  0  0  0  0  0  0  0
   -3.6096   -2.8803   -1.1948 H   0  0  0  0  0  0  0  0  0  0  0  0
   -2.6534   -4.2873   -1.6940 H   0  0  0  0  0  0  0  0  0  0  0  0
    6.2833    0.7763   -2.5465 H   0  0  0  0  0  0  0  0  0  0  0  0
    6.1652   -0.7091   -3.5099 H   0  0  0  0  0  0  0  0  0  0  0  0
    5.4298    0.8259   -4.1014 H   0  0  0  0  0  0  0  0  0  0  0  0
   -1.4303    0.4464   -1.6705 H   0  0  0  0  0  0  0  0  0  0  0  0
   -2.2901    2.6928   -1.4519 H   0  0  0  0  0  0  0  0  0  0  0  0
   -2.7769    5.9992   -0.0422 H   0  0  0  0  0  0  0  0  0  0  0  0
   -3.4959    4.4853   -0.6014 H   0  0  0  0  0  0  0  0  0  0  0  0
   -1.8944    5.0359   -1.2325 H   0  0  0  0  0  0  0  0  0  0  0  0
  1  2  1  0
  2  3  1  0
  3  4  1  0
  4  5  2  0
  5  6  1  0
  6  7  1  0
  7  8  1  0
  8  9  1  0
  9 10  2  0
  9 11  1  0
 11 12  1  0
 12 13  1  0
 13 14  1  0
 14 15  2  0
 15 16  1  0
 16 17  2  0
 17 18  1  0
 18 19  1  0
 19 20  2  0
 19 21  1  0
 21 22  1  0
 18 23  2  0
 23 24  1  0
  6 25  2  0
 25 26  1  0
 26 27  2  0
 27 28  1  0
 28 29  1  0
 27  4  1  0
 24  7  1  0
 14  8  1  0
 24 16  1  0
  1 30  1  0
  1 31  1  0
  1 32  1  0
  2 33  1  0
  2 34  1  0
  5 35  1  0
  7 36  1  0
  8 37  1  0
 11 38  1  0
 11 39  1  0
 12 40  1  0
 12 41  1  0
 13 42  1  0
 13 43  1  0
 22 44  1  0
 22 45  1  0
 22 46  1  0
 25 47  1  0
 26 48  1  0
 29 49  1  0
 29 50  1  0
 29 51  1  0
M  END
$$$$
