
     RDKit          3D

 41 42  0  0  0  0  0  0  0  0999 V2000
   -3.5100   -2.5813    0.1437 C   0  0  0  0  0  0  0  0  0  0  0  0
   -2.7512   -1.2832    0.2601 C   0  0  0  0  0  0  0  0  0  0  0  0
   -1.9055   -0.9718    1.2659 C   0  0  0  0  0  0  0  0  0  0  0  0
   -1.6560   -1.8374    2.4753 C   0  0  0  0  0  0  0  0  0  0  0  0
   -1.1214    0.3212    1.2840 C   0  0  0  0  0  0  0  0  0  0  0  0
   -1.0951    1.1002   -0.0400 C   0  0  0  0  0  0  0  0  0  0  0  0
    0.0073    0.6112   -0.9895 C   0  0  0  0  0  0  0  0  0  0  0  0
   -0.2473    0.1568   -2.0999 O   0  0  0  0  0  0  0  0  0  0  0  0
    1.2822    0.7932   -0.4712 N   0  0  0  0  0  0  0  0  0  0  0  0
    2.5113    0.4263   -1.0606 C   0  0  0  0  0  0  0  0  0  0  0  0
    2.6249   -0.2603   -2.2729 C   0  0  0  0  0  0  0  0  0  0  0  0
    3.8803   -0.5956   -2.7945 C   0  0  0  0  0  0  0  0  0  0  0  0
    5.0419   -0.2503   -2.1083 C   0  0  0  0  0  0  0  0  0  0  0  0
    4.9346    0.4330   -0.8933 C   0  0  0  0  0  0  0  0  0  0  0  0
    6.1494    0.8017   -0.1571 N   0  0  0  0  0  4  0  0  0  0  0  0
    7.2422    0.4924   -0.6521 O   0  0  0  0  0  0  0  0  0  0  0  0
    6.0095    1.4018    0.9187 O   0  0  0  0  0  1  0  0  0  0  0  0
    3.6778    0.7710   -0.3669 C   0  0  0  0  0  0  0  0  0  0  0  0
   -2.4722    1.0888   -0.7209 C   0  0  0  0  0  0  0  0  0  0  0  0
   -3.4490    1.9730    0.0271 C   0  0  0  0  0  0  0  0  0  0  0  0
   -4.5445    1.6731    0.4687 O   0  0  0  0  0  0  0  0  0  0  0  0
   -3.0105    3.2440    0.1456 O   0  0  0  0  0  0  0  0  0  0  0  0
   -3.0265   -0.3335   -0.8891 C   0  0  0  0  0  0  0  0  0  0  0  0
   -3.1366   -3.3665    0.8043 H   0  0  0  0  0  0  0  0  0  0  0  0
   -3.4276   -2.9747   -0.8758 H   0  0  0  0  0  0  0  0  0  0  0  0
   -4.5699   -2.4185    0.3640 H   0  0  0  0  0  0  0  0  0  0  0  0
   -1.6875   -1.2282    3.3857 H   0  0  0  0  0  0  0  0  0  0  0  0
   -2.3997   -2.6256    2.6102 H   0  0  0  0  0  0  0  0  0  0  0  0
   -0.6672   -2.3020    2.4076 H   0  0  0  0  0  0  0  0  0  0  0  0
   -1.5627    0.9632    2.0583 H   0  0  0  0  0  0  0  0  0  0  0  0
   -0.0994    0.1030    1.6155 H   0  0  0  0  0  0  0  0  0  0  0  0
   -0.8161    2.1376    0.1937 H   0  0  0  0  0  0  0  0  0  0  0  0
    1.3454    1.2783    0.4154 H   0  0  0  0  0  0  0  0  0  0  0  0
    1.7500   -0.5584   -2.8441 H   0  0  0  0  0  0  0  0  0  0  0  0
    3.9432   -1.1298   -3.7405 H   0  0  0  0  0  0  0  0  0  0  0  0
    6.0088   -0.5190   -2.5285 H   0  0  0  0  0  0  0  0  0  0  0  0
    3.6106    1.3024    0.5797 H   0  0  0  0  0  0  0  0  0  0  0  0
   -2.4045    1.5317   -1.7246 H   0  0  0  0  0  0  0  0  0  0  0  0
   -3.7533    3.7021    0.5946 H   0  0  0  0  0  0  0  0  0  0  0  0
   -4.1092   -0.2898   -1.0646 H   0  0  0  0  0  0  0  0  0  0  0  0
   -2.5962   -0.7800   -1.7947 H   0  0  0  0  0  0  0  0  0  0  0  0
  1  2  1  0
  2  3  2  0
  3  4  1  0
  3  5  1  0
  5  6  1  0
  6  7  1  0
  7  8  2  0
  7  9  1  0
  9 10  1  0
 10 11  2  0
 11 12  1  0
 12 13  2  0
 13 14  1  0
 14 15  1  0
 15 16  2  0
 15 17  1  0
 14 18  2  0
  6 19  1  0
 19 20  1  0
 20 21  2  0
 20 22  1  0
 19 23  1  0
 23  2  1  0
 18 10  1  0
  1 24  1  0
  1 25  1  0
  1 26  1  0
  4 27  1  0
  4 28  1  0
  4 29  1  0
  5 30  1  0
  5 31  1  0
  6 32  1  0
  9 33  1  0
 11 34  1  0
 12 35  1  0
 13 36  1  0
 18 37  1  0
 19 38  1  0
 22 39  1  0
 23 40  1  0
 23 41  1  0
M  CHG  2  15   1  17  -1
M  END
$$$$
