
     RDKit          3D

 51 53  0  0  0  0  0  0  0  0999 V2000
   -5.1613    0.8319    0.8122 O   0  0  0  0  0  0  0  0  0  0  0  0
   -5.4779   -0.3531    0.7574 C   0  0  0  0  0  0  0  0  0  0  0  0
   -4.5452   -1.4563    1.2772 C   0  0  0  0  0  0  0  0  0  0  0  0
   -3.1874   -1.0330    1.3877 O   0  0  0  0  0  0  0  0  0  0  0  0
   -2.5597   -0.8854    0.1876 C   0  0  0  0  0  0  0  0  0  0  0  0
   -3.0431   -1.1850   -0.8947 O   0  0  0  0  0  0  0  0  0  0  0  0
   -1.1860   -0.3098    0.3994 C   0  0  0  0  0  0  0  0  0  0  0  0
   -0.4394   -0.2099   -0.9272 C   0  0  0  0  0  0  0  0  0  0  0  0
    0.9227    0.3024   -0.7475 N   0  0  0  0  0  0  0  0  0  0  0  0
    1.9196   -0.5891   -0.3888 C   0  0  0  0  0  0  0  0  0  0  0  0
    1.7705   -1.7878   -0.1922 O   0  0  0  0  0  0  0  0  0  0  0  0
    3.2196    0.1180   -0.2432 C   0  0  0  0  0  0  0  0  0  0  0  0
    4.3441   -0.5352    0.0809 C   0  0  0  0  0  0  0  0  0  0  0  0
    5.6611    0.0461    0.2550 C   0  0  0  0  0  0  0  0  0  0  0  0
    6.7359   -0.6876    0.5852 C   0  0  0  0  0  0  0  0  0  0  0  0
    8.0818   -0.1281    0.7774 C   0  0  0  0  0  0  0  0  0  0  0  0
    8.6006    0.8744   -0.0526 C   0  0  0  0  0  0  0  0  0  0  0  0
    9.8962    1.3596    0.1439 C   0  0  0  0  0  0  0  0  0  0  0  0
   10.6894    0.8404    1.1650 C   0  0  0  0  0  0  0  0  0  0  0  0
   10.1901   -0.1672    1.9870 C   0  0  0  0  0  0  0  0  0  0  0  0
    8.8948   -0.6529    1.7906 C   0  0  0  0  0  0  0  0  0  0  0  0
    3.0130    1.7962   -0.5389 S   0  0  0  0  0  0  0  0  0  0  0  0
    1.2881    1.6288   -0.8458 C   0  0  0  0  0  0  0  0  0  0  0  0
    0.3201    2.9416   -1.1910 S   0  0  0  0  0  0  0  0  0  0  0  0
   -6.6710   -0.8544    0.2665 N   0  0  0  0  0  0  0  0  0  0  0  0
   -7.7508   -0.1247   -0.2796 C   0  0  0  0  0  0  0  0  0  0  0  0
   -7.7927    1.2645   -0.3905 C   0  0  0  0  0  0  0  0  0  0  0  0
   -8.9151    1.8771   -0.9485 C   0  0  0  0  0  0  0  0  0  0  0  0
   -8.9522    3.2122   -1.0513 F   0  0  0  0  0  0  0  0  0  0  0  0
  -10.0018    1.1337   -1.4011 C   0  0  0  0  0  0  0  0  0  0  0  0
   -9.9707   -0.2535   -1.2945 C   0  0  0  0  0  0  0  0  0  0  0  0
   -8.8512   -0.8666   -0.7368 C   0  0  0  0  0  0  0  0  0  0  0  0
   -8.8297   -2.2052   -0.6329 F   0  0  0  0  0  0  0  0  0  0  0  0
   -4.8856   -1.7235    2.2833 H   0  0  0  0  0  0  0  0  0  0  0  0
   -4.6153   -2.3570    0.6560 H   0  0  0  0  0  0  0  0  0  0  0  0
   -0.6402   -0.9597    1.0921 H   0  0  0  0  0  0  0  0  0  0  0  0
   -1.2878    0.6807    0.8553 H   0  0  0  0  0  0  0  0  0  0  0  0
   -0.9875    0.4259   -1.6304 H   0  0  0  0  0  0  0  0  0  0  0  0
   -0.3744   -1.2023   -1.3914 H   0  0  0  0  0  0  0  0  0  0  0  0
    4.2811   -1.6137    0.2334 H   0  0  0  0  0  0  0  0  0  0  0  0
    5.7620    1.1211    0.1226 H   0  0  0  0  0  0  0  0  0  0  0  0
    6.6488   -1.7593    0.7500 H   0  0  0  0  0  0  0  0  0  0  0  0
    8.0080    1.2815   -0.8682 H   0  0  0  0  0  0  0  0  0  0  0  0
   10.2868    2.1393   -0.5047 H   0  0  0  0  0  0  0  0  0  0  0  0
   11.6973    1.2177    1.3167 H   0  0  0  0  0  0  0  0  0  0  0  0
   10.8085   -0.5772    2.7813 H   0  0  0  0  0  0  0  0  0  0  0  0
    8.5233   -1.4393    2.4433 H   0  0  0  0  0  0  0  0  0  0  0  0
   -6.7935   -1.8627    0.2537 H   0  0  0  0  0  0  0  0  0  0  0  0
   -6.9811    1.9024   -0.0606 H   0  0  0  0  0  0  0  0  0  0  0  0
  -10.8591    1.6423   -1.8312 H   0  0  0  0  0  0  0  0  0  0  0  0
  -10.8036   -0.8580   -1.6389 H   0  0  0  0  0  0  0  0  0  0  0  0
  1  2  2  0
  2  3  1  0
  3  4  1  0
  4  5  1  0
  5  6  2  0
  5  7  1  0
  7  8  1  0
  8  9  1  0
  9 10  1  0
 10 11  2  0
 10 12  1  0
 12 13  2  3
 13 14  1  0
 14 15  2  3
 15 16  1  0
 16 17  2  0
 17 18  1  0
 18 19  2  0
 19 20  1  0
 20 21  2  0
 12 22  1  0
 22 23  1  0
 23 24  2  0
  2 25  1  0
 25 26  1  0
 26 27  2  0
 27 28  1  0
 28 29  1  0
 28 30  2  0
 30 31  1  0
 31 32  2  0
 32 33  1  0
 23  9  1  0
 32 26  1  0
 21 16  1  0
  3 34  1  0
  3 35  1  0
  7 36  1  0
  7 37  1  0
  8 38  1  0
  8 39  1  0
 13 40  1  0
 14 41  1  0
 15 42  1  0
 17 43  1  0
 18 44  1  0
 19 45  1  0
 20 46  1  0
 21 47  1  0
 25 48  1  0
 27 49  1  0
 30 50  1  0
 31 51  1  0
M  END
$$$$
