
     RDKit          3D

 52 54  0  0  0  0  0  0  0  0999 V2000
    1.0108   -4.0838   -0.7160 C   0  0  0  0  0  0  0  0  0  0  0  0
    0.9463   -3.7792    0.7693 C   0  0  0  0  0  0  0  0  0  0  0  0
    2.0091   -2.8859    1.1348 O   0  0  0  0  0  0  0  0  0  0  0  0
    1.7462   -1.5655    0.9798 C   0  0  0  0  0  0  0  0  0  0  0  0
    0.6933   -1.0880    0.5856 O   0  0  0  0  0  0  0  0  0  0  0  0
    2.9356   -0.7336    1.3139 C   0  0  0  0  0  0  0  0  0  0  0  0
    3.9677   -1.2859    2.0962 C   0  0  0  0  0  0  0  0  0  0  0  0
    5.0900   -0.5291    2.4231 C   0  0  0  0  0  0  0  0  0  0  0  0
    5.1898    0.7806    1.9714 C   0  0  0  0  0  0  0  0  0  0  0  0
    4.1695    1.3407    1.1950 C   0  0  0  0  0  0  0  0  0  0  0  0
    3.0269    0.6041    0.8554 C   0  0  0  0  0  0  0  0  0  0  0  0
    1.9778    1.1560    0.0680 N   0  0  0  0  0  0  0  0  0  0  0  0
    1.9052    2.4110   -0.5030 C   0  0  0  0  0  0  0  0  0  0  0  0
    2.7557    3.2937   -0.4129 O   0  0  0  0  0  0  0  0  0  0  0  0
    0.6555    2.6733   -1.3372 C   0  0  0  0  0  0  0  0  0  0  0  0
    0.5738    1.7679   -2.5611 C   0  0  0  0  0  0  0  0  0  0  0  0
   -0.4588    0.7357   -2.1882 C   0  0  0  0  0  0  0  0  0  0  0  0
   -0.7488   -0.2324   -2.8713 O   0  0  0  0  0  0  0  0  0  0  0  0
   -1.0249    1.0979   -0.9707 N   0  0  0  0  0  0  0  0  0  0  0  0
   -2.2138    0.4236   -0.4452 C   0  0  0  0  0  0  0  0  0  0  0  0
   -3.4932    0.8866   -1.1715 C   0  0  0  0  0  0  0  0  0  0  0  0
   -4.7629    0.7333   -0.3285 C   0  0  0  0  0  0  0  0  0  0  0  0
   -4.6722   -0.4515    0.6230 C   0  0  0  0  0  0  0  0  0  0  0  0
   -3.5072   -0.3093    1.6047 C   0  0  0  0  0  0  0  0  0  0  0  0
   -2.3614    0.5562    1.0734 C   0  0  0  0  0  0  0  0  0  0  0  0
   -0.6306    2.4299   -0.5743 C   0  0  0  0  0  0  0  0  0  0  0  0
    0.2473   -4.8146   -0.9966 H   0  0  0  0  0  0  0  0  0  0  0  0
    0.8612   -3.1762   -1.3101 H   0  0  0  0  0  0  0  0  0  0  0  0
    1.9963   -4.4806   -0.9825 H   0  0  0  0  0  0  0  0  0  0  0  0
   -0.0317   -3.3742    1.0542 H   0  0  0  0  0  0  0  0  0  0  0  0
    1.0926   -4.7013    1.3418 H   0  0  0  0  0  0  0  0  0  0  0  0
    3.9060   -2.3080    2.4629 H   0  0  0  0  0  0  0  0  0  0  0  0
    5.8840   -0.9597    3.0282 H   0  0  0  0  0  0  0  0  0  0  0  0
    6.0633    1.3788    2.2217 H   0  0  0  0  0  0  0  0  0  0  0  0
    4.3039    2.3693    0.8755 H   0  0  0  0  0  0  0  0  0  0  0  0
    1.1696    0.5389   -0.0584 H   0  0  0  0  0  0  0  0  0  0  0  0
    0.7112    3.7252   -1.6444 H   0  0  0  0  0  0  0  0  0  0  0  0
    1.5224    1.2834   -2.8053 H   0  0  0  0  0  0  0  0  0  0  0  0
    0.2024    2.3205   -3.4306 H   0  0  0  0  0  0  0  0  0  0  0  0
   -2.0798   -0.6431   -0.6739 H   0  0  0  0  0  0  0  0  0  0  0  0
   -3.4142    1.9339   -1.4880 H   0  0  0  0  0  0  0  0  0  0  0  0
   -3.5991    0.3050   -2.0973 H   0  0  0  0  0  0  0  0  0  0  0  0
   -4.9242    1.6504    0.2533 H   0  0  0  0  0  0  0  0  0  0  0  0
   -5.6319    0.6256   -0.9883 H   0  0  0  0  0  0  0  0  0  0  0  0
   -4.5443   -1.3717    0.0390 H   0  0  0  0  0  0  0  0  0  0  0  0
   -5.6101   -0.5648    1.1792 H   0  0  0  0  0  0  0  0  0  0  0  0
   -3.8664    0.1237    2.5469 H   0  0  0  0  0  0  0  0  0  0  0  0
   -3.1319   -1.3104    1.8514 H   0  0  0  0  0  0  0  0  0  0  0  0
   -2.5567    1.6042    1.3382 H   0  0  0  0  0  0  0  0  0  0  0  0
   -1.4311    0.2810    1.5841 H   0  0  0  0  0  0  0  0  0  0  0  0
   -1.4118    3.1280   -0.8946 H   0  0  0  0  0  0  0  0  0  0  0  0
   -0.5067    2.4904    0.5108 H   0  0  0  0  0  0  0  0  0  0  0  0
  1  2  1  0
  2  3  1  0
  3  4  1  0
  4  5  2  0
  4  6  1  0
  6  7  2  0
  7  8  1  0
  8  9  2  0
  9 10  1  0
 10 11  2  0
 11 12  1  0
 12 13  1  0
 13 14  2  0
 13 15  1  0
 15 16  1  0
 16 17  1  0
 17 18  2  0
 17 19  1  0
 19 20  1  0
 20 21  1  0
 21 22  1  0
 22 23  1  0
 23 24  1  0
 24 25  1  0
 19 26  1  0
 11  6  1  0
 26 15  1  0
 25 20  1  0
  1 27  1  0
  1 28  1  0
  1 29  1  0
  2 30  1  0
  2 31  1  0
  7 32  1  0
  8 33  1  0
  9 34  1  0
 10 35  1  0
 12 36  1  0
 15 37  1  0
 16 38  1  0
 16 39  1  0
 20 40  1  0
 21 41  1  0
 21 42  1  0
 22 43  1  0
 22 44  1  0
 23 45  1  0
 23 46  1  0
 24 47  1  0
 24 48  1  0
 25 49  1  0
 25 50  1  0
 26 51  1  0
 26 52  1  0
M  END
$$$$
