
     RDKit          3D

 46 48  0  0  0  0  0  0  0  0999 V2000
   -1.5699   -2.4090   -2.1755 N   0  0  0  0  0  0  0  0  0  0  0  0
   -0.5627   -1.5703   -1.8741 C   0  0  0  0  0  0  0  0  0  0  0  0
    0.2073   -1.0375   -2.7747 N   0  0  0  0  0  0  0  0  0  0  0  0
    1.1325   -0.1669   -1.9919 C   0  0  0  0  0  0  0  0  0  0  0  0
    0.8706   -0.4475   -0.4939 C   0  0  0  0  0  0  0  0  0  0  0  0
    2.0246   -1.2070    0.1796 C   0  0  0  0  0  0  0  0  0  0  0  0
    3.2337   -0.3386    0.4399 C   0  0  0  0  0  0  0  0  0  0  0  0
    4.3889   -0.4696   -0.3444 C   0  0  0  0  0  0  0  0  0  0  0  0
    5.5020    0.3413   -0.1106 C   0  0  0  0  0  0  0  0  0  0  0  0
    5.4598    1.2831    0.9116 C   0  0  0  0  0  0  0  0  0  0  0  0
    6.5228    2.0953    1.1742 O   0  0  0  0  0  0  0  0  0  0  0  0
    4.3261    1.4249    1.7017 C   0  0  0  0  0  0  0  0  0  0  0  0
    3.2139    0.6153    1.4679 C   0  0  0  0  0  0  0  0  0  0  0  0
   -0.3154   -1.2968   -0.5696 N   0  0  0  0  0  0  0  0  0  0  0  0
   -1.2676   -1.3340    0.5280 C   0  0  0  0  0  0  0  0  0  0  0  0
   -2.0967   -0.0412    0.6757 C   0  0  0  0  0  0  0  0  0  0  0  0
   -3.0469    0.1960   -0.5098 C   0  0  0  0  0  0  0  0  0  0  0  0
   -3.9273    1.4274   -0.3030 C   0  0  0  0  0  0  0  0  0  0  0  0
   -4.7001    1.3589    1.0085 C   0  0  0  0  0  0  0  0  0  0  0  0
   -3.7651    1.1392    2.1915 C   0  0  0  0  0  0  0  0  0  0  0  0
   -2.8928   -0.0972    1.9934 C   0  0  0  0  0  0  0  0  0  0  0  0
   -1.5296   -2.6598   -3.1578 H   0  0  0  0  0  0  0  0  0  0  0  0
   -1.5800   -3.2328   -1.5903 H   0  0  0  0  0  0  0  0  0  0  0  0
    0.9067    0.8791   -2.2290 H   0  0  0  0  0  0  0  0  0  0  0  0
    2.1640   -0.3675   -2.2947 H   0  0  0  0  0  0  0  0  0  0  0  0
    0.6662    0.4950    0.0255 H   0  0  0  0  0  0  0  0  0  0  0  0
    1.6936   -1.6170    1.1430 H   0  0  0  0  0  0  0  0  0  0  0  0
    2.3091   -2.0814   -0.4209 H   0  0  0  0  0  0  0  0  0  0  0  0
    4.4288   -1.2045   -1.1463 H   0  0  0  0  0  0  0  0  0  0  0  0
    6.3841    0.2229   -0.7318 H   0  0  0  0  0  0  0  0  0  0  0  0
    7.2343    1.8847    0.5477 H   0  0  0  0  0  0  0  0  0  0  0  0
    4.3092    2.1630    2.4985 H   0  0  0  0  0  0  0  0  0  0  0  0
    2.3344    0.7332    2.0969 H   0  0  0  0  0  0  0  0  0  0  0  0
   -1.9353   -2.1982    0.4274 H   0  0  0  0  0  0  0  0  0  0  0  0
   -0.7086   -1.5045    1.4565 H   0  0  0  0  0  0  0  0  0  0  0  0
   -1.4162    0.8174    0.7381 H   0  0  0  0  0  0  0  0  0  0  0  0
   -2.4762    0.3383   -1.4333 H   0  0  0  0  0  0  0  0  0  0  0  0
   -3.6860   -0.6837   -0.6565 H   0  0  0  0  0  0  0  0  0  0  0  0
   -4.6293    1.5215   -1.1393 H   0  0  0  0  0  0  0  0  0  0  0  0
   -3.3003    2.3276   -0.3106 H   0  0  0  0  0  0  0  0  0  0  0  0
   -5.2669    2.2855    1.1524 H   0  0  0  0  0  0  0  0  0  0  0  0
   -5.4297    0.5411    0.9612 H   0  0  0  0  0  0  0  0  0  0  0  0
   -4.3525    1.0320    3.1104 H   0  0  0  0  0  0  0  0  0  0  0  0
   -3.1253    2.0206    2.3221 H   0  0  0  0  0  0  0  0  0  0  0  0
   -2.2034   -0.1866    2.8416 H   0  0  0  0  0  0  0  0  0  0  0  0
   -3.5286   -0.9919    2.0053 H   0  0  0  0  0  0  0  0  0  0  0  0
  1  2  1  0
  2  3  2  0
  3  4  1  0
  4  5  1  0
  5  6  1  0
  6  7  1  0
  7  8  2  0
  8  9  1  0
  9 10  2  0
 10 11  1  0
 10 12  1  0
 12 13  2  0
  5 14  1  0
 14 15  1  0
 15 16  1  0
 16 17  1  0
 17 18  1  0
 18 19  1  0
 19 20  1  0
 20 21  1  0
 14  2  1  0
 21 16  1  0
 13  7  1  0
  1 22  1  0
  1 23  1  0
  4 24  1  0
  4 25  1  0
  5 26  1  0
  6 27  1  0
  6 28  1  0
  8 29  1  0
  9 30  1  0
 11 31  1  0
 12 32  1  0
 13 33  1  0
 15 34  1  0
 15 35  1  0
 16 36  1  0
 17 37  1  0
 17 38  1  0
 18 39  1  0
 18 40  1  0
 19 41  1  0
 19 42  1  0
 20 43  1  0
 20 44  1  0
 21 45  1  0
 21 46  1  0
M  END
$$$$
