
     RDKit          3D

 56 58  0  0  0  0  0  0  0  0999 V2000
   -7.7189    0.5305    1.8773 C   0  0  0  0  0  0  0  0  0  0  0  0
   -6.7404    1.3491    1.0578 C   0  0  0  0  0  0  0  0  0  0  0  0
   -5.4162    0.9020    1.3688 O   0  0  0  0  0  0  0  0  0  0  0  0
   -4.4338    1.5381    0.6695 C   0  0  0  0  0  0  0  0  0  0  0  0
   -4.6187    2.4202   -0.1604 O   0  0  0  0  0  0  0  0  0  0  0  0
   -3.0820    0.9671    1.0248 C   0  0  0  0  0  0  0  0  0  0  0  0
   -2.1973    2.0398    1.6153 C   0  0  0  0  0  0  0  0  0  0  0  0
   -2.6306    2.9427    2.3296 O   0  0  0  0  0  0  0  0  0  0  0  0
   -0.7291    1.9484    1.4222 C   0  0  0  0  0  0  0  0  0  0  0  0
   -0.1632    0.9472    0.7278 C   0  0  0  0  0  0  0  0  0  0  0  0
    1.2928    0.8739    0.6492 C   0  0  0  0  0  0  0  0  0  0  0  0
    2.0100   -0.1265    0.1106 C   0  0  0  0  0  0  0  0  0  0  0  0
    3.4792   -0.1427    0.0677 C   0  0  0  0  0  0  0  0  0  0  0  0
    4.1227   -0.6523   -1.0588 C   0  0  0  0  0  0  0  0  0  0  0  0
    5.5244   -0.7111   -1.1209 C   0  0  0  0  0  0  0  0  0  0  0  0
    6.3436   -0.2667   -0.0689 C   0  0  0  0  0  0  0  0  0  0  0  0
    7.7409   -0.3374   -0.1241 N   0  0  0  0  0  0  0  0  0  0  0  0
    8.5180    0.5166    0.7736 C   0  0  0  0  0  0  0  0  0  0  0  0
    8.3891   -0.6740   -1.3902 C   0  0  0  0  0  0  0  0  0  0  0  0
    5.6677    0.2103    1.0677 C   0  0  0  0  0  0  0  0  0  0  0  0
    4.2666    0.2733    1.1402 C   0  0  0  0  0  0  0  0  0  0  0  0
   -0.9994   -0.1003    0.0288 C   0  0  0  0  0  0  0  0  0  0  0  0
   -2.4468    0.3611   -0.2361 C   0  0  0  0  0  0  0  0  0  0  0  0
   -3.2738   -0.7782   -0.8203 C   0  0  0  0  0  0  0  0  0  0  0  0
   -3.8187   -0.6492   -2.1071 C   0  0  0  0  0  0  0  0  0  0  0  0
   -4.5927   -1.6714   -2.6587 C   0  0  0  0  0  0  0  0  0  0  0  0
   -4.8336   -2.8346   -1.9320 C   0  0  0  0  0  0  0  0  0  0  0  0
   -4.3023   -2.9756   -0.6524 C   0  0  0  0  0  0  0  0  0  0  0  0
   -3.5282   -1.9545   -0.0980 C   0  0  0  0  0  0  0  0  0  0  0  0
   -7.6128   -0.5358    1.6506 H   0  0  0  0  0  0  0  0  0  0  0  0
   -7.5207    0.6502    2.9474 H   0  0  0  0  0  0  0  0  0  0  0  0
   -8.7493    0.8345    1.6729 H   0  0  0  0  0  0  0  0  0  0  0  0
   -6.9406    1.2013   -0.0092 H   0  0  0  0  0  0  0  0  0  0  0  0
   -6.8408    2.4103    1.3108 H   0  0  0  0  0  0  0  0  0  0  0  0
   -3.2018    0.2036    1.8048 H   0  0  0  0  0  0  0  0  0  0  0  0
   -0.1544    2.7194    1.9257 H   0  0  0  0  0  0  0  0  0  0  0  0
    1.8297    1.7211    1.0779 H   0  0  0  0  0  0  0  0  0  0  0  0
    1.5334   -0.9920   -0.3404 H   0  0  0  0  0  0  0  0  0  0  0  0
    3.5472   -1.0073   -1.9106 H   0  0  0  0  0  0  0  0  0  0  0  0
    5.9539   -1.1179   -2.0310 H   0  0  0  0  0  0  0  0  0  0  0  0
    8.2570    1.5723    0.6380 H   0  0  0  0  0  0  0  0  0  0  0  0
    8.3688    0.2313    1.8202 H   0  0  0  0  0  0  0  0  0  0  0  0
    9.5934    0.4177    0.5862 H   0  0  0  0  0  0  0  0  0  0  0  0
    8.1810    0.0843   -2.1532 H   0  0  0  0  0  0  0  0  0  0  0  0
    8.0705   -1.6580   -1.7508 H   0  0  0  0  0  0  0  0  0  0  0  0
    9.4768   -0.7373   -1.2723 H   0  0  0  0  0  0  0  0  0  0  0  0
    6.2162    0.5359    1.9464 H   0  0  0  0  0  0  0  0  0  0  0  0
    3.8104    0.6370    2.0577 H   0  0  0  0  0  0  0  0  0  0  0  0
   -0.9774   -1.0153    0.6346 H   0  0  0  0  0  0  0  0  0  0  0  0
   -0.5579   -0.3514   -0.9446 H   0  0  0  0  0  0  0  0  0  0  0  0
   -2.3846    1.1554   -0.9967 H   0  0  0  0  0  0  0  0  0  0  0  0
   -3.6532    0.2549   -2.6907 H   0  0  0  0  0  0  0  0  0  0  0  0
   -5.0109   -1.5569   -3.6556 H   0  0  0  0  0  0  0  0  0  0  0  0
   -5.4377   -3.6292   -2.3617 H   0  0  0  0  0  0  0  0  0  0  0  0
   -4.4934   -3.8821   -0.0834 H   0  0  0  0  0  0  0  0  0  0  0  0
   -3.1318   -2.0917    0.9055 H   0  0  0  0  0  0  0  0  0  0  0  0
  1  2  1  0
  2  3  1  0
  3  4  1  0
  4  5  2  0
  4  6  1  0
  6  7  1  0
  7  8  2  0
  7  9  1  0
  9 10  2  0
 10 11  1  0
 11 12  2  3
 12 13  1  0
 13 14  2  0
 14 15  1  0
 15 16  2  0
 16 17  1  0
 17 18  1  0
 17 19  1  0
 16 20  1  0
 20 21  2  0
 10 22  1  0
 22 23  1  0
 23 24  1  0
 24 25  2  0
 25 26  1  0
 26 27  2  0
 27 28  1  0
 28 29  2  0
 23  6  1  0
 29 24  1  0
 21 13  1  0
  1 30  1  0
  1 31  1  0
  1 32  1  0
  2 33  1  0
  2 34  1  0
  6 35  1  0
  9 36  1  0
 11 37  1  0
 12 38  1  0
 14 39  1  0
 15 40  1  0
 18 41  1  0
 18 42  1  0
 18 43  1  0
 19 44  1  0
 19 45  1  0
 19 46  1  0
 20 47  1  0
 21 48  1  0
 22 49  1  0
 22 50  1  0
 23 51  1  0
 25 52  1  0
 26 53  1  0
 27 54  1  0
 28 55  1  0
 29 56  1  0
M  END
$$$$
