
     RDKit          3D

 40 41  0  0  0  0  0  0  0  0999 V2000
    5.0439    1.8440    0.1450 C   0  0  0  0  0  0  0  0  0  0  0  0
    4.1132    1.8312   -1.0531 C   0  0  0  0  0  0  0  0  0  0  0  0
    2.8047    1.3957   -0.6606 O   0  0  0  0  0  0  0  0  0  0  0  0
    2.6007    0.0444   -0.6509 C   0  0  0  0  0  0  0  0  0  0  0  0
    3.4695   -0.7711   -0.9389 O   0  0  0  0  0  0  0  0  0  0  0  0
    1.2456   -0.3317   -0.2336 C   0  0  0  0  0  0  0  0  0  0  0  0
    0.1406    0.5064   -0.0692 C   0  0  0  0  0  0  0  0  0  0  0  0
    0.0097    1.9731   -0.3220 C   0  0  0  0  0  0  0  0  0  0  0  0
   -0.9070   -0.2672    0.3976 N   0  0  0  0  0  0  0  0  0  0  0  0
   -2.2053    0.2359    0.8359 C   0  0  0  0  0  0  0  0  0  0  0  0
   -3.0658    0.2921   -0.2974 O   0  0  0  0  0  0  0  0  0  0  0  0
   -4.3496    0.8438    0.0109 C   0  0  0  0  0  0  0  0  0  0  0  0
   -4.3064    2.3671   -0.0897 C   0  0  0  0  0  0  0  0  0  0  0  0
   -3.8770    2.7584   -1.3914 O   0  0  0  0  0  0  0  0  0  0  0  0
   -0.5425   -1.5997    0.4359 C   0  0  0  0  0  0  0  0  0  0  0  0
   -1.2813   -2.7497    0.7717 C   0  0  0  0  0  0  0  0  0  0  0  0
   -0.6347   -3.9886    0.7467 C   0  0  0  0  0  0  0  0  0  0  0  0
    0.7050   -4.0689    0.3979 C   0  0  0  0  0  0  0  0  0  0  0  0
    1.3576   -5.2676    0.3720 O   0  0  0  0  0  0  0  0  0  0  0  0
    1.4342   -2.9309    0.0577 C   0  0  0  0  0  0  0  0  0  0  0  0
    0.8028   -1.6659    0.0669 C   0  0  0  0  0  0  0  0  0  0  0  0
    5.1721    0.8372    0.5544 H   0  0  0  0  0  0  0  0  0  0  0  0
    4.6295    2.4628    0.9476 H   0  0  0  0  0  0  0  0  0  0  0  0
    6.0271    2.2355   -0.1315 H   0  0  0  0  0  0  0  0  0  0  0  0
    4.5122    1.2159   -1.8676 H   0  0  0  0  0  0  0  0  0  0  0  0
    4.0063    2.8483   -1.4444 H   0  0  0  0  0  0  0  0  0  0  0  0
    0.4603    2.5397    0.4984 H   0  0  0  0  0  0  0  0  0  0  0  0
   -1.0309    2.2902   -0.4254 H   0  0  0  0  0  0  0  0  0  0  0  0
    0.5065    2.2511   -1.2570 H   0  0  0  0  0  0  0  0  0  0  0  0
   -2.0576    1.2207    1.2881 H   0  0  0  0  0  0  0  0  0  0  0  0
   -2.6077   -0.4405    1.5960 H   0  0  0  0  0  0  0  0  0  0  0  0
   -5.0400    0.4547   -0.7447 H   0  0  0  0  0  0  0  0  0  0  0  0
   -4.6969    0.5113    0.9951 H   0  0  0  0  0  0  0  0  0  0  0  0
   -5.2963    2.7955    0.0913 H   0  0  0  0  0  0  0  0  0  0  0  0
   -3.6033    2.7952    0.6301 H   0  0  0  0  0  0  0  0  0  0  0  0
   -3.2143    2.0986   -1.6761 H   0  0  0  0  0  0  0  0  0  0  0  0
   -2.3324   -2.6925    1.0359 H   0  0  0  0  0  0  0  0  0  0  0  0
   -1.1994   -4.8794    1.0038 H   0  0  0  0  0  0  0  0  0  0  0  0
    0.7258   -5.9699    0.5943 H   0  0  0  0  0  0  0  0  0  0  0  0
    2.4808   -3.0256   -0.2196 H   0  0  0  0  0  0  0  0  0  0  0  0
  1  2  1  0
  2  3  1  0
  3  4  1  0
  4  5  2  0
  4  6  1  0
  6  7  2  0
  7  8  1  0
  7  9  1  0
  9 10  1  0
 10 11  1  0
 11 12  1  0
 12 13  1  0
 13 14  1  0
  9 15  1  0
 15 16  2  0
 16 17  1  0
 17 18  2  0
 18 19  1  0
 18 20  1  0
 20 21  2  0
 21  6  1  0
 21 15  1  0
  1 22  1  0
  1 23  1  0
  1 24  1  0
  2 25  1  0
  2 26  1  0
  8 27  1  0
  8 28  1  0
  8 29  1  0
 10 30  1  0
 10 31  1  0
 12 32  1  0
 12 33  1  0
 13 34  1  0
 13 35  1  0
 14 36  1  0
 16 37  1  0
 17 38  1  0
 19 39  1  0
 20 40  1  0
M  END
$$$$
