
     RDKit          3D

 37 39  0  0  0  0  0  0  0  0999 V2000
   -3.7549   -0.9196    3.1516 C   0  0  0  0  0  0  0  0  0  0  0  0
   -3.7231   -0.6017    1.6846 C   0  0  0  0  0  0  0  0  0  0  0  0
   -4.7873   -0.8207    0.8975 C   0  0  0  0  0  0  0  0  0  0  0  0
   -4.8100   -0.5198   -0.5422 C   0  0  0  0  0  0  0  0  0  0  0  0
   -5.8129   -0.7404   -1.2116 O   0  0  0  0  0  0  0  0  0  0  0  0
   -3.6559    0.0141   -1.0870 O   0  0  0  0  0  0  0  0  0  0  0  0
   -2.5174    0.2499   -0.2924 C   0  0  0  0  0  0  0  0  0  0  0  0
   -1.4097    0.7879   -0.9485 C   0  0  0  0  0  0  0  0  0  0  0  0
   -0.2497    1.0230   -0.2190 C   0  0  0  0  0  0  0  0  0  0  0  0
    0.8588    1.5788   -0.7931 O   0  0  0  0  0  0  0  0  0  0  0  0
    1.4848    0.7118   -1.7566 C   0  0  0  0  0  0  0  0  0  0  0  0
    1.8455    1.5480   -2.9890 C   0  0  0  0  0  0  0  0  0  0  0  0
    2.9412    1.7061   -3.5047 O   0  0  0  0  0  0  0  0  0  0  0  0
    0.7617    2.1361   -3.5529 O   0  0  0  0  0  0  0  0  0  0  0  0
    2.6960    0.0466   -1.1174 C   0  0  0  0  0  0  0  0  0  0  0  0
    3.6240    0.7903   -0.3701 C   0  0  0  0  0  0  0  0  0  0  0  0
    4.7311    0.1683    0.2119 C   0  0  0  0  0  0  0  0  0  0  0  0
    4.9274   -1.2018    0.0517 C   0  0  0  0  0  0  0  0  0  0  0  0
    4.0181   -1.9512   -0.6915 C   0  0  0  0  0  0  0  0  0  0  0  0
    2.9087   -1.3324   -1.2736 C   0  0  0  0  0  0  0  0  0  0  0  0
   -0.2154    0.7697    1.1508 C   0  0  0  0  0  0  0  0  0  0  0  0
   -1.3388    0.2374    1.7944 C   0  0  0  0  0  0  0  0  0  0  0  0
   -2.5102   -0.0377    1.0766 C   0  0  0  0  0  0  0  0  0  0  0  0
   -3.5888   -0.0148    3.7487 H   0  0  0  0  0  0  0  0  0  0  0  0
   -2.9904   -1.6612    3.4071 H   0  0  0  0  0  0  0  0  0  0  0  0
   -4.7223   -1.3338    3.4555 H   0  0  0  0  0  0  0  0  0  0  0  0
   -5.7114   -1.2358    1.2837 H   0  0  0  0  0  0  0  0  0  0  0  0
   -1.4639    1.0272   -2.0070 H   0  0  0  0  0  0  0  0  0  0  0  0
    0.8025   -0.0718   -2.1165 H   0  0  0  0  0  0  0  0  0  0  0  0
    1.1361    2.6465   -4.3010 H   0  0  0  0  0  0  0  0  0  0  0  0
    3.4896    1.8632   -0.2425 H   0  0  0  0  0  0  0  0  0  0  0  0
    5.4440    0.7553    0.7847 H   0  0  0  0  0  0  0  0  0  0  0  0
    5.7922   -1.6854    0.5024 H   0  0  0  0  0  0  0  0  0  0  0  0
    4.1736   -3.0205   -0.8165 H   0  0  0  0  0  0  0  0  0  0  0  0
    2.2122   -1.9383   -1.8484 H   0  0  0  0  0  0  0  0  0  0  0  0
    0.6882    0.9782    1.7186 H   0  0  0  0  0  0  0  0  0  0  0  0
   -1.2734    0.0487    2.8633 H   0  0  0  0  0  0  0  0  0  0  0  0
  1  2  1  0
  2  3  2  0
  3  4  1  0
  4  5  2  0
  4  6  1  0
  6  7  1  0
  7  8  2  0
  8  9  1  0
  9 10  1  0
 10 11  1  0
 11 12  1  0
 12 13  2  0
 12 14  1  0
 11 15  1  0
 15 16  2  0
 16 17  1  0
 17 18  2  0
 18 19  1  0
 19 20  2  0
  9 21  2  0
 21 22  1  0
 22 23  2  0
 23  2  1  0
 23  7  1  0
 20 15  1  0
  1 24  1  0
  1 25  1  0
  1 26  1  0
  3 27  1  0
  8 28  1  0
 11 29  1  0
 14 30  1  0
 16 31  1  0
 17 32  1  0
 18 33  1  0
 19 34  1  0
 20 35  1  0
 21 36  1  0
 22 37  1  0
M  END
$$$$
