
     RDKit          3D

 37 38  0  0  0  0  0  0  0  0999 V2000
   -5.0406    1.4197   -1.5134 C   0  0  0  0  0  0  0  0  0  0  0  0
   -3.7185    1.4891   -0.8968 N   0  0  0  0  0  0  0  0  0  0  0  0
   -2.7996    0.5173   -1.5195 C   0  0  0  0  0  0  0  0  0  0  0  0
   -1.5451    0.2426   -0.6697 C   0  0  0  0  0  0  0  0  0  0  0  0
   -1.8866   -0.2708    0.6635 N   0  0  0  0  0  0  0  0  0  0  0  0
   -1.0948   -1.1108    1.4193 C   0  0  0  0  0  0  0  0  0  0  0  0
   -1.4899   -1.7100    2.4160 O   0  0  0  0  0  0  0  0  0  0  0  0
    0.3036   -1.3207    0.9795 C   0  0  0  0  0  0  0  0  0  0  0  0
    1.1704   -0.2969    0.9532 C   0  0  0  0  0  0  0  0  0  0  0  0
    2.5828   -0.4267    0.5745 C   0  0  0  0  0  0  0  0  0  0  0  0
    3.1945    0.6296   -0.1165 C   0  0  0  0  0  0  0  0  0  0  0  0
    4.5442    0.5624   -0.4772 C   0  0  0  0  0  0  0  0  0  0  0  0
    5.2944   -0.5681   -0.1329 C   0  0  0  0  0  0  0  0  0  0  0  0
    6.7116   -0.6448   -0.5088 N   0  0  0  0  0  4  0  0  0  0  0  0
    7.1967    0.3142   -1.1262 O   0  0  0  0  0  0  0  0  0  0  0  0
    7.3388   -1.6646   -0.1889 O   0  0  0  0  0  1  0  0  0  0  0  0
    4.7038   -1.6233    0.5718 C   0  0  0  0  0  0  0  0  0  0  0  0
    3.3527   -1.5452    0.9267 C   0  0  0  0  0  0  0  0  0  0  0  0
   -3.2455    0.0102    1.1277 C   0  0  0  0  0  0  0  0  0  0  0  0
   -3.7872    1.3402    0.5726 C   0  0  0  0  0  0  0  0  0  0  0  0
   -4.9695    1.5695   -2.5965 H   0  0  0  0  0  0  0  0  0  0  0  0
   -5.6862    2.2168   -1.1286 H   0  0  0  0  0  0  0  0  0  0  0  0
   -5.5313    0.4574   -1.3283 H   0  0  0  0  0  0  0  0  0  0  0  0
   -2.4907    0.8965   -2.5005 H   0  0  0  0  0  0  0  0  0  0  0  0
   -3.3125   -0.4399   -1.6866 H   0  0  0  0  0  0  0  0  0  0  0  0
   -0.9776    1.1699   -0.5288 H   0  0  0  0  0  0  0  0  0  0  0  0
   -0.9030   -0.4751   -1.1905 H   0  0  0  0  0  0  0  0  0  0  0  0
    0.5731   -2.3480    0.7712 H   0  0  0  0  0  0  0  0  0  0  0  0
    0.8363    0.7053    1.2157 H   0  0  0  0  0  0  0  0  0  0  0  0
    2.6224    1.5157   -0.3872 H   0  0  0  0  0  0  0  0  0  0  0  0
    4.9899    1.3943   -1.0190 H   0  0  0  0  0  0  0  0  0  0  0  0
    5.2756   -2.5041    0.8576 H   0  0  0  0  0  0  0  0  0  0  0  0
    2.9151   -2.3643    1.4947 H   0  0  0  0  0  0  0  0  0  0  0  0
   -3.8804   -0.8238    0.8046 H   0  0  0  0  0  0  0  0  0  0  0  0
   -3.2624    0.0312    2.2233 H   0  0  0  0  0  0  0  0  0  0  0  0
   -4.8045    1.5040    0.9491 H   0  0  0  0  0  0  0  0  0  0  0  0
   -3.1799    2.1512    0.9951 H   0  0  0  0  0  0  0  0  0  0  0  0
  1  2  1  0
  2  3  1  0
  3  4  1  0
  4  5  1  0
  5  6  1  0
  6  7  2  0
  6  8  1  0
  8  9  2  3
  9 10  1  0
 10 11  2  0
 11 12  1  0
 12 13  2  0
 13 14  1  0
 14 15  2  0
 14 16  1  0
 13 17  1  0
 17 18  2  0
  5 19  1  0
 19 20  1  0
 20  2  1  0
 18 10  1  0
  1 21  1  0
  1 22  1  0
  1 23  1  0
  3 24  1  0
  3 25  1  0
  4 26  1  0
  4 27  1  0
  8 28  1  0
  9 29  1  0
 11 30  1  0
 12 31  1  0
 17 32  1  0
 18 33  1  0
 19 34  1  0
 19 35  1  0
 20 36  1  0
 20 37  1  0
M  CHG  2  14   1  16  -1
M  END
$$$$
