
     RDKit          3D

 33 35  0  0  0  0  0  0  0  0999 V2000
    3.8047    1.8621    1.2136 C   0  0  0  0  0  0  0  0  0  0  0  0
    4.4033    0.6564    0.5640 C   0  0  0  0  0  0  0  0  0  0  0  0
    5.8189    0.4416    0.4534 C   0  0  0  0  0  0  0  0  0  0  0  0
    6.1320   -0.7391   -0.1785 C   0  0  0  0  0  0  0  0  0  0  0  0
    4.7365   -1.5989   -0.6441 S   0  0  0  0  0  0  0  0  0  0  0  0
    3.6952   -0.3953   -0.0042 C   0  0  0  0  0  0  0  0  0  0  0  0
    2.2676   -0.6123   -0.1277 C   0  0  0  0  0  0  0  0  0  0  0  0
    1.4153    0.2762    0.2846 N   0  0  0  0  0  0  0  0  0  0  0  0
    0.0733   -0.0054    0.1770 N   0  0  0  0  0  0  0  0  0  0  0  0
   -0.5095   -1.2504    0.3873 C   0  0  0  0  0  0  0  0  0  0  0  0
    0.1170   -2.2891    0.5782 O   0  0  0  0  0  0  0  0  0  0  0  0
   -1.9508   -1.2398    0.3895 C   0  0  0  0  0  0  0  0  0  0  0  0
   -2.6787   -2.3774    0.6952 N   0  0  0  0  0  0  0  0  0  0  0  0
   -4.0254   -2.2114    0.6579 N   0  0  0  0  0  0  0  0  0  0  0  0
   -4.1355   -0.9405    0.3081 C   0  0  0  0  0  0  0  0  0  0  0  0
   -2.9122   -0.2953    0.1276 C   0  0  0  0  0  0  0  0  0  0  0  0
   -3.0981    1.1120   -0.2725 C   0  0  0  0  0  0  0  0  0  0  0  0
   -4.6220    1.1540   -0.6359 C   0  0  0  0  0  0  0  0  0  0  0  0
   -5.3000   -0.0717    0.0619 C   0  0  0  0  0  0  0  0  0  0  0  0
    3.2059    2.4298    0.4944 H   0  0  0  0  0  0  0  0  0  0  0  0
    4.5824    2.5299    1.5988 H   0  0  0  0  0  0  0  0  0  0  0  0
    3.1700    1.5712    2.0567 H   0  0  0  0  0  0  0  0  0  0  0  0
    6.5722    1.1264    0.8251 H   0  0  0  0  0  0  0  0  0  0  0  0
    7.1153   -1.1377   -0.3873 H   0  0  0  0  0  0  0  0  0  0  0  0
    1.9471   -1.5459   -0.6219 H   0  0  0  0  0  0  0  0  0  0  0  0
   -0.5171    0.8064    0.3144 H   0  0  0  0  0  0  0  0  0  0  0  0
   -2.3020   -3.2891    0.9374 H   0  0  0  0  0  0  0  0  0  0  0  0
   -2.8892    1.7835    0.5665 H   0  0  0  0  0  0  0  0  0  0  0  0
   -2.4831    1.3981   -1.1301 H   0  0  0  0  0  0  0  0  0  0  0  0
   -5.0888    2.1025   -0.3525 H   0  0  0  0  0  0  0  0  0  0  0  0
   -4.7294    1.0468   -1.7236 H   0  0  0  0  0  0  0  0  0  0  0  0
   -6.0511   -0.5309   -0.5860 H   0  0  0  0  0  0  0  0  0  0  0  0
   -5.7640    0.2333    1.0051 H   0  0  0  0  0  0  0  0  0  0  0  0
  1  2  1  0
  2  3  1  0
  3  4  2  0
  4  5  1  0
  5  6  1  0
  6  7  1  0
  7  8  2  3
  8  9  1  0
  9 10  1  0
 10 11  2  0
 10 12  1  0
 12 13  1  0
 13 14  1  0
 14 15  2  0
 15 16  1  0
 16 17  1  0
 17 18  1  0
 18 19  1  0
  6  2  2  0
 16 12  2  0
 19 15  1  0
  1 20  1  0
  1 21  1  0
  1 22  1  0
  3 23  1  0
  4 24  1  0
  7 25  1  0
  9 26  1  0
 13 27  1  0
 17 28  1  0
 17 29  1  0
 18 30  1  0
 18 31  1  0
 19 32  1  0
 19 33  1  0
M  END
$$$$
