
     RDKit          3D

 37 38  0  0  0  0  0  0  0  0999 V2000
    5.7496   -0.4064    0.7137 C   0  0  0  0  0  0  0  0  0  0  0  0
    4.2466   -0.2485    0.9563 C   0  0  0  0  0  0  0  0  0  0  0  0
    4.0109    0.4090    2.3188 C   0  0  0  0  0  0  0  0  0  0  0  0
    3.6134    0.5588   -0.1917 C   0  0  0  0  0  0  0  0  0  0  0  0
    2.1177    0.5460   -0.1473 C   0  0  0  0  0  0  0  0  0  0  0  0
    1.3700   -0.5302   -0.2972 N   0  0  0  0  0  0  0  0  0  0  0  0
    0.0238   -0.2425   -0.2032 N   0  0  0  0  0  0  0  0  0  0  0  0
   -0.1895    1.0406   -0.0433 C   0  0  0  0  0  0  0  0  0  0  0  0
   -1.5388    1.5505    0.0922 N   0  0  0  0  0  0  0  0  0  0  0  0
   -2.1578    2.1144   -1.3699 S   0  0  0  0  0  6  0  0  0  0  0  0
   -1.1320    2.8817   -2.0481 O   0  0  0  0  0  0  0  0  0  0  0  0
   -3.4285    2.7397   -1.0603 O   0  0  0  0  0  0  0  0  0  0  0  0
   -2.4657    0.6221   -2.3425 C   0  0  0  0  0  0  0  0  0  0  0  0
   -3.3247   -0.3593   -1.5848 C   0  0  0  0  0  0  0  0  0  0  0  0
   -2.7836   -1.5718   -1.1321 C   0  0  0  0  0  0  0  0  0  0  0  0
   -3.5696   -2.4825   -0.4242 C   0  0  0  0  0  0  0  0  0  0  0  0
   -4.9092   -2.1998   -0.1710 C   0  0  0  0  0  0  0  0  0  0  0  0
   -5.4657   -1.0096   -0.6320 C   0  0  0  0  0  0  0  0  0  0  0  0
   -4.6810   -0.0976   -1.3399 C   0  0  0  0  0  0  0  0  0  0  0  0
    1.2188    1.9924    0.0993 S   0  0  0  0  0  0  0  0  0  0  0  0
    6.2119   -1.0021    1.5081 H   0  0  0  0  0  0  0  0  0  0  0  0
    5.9389   -0.9160   -0.2370 H   0  0  0  0  0  0  0  0  0  0  0  0
    6.2520    0.5665    0.6834 H   0  0  0  0  0  0  0  0  0  0  0  0
    3.8040   -1.2529    0.9818 H   0  0  0  0  0  0  0  0  0  0  0  0
    2.9446    0.4505    2.5619 H   0  0  0  0  0  0  0  0  0  0  0  0
    4.4057    1.4304    2.3407 H   0  0  0  0  0  0  0  0  0  0  0  0
    4.5044   -0.1604    3.1140 H   0  0  0  0  0  0  0  0  0  0  0  0
    3.9999    1.5858   -0.1852 H   0  0  0  0  0  0  0  0  0  0  0  0
    3.9157    0.1226   -1.1528 H   0  0  0  0  0  0  0  0  0  0  0  0
   -2.1636    0.8566    0.5048 H   0  0  0  0  0  0  0  0  0  0  0  0
   -1.4953    0.1964   -2.6159 H   0  0  0  0  0  0  0  0  0  0  0  0
   -2.9668    0.9347   -3.2647 H   0  0  0  0  0  0  0  0  0  0  0  0
   -1.7419   -1.8255   -1.3260 H   0  0  0  0  0  0  0  0  0  0  0  0
   -3.1353   -3.4162   -0.0747 H   0  0  0  0  0  0  0  0  0  0  0  0
   -5.5216   -2.9104    0.3782 H   0  0  0  0  0  0  0  0  0  0  0  0
   -6.5139   -0.7904   -0.4429 H   0  0  0  0  0  0  0  0  0  0  0  0
   -5.1436    0.8234   -1.6938 H   0  0  0  0  0  0  0  0  0  0  0  0
  1  2  1  0
  2  3  1  0
  2  4  1  0
  4  5  1  0
  5  6  2  0
  6  7  1  0
  7  8  2  0
  8  9  1  0
  9 10  1  0
 10 11  2  0
 10 12  2  0
 10 13  1  0
 13 14  1  0
 14 15  2  0
 15 16  1  0
 16 17  2  0
 17 18  1  0
 18 19  2  0
  8 20  1  0
 20  5  1  0
 19 14  1  0
  1 21  1  0
  1 22  1  0
  1 23  1  0
  2 24  1  0
  3 25  1  0
  3 26  1  0
  3 27  1  0
  4 28  1  0
  4 29  1  0
  9 30  1  0
 13 31  1  0
 13 32  1  0
 15 33  1  0
 16 34  1  0
 17 35  1  0
 18 36  1  0
 19 37  1  0
M  END
$$$$
