
     RDKit          3D

 54 57  0  0  0  0  0  0  0  0999 V2000
   -3.9036   -5.0286   -1.2373 C   0  0  0  0  0  0  0  0  0  0  0  0
   -3.2831   -4.4745   -0.0841 O   0  0  0  0  0  0  0  0  0  0  0  0
   -3.2921   -3.1118    0.0281 C   0  0  0  0  0  0  0  0  0  0  0  0
   -2.7013   -2.6178    1.1928 C   0  0  0  0  0  0  0  0  0  0  0  0
   -2.6421   -1.2425    1.4358 C   0  0  0  0  0  0  0  0  0  0  0  0
   -3.1740   -0.3365    0.5117 C   0  0  0  0  0  0  0  0  0  0  0  0
   -3.0964    1.1099    0.7577 C   0  0  0  0  0  0  0  0  0  0  0  0
   -4.5585    1.9888    0.9027 S   0  0  0  0  0  0  0  0  0  0  0  0
   -3.7475    3.4749    1.1853 C   0  0  0  0  0  0  0  0  0  0  0  0
   -4.3445    4.7325    1.4067 C   0  0  0  0  0  0  0  0  0  0  0  0
   -3.5273    5.8451    1.6146 C   0  0  0  0  0  0  0  0  0  0  0  0
   -2.1470    5.7154    1.6011 C   0  0  0  0  0  0  0  0  0  0  0  0
   -1.5601    4.4657    1.3819 C   0  0  0  0  0  0  0  0  0  0  0  0
   -2.3612    3.3117    1.1730 C   0  0  0  0  0  0  0  0  0  0  0  0
   -1.9923    1.9324    0.9306 C   0  0  0  0  0  0  0  0  0  0  0  0
   -0.6275    1.4174    0.8622 C   0  0  0  0  0  0  0  0  0  0  0  0
   -0.1107    0.9248   -0.3409 C   0  0  0  0  0  0  0  0  0  0  0  0
    1.1968    0.4290   -0.4005 C   0  0  0  0  0  0  0  0  0  0  0  0
    1.9987    0.4268    0.7413 C   0  0  0  0  0  0  0  0  0  0  0  0
    3.2863   -0.0266    0.8203 O   0  0  0  0  0  0  0  0  0  0  0  0
    3.8475   -0.6042   -0.3631 C   0  0  0  0  0  0  0  0  0  0  0  0
    5.2754   -1.0745   -0.0319 C   0  0  0  0  0  0  0  0  0  0  0  0
    6.0554   -1.7096   -1.1072 N   0  0  0  0  0  0  0  0  0  0  0  0
    6.3150   -0.8051   -2.2231 C   0  0  0  0  0  0  0  0  0  0  0  0
    5.4598   -2.9597   -1.5697 C   0  0  0  0  0  0  0  0  0  0  0  0
    1.4837    0.9275    1.9398 C   0  0  0  0  0  0  0  0  0  0  0  0
    0.1785    1.4209    2.0043 C   0  0  0  0  0  0  0  0  0  0  0  0
   -3.7634   -0.8365   -0.6577 C   0  0  0  0  0  0  0  0  0  0  0  0
   -3.8235   -2.2150   -0.8982 C   0  0  0  0  0  0  0  0  0  0  0  0
   -3.8256   -6.1179   -1.1679 H   0  0  0  0  0  0  0  0  0  0  0  0
   -4.9676   -4.7727   -1.2754 H   0  0  0  0  0  0  0  0  0  0  0  0
   -3.3880   -4.7156   -2.1512 H   0  0  0  0  0  0  0  0  0  0  0  0
   -2.2827   -3.3093    1.9200 H   0  0  0  0  0  0  0  0  0  0  0  0
   -2.1781   -0.8872    2.3528 H   0  0  0  0  0  0  0  0  0  0  0  0
   -5.4259    4.8366    1.4148 H   0  0  0  0  0  0  0  0  0  0  0  0
   -3.9791    6.8193    1.7857 H   0  0  0  0  0  0  0  0  0  0  0  0
   -1.5162    6.5866    1.7599 H   0  0  0  0  0  0  0  0  0  0  0  0
   -0.4757    4.3820    1.3690 H   0  0  0  0  0  0  0  0  0  0  0  0
   -0.7224    0.9203   -1.2403 H   0  0  0  0  0  0  0  0  0  0  0  0
    1.5536    0.0535   -1.3534 H   0  0  0  0  0  0  0  0  0  0  0  0
    3.8797    0.1507   -1.1565 H   0  0  0  0  0  0  0  0  0  0  0  0
    3.2382   -1.4589   -0.6774 H   0  0  0  0  0  0  0  0  0  0  0  0
    5.2263   -1.7634    0.8224 H   0  0  0  0  0  0  0  0  0  0  0  0
    5.8431   -0.2179    0.3564 H   0  0  0  0  0  0  0  0  0  0  0  0
    6.7836    0.1206   -1.8715 H   0  0  0  0  0  0  0  0  0  0  0  0
    5.4054   -0.5456   -2.7752 H   0  0  0  0  0  0  0  0  0  0  0  0
    7.0183   -1.2631   -2.9278 H   0  0  0  0  0  0  0  0  0  0  0  0
    4.5080   -2.8058   -2.0893 H   0  0  0  0  0  0  0  0  0  0  0  0
    6.1407   -3.4732   -2.2578 H   0  0  0  0  0  0  0  0  0  0  0  0
    5.2904   -3.6429   -0.7302 H   0  0  0  0  0  0  0  0  0  0  0  0
    2.1037    0.9295    2.8331 H   0  0  0  0  0  0  0  0  0  0  0  0
   -0.2031    1.7991    2.9497 H   0  0  0  0  0  0  0  0  0  0  0  0
   -4.1775   -0.1541   -1.3970 H   0  0  0  0  0  0  0  0  0  0  0  0
   -4.2901   -2.5507   -1.8180 H   0  0  0  0  0  0  0  0  0  0  0  0
  1  2  1  0
  2  3  1  0
  3  4  2  0
  4  5  1  0
  5  6  2  0
  6  7  1  0
  7  8  1  0
  8  9  1  0
  9 10  2  0
 10 11  1  0
 11 12  2  0
 12 13  1  0
 13 14  2  0
 14 15  1  0
 15 16  1  0
 16 17  2  0
 17 18  1  0
 18 19  2  0
 19 20  1  0
 20 21  1  0
 21 22  1  0
 22 23  1  0
 23 24  1  0
 23 25  1  0
 19 26  1  0
 26 27  2  0
  6 28  1  0
 28 29  2  0
 29  3  1  0
 15  7  2  0
 27 16  1  0
 14  9  1  0
  1 30  1  0
  1 31  1  0
  1 32  1  0
  4 33  1  0
  5 34  1  0
 10 35  1  0
 11 36  1  0
 12 37  1  0
 13 38  1  0
 17 39  1  0
 18 40  1  0
 21 41  1  0
 21 42  1  0
 22 43  1  0
 22 44  1  0
 24 45  1  0
 24 46  1  0
 24 47  1  0
 25 48  1  0
 25 49  1  0
 25 50  1  0
 26 51  1  0
 27 52  1  0
 28 53  1  0
 29 54  1  0
M  END
$$$$
