
     RDKit          3D

 50 53  0  0  0  0  0  0  0  0999 V2000
    3.7590    2.7806    1.9023 C   0  0  0  0  0  0  0  0  0  0  0  0
    4.5240    1.4658    1.9060 C   0  0  0  0  0  0  0  0  0  0  0  0
    4.2472    0.6755    0.6984 N   0  0  0  0  0  0  0  0  0  0  0  0
    5.0677    0.9755   -0.4838 C   0  0  0  0  0  0  0  0  0  0  0  0
    4.2733    1.7119   -1.5545 C   0  0  0  0  0  0  0  0  0  0  0  0
    3.2476   -0.2930    0.6768 C   0  0  0  0  0  0  0  0  0  0  0  0
    2.2633   -0.3816    1.6764 C   0  0  0  0  0  0  0  0  0  0  0  0
    1.2535   -1.3571    1.6610 C   0  0  0  0  0  0  0  0  0  0  0  0
    1.1874   -2.2855    0.6272 C   0  0  0  0  0  0  0  0  0  0  0  0
    0.1708   -3.3384    0.5948 C   0  0  0  0  0  0  0  0  0  0  0  0
   -1.1522   -3.1679    0.4542 C   0  0  0  0  0  0  0  0  0  0  0  0
   -2.2488   -4.5434    0.3992 S   0  0  0  0  0  0  0  0  0  0  0  0
   -3.5652   -3.4745    0.1603 C   0  0  0  0  0  0  0  0  0  0  0  0
   -4.8501   -3.6271    0.0221 N   0  0  0  0  0  0  0  0  0  0  0  0
   -5.3686   -2.3473   -0.1141 N   0  0  0  0  0  0  0  0  0  0  0  0
   -4.3702   -1.4708   -0.0704 C   0  0  0  0  0  0  0  0  0  0  0  0
   -4.4931   -0.0213   -0.1611 C   0  0  0  0  0  0  0  0  0  0  0  0
   -5.1224    0.6530    0.8982 C   0  0  0  0  0  0  0  0  0  0  0  0
   -5.2603    2.0406    0.8803 C   0  0  0  0  0  0  0  0  0  0  0  0
   -4.7743    2.7696   -0.1997 C   0  0  0  0  0  0  0  0  0  0  0  0
   -4.1655    2.1112   -1.2685 C   0  0  0  0  0  0  0  0  0  0  0  0
   -4.0341    0.7119   -1.2744 C   0  0  0  0  0  0  0  0  0  0  0  0
   -3.3845    0.0547   -2.4619 C   0  0  0  0  0  0  0  0  0  0  0  0
   -3.2085   -2.1722    0.1240 N   0  0  0  0  0  0  0  0  0  0  0  0
   -1.8800   -1.8669    0.2948 C   0  0  0  0  0  0  0  0  0  0  0  0
   -1.4722   -0.7234    0.3045 O   0  0  0  0  0  0  0  0  0  0  0  0
    2.1533   -2.2338   -0.3740 C   0  0  0  0  0  0  0  0  0  0  0  0
    3.1571   -1.2531   -0.3453 C   0  0  0  0  0  0  0  0  0  0  0  0
    3.9403    3.3243    2.8350 H   0  0  0  0  0  0  0  0  0  0  0  0
    4.0800    3.4214    1.0748 H   0  0  0  0  0  0  0  0  0  0  0  0
    2.6803    2.6240    1.8040 H   0  0  0  0  0  0  0  0  0  0  0  0
    5.5978    1.6843    1.9667 H   0  0  0  0  0  0  0  0  0  0  0  0
    4.3086    0.8991    2.8191 H   0  0  0  0  0  0  0  0  0  0  0  0
    5.5213    0.0657   -0.8914 H   0  0  0  0  0  0  0  0  0  0  0  0
    5.9165    1.6112   -0.2016 H   0  0  0  0  0  0  0  0  0  0  0  0
    4.9214    1.9506   -2.4035 H   0  0  0  0  0  0  0  0  0  0  0  0
    3.4371    1.1151   -1.9302 H   0  0  0  0  0  0  0  0  0  0  0  0
    3.8626    2.6494   -1.1688 H   0  0  0  0  0  0  0  0  0  0  0  0
    2.2374    0.3282    2.4972 H   0  0  0  0  0  0  0  0  0  0  0  0
    0.5223   -1.3640    2.4652 H   0  0  0  0  0  0  0  0  0  0  0  0
    0.5833   -4.3438    0.6717 H   0  0  0  0  0  0  0  0  0  0  0  0
   -5.5115    0.0945    1.7478 H   0  0  0  0  0  0  0  0  0  0  0  0
   -5.7454    2.5500    1.7085 H   0  0  0  0  0  0  0  0  0  0  0  0
   -4.8739    3.8519   -0.2148 H   0  0  0  0  0  0  0  0  0  0  0  0
   -3.7970    2.6999   -2.1064 H   0  0  0  0  0  0  0  0  0  0  0  0
   -3.4117    0.7103   -3.3394 H   0  0  0  0  0  0  0  0  0  0  0  0
   -2.3376   -0.1766   -2.2453 H   0  0  0  0  0  0  0  0  0  0  0  0
   -3.9118   -0.8635   -2.7404 H   0  0  0  0  0  0  0  0  0  0  0  0
    2.1450   -2.9499   -1.1921 H   0  0  0  0  0  0  0  0  0  0  0  0
    3.8807   -1.2749   -1.1539 H   0  0  0  0  0  0  0  0  0  0  0  0
  1  2  1  0
  2  3  1  0
  3  4  1  0
  4  5  1  0
  3  6  1  0
  6  7  2  0
  7  8  1  0
  8  9  2  0
  9 10  1  0
 10 11  2  3
 11 12  1  0
 12 13  1  0
 13 14  2  0
 14 15  1  0
 15 16  2  0
 16 17  1  0
 17 18  2  0
 18 19  1  0
 19 20  2  0
 20 21  1  0
 21 22  2  0
 22 23  1  0
 16 24  1  0
 24 25  1  0
 25 26  2  0
  9 27  1  0
 27 28  2  0
 28  6  1  0
 25 11  1  0
 24 13  1  0
 22 17  1  0
  1 29  1  0
  1 30  1  0
  1 31  1  0
  2 32  1  0
  2 33  1  0
  4 34  1  0
  4 35  1  0
  5 36  1  0
  5 37  1  0
  5 38  1  0
  7 39  1  0
  8 40  1  0
 10 41  1  0
 18 42  1  0
 19 43  1  0
 20 44  1  0
 21 45  1  0
 23 46  1  0
 23 47  1  0
 23 48  1  0
 27 49  1  0
 28 50  1  0
M  END
$$$$
