
     RDKit          3D

 34 36  0  0  0  0  0  0  0  0999 V2000
   -5.4224   -1.3120    0.5120 C   0  0  0  0  0  0  0  0  0  0  0  0
   -4.0514   -0.7835    0.2674 C   0  0  0  0  0  0  0  0  0  0  0  0
   -2.8419   -1.3547    0.5911 C   0  0  0  0  0  0  0  0  0  0  0  0
   -1.7065   -0.5543    0.2043 C   0  0  0  0  0  0  0  0  0  0  0  0
   -0.2776   -1.0112    0.4647 C   0  0  0  0  0  0  0  0  0  0  0  0
    0.4379   -1.3964   -0.8124 C   0  0  0  0  0  0  0  0  0  0  0  0
    1.7094   -2.1360   -0.5055 C   0  0  0  0  0  0  0  0  0  0  0  0
    1.7785   -3.3615   -0.6019 O   0  0  0  0  0  0  0  0  0  0  0  0
    2.8249   -1.4184   -0.1866 N   0  0  0  0  0  0  0  0  0  0  0  0
    2.9322   -0.0282   -0.0176 C   0  0  0  0  0  0  0  0  0  0  0  0
    4.1206    0.5552   -0.4836 C   0  0  0  0  0  0  0  0  0  0  0  0
    4.3208    1.9330   -0.4011 C   0  0  0  0  0  0  0  0  0  0  0  0
    3.3477    2.7386    0.1768 C   0  0  0  0  0  0  0  0  0  0  0  0
    2.1874    2.1610    0.6942 C   0  0  0  0  0  0  0  0  0  0  0  0
    1.9627    0.7756    0.6096 C   0  0  0  0  0  0  0  0  0  0  0  0
    0.5773    0.1748    1.5716 S   0  0  0  0  0  0  0  0  0  0  0  0
   -2.1311    0.6154   -0.4188 C   0  0  0  0  0  0  0  0  0  0  0  0
   -1.3341    1.7536   -0.9710 C   0  0  0  0  0  0  0  0  0  0  0  0
   -3.8416    0.7186   -0.5038 S   0  0  0  0  0  0  0  0  0  0  0  0
   -5.9627   -1.4430   -0.4314 H   0  0  0  0  0  0  0  0  0  0  0  0
   -5.9936   -0.6303    1.1508 H   0  0  0  0  0  0  0  0  0  0  0  0
   -5.3831   -2.2852    1.0125 H   0  0  0  0  0  0  0  0  0  0  0  0
   -2.7632   -2.3135    1.0917 H   0  0  0  0  0  0  0  0  0  0  0  0
   -0.3451   -1.9181    1.0817 H   0  0  0  0  0  0  0  0  0  0  0  0
    0.6445   -0.5501   -1.4750 H   0  0  0  0  0  0  0  0  0  0  0  0
   -0.1911   -2.0744   -1.4057 H   0  0  0  0  0  0  0  0  0  0  0  0
    3.6765   -1.9597   -0.2810 H   0  0  0  0  0  0  0  0  0  0  0  0
    4.8924   -0.0550   -0.9478 H   0  0  0  0  0  0  0  0  0  0  0  0
    5.2370    2.3748   -0.7852 H   0  0  0  0  0  0  0  0  0  0  0  0
    3.5022    3.8120    0.2557 H   0  0  0  0  0  0  0  0  0  0  0  0
    1.4678    2.8047    1.1983 H   0  0  0  0  0  0  0  0  0  0  0  0
   -0.4043    1.4081   -1.4278 H   0  0  0  0  0  0  0  0  0  0  0  0
   -1.0867    2.4618   -0.1736 H   0  0  0  0  0  0  0  0  0  0  0  0
   -1.8836    2.2983   -1.7466 H   0  0  0  0  0  0  0  0  0  0  0  0
  1  2  1  0
  2  3  2  0
  3  4  1  0
  4  5  1  0
  5  6  1  0
  6  7  1  0
  7  8  2  0
  7  9  1  0
  9 10  1  0
 10 11  2  0
 11 12  1  0
 12 13  2  0
 13 14  1  0
 14 15  2  0
 15 16  1  0
  4 17  2  0
 17 18  1  0
 17 19  1  0
 19  2  1  0
 16  5  1  0
 15 10  1  0
  1 20  1  0
  1 21  1  0
  1 22  1  0
  3 23  1  0
  5 24  1  0
  6 25  1  0
  6 26  1  0
  9 27  1  0
 11 28  1  0
 12 29  1  0
 13 30  1  0
 14 31  1  0
 18 32  1  0
 18 33  1  0
 18 34  1  0
M  END
$$$$
