
     RDKit          3D

 42 44  0  0  0  0  0  0  0  0999 V2000
   -5.2919    3.0073    3.1129 C   0  0  0  0  0  0  0  0  0  0  0  0
   -3.8738    2.5963    3.4799 C   0  0  0  0  0  0  0  0  0  0  0  0
   -3.7559    1.0769    3.6497 C   0  0  0  0  0  0  0  0  0  0  0  0
   -2.3344    0.6316    4.0228 C   0  0  0  0  0  0  0  0  0  0  0  0
   -1.3535    0.7484    2.8787 C   0  0  0  0  0  0  0  0  0  0  0  0
   -0.4060    1.7798    2.8467 C   0  0  0  0  0  0  0  0  0  0  0  0
    0.4702    1.9112    1.7614 C   0  0  0  0  0  0  0  0  0  0  0  0
    0.4106    1.0158    0.6842 C   0  0  0  0  0  0  0  0  0  0  0  0
    1.2635    1.1547   -0.4922 C   0  0  0  0  0  0  0  0  0  0  0  0
    1.8081    2.3445   -0.9246 C   0  0  0  0  0  0  0  0  0  0  0  0
    2.6570    2.1107   -2.3919 S   0  0  0  0  0  0  0  0  0  0  0  0
    2.2532    0.4157   -2.3642 C   0  0  0  0  0  0  0  0  0  0  0  0
    2.7018   -0.4717   -3.4038 C   0  0  0  0  0  0  0  0  0  0  0  0
    2.8514    0.0239   -4.7392 C   0  0  0  0  0  0  0  0  0  0  0  0
    2.9381    0.4756   -5.8083 N   0  0  0  0  0  0  0  0  0  0  0  0
    2.9209   -1.7554   -3.0517 C   0  0  0  0  0  0  0  0  0  0  0  0
    3.3688   -2.7844   -3.9278 C   0  0  0  0  0  0  0  0  0  0  0  0
    3.7232   -4.0913   -3.6039 C   0  0  0  0  0  0  0  0  0  0  0  0
    4.1190   -4.7485   -4.7927 C   0  0  0  0  0  0  0  0  0  0  0  0
    3.9807   -3.8208   -5.7917 C   0  0  0  0  0  0  0  0  0  0  0  0
    3.5447   -2.6443   -5.2843 O   0  0  0  0  0  0  0  0  0  0  0  0
    1.5511    0.0632   -1.2998 N   0  0  0  0  0  0  0  0  0  0  0  0
   -0.5195   -0.0346    0.7359 C   0  0  0  0  0  0  0  0  0  0  0  0
   -1.3934   -0.1666    1.8192 C   0  0  0  0  0  0  0  0  0  0  0  0
   -5.3556    4.0972    3.0156 H   0  0  0  0  0  0  0  0  0  0  0  0
   -5.5961    2.5647    2.1561 H   0  0  0  0  0  0  0  0  0  0  0  0
   -6.0048    2.6896    3.8806 H   0  0  0  0  0  0  0  0  0  0  0  0
   -3.5839    3.0934    4.4149 H   0  0  0  0  0  0  0  0  0  0  0  0
   -3.1920    2.9502    2.6991 H   0  0  0  0  0  0  0  0  0  0  0  0
   -4.4387    0.7567    4.4486 H   0  0  0  0  0  0  0  0  0  0  0  0
   -4.0879    0.5766    2.7303 H   0  0  0  0  0  0  0  0  0  0  0  0
   -1.9772    1.2046    4.8860 H   0  0  0  0  0  0  0  0  0  0  0  0
   -2.3561   -0.4159    4.3499 H   0  0  0  0  0  0  0  0  0  0  0  0
   -0.3496    2.4979    3.6617 H   0  0  0  0  0  0  0  0  0  0  0  0
    1.1967    2.7209    1.7814 H   0  0  0  0  0  0  0  0  0  0  0  0
    1.7323    3.3299   -0.4876 H   0  0  0  0  0  0  0  0  0  0  0  0
    2.7744   -2.0516   -2.0141 H   0  0  0  0  0  0  0  0  0  0  0  0
    3.6970   -4.5195   -2.6107 H   0  0  0  0  0  0  0  0  0  0  0  0
    4.4587   -5.7689   -4.9073 H   0  0  0  0  0  0  0  0  0  0  0  0
    4.1486   -3.8347   -6.8603 H   0  0  0  0  0  0  0  0  0  0  0  0
   -0.5835   -0.7520   -0.0821 H   0  0  0  0  0  0  0  0  0  0  0  0
   -2.1163   -0.9843    1.8227 H   0  0  0  0  0  0  0  0  0  0  0  0
  1  2  1  0
  2  3  1  0
  3  4  1  0
  4  5  1  0
  5  6  2  0
  6  7  1  0
  7  8  2  0
  8  9  1  0
  9 10  2  0
 10 11  1  0
 11 12  1  0
 12 13  1  0
 13 14  1  0
 14 15  3  0
 13 16  2  3
 16 17  1  0
 17 18  2  0
 18 19  1  0
 19 20  2  0
 20 21  1  0
 12 22  2  0
  8 23  1  0
 23 24  2  0
 24  5  1  0
 22  9  1  0
 21 17  1  0
  1 25  1  0
  1 26  1  0
  1 27  1  0
  2 28  1  0
  2 29  1  0
  3 30  1  0
  3 31  1  0
  4 32  1  0
  4 33  1  0
  6 34  1  0
  7 35  1  0
 10 36  1  0
 16 37  1  0
 18 38  1  0
 19 39  1  0
 20 40  1  0
 23 41  1  0
 24 42  1  0
M  END
$$$$
