
     RDKit          3D

 53 56  0  0  0  0  0  0  0  0999 V2000
    1.6712   -0.8828   -6.6137 C   0  0  0  0  0  0  0  0  0  0  0  0
    1.8324   -0.3228   -5.3168 O   0  0  0  0  0  0  0  0  0  0  0  0
    1.4262   -1.0855   -4.2581 C   0  0  0  0  0  0  0  0  0  0  0  0
    0.8716   -2.3595   -4.3279 C   0  0  0  0  0  0  0  0  0  0  0  0
    0.4983   -3.0331   -3.1571 C   0  0  0  0  0  0  0  0  0  0  0  0
    0.6717   -2.4417   -1.9010 C   0  0  0  0  0  0  0  0  0  0  0  0
    0.3474   -3.0391   -0.7118 O   0  0  0  0  0  0  0  0  0  0  0  0
   -0.3360   -4.2841   -0.7698 C   0  0  0  0  0  0  0  0  0  0  0  0
    1.2320   -1.1558   -1.8205 C   0  0  0  0  0  0  0  0  0  0  0  0
    1.4296   -0.4422   -0.5011 C   0  0  0  0  0  0  0  0  0  0  0  0
    0.3718    0.5582   -0.2808 N   0  0  0  0  0  0  0  0  0  0  0  0
    0.5912    1.2841    0.9351 N   0  0  0  0  0  0  0  0  0  0  0  0
   -0.3005    1.1562    2.0039 C   0  0  0  0  0  0  0  0  0  0  0  0
   -1.4180    0.1884    1.9025 C   0  0  0  0  0  0  0  0  0  0  0  0
   -1.1807   -1.1867    1.9254 C   0  0  0  0  0  0  0  0  0  0  0  0
   -2.2584   -2.0706    1.8839 C   0  0  0  0  0  0  0  0  0  0  0  0
   -3.5658   -1.5815    1.8274 C   0  0  0  0  0  0  0  0  0  0  0  0
   -3.8116   -0.2021    1.8107 C   0  0  0  0  0  0  0  0  0  0  0  0
   -5.2176    0.3199    1.7996 C   0  0  0  0  0  0  0  0  0  0  0  0
   -2.7274    0.6825    1.8690 C   0  0  0  0  0  0  0  0  0  0  0  0
   -0.2142    1.8713    3.0850 N   0  0  0  0  0  0  0  0  0  0  0  0
    0.8243    2.8051    3.1910 C   0  0  0  0  0  0  0  0  0  0  0  0
    0.9625    3.5206    4.3827 C   0  0  0  0  0  0  0  0  0  0  0  0
    1.9737    4.4749    4.5293 C   0  0  0  0  0  0  0  0  0  0  0  0
    2.8570    4.7249    3.4794 C   0  0  0  0  0  0  0  0  0  0  0  0
    2.7301    4.0191    2.2840 C   0  0  0  0  0  0  0  0  0  0  0  0
    1.7163    3.0622    2.1508 C   0  0  0  0  0  0  0  0  0  0  0  0
    1.5543    2.2994    0.9021 C   0  0  0  0  0  0  0  0  0  0  0  0
    2.2229    2.5881   -0.0904 O   0  0  0  0  0  0  0  0  0  0  0  0
    1.6026   -0.4925   -3.0075 C   0  0  0  0  0  0  0  0  0  0  0  0
    2.0398   -0.1532   -7.3409 H   0  0  0  0  0  0  0  0  0  0  0  0
    2.2665   -1.7950   -6.7264 H   0  0  0  0  0  0  0  0  0  0  0  0
    0.6151   -1.0693   -6.8348 H   0  0  0  0  0  0  0  0  0  0  0  0
    0.7153   -2.8631   -5.2759 H   0  0  0  0  0  0  0  0  0  0  0  0
    0.0758   -4.0266   -3.2654 H   0  0  0  0  0  0  0  0  0  0  0  0
    0.2962   -5.0603   -1.2128 H   0  0  0  0  0  0  0  0  0  0  0  0
   -0.5616   -4.5893    0.2565 H   0  0  0  0  0  0  0  0  0  0  0  0
   -1.2864   -4.1906   -1.3058 H   0  0  0  0  0  0  0  0  0  0  0  0
    2.4220    0.0262   -0.5152 H   0  0  0  0  0  0  0  0  0  0  0  0
    1.4568   -1.1578    0.3269 H   0  0  0  0  0  0  0  0  0  0  0  0
    0.4428    1.2443   -1.0378 H   0  0  0  0  0  0  0  0  0  0  0  0
   -0.1683   -1.5729    1.9851 H   0  0  0  0  0  0  0  0  0  0  0  0
   -2.0802   -3.1419    1.9036 H   0  0  0  0  0  0  0  0  0  0  0  0
   -4.3951   -2.2853    1.8036 H   0  0  0  0  0  0  0  0  0  0  0  0
   -5.2678    1.2982    1.3099 H   0  0  0  0  0  0  0  0  0  0  0  0
   -5.8793   -0.3545    1.2457 H   0  0  0  0  0  0  0  0  0  0  0  0
   -5.5885    0.4180    2.8246 H   0  0  0  0  0  0  0  0  0  0  0  0
   -2.8953    1.7569    1.8908 H   0  0  0  0  0  0  0  0  0  0  0  0
    0.2724    3.3314    5.2014 H   0  0  0  0  0  0  0  0  0  0  0  0
    2.0677    5.0235    5.4634 H   0  0  0  0  0  0  0  0  0  0  0  0
    3.6418    5.4691    3.5921 H   0  0  0  0  0  0  0  0  0  0  0  0
    3.4159    4.2124    1.4620 H   0  0  0  0  0  0  0  0  0  0  0  0
    2.0378    0.5048   -2.9561 H   0  0  0  0  0  0  0  0  0  0  0  0
  1  2  1  0
  2  3  1  0
  3  4  2  0
  4  5  1  0
  5  6  2  0
  6  7  1  0
  7  8  1  0
  6  9  1  0
  9 10  1  0
 10 11  1  0
 11 12  1  0
 12 13  1  0
 13 14  1  0
 14 15  2  0
 15 16  1  0
 16 17  2  0
 17 18  1  0
 18 19  1  0
 18 20  2  0
 13 21  2  0
 21 22  1  0
 22 23  2  0
 23 24  1  0
 24 25  2  0
 25 26  1  0
 26 27  2  0
 27 28  1  0
 28 29  2  0
  9 30  2  0
 30  3  1  0
 28 12  1  0
 20 14  1  0
 27 22  1  0
  1 31  1  0
  1 32  1  0
  1 33  1  0
  4 34  1  0
  5 35  1  0
  8 36  1  0
  8 37  1  0
  8 38  1  0
 10 39  1  0
 10 40  1  0
 11 41  1  0
 15 42  1  0
 16 43  1  0
 17 44  1  0
 19 45  1  0
 19 46  1  0
 19 47  1  0
 20 48  1  0
 23 49  1  0
 24 50  1  0
 25 51  1  0
 26 52  1  0
 30 53  1  0
M  END
$$$$
