
     RDKit          3D

 57 61  0  0  0  0  0  0  0  0999 V2000
   -4.9984    2.6415    4.3437 C   0  0  0  0  0  0  0  0  0  0  0  0
   -4.6122    3.5638    3.3767 C   0  0  0  0  0  0  0  0  0  0  0  0
   -3.9147    3.1383    2.2437 C   0  0  0  0  0  0  0  0  0  0  0  0
   -3.5790    1.7823    2.0569 C   0  0  0  0  0  0  0  0  0  0  0  0
   -2.8381    1.3971    0.7802 C   0  0  0  0  0  0  0  0  0  0  0  0
   -3.6642    0.9403   -0.4130 C   0  0  0  0  0  0  0  0  0  0  0  0
   -3.1581    1.1434   -1.7124 C   0  0  0  0  0  0  0  0  0  0  0  0
   -3.8791    0.7399   -2.8381 C   0  0  0  0  0  0  0  0  0  0  0  0
   -5.1180    0.1241   -2.6870 C   0  0  0  0  0  0  0  0  0  0  0  0
   -5.6341   -0.0904   -1.4117 C   0  0  0  0  0  0  0  0  0  0  0  0
   -4.9140    0.3125   -0.2838 C   0  0  0  0  0  0  0  0  0  0  0  0
   -1.8162    0.3359    1.0782 C   0  0  0  0  0  0  0  0  0  0  0  0
   -2.0784   -0.9792    1.1882 N   0  0  0  0  0  0  0  0  0  0  0  0
   -0.8313   -1.5445    1.4401 O   0  0  0  0  0  0  0  0  0  0  0  0
    0.0690   -0.5201    1.4422 C   0  0  0  0  0  0  0  0  0  0  0  0
    1.4980   -0.8871    1.6743 C   0  0  0  0  0  0  0  0  0  0  0  0
    2.3155   -1.1035    0.4641 N   0  0  0  0  0  0  0  0  0  0  0  0
    2.6064    0.1396   -0.2608 C   0  0  0  0  0  0  0  0  0  0  0  0
    2.8561   -0.0578   -1.7617 C   0  0  0  0  0  0  0  0  0  0  0  0
    3.5793   -1.3707   -2.0931 C   0  0  0  0  0  0  0  0  0  0  0  0
    5.0752   -1.2599   -1.8358 C   0  0  0  0  0  0  0  0  0  0  0  0
    5.9372   -0.9416   -2.8926 C   0  0  0  0  0  0  0  0  0  0  0  0
    7.2969   -0.8236   -2.6424 C   0  0  0  0  0  0  0  0  0  0  0  0
    7.8551   -0.9924   -1.4263 N   0  0  0  0  0  0  0  0  0  0  0  0
    7.0118   -1.2912   -0.4164 C   0  0  0  0  0  0  0  0  0  0  0  0
    5.6397   -1.4305   -0.5678 C   0  0  0  0  0  0  0  0  0  0  0  0
    2.8989   -2.5761   -1.4083 C   0  0  0  0  0  0  0  0  0  0  0  0
    1.8212   -2.1741   -0.3948 C   0  0  0  0  0  0  0  0  0  0  0  0
   -0.4799    0.6550    1.2265 N   0  0  0  0  0  0  0  0  0  0  0  0
   -3.9952    0.8675    3.0409 C   0  0  0  0  0  0  0  0  0  0  0  0
   -4.6930    1.2944    4.1746 C   0  0  0  0  0  0  0  0  0  0  0  0
   -5.5420    2.9705    5.2251 H   0  0  0  0  0  0  0  0  0  0  0  0
   -4.8560    4.6157    3.5007 H   0  0  0  0  0  0  0  0  0  0  0  0
   -3.6340    3.8807    1.4982 H   0  0  0  0  0  0  0  0  0  0  0  0
   -2.2775    2.2895    0.4630 H   0  0  0  0  0  0  0  0  0  0  0  0
   -2.1887    1.6182   -1.8553 H   0  0  0  0  0  0  0  0  0  0  0  0
   -3.4719    0.9045   -3.8322 H   0  0  0  0  0  0  0  0  0  0  0  0
   -5.6801   -0.1921   -3.5615 H   0  0  0  0  0  0  0  0  0  0  0  0
   -6.5996   -0.5753   -1.2909 H   0  0  0  0  0  0  0  0  0  0  0  0
   -5.3466    0.1234    0.6955 H   0  0  0  0  0  0  0  0  0  0  0  0
    1.5379   -1.7958    2.2885 H   0  0  0  0  0  0  0  0  0  0  0  0
    1.9667   -0.1069    2.2873 H   0  0  0  0  0  0  0  0  0  0  0  0
    3.4905    0.5991    0.1970 H   0  0  0  0  0  0  0  0  0  0  0  0
    1.7979    0.8734   -0.1647 H   0  0  0  0  0  0  0  0  0  0  0  0
    3.3999    0.8073   -2.1609 H   0  0  0  0  0  0  0  0  0  0  0  0
    1.8829   -0.0676   -2.2721 H   0  0  0  0  0  0  0  0  0  0  0  0
    3.4655   -1.5341   -3.1747 H   0  0  0  0  0  0  0  0  0  0  0  0
    5.5637   -0.7851   -3.8993 H   0  0  0  0  0  0  0  0  0  0  0  0
    7.9922   -0.5804   -3.4406 H   0  0  0  0  0  0  0  0  0  0  0  0
    7.4803   -1.4191    0.5552 H   0  0  0  0  0  0  0  0  0  0  0  0
    5.0318   -1.6651    0.2997 H   0  0  0  0  0  0  0  0  0  0  0  0
    3.6326   -3.2346   -0.9276 H   0  0  0  0  0  0  0  0  0  0  0  0
    2.4172   -3.1936   -2.1782 H   0  0  0  0  0  0  0  0  0  0  0  0
    0.9047   -1.8753   -0.9198 H   0  0  0  0  0  0  0  0  0  0  0  0
    1.5720   -3.0625    0.1987 H   0  0  0  0  0  0  0  0  0  0  0  0
   -3.7944   -0.1969    2.9404 H   0  0  0  0  0  0  0  0  0  0  0  0
   -5.0015    0.5695    4.9237 H   0  0  0  0  0  0  0  0  0  0  0  0
  1  2  2  0
  2  3  1  0
  3  4  2  0
  4  5  1  0
  5  6  1  0
  6  7  2  0
  7  8  1  0
  8  9  2  0
  9 10  1  0
 10 11  2  0
  5 12  1  0
 12 13  2  0
 13 14  1  0
 14 15  1  0
 15 16  1  0
 16 17  1  0
 17 18  1  0
 18 19  1  0
 19 20  1  0
 20 21  1  0
 21 22  2  0
 22 23  1  0
 23 24  2  0
 24 25  1  0
 25 26  2  0
 20 27  1  0
 27 28  1  0
 15 29  2  0
  4 30  1  0
 30 31  2  0
 31  1  1  0
 11  6  1  0
 29 12  1  0
 28 17  1  0
 26 21  1  0
  1 32  1  0
  2 33  1  0
  3 34  1  0
  5 35  1  0
  7 36  1  0
  8 37  1  0
  9 38  1  0
 10 39  1  0
 11 40  1  0
 16 41  1  0
 16 42  1  0
 18 43  1  0
 18 44  1  0
 19 45  1  0
 19 46  1  0
 20 47  1  0
 22 48  1  0
 23 49  1  0
 25 50  1  0
 26 51  1  0
 27 52  1  0
 27 53  1  0
 28 54  1  0
 28 55  1  0
 30 56  1  0
 31 57  1  0
M  END
$$$$
