
     RDKit          3D

 57 61  0  0  0  0  0  0  0  0999 V2000
    4.2520   -0.8474    3.2490 C   0  0  0  0  0  0  0  0  0  0  0  0
    2.8638   -0.8727    3.3659 C   0  0  0  0  0  0  0  0  0  0  0  0
    2.0717   -1.0627    2.2336 C   0  0  0  0  0  0  0  0  0  0  0  0
    2.6606   -1.2232    0.9698 C   0  0  0  0  0  0  0  0  0  0  0  0
    1.7944   -1.4285   -0.2587 C   0  0  0  0  0  0  0  0  0  0  0  0
    0.8920   -0.2918   -0.4925 N   0  0  0  0  0  0  0  0  0  0  0  0
    1.6210    0.8728   -1.0247 C   0  0  0  0  0  0  0  0  0  0  0  0
    0.8868    2.1470   -0.7679 C   0  0  0  0  0  0  0  0  0  0  0  0
    0.8031    2.9792    0.3301 C   0  0  0  0  0  0  0  0  0  0  0  0
   -0.0625    4.0369   -0.0357 C   0  0  0  0  0  0  0  0  0  0  0  0
   -0.4469    3.7874   -1.3317 C   0  0  0  0  0  0  0  0  0  0  0  0
    0.1212    2.6400   -1.7845 O   0  0  0  0  0  0  0  0  0  0  0  0
   -0.3184   -0.6371   -1.2813 C   0  0  0  0  0  0  0  0  0  0  0  0
   -0.0565   -1.1376   -2.7056 C   0  0  0  0  0  0  0  0  0  0  0  0
   -0.1923   -0.2529   -3.7873 C   0  0  0  0  0  0  0  0  0  0  0  0
    0.0650   -0.7065   -5.0727 C   0  0  0  0  0  0  0  0  0  0  0  0
    0.4406   -1.9689   -5.3611 N   0  0  0  0  0  0  0  0  0  0  0  0
    0.5572   -2.8154   -4.3179 C   0  0  0  0  0  0  0  0  0  0  0  0
    0.3297   -2.4529   -2.9977 C   0  0  0  0  0  0  0  0  0  0  0  0
   -1.2557   -1.5064   -0.4729 C   0  0  0  0  0  0  0  0  0  0  0  0
   -1.5180   -2.7937   -0.6149 N   0  0  0  0  0  0  0  0  0  0  0  0
   -2.4465   -3.1161    0.3378 N   0  0  0  0  0  0  0  0  0  0  0  0
   -2.7568   -2.0595    1.0700 N   0  0  0  0  0  0  0  0  0  0  0  0
   -1.9999   -1.0556    0.5907 N   0  0  0  0  0  0  0  0  0  0  0  0
   -2.0810    0.2735    1.1601 C   0  0  0  0  0  0  0  0  0  0  0  0
   -3.2561    1.0735    0.5724 C   0  0  0  0  0  0  0  0  0  0  0  0
   -3.9656    1.7009    1.7657 C   0  0  0  0  0  0  0  0  0  0  0  0
   -3.7255    0.7108    2.8917 C   0  0  0  0  0  0  0  0  0  0  0  0
   -2.2719    0.3065    2.6879 C   0  0  0  0  0  0  0  0  0  0  0  0
    4.0588   -1.2038    0.8660 C   0  0  0  0  0  0  0  0  0  0  0  0
    4.8492   -1.0147    2.0009 C   0  0  0  0  0  0  0  0  0  0  0  0
    4.8693   -0.7028    4.1316 H   0  0  0  0  0  0  0  0  0  0  0  0
    2.3976   -0.7492    4.3391 H   0  0  0  0  0  0  0  0  0  0  0  0
    0.9893   -1.0880    2.3370 H   0  0  0  0  0  0  0  0  0  0  0  0
    2.4222   -1.6197   -1.1385 H   0  0  0  0  0  0  0  0  0  0  0  0
    1.2381   -2.3544   -0.0688 H   0  0  0  0  0  0  0  0  0  0  0  0
    2.5910    0.9834   -0.5239 H   0  0  0  0  0  0  0  0  0  0  0  0
    1.8557    0.7645   -2.0896 H   0  0  0  0  0  0  0  0  0  0  0  0
    1.3084    2.8312    1.2753 H   0  0  0  0  0  0  0  0  0  0  0  0
   -0.3635    4.8816    0.5674 H   0  0  0  0  0  0  0  0  0  0  0  0
   -1.0848    4.3037   -2.0358 H   0  0  0  0  0  0  0  0  0  0  0  0
   -0.9030    0.2844   -1.4095 H   0  0  0  0  0  0  0  0  0  0  0  0
   -0.4930    0.7803   -3.6408 H   0  0  0  0  0  0  0  0  0  0  0  0
   -0.0302   -0.0447   -5.9287 H   0  0  0  0  0  0  0  0  0  0  0  0
    0.8454   -3.8318   -4.5756 H   0  0  0  0  0  0  0  0  0  0  0  0
    0.4413   -3.2030   -2.2214 H   0  0  0  0  0  0  0  0  0  0  0  0
   -1.1371    0.7752    0.9376 H   0  0  0  0  0  0  0  0  0  0  0  0
   -2.9104    1.8397   -0.1290 H   0  0  0  0  0  0  0  0  0  0  0  0
   -3.9539    0.4269    0.0259 H   0  0  0  0  0  0  0  0  0  0  0  0
   -5.0291    1.8650    1.5737 H   0  0  0  0  0  0  0  0  0  0  0  0
   -3.5089    2.6676    2.0083 H   0  0  0  0  0  0  0  0  0  0  0  0
   -3.8994    1.1526    3.8773 H   0  0  0  0  0  0  0  0  0  0  0  0
   -4.3845   -0.1585    2.7827 H   0  0  0  0  0  0  0  0  0  0  0  0
   -1.6232    1.0834    3.1138 H   0  0  0  0  0  0  0  0  0  0  0  0
   -2.0264   -0.6318    3.1940 H   0  0  0  0  0  0  0  0  0  0  0  0
    4.5429   -1.3352   -0.0988 H   0  0  0  0  0  0  0  0  0  0  0  0
    5.9324   -1.0014    1.9121 H   0  0  0  0  0  0  0  0  0  0  0  0
  1  2  2  0
  2  3  1  0
  3  4  2  0
  4  5  1  0
  5  6  1  0
  6  7  1  0
  7  8  1  0
  8  9  2  0
  9 10  1  0
 10 11  2  0
 11 12  1  0
  6 13  1  0
 13 14  1  0
 14 15  2  0
 15 16  1  0
 16 17  2  0
 17 18  1  0
 18 19  2  0
 13 20  1  0
 20 21  2  0
 21 22  1  0
 22 23  2  0
 23 24  1  0
 24 25  1  0
 25 26  1  0
 26 27  1  0
 27 28  1  0
 28 29  1  0
  4 30  1  0
 30 31  2  0
 31  1  1  0
 12  8  1  0
 19 14  1  0
 24 20  1  0
 29 25  1  0
  1 32  1  0
  2 33  1  0
  3 34  1  0
  5 35  1  0
  5 36  1  0
  7 37  1  0
  7 38  1  0
  9 39  1  0
 10 40  1  0
 11 41  1  0
 13 42  1  0
 15 43  1  0
 16 44  1  0
 18 45  1  0
 19 46  1  0
 25 47  1  0
 26 48  1  0
 26 49  1  0
 27 50  1  0
 27 51  1  0
 28 52  1  0
 28 53  1  0
 29 54  1  0
 29 55  1  0
 30 56  1  0
 31 57  1  0
M  END
$$$$
