
     RDKit          3D

 55 58  0  0  0  0  0  0  0  0999 V2000
   -8.8377    0.5977    1.0542 C   0  0  0  0  0  0  0  0  0  0  0  0
   -7.7333    0.9678    0.0766 C   0  0  0  0  0  0  0  0  0  0  0  0
   -6.8475    2.0856    0.6316 C   0  0  0  0  0  0  0  0  0  0  0  0
   -5.7576    2.5057   -0.3508 C   0  0  0  0  0  0  0  0  0  0  0  0
   -4.7834    1.4552   -0.5669 N   0  0  0  0  0  0  0  0  0  0  0  0
   -3.9211    1.5140   -1.6447 C   0  0  0  0  0  0  0  0  0  0  0  0
   -3.9772    2.3779   -2.5121 O   0  0  0  0  0  0  0  0  0  0  0  0
   -2.8570    0.4731   -1.6895 C   0  0  0  0  0  0  0  0  0  0  0  0
   -3.0351   -0.7922   -1.1201 C   0  0  0  0  0  0  0  0  0  0  0  0
   -2.0088   -1.7402   -1.1838 C   0  0  0  0  0  0  0  0  0  0  0  0
   -0.7912   -1.4415   -1.8146 C   0  0  0  0  0  0  0  0  0  0  0  0
    0.3211   -2.4732   -1.8761 C   0  0  0  0  0  0  0  0  0  0  0  0
    1.4877   -2.1098   -1.0617 N   0  0  0  0  0  0  0  0  0  0  0  0
    1.5548   -2.4212    0.3128 C   0  0  0  0  0  0  0  0  0  0  0  0
    0.4080   -3.2509    1.2196 S   0  0  0  0  0  0  0  0  0  0  0  0
    2.6793   -2.0174    1.0018 N   0  0  0  0  0  0  0  0  0  0  0  0
    3.7091   -1.3537    0.3927 C   0  0  0  0  0  0  0  0  0  0  0  0
    3.6300   -1.0851   -0.9399 C   0  0  0  0  0  0  0  0  0  0  0  0
    4.7717   -0.4278   -1.3048 N   0  0  0  0  0  0  0  0  0  0  0  0
    5.5886   -0.2717   -0.2023 C   0  0  0  0  0  0  0  0  0  0  0  0
    6.8442    0.3326   -0.0870 C   0  0  0  0  0  0  0  0  0  0  0  0
    7.4494    0.3439    1.1776 C   0  0  0  0  0  0  0  0  0  0  0  0
    6.8234   -0.2275    2.2858 C   0  0  0  0  0  0  0  0  0  0  0  0
    7.3276   -0.2692    3.5588 O   0  0  0  0  0  0  0  0  0  0  0  0
    8.6013    0.3272    3.7681 C   0  0  0  0  0  0  0  0  0  0  0  0
    5.5645   -0.8283    2.1475 C   0  0  0  0  0  0  0  0  0  0  0  0
    4.9338   -0.8533    0.8891 C   0  0  0  0  0  0  0  0  0  0  0  0
    2.5221   -1.4530   -1.7616 C   0  0  0  0  0  0  0  0  0  0  0  0
    2.5074   -1.2105   -2.9653 O   0  0  0  0  0  0  0  0  0  0  0  0
   -0.6343   -0.1791   -2.4064 C   0  0  0  0  0  0  0  0  0  0  0  0
   -1.6592    0.7694   -2.3470 C   0  0  0  0  0  0  0  0  0  0  0  0
   -9.4835    1.4571    1.2607 H   0  0  0  0  0  0  0  0  0  0  0  0
   -8.4200    0.2453    2.0027 H   0  0  0  0  0  0  0  0  0  0  0  0
   -9.4592   -0.2018    0.6387 H   0  0  0  0  0  0  0  0  0  0  0  0
   -7.1315    0.0763   -0.1335 H   0  0  0  0  0  0  0  0  0  0  0  0
   -8.1838    1.2862   -0.8707 H   0  0  0  0  0  0  0  0  0  0  0  0
   -7.4696    2.9598    0.8585 H   0  0  0  0  0  0  0  0  0  0  0  0
   -6.3922    1.7601    1.5751 H   0  0  0  0  0  0  0  0  0  0  0  0
   -5.2135    3.3703    0.0457 H   0  0  0  0  0  0  0  0  0  0  0  0
   -6.1934    2.8017   -1.3117 H   0  0  0  0  0  0  0  0  0  0  0  0
   -4.4815    0.9275    0.2412 H   0  0  0  0  0  0  0  0  0  0  0  0
   -3.9738   -1.0672   -0.6473 H   0  0  0  0  0  0  0  0  0  0  0  0
   -2.1739   -2.7199   -0.7384 H   0  0  0  0  0  0  0  0  0  0  0  0
    0.6099   -2.6022   -2.9267 H   0  0  0  0  0  0  0  0  0  0  0  0
   -0.0539   -3.4545   -1.5650 H   0  0  0  0  0  0  0  0  0  0  0  0
    2.7435   -2.2259    1.9915 H   0  0  0  0  0  0  0  0  0  0  0  0
    4.9788   -0.1077   -2.2422 H   0  0  0  0  0  0  0  0  0  0  0  0
    7.3403    0.7802   -0.9426 H   0  0  0  0  0  0  0  0  0  0  0  0
    8.4241    0.8150    1.2590 H   0  0  0  0  0  0  0  0  0  0  0  0
    8.8549    0.2108    4.8262 H   0  0  0  0  0  0  0  0  0  0  0  0
    8.5762    1.3996    3.5481 H   0  0  0  0  0  0  0  0  0  0  0  0
    9.3756   -0.1797    3.1828 H   0  0  0  0  0  0  0  0  0  0  0  0
    5.0821   -1.2712    3.0136 H   0  0  0  0  0  0  0  0  0  0  0  0
    0.2835    0.0783   -2.9318 H   0  0  0  0  0  0  0  0  0  0  0  0
   -1.5199    1.7418   -2.8158 H   0  0  0  0  0  0  0  0  0  0  0  0
  1  2  1  0
  2  3  1  0
  3  4  1  0
  4  5  1  0
  5  6  1  0
  6  7  2  0
  6  8  1  0
  8  9  2  0
  9 10  1  0
 10 11  2  0
 11 12  1  0
 12 13  1  0
 13 14  1  0
 14 15  2  0
 14 16  1  0
 16 17  1  0
 17 18  2  0
 18 19  1  0
 19 20  1  0
 20 21  2  0
 21 22  1  0
 22 23  2  0
 23 24  1  0
 24 25  1  0
 23 26  1  0
 26 27  2  0
 18 28  1  0
 28 29  2  0
 11 30  1  0
 30 31  2  0
 31  8  1  0
 28 13  1  0
 27 17  1  0
 27 20  1  0
  1 32  1  0
  1 33  1  0
  1 34  1  0
  2 35  1  0
  2 36  1  0
  3 37  1  0
  3 38  1  0
  4 39  1  0
  4 40  1  0
  5 41  1  0
  9 42  1  0
 10 43  1  0
 12 44  1  0
 12 45  1  0
 16 46  1  0
 19 47  1  0
 21 48  1  0
 22 49  1  0
 25 50  1  0
 25 51  1  0
 25 52  1  0
 26 53  1  0
 30 54  1  0
 31 55  1  0
M  END
$$$$
