
     RDKit          3D

 36 39  0  0  0  0  0  0  0  0999 V2000
   -6.1362   -0.0998   -2.6433 C   0  0  0  0  0  0  0  0  0  0  0  0
   -5.0112   -0.1161   -1.6383 C   0  0  0  0  0  0  0  0  0  0  0  0
   -5.3836   -0.0421   -0.1947 C   0  0  0  0  0  0  0  0  0  0  0  0
   -4.3752   -0.0608    0.6974 C   0  0  0  0  0  0  0  0  0  0  0  0
   -4.6682    0.0104    2.1640 C   0  0  0  0  0  0  0  0  0  0  0  0
   -3.0566   -0.1447    0.2099 N   0  0  0  0  0  0  0  0  0  0  0  0
   -1.8226   -0.1886    0.8305 C   0  0  0  0  0  0  0  0  0  0  0  0
   -1.3932   -0.1662    2.6887 Br  0  0  0  0  0  0  0  0  0  0  0  0
   -0.8799   -0.2518   -0.1771 C   0  0  0  0  0  0  0  0  0  0  0  0
    0.6093   -0.3135   -0.1015 C   0  0  0  0  0  0  0  0  0  0  0  0
    1.3099    1.3446    0.1522 S   0  0  0  0  0  0  0  0  0  0  0  0
    3.0142    0.9543    0.2065 C   0  0  0  0  0  0  0  0  0  0  0  0
    3.4436   -0.2856    0.2206 N   0  0  0  0  0  0  0  0  0  0  0  0
    4.8277   -0.2986    0.2672 C   0  0  0  0  0  0  0  0  0  0  0  0
    5.6430   -1.4485    0.2891 C   0  0  0  0  0  0  0  0  0  0  0  0
    7.0345   -1.3142    0.3375 C   0  0  0  0  0  0  0  0  0  0  0  0
    7.6203   -0.0525    0.3644 C   0  0  0  0  0  0  0  0  0  0  0  0
    6.8343    1.1039    0.3437 C   0  0  0  0  0  0  0  0  0  0  0  0
    5.4381    0.9573    0.2948 C   0  0  0  0  0  0  0  0  0  0  0  0
    4.2173    2.1705    0.2597 S   0  0  0  0  0  0  0  0  0  0  0  0
   -1.5018   -0.2730   -1.4015 N   0  0  0  0  0  0  0  0  0  0  0  0
   -2.7947   -0.2053   -1.1670 C   0  0  0  0  0  0  0  0  0  0  0  0
   -3.7978   -0.1935   -2.0895 N   0  0  0  0  0  0  0  0  0  0  0  0
   -6.0141    0.7615   -3.3067 H   0  0  0  0  0  0  0  0  0  0  0  0
   -7.1121   -0.0341   -2.1556 H   0  0  0  0  0  0  0  0  0  0  0  0
   -6.1002   -1.0165   -3.2391 H   0  0  0  0  0  0  0  0  0  0  0  0
   -6.4292    0.0219    0.0768 H   0  0  0  0  0  0  0  0  0  0  0  0
   -4.3148   -0.8889    2.6773 H   0  0  0  0  0  0  0  0  0  0  0  0
   -5.7449    0.0797    2.3588 H   0  0  0  0  0  0  0  0  0  0  0  0
   -4.2119    0.8987    2.6114 H   0  0  0  0  0  0  0  0  0  0  0  0
    1.0034   -0.7300   -1.0353 H   0  0  0  0  0  0  0  0  0  0  0  0
    0.9132   -0.9788    0.7136 H   0  0  0  0  0  0  0  0  0  0  0  0
    5.1828   -2.4314    0.2670 H   0  0  0  0  0  0  0  0  0  0  0  0
    7.6598   -2.2040    0.3532 H   0  0  0  0  0  0  0  0  0  0  0  0
    8.7042    0.0376    0.4013 H   0  0  0  0  0  0  0  0  0  0  0  0
    7.2928    2.0880    0.3640 H   0  0  0  0  0  0  0  0  0  0  0  0
  1  2  1  0
  2  3  1  0
  3  4  2  0
  4  5  1  0
  4  6  1  0
  6  7  1  0
  7  8  1  0
  7  9  2  0
  9 10  1  0
 10 11  1  0
 11 12  1  0
 12 13  2  0
 13 14  1  0
 14 15  2  0
 15 16  1  0
 16 17  2  0
 17 18  1  0
 18 19  2  0
 19 20  1  0
  9 21  1  0
 21 22  2  0
 22 23  1  0
 23  2  2  0
 22  6  1  0
 20 12  1  0
 19 14  1  0
  1 24  1  0
  1 25  1  0
  1 26  1  0
  3 27  1  0
  5 28  1  0
  5 29  1  0
  5 30  1  0
 10 31  1  0
 10 32  1  0
 15 33  1  0
 16 34  1  0
 17 35  1  0
 18 36  1  0
M  END
$$$$
