
     RDKit          3D

 55 56  0  0  0  0  0  0  0  0999 V2000
   -2.7279    1.7305   -1.7707 C   0  0  0  0  0  0  0  0  0  0  0  0
   -2.2545    0.4227   -1.2538 C   0  0  0  0  0  0  0  0  0  0  0  0
   -1.5236   -0.5365   -1.9255 C   0  0  0  0  0  0  0  0  0  0  0  0
   -1.2933   -1.5702   -0.9986 C   0  0  0  0  0  0  0  0  0  0  0  0
   -0.5096   -2.7916   -1.1982 C   0  0  0  0  0  0  0  0  0  0  0  0
    0.1036   -3.0562   -2.2312 O   0  0  0  0  0  0  0  0  0  0  0  0
   -0.4752   -3.6007   -0.0715 N   0  0  0  0  0  0  0  0  0  0  0  0
    0.7063   -4.5456    0.0695 N   0  0  0  0  0  0  0  0  0  0  0  0
    1.9904   -4.0472    1.0811 S   0  0  0  0  0  6  0  0  0  0  0  0
    1.4980   -4.0471    2.4427 O   0  0  0  0  0  0  0  0  0  0  0  0
    3.1623   -4.7986    0.6880 O   0  0  0  0  0  0  0  0  0  0  0  0
    2.2368   -2.3561    0.5947 C   0  0  0  0  0  0  0  0  0  0  0  0
    1.6902   -1.3257    1.3575 C   0  0  0  0  0  0  0  0  0  0  0  0
    1.8435   -0.0031    0.9354 C   0  0  0  0  0  0  0  0  0  0  0  0
    2.5537    0.3200   -0.2395 C   0  0  0  0  0  0  0  0  0  0  0  0
    2.6766    1.7893   -0.6830 C   0  0  0  0  0  0  0  0  0  0  0  0
    3.3378    2.6229    0.4362 C   0  0  0  0  0  0  0  0  0  0  0  0
    1.2699    2.3560   -0.9752 C   0  0  0  0  0  0  0  0  0  0  0  0
    3.5254    1.9883   -1.9592 C   0  0  0  0  0  0  0  0  0  0  0  0
    3.1192   -0.7419   -0.9687 C   0  0  0  0  0  0  0  0  0  0  0  0
    2.9692   -2.0703   -0.5561 C   0  0  0  0  0  0  0  0  0  0  0  0
   -1.8575   -1.2844    0.1871 N   0  0  0  0  0  0  0  0  0  0  0  0
   -2.4566   -0.0779    0.0179 N   0  0  0  0  0  0  0  0  0  0  0  0
   -3.1294    0.5360    1.1853 C   0  0  0  0  0  0  0  0  0  0  0  0
   -3.4216   -0.5226    2.2827 C   0  0  0  0  0  0  0  0  0  0  0  0
   -4.4885    1.1593    0.8121 C   0  0  0  0  0  0  0  0  0  0  0  0
   -2.2070    1.6032    1.8018 C   0  0  0  0  0  0  0  0  0  0  0  0
   -2.4970    2.5482   -1.0844 H   0  0  0  0  0  0  0  0  0  0  0  0
   -3.8052    1.7055   -1.9590 H   0  0  0  0  0  0  0  0  0  0  0  0
   -2.2376    1.9666   -2.7220 H   0  0  0  0  0  0  0  0  0  0  0  0
   -1.1716   -0.4894   -2.9475 H   0  0  0  0  0  0  0  0  0  0  0  0
   -0.8527   -3.1912    0.7860 H   0  0  0  0  0  0  0  0  0  0  0  0
    1.0638   -4.9150   -0.8203 H   0  0  0  0  0  0  0  0  0  0  0  0
    1.1277   -1.5368    2.2643 H   0  0  0  0  0  0  0  0  0  0  0  0
    1.3873    0.7796    1.5382 H   0  0  0  0  0  0  0  0  0  0  0  0
    3.4730    3.6656    0.1251 H   0  0  0  0  0  0  0  0  0  0  0  0
    4.3249    2.2216    0.6960 H   0  0  0  0  0  0  0  0  0  0  0  0
    2.7377    2.6401    1.3526 H   0  0  0  0  0  0  0  0  0  0  0  0
    0.7714    1.7829   -1.7657 H   0  0  0  0  0  0  0  0  0  0  0  0
    1.3247    3.3996   -1.3057 H   0  0  0  0  0  0  0  0  0  0  0  0
    0.6210    2.3321   -0.0929 H   0  0  0  0  0  0  0  0  0  0  0  0
    3.0928    1.4640   -2.8192 H   0  0  0  0  0  0  0  0  0  0  0  0
    3.5890    3.0493   -2.2302 H   0  0  0  0  0  0  0  0  0  0  0  0
    4.5517    1.6282   -1.8205 H   0  0  0  0  0  0  0  0  0  0  0  0
    3.6837   -0.5662   -1.8811 H   0  0  0  0  0  0  0  0  0  0  0  0
    3.4093   -2.8690   -1.1493 H   0  0  0  0  0  0  0  0  0  0  0  0
   -3.9459   -0.0756    3.1359 H   0  0  0  0  0  0  0  0  0  0  0  0
   -4.0506   -1.3328    1.8949 H   0  0  0  0  0  0  0  0  0  0  0  0
   -2.5002   -0.9699    2.6741 H   0  0  0  0  0  0  0  0  0  0  0  0
   -4.3803    2.0822    0.2362 H   0  0  0  0  0  0  0  0  0  0  0  0
   -5.0586    1.4298    1.7087 H   0  0  0  0  0  0  0  0  0  0  0  0
   -5.0986    0.4620    0.2272 H   0  0  0  0  0  0  0  0  0  0  0  0
   -2.6611    2.0506    2.6930 H   0  0  0  0  0  0  0  0  0  0  0  0
   -1.2448    1.1695    2.0985 H   0  0  0  0  0  0  0  0  0  0  0  0
   -1.9925    2.4158    1.1009 H   0  0  0  0  0  0  0  0  0  0  0  0
  1  2  1  0
  2  3  2  0
  3  4  1  0
  4  5  1  0
  5  6  2  0
  5  7  1  0
  7  8  1  0
  8  9  1  0
  9 10  2  0
  9 11  2  0
  9 12  1  0
 12 13  2  0
 13 14  1  0
 14 15  2  0
 15 16  1  0
 16 17  1  0
 16 18  1  0
 16 19  1  0
 15 20  1  0
 20 21  2  0
  4 22  2  0
 22 23  1  0
 23 24  1  0
 24 25  1  0
 24 26  1  0
 24 27  1  0
 23  2  1  0
 21 12  1  0
  1 28  1  0
  1 29  1  0
  1 30  1  0
  3 31  1  0
  7 32  1  0
  8 33  1  0
 13 34  1  0
 14 35  1  0
 17 36  1  0
 17 37  1  0
 17 38  1  0
 18 39  1  0
 18 40  1  0
 18 41  1  0
 19 42  1  0
 19 43  1  0
 19 44  1  0
 20 45  1  0
 21 46  1  0
 25 47  1  0
 25 48  1  0
 25 49  1  0
 26 50  1  0
 26 51  1  0
 26 52  1  0
 27 53  1  0
 27 54  1  0
 27 55  1  0
M  END
$$$$
