
     RDKit          3D

 44 47  0  0  0  0  0  0  0  0999 V2000
    6.1999    2.7668   -1.4233 C   0  0  0  0  0  0  0  0  0  0  0  0
    4.9496    2.1621   -1.1254 O   0  0  0  0  0  0  0  0  0  0  0  0
    5.0165    0.9226   -0.6524 C   0  0  0  0  0  0  0  0  0  0  0  0
    6.0114    0.0182   -0.3500 C   0  0  0  0  0  0  0  0  0  0  0  0
    5.3595   -1.1451    0.1279 C   0  0  0  0  0  0  0  0  0  0  0  0
    4.0035   -0.8846    0.0873 C   0  0  0  0  0  0  0  0  0  0  0  0
    2.8640   -1.6971    0.4545 C   0  0  0  0  0  0  0  0  0  0  0  0
    2.9593   -2.8287    0.9211 O   0  0  0  0  0  0  0  0  0  0  0  0
    1.6503   -1.0834    0.2424 N   0  0  0  0  0  0  0  0  0  0  0  0
    0.4076   -1.6688    0.6858 C   0  0  0  0  0  0  0  0  0  0  0  0
    0.2016   -1.4449    2.2020 C   0  0  0  0  0  0  0  0  0  0  0  0
   -1.2710   -1.6026    2.6158 C   0  0  0  0  0  0  0  0  0  0  0  0
   -2.1713   -0.5705    1.9077 C   0  0  0  0  0  0  0  0  0  0  0  0
   -1.8691   -0.5491    0.4476 C   0  0  0  0  0  0  0  0  0  0  0  0
   -0.7064   -1.0637   -0.1010 C   0  0  0  0  0  0  0  0  0  0  0  0
   -0.9001   -0.9795   -1.4827 C   0  0  0  0  0  0  0  0  0  0  0  0
   -2.0781   -0.4473   -1.7970 N   0  0  0  0  0  0  0  0  0  0  0  0
   -2.6654   -0.1166   -0.6050 N   0  0  0  0  0  0  0  0  0  0  0  0
   -3.9304    0.5386   -0.6368 C   0  0  0  0  0  0  0  0  0  0  0  0
   -4.6766    0.4989   -1.8323 C   0  0  0  0  0  0  0  0  0  0  0  0
   -5.9316    1.1097   -1.9195 C   0  0  0  0  0  0  0  0  0  0  0  0
   -6.4560    1.7818   -0.8205 C   0  0  0  0  0  0  0  0  0  0  0  0
   -5.7165    1.8522    0.3571 C   0  0  0  0  0  0  0  0  0  0  0  0
   -4.4622    1.2411    0.4431 C   0  0  0  0  0  0  0  0  0  0  0  0
   -3.7829    1.4366    1.5777 F   0  0  0  0  0  0  0  0  0  0  0  0
    3.7965    0.3834   -0.3892 O   0  0  0  0  0  0  0  0  0  0  0  0
    6.0082    3.7746   -1.8035 H   0  0  0  0  0  0  0  0  0  0  0  0
    6.7315    2.2059   -2.1997 H   0  0  0  0  0  0  0  0  0  0  0  0
    6.8173    2.8546   -0.5228 H   0  0  0  0  0  0  0  0  0  0  0  0
    7.0751    0.1719   -0.4574 H   0  0  0  0  0  0  0  0  0  0  0  0
    5.8104   -2.0692    0.4640 H   0  0  0  0  0  0  0  0  0  0  0  0
    1.6720   -0.1068   -0.0326 H   0  0  0  0  0  0  0  0  0  0  0  0
    0.4324   -2.7481    0.4880 H   0  0  0  0  0  0  0  0  0  0  0  0
    0.8255   -2.1478    2.7671 H   0  0  0  0  0  0  0  0  0  0  0  0
    0.5389   -0.4381    2.4847 H   0  0  0  0  0  0  0  0  0  0  0  0
   -1.3670   -1.4837    3.7010 H   0  0  0  0  0  0  0  0  0  0  0  0
   -1.6076   -2.6185    2.3720 H   0  0  0  0  0  0  0  0  0  0  0  0
   -1.9595    0.4145    2.3379 H   0  0  0  0  0  0  0  0  0  0  0  0
   -3.2178   -0.8291    2.0975 H   0  0  0  0  0  0  0  0  0  0  0  0
   -0.2416   -1.3055   -2.2783 H   0  0  0  0  0  0  0  0  0  0  0  0
   -4.2966   -0.0236   -2.7098 H   0  0  0  0  0  0  0  0  0  0  0  0
   -6.4943    1.0582   -2.8488 H   0  0  0  0  0  0  0  0  0  0  0  0
   -7.4291    2.2615   -0.8856 H   0  0  0  0  0  0  0  0  0  0  0  0
   -6.1001    2.3991    1.2137 H   0  0  0  0  0  0  0  0  0  0  0  0
  1  2  1  0
  2  3  1  0
  3  4  2  0
  4  5  1  0
  5  6  2  0
  6  7  1  0
  7  8  2  0
  7  9  1  0
  9 10  1  0
 10 11  1  0
 11 12  1  0
 12 13  1  0
 13 14  1  0
 14 15  2  0
 15 16  1  0
 16 17  2  0
 17 18  1  0
 18 19  1  0
 19 20  2  0
 20 21  1  0
 21 22  2  0
 22 23  1  0
 23 24  2  0
 24 25  1  0
  6 26  1  0
 26  3  1  0
 15 10  1  0
 24 19  1  0
 18 14  1  0
  1 27  1  0
  1 28  1  0
  1 29  1  0
  4 30  1  0
  5 31  1  0
  9 32  1  0
 10 33  1  0
 11 34  1  0
 11 35  1  0
 12 36  1  0
 12 37  1  0
 13 38  1  0
 13 39  1  0
 16 40  1  0
 20 41  1  0
 21 42  1  0
 22 43  1  0
 23 44  1  0
M  END
$$$$
