
     RDKit          3D

 55 57  0  0  0  0  0  0  0  0999 V2000
   -9.1522   -2.5277    0.9736 C   0  0  0  0  0  0  0  0  0  0  0  0
   -8.8724   -1.1470    0.7924 O   0  0  0  0  0  0  0  0  0  0  0  0
   -7.5547   -0.7598    0.7741 C   0  0  0  0  0  0  0  0  0  0  0  0
   -6.4743   -1.6255    0.9733 C   0  0  0  0  0  0  0  0  0  0  0  0
   -5.1647   -1.1406    0.9386 C   0  0  0  0  0  0  0  0  0  0  0  0
   -4.9211    0.2142    0.7024 C   0  0  0  0  0  0  0  0  0  0  0  0
   -3.5512    0.7350    0.6730 C   0  0  0  0  0  0  0  0  0  0  0  0
   -2.6660    0.5382   -0.3136 C   0  0  0  0  0  0  0  0  0  0  0  0
   -2.8851   -0.3388   -1.7730 S   0  0  0  0  0  0  0  0  0  0  0  0
   -1.2517    0.0003   -2.3335 C   0  0  0  0  0  0  0  0  0  0  0  0
   -0.6764   -0.5782   -3.7892 S   0  0  0  0  0  0  0  0  0  0  0  0
   -0.5925    0.7838   -1.4073 N   0  0  0  0  0  0  0  0  0  0  0  0
    0.7993    1.2194   -1.5215 C   0  0  0  0  0  0  0  0  0  0  0  0
    1.7559    0.2081   -0.8880 C   0  0  0  0  0  0  0  0  0  0  0  0
    3.2047    0.6834   -0.9724 C   0  0  0  0  0  0  0  0  0  0  0  0
    4.1743   -0.3204   -0.3660 C   0  0  0  0  0  0  0  0  0  0  0  0
    3.8019   -1.4097    0.0532 O   0  0  0  0  0  0  0  0  0  0  0  0
    5.4737    0.1628   -0.3743 N   0  0  0  0  0  0  0  0  0  0  0  0
    6.6359   -0.4872    0.0937 C   0  0  0  0  0  0  0  0  0  0  0  0
    6.6449   -1.7697    0.6473 C   0  0  0  0  0  0  0  0  0  0  0  0
    7.8403   -2.3478    1.0869 C   0  0  0  0  0  0  0  0  0  0  0  0
    9.0402   -1.6477    0.9761 C   0  0  0  0  0  0  0  0  0  0  0  0
    9.0469   -0.3629    0.4249 C   0  0  0  0  0  0  0  0  0  0  0  0
   10.3431    0.3514    0.3240 C   0  0  0  0  0  0  0  0  0  0  0  0
   11.4247   -0.0754    0.6835 O   0  0  0  0  0  0  0  0  0  0  0  0
   10.2247    1.5726   -0.2280 O   0  0  0  0  0  0  0  0  0  0  0  0
    7.8457    0.2129   -0.0149 C   0  0  0  0  0  0  0  0  0  0  0  0
   -1.2959    1.1114   -0.2603 C   0  0  0  0  0  0  0  0  0  0  0  0
   -0.8730    1.7737    0.6780 O   0  0  0  0  0  0  0  0  0  0  0  0
   -5.9979    1.0874    0.5080 C   0  0  0  0  0  0  0  0  0  0  0  0
   -7.3140    0.6103    0.5390 C   0  0  0  0  0  0  0  0  0  0  0  0
   -8.4275    1.3945    0.3584 O   0  0  0  0  0  0  0  0  0  0  0  0
   -8.2274    2.7676    0.0564 C   0  0  0  0  0  0  0  0  0  0  0  0
  -10.2384   -2.6571    0.9350 H   0  0  0  0  0  0  0  0  0  0  0  0
   -8.7180   -3.1289    0.1676 H   0  0  0  0  0  0  0  0  0  0  0  0
   -8.8117   -2.8741    1.9552 H   0  0  0  0  0  0  0  0  0  0  0  0
   -6.6166   -2.6844    1.1606 H   0  0  0  0  0  0  0  0  0  0  0  0
   -4.3399   -1.8315    1.0997 H   0  0  0  0  0  0  0  0  0  0  0  0
   -3.2755    1.3374    1.5380 H   0  0  0  0  0  0  0  0  0  0  0  0
    1.0547    1.3753   -2.5746 H   0  0  0  0  0  0  0  0  0  0  0  0
    0.9059    2.1893   -1.0207 H   0  0  0  0  0  0  0  0  0  0  0  0
    1.4831    0.0446    0.1627 H   0  0  0  0  0  0  0  0  0  0  0  0
    1.6530   -0.7650   -1.3839 H   0  0  0  0  0  0  0  0  0  0  0  0
    3.3136    1.6367   -0.4414 H   0  0  0  0  0  0  0  0  0  0  0  0
    3.4861    0.8373   -2.0209 H   0  0  0  0  0  0  0  0  0  0  0  0
    5.6106    1.0894   -0.7577 H   0  0  0  0  0  0  0  0  0  0  0  0
    5.7353   -2.3547    0.7510 H   0  0  0  0  0  0  0  0  0  0  0  0
    7.8298   -3.3476    1.5154 H   0  0  0  0  0  0  0  0  0  0  0  0
    9.9654   -2.1058    1.3205 H   0  0  0  0  0  0  0  0  0  0  0  0
   11.1453    1.9110   -0.2358 H   0  0  0  0  0  0  0  0  0  0  0  0
    7.8610    1.2127   -0.4424 H   0  0  0  0  0  0  0  0  0  0  0  0
   -5.7869    2.1370    0.3328 H   0  0  0  0  0  0  0  0  0  0  0  0
   -9.2114    3.2264   -0.0813 H   0  0  0  0  0  0  0  0  0  0  0  0
   -7.7331    3.2858    0.8844 H   0  0  0  0  0  0  0  0  0  0  0  0
   -7.6705    2.8900   -0.8788 H   0  0  0  0  0  0  0  0  0  0  0  0
  1  2  1  0
  2  3  1  0
  3  4  2  0
  4  5  1  0
  5  6  2  0
  6  7  1  0
  7  8  2  3
  8  9  1  0
  9 10  1  0
 10 11  2  0
 10 12  1  0
 12 13  1  0
 13 14  1  0
 14 15  1  0
 15 16  1  0
 16 17  2  0
 16 18  1  0
 18 19  1  0
 19 20  2  0
 20 21  1  0
 21 22  2  0
 22 23  1  0
 23 24  1  0
 24 25  2  0
 24 26  1  0
 23 27  2  0
 12 28  1  0
 28 29  2  0
  6 30  1  0
 30 31  2  0
 31 32  1  0
 32 33  1  0
 31  3  1  0
 28  8  1  0
 27 19  1  0
  1 34  1  0
  1 35  1  0
  1 36  1  0
  4 37  1  0
  5 38  1  0
  7 39  1  0
 13 40  1  0
 13 41  1  0
 14 42  1  0
 14 43  1  0
 15 44  1  0
 15 45  1  0
 18 46  1  0
 20 47  1  0
 21 48  1  0
 22 49  1  0
 26 50  1  0
 27 51  1  0
 30 52  1  0
 33 53  1  0
 33 54  1  0
 33 55  1  0
M  END
$$$$
