
     RDKit          3D

 56 59  0  0  0  0  0  0  0  0999 V2000
   -5.7020    1.9968   -3.2546 C   0  0  0  0  0  0  0  0  0  0  0  0
   -4.2099    2.0917   -3.0160 C   0  0  0  0  0  0  0  0  0  0  0  0
   -3.9243    1.4882   -1.7493 O   0  0  0  0  0  0  0  0  0  0  0  0
   -2.6296    1.1222   -1.5557 C   0  0  0  0  0  0  0  0  0  0  0  0
   -1.7372    1.3013   -2.3790 O   0  0  0  0  0  0  0  0  0  0  0  0
   -2.3884    0.4885   -0.2546 C   0  0  0  0  0  0  0  0  0  0  0  0
   -1.1040    0.1391    0.1506 C   0  0  0  0  0  0  0  0  0  0  0  0
    0.0513    0.2927   -0.6033 N   0  0  0  0  0  0  0  0  0  0  0  0
    1.3589   -0.0114   -0.2460 C   0  0  0  0  0  0  0  0  0  0  0  0
    1.7423   -0.4399    0.8356 O   0  0  0  0  0  0  0  0  0  0  0  0
    2.3156    0.2719   -1.4145 C   0  0  0  0  0  0  0  0  0  0  0  0
    3.7018   -0.0055   -1.0740 N   0  0  0  0  0  0  0  0  0  0  0  0
    4.4555    1.0639   -0.6473 N   0  0  0  0  0  0  0  0  0  0  0  0
    5.6741    0.8390   -0.2571 C   0  0  0  0  0  0  0  0  0  0  0  0
    6.4800    2.0427    0.1912 C   0  0  0  0  0  0  0  0  0  0  0  0
    6.6452    2.3755    1.3425 O   0  0  0  0  0  0  0  0  0  0  0  0
    7.0486    2.6671   -0.8438 O   0  0  0  0  0  0  0  0  0  0  0  0
    6.3062   -0.4861   -0.2433 C   0  0  0  0  0  0  0  0  0  0  0  0
    7.6131   -0.7020    0.2095 C   0  0  0  0  0  0  0  0  0  0  0  0
    8.1565   -1.9900    0.1717 C   0  0  0  0  0  0  0  0  0  0  0  0
    7.4024   -3.0577   -0.3162 C   0  0  0  0  0  0  0  0  0  0  0  0
    6.0990   -2.8411   -0.7635 C   0  0  0  0  0  0  0  0  0  0  0  0
    5.5523   -1.5514   -0.7223 C   0  0  0  0  0  0  0  0  0  0  0  0
    4.1701   -1.3125   -1.1767 C   0  0  0  0  0  0  0  0  0  0  0  0
    3.5079   -2.2458   -1.6210 O   0  0  0  0  0  0  0  0  0  0  0  0
   -1.0674   -0.5279    1.7078 S   0  0  0  0  0  0  0  0  0  0  0  0
   -2.7474   -0.4014    1.8793 C   0  0  0  0  0  0  0  0  0  0  0  0
   -3.3589    0.1275    0.7586 C   0  0  0  0  0  0  0  0  0  0  0  0
   -4.8507    0.2900    0.6971 C   0  0  0  0  0  0  0  0  0  0  0  0
   -5.5691   -0.5295    1.7791 C   0  0  0  0  0  0  0  0  0  0  0  0
   -4.8998   -0.3664    3.1560 C   0  0  0  0  0  0  0  0  0  0  0  0
   -5.6984   -1.0937    4.2357 C   0  0  0  0  0  0  0  0  0  0  0  0
   -3.4438   -0.8764    3.1196 C   0  0  0  0  0  0  0  0  0  0  0  0
   -6.0224    0.9493   -3.2465 H   0  0  0  0  0  0  0  0  0  0  0  0
   -5.9757    2.4460   -4.2134 H   0  0  0  0  0  0  0  0  0  0  0  0
   -6.2577    2.5000   -2.4588 H   0  0  0  0  0  0  0  0  0  0  0  0
   -3.9097    3.1402   -2.9857 H   0  0  0  0  0  0  0  0  0  0  0  0
   -3.6889    1.5775   -3.8252 H   0  0  0  0  0  0  0  0  0  0  0  0
   -0.1008    0.7086   -1.5243 H   0  0  0  0  0  0  0  0  0  0  0  0
    2.0184   -0.3520   -2.2642 H   0  0  0  0  0  0  0  0  0  0  0  0
    2.2254    1.3246   -1.7037 H   0  0  0  0  0  0  0  0  0  0  0  0
    7.4932    3.4451   -0.4500 H   0  0  0  0  0  0  0  0  0  0  0  0
    8.2236    0.1089    0.5995 H   0  0  0  0  0  0  0  0  0  0  0  0
    9.1711   -2.1609    0.5270 H   0  0  0  0  0  0  0  0  0  0  0  0
    7.8255   -4.0607   -0.3426 H   0  0  0  0  0  0  0  0  0  0  0  0
    5.5091   -3.6758   -1.1379 H   0  0  0  0  0  0  0  0  0  0  0  0
   -5.0943    1.3520    0.8260 H   0  0  0  0  0  0  0  0  0  0  0  0
   -5.2302   -0.0259   -0.2787 H   0  0  0  0  0  0  0  0  0  0  0  0
   -6.6183   -0.2171    1.8235 H   0  0  0  0  0  0  0  0  0  0  0  0
   -5.5656   -1.5906    1.4954 H   0  0  0  0  0  0  0  0  0  0  0  0
   -4.8895    0.7046    3.4035 H   0  0  0  0  0  0  0  0  0  0  0  0
   -5.7545   -2.1686    4.0358 H   0  0  0  0  0  0  0  0  0  0  0  0
   -5.2445   -0.9545    5.2183 H   0  0  0  0  0  0  0  0  0  0  0  0
   -6.7198   -0.7068    4.2861 H   0  0  0  0  0  0  0  0  0  0  0  0
   -3.4264   -1.9746    3.1326 H   0  0  0  0  0  0  0  0  0  0  0  0
   -2.9178   -0.5291    4.0158 H   0  0  0  0  0  0  0  0  0  0  0  0
  1  2  1  0
  2  3  1  0
  3  4  1  0
  4  5  2  0
  4  6  1  0
  6  7  2  0
  7  8  1  0
  8  9  1  0
  9 10  2  0
  9 11  1  0
 11 12  1  0
 12 13  1  0
 13 14  2  0
 14 15  1  0
 15 16  2  0
 15 17  1  0
 14 18  1  0
 18 19  2  0
 19 20  1  0
 20 21  2  0
 21 22  1  0
 22 23  2  0
 23 24  1  0
 24 25  2  0
  7 26  1  0
 26 27  1  0
 27 28  2  0
 28 29  1  0
 29 30  1  0
 30 31  1  0
 31 32  1  0
 31 33  1  0
 28  6  1  0
 24 12  1  0
 33 27  1  0
 23 18  1  0
  1 34  1  0
  1 35  1  0
  1 36  1  0
  2 37  1  0
  2 38  1  0
  8 39  1  0
 11 40  1  0
 11 41  1  0
 17 42  1  0
 19 43  1  0
 20 44  1  0
 21 45  1  0
 22 46  1  0
 29 47  1  0
 29 48  1  0
 30 49  1  0
 30 50  1  0
 31 51  1  0
 32 52  1  0
 32 53  1  0
 32 54  1  0
 33 55  1  0
 33 56  1  0
M  END
$$$$
