
     RDKit          3D

 44 47  0  0  0  0  0  0  0  0999 V2000
   -6.7662    0.5949   -1.4995 C   0  0  0  0  0  0  0  0  0  0  0  0
   -5.7862    1.5632   -0.8551 C   0  0  0  0  0  0  0  0  0  0  0  0
   -4.5706    0.8543   -0.3162 C   0  0  0  0  0  0  0  0  0  0  0  0
   -4.5565    0.3630    0.9939 C   0  0  0  0  0  0  0  0  0  0  0  0
   -3.4356   -0.3102    1.4936 C   0  0  0  0  0  0  0  0  0  0  0  0
   -2.3139   -0.5085    0.6898 C   0  0  0  0  0  0  0  0  0  0  0  0
   -1.1486   -1.1681    1.1171 N   0  0  0  0  0  0  0  0  0  0  0  0
   -0.8998   -1.7749    2.3362 C   0  0  0  0  0  0  0  0  0  0  0  0
   -1.7140   -1.9375    3.2420 O   0  0  0  0  0  0  0  0  0  0  0  0
    0.4926   -2.4072    2.4158 C   0  0  0  0  0  0  0  0  0  0  0  0
    1.4724   -1.7143    1.5756 N   0  0  0  0  0  0  0  0  0  0  0  0
    1.5155   -2.0811    0.2260 N   0  0  0  0  0  0  0  0  0  0  0  0
    2.3935   -1.5072   -0.5453 C   0  0  0  0  0  0  0  0  0  0  0  0
    3.2513   -0.5274   -0.0663 N   0  0  0  0  0  0  0  0  0  0  0  0
    3.2059   -0.1163    1.2363 C   0  0  0  0  0  0  0  0  0  0  0  0
    4.1524    0.8700    1.4079 C   0  0  0  0  0  0  0  0  0  0  0  0
    4.8010    1.0624    0.1580 C   0  0  0  0  0  0  0  0  0  0  0  0
    5.8324    1.9157   -0.2789 C   0  0  0  0  0  0  0  0  0  0  0  0
    6.2550    1.8582   -1.6108 C   0  0  0  0  0  0  0  0  0  0  0  0
    5.6663    0.9675   -2.5037 C   0  0  0  0  0  0  0  0  0  0  0  0
    4.6402    0.1097   -2.0957 C   0  0  0  0  0  0  0  0  0  0  0  0
    4.2219    0.1743   -0.7560 C   0  0  0  0  0  0  0  0  0  0  0  0
    2.2727   -0.7110    2.1526 C   0  0  0  0  0  0  0  0  0  0  0  0
    2.1871   -0.3740    3.3290 O   0  0  0  0  0  0  0  0  0  0  0  0
   -2.3279   -0.0210   -0.6221 C   0  0  0  0  0  0  0  0  0  0  0  0
   -3.4467    0.6516   -1.1231 C   0  0  0  0  0  0  0  0  0  0  0  0
   -6.3047    0.0610   -2.3371 H   0  0  0  0  0  0  0  0  0  0  0  0
   -7.6374    1.1364   -1.8813 H   0  0  0  0  0  0  0  0  0  0  0  0
   -7.1193   -0.1512   -0.7794 H   0  0  0  0  0  0  0  0  0  0  0  0
   -5.4777    2.3200   -1.5866 H   0  0  0  0  0  0  0  0  0  0  0  0
   -6.2839    2.1101   -0.0450 H   0  0  0  0  0  0  0  0  0  0  0  0
   -5.4195    0.4995    1.6421 H   0  0  0  0  0  0  0  0  0  0  0  0
   -3.4722   -0.6647    2.5189 H   0  0  0  0  0  0  0  0  0  0  0  0
   -0.3848   -1.2440    0.4494 H   0  0  0  0  0  0  0  0  0  0  0  0
    0.8210   -2.3883    3.4600 H   0  0  0  0  0  0  0  0  0  0  0  0
    0.4230   -3.4495    2.0867 H   0  0  0  0  0  0  0  0  0  0  0  0
    2.4580   -1.7942   -1.6063 H   0  0  0  0  0  0  0  0  0  0  0  0
    4.3539    1.3930    2.3352 H   0  0  0  0  0  0  0  0  0  0  0  0
    6.2983    2.6143    0.4108 H   0  0  0  0  0  0  0  0  0  0  0  0
    7.0519    2.5166   -1.9492 H   0  0  0  0  0  0  0  0  0  0  0  0
    6.0108    0.9385   -3.5356 H   0  0  0  0  0  0  0  0  0  0  0  0
    4.1936   -0.5792   -2.8059 H   0  0  0  0  0  0  0  0  0  0  0  0
   -1.4708   -0.1601   -1.2751 H   0  0  0  0  0  0  0  0  0  0  0  0
   -3.4348    1.0156   -2.1479 H   0  0  0  0  0  0  0  0  0  0  0  0
  1  2  1  0
  2  3  1  0
  3  4  2  0
  4  5  1  0
  5  6  2  0
  6  7  1  0
  7  8  1  0
  8  9  2  0
  8 10  1  0
 10 11  1  0
 11 12  1  0
 12 13  2  0
 13 14  1  0
 14 15  1  0
 15 16  2  0
 16 17  1  0
 17 18  2  0
 18 19  1  0
 19 20  2  0
 20 21  1  0
 21 22  2  0
 15 23  1  0
 23 24  2  0
  6 25  1  0
 25 26  2  0
 26  3  1  0
 23 11  1  0
 22 14  1  0
 22 17  1  0
  1 27  1  0
  1 28  1  0
  1 29  1  0
  2 30  1  0
  2 31  1  0
  4 32  1  0
  5 33  1  0
  7 34  1  0
 10 35  1  0
 10 36  1  0
 13 37  1  0
 16 38  1  0
 18 39  1  0
 19 40  1  0
 20 41  1  0
 21 42  1  0
 25 43  1  0
 26 44  1  0
M  END
$$$$
