
     RDKit          3D

 56 59  0  0  0  0  0  0  0  0999 V2000
   -3.0254    3.5067    0.9913 C   0  0  0  0  0  0  0  0  0  0  0  0
   -2.9727    2.9439    2.4051 C   0  0  0  0  0  0  0  0  0  0  0  0
   -2.1560    1.7318    2.5204 N   0  0  0  0  0  0  0  0  0  0  0  0
   -2.8681    0.4456    2.4813 C   0  0  0  0  0  0  0  0  0  0  0  0
   -3.1836    0.0007    1.0470 C   0  0  0  0  0  0  0  0  0  0  0  0
   -4.3575    0.2921    0.5778 N   0  0  0  0  0  0  0  0  0  0  0  0
   -4.6795   -0.0805   -0.7091 C   0  0  0  0  0  0  0  0  0  0  0  0
   -5.7654    0.1830   -1.2141 O   0  0  0  0  0  0  0  0  0  0  0  0
   -3.6903   -0.8337   -1.5250 C   0  0  0  0  0  0  0  0  0  0  0  0
   -3.9800   -1.2439   -2.8309 C   0  0  0  0  0  0  0  0  0  0  0  0
   -3.0209   -1.9500   -3.5577 C   0  0  0  0  0  0  0  0  0  0  0  0
   -1.7852   -2.2360   -2.9760 C   0  0  0  0  0  0  0  0  0  0  0  0
   -0.6045   -3.1060   -3.8749 Cl  0  0  0  0  0  0  0  0  0  0  0  0
   -1.4948   -1.8240   -1.6728 C   0  0  0  0  0  0  0  0  0  0  0  0
   -2.4550   -1.1253   -0.9369 C   0  0  0  0  0  0  0  0  0  0  0  0
   -2.2035   -0.6742    0.3579 N   0  0  0  0  0  0  0  0  0  0  0  0
   -0.7716    1.8986    2.4945 C   0  0  0  0  0  0  0  0  0  0  0  0
   -0.2127    2.9903    2.4204 O   0  0  0  0  0  0  0  0  0  0  0  0
    0.1058    0.7144    2.4891 C   0  0  0  0  0  0  0  0  0  0  0  0
    0.1814   -0.1355    3.5944 C   0  0  0  0  0  0  0  0  0  0  0  0
    1.0058   -1.2564    3.5356 C   0  0  0  0  0  0  0  0  0  0  0  0
    1.7669   -1.5009    2.3894 C   0  0  0  0  0  0  0  0  0  0  0  0
    1.7357   -0.6165    1.3069 C   0  0  0  0  0  0  0  0  0  0  0  0
    2.5393   -0.9568    0.2557 O   0  0  0  0  0  0  0  0  0  0  0  0
    2.9308    0.1085   -0.6167 C   0  0  0  0  0  0  0  0  0  0  0  0
    4.0626   -0.3227   -1.4769 C   0  0  0  0  0  0  0  0  0  0  0  0
    4.0240   -1.1711   -2.6166 C   0  0  0  0  0  0  0  0  0  0  0  0
    2.8504   -1.8431   -3.2203 C   0  0  0  0  0  0  0  0  0  0  0  0
    5.2398   -1.3311   -3.1508 N   0  0  0  0  0  0  0  0  0  0  0  0
    6.0993   -0.5991   -2.3561 O   0  0  0  0  0  0  0  0  0  0  0  0
    5.3987   -0.0050   -1.3556 C   0  0  0  0  0  0  0  0  0  0  0  0
    6.1799    0.8131   -0.4089 C   0  0  0  0  0  0  0  0  0  0  0  0
    0.8980    0.4945    1.3541 C   0  0  0  0  0  0  0  0  0  0  0  0
   -2.0269    3.7573    0.6203 H   0  0  0  0  0  0  0  0  0  0  0  0
   -3.4682    2.7969    0.2890 H   0  0  0  0  0  0  0  0  0  0  0  0
   -3.6301    4.4189    0.9733 H   0  0  0  0  0  0  0  0  0  0  0  0
   -3.9844    2.7363    2.7699 H   0  0  0  0  0  0  0  0  0  0  0  0
   -2.5463    3.7051    3.0697 H   0  0  0  0  0  0  0  0  0  0  0  0
   -2.2843   -0.3423    2.9585 H   0  0  0  0  0  0  0  0  0  0  0  0
   -3.7985    0.5399    3.0524 H   0  0  0  0  0  0  0  0  0  0  0  0
   -4.9454   -1.0149   -3.2782 H   0  0  0  0  0  0  0  0  0  0  0  0
   -3.2426   -2.2718   -4.5726 H   0  0  0  0  0  0  0  0  0  0  0  0
   -0.5248   -2.0528   -1.2391 H   0  0  0  0  0  0  0  0  0  0  0  0
   -1.3469   -0.9593    0.8149 H   0  0  0  0  0  0  0  0  0  0  0  0
   -0.3934    0.0739    4.4935 H   0  0  0  0  0  0  0  0  0  0  0  0
    1.0706   -1.9339    4.3842 H   0  0  0  0  0  0  0  0  0  0  0  0
    2.4163   -2.3741    2.3522 H   0  0  0  0  0  0  0  0  0  0  0  0
    3.2330    0.9890   -0.0349 H   0  0  0  0  0  0  0  0  0  0  0  0
    2.0814    0.3839   -1.2539 H   0  0  0  0  0  0  0  0  0  0  0  0
    2.3530   -2.4769   -2.4793 H   0  0  0  0  0  0  0  0  0  0  0  0
    2.1308   -1.1004   -3.5792 H   0  0  0  0  0  0  0  0  0  0  0  0
    3.1359   -2.4751   -4.0676 H   0  0  0  0  0  0  0  0  0  0  0  0
    7.2430    0.5546   -0.4433 H   0  0  0  0  0  0  0  0  0  0  0  0
    6.0775    1.8752   -0.6515 H   0  0  0  0  0  0  0  0  0  0  0  0
    5.8296    0.6585    0.6164 H   0  0  0  0  0  0  0  0  0  0  0  0
    0.8290    1.2004    0.5312 H   0  0  0  0  0  0  0  0  0  0  0  0
  1  2  1  0
  2  3  1  0
  3  4  1  0
  4  5  1  0
  5  6  2  0
  6  7  1  0
  7  8  2  0
  7  9  1  0
  9 10  2  0
 10 11  1  0
 11 12  2  0
 12 13  1  0
 12 14  1  0
 14 15  2  0
 15 16  1  0
  3 17  1  0
 17 18  2  0
 17 19  1  0
 19 20  2  0
 20 21  1  0
 21 22  2  0
 22 23  1  0
 23 24  1  0
 24 25  1  0
 25 26  1  0
 26 27  1  0
 27 28  1  0
 27 29  2  0
 29 30  1  0
 30 31  1  0
 31 32  1  0
 23 33  2  0
 16  5  1  0
 33 19  1  0
 15  9  1  0
 31 26  2  0
  1 34  1  0
  1 35  1  0
  1 36  1  0
  2 37  1  0
  2 38  1  0
  4 39  1  0
  4 40  1  0
 10 41  1  0
 11 42  1  0
 14 43  1  0
 16 44  1  0
 20 45  1  0
 21 46  1  0
 22 47  1  0
 25 48  1  0
 25 49  1  0
 28 50  1  0
 28 51  1  0
 28 52  1  0
 32 53  1  0
 32 54  1  0
 32 55  1  0
 33 56  1  0
M  END
$$$$
