
     RDKit          3D

 44 45  0  0  0  0  0  0  0  0999 V2000
    5.2007   -2.1368   -1.7774 C   0  0  0  0  0  0  0  0  0  0  0  0
    3.9197   -1.4228   -1.4388 C   0  0  0  0  0  0  0  0  0  0  0  0
    2.9720   -2.0006   -0.9169 O   0  0  0  0  0  0  0  0  0  0  0  0
    3.9215   -0.0828   -1.7492 N   0  0  0  0  0  0  0  0  0  0  0  0
    2.7817    0.7689   -1.4597 C   0  0  0  0  0  0  0  0  0  0  0  0
    2.7377    1.2316    0.0004 C   0  0  0  0  0  0  0  0  0  0  0  0
    1.7405    2.2376    0.1976 O   0  0  0  0  0  0  0  0  0  0  0  0
    0.4705    1.7430    0.4162 C   0  0  0  0  0  0  0  0  0  0  0  0
   -0.4488    2.6659    0.6387 N   0  0  0  0  0  0  0  0  0  0  0  0
   -1.6781    2.2050    0.8275 C   0  0  0  0  0  0  0  0  0  0  0  0
   -2.7022    3.1163    1.1057 N   0  0  0  0  0  0  0  0  0  0  0  0
   -4.0456    2.6195    0.8574 C   0  0  0  0  0  0  0  0  0  0  0  0
   -2.4224    4.4875    0.7099 C   0  0  0  0  0  0  0  0  0  0  0  0
   -1.9737    0.9056    0.7801 N   0  0  0  0  0  0  0  0  0  0  0  0
   -0.9867    0.0486    0.5400 C   0  0  0  0  0  0  0  0  0  0  0  0
   -1.2586   -1.3056    0.5041 N   0  0  0  0  0  0  0  0  0  0  0  0
   -2.6350   -1.7593    0.2952 C   0  0  0  0  0  0  0  0  0  0  0  0
   -2.6946   -2.7157   -0.9070 C   0  0  0  0  0  0  0  0  0  0  0  0
   -1.8616   -3.8766   -0.7687 O   0  0  0  0  0  0  0  0  0  0  0  0
   -0.6822   -3.6451    0.0209 C   0  0  0  0  0  0  0  0  0  0  0  0
   -0.1962   -2.1885    0.0026 C   0  0  0  0  0  0  0  0  0  0  0  0
    0.2623    0.4401    0.3499 N   0  0  0  0  0  0  0  0  0  0  0  0
    4.9634   -3.0657   -2.3034 H   0  0  0  0  0  0  0  0  0  0  0  0
    5.7389   -2.3626   -0.8531 H   0  0  0  0  0  0  0  0  0  0  0  0
    5.8427   -1.5323   -2.4240 H   0  0  0  0  0  0  0  0  0  0  0  0
    4.7661    0.3473   -2.1033 H   0  0  0  0  0  0  0  0  0  0  0  0
    1.8653    0.2337   -1.7298 H   0  0  0  0  0  0  0  0  0  0  0  0
    2.8474    1.6374   -2.1245 H   0  0  0  0  0  0  0  0  0  0  0  0
    3.6970    1.7055    0.2429 H   0  0  0  0  0  0  0  0  0  0  0  0
    2.6430    0.3973    0.7076 H   0  0  0  0  0  0  0  0  0  0  0  0
   -4.7888    3.3760    1.1339 H   0  0  0  0  0  0  0  0  0  0  0  0
   -4.2682    1.7336    1.4634 H   0  0  0  0  0  0  0  0  0  0  0  0
   -4.1934    2.3785   -0.2017 H   0  0  0  0  0  0  0  0  0  0  0  0
   -2.2886    4.5711   -0.3749 H   0  0  0  0  0  0  0  0  0  0  0  0
   -3.2533    5.1429    0.9945 H   0  0  0  0  0  0  0  0  0  0  0  0
   -1.5330    4.8814    1.2152 H   0  0  0  0  0  0  0  0  0  0  0  0
   -2.9562   -2.2904    1.1990 H   0  0  0  0  0  0  0  0  0  0  0  0
   -3.3440   -0.9422    0.1234 H   0  0  0  0  0  0  0  0  0  0  0  0
   -3.7206   -3.0666   -1.0574 H   0  0  0  0  0  0  0  0  0  0  0  0
   -2.3902   -2.1956   -1.8231 H   0  0  0  0  0  0  0  0  0  0  0  0
    0.1012   -4.3102   -0.3562 H   0  0  0  0  0  0  0  0  0  0  0  0
   -0.9094   -3.9565    1.0473 H   0  0  0  0  0  0  0  0  0  0  0  0
    0.0620   -1.9101   -1.0270 H   0  0  0  0  0  0  0  0  0  0  0  0
    0.6980   -2.1083    0.6311 H   0  0  0  0  0  0  0  0  0  0  0  0
  1  2  1  0
  2  3  2  0
  2  4  1  0
  4  5  1  0
  5  6  1  0
  6  7  1  0
  7  8  1  0
  8  9  2  0
  9 10  1  0
 10 11  1  0
 11 12  1  0
 11 13  1  0
 10 14  2  0
 14 15  1  0
 15 16  1  0
 16 17  1  0
 17 18  1  0
 18 19  1  0
 19 20  1  0
 20 21  1  0
 15 22  2  0
 22  8  1  0
 21 16  1  0
  1 23  1  0
  1 24  1  0
  1 25  1  0
  4 26  1  0
  5 27  1  0
  5 28  1  0
  6 29  1  0
  6 30  1  0
 12 31  1  0
 12 32  1  0
 12 33  1  0
 13 34  1  0
 13 35  1  0
 13 36  1  0
 17 37  1  0
 17 38  1  0
 18 39  1  0
 18 40  1  0
 20 41  1  0
 20 42  1  0
 21 43  1  0
 21 44  1  0
M  END
$$$$
