
     RDKit          3D

 54 57  0  0  0  0  0  0  0  0999 V2000
   -0.7878    4.1527   -0.4610 C   0  0  0  0  0  0  0  0  0  0  0  0
   -1.2533    2.8723   -0.9664 N   0  0  0  0  0  0  0  0  0  0  0  0
   -0.6712    1.7257   -0.4468 C   0  0  0  0  0  0  0  0  0  0  0  0
    0.1038    1.7448    0.5065 O   0  0  0  0  0  0  0  0  0  0  0  0
   -1.0878    0.4521   -1.0427 C   0  0  0  0  0  0  0  0  0  0  0  0
   -0.4593   -0.7681   -0.8569 C   0  0  0  0  0  0  0  0  0  0  0  0
    1.0953   -1.0000   -0.0209 S   0  0  0  0  0  0  0  0  0  0  0  0
    0.4487   -1.3512    1.6446 C   0  0  0  0  0  0  0  0  0  0  0  0
    1.3883   -0.7685    2.6841 C   0  0  0  0  0  0  0  0  0  0  0  0
    2.0506   -1.4717    3.4419 O   0  0  0  0  0  0  0  0  0  0  0  0
    1.3992    0.6107    2.7217 N   0  0  0  0  0  0  0  0  0  0  0  0
    2.3007    1.3591    3.5757 C   0  0  0  0  0  0  0  0  0  0  0  0
    3.6567    1.6367    2.9207 C   0  0  0  0  0  0  0  0  0  0  0  0
    4.5820    0.4332    2.8363 C   0  0  0  0  0  0  0  0  0  0  0  0
    5.9352    1.0957    2.7777 C   0  0  0  0  0  0  0  0  0  0  0  0
    5.7559    2.2516    3.7370 C   0  0  0  0  0  0  0  0  0  0  0  0
    4.3748    2.6384    3.6727 O   0  0  0  0  0  0  0  0  0  0  0  0
   -0.9504   -1.9179   -1.3627 N   0  0  0  0  0  0  0  0  0  0  0  0
   -2.0845   -1.8498   -2.0662 C   0  0  0  0  0  0  0  0  0  0  0  0
   -2.6382   -3.0882   -2.6174 C   0  0  0  0  0  0  0  0  0  0  0  0
   -2.9818   -3.1421   -3.9857 C   0  0  0  0  0  0  0  0  0  0  0  0
   -3.5006   -4.3034   -4.5644 C   0  0  0  0  0  0  0  0  0  0  0  0
   -3.6944   -5.4389   -3.7857 C   0  0  0  0  0  0  0  0  0  0  0  0
   -3.3775   -5.4094   -2.4289 C   0  0  0  0  0  0  0  0  0  0  0  0
   -2.8576   -4.2451   -1.8463 C   0  0  0  0  0  0  0  0  0  0  0  0
   -2.5660   -4.2948   -0.1379 Cl  0  0  0  0  0  0  0  0  0  0  0  0
   -2.7213   -0.7040   -2.3490 N   0  0  0  0  0  0  0  0  0  0  0  0
   -2.2142    0.4356   -1.8318 C   0  0  0  0  0  0  0  0  0  0  0  0
   -2.8869    1.6409   -2.1278 N   0  0  0  0  0  0  0  0  0  0  0  0
   -4.0975    1.5557   -2.9342 C   0  0  0  0  0  0  0  0  0  0  0  0
   -2.4211    2.8758   -1.7184 C   0  0  0  0  0  0  0  0  0  0  0  0
   -3.0149    3.9214   -1.9857 O   0  0  0  0  0  0  0  0  0  0  0  0
   -1.3843    4.4156    0.4186 H   0  0  0  0  0  0  0  0  0  0  0  0
   -0.9093    4.9328   -1.2188 H   0  0  0  0  0  0  0  0  0  0  0  0
    0.2668    4.1008   -0.1745 H   0  0  0  0  0  0  0  0  0  0  0  0
    0.3756   -2.4340    1.7850 H   0  0  0  0  0  0  0  0  0  0  0  0
   -0.5460   -0.9187    1.7974 H   0  0  0  0  0  0  0  0  0  0  0  0
    0.9660    1.1111    1.9412 H   0  0  0  0  0  0  0  0  0  0  0  0
    1.8023    2.3079    3.8048 H   0  0  0  0  0  0  0  0  0  0  0  0
    2.4315    0.8338    4.5291 H   0  0  0  0  0  0  0  0  0  0  0  0
    3.5019    2.0543    1.9173 H   0  0  0  0  0  0  0  0  0  0  0  0
    4.3767   -0.2044    1.9722 H   0  0  0  0  0  0  0  0  0  0  0  0
    4.5160   -0.1789    3.7434 H   0  0  0  0  0  0  0  0  0  0  0  0
    6.7613    0.4357    3.0543 H   0  0  0  0  0  0  0  0  0  0  0  0
    6.1208    1.4735    1.7654 H   0  0  0  0  0  0  0  0  0  0  0  0
    5.9679    1.9475    4.7677 H   0  0  0  0  0  0  0  0  0  0  0  0
    6.3904    3.1068    3.4881 H   0  0  0  0  0  0  0  0  0  0  0  0
   -2.8358   -2.2647   -4.6154 H   0  0  0  0  0  0  0  0  0  0  0  0
   -3.7507   -4.3186   -5.6227 H   0  0  0  0  0  0  0  0  0  0  0  0
   -4.0978   -6.3449   -4.2313 H   0  0  0  0  0  0  0  0  0  0  0  0
   -3.5449   -6.2974   -1.8233 H   0  0  0  0  0  0  0  0  0  0  0  0
   -3.8475    1.1515   -3.9204 H   0  0  0  0  0  0  0  0  0  0  0  0
   -4.8238    0.9061   -2.4351 H   0  0  0  0  0  0  0  0  0  0  0  0
   -4.5622    2.5352   -3.0767 H   0  0  0  0  0  0  0  0  0  0  0  0
  1  2  1  0
  2  3  1  0
  3  4  2  0
  3  5  1  0
  5  6  2  0
  6  7  1  0
  7  8  1  0
  8  9  1  0
  9 10  2  0
  9 11  1  0
 11 12  1  0
 12 13  1  0
 13 14  1  0
 14 15  1  0
 15 16  1  0
 16 17  1  0
  6 18  1  0
 18 19  2  0
 19 20  1  0
 20 21  2  0
 21 22  1  0
 22 23  2  0
 23 24  1  0
 24 25  2  0
 25 26  1  0
 19 27  1  0
 27 28  2  0
 28 29  1  0
 29 30  1  0
 29 31  1  0
 31 32  2  0
 31  2  1  0
 28  5  1  0
 17 13  1  0
 25 20  1  0
  1 33  1  0
  1 34  1  0
  1 35  1  0
  8 36  1  0
  8 37  1  0
 11 38  1  0
 12 39  1  0
 12 40  1  0
 13 41  1  0
 14 42  1  0
 14 43  1  0
 15 44  1  0
 15 45  1  0
 16 46  1  0
 16 47  1  0
 21 48  1  0
 22 49  1  0
 23 50  1  0
 24 51  1  0
 30 52  1  0
 30 53  1  0
 30 54  1  0
M  END
$$$$
