
     RDKit          3D

 41 42  0  0  0  0  0  0  0  0999 V2000
    4.2031   -2.7842    0.6568 C   0  0  0  0  0  0  0  0  0  0  0  0
    3.1733   -1.8265    0.4337 O   0  0  0  0  0  0  0  0  0  0  0  0
    3.5630   -0.5463    0.1090 C   0  0  0  0  0  0  0  0  0  0  0  0
    4.8894   -0.1130    0.0262 C   0  0  0  0  0  0  0  0  0  0  0  0
    5.1595    1.2218   -0.3105 C   0  0  0  0  0  0  0  0  0  0  0  0
    6.5526    1.6792   -0.3970 N   0  0  0  0  0  4  0  0  0  0  0  0
    7.4454    0.8378   -0.2189 O   0  0  0  0  0  0  0  0  0  0  0  0
    6.7544    2.8771   -0.6396 O   0  0  0  0  0  1  0  0  0  0  0  0
    4.1193    2.1226   -0.5602 C   0  0  0  0  0  0  0  0  0  0  0  0
    2.7947    1.6863   -0.4762 C   0  0  0  0  0  0  0  0  0  0  0  0
    2.5071    0.3580   -0.1487 C   0  0  0  0  0  0  0  0  0  0  0  0
    1.1939   -0.1481   -0.0406 N   0  0  0  0  0  0  0  0  0  0  0  0
    0.0069    0.4729   -0.3820 C   0  0  0  0  0  0  0  0  0  0  0  0
   -0.0999    1.5742   -0.9082 O   0  0  0  0  0  0  0  0  0  0  0  0
   -1.0781   -0.3434   -0.0430 N   0  0  0  0  0  0  0  0  0  0  0  0
   -2.3929    0.1223   -0.2749 N   0  0  0  0  0  0  0  0  0  0  0  0
   -3.2873   -0.9693   -0.6883 C   0  0  0  0  0  0  0  0  0  0  0  0
   -4.7362   -0.4801   -0.9099 C   0  0  0  0  0  0  0  0  0  0  0  0
   -5.3247    0.2607    0.2242 N   0  0  0  0  0  0  0  0  0  0  0  0
   -5.6748   -0.6255    1.3308 C   0  0  0  0  0  0  0  0  0  0  0  0
   -4.3864    1.3218    0.6446 C   0  0  0  0  0  0  0  0  0  0  0  0
   -2.9348    0.8503    0.8851 C   0  0  0  0  0  0  0  0  0  0  0  0
    4.8157   -2.5082    1.5211 H   0  0  0  0  0  0  0  0  0  0  0  0
    4.8165   -2.9209   -0.2398 H   0  0  0  0  0  0  0  0  0  0  0  0
    3.7238   -3.7419    0.8814 H   0  0  0  0  0  0  0  0  0  0  0  0
    5.7144   -0.7910    0.2198 H   0  0  0  0  0  0  0  0  0  0  0  0
    4.3152    3.1613   -0.8207 H   0  0  0  0  0  0  0  0  0  0  0  0
    2.0060    2.4082   -0.6699 H   0  0  0  0  0  0  0  0  0  0  0  0
    1.1492   -1.1377    0.1665 H   0  0  0  0  0  0  0  0  0  0  0  0
   -0.9343   -0.9762    0.7351 H   0  0  0  0  0  0  0  0  0  0  0  0
   -2.9218   -1.4012   -1.6280 H   0  0  0  0  0  0  0  0  0  0  0  0
   -3.2803   -1.7735    0.0587 H   0  0  0  0  0  0  0  0  0  0  0  0
   -4.7507    0.1807   -1.7872 H   0  0  0  0  0  0  0  0  0  0  0  0
   -5.3748   -1.3321   -1.1748 H   0  0  0  0  0  0  0  0  0  0  0  0
   -6.1487   -0.0567    2.1386 H   0  0  0  0  0  0  0  0  0  0  0  0
   -4.8155   -1.1583    1.7499 H   0  0  0  0  0  0  0  0  0  0  0  0
   -6.4092   -1.3702    1.0040 H   0  0  0  0  0  0  0  0  0  0  0  0
   -4.7637    1.8223    1.5451 H   0  0  0  0  0  0  0  0  0  0  0  0
   -4.3780    2.0929   -0.1374 H   0  0  0  0  0  0  0  0  0  0  0  0
   -2.8951    0.2206    1.7831 H   0  0  0  0  0  0  0  0  0  0  0  0
   -2.3162    1.7335    1.0856 H   0  0  0  0  0  0  0  0  0  0  0  0
  1  2  1  0
  2  3  1  0
  3  4  2  0
  4  5  1  0
  5  6  1  0
  6  7  2  0
  6  8  1  0
  5  9  2  0
  9 10  1  0
 10 11  2  0
 11 12  1  0
 12 13  1  0
 13 14  2  0
 13 15  1  0
 15 16  1  0
 16 17  1  0
 17 18  1  0
 18 19  1  0
 19 20  1  0
 19 21  1  0
 21 22  1  0
 11  3  1  0
 22 16  1  0
  1 23  1  0
  1 24  1  0
  1 25  1  0
  4 26  1  0
  9 27  1  0
 10 28  1  0
 12 29  1  0
 15 30  1  0
 17 31  1  0
 17 32  1  0
 18 33  1  0
 18 34  1  0
 20 35  1  0
 20 36  1  0
 20 37  1  0
 21 38  1  0
 21 39  1  0
 22 40  1  0
 22 41  1  0
M  CHG  2   6   1   8  -1
M  END
$$$$
