
     RDKit          3D

 58 62  0  0  0  0  0  0  0  0999 V2000
   -5.7351   -1.9104   -1.8606 C   0  0  0  0  0  0  0  0  0  0  0  0
   -4.4203   -1.4169   -2.0709 O   0  0  0  0  0  0  0  0  0  0  0  0
   -4.2581   -0.0672   -2.2194 C   0  0  0  0  0  0  0  0  0  0  0  0
   -5.3086    0.8565   -2.2637 C   0  0  0  0  0  0  0  0  0  0  0  0
   -5.0492    2.2196   -2.4236 C   0  0  0  0  0  0  0  0  0  0  0  0
   -3.7395    2.6707   -2.5410 C   0  0  0  0  0  0  0  0  0  0  0  0
   -2.6870    1.7583   -2.5019 C   0  0  0  0  0  0  0  0  0  0  0  0
   -2.9302    0.3819   -2.3439 C   0  0  0  0  0  0  0  0  0  0  0  0
   -1.7554   -0.5782   -2.2910 C   0  0  0  0  0  0  0  0  0  0  0  0
   -1.3706   -0.9398   -0.9283 N   0  0  0  0  0  0  0  0  0  0  0  0
   -1.6213   -2.2252   -0.4593 C   0  0  0  0  0  0  0  0  0  0  0  0
   -2.0798   -3.1323   -1.1508 O   0  0  0  0  0  0  0  0  0  0  0  0
   -1.3215   -2.5151    0.9739 C   0  0  0  0  0  0  0  0  0  0  0  0
   -1.6910   -3.7628    1.4984 C   0  0  0  0  0  0  0  0  0  0  0  0
   -1.4598   -4.0577    2.8402 C   0  0  0  0  0  0  0  0  0  0  0  0
   -0.8698   -3.1043    3.6653 C   0  0  0  0  0  0  0  0  0  0  0  0
   -0.4937   -1.8586    3.1527 C   0  0  0  0  0  0  0  0  0  0  0  0
   -0.7001   -1.5673    1.8003 C   0  0  0  0  0  0  0  0  0  0  0  0
   -0.3365   -0.3481    1.1940 N   0  0  0  0  0  0  0  0  0  0  0  0
    0.3853    0.7572    1.5995 C   0  0  0  0  0  0  0  0  0  0  0  0
    1.3405    0.9446    3.0312 S   0  0  0  0  0  0  0  0  0  0  0  0
    2.7978   -0.0795    2.6666 C   0  0  0  0  0  0  0  0  0  0  0  0
    3.0799   -0.2387    1.1818 C   0  0  0  0  0  0  0  0  0  0  0  0
    2.6321   -1.2339    0.6007 O   0  0  0  0  0  0  0  0  0  0  0  0
    3.8419    0.7272    0.5250 N   0  0  0  0  0  0  0  0  0  0  0  0
    4.0156    2.0868    1.0453 C   0  0  0  0  0  0  0  0  0  0  0  0
    5.2695    2.7612    0.4962 C   0  0  0  0  0  0  0  0  0  0  0  0
    5.3108    2.7032   -1.0259 C   0  0  0  0  0  0  0  0  0  0  0  0
    5.1822    1.2605   -1.4986 C   0  0  0  0  0  0  0  0  0  0  0  0
    3.9301    0.6003   -0.9311 C   0  0  0  0  0  0  0  0  0  0  0  0
    0.3658    1.6801    0.6629 N   0  0  0  0  0  0  0  0  0  0  0  0
   -0.3062    1.1698   -0.4126 N   0  0  0  0  0  0  0  0  0  0  0  0
   -0.6989   -0.0485   -0.1070 C   0  0  0  0  0  0  0  0  0  0  0  0
   -6.1781   -1.4844   -0.9542 H   0  0  0  0  0  0  0  0  0  0  0  0
   -5.6671   -2.9935   -1.7195 H   0  0  0  0  0  0  0  0  0  0  0  0
   -6.3685   -1.7278   -2.7348 H   0  0  0  0  0  0  0  0  0  0  0  0
   -6.3446    0.5468   -2.1782 H   0  0  0  0  0  0  0  0  0  0  0  0
   -5.8721    2.9289   -2.4540 H   0  0  0  0  0  0  0  0  0  0  0  0
   -3.5337    3.7315   -2.6575 H   0  0  0  0  0  0  0  0  0  0  0  0
   -1.6659    2.1280   -2.5819 H   0  0  0  0  0  0  0  0  0  0  0  0
   -1.9905   -1.4728   -2.8797 H   0  0  0  0  0  0  0  0  0  0  0  0
   -0.8804   -0.1339   -2.7836 H   0  0  0  0  0  0  0  0  0  0  0  0
   -2.1663   -4.5074    0.8617 H   0  0  0  0  0  0  0  0  0  0  0  0
   -1.7500   -5.0257    3.2417 H   0  0  0  0  0  0  0  0  0  0  0  0
   -0.7063   -3.3288    4.7175 H   0  0  0  0  0  0  0  0  0  0  0  0
   -0.0726   -1.1496    3.8542 H   0  0  0  0  0  0  0  0  0  0  0  0
    2.6195   -1.0802    3.0772 H   0  0  0  0  0  0  0  0  0  0  0  0
    3.6761    0.3039    3.1927 H   0  0  0  0  0  0  0  0  0  0  0  0
    4.0731    2.0843    2.1354 H   0  0  0  0  0  0  0  0  0  0  0  0
    3.1239    2.6603    0.7655 H   0  0  0  0  0  0  0  0  0  0  0  0
    5.3077    3.8035    0.8314 H   0  0  0  0  0  0  0  0  0  0  0  0
    6.1576    2.2590    0.9000 H   0  0  0  0  0  0  0  0  0  0  0  0
    4.4942    3.3048   -1.4428 H   0  0  0  0  0  0  0  0  0  0  0  0
    6.2500    3.1334   -1.3907 H   0  0  0  0  0  0  0  0  0  0  0  0
    5.1572    1.2265   -2.5934 H   0  0  0  0  0  0  0  0  0  0  0  0
    6.0669    0.6964   -1.1776 H   0  0  0  0  0  0  0  0  0  0  0  0
    3.0277    1.0592   -1.3543 H   0  0  0  0  0  0  0  0  0  0  0  0
    3.9237   -0.4560   -1.2216 H   0  0  0  0  0  0  0  0  0  0  0  0
  1  2  1  0
  2  3  1  0
  3  4  2  0
  4  5  1  0
  5  6  2  0
  6  7  1  0
  7  8  2  0
  8  9  1  0
  9 10  1  0
 10 11  1  0
 11 12  2  0
 11 13  1  0
 13 14  2  0
 14 15  1  0
 15 16  2  0
 16 17  1  0
 17 18  2  0
 18 19  1  0
 19 20  1  0
 20 21  1  0
 21 22  1  0
 22 23  1  0
 23 24  2  0
 23 25  1  0
 25 26  1  0
 26 27  1  0
 27 28  1  0
 28 29  1  0
 29 30  1  0
 20 31  2  0
 31 32  1  0
 32 33  2  0
  8  3  1  0
 33 10  1  0
 18 13  1  0
 33 19  1  0
 30 25  1  0
  1 34  1  0
  1 35  1  0
  1 36  1  0
  4 37  1  0
  5 38  1  0
  6 39  1  0
  7 40  1  0
  9 41  1  0
  9 42  1  0
 14 43  1  0
 15 44  1  0
 16 45  1  0
 17 46  1  0
 22 47  1  0
 22 48  1  0
 26 49  1  0
 26 50  1  0
 27 51  1  0
 27 52  1  0
 28 53  1  0
 28 54  1  0
 29 55  1  0
 29 56  1  0
 30 57  1  0
 30 58  1  0
M  END
$$$$
