
     RDKit          3D

 30 32  0  0  0  0  0  0  0  0999 V2000
    5.6484   -0.7741   -1.9045 O   0  0  0  0  0  0  0  0  0  0  0  0
    4.4294   -0.6408   -2.0819 N   0  0  0  0  0  4  0  0  0  0  0  0
    3.8799   -0.6066   -3.1918 O   0  0  0  0  0  1  0  0  0  0  0  0
    3.5753   -0.5155   -0.8937 C   0  0  0  0  0  0  0  0  0  0  0  0
    4.1450   -0.6350    0.3809 C   0  0  0  0  0  0  0  0  0  0  0  0
    3.3326   -0.5214    1.5076 C   0  0  0  0  0  0  0  0  0  0  0  0
    1.9635   -0.2856    1.3603 C   0  0  0  0  0  0  0  0  0  0  0  0
    1.3903   -0.1540    0.0851 C   0  0  0  0  0  0  0  0  0  0  0  0
   -0.0831    0.0839   -0.0250 C   0  0  0  0  0  0  0  0  0  0  0  0
   -0.8443   -0.2080    0.9973 N   0  0  0  0  0  0  0  0  0  0  0  0
   -2.2450   -0.1421    0.8629 C   0  0  0  0  0  0  0  0  0  0  0  0
   -3.0233   -0.0099    2.0138 C   0  0  0  0  0  0  0  0  0  0  0  0
   -4.4178   -0.0134    1.9312 C   0  0  0  0  0  0  0  0  0  0  0  0
   -5.0451   -0.1619    0.6940 C   0  0  0  0  0  0  0  0  0  0  0  0
   -4.2805   -0.3033   -0.4644 C   0  0  0  0  0  0  0  0  0  0  0  0
   -2.8863   -0.2915   -0.3792 C   0  0  0  0  0  0  0  0  0  0  0  0
   -1.8764   -0.4258   -1.8427 S   0  0  0  0  0  0  0  0  0  0  0  0
   -0.6324    0.6539   -1.3117 C   0  0  0  0  0  0  0  0  0  0  0  0
   -0.3047    1.7421   -1.9289 N   0  0  0  0  0  0  0  0  0  0  0  0
    0.6760    2.4580   -1.2319 O   0  0  0  0  0  0  0  0  0  0  0  0
    2.2006   -0.2805   -1.0502 C   0  0  0  0  0  0  0  0  0  0  0  0
    5.2100   -0.8187    0.5113 H   0  0  0  0  0  0  0  0  0  0  0  0
    3.7618   -0.6169    2.5029 H   0  0  0  0  0  0  0  0  0  0  0  0
    1.3438   -0.2006    2.2522 H   0  0  0  0  0  0  0  0  0  0  0  0
   -2.5374    0.0867    2.9811 H   0  0  0  0  0  0  0  0  0  0  0  0
   -5.0136    0.0913    2.8346 H   0  0  0  0  0  0  0  0  0  0  0  0
   -6.1308   -0.1681    0.6325 H   0  0  0  0  0  0  0  0  0  0  0  0
   -4.7763   -0.4148   -1.4253 H   0  0  0  0  0  0  0  0  0  0  0  0
    0.7660    3.2696   -1.7690 H   0  0  0  0  0  0  0  0  0  0  0  0
    1.7744   -0.1970   -2.0474 H   0  0  0  0  0  0  0  0  0  0  0  0
  1  2  2  0
  2  3  1  0
  2  4  1  0
  4  5  2  0
  5  6  1  0
  6  7  2  0
  7  8  1  0
  8  9  1  0
  9 10  2  0
 10 11  1  0
 11 12  2  0
 12 13  1  0
 13 14  2  0
 14 15  1  0
 15 16  2  0
 16 17  1  0
 17 18  1  0
 18 19  2  3
 19 20  1  0
  8 21  2  0
 21  4  1  0
 18  9  1  0
 16 11  1  0
  5 22  1  0
  6 23  1  0
  7 24  1  0
 12 25  1  0
 13 26  1  0
 14 27  1  0
 15 28  1  0
 20 29  1  0
 21 30  1  0
M  CHG  2   2   1   3  -1
M  END
$$$$
