
     RDKit          3D

 46 50  0  0  0  0  0  0  0  0999 V2000
   -0.2850    1.6455    1.7946 O   0  0  0  0  0  0  0  0  0  0  0  0
   -0.7867    1.2667    0.7397 C   0  0  0  0  0  0  0  0  0  0  0  0
   -2.0756    1.8194    0.3037 C   0  0  0  0  0  0  0  0  0  0  0  0
   -2.5615    3.0106    0.8515 C   0  0  0  0  0  0  0  0  0  0  0  0
   -3.7762    3.5179    0.3993 C   0  0  0  0  0  0  0  0  0  0  0  0
   -4.3888    4.9847    1.0560 Cl  0  0  0  0  0  0  0  0  0  0  0  0
   -4.5004    2.8462   -0.5859 C   0  0  0  0  0  0  0  0  0  0  0  0
   -4.0095    1.6508   -1.1174 C   0  0  0  0  0  0  0  0  0  0  0  0
   -2.7988    1.1281   -0.6631 C   0  0  0  0  0  0  0  0  0  0  0  0
   -2.4110   -0.0563   -1.2164 O   0  0  0  0  0  0  0  0  0  0  0  0
   -1.2958   -0.7693   -0.6000 C   0  0  0  0  0  0  0  0  0  0  0  0
   -0.8384   -1.7470   -1.7243 C   0  0  0  0  0  0  0  0  0  0  0  0
   -0.6262   -3.1770   -1.2354 C   0  0  0  0  0  0  0  0  0  0  0  0
   -1.7904   -3.7536   -0.5736 N   0  0  0  0  0  0  0  0  0  0  0  0
   -2.6365   -2.7876    0.1213 C   0  0  0  0  0  0  0  0  0  0  0  0
   -1.8520   -1.5712    0.6044 C   0  0  0  0  0  0  0  0  0  0  0  0
   -0.1720    0.2215   -0.1839 C   0  0  0  0  0  0  0  0  0  0  0  0
    1.0659   -0.4069    0.4343 C   0  0  0  0  0  0  0  0  0  0  0  0
    2.0975    0.4961   -0.1539 C   0  0  0  0  0  0  0  0  0  0  0  0
    3.4917    0.5316    0.3469 C   0  0  0  0  0  0  0  0  0  0  0  0
    4.3846    1.4611   -0.2014 C   0  0  0  0  0  0  0  0  0  0  0  0
    5.7061    1.5167    0.2456 C   0  0  0  0  0  0  0  0  0  0  0  0
    6.1422    0.6439    1.2405 C   0  0  0  0  0  0  0  0  0  0  0  0
    5.2591   -0.2852    1.7889 C   0  0  0  0  0  0  0  0  0  0  0  0
    3.9353   -0.3442    1.3442 C   0  0  0  0  0  0  0  0  0  0  0  0
    1.6843    1.2091   -1.1537 N   0  0  0  0  0  0  0  0  0  0  0  0
    0.3145    0.9229   -1.3427 O   0  0  0  0  0  0  0  0  0  0  0  0
   -1.9909    3.5381    1.6122 H   0  0  0  0  0  0  0  0  0  0  0  0
   -5.4465    3.2460   -0.9429 H   0  0  0  0  0  0  0  0  0  0  0  0
   -4.5763    1.1250   -1.8822 H   0  0  0  0  0  0  0  0  0  0  0  0
   -1.5840   -1.7703   -2.5317 H   0  0  0  0  0  0  0  0  0  0  0  0
    0.0863   -1.4008   -2.1999 H   0  0  0  0  0  0  0  0  0  0  0  0
   -0.3465   -3.8149   -2.0819 H   0  0  0  0  0  0  0  0  0  0  0  0
    0.2192   -3.2194   -0.5413 H   0  0  0  0  0  0  0  0  0  0  0  0
   -2.3575   -4.2756   -1.2432 H   0  0  0  0  0  0  0  0  0  0  0  0
   -3.4498   -2.4675   -0.5413 H   0  0  0  0  0  0  0  0  0  0  0  0
   -3.1044   -3.2880    0.9759 H   0  0  0  0  0  0  0  0  0  0  0  0
   -1.0426   -1.9061    1.2646 H   0  0  0  0  0  0  0  0  0  0  0  0
   -2.5226   -0.9543    1.2136 H   0  0  0  0  0  0  0  0  0  0  0  0
    1.0702   -0.4075    1.5263 H   0  0  0  0  0  0  0  0  0  0  0  0
    1.2711   -1.4144    0.0684 H   0  0  0  0  0  0  0  0  0  0  0  0
    4.0569    2.1498   -0.9778 H   0  0  0  0  0  0  0  0  0  0  0  0
    6.3927    2.2427   -0.1829 H   0  0  0  0  0  0  0  0  0  0  0  0
    7.1711    0.6888    1.5892 H   0  0  0  0  0  0  0  0  0  0  0  0
    5.6023   -0.9646    2.5655 H   0  0  0  0  0  0  0  0  0  0  0  0
    3.2751   -1.0814    1.7904 H   0  0  0  0  0  0  0  0  0  0  0  0
  1  2  2  0
  2  3  1  0
  3  4  2  0
  4  5  1  0
  5  6  1  0
  5  7  2  0
  7  8  1  0
  8  9  2  0
  9 10  1  0
 10 11  1  0
 11 12  1  0
 12 13  1  0
 13 14  1  0
 14 15  1  0
 15 16  1  0
 11 17  1  0
 17 18  1  0
 18 19  1  0
 19 20  1  0
 20 21  2  0
 21 22  1  0
 22 23  2  0
 23 24  1  0
 24 25  2  0
 19 26  2  0
 26 27  1  0
 17  2  1  0
 25 20  1  0
  9  3  1  0
 16 11  1  0
 27 17  1  0
  4 28  1  0
  7 29  1  0
  8 30  1  0
 12 31  1  0
 12 32  1  0
 13 33  1  0
 13 34  1  0
 14 35  1  0
 15 36  1  0
 15 37  1  0
 16 38  1  0
 16 39  1  0
 18 40  1  0
 18 41  1  0
 21 42  1  0
 22 43  1  0
 23 44  1  0
 24 45  1  0
 25 46  1  0
M  END
$$$$
