
     RDKit          3D

 55 57  0  0  0  0  0  0  0  0999 V2000
   -0.5699   -3.9616   -1.3115 C   0  0  0  0  0  0  0  0  0  0  0  0
    0.1775   -2.6997   -1.7039 C   0  0  0  0  0  0  0  0  0  0  0  0
   -0.5996   -1.5356   -1.4363 O   0  0  0  0  0  0  0  0  0  0  0  0
   -0.5308   -1.0861   -0.0798 C   0  0  0  0  0  0  0  0  0  0  0  0
    0.7875   -0.6497    0.2851 O   0  0  0  0  0  0  0  0  0  0  0  0
    1.1600    0.5823   -0.2219 C   0  0  0  0  0  0  0  0  0  0  0  0
    2.6324    0.9223   -0.2252 C   0  0  0  0  0  0  0  0  0  0  0  0
    3.0441    1.9877   -0.6663 O   0  0  0  0  0  0  0  0  0  0  0  0
    3.3803   -0.1026    0.3193 N   0  0  0  0  0  0  0  0  0  0  0  0
    4.7759   -0.1653    0.4863 C   0  0  0  0  0  0  0  0  0  0  0  0
    5.6536    0.8481    0.0984 C   0  0  0  0  0  0  0  0  0  0  0  0
    7.0308    0.7076    0.2990 C   0  0  0  0  0  0  0  0  0  0  0  0
    7.5408   -0.4466    0.8885 C   0  0  0  0  0  0  0  0  0  0  0  0
    6.6739   -1.4634    1.2789 C   0  0  0  0  0  0  0  0  0  0  0  0
    5.2981   -1.3229    1.0785 C   0  0  0  0  0  0  0  0  0  0  0  0
    0.2875    1.4783   -0.7081 C   0  0  0  0  0  0  0  0  0  0  0  0
   -1.1992    1.2520   -0.7048 C   0  0  0  0  0  0  0  0  0  0  0  0
   -1.9440    2.5092   -0.2655 C   0  0  0  0  0  0  0  0  0  0  0  0
   -2.8567    3.1222   -1.1397 C   0  0  0  0  0  0  0  0  0  0  0  0
   -3.5528    4.2703   -0.7539 C   0  0  0  0  0  0  0  0  0  0  0  0
   -3.3389    4.8168    0.5089 C   0  0  0  0  0  0  0  0  0  0  0  0
   -4.2810    6.3701    1.0312 Br  0  0  0  0  0  0  0  0  0  0  0  0
   -2.4343    4.2281    1.3885 C   0  0  0  0  0  0  0  0  0  0  0  0
   -1.7390    3.0797    1.0023 C   0  0  0  0  0  0  0  0  0  0  0  0
   -1.5803    0.0166    0.1545 C   0  0  0  0  0  0  0  0  0  0  0  0
   -3.0258   -0.4384   -0.1592 C   0  0  0  0  0  0  0  0  0  0  0  0
   -3.4855   -1.6411    0.6657 C   0  0  0  0  0  0  0  0  0  0  0  0
   -4.9658   -1.9340    0.4511 C   0  0  0  0  0  0  0  0  0  0  0  0
   -5.3435   -3.0647    1.2245 O   0  0  0  0  0  0  0  0  0  0  0  0
   -0.7109   -4.0213   -0.2284 H   0  0  0  0  0  0  0  0  0  0  0  0
   -0.0201   -4.8507   -1.6334 H   0  0  0  0  0  0  0  0  0  0  0  0
   -1.5659   -3.9769   -1.7661 H   0  0  0  0  0  0  0  0  0  0  0  0
    0.3552   -2.7189   -2.7843 H   0  0  0  0  0  0  0  0  0  0  0  0
    1.1565   -2.6484   -1.2154 H   0  0  0  0  0  0  0  0  0  0  0  0
   -0.7547   -1.9254    0.5855 H   0  0  0  0  0  0  0  0  0  0  0  0
    2.8436   -0.9012    0.6370 H   0  0  0  0  0  0  0  0  0  0  0  0
    5.2988    1.7635   -0.3648 H   0  0  0  0  0  0  0  0  0  0  0  0
    7.7025    1.5055   -0.0078 H   0  0  0  0  0  0  0  0  0  0  0  0
    8.6115   -0.5513    1.0428 H   0  0  0  0  0  0  0  0  0  0  0  0
    7.0674   -2.3654    1.7400 H   0  0  0  0  0  0  0  0  0  0  0  0
    4.6426   -2.1304    1.3930 H   0  0  0  0  0  0  0  0  0  0  0  0
    0.6477    2.4189   -1.1223 H   0  0  0  0  0  0  0  0  0  0  0  0
   -1.4708    1.0458   -1.7502 H   0  0  0  0  0  0  0  0  0  0  0  0
   -3.0334    2.7094   -2.1310 H   0  0  0  0  0  0  0  0  0  0  0  0
   -4.2548    4.7292   -1.4449 H   0  0  0  0  0  0  0  0  0  0  0  0
   -2.2591    4.6552    2.3723 H   0  0  0  0  0  0  0  0  0  0  0  0
   -1.0281    2.6387    1.6982 H   0  0  0  0  0  0  0  0  0  0  0  0
   -1.5307    0.2892    1.2183 H   0  0  0  0  0  0  0  0  0  0  0  0
   -3.7123    0.3939    0.0375 H   0  0  0  0  0  0  0  0  0  0  0  0
   -3.1229   -0.6755   -1.2261 H   0  0  0  0  0  0  0  0  0  0  0  0
   -3.3036   -1.4636    1.7328 H   0  0  0  0  0  0  0  0  0  0  0  0
   -2.9090   -2.5349    0.4028 H   0  0  0  0  0  0  0  0  0  0  0  0
   -5.5804   -1.0866    0.7703 H   0  0  0  0  0  0  0  0  0  0  0  0
   -5.1854   -2.1411   -0.6013 H   0  0  0  0  0  0  0  0  0  0  0  0
   -4.8790   -3.8375    0.8608 H   0  0  0  0  0  0  0  0  0  0  0  0
  1  2  1  0
  2  3  1  0
  3  4  1  0
  4  5  1  0
  5  6  1  0
  6  7  1  0
  7  8  2  0
  7  9  1  0
  9 10  1  0
 10 11  2  0
 11 12  1  0
 12 13  2  0
 13 14  1  0
 14 15  2  0
  6 16  2  0
 16 17  1  0
 17 18  1  0
 18 19  2  0
 19 20  1  0
 20 21  2  0
 21 22  1  0
 21 23  1  0
 23 24  2  0
 17 25  1  0
 25 26  1  0
 26 27  1  0
 27 28  1  0
 28 29  1  0
 25  4  1  0
 15 10  1  0
 24 18  1  0
  1 30  1  0
  1 31  1  0
  1 32  1  0
  2 33  1  0
  2 34  1  0
  4 35  1  0
  9 36  1  0
 11 37  1  0
 12 38  1  0
 13 39  1  0
 14 40  1  0
 15 41  1  0
 16 42  1  0
 17 43  1  0
 19 44  1  0
 20 45  1  0
 23 46  1  0
 24 47  1  0
 25 48  1  0
 26 49  1  0
 26 50  1  0
 27 51  1  0
 27 52  1  0
 28 53  1  0
 28 54  1  0
 29 55  1  0
M  END
$$$$
