
     RDKit          3D

 28 29  0  0  0  0  0  0  0  0999 V2000
    0.4000    1.3991   -1.4768 O   0  0  0  0  0  0  0  0  0  0  0  0
    0.5547    0.5745   -0.5788 C   0  0  0  0  0  0  0  0  0  0  0  0
   -0.4427   -0.0956    0.0952 N   0  0  0  0  0  0  0  0  0  0  0  0
   -1.8379    0.0711   -0.0285 C   0  0  0  0  0  0  0  0  0  0  0  0
   -2.4508    1.0391   -0.8220 C   0  0  0  0  0  0  0  0  0  0  0  0
   -3.8464    1.1237   -0.8726 C   0  0  0  0  0  0  0  0  0  0  0  0
   -4.6357    0.2447   -0.1297 C   0  0  0  0  0  0  0  0  0  0  0  0
   -4.0350   -0.7251    0.6713 C   0  0  0  0  0  0  0  0  0  0  0  0
   -2.6444   -0.8038    0.7171 C   0  0  0  0  0  0  0  0  0  0  0  0
   -2.0258   -1.7479    1.5002 O   0  0  0  0  0  0  0  0  0  0  0  0
    1.9554    0.2132   -0.2089 C   0  0  0  0  0  0  0  0  0  0  0  0
    2.2762   -0.2864    1.0633 C   0  0  0  0  0  0  0  0  0  0  0  0
    3.5959   -0.6293    1.3743 C   0  0  0  0  0  0  0  0  0  0  0  0
    4.6043   -0.4687    0.4249 C   0  0  0  0  0  0  0  0  0  0  0  0
    4.3007    0.0492   -0.8331 C   0  0  0  0  0  0  0  0  0  0  0  0
    2.9875    0.3985   -1.1430 C   0  0  0  0  0  0  0  0  0  0  0  0
    2.7825    0.9237   -2.3923 O   0  0  0  0  0  0  0  0  0  0  0  0
   -0.1972   -0.8653    0.7092 H   0  0  0  0  0  0  0  0  0  0  0  0
   -1.8719    1.7439   -1.4099 H   0  0  0  0  0  0  0  0  0  0  0  0
   -4.3155    1.8816   -1.4959 H   0  0  0  0  0  0  0  0  0  0  0  0
   -5.7193    0.3196   -0.1767 H   0  0  0  0  0  0  0  0  0  0  0  0
   -4.6604   -1.4007    1.2456 H   0  0  0  0  0  0  0  0  0  0  0  0
   -2.7162   -2.2844    1.9258 H   0  0  0  0  0  0  0  0  0  0  0  0
    1.5220   -0.3923    1.8379 H   0  0  0  0  0  0  0  0  0  0  0  0
    3.8394   -1.0149    2.3617 H   0  0  0  0  0  0  0  0  0  0  0  0
    5.6302   -0.7348    0.6673 H   0  0  0  0  0  0  0  0  0  0  0  0
    5.0860    0.1903   -1.5712 H   0  0  0  0  0  0  0  0  0  0  0  0
    1.8643    1.2771   -2.4181 H   0  0  0  0  0  0  0  0  0  0  0  0
  1  2  2  0
  2  3  1  0
  3  4  1  0
  4  5  2  0
  5  6  1  0
  6  7  2  0
  7  8  1  0
  8  9  2  0
  9 10  1  0
  2 11  1  0
 11 12  2  0
 12 13  1  0
 13 14  2  0
 14 15  1  0
 15 16  2  0
 16 17  1  0
  9  4  1  0
 16 11  1  0
  3 18  1  0
  5 19  1  0
  6 20  1  0
  7 21  1  0
  8 22  1  0
 10 23  1  0
 12 24  1  0
 13 25  1  0
 14 26  1  0
 15 27  1  0
 17 28  1  0
M  END
$$$$
