
     RDKit          3D

 72 74  0  0  0  0  0  0  0  0999 V2000
    7.0844    1.7107   -5.5220 C   0  0  0  0  0  0  0  0  0  0  0  0
    6.6964    1.7002   -4.0509 C   0  0  0  0  0  0  0  0  0  0  0  0
    5.4564    0.8383   -3.8088 C   0  0  0  0  0  0  0  0  0  0  0  0
    5.1038    0.6805   -2.3263 C   0  0  0  0  0  0  0  0  0  0  0  0
    4.6166    1.9779   -1.6764 C   0  0  0  0  0  0  0  0  0  0  0  0
    4.3086    1.8324   -0.1819 C   0  0  0  0  0  0  0  0  0  0  0  0
    3.2446    0.7948    0.1916 C   0  0  0  0  0  0  0  0  0  0  0  0
    1.8718    1.0823   -0.4208 C   0  0  0  0  0  0  0  0  0  0  0  0
    0.8161    0.0392   -0.0489 C   0  0  0  0  0  0  0  0  0  0  0  0
    0.4546    0.0345    1.4341 C   0  0  0  0  0  0  0  0  0  0  0  0
   -0.6351   -0.8732    1.6861 O   0  0  0  0  0  0  0  0  0  0  0  0
   -0.2942   -2.1835    1.8372 C   0  0  0  0  0  0  0  0  0  0  0  0
    0.8440   -2.6289    1.7575 O   0  0  0  0  0  0  0  0  0  0  0  0
   -1.5095   -3.0601    2.1096 C   0  0  0  0  0  0  0  0  0  0  0  0
   -2.6353   -2.3316    2.7467 N   0  0  0  0  0  0  0  0  0  0  0  0
   -3.7535   -1.9133    2.1094 C   0  0  0  0  0  0  0  0  0  0  0  0
   -4.0938   -2.1147    0.6420 C   0  0  0  0  0  0  0  0  0  0  0  0
   -2.9920   -1.8298   -0.2172 O   0  0  0  0  0  0  0  0  0  0  0  0
   -3.0595   -0.5922   -0.7954 C   0  0  0  0  0  0  0  0  0  0  0  0
   -3.2131    0.5855   -0.0637 C   0  0  0  0  0  0  0  0  0  0  0  0
   -3.2417    1.8114   -0.7283 C   0  0  0  0  0  0  0  0  0  0  0  0
   -3.0947    1.8609   -2.1156 C   0  0  0  0  0  0  0  0  0  0  0  0
   -2.8958    0.6864   -2.8500 C   0  0  0  0  0  0  0  0  0  0  0  0
   -2.7461    0.7389   -4.3428 C   0  0  0  0  0  0  0  0  0  0  0  0
   -2.8846   -0.5422   -2.1786 C   0  0  0  0  0  0  0  0  0  0  0  0
   -4.5303   -1.2977    3.0352 N   0  0  0  0  0  4  0  0  0  0  0  0
   -5.8575   -0.7445    2.7683 C   0  0  0  0  0  0  0  0  0  0  0  0
   -3.8694   -1.2551    4.2609 C   0  0  0  0  0  0  0  0  0  0  0  0
   -4.2264   -0.7008    5.4892 C   0  0  0  0  0  0  0  0  0  0  0  0
   -3.2968   -0.8469    6.5282 C   0  0  0  0  0  0  0  0  0  0  0  0
   -2.0739   -1.5170    6.3385 C   0  0  0  0  0  0  0  0  0  0  0  0
   -1.7243   -2.0723    5.1009 C   0  0  0  0  0  0  0  0  0  0  0  0
   -2.6555   -1.9207    4.0750 C   0  0  0  0  0  0  0  0  0  0  0  0
    7.9689    2.3372   -5.6769 H   0  0  0  0  0  0  0  0  0  0  0  0
    6.2723    2.1094   -6.1390 H   0  0  0  0  0  0  0  0  0  0  0  0
    7.3190    0.7000   -5.8724 H   0  0  0  0  0  0  0  0  0  0  0  0
    7.5377    1.3179   -3.4613 H   0  0  0  0  0  0  0  0  0  0  0  0
    6.5136    2.7315   -3.7308 H   0  0  0  0  0  0  0  0  0  0  0  0
    4.6000    1.2587   -4.3495 H   0  0  0  0  0  0  0  0  0  0  0  0
    5.6321   -0.1617   -4.2247 H   0  0  0  0  0  0  0  0  0  0  0  0
    5.9729    0.2938   -1.7806 H   0  0  0  0  0  0  0  0  0  0  0  0
    4.3178   -0.0799   -2.2536 H   0  0  0  0  0  0  0  0  0  0  0  0
    3.7343    2.3515   -2.2080 H   0  0  0  0  0  0  0  0  0  0  0  0
    5.3859    2.7519   -1.7772 H   0  0  0  0  0  0  0  0  0  0  0  0
    5.2371    1.5766    0.3439 H   0  0  0  0  0  0  0  0  0  0  0  0
    3.9978    2.8114    0.2038 H   0  0  0  0  0  0  0  0  0  0  0  0
    3.5789   -0.2084   -0.0953 H   0  0  0  0  0  0  0  0  0  0  0  0
    3.1641    0.7899    1.2845 H   0  0  0  0  0  0  0  0  0  0  0  0
    1.5297    2.0784   -0.1154 H   0  0  0  0  0  0  0  0  0  0  0  0
    1.9524    1.0955   -1.5135 H   0  0  0  0  0  0  0  0  0  0  0  0
    1.1512   -0.9575   -0.3590 H   0  0  0  0  0  0  0  0  0  0  0  0
   -0.0909    0.2355   -0.6316 H   0  0  0  0  0  0  0  0  0  0  0  0
    1.3076   -0.2180    2.0732 H   0  0  0  0  0  0  0  0  0  0  0  0
    0.1092    1.0286    1.7379 H   0  0  0  0  0  0  0  0  0  0  0  0
   -1.2114   -3.8593    2.7977 H   0  0  0  0  0  0  0  0  0  0  0  0
   -1.8375   -3.5270    1.1789 H   0  0  0  0  0  0  0  0  0  0  0  0
   -4.3315   -3.1798    0.5614 H   0  0  0  0  0  0  0  0  0  0  0  0
   -4.9914   -1.5375    0.4014 H   0  0  0  0  0  0  0  0  0  0  0  0
   -3.2739    0.5834    1.0184 H   0  0  0  0  0  0  0  0  0  0  0  0
   -3.3622    2.7362   -0.1687 H   0  0  0  0  0  0  0  0  0  0  0  0
   -3.1194    2.8252   -2.6207 H   0  0  0  0  0  0  0  0  0  0  0  0
   -2.1015   -0.0722   -4.6983 H   0  0  0  0  0  0  0  0  0  0  0  0
   -3.7267    0.6485   -4.8201 H   0  0  0  0  0  0  0  0  0  0  0  0
   -2.2848    1.6809   -4.6568 H   0  0  0  0  0  0  0  0  0  0  0  0
   -2.7363   -1.4640   -2.7380 H   0  0  0  0  0  0  0  0  0  0  0  0
   -6.3606   -0.4600    3.6943 H   0  0  0  0  0  0  0  0  0  0  0  0
   -6.4653   -1.5008    2.2644 H   0  0  0  0  0  0  0  0  0  0  0  0
   -5.7509    0.1369    2.1305 H   0  0  0  0  0  0  0  0  0  0  0  0
   -5.1652   -0.1825    5.6400 H   0  0  0  0  0  0  0  0  0  0  0  0
   -3.5244   -0.4301    7.5103 H   0  0  0  0  0  0  0  0  0  0  0  0
   -1.3816   -1.6042    7.1773 H   0  0  0  0  0  0  0  0  0  0  0  0
   -0.7811   -2.5854    4.9558 H   0  0  0  0  0  0  0  0  0  0  0  0
  1  2  1  0
  2  3  1  0
  3  4  1  0
  4  5  1  0
  5  6  1  0
  6  7  1  0
  7  8  1  0
  8  9  1  0
  9 10  1  0
 10 11  1  0
 11 12  1  0
 12 13  2  0
 12 14  1  0
 14 15  1  0
 15 16  1  0
 16 17  1  0
 17 18  1  0
 18 19  1  0
 19 20  2  0
 20 21  1  0
 21 22  2  0
 22 23  1  0
 23 24  1  0
 23 25  2  0
 16 26  2  0
 26 27  1  0
 26 28  1  0
 28 29  2  0
 29 30  1  0
 30 31  2  0
 31 32  1  0
 32 33  2  0
 33 15  1  0
 25 19  1  0
 33 28  1  0
  1 34  1  0
  1 35  1  0
  1 36  1  0
  2 37  1  0
  2 38  1  0
  3 39  1  0
  3 40  1  0
  4 41  1  0
  4 42  1  0
  5 43  1  0
  5 44  1  0
  6 45  1  0
  6 46  1  0
  7 47  1  0
  7 48  1  0
  8 49  1  0
  8 50  1  0
  9 51  1  0
  9 52  1  0
 10 53  1  0
 10 54  1  0
 14 55  1  0
 14 56  1  0
 17 57  1  0
 17 58  1  0
 20 59  1  0
 21 60  1  0
 22 61  1  0
 24 62  1  0
 24 63  1  0
 24 64  1  0
 25 65  1  0
 27 66  1  0
 27 67  1  0
 27 68  1  0
 29 69  1  0
 30 70  1  0
 31 71  1  0
 32 72  1  0
M  CHG  1  26   1
M  END
$$$$
