
     RDKit          3D

 39 40  0  0  0  0  0  0  0  0999 V2000
    7.6097   -0.3030    0.7892 C   0  0  0  0  0  0  0  0  0  0  0  0
    6.7642   -0.5624   -0.3239 O   0  0  0  0  0  0  0  0  0  0  0  0
    5.4166   -0.5578   -0.0906 C   0  0  0  0  0  0  0  0  0  0  0  0
    4.7954   -0.3103    1.1333 C   0  0  0  0  0  0  0  0  0  0  0  0
    3.3994   -0.3358    1.2331 C   0  0  0  0  0  0  0  0  0  0  0  0
    2.6087   -0.6129    0.1116 C   0  0  0  0  0  0  0  0  0  0  0  0
    1.1062   -0.6206    0.2123 C   0  0  0  0  0  0  0  0  0  0  0  0
    0.4999    0.7277   -0.1730 C   0  0  0  0  0  0  0  0  0  0  0  0
   -0.9284    0.7047   -0.0007 O   0  0  0  0  0  0  0  0  0  0  0  0
   -1.6327    0.1840   -1.0347 C   0  0  0  0  0  0  0  0  0  0  0  0
   -1.1653   -0.2780   -2.0625 O   0  0  0  0  0  0  0  0  0  0  0  0
   -3.0925    0.2322   -0.7478 C   0  0  0  0  0  0  0  0  0  0  0  0
   -3.9713   -0.2910   -1.7032 C   0  0  0  0  0  0  0  0  0  0  0  0
   -5.3544   -0.2718   -1.4859 C   0  0  0  0  0  0  0  0  0  0  0  0
   -5.8988    0.2306   -0.2960 C   0  0  0  0  0  0  0  0  0  0  0  0
   -7.2961    0.3451   -0.2109 N   0  0  0  0  0  0  0  0  0  0  0  0
   -5.0043    0.8006    0.6320 C   0  0  0  0  0  0  0  0  0  0  0  0
   -5.4988    1.4074    1.8689 N   0  0  0  0  0  4  0  0  0  0  0  0
   -4.8391    2.3394    2.3513 O   0  0  0  0  0  0  0  0  0  0  0  0
   -6.5311    0.9379    2.3731 O   0  0  0  0  0  1  0  0  0  0  0  0
   -3.6123    0.7893    0.4244 C   0  0  0  0  0  0  0  0  0  0  0  0
    3.2359   -0.8556   -1.1152 C   0  0  0  0  0  0  0  0  0  0  0  0
    4.6289   -0.8289   -1.2113 C   0  0  0  0  0  0  0  0  0  0  0  0
    7.4870   -1.0662    1.5649 H   0  0  0  0  0  0  0  0  0  0  0  0
    7.4372    0.7010    1.1907 H   0  0  0  0  0  0  0  0  0  0  0  0
    8.6457   -0.3478    0.4396 H   0  0  0  0  0  0  0  0  0  0  0  0
    5.3656   -0.0932    2.0301 H   0  0  0  0  0  0  0  0  0  0  0  0
    2.9355   -0.1377    2.1970 H   0  0  0  0  0  0  0  0  0  0  0  0
    0.6994   -1.4205   -0.4189 H   0  0  0  0  0  0  0  0  0  0  0  0
    0.7964   -0.8868    1.2312 H   0  0  0  0  0  0  0  0  0  0  0  0
    0.8826    1.5167    0.4845 H   0  0  0  0  0  0  0  0  0  0  0  0
    0.7618    1.0217   -1.1973 H   0  0  0  0  0  0  0  0  0  0  0  0
   -3.5860   -0.7057   -2.6344 H   0  0  0  0  0  0  0  0  0  0  0  0
   -6.0089   -0.6540   -2.2676 H   0  0  0  0  0  0  0  0  0  0  0  0
   -7.8145   -0.3529   -0.7372 H   0  0  0  0  0  0  0  0  0  0  0  0
   -7.6460    0.4239    0.7486 H   0  0  0  0  0  0  0  0  0  0  0  0
   -2.9468    1.2193    1.1705 H   0  0  0  0  0  0  0  0  0  0  0  0
    2.6459   -1.0675   -2.0048 H   0  0  0  0  0  0  0  0  0  0  0  0
    5.1052   -1.0211   -2.1696 H   0  0  0  0  0  0  0  0  0  0  0  0
  1  2  1  0
  2  3  1  0
  3  4  2  0
  4  5  1  0
  5  6  2  0
  6  7  1  0
  7  8  1  0
  8  9  1  0
  9 10  1  0
 10 11  2  0
 10 12  1  0
 12 13  2  0
 13 14  1  0
 14 15  2  0
 15 16  1  0
 15 17  1  0
 17 18  1  0
 18 19  2  0
 18 20  1  0
 17 21  2  0
  6 22  1  0
 22 23  2  0
 23  3  1  0
 21 12  1  0
  1 24  1  0
  1 25  1  0
  1 26  1  0
  4 27  1  0
  5 28  1  0
  7 29  1  0
  7 30  1  0
  8 31  1  0
  8 32  1  0
 13 33  1  0
 14 34  1  0
 16 35  1  0
 16 36  1  0
 21 37  1  0
 22 38  1  0
 23 39  1  0
M  CHG  2  18   1  20  -1
M  END
$$$$
