
     RDKit          3D

 49 53  0  0  0  0  0  0  0  0999 V2000
    6.2063   -0.9328    2.9025 C   0  0  0  0  0  0  0  0  0  0  0  0
    5.9479   -0.5671    1.5293 N   0  0  0  0  0  0  0  0  0  0  0  0
    6.8752   -0.4150    0.5443 C   0  0  0  0  0  0  0  0  0  0  0  0
    6.1588   -0.0819   -0.5868 C   0  0  0  0  0  0  0  0  0  0  0  0
    6.7072    0.1277   -1.8842 N   0  0  0  0  0  4  0  0  0  0  0  0
    6.2339   -0.5483   -2.8041 O   0  0  0  0  0  0  0  0  0  0  0  0
    7.6577    0.9156   -1.9599 O   0  0  0  0  0  1  0  0  0  0  0  0
    4.8063   -0.0118   -0.1850 C   0  0  0  0  0  0  0  0  0  0  0  0
    3.6412    0.3769   -0.9941 C   0  0  0  0  0  0  0  0  0  0  0  0
    3.7664    0.8611   -2.1126 O   0  0  0  0  0  0  0  0  0  0  0  0
    2.4579    0.1544   -0.3350 N   0  0  0  0  0  0  0  0  0  0  0  0
    1.2019    0.3818   -0.8283 C   0  0  0  0  0  0  0  0  0  0  0  0
    0.8076    0.8802   -2.0852 C   0  0  0  0  0  0  0  0  0  0  0  0
   -0.5671    0.8908   -2.0549 C   0  0  0  0  0  0  0  0  0  0  0  0
   -0.9263    0.4228   -0.8231 N   0  0  0  0  0  0  0  0  0  0  0  0
   -2.2775    0.2205   -0.2770 C   0  0  0  0  0  0  0  0  0  0  0  0
   -2.4508    1.0357    1.0354 C   0  0  0  0  0  0  0  0  0  0  0  0
   -3.8428    0.8024    1.6476 C   0  0  0  0  0  0  0  0  0  0  0  0
   -4.0183   -0.6952    1.9497 C   0  0  0  0  0  0  0  0  0  0  0  0
   -3.8932   -1.5141    0.6545 C   0  0  0  0  0  0  0  0  0  0  0  0
   -4.9698   -1.0559   -0.3412 C   0  0  0  0  0  0  0  0  0  0  0  0
   -4.7941    0.4380   -0.6520 C   0  0  0  0  0  0  0  0  0  0  0  0
   -4.9195    1.2481    0.6471 C   0  0  0  0  0  0  0  0  0  0  0  0
   -3.3997    0.6673   -1.2597 C   0  0  0  0  0  0  0  0  0  0  0  0
   -2.5012   -1.2841    0.0409 C   0  0  0  0  0  0  0  0  0  0  0  0
    0.1457    0.1054   -0.0615 N   0  0  0  0  0  0  0  0  0  0  0  0
    4.6840   -0.3326    1.1254 N   0  0  0  0  0  0  0  0  0  0  0  0
    5.3275   -1.4436    3.3097 H   0  0  0  0  0  0  0  0  0  0  0  0
    7.0691   -1.6045    2.9325 H   0  0  0  0  0  0  0  0  0  0  0  0
    6.4115   -0.0176    3.4636 H   0  0  0  0  0  0  0  0  0  0  0  0
    7.9333   -0.5653    0.7117 H   0  0  0  0  0  0  0  0  0  0  0  0
    2.4999   -0.2159    0.6072 H   0  0  0  0  0  0  0  0  0  0  0  0
    1.4337    1.1870   -2.9116 H   0  0  0  0  0  0  0  0  0  0  0  0
   -1.2850    1.1894   -2.8040 H   0  0  0  0  0  0  0  0  0  0  0  0
   -2.3060    2.1058    0.8366 H   0  0  0  0  0  0  0  0  0  0  0  0
   -1.6868    0.7538    1.7719 H   0  0  0  0  0  0  0  0  0  0  0  0
   -3.9392    1.3794    2.5741 H   0  0  0  0  0  0  0  0  0  0  0  0
   -4.9983   -0.8708    2.4100 H   0  0  0  0  0  0  0  0  0  0  0  0
   -3.2630   -1.0226    2.6746 H   0  0  0  0  0  0  0  0  0  0  0  0
   -4.0262   -2.5789    0.8768 H   0  0  0  0  0  0  0  0  0  0  0  0
   -4.9009   -1.6429   -1.2653 H   0  0  0  0  0  0  0  0  0  0  0  0
   -5.9679   -1.2367    0.0763 H   0  0  0  0  0  0  0  0  0  0  0  0
   -5.5634    0.7598   -1.3632 H   0  0  0  0  0  0  0  0  0  0  0  0
   -4.8141    2.3191    0.4340 H   0  0  0  0  0  0  0  0  0  0  0  0
   -5.9175    1.1065    1.0812 H   0  0  0  0  0  0  0  0  0  0  0  0
   -3.3261    0.1106   -2.2033 H   0  0  0  0  0  0  0  0  0  0  0  0
   -3.2860    1.7305   -1.5104 H   0  0  0  0  0  0  0  0  0  0  0  0
   -1.7377   -1.6505    0.7394 H   0  0  0  0  0  0  0  0  0  0  0  0
   -2.3945   -1.8826   -0.8732 H   0  0  0  0  0  0  0  0  0  0  0  0
  1  2  1  0
  2  3  1  0
  3  4  2  0
  4  5  1  0
  5  6  2  0
  5  7  1  0
  4  8  1  0
  8  9  1  0
  9 10  2  0
  9 11  1  0
 11 12  1  0
 12 13  1  0
 13 14  2  0
 14 15  1  0
 15 16  1  0
 16 17  1  0
 17 18  1  0
 18 19  1  0
 19 20  1  0
 20 21  1  0
 21 22  1  0
 22 23  1  0
 22 24  1  0
 20 25  1  0
 15 26  1  0
  8 27  2  0
 27  2  1  0
 26 12  2  0
 24 16  1  0
 25 16  1  0
 23 18  1  0
  1 28  1  0
  1 29  1  0
  1 30  1  0
  3 31  1  0
 11 32  1  0
 13 33  1  0
 14 34  1  0
 17 35  1  0
 17 36  1  0
 18 37  1  0
 19 38  1  0
 19 39  1  0
 20 40  1  0
 21 41  1  0
 21 42  1  0
 22 43  1  0
 23 44  1  0
 23 45  1  0
 24 46  1  0
 24 47  1  0
 25 48  1  0
 25 49  1  0
M  CHG  2   5   1   7  -1
M  END
$$$$
