
     RDKit          3D

 39 41  0  0  0  0  0  0  0  0999 V2000
   -1.8950   -0.8581   -2.5313 C   0  0  0  0  0  0  0  0  0  0  0  0
   -2.6697   -0.4162   -1.3165 C   0  0  0  0  0  0  0  0  0  0  0  0
   -4.0717   -0.4843   -1.3732 C   0  0  0  0  0  0  0  0  0  0  0  0
   -4.8462   -0.0698   -0.2973 C   0  0  0  0  0  0  0  0  0  0  0  0
   -4.2271    0.3866    0.8607 C   0  0  0  0  0  0  0  0  0  0  0  0
   -2.8241    0.4422    0.9651 C   0  0  0  0  0  0  0  0  0  0  0  0
   -2.2686    0.8400    2.3068 C   0  0  0  0  0  0  0  0  0  0  0  0
   -2.0365    0.0895   -0.1526 C   0  0  0  0  0  0  0  0  0  0  0  0
   -0.6192    0.1504   -0.1547 N   0  0  0  0  0  0  0  0  0  0  0  0
    0.1481    1.1728    0.3662 C   0  0  0  0  0  0  0  0  0  0  0  0
   -0.2895    2.2252    0.8264 O   0  0  0  0  0  0  0  0  0  0  0  0
    1.6598    0.9432    0.3220 C   0  0  0  0  0  0  0  0  0  0  0  0
    2.2691    0.7084   -1.0718 C   0  0  0  0  0  0  0  0  0  0  0  0
    3.1480   -0.5397   -0.8548 C   0  0  0  0  0  0  0  0  0  0  0  0
    4.3109   -0.1883    0.0940 C   0  0  0  0  0  0  0  0  0  0  0  0
    3.6220   -0.0806    1.4662 C   0  0  0  0  0  0  0  0  0  0  0  0
    2.1365   -0.2988    1.1162 C   0  0  0  0  0  0  0  0  0  0  0  0
    2.2637   -1.3917    0.0500 C   0  0  0  0  0  0  0  0  0  0  0  0
   -1.2683   -1.7221   -2.2876 H   0  0  0  0  0  0  0  0  0  0  0  0
   -2.5593   -1.1560   -3.3497 H   0  0  0  0  0  0  0  0  0  0  0  0
   -1.2690   -0.0404   -2.9029 H   0  0  0  0  0  0  0  0  0  0  0  0
   -4.5715   -0.8519   -2.2669 H   0  0  0  0  0  0  0  0  0  0  0  0
   -5.9304   -0.1145   -0.3540 H   0  0  0  0  0  0  0  0  0  0  0  0
   -4.8474    0.6829    1.7048 H   0  0  0  0  0  0  0  0  0  0  0  0
   -1.2941    0.3816    2.4976 H   0  0  0  0  0  0  0  0  0  0  0  0
   -2.9240    0.4866    3.1117 H   0  0  0  0  0  0  0  0  0  0  0  0
   -2.1978    1.9283    2.3867 H   0  0  0  0  0  0  0  0  0  0  0  0
   -0.1680   -0.3807   -0.8823 H   0  0  0  0  0  0  0  0  0  0  0  0
    2.1030    1.8501    0.7568 H   0  0  0  0  0  0  0  0  0  0  0  0
    2.8644    1.5682   -1.3979 H   0  0  0  0  0  0  0  0  0  0  0  0
    1.5098    0.5236   -1.8384 H   0  0  0  0  0  0  0  0  0  0  0  0
    3.4694   -1.0136   -1.7842 H   0  0  0  0  0  0  0  0  0  0  0  0
    5.0579   -0.9898    0.1114 H   0  0  0  0  0  0  0  0  0  0  0  0
    4.8133    0.7423   -0.1882 H   0  0  0  0  0  0  0  0  0  0  0  0
    3.9842   -0.8714    2.1333 H   0  0  0  0  0  0  0  0  0  0  0  0
    3.8116    0.8830    1.9493 H   0  0  0  0  0  0  0  0  0  0  0  0
    1.5158   -0.5587    1.9764 H   0  0  0  0  0  0  0  0  0  0  0  0
    2.7683   -2.2922    0.4179 H   0  0  0  0  0  0  0  0  0  0  0  0
    1.3216   -1.6864   -0.4151 H   0  0  0  0  0  0  0  0  0  0  0  0
  1  2  1  0
  2  3  2  0
  3  4  1  0
  4  5  2  0
  5  6  1  0
  6  7  1  0
  6  8  2  0
  8  9  1  0
  9 10  1  0
 10 11  2  0
 10 12  1  0
 12 13  1  0
 13 14  1  0
 14 15  1  0
 15 16  1  0
 16 17  1  0
 17 18  1  0
  8  2  1  0
 17 12  1  0
 18 14  1  0
  1 19  1  0
  1 20  1  0
  1 21  1  0
  3 22  1  0
  4 23  1  0
  5 24  1  0
  7 25  1  0
  7 26  1  0
  7 27  1  0
  9 28  1  0
 12 29  1  0
 13 30  1  0
 13 31  1  0
 14 32  1  0
 15 33  1  0
 15 34  1  0
 16 35  1  0
 16 36  1  0
 17 37  1  0
 18 38  1  0
 18 39  1  0
M  END
$$$$
