
     RDKit          3D

 51 53  0  0  0  0  0  0  0  0999 V2000
   -8.3447   -0.5598   -1.9486 C   0  0  0  0  0  0  0  0  0  0  0  0
   -6.9415   -0.3940   -1.4329 C   0  0  0  0  0  0  0  0  0  0  0  0
   -5.9834    0.2324   -2.2411 C   0  0  0  0  0  0  0  0  0  0  0  0
   -4.6745    0.4042   -1.7894 C   0  0  0  0  0  0  0  0  0  0  0  0
   -4.2951   -0.0432   -0.5250 C   0  0  0  0  0  0  0  0  0  0  0  0
   -2.9835    0.1845   -0.2114 O   0  0  0  0  0  0  0  0  0  0  0  0
   -2.5368   -0.2559    1.0699 C   0  0  0  0  0  0  0  0  0  0  0  0
   -1.1016    0.0942    1.1795 C   0  0  0  0  0  0  0  0  0  0  0  0
   -0.2511    0.9400    0.5122 C   0  0  0  0  0  0  0  0  0  0  0  0
    1.0113    0.7797    1.1501 C   0  0  0  0  0  0  0  0  0  0  0  0
    2.2428    1.5081    0.7937 C   0  0  0  0  0  0  0  0  0  0  0  0
    2.1642    2.4904    0.0501 O   0  0  0  0  0  0  0  0  0  0  0  0
    3.4903    1.0960    1.2878 N   0  0  0  0  0  0  0  0  0  0  0  0
    3.7270   -0.1536    1.9987 C   0  0  0  0  0  0  0  0  0  0  0  0
    4.6573    1.9316    0.9953 C   0  0  0  0  0  0  0  0  0  0  0  0
    5.2410    1.7159   -0.4095 C   0  0  0  0  0  0  0  0  0  0  0  0
    5.9094    0.3737   -0.5895 C   0  0  0  0  0  0  0  0  0  0  0  0
    5.2376   -0.6723   -1.2366 C   0  0  0  0  0  0  0  0  0  0  0  0
    5.8461   -1.9195   -1.3838 C   0  0  0  0  0  0  0  0  0  0  0  0
    7.1305   -2.1328   -0.8866 C   0  0  0  0  0  0  0  0  0  0  0  0
    7.8080   -1.0991   -0.2425 C   0  0  0  0  0  0  0  0  0  0  0  0
    7.2011    0.1489   -0.0936 C   0  0  0  0  0  0  0  0  0  0  0  0
    0.9003   -0.0957    2.1643 N   0  0  0  0  0  0  0  0  0  0  0  0
   -0.4097   -0.5276    2.1701 O   0  0  0  0  0  0  0  0  0  0  0  0
   -5.2431   -0.6634    0.2901 C   0  0  0  0  0  0  0  0  0  0  0  0
   -6.5699   -0.8389   -0.1486 C   0  0  0  0  0  0  0  0  0  0  0  0
   -7.5612   -1.5152    0.7608 C   0  0  0  0  0  0  0  0  0  0  0  0
   -9.0397    0.0418   -1.3546 H   0  0  0  0  0  0  0  0  0  0  0  0
   -8.6455   -1.6115   -1.9095 H   0  0  0  0  0  0  0  0  0  0  0  0
   -8.4303   -0.2356   -2.9912 H   0  0  0  0  0  0  0  0  0  0  0  0
   -6.2478    0.5930   -3.2326 H   0  0  0  0  0  0  0  0  0  0  0  0
   -3.9453    0.8921   -2.4314 H   0  0  0  0  0  0  0  0  0  0  0  0
   -2.6540   -1.3424    1.1598 H   0  0  0  0  0  0  0  0  0  0  0  0
   -3.0907    0.2556    1.8657 H   0  0  0  0  0  0  0  0  0  0  0  0
   -0.4903    1.5857   -0.3207 H   0  0  0  0  0  0  0  0  0  0  0  0
    3.1851   -0.9721    1.5183 H   0  0  0  0  0  0  0  0  0  0  0  0
    3.4039   -0.0342    3.0363 H   0  0  0  0  0  0  0  0  0  0  0  0
    4.7909   -0.4052    1.9957 H   0  0  0  0  0  0  0  0  0  0  0  0
    4.3468    2.9808    1.0768 H   0  0  0  0  0  0  0  0  0  0  0  0
    5.4128    1.7723    1.7739 H   0  0  0  0  0  0  0  0  0  0  0  0
    4.4639    1.8442   -1.1730 H   0  0  0  0  0  0  0  0  0  0  0  0
    5.9848    2.4984   -0.6089 H   0  0  0  0  0  0  0  0  0  0  0  0
    4.2328   -0.5212   -1.6258 H   0  0  0  0  0  0  0  0  0  0  0  0
    5.3173   -2.7247   -1.8871 H   0  0  0  0  0  0  0  0  0  0  0  0
    7.6040   -3.1041   -1.0031 H   0  0  0  0  0  0  0  0  0  0  0  0
    8.8107   -1.2649    0.1430 H   0  0  0  0  0  0  0  0  0  0  0  0
    7.7430    0.9453    0.4112 H   0  0  0  0  0  0  0  0  0  0  0  0
   -4.9802   -1.0217    1.2804 H   0  0  0  0  0  0  0  0  0  0  0  0
   -8.4421   -0.8819    0.9065 H   0  0  0  0  0  0  0  0  0  0  0  0
   -7.8673   -2.4766    0.3366 H   0  0  0  0  0  0  0  0  0  0  0  0
   -7.1334   -1.7080    1.7502 H   0  0  0  0  0  0  0  0  0  0  0  0
  1  2  1  0
  2  3  2  0
  3  4  1  0
  4  5  2  0
  5  6  1  0
  6  7  1  0
  7  8  1  0
  8  9  2  0
  9 10  1  0
 10 11  1  0
 11 12  2  0
 11 13  1  0
 13 14  1  0
 13 15  1  0
 15 16  1  0
 16 17  1  0
 17 18  2  0
 18 19  1  0
 19 20  2  0
 20 21  1  0
 21 22  2  0
 10 23  2  0
 23 24  1  0
  5 25  1  0
 25 26  2  0
 26 27  1  0
 26  2  1  0
 24  8  1  0
 22 17  1  0
  1 28  1  0
  1 29  1  0
  1 30  1  0
  3 31  1  0
  4 32  1  0
  7 33  1  0
  7 34  1  0
  9 35  1  0
 14 36  1  0
 14 37  1  0
 14 38  1  0
 15 39  1  0
 15 40  1  0
 16 41  1  0
 16 42  1  0
 18 43  1  0
 19 44  1  0
 20 45  1  0
 21 46  1  0
 22 47  1  0
 25 48  1  0
 27 49  1  0
 27 50  1  0
 27 51  1  0
M  END
$$$$
