
     RDKit          3D

 44 46  0  0  0  0  0  0  0  0999 V2000
   -1.7143    1.3616    2.5436 N   0  0  0  0  0  0  0  0  0  0  0  0
   -1.1447    0.8667    1.6615 C   0  0  0  0  0  0  0  0  0  0  0  0
   -0.5084    0.2333    0.5641 C   0  0  0  0  0  0  0  0  0  0  0  0
    0.7254    0.5389    0.1199 C   0  0  0  0  0  0  0  0  0  0  0  0
    1.5985    1.5380    0.6411 C   0  0  0  0  0  0  0  0  0  0  0  0
    1.3868    2.6857    1.3963 C   0  0  0  0  0  0  0  0  0  0  0  0
    2.6412    3.3094    1.6140 C   0  0  0  0  0  0  0  0  0  0  0  0
    3.5798    2.5331    0.9745 C   0  0  0  0  0  0  0  0  0  0  0  0
    5.0294    2.6063    0.8035 C   0  0  0  0  0  0  0  0  0  0  0  0
    5.7652    3.6524    1.3826 C   0  0  0  0  0  0  0  0  0  0  0  0
    7.1535    3.7304    1.2239 C   0  0  0  0  0  0  0  0  0  0  0  0
    7.8203    2.7594    0.4822 C   0  0  0  0  0  0  0  0  0  0  0  0
    9.6948    2.8633    0.2671 Br  0  0  0  0  0  0  0  0  0  0  0  0
    7.1129    1.7128   -0.1014 C   0  0  0  0  0  0  0  0  0  0  0  0
    5.7252    1.6390    0.0600 C   0  0  0  0  0  0  0  0  0  0  0  0
    2.9523    1.4771    0.3846 O   0  0  0  0  0  0  0  0  0  0  0  0
   -1.2207   -0.8750   -0.1593 C   0  0  0  0  0  0  0  0  0  0  0  0
   -0.7160   -1.4368   -1.1283 O   0  0  0  0  0  0  0  0  0  0  0  0
   -2.4683   -1.2173    0.3202 N   0  0  0  0  0  0  0  0  0  0  0  0
   -3.3011   -2.2073   -0.3548 C   0  0  0  0  0  0  0  0  0  0  0  0
   -4.0534   -1.5694   -1.5304 C   0  0  0  0  0  0  0  0  0  0  0  0
   -4.9873   -2.5674   -2.2104 C   0  0  0  0  0  0  0  0  0  0  0  0
   -5.9506   -3.2069   -1.2150 C   0  0  0  0  0  0  0  0  0  0  0  0
   -5.2081   -3.8430   -0.0438 C   0  0  0  0  0  0  0  0  0  0  0  0
   -4.2778   -2.8449    0.6401 C   0  0  0  0  0  0  0  0  0  0  0  0
    1.1497   -0.0345   -0.7038 H   0  0  0  0  0  0  0  0  0  0  0  0
    0.4378    3.0606    1.7541 H   0  0  0  0  0  0  0  0  0  0  0  0
    2.8249    4.2199    2.1662 H   0  0  0  0  0  0  0  0  0  0  0  0
    5.2686    4.4231    1.9670 H   0  0  0  0  0  0  0  0  0  0  0  0
    7.6999    4.5503    1.6826 H   0  0  0  0  0  0  0  0  0  0  0  0
    7.6249    0.9502   -0.6821 H   0  0  0  0  0  0  0  0  0  0  0  0
    5.1903    0.8126   -0.4045 H   0  0  0  0  0  0  0  0  0  0  0  0
   -2.9113   -0.6755    1.0531 H   0  0  0  0  0  0  0  0  0  0  0  0
   -2.6404   -2.9914   -0.7473 H   0  0  0  0  0  0  0  0  0  0  0  0
   -3.3430   -1.1768   -2.2678 H   0  0  0  0  0  0  0  0  0  0  0  0
   -4.6363   -0.7093   -1.1751 H   0  0  0  0  0  0  0  0  0  0  0  0
   -4.3919   -3.3501   -2.6964 H   0  0  0  0  0  0  0  0  0  0  0  0
   -5.5550   -2.0619   -2.9996 H   0  0  0  0  0  0  0  0  0  0  0  0
   -6.5565   -3.9654   -1.7233 H   0  0  0  0  0  0  0  0  0  0  0  0
   -6.6432   -2.4449   -0.8370 H   0  0  0  0  0  0  0  0  0  0  0  0
   -5.9302   -4.2316    0.6831 H   0  0  0  0  0  0  0  0  0  0  0  0
   -4.6239   -4.6992   -0.4031 H   0  0  0  0  0  0  0  0  0  0  0  0
   -3.7206   -3.3503    1.4383 H   0  0  0  0  0  0  0  0  0  0  0  0
   -4.8781   -2.0653    1.1274 H   0  0  0  0  0  0  0  0  0  0  0  0
  1  2  3  0
  2  3  1  0
  3  4  2  3
  4  5  1  0
  5  6  2  0
  6  7  1  0
  7  8  2  0
  8  9  1  0
  9 10  2  0
 10 11  1  0
 11 12  2  0
 12 13  1  0
 12 14  1  0
 14 15  2  0
  8 16  1  0
  3 17  1  0
 17 18  2  0
 17 19  1  0
 19 20  1  0
 20 21  1  0
 21 22  1  0
 22 23  1  0
 23 24  1  0
 24 25  1  0
 16  5  1  0
 25 20  1  0
 15  9  1  0
  4 26  1  0
  6 27  1  0
  7 28  1  0
 10 29  1  0
 11 30  1  0
 14 31  1  0
 15 32  1  0
 19 33  1  0
 20 34  1  0
 21 35  1  0
 21 36  1  0
 22 37  1  0
 22 38  1  0
 23 39  1  0
 23 40  1  0
 24 41  1  0
 24 42  1  0
 25 43  1  0
 25 44  1  0
M  END
$$$$
