
     RDKit          3D

 39 41  0  0  0  0  0  0  0  0999 V2000
    6.2194    2.3828    0.4316 C   0  0  0  0  0  0  0  0  0  0  0  0
    5.0739    1.6074   -0.1603 C   0  0  0  0  0  0  0  0  0  0  0  0
    4.9116    0.2556    0.1798 C   0  0  0  0  0  0  0  0  0  0  0  0
    3.8640   -0.4940   -0.3572 C   0  0  0  0  0  0  0  0  0  0  0  0
    2.9557    0.0949   -1.2343 C   0  0  0  0  0  0  0  0  0  0  0  0
    1.8943   -0.6523   -1.7596 N   0  0  0  0  0  0  0  0  0  0  0  0
    0.7700   -0.6602   -1.1303 C   0  0  0  0  0  0  0  0  0  0  0  0
    0.4620   -0.0139    0.0242 N   0  0  0  0  0  0  0  0  0  0  0  0
   -0.8018   -0.1640    0.5165 C   0  0  0  0  0  0  0  0  0  0  0  0
   -1.2096    0.3596    1.5408 O   0  0  0  0  0  0  0  0  0  0  0  0
   -1.5913   -1.0540   -0.3812 C   0  0  0  0  0  0  0  0  0  0  0  0
   -2.8700   -1.3663   -0.1261 C   0  0  0  0  0  0  0  0  0  0  0  0
   -3.7239   -2.2201   -0.9318 C   0  0  0  0  0  0  0  0  0  0  0  0
   -5.0058   -2.5699   -0.7350 C   0  0  0  0  0  0  0  0  0  0  0  0
   -5.8493   -2.1709    0.3410 C   0  0  0  0  0  0  0  0  0  0  0  0
   -7.1766   -2.5356    0.5557 C   0  0  0  0  0  0  0  0  0  0  0  0
   -7.6227   -1.9088    1.7431 C   0  0  0  0  0  0  0  0  0  0  0  0
   -6.5531   -1.1883    2.2047 C   0  0  0  0  0  0  0  0  0  0  0  0
   -5.4927   -1.3375    1.3771 O   0  0  0  0  0  0  0  0  0  0  0  0
   -0.6082   -1.5605   -1.7078 S   0  0  0  0  0  0  0  0  0  0  0  0
    3.1246    1.4334   -1.5968 C   0  0  0  0  0  0  0  0  0  0  0  0
    4.1736    2.2029   -1.0664 C   0  0  0  0  0  0  0  0  0  0  0  0
    4.3145    3.6412   -1.4834 C   0  0  0  0  0  0  0  0  0  0  0  0
    6.7846    1.7794    1.1499 H   0  0  0  0  0  0  0  0  0  0  0  0
    5.8488    3.2636    0.9654 H   0  0  0  0  0  0  0  0  0  0  0  0
    6.9117    2.6966   -0.3560 H   0  0  0  0  0  0  0  0  0  0  0  0
    5.6073   -0.2280    0.8626 H   0  0  0  0  0  0  0  0  0  0  0  0
    3.7589   -1.5429   -0.0935 H   0  0  0  0  0  0  0  0  0  0  0  0
    1.1282    0.5608    0.5146 H   0  0  0  0  0  0  0  0  0  0  0  0
   -3.3100   -0.9387    0.7720 H   0  0  0  0  0  0  0  0  0  0  0  0
   -3.2588   -2.6387   -1.8248 H   0  0  0  0  0  0  0  0  0  0  0  0
   -5.4571   -3.2298   -1.4734 H   0  0  0  0  0  0  0  0  0  0  0  0
   -7.7554   -3.1876   -0.0844 H   0  0  0  0  0  0  0  0  0  0  0  0
   -8.5987   -1.9749    2.2020 H   0  0  0  0  0  0  0  0  0  0  0  0
   -6.3905   -0.5499    3.0618 H   0  0  0  0  0  0  0  0  0  0  0  0
    2.4281    1.8741   -2.3068 H   0  0  0  0  0  0  0  0  0  0  0  0
    5.2863    3.8061   -1.9594 H   0  0  0  0  0  0  0  0  0  0  0  0
    4.2158    4.2999   -0.6148 H   0  0  0  0  0  0  0  0  0  0  0  0
    3.5420    3.9285   -2.2047 H   0  0  0  0  0  0  0  0  0  0  0  0
  1  2  1  0
  2  3  2  0
  3  4  1  0
  4  5  2  0
  5  6  1  0
  6  7  2  3
  7  8  1  0
  8  9  1  0
  9 10  2  0
  9 11  1  0
 11 12  2  3
 12 13  1  0
 13 14  2  3
 14 15  1  0
 15 16  2  0
 16 17  1  0
 17 18  2  0
 18 19  1  0
 11 20  1  0
  5 21  1  0
 21 22  2  0
 22 23  1  0
 22  2  1  0
 20  7  1  0
 19 15  1  0
  1 24  1  0
  1 25  1  0
  1 26  1  0
  3 27  1  0
  4 28  1  0
  8 29  1  0
 12 30  1  0
 13 31  1  0
 14 32  1  0
 16 33  1  0
 17 34  1  0
 18 35  1  0
 21 36  1  0
 23 37  1  0
 23 38  1  0
 23 39  1  0
M  END
$$$$
