
     RDKit          3D

 61 64  0  0  0  0  0  0  0  0999 V2000
   -8.9559    2.7137   -1.9460 C   0  0  0  0  0  0  0  0  0  0  0  0
   -7.8346    2.2307   -1.2053 O   0  0  0  0  0  0  0  0  0  0  0  0
   -7.7779    0.8785   -1.1093 C   0  0  0  0  0  0  0  0  0  0  0  0
   -8.5812    0.0953   -1.5909 O   0  0  0  0  0  0  0  0  0  0  0  0
   -6.5840    0.4564   -0.3267 C   0  0  0  0  0  0  0  0  0  0  0  0
   -5.6947    1.3756    0.2430 C   0  0  0  0  0  0  0  0  0  0  0  0
   -4.5887    0.9260    0.9711 C   0  0  0  0  0  0  0  0  0  0  0  0
   -4.3479   -0.4460    1.1377 C   0  0  0  0  0  0  0  0  0  0  0  0
   -3.1483   -0.9274    1.9293 C   0  0  0  0  0  0  0  0  0  0  0  0
   -1.9358   -1.2401    1.1659 N   0  0  0  0  0  0  0  0  0  0  0  0
   -1.2784   -0.0732    0.5717 C   0  0  0  0  0  0  0  0  0  0  0  0
   -0.2044   -0.4501   -0.4545 C   0  0  0  0  0  0  0  0  0  0  0  0
    0.4152   -1.8039   -0.1192 C   0  0  0  0  0  0  0  0  0  0  0  0
    1.3994   -2.1634   -1.0971 O   0  0  0  0  0  0  0  0  0  0  0  0
    2.7067   -1.8436   -0.8607 C   0  0  0  0  0  0  0  0  0  0  0  0
    3.6242   -2.5071   -1.6828 C   0  0  0  0  0  0  0  0  0  0  0  0
    4.9972   -2.2901   -1.5488 C   0  0  0  0  0  0  0  0  0  0  0  0
    5.4640   -1.3843   -0.5997 C   0  0  0  0  0  0  0  0  0  0  0  0
    4.5494   -0.6873    0.1953 C   0  0  0  0  0  0  0  0  0  0  0  0
    5.0093    0.2828    1.2154 C   0  0  0  0  0  0  0  0  0  0  0  0
    4.5945    0.1591    2.3650 O   0  0  0  0  0  0  0  0  0  0  0  0
    5.8639    1.2982    0.8274 N   0  0  0  0  0  0  0  0  0  0  0  0
    6.1801    1.7165   -0.5323 C   0  0  0  0  0  0  0  0  0  0  0  0
    6.6650    3.1535   -0.3848 C   0  0  0  0  0  0  0  0  0  0  0  0
    7.2746    3.1669    1.0110 C   0  0  0  0  0  0  0  0  0  0  0  0
    6.3257    2.2754    1.7965 C   0  0  0  0  0  0  0  0  0  0  0  0
    3.1736   -0.9296    0.0813 C   0  0  0  0  0  0  0  0  0  0  0  0
   -0.6763   -2.8871   -0.1473 C   0  0  0  0  0  0  0  0  0  0  0  0
   -2.0613   -2.3563    0.2381 C   0  0  0  0  0  0  0  0  0  0  0  0
   -5.2470   -1.3606    0.5703 C   0  0  0  0  0  0  0  0  0  0  0  0
   -6.3544   -0.9143   -0.1566 C   0  0  0  0  0  0  0  0  0  0  0  0
   -8.8827    3.8036   -1.9983 H   0  0  0  0  0  0  0  0  0  0  0  0
   -9.8889    2.4525   -1.4370 H   0  0  0  0  0  0  0  0  0  0  0  0
   -8.9445    2.3170   -2.9664 H   0  0  0  0  0  0  0  0  0  0  0  0
   -5.8489    2.4459    0.1321 H   0  0  0  0  0  0  0  0  0  0  0  0
   -3.9110    1.6566    1.4092 H   0  0  0  0  0  0  0  0  0  0  0  0
   -3.4450   -1.8131    2.5078 H   0  0  0  0  0  0  0  0  0  0  0  0
   -2.9045   -0.1800    2.6969 H   0  0  0  0  0  0  0  0  0  0  0  0
   -1.9869    0.5928    0.0687 H   0  0  0  0  0  0  0  0  0  0  0  0
   -0.8104    0.5044    1.3777 H   0  0  0  0  0  0  0  0  0  0  0  0
    0.5562    0.3365   -0.5071 H   0  0  0  0  0  0  0  0  0  0  0  0
   -0.6461   -0.4961   -1.4595 H   0  0  0  0  0  0  0  0  0  0  0  0
    0.8427   -1.7989    0.8921 H   0  0  0  0  0  0  0  0  0  0  0  0
    3.2626   -3.2165   -2.4239 H   0  0  0  0  0  0  0  0  0  0  0  0
    5.6968   -2.8352   -2.1769 H   0  0  0  0  0  0  0  0  0  0  0  0
    6.5327   -1.2366   -0.4723 H   0  0  0  0  0  0  0  0  0  0  0  0
    6.9859    1.0765   -0.9063 H   0  0  0  0  0  0  0  0  0  0  0  0
    5.3103    1.6339   -1.1899 H   0  0  0  0  0  0  0  0  0  0  0  0
    7.3747    3.4409   -1.1653 H   0  0  0  0  0  0  0  0  0  0  0  0
    5.8127    3.8426   -0.4237 H   0  0  0  0  0  0  0  0  0  0  0  0
    7.3563    4.1721    1.4329 H   0  0  0  0  0  0  0  0  0  0  0  0
    8.2761    2.7208    0.9831 H   0  0  0  0  0  0  0  0  0  0  0  0
    6.8053    1.7809    2.6461 H   0  0  0  0  0  0  0  0  0  0  0  0
    5.4562    2.8368    2.1562 H   0  0  0  0  0  0  0  0  0  0  0  0
    2.5019   -0.3833    0.7348 H   0  0  0  0  0  0  0  0  0  0  0  0
   -0.7351   -3.3568   -1.1376 H   0  0  0  0  0  0  0  0  0  0  0  0
   -0.3792   -3.6881    0.5424 H   0  0  0  0  0  0  0  0  0  0  0  0
   -2.6224   -3.1845    0.6885 H   0  0  0  0  0  0  0  0  0  0  0  0
   -2.6066   -2.0551   -0.6658 H   0  0  0  0  0  0  0  0  0  0  0  0
   -5.0918   -2.4305    0.6934 H   0  0  0  0  0  0  0  0  0  0  0  0
   -7.0384   -1.6428   -0.5886 H   0  0  0  0  0  0  0  0  0  0  0  0
  1  2  1  0
  2  3  1  0
  3  4  2  0
  3  5  1  0
  5  6  2  0
  6  7  1  0
  7  8  2  0
  8  9  1  0
  9 10  1  0
 10 11  1  0
 11 12  1  0
 12 13  1  0
 13 14  1  0
 14 15  1  0
 15 16  2  0
 16 17  1  0
 17 18  2  0
 18 19  1  0
 19 20  1  0
 20 21  2  0
 20 22  1  0
 22 23  1  0
 23 24  1  0
 24 25  1  0
 25 26  1  0
 19 27  2  0
 13 28  1  0
 28 29  1  0
  8 30  1  0
 30 31  2  0
 31  5  1  0
 29 10  1  0
 27 15  1  0
 26 22  1  0
  1 32  1  0
  1 33  1  0
  1 34  1  0
  6 35  1  0
  7 36  1  0
  9 37  1  0
  9 38  1  0
 11 39  1  0
 11 40  1  0
 12 41  1  0
 12 42  1  0
 13 43  1  0
 16 44  1  0
 17 45  1  0
 18 46  1  0
 23 47  1  0
 23 48  1  0
 24 49  1  0
 24 50  1  0
 25 51  1  0
 25 52  1  0
 26 53  1  0
 26 54  1  0
 27 55  1  0
 28 56  1  0
 28 57  1  0
 29 58  1  0
 29 59  1  0
 30 60  1  0
 31 61  1  0
M  END
$$$$
