
     RDKit          3D

 56 59  0  0  0  0  0  0  0  0999 V2000
   -4.3864    2.7241    2.6725 C   0  0  0  0  0  0  0  0  0  0  0  0
   -3.2855    1.9876    1.9294 C   0  0  0  0  0  0  0  0  0  0  0  0
   -3.7910    0.6864    1.4841 N   0  0  0  0  0  0  0  0  0  0  0  0
   -3.1711   -0.0868    0.4950 C   0  0  0  0  0  0  0  0  0  0  0  0
   -2.7465   -1.3514    0.6719 C   0  0  0  0  0  0  0  0  0  0  0  0
   -2.9640   -1.9528    1.9642 N   0  0  0  0  0  0  0  0  0  0  0  0
   -1.7575   -1.6491    3.1282 S   0  0  0  0  0  6  0  0  0  0  0  0
   -1.6090   -2.8854    3.8663 O   0  0  0  0  0  0  0  0  0  0  0  0
   -2.1026   -0.4186    3.8082 O   0  0  0  0  0  0  0  0  0  0  0  0
   -0.2480   -1.3877    2.2273 C   0  0  0  0  0  0  0  0  0  0  0  0
    0.2026   -0.0902    1.9794 C   0  0  0  0  0  0  0  0  0  0  0  0
    1.3773    0.1044    1.2510 C   0  0  0  0  0  0  0  0  0  0  0  0
    2.1184   -0.9905    0.7781 C   0  0  0  0  0  0  0  0  0  0  0  0
    3.3944   -0.7995   -0.0243 C   0  0  0  0  0  0  0  0  0  0  0  0
    3.1844    0.0710   -1.2721 C   0  0  0  0  0  0  0  0  0  0  0  0
    4.4370    0.1052   -2.1529 C   0  0  0  0  0  0  0  0  0  0  0  0
    5.7421   -0.0403   -1.3679 C   0  0  0  0  0  0  0  0  0  0  0  0
    5.6136    0.4932    0.0523 C   0  0  0  0  0  0  0  0  0  0  0  0
    4.5404   -0.2526    0.8513 C   0  0  0  0  0  0  0  0  0  0  0  0
    1.6693   -2.2878    1.0721 C   0  0  0  0  0  0  0  0  0  0  0  0
    0.4957   -2.4895    1.8003 C   0  0  0  0  0  0  0  0  0  0  0  0
   -2.1378   -2.1916   -0.3848 C   0  0  0  0  0  0  0  0  0  0  0  0
   -1.9008   -3.3793   -0.1767 O   0  0  0  0  0  0  0  0  0  0  0  0
   -1.8061   -1.5578   -1.5639 O   0  0  0  0  0  0  0  0  0  0  0  0
   -2.3265   -0.2799   -1.8368 C   0  0  0  0  0  0  0  0  0  0  0  0
   -2.1379    0.1822   -3.1419 C   0  0  0  0  0  0  0  0  0  0  0  0
   -2.7143    1.3869   -3.5298 C   0  0  0  0  0  0  0  0  0  0  0  0
   -3.4885    2.1033   -2.6204 C   0  0  0  0  0  0  0  0  0  0  0  0
   -3.6613    1.6295   -1.3140 C   0  0  0  0  0  0  0  0  0  0  0  0
   -3.0472    0.4449   -0.8821 C   0  0  0  0  0  0  0  0  0  0  0  0
   -4.0254    3.6954    3.0239 H   0  0  0  0  0  0  0  0  0  0  0  0
   -5.2515    2.8935    2.0227 H   0  0  0  0  0  0  0  0  0  0  0  0
   -4.7269    2.1508    3.5411 H   0  0  0  0  0  0  0  0  0  0  0  0
   -2.4303    1.8470    2.5961 H   0  0  0  0  0  0  0  0  0  0  0  0
   -2.9371    2.6033    1.0960 H   0  0  0  0  0  0  0  0  0  0  0  0
   -3.9424    0.0994    2.3143 H   0  0  0  0  0  0  0  0  0  0  0  0
   -3.0084   -2.9771    1.8857 H   0  0  0  0  0  0  0  0  0  0  0  0
   -0.3491    0.7725    2.3426 H   0  0  0  0  0  0  0  0  0  0  0  0
    1.7147    1.1213    1.0607 H   0  0  0  0  0  0  0  0  0  0  0  0
    3.7083   -1.7890   -0.3881 H   0  0  0  0  0  0  0  0  0  0  0  0
    2.3349   -0.2912   -1.8646 H   0  0  0  0  0  0  0  0  0  0  0  0
    2.9350    1.0987   -0.9776 H   0  0  0  0  0  0  0  0  0  0  0  0
    4.4449    1.0472   -2.7147 H   0  0  0  0  0  0  0  0  0  0  0  0
    4.3864   -0.6952   -2.9011 H   0  0  0  0  0  0  0  0  0  0  0  0
    6.0266   -1.0996   -1.3284 H   0  0  0  0  0  0  0  0  0  0  0  0
    6.5493    0.4785   -1.8978 H   0  0  0  0  0  0  0  0  0  0  0  0
    6.5749    0.4208    0.5734 H   0  0  0  0  0  0  0  0  0  0  0  0
    5.3597    1.5602    0.0128 H   0  0  0  0  0  0  0  0  0  0  0  0
    5.0024   -1.0957    1.3818 H   0  0  0  0  0  0  0  0  0  0  0  0
    4.1705    0.4199    1.6350 H   0  0  0  0  0  0  0  0  0  0  0  0
    2.2307   -3.1562    0.7315 H   0  0  0  0  0  0  0  0  0  0  0  0
    0.1635   -3.5045    2.0105 H   0  0  0  0  0  0  0  0  0  0  0  0
   -1.5663   -0.4055   -3.8550 H   0  0  0  0  0  0  0  0  0  0  0  0
   -2.5837    1.7539   -4.5446 H   0  0  0  0  0  0  0  0  0  0  0  0
   -3.9697    3.0292   -2.9268 H   0  0  0  0  0  0  0  0  0  0  0  0
   -4.3043    2.1946   -0.6436 H   0  0  0  0  0  0  0  0  0  0  0  0
  1  2  1  0
  2  3  1  0
  3  4  1  0
  4  5  2  0
  5  6  1  0
  6  7  1  0
  7  8  2  0
  7  9  2  0
  7 10  1  0
 10 11  2  0
 11 12  1  0
 12 13  2  0
 13 14  1  0
 14 15  1  0
 15 16  1  0
 16 17  1  0
 17 18  1  0
 18 19  1  0
 13 20  1  0
 20 21  2  0
  5 22  1  0
 22 23  2  0
 22 24  1  0
 24 25  1  0
 25 26  2  0
 26 27  1  0
 27 28  2  0
 28 29  1  0
 29 30  2  0
 30  4  1  0
 21 10  1  0
 30 25  1  0
 19 14  1  0
  1 31  1  0
  1 32  1  0
  1 33  1  0
  2 34  1  0
  2 35  1  0
  3 36  1  0
  6 37  1  0
 11 38  1  0
 12 39  1  0
 14 40  1  0
 15 41  1  0
 15 42  1  0
 16 43  1  0
 16 44  1  0
 17 45  1  0
 17 46  1  0
 18 47  1  0
 18 48  1  0
 19 49  1  0
 19 50  1  0
 20 51  1  0
 21 52  1  0
 26 53  1  0
 27 54  1  0
 28 55  1  0
 29 56  1  0
M  END
$$$$
