
     RDKit          3D

 61 64  0  0  0  0  0  0  0  0999 V2000
    8.2659   -4.3600    1.4412 C   0  0  0  0  0  0  0  0  0  0  0  0
    7.0478   -3.6352    1.9572 C   0  0  0  0  0  0  0  0  0  0  0  0
    6.3996   -4.0816    2.8972 O   0  0  0  0  0  0  0  0  0  0  0  0
    6.8109   -2.4622    1.2606 N   0  0  0  0  0  0  0  0  0  0  0  0
    5.7725   -1.5329    1.4718 C   0  0  0  0  0  0  0  0  0  0  0  0
    5.7594   -0.3914    0.6506 C   0  0  0  0  0  0  0  0  0  0  0  0
    4.7655    0.5820    0.7911 C   0  0  0  0  0  0  0  0  0  0  0  0
    3.7738    0.4101    1.7571 C   0  0  0  0  0  0  0  0  0  0  0  0
    2.4867    1.6170    1.9483 S   0  0  0  0  0  6  0  0  0  0  0  0
    2.4296    1.9642    3.3516 O   0  0  0  0  0  0  0  0  0  0  0  0
    2.6487    2.6266    0.9237 O   0  0  0  0  0  0  0  0  0  0  0  0
    1.0895    0.7227    1.5603 N   0  0  0  0  0  0  0  0  0  0  0  0
   -0.1745    1.3740    2.0486 C   0  0  0  0  0  0  0  0  0  0  0  0
   -1.4176    0.6838    1.4610 C   0  0  0  0  0  0  0  0  0  0  0  0
   -1.4514    0.7350   -0.0261 N   0  0  0  0  0  0  0  0  0  0  0  0
   -2.4608    1.4881   -0.5417 C   0  0  0  0  0  0  0  0  0  0  0  0
   -2.4085    2.7443   -0.9111 N   0  0  0  0  0  0  0  0  0  0  0  0
   -3.6738    3.0597   -1.3343 C   0  0  0  0  0  0  0  0  0  0  0  0
   -4.1718    4.2800   -1.8139 C   0  0  0  0  0  0  0  0  0  0  0  0
   -5.5168    4.3582   -2.1947 C   0  0  0  0  0  0  0  0  0  0  0  0
   -6.3498    3.2433   -2.1010 C   0  0  0  0  0  0  0  0  0  0  0  0
   -5.8713    2.0175   -1.6250 C   0  0  0  0  0  0  0  0  0  0  0  0
   -4.5231    1.9615   -1.2463 C   0  0  0  0  0  0  0  0  0  0  0  0
   -3.7148    0.9591   -0.7581 N   0  0  0  0  0  0  0  0  0  0  0  0
   -4.1052   -0.4208   -0.5370 C   0  0  0  0  0  0  0  0  0  0  0  0
   -3.6037   -1.3911   -1.6213 C   0  0  0  0  0  0  0  0  0  0  0  0
   -4.2419   -1.1151   -2.9847 C   0  0  0  0  0  0  0  0  0  0  0  0
   -3.8901   -2.8322   -1.1984 C   0  0  0  0  0  0  0  0  0  0  0  0
   -0.1259    1.0081   -0.6332 C   0  0  0  0  0  0  0  0  0  0  0  0
    0.9859    0.2702    0.1280 C   0  0  0  0  0  0  0  0  0  0  0  0
    3.7780   -0.7136    2.5879 C   0  0  0  0  0  0  0  0  0  0  0  0
    4.7753   -1.6838    2.4403 C   0  0  0  0  0  0  0  0  0  0  0  0
    8.3154   -5.3581    1.8864 H   0  0  0  0  0  0  0  0  0  0  0  0
    8.2114   -4.4685    0.3553 H   0  0  0  0  0  0  0  0  0  0  0  0
    9.1669   -3.8034    1.7140 H   0  0  0  0  0  0  0  0  0  0  0  0
    7.4710   -2.2337    0.5288 H   0  0  0  0  0  0  0  0  0  0  0  0
    6.5256   -0.2405   -0.1077 H   0  0  0  0  0  0  0  0  0  0  0  0
    4.7742    1.4620    0.1488 H   0  0  0  0  0  0  0  0  0  0  0  0
   -0.2071    1.2923    3.1404 H   0  0  0  0  0  0  0  0  0  0  0  0
   -0.1770    2.4370    1.7786 H   0  0  0  0  0  0  0  0  0  0  0  0
   -1.4147   -0.3740    1.7529 H   0  0  0  0  0  0  0  0  0  0  0  0
   -2.3193    1.1324    1.8999 H   0  0  0  0  0  0  0  0  0  0  0  0
   -3.5156    5.1392   -1.8839 H   0  0  0  0  0  0  0  0  0  0  0  0
   -5.9130    5.2986   -2.5685 H   0  0  0  0  0  0  0  0  0  0  0  0
   -7.3913    3.3266   -2.4057 H   0  0  0  0  0  0  0  0  0  0  0  0
   -6.5248    1.1550   -1.5601 H   0  0  0  0  0  0  0  0  0  0  0  0
   -5.1969   -0.4612   -0.4575 H   0  0  0  0  0  0  0  0  0  0  0  0
   -3.7187   -0.7095    0.4483 H   0  0  0  0  0  0  0  0  0  0  0  0
   -2.5183   -1.2848   -1.7334 H   0  0  0  0  0  0  0  0  0  0  0  0
   -5.3350   -1.1623   -2.9296 H   0  0  0  0  0  0  0  0  0  0  0  0
   -3.9105   -1.8518   -3.7250 H   0  0  0  0  0  0  0  0  0  0  0  0
   -3.9612   -0.1265   -3.3621 H   0  0  0  0  0  0  0  0  0  0  0  0
   -3.5140   -3.5398   -1.9463 H   0  0  0  0  0  0  0  0  0  0  0  0
   -4.9649   -3.0064   -1.0791 H   0  0  0  0  0  0  0  0  0  0  0  0
   -3.4004   -3.0630   -0.2468 H   0  0  0  0  0  0  0  0  0  0  0  0
    0.0926    2.0821   -0.6382 H   0  0  0  0  0  0  0  0  0  0  0  0
   -0.1345    0.6665   -1.6735 H   0  0  0  0  0  0  0  0  0  0  0  0
    1.9342    0.4013   -0.4017 H   0  0  0  0  0  0  0  0  0  0  0  0
    0.7820   -0.8077    0.1449 H   0  0  0  0  0  0  0  0  0  0  0  0
    3.0112   -0.8402    3.3499 H   0  0  0  0  0  0  0  0  0  0  0  0
    4.7449   -2.5475    3.1018 H   0  0  0  0  0  0  0  0  0  0  0  0
  1  2  1  0
  2  3  2  0
  2  4  1  0
  4  5  1  0
  5  6  2  0
  6  7  1  0
  7  8  2  0
  8  9  1  0
  9 10  2  0
  9 11  2  0
  9 12  1  0
 12 13  1  0
 13 14  1  0
 14 15  1  0
 15 16  1  0
 16 17  2  0
 17 18  1  0
 18 19  2  0
 19 20  1  0
 20 21  2  0
 21 22  1  0
 22 23  2  0
 23 24  1  0
 24 25  1  0
 25 26  1  0
 26 27  1  0
 26 28  1  0
 15 29  1  0
 29 30  1  0
  8 31  1  0
 31 32  2  0
 32  5  1  0
 30 12  1  0
 24 16  1  0
 23 18  1  0
  1 33  1  0
  1 34  1  0
  1 35  1  0
  4 36  1  0
  6 37  1  0
  7 38  1  0
 13 39  1  0
 13 40  1  0
 14 41  1  0
 14 42  1  0
 19 43  1  0
 20 44  1  0
 21 45  1  0
 22 46  1  0
 25 47  1  0
 25 48  1  0
 26 49  1  0
 27 50  1  0
 27 51  1  0
 27 52  1  0
 28 53  1  0
 28 54  1  0
 28 55  1  0
 29 56  1  0
 29 57  1  0
 30 58  1  0
 30 59  1  0
 31 60  1  0
 32 61  1  0
M  END
$$$$
