
     RDKit          3D

 42 44  0  0  0  0  0  0  0  0999 V2000
   -5.6105   -0.6636    0.0972 C   0  0  0  0  0  0  0  0  0  0  0  0
   -4.8822    0.5725   -0.4608 C   0  0  0  0  0  0  0  0  0  0  0  0
   -5.2576    0.7291   -1.9426 C   0  0  0  0  0  0  0  0  0  0  0  0
   -5.3414    1.8055    0.3330 C   0  0  0  0  0  0  0  0  0  0  0  0
   -3.4413    0.3580   -0.3064 N   0  0  0  0  0  0  0  0  0  0  0  0
   -2.4434    1.2396   -0.6865 C   0  0  0  0  0  0  0  0  0  0  0  0
   -2.6575    2.3286   -1.2086 O   0  0  0  0  0  0  0  0  0  0  0  0
   -1.0832    0.7285   -0.3961 C   0  0  0  0  0  0  0  0  0  0  0  0
    0.0680    1.4195   -0.6799 N   0  0  0  0  0  0  0  0  0  0  0  0
    1.0313    0.6290   -0.2714 C   0  0  0  0  0  0  0  0  0  0  0  0
    2.3788    0.8278   -0.3133 N   0  0  0  0  0  0  0  0  0  0  0  0
    3.1368   -0.1148    0.1678 C   0  0  0  0  0  0  0  0  0  0  0  0
    4.6180    0.0650    0.1457 C   0  0  0  0  0  0  0  0  0  0  0  0
    5.1850    0.8028   -0.9021 C   0  0  0  0  0  0  0  0  0  0  0  0
    6.5664    0.9952   -0.9607 C   0  0  0  0  0  0  0  0  0  0  0  0
    7.3870    0.4610    0.0310 C   0  0  0  0  0  0  0  0  0  0  0  0
    6.8282   -0.2586    1.0866 C   0  0  0  0  0  0  0  0  0  0  0  0
    5.4459   -0.4543    1.1493 C   0  0  0  0  0  0  0  0  0  0  0  0
    2.6198   -1.4050    0.7297 C   0  0  0  0  0  0  0  0  0  0  0  0
    1.2811   -1.5549    0.7496 C   0  0  0  0  0  0  0  0  0  0  0  0
    0.5889   -2.7585    1.2593 C   0  0  0  0  0  0  0  0  0  0  0  0
   -0.2321   -2.4842    2.3026 F   0  0  0  0  0  0  0  0  0  0  0  0
    1.4751   -3.6876    1.7135 F   0  0  0  0  0  0  0  0  0  0  0  0
   -0.1489   -3.3789    0.3065 F   0  0  0  0  0  0  0  0  0  0  0  0
    0.4746   -0.5397    0.2556 N   0  0  0  0  0  0  0  0  0  0  0  0
   -0.8756   -0.4746    0.1772 N   0  0  0  0  0  0  0  0  0  0  0  0
   -6.6980   -0.5623    0.0093 H   0  0  0  0  0  0  0  0  0  0  0  0
   -5.3714   -0.8182    1.1559 H   0  0  0  0  0  0  0  0  0  0  0  0
   -5.3128   -1.5726   -0.4388 H   0  0  0  0  0  0  0  0  0  0  0  0
   -4.9081   -0.1283   -2.5294 H   0  0  0  0  0  0  0  0  0  0  0  0
   -4.8154    1.6280   -2.3842 H   0  0  0  0  0  0  0  0  0  0  0  0
   -6.3436    0.8039   -2.0698 H   0  0  0  0  0  0  0  0  0  0  0  0
   -5.0520    1.7244    1.3871 H   0  0  0  0  0  0  0  0  0  0  0  0
   -6.4304    1.9202    0.2906 H   0  0  0  0  0  0  0  0  0  0  0  0
   -4.9014    2.7296   -0.0554 H   0  0  0  0  0  0  0  0  0  0  0  0
   -3.1076   -0.5062    0.1126 H   0  0  0  0  0  0  0  0  0  0  0  0
    4.5551    1.2326   -1.6791 H   0  0  0  0  0  0  0  0  0  0  0  0
    6.9997    1.5675   -1.7775 H   0  0  0  0  0  0  0  0  0  0  0  0
    8.4625    0.6160   -0.0133 H   0  0  0  0  0  0  0  0  0  0  0  0
    7.4710   -0.6581    1.8678 H   0  0  0  0  0  0  0  0  0  0  0  0
    5.0399   -0.9887    2.0028 H   0  0  0  0  0  0  0  0  0  0  0  0
    3.3015   -2.1751    1.0689 H   0  0  0  0  0  0  0  0  0  0  0  0
  1  2  1  0
  2  3  1  0
  2  4  1  0
  2  5  1  0
  5  6  1  0
  6  7  2  0
  6  8  1  0
  8  9  1  0
  9 10  2  0
 10 11  1  0
 11 12  2  0
 12 13  1  0
 13 14  2  0
 14 15  1  0
 15 16  2  0
 16 17  1  0
 17 18  2  0
 12 19  1  0
 19 20  2  0
 20 21  1  0
 21 22  1  0
 21 23  1  0
 21 24  1  0
 20 25  1  0
 25 26  1  0
 26  8  2  0
 25 10  1  0
 18 13  1  0
  1 27  1  0
  1 28  1  0
  1 29  1  0
  3 30  1  0
  3 31  1  0
  3 32  1  0
  4 33  1  0
  4 34  1  0
  4 35  1  0
  5 36  1  0
 14 37  1  0
 15 38  1  0
 16 39  1  0
 17 40  1  0
 18 41  1  0
 19 42  1  0
M  END
$$$$
