
     RDKit          3D

 55 57  0  0  0  0  0  0  0  0999 V2000
   -7.4438   -3.0387   -2.2818 C   0  0  0  0  0  0  0  0  0  0  0  0
   -7.6025   -2.0987   -1.2295 O   0  0  0  0  0  0  0  0  0  0  0  0
   -6.4656   -1.5961   -0.6463 C   0  0  0  0  0  0  0  0  0  0  0  0
   -5.1646   -1.9552   -1.0128 C   0  0  0  0  0  0  0  0  0  0  0  0
   -4.0652   -1.3902   -0.3613 C   0  0  0  0  0  0  0  0  0  0  0  0
   -4.2538   -0.4563    0.6594 C   0  0  0  0  0  0  0  0  0  0  0  0
   -3.1113    0.1377    1.3608 C   0  0  0  0  0  0  0  0  0  0  0  0
   -2.2303    0.9993    0.8348 C   0  0  0  0  0  0  0  0  0  0  0  0
   -2.1946    1.6401   -0.7560 S   0  0  0  0  0  0  0  0  0  0  0  0
   -0.7688    2.6192   -0.4328 C   0  0  0  0  0  0  0  0  0  0  0  0
   -0.0967    3.6024   -1.6021 S   0  0  0  0  0  0  0  0  0  0  0  0
   -0.3471    2.4205    0.8662 N   0  0  0  0  0  0  0  0  0  0  0  0
    0.8085    3.0693    1.4914 C   0  0  0  0  0  0  0  0  0  0  0  0
    2.0293    2.1499    1.6074 C   0  0  0  0  0  0  0  0  0  0  0  0
    2.6534    1.8031    0.2563 C   0  0  0  0  0  0  0  0  0  0  0  0
    3.9249    0.9799    0.3976 C   0  0  0  0  0  0  0  0  0  0  0  0
    4.3523    0.6266    1.4887 O   0  0  0  0  0  0  0  0  0  0  0  0
    4.4877    0.7072   -0.8391 N   0  0  0  0  0  0  0  0  0  0  0  0
    5.6600   -0.0302   -1.1084 C   0  0  0  0  0  0  0  0  0  0  0  0
    6.0313   -0.1582   -2.4543 C   0  0  0  0  0  0  0  0  0  0  0  0
    7.1764   -0.8702   -2.8171 C   0  0  0  0  0  0  0  0  0  0  0  0
    7.9653   -1.4641   -1.8348 C   0  0  0  0  0  0  0  0  0  0  0  0
    7.6073   -1.3454   -0.4869 C   0  0  0  0  0  0  0  0  0  0  0  0
    8.4194   -1.9626    0.5911 C   0  0  0  0  0  0  0  0  0  0  0  0
    8.1896   -1.9151    1.7846 O   0  0  0  0  0  0  0  0  0  0  0  0
    9.4957   -2.6194    0.1209 O   0  0  0  0  0  0  0  0  0  0  0  0
    6.4548   -0.6284   -0.1276 C   0  0  0  0  0  0  0  0  0  0  0  0
   -1.1108    1.5575    1.6368 C   0  0  0  0  0  0  0  0  0  0  0  0
   -0.9193    1.2806    2.8127 O   0  0  0  0  0  0  0  0  0  0  0  0
   -5.5540   -0.0994    1.0369 C   0  0  0  0  0  0  0  0  0  0  0  0
   -6.6625   -0.6600    0.3895 C   0  0  0  0  0  0  0  0  0  0  0  0
   -7.9692   -0.3636    0.6922 O   0  0  0  0  0  0  0  0  0  0  0  0
   -8.2113    0.5816    1.7239 C   0  0  0  0  0  0  0  0  0  0  0  0
   -6.9410   -3.9454   -1.9296 H   0  0  0  0  0  0  0  0  0  0  0  0
   -8.4417   -3.3258   -2.6271 H   0  0  0  0  0  0  0  0  0  0  0  0
   -6.9135   -2.5955   -3.1312 H   0  0  0  0  0  0  0  0  0  0  0  0
   -4.9705   -2.6742   -1.8014 H   0  0  0  0  0  0  0  0  0  0  0  0
   -3.0630   -1.6901   -0.6593 H   0  0  0  0  0  0  0  0  0  0  0  0
   -3.0178   -0.1601    2.4046 H   0  0  0  0  0  0  0  0  0  0  0  0
    1.0761    3.9845    0.9553 H   0  0  0  0  0  0  0  0  0  0  0  0
    0.5103    3.3748    2.5022 H   0  0  0  0  0  0  0  0  0  0  0  0
    1.7613    1.2266    2.1351 H   0  0  0  0  0  0  0  0  0  0  0  0
    2.7793    2.6555    2.2290 H   0  0  0  0  0  0  0  0  0  0  0  0
    2.9058    2.7238   -0.2824 H   0  0  0  0  0  0  0  0  0  0  0  0
    1.9465    1.2230   -0.3472 H   0  0  0  0  0  0  0  0  0  0  0  0
    4.0091    1.0861   -1.6472 H   0  0  0  0  0  0  0  0  0  0  0  0
    5.4349    0.2954   -3.2423 H   0  0  0  0  0  0  0  0  0  0  0  0
    7.4532   -0.9610   -3.8646 H   0  0  0  0  0  0  0  0  0  0  0  0
    8.8551   -2.0161   -2.1280 H   0  0  0  0  0  0  0  0  0  0  0  0
    9.9232   -2.9643    0.9332 H   0  0  0  0  0  0  0  0  0  0  0  0
    6.2033   -0.5548    0.9269 H   0  0  0  0  0  0  0  0  0  0  0  0
   -5.6797    0.6223    1.8374 H   0  0  0  0  0  0  0  0  0  0  0  0
   -9.2948    0.6974    1.8239 H   0  0  0  0  0  0  0  0  0  0  0  0
   -7.8255    0.2253    2.6846 H   0  0  0  0  0  0  0  0  0  0  0  0
   -7.7952    1.5615    1.4679 H   0  0  0  0  0  0  0  0  0  0  0  0
  1  2  1  0
  2  3  1  0
  3  4  2  0
  4  5  1  0
  5  6  2  0
  6  7  1  0
  7  8  2  3
  8  9  1  0
  9 10  1  0
 10 11  2  0
 10 12  1  0
 12 13  1  0
 13 14  1  0
 14 15  1  0
 15 16  1  0
 16 17  2  0
 16 18  1  0
 18 19  1  0
 19 20  2  0
 20 21  1  0
 21 22  2  0
 22 23  1  0
 23 24  1  0
 24 25  2  0
 24 26  1  0
 23 27  2  0
 12 28  1  0
 28 29  2  0
  6 30  1  0
 30 31  2  0
 31 32  1  0
 32 33  1  0
 31  3  1  0
 28  8  1  0
 27 19  1  0
  1 34  1  0
  1 35  1  0
  1 36  1  0
  4 37  1  0
  5 38  1  0
  7 39  1  0
 13 40  1  0
 13 41  1  0
 14 42  1  0
 14 43  1  0
 15 44  1  0
 15 45  1  0
 18 46  1  0
 20 47  1  0
 21 48  1  0
 22 49  1  0
 26 50  1  0
 27 51  1  0
 30 52  1  0
 33 53  1  0
 33 54  1  0
 33 55  1  0
M  END
$$$$
