
     RDKit          3D

 45 47  0  0  0  0  0  0  0  0999 V2000
   -3.8623   -1.9259    2.3590 C   0  0  0  0  0  0  0  0  0  0  0  0
   -4.2404   -2.1762    0.6029 S   0  0  0  0  0  0  0  0  0  0  0  0
   -4.3807   -0.4694    0.0844 C   0  0  0  0  0  0  0  0  0  0  0  0
   -5.6173   -0.0547   -0.4301 C   0  0  0  0  0  0  0  0  0  0  0  0
   -5.8187    1.2703   -0.8268 C   0  0  0  0  0  0  0  0  0  0  0  0
   -4.7864    2.1982   -0.7088 C   0  0  0  0  0  0  0  0  0  0  0  0
   -3.5467    1.7976   -0.2125 C   0  0  0  0  0  0  0  0  0  0  0  0
   -3.3344    0.4644    0.1531 C   0  0  0  0  0  0  0  0  0  0  0  0
   -2.0914    0.1325    0.6326 O   0  0  0  0  0  0  0  0  0  0  0  0
   -1.2305   -0.3685   -0.4122 C   0  0  0  0  0  0  0  0  0  0  0  0
   -0.5761   -1.6589    0.0999 C   0  0  0  0  0  0  0  0  0  0  0  0
    0.8135   -1.8414   -0.4973 C   0  0  0  0  0  0  0  0  0  0  0  0
    1.7313   -0.7753   -0.0738 N   0  0  0  0  0  0  0  0  0  0  0  0
    2.9156   -0.7339   -0.9466 C   0  0  0  0  0  0  0  0  0  0  0  0
    4.0809    0.0327   -0.3533 C   0  0  0  0  0  0  0  0  0  0  0  0
    4.5525   -0.2661    0.9344 C   0  0  0  0  0  0  0  0  0  0  0  0
    5.6395    0.4247    1.4718 C   0  0  0  0  0  0  0  0  0  0  0  0
    6.2724    1.4171    0.7257 C   0  0  0  0  0  0  0  0  0  0  0  0
    5.8199    1.7185   -0.5580 C   0  0  0  0  0  0  0  0  0  0  0  0
    4.7319    1.0283   -1.0970 C   0  0  0  0  0  0  0  0  0  0  0  0
    1.0793    0.5342    0.0843 C   0  0  0  0  0  0  0  0  0  0  0  0
   -0.1799    0.6944   -0.7655 C   0  0  0  0  0  0  0  0  0  0  0  0
   -2.8703   -1.4897    2.4934 H   0  0  0  0  0  0  0  0  0  0  0  0
   -4.6108   -1.2793    2.8251 H   0  0  0  0  0  0  0  0  0  0  0  0
   -3.8796   -2.8949    2.8657 H   0  0  0  0  0  0  0  0  0  0  0  0
   -6.4413   -0.7606   -0.5145 H   0  0  0  0  0  0  0  0  0  0  0  0
   -6.7861    1.5778   -1.2164 H   0  0  0  0  0  0  0  0  0  0  0  0
   -4.9467    3.2329   -1.0016 H   0  0  0  0  0  0  0  0  0  0  0  0
   -2.7469    2.5254   -0.1113 H   0  0  0  0  0  0  0  0  0  0  0  0
   -1.8033   -0.5990   -1.3226 H   0  0  0  0  0  0  0  0  0  0  0  0
   -0.5193   -1.6610    1.1965 H   0  0  0  0  0  0  0  0  0  0  0  0
   -1.2042   -2.5164   -0.1675 H   0  0  0  0  0  0  0  0  0  0  0  0
    1.2191   -2.8080   -0.1757 H   0  0  0  0  0  0  0  0  0  0  0  0
    0.7248   -1.8766   -1.5917 H   0  0  0  0  0  0  0  0  0  0  0  0
    3.2831   -1.7540   -1.1253 H   0  0  0  0  0  0  0  0  0  0  0  0
    2.6458   -0.3234   -1.9288 H   0  0  0  0  0  0  0  0  0  0  0  0
    4.0616   -1.0375    1.5251 H   0  0  0  0  0  0  0  0  0  0  0  0
    5.9901    0.1880    2.4730 H   0  0  0  0  0  0  0  0  0  0  0  0
    7.1186    1.9550    1.1451 H   0  0  0  0  0  0  0  0  0  0  0  0
    6.3152    2.4912   -1.1400 H   0  0  0  0  0  0  0  0  0  0  0  0
    4.3936    1.2747   -2.1009 H   0  0  0  0  0  0  0  0  0  0  0  0
    0.8069    0.6451    1.1419 H   0  0  0  0  0  0  0  0  0  0  0  0
    1.7626    1.3649   -0.1266 H   0  0  0  0  0  0  0  0  0  0  0  0
    0.0937    0.5979   -1.8245 H   0  0  0  0  0  0  0  0  0  0  0  0
   -0.5788    1.7051   -0.6303 H   0  0  0  0  0  0  0  0  0  0  0  0
  1  2  1  0
  2  3  1  0
  3  4  2  0
  4  5  1  0
  5  6  2  0
  6  7  1  0
  7  8  2  0
  8  9  1  0
  9 10  1  0
 10 11  1  0
 11 12  1  0
 12 13  1  0
 13 14  1  0
 14 15  1  0
 15 16  2  0
 16 17  1  0
 17 18  2  0
 18 19  1  0
 19 20  2  0
 13 21  1  0
 21 22  1  0
  8  3  1  0
 22 10  1  0
 20 15  1  0
  1 23  1  0
  1 24  1  0
  1 25  1  0
  4 26  1  0
  5 27  1  0
  6 28  1  0
  7 29  1  0
 10 30  1  0
 11 31  1  0
 11 32  1  0
 12 33  1  0
 12 34  1  0
 14 35  1  0
 14 36  1  0
 16 37  1  0
 17 38  1  0
 18 39  1  0
 19 40  1  0
 20 41  1  0
 21 42  1  0
 21 43  1  0
 22 44  1  0
 22 45  1  0
M  END
$$$$
