
     RDKit          3D

 33 34  0  0  0  0  0  0  0  0999 V2000
    2.4202   -3.1816   -3.3068 C   0  0  0  0  0  0  0  0  0  0  0  0
    1.7181   -2.4143   -2.1993 C   0  0  0  0  0  0  0  0  0  0  0  0
    2.1150   -0.9411   -2.1803 C   0  0  0  0  0  0  0  0  0  0  0  0
    3.1978   -0.5770   -2.6460 O   0  0  0  0  0  0  0  0  0  0  0  0
    1.0905    0.0436   -1.6291 C   0  0  0  0  0  0  0  0  0  0  0  0
    1.5509    1.4328   -1.7749 C   0  0  0  0  0  0  0  0  0  0  0  0
    1.7954    2.5646   -1.8722 N   0  0  0  0  0  0  0  0  0  0  0  0
    0.7728   -0.2439   -0.1952 C   0  0  0  0  0  0  0  0  0  0  0  0
    1.3807   -1.1229    0.5737 N   0  0  0  0  0  0  0  0  0  0  0  0
    0.8005   -1.0976    1.8075 N   0  0  0  0  0  0  0  0  0  0  0  0
   -0.1528   -0.1911    1.8028 C   0  0  0  0  0  0  0  0  0  0  0  0
   -0.2294    0.3589    0.5449 N   0  0  0  0  0  0  0  0  0  0  0  0
   -1.1385    1.3945    0.0890 C   0  0  0  0  0  0  0  0  0  0  0  0
   -2.5110    1.3903    0.7546 C   0  0  0  0  0  0  0  0  0  0  0  0
   -2.5220    2.0266    2.1442 C   0  0  0  0  0  0  0  0  0  0  0  0
   -1.3626    1.6323    3.0594 C   0  0  0  0  0  0  0  0  0  0  0  0
   -1.0019    0.1544    2.9794 C   0  0  0  0  0  0  0  0  0  0  0  0
    2.0784   -4.2210   -3.3258 H   0  0  0  0  0  0  0  0  0  0  0  0
    2.2155   -2.7339   -4.2849 H   0  0  0  0  0  0  0  0  0  0  0  0
    3.5052   -3.1833   -3.1591 H   0  0  0  0  0  0  0  0  0  0  0  0
    1.9635   -2.8612   -1.2319 H   0  0  0  0  0  0  0  0  0  0  0  0
    0.6362   -2.4849   -2.3538 H   0  0  0  0  0  0  0  0  0  0  0  0
    0.1852   -0.0890   -2.2349 H   0  0  0  0  0  0  0  0  0  0  0  0
   -1.2908    1.2362   -0.9839 H   0  0  0  0  0  0  0  0  0  0  0  0
   -0.6308    2.3559    0.2232 H   0  0  0  0  0  0  0  0  0  0  0  0
   -3.2131    1.9511    0.1251 H   0  0  0  0  0  0  0  0  0  0  0  0
   -2.9014    0.3663    0.8094 H   0  0  0  0  0  0  0  0  0  0  0  0
   -3.4702    1.7660    2.6312 H   0  0  0  0  0  0  0  0  0  0  0  0
   -2.5246    3.1192    2.0435 H   0  0  0  0  0  0  0  0  0  0  0  0
   -1.6506    1.8763    4.0895 H   0  0  0  0  0  0  0  0  0  0  0  0
   -0.4850    2.2517    2.8337 H   0  0  0  0  0  0  0  0  0  0  0  0
   -1.9030   -0.4696    2.9831 H   0  0  0  0  0  0  0  0  0  0  0  0
   -0.4383   -0.1083    3.8838 H   0  0  0  0  0  0  0  0  0  0  0  0
  1  2  1  0
  2  3  1  0
  3  4  2  0
  3  5  1  0
  5  6  1  0
  6  7  3  0
  5  8  1  0
  8  9  2  0
  9 10  1  0
 10 11  2  0
 11 12  1  0
 12 13  1  0
 13 14  1  0
 14 15  1  0
 15 16  1  0
 16 17  1  0
 12  8  1  0
 17 11  1  0
  1 18  1  0
  1 19  1  0
  1 20  1  0
  2 21  1  0
  2 22  1  0
  5 23  1  0
 13 24  1  0
 13 25  1  0
 14 26  1  0
 14 27  1  0
 15 28  1  0
 15 29  1  0
 16 30  1  0
 16 31  1  0
 17 32  1  0
 17 33  1  0
M  END
$$$$
