
     RDKit          3D

 52 54  0  0  0  0  0  0  0  0999 V2000
   -6.0522   -1.5133    1.9410 C   0  0  0  0  0  0  0  0  0  0  0  0
   -6.5965   -0.9886    0.6109 C   0  0  0  0  0  0  0  0  0  0  0  0
   -7.6197    0.1193    0.8716 C   0  0  0  0  0  0  0  0  0  0  0  0
   -5.4835   -0.4622   -0.3098 C   0  0  0  0  0  0  0  0  0  0  0  0
   -4.4550   -1.5247   -0.7078 C   0  0  0  0  0  0  0  0  0  0  0  0
   -3.5339   -0.9945   -1.6619 O   0  0  0  0  0  0  0  0  0  0  0  0
   -2.4334   -0.3178   -1.2163 C   0  0  0  0  0  0  0  0  0  0  0  0
   -1.5930    0.1435   -2.2354 C   0  0  0  0  0  0  0  0  0  0  0  0
   -0.4331    0.8597   -1.9350 C   0  0  0  0  0  0  0  0  0  0  0  0
   -0.0966    1.1005   -0.6014 C   0  0  0  0  0  0  0  0  0  0  0  0
    1.1093    1.8919   -0.2607 C   0  0  0  0  0  0  0  0  0  0  0  0
    0.9719    2.8355    0.5215 O   0  0  0  0  0  0  0  0  0  0  0  0
    2.3120    1.5767   -0.8877 N   0  0  0  0  0  0  0  0  0  0  0  0
    3.4686    2.4385   -0.6302 C   0  0  0  0  0  0  0  0  0  0  0  0
    4.3941    1.8342    0.4432 C   0  0  0  0  0  0  0  0  0  0  0  0
    4.7678    0.4546    0.0725 N   0  0  0  0  0  0  0  0  0  0  0  0
    5.7109   -0.1267    0.9276 C   0  0  0  0  0  0  0  0  0  0  0  0
    6.4705    0.6668    1.7074 N   0  0  0  0  0  0  0  0  0  0  0  0
    7.3972    0.0842    2.4951 C   0  0  0  0  0  0  0  0  0  0  0  0
    7.6101   -1.2678    2.5385 C   0  0  0  0  0  0  0  0  0  0  0  0
    6.7975   -2.0044    1.7142 C   0  0  0  0  0  0  0  0  0  0  0  0
    5.8545   -1.4640    0.9157 N   0  0  0  0  0  0  0  0  0  0  0  0
    3.6374   -0.4357   -0.2476 C   0  0  0  0  0  0  0  0  0  0  0  0
    2.6910    0.2133   -1.2852 C   0  0  0  0  0  0  0  0  0  0  0  0
   -0.9448    0.6696    0.4224 C   0  0  0  0  0  0  0  0  0  0  0  0
   -2.1078   -0.0463    0.1142 C   0  0  0  0  0  0  0  0  0  0  0  0
   -5.4288   -0.7628    2.4391 H   0  0  0  0  0  0  0  0  0  0  0  0
   -6.8695   -1.7802    2.6203 H   0  0  0  0  0  0  0  0  0  0  0  0
   -5.4502   -2.4141    1.7927 H   0  0  0  0  0  0  0  0  0  0  0  0
   -7.1142   -1.8124    0.1011 H   0  0  0  0  0  0  0  0  0  0  0  0
   -8.4583   -0.2552    1.4709 H   0  0  0  0  0  0  0  0  0  0  0  0
   -8.0299    0.5021   -0.0698 H   0  0  0  0  0  0  0  0  0  0  0  0
   -7.1661    0.9581    1.4114 H   0  0  0  0  0  0  0  0  0  0  0  0
   -4.9802    0.3916    0.1636 H   0  0  0  0  0  0  0  0  0  0  0  0
   -5.9300   -0.0575   -1.2295 H   0  0  0  0  0  0  0  0  0  0  0  0
   -4.9768   -2.3483   -1.2115 H   0  0  0  0  0  0  0  0  0  0  0  0
   -3.9357   -1.9748    0.1456 H   0  0  0  0  0  0  0  0  0  0  0  0
   -1.8563   -0.0427   -3.2727 H   0  0  0  0  0  0  0  0  0  0  0  0
    0.1930    1.2368   -2.7394 H   0  0  0  0  0  0  0  0  0  0  0  0
    3.1462    3.4405   -0.3295 H   0  0  0  0  0  0  0  0  0  0  0  0
    4.0108    2.5378   -1.5799 H   0  0  0  0  0  0  0  0  0  0  0  0
    3.8830    1.8346    1.4170 H   0  0  0  0  0  0  0  0  0  0  0  0
    5.2806    2.4780    0.5141 H   0  0  0  0  0  0  0  0  0  0  0  0
    7.9816    0.7664    3.1074 H   0  0  0  0  0  0  0  0  0  0  0  0
    8.3599   -1.7180    3.1734 H   0  0  0  0  0  0  0  0  0  0  0  0
    6.8797   -3.0857    1.6621 H   0  0  0  0  0  0  0  0  0  0  0  0
    3.9862   -1.3843   -0.6756 H   0  0  0  0  0  0  0  0  0  0  0  0
    3.0710   -0.6574    0.6694 H   0  0  0  0  0  0  0  0  0  0  0  0
    3.1949    0.2932   -2.2592 H   0  0  0  0  0  0  0  0  0  0  0  0
    1.8174   -0.4329   -1.4104 H   0  0  0  0  0  0  0  0  0  0  0  0
   -0.7086    0.9016    1.4594 H   0  0  0  0  0  0  0  0  0  0  0  0
   -2.7432   -0.3568    0.9380 H   0  0  0  0  0  0  0  0  0  0  0  0
  1  2  1  0
  2  3  1  0
  2  4  1  0
  4  5  1  0
  5  6  1  0
  6  7  1  0
  7  8  2  0
  8  9  1  0
  9 10  2  0
 10 11  1  0
 11 12  2  0
 11 13  1  0
 13 14  1  0
 14 15  1  0
 15 16  1  0
 16 17  1  0
 17 18  2  0
 18 19  1  0
 19 20  2  0
 20 21  1  0
 21 22  2  0
 16 23  1  0
 23 24  1  0
 10 25  1  0
 25 26  2  0
 26  7  1  0
 24 13  1  0
 22 17  1  0
  1 27  1  0
  1 28  1  0
  1 29  1  0
  2 30  1  0
  3 31  1  0
  3 32  1  0
  3 33  1  0
  4 34  1  0
  4 35  1  0
  5 36  1  0
  5 37  1  0
  8 38  1  0
  9 39  1  0
 14 40  1  0
 14 41  1  0
 15 42  1  0
 15 43  1  0
 19 44  1  0
 20 45  1  0
 21 46  1  0
 23 47  1  0
 23 48  1  0
 24 49  1  0
 24 50  1  0
 25 51  1  0
 26 52  1  0
M  END
$$$$
