
     RDKit          3D

 57 60  0  0  0  0  0  0  0  0999 V2000
   -7.8117    0.3310   -1.0801 C   0  0  0  0  0  0  0  0  0  0  0  0
   -6.3278    0.1145   -1.0409 C   0  0  0  0  0  0  0  0  0  0  0  0
   -5.5654    0.6130    0.0216 C   0  0  0  0  0  0  0  0  0  0  0  0
   -4.1860    0.3920    0.0718 C   0  0  0  0  0  0  0  0  0  0  0  0
   -3.5563   -0.3454   -0.9369 C   0  0  0  0  0  0  0  0  0  0  0  0
   -2.1496   -0.5793   -0.8874 N   0  0  0  0  0  0  0  0  0  0  0  0
   -1.5220   -1.8061   -1.1051 C   0  0  0  0  0  0  0  0  0  0  0  0
   -2.2275   -3.0915   -1.3715 C   0  0  0  0  0  0  0  0  0  0  0  0
   -0.1601   -1.6192   -0.9785 C   0  0  0  0  0  0  0  0  0  0  0  0
    0.0677   -0.2700   -0.6240 C   0  0  0  0  0  0  0  0  0  0  0  0
    1.3620    0.3197   -0.3479 C   0  0  0  0  0  0  0  0  0  0  0  0
    1.7424    0.9863   -1.3522 O   0  0  0  0  0  1  0  0  0  0  0  0
    2.0058    0.0520    0.8252 C   0  0  0  0  0  0  0  0  0  0  0  0
    3.4345    0.5834    1.1219 C   0  0  0  0  0  0  0  0  0  0  0  0
    4.0505    0.5257    2.6977 S   0  0  0  0  0  0  0  0  0  0  0  0
    4.0768    1.1042    0.0063 N   0  0  0  0  0  0  0  0  0  0  0  0
    5.3639    1.6189   -0.2574 C   0  0  0  0  0  0  0  0  0  0  0  0
    6.4678    1.5361    0.5934 C   0  0  0  0  0  0  0  0  0  0  0  0
    7.7022    2.0799    0.2167 C   0  0  0  0  0  0  0  0  0  0  0  0
    7.8404    2.7011   -1.0180 C   0  0  0  0  0  0  0  0  0  0  0  0
    9.0342    3.2117   -1.3538 F   0  0  0  0  0  0  0  0  0  0  0  0
    6.7585    2.7803   -1.8859 C   0  0  0  0  0  0  0  0  0  0  0  0
    6.9214    3.5399   -3.4224 Cl  0  0  0  0  0  0  0  0  0  0  0  0
    5.5278    2.2380   -1.5093 C   0  0  0  0  0  0  0  0  0  0  0  0
    1.3002   -0.8103    1.8478 N   0  0  0  0  0  4  0  0  0  0  0  0
    0.1961   -0.3445    2.4703 C   0  0  0  0  0  0  0  0  0  0  0  0
   -0.4693   -1.1267    3.4076 C   0  0  0  0  0  0  0  0  0  0  0  0
    0.0155   -2.3955    3.7008 C   0  0  0  0  0  0  0  0  0  0  0  0
    1.1539   -2.8576    3.0516 C   0  0  0  0  0  0  0  0  0  0  0  0
    1.7852   -2.0403    2.1200 C   0  0  0  0  0  0  0  0  0  0  0  0
   -1.1675    0.3668   -0.5821 C   0  0  0  0  0  0  0  0  0  0  0  0
   -1.4501    1.8237   -0.3927 C   0  0  0  0  0  0  0  0  0  0  0  0
   -4.3161   -0.8577   -1.9939 C   0  0  0  0  0  0  0  0  0  0  0  0
   -5.6944   -0.6314   -2.0413 C   0  0  0  0  0  0  0  0  0  0  0  0
   -8.1727    0.3766   -2.1129 H   0  0  0  0  0  0  0  0  0  0  0  0
   -8.3226   -0.4864   -0.5621 H   0  0  0  0  0  0  0  0  0  0  0  0
   -8.0813    1.2778   -0.6003 H   0  0  0  0  0  0  0  0  0  0  0  0
   -6.0426    1.1779    0.8194 H   0  0  0  0  0  0  0  0  0  0  0  0
   -3.6306    0.7712    0.9234 H   0  0  0  0  0  0  0  0  0  0  0  0
   -3.1416   -3.1854   -0.7777 H   0  0  0  0  0  0  0  0  0  0  0  0
   -1.5863   -3.9391   -1.1042 H   0  0  0  0  0  0  0  0  0  0  0  0
   -2.4708   -3.1893   -2.4334 H   0  0  0  0  0  0  0  0  0  0  0  0
    0.5943   -2.3813   -1.1227 H   0  0  0  0  0  0  0  0  0  0  0  0
    3.4276    1.1818   -0.8019 H   0  0  0  0  0  0  0  0  0  0  0  0
    6.4271    1.0388    1.5530 H   0  0  0  0  0  0  0  0  0  0  0  0
    8.5581    2.0151    0.8818 H   0  0  0  0  0  0  0  0  0  0  0  0
    4.6856    2.3079   -2.1974 H   0  0  0  0  0  0  0  0  0  0  0  0
   -0.1331    0.6560    2.2092 H   0  0  0  0  0  0  0  0  0  0  0  0
   -1.3599   -0.7467    3.9005 H   0  0  0  0  0  0  0  0  0  0  0  0
   -0.4944   -3.0228    4.4293 H   0  0  0  0  0  0  0  0  0  0  0  0
    1.5456   -3.8492    3.2620 H   0  0  0  0  0  0  0  0  0  0  0  0
    2.6649   -2.3598    1.5703 H   0  0  0  0  0  0  0  0  0  0  0  0
   -2.2520    2.1692   -1.0525 H   0  0  0  0  0  0  0  0  0  0  0  0
   -1.7261    2.0282    0.6460 H   0  0  0  0  0  0  0  0  0  0  0  0
   -0.5759    2.4400   -0.6215 H   0  0  0  0  0  0  0  0  0  0  0  0
   -3.8480   -1.3934   -2.8151 H   0  0  0  0  0  0  0  0  0  0  0  0
   -6.2681   -1.0299   -2.8753 H   0  0  0  0  0  0  0  0  0  0  0  0
  1  2  1  0
  2  3  2  0
  3  4  1  0
  4  5  2  0
  5  6  1  0
  6  7  1  0
  7  8  1  0
  7  9  2  0
  9 10  1  0
 10 11  1  0
 11 12  1  0
 11 13  2  3
 13 14  1  0
 14 15  2  0
 14 16  1  0
 16 17  1  0
 17 18  2  0
 18 19  1  0
 19 20  2  0
 20 21  1  0
 20 22  1  0
 22 23  1  0
 22 24  2  0
 13 25  1  0
 25 26  2  0
 26 27  1  0
 27 28  2  0
 28 29  1  0
 29 30  2  0
 10 31  2  0
 31 32  1  0
  5 33  1  0
 33 34  2  0
 34  2  1  0
 31  6  1  0
 24 17  1  0
 30 25  1  0
  1 35  1  0
  1 36  1  0
  1 37  1  0
  3 38  1  0
  4 39  1  0
  8 40  1  0
  8 41  1  0
  8 42  1  0
  9 43  1  0
 16 44  1  0
 18 45  1  0
 19 46  1  0
 24 47  1  0
 26 48  1  0
 27 49  1  0
 28 50  1  0
 29 51  1  0
 30 52  1  0
 32 53  1  0
 32 54  1  0
 32 55  1  0
 33 56  1  0
 34 57  1  0
M  CHG  2  12  -1  25   1
M  END
$$$$
