
     RDKit          3D

 48 48  0  0  0  0  0  0  0  0999 V2000
   -5.6184    0.9409    2.2575 C   0  0  0  0  0  0  0  0  0  0  0  0
   -5.9984   -0.3051    1.4703 C   0  0  0  0  0  0  0  0  0  0  0  0
   -4.8928   -1.3645    1.4503 C   0  0  0  0  0  0  0  0  0  0  0  0
   -4.0243   -1.3650    0.1862 C   0  0  0  0  0  0  0  0  0  0  0  0
   -3.2138   -0.0850   -0.0163 C   0  0  0  0  0  0  0  0  0  0  0  0
   -2.2955   -0.1327   -1.2425 C   0  0  0  0  0  0  0  0  0  0  0  0
   -1.2032   -1.2071   -1.2216 C   0  0  0  0  0  0  0  0  0  0  0  0
   -0.2792   -1.2009    0.0025 C   0  0  0  0  0  0  0  0  0  0  0  0
    0.4677    0.1111    0.2418 C   0  0  0  0  0  0  0  0  0  0  0  0
    1.5347    0.4092   -0.7989 C   0  0  0  0  0  0  0  0  0  0  0  0
    1.8819   -0.3933   -1.6598 O   0  0  0  0  0  0  0  0  0  0  0  0
    2.0838    1.6850   -0.6175 N   0  0  0  0  0  0  0  0  0  0  0  0
    2.9032    2.2222   -1.5780 N   0  0  0  0  0  0  0  0  0  0  0  0
    4.0525    1.6529   -1.8116 C   0  0  0  0  0  0  0  0  0  0  0  0
    4.8395    2.1554   -3.0013 C   0  0  0  0  0  0  0  0  0  0  0  0
    4.6949    0.5958   -0.9981 C   0  0  0  0  0  0  0  0  0  0  0  0
    4.9090    0.7807    0.3675 C   0  0  0  0  0  0  0  0  0  0  0  0
    5.5586   -0.2158    1.0911 C   0  0  0  0  0  0  0  0  0  0  0  0
    5.9782   -1.3529    0.4158 C   0  0  0  0  0  0  0  0  0  0  0  0
    5.7912   -1.5558   -0.9075 N   0  0  0  0  0  0  0  0  0  0  0  0
    5.1410   -0.5788   -1.5865 C   0  0  0  0  0  0  0  0  0  0  0  0
   -5.3970    0.6900    3.3000 H   0  0  0  0  0  0  0  0  0  0  0  0
   -4.7439    1.4422    1.8364 H   0  0  0  0  0  0  0  0  0  0  0  0
   -6.4486    1.6544    2.2538 H   0  0  0  0  0  0  0  0  0  0  0  0
   -6.2967   -0.0314    0.4521 H   0  0  0  0  0  0  0  0  0  0  0  0
   -6.8848   -0.7384    1.9500 H   0  0  0  0  0  0  0  0  0  0  0  0
   -5.3724   -2.3504    1.5065 H   0  0  0  0  0  0  0  0  0  0  0  0
   -4.2581   -1.2821    2.3407 H   0  0  0  0  0  0  0  0  0  0  0  0
   -3.3472   -2.2236    0.2571 H   0  0  0  0  0  0  0  0  0  0  0  0
   -4.6590   -1.5385   -0.6913 H   0  0  0  0  0  0  0  0  0  0  0  0
   -2.6308    0.1368    0.8842 H   0  0  0  0  0  0  0  0  0  0  0  0
   -3.9010    0.7562   -0.1610 H   0  0  0  0  0  0  0  0  0  0  0  0
   -2.9102   -0.2860   -2.1385 H   0  0  0  0  0  0  0  0  0  0  0  0
   -1.8293    0.8520   -1.3666 H   0  0  0  0  0  0  0  0  0  0  0  0
   -1.6687   -2.1970   -1.2966 H   0  0  0  0  0  0  0  0  0  0  0  0
   -0.6025   -1.0983   -2.1324 H   0  0  0  0  0  0  0  0  0  0  0  0
   -0.8660   -1.4384    0.8976 H   0  0  0  0  0  0  0  0  0  0  0  0
    0.4451   -2.0176   -0.1087 H   0  0  0  0  0  0  0  0  0  0  0  0
   -0.2311    0.9516    0.3001 H   0  0  0  0  0  0  0  0  0  0  0  0
    0.9800    0.0459    1.2100 H   0  0  0  0  0  0  0  0  0  0  0  0
    1.4393    2.3706   -0.2336 H   0  0  0  0  0  0  0  0  0  0  0  0
    4.8308    3.2496   -3.0077 H   0  0  0  0  0  0  0  0  0  0  0  0
    5.8794    1.8196   -2.9722 H   0  0  0  0  0  0  0  0  0  0  0  0
    4.3695    1.7917   -3.9196 H   0  0  0  0  0  0  0  0  0  0  0  0
    4.5818    1.6915    0.8599 H   0  0  0  0  0  0  0  0  0  0  0  0
    5.7399   -0.1078    2.1547 H   0  0  0  0  0  0  0  0  0  0  0  0
    6.4925   -2.1556    0.9373 H   0  0  0  0  0  0  0  0  0  0  0  0
    4.9785   -0.7831   -2.6408 H   0  0  0  0  0  0  0  0  0  0  0  0
  1  2  1  0
  2  3  1  0
  3  4  1  0
  4  5  1  0
  5  6  1  0
  6  7  1  0
  7  8  1  0
  8  9  1  0
  9 10  1  0
 10 11  2  0
 10 12  1  0
 12 13  1  0
 13 14  2  3
 14 15  1  0
 14 16  1  0
 16 17  2  0
 17 18  1  0
 18 19  2  0
 19 20  1  0
 20 21  2  0
 21 16  1  0
  1 22  1  0
  1 23  1  0
  1 24  1  0
  2 25  1  0
  2 26  1  0
  3 27  1  0
  3 28  1  0
  4 29  1  0
  4 30  1  0
  5 31  1  0
  5 32  1  0
  6 33  1  0
  6 34  1  0
  7 35  1  0
  7 36  1  0
  8 37  1  0
  8 38  1  0
  9 39  1  0
  9 40  1  0
 12 41  1  0
 15 42  1  0
 15 43  1  0
 15 44  1  0
 17 45  1  0
 18 46  1  0
 19 47  1  0
 21 48  1  0
M  END
$$$$
