
     RDKit          3D

 48 48  0  0  0  0  0  0  0  0999 V2000
   -4.5429    2.6513   -0.9614 C   0  0  0  0  0  0  0  0  0  0  0  0
   -5.4764    1.5074   -1.3255 C   0  0  0  0  0  0  0  0  0  0  0  0
   -4.7748    0.3467   -2.0351 C   0  0  0  0  0  0  0  0  0  0  0  0
   -3.6458   -0.3271   -1.2477 C   0  0  0  0  0  0  0  0  0  0  0  0
   -4.1113   -0.9313    0.0795 C   0  0  0  0  0  0  0  0  0  0  0  0
   -3.0391   -1.7840    0.7656 C   0  0  0  0  0  0  0  0  0  0  0  0
   -1.8238   -0.9751    1.2258 C   0  0  0  0  0  0  0  0  0  0  0  0
   -0.8368   -1.8539    2.0021 C   0  0  0  0  0  0  0  0  0  0  0  0
    0.3829   -1.0708    2.4873 C   0  0  0  0  0  0  0  0  0  0  0  0
    1.3739   -0.7379    1.3823 C   0  0  0  0  0  0  0  0  0  0  0  0
    1.2743   -1.1664    0.2368 O   0  0  0  0  0  0  0  0  0  0  0  0
    2.4121    0.0732    1.8553 N   0  0  0  0  0  0  0  0  0  0  0  0
    3.2561    0.7006    0.9773 N   0  0  0  0  0  0  0  0  0  0  0  0
    4.0612   -0.0214    0.2476 C   0  0  0  0  0  0  0  0  0  0  0  0
    4.2602   -1.5174    0.4058 C   0  0  0  0  0  0  0  0  0  0  0  0
    4.8750    0.6707   -0.7943 C   0  0  0  0  0  0  0  0  0  0  0  0
    5.4384   -0.0037   -1.8796 C   0  0  0  0  0  0  0  0  0  0  0  0
    6.1872    0.7075   -2.8167 C   0  0  0  0  0  0  0  0  0  0  0  0
    6.3458    2.0725   -2.6381 C   0  0  0  0  0  0  0  0  0  0  0  0
    5.8111    2.7591   -1.6065 N   0  0  0  0  0  0  0  0  0  0  0  0
    5.0804    2.0440   -0.7131 C   0  0  0  0  0  0  0  0  0  0  0  0
   -3.8147    2.3487   -0.2032 H   0  0  0  0  0  0  0  0  0  0  0  0
   -5.1172    3.4890   -0.5528 H   0  0  0  0  0  0  0  0  0  0  0  0
   -3.9995    3.0104   -1.8411 H   0  0  0  0  0  0  0  0  0  0  0  0
   -6.2582    1.8943   -1.9904 H   0  0  0  0  0  0  0  0  0  0  0  0
   -5.9875    1.1511   -0.4244 H   0  0  0  0  0  0  0  0  0  0  0  0
   -4.3643    0.7089   -2.9860 H   0  0  0  0  0  0  0  0  0  0  0  0
   -5.5278   -0.4082   -2.2935 H   0  0  0  0  0  0  0  0  0  0  0  0
   -3.2229   -1.1219   -1.8748 H   0  0  0  0  0  0  0  0  0  0  0  0
   -2.8393    0.3935   -1.0763 H   0  0  0  0  0  0  0  0  0  0  0  0
   -4.9873   -1.5657   -0.1034 H   0  0  0  0  0  0  0  0  0  0  0  0
   -4.4303   -0.1383    0.7653 H   0  0  0  0  0  0  0  0  0  0  0  0
   -3.4959   -2.2712    1.6361 H   0  0  0  0  0  0  0  0  0  0  0  0
   -2.7168   -2.5848    0.0890 H   0  0  0  0  0  0  0  0  0  0  0  0
   -1.3210   -0.5344    0.3591 H   0  0  0  0  0  0  0  0  0  0  0  0
   -2.1552   -0.1468    1.8637 H   0  0  0  0  0  0  0  0  0  0  0  0
   -1.3494   -2.2725    2.8770 H   0  0  0  0  0  0  0  0  0  0  0  0
   -0.5227   -2.7013    1.3809 H   0  0  0  0  0  0  0  0  0  0  0  0
    0.9194   -1.6782    3.2264 H   0  0  0  0  0  0  0  0  0  0  0  0
    0.0645   -0.1449    2.9799 H   0  0  0  0  0  0  0  0  0  0  0  0
    2.1557    0.6726    2.6352 H   0  0  0  0  0  0  0  0  0  0  0  0
    4.0049   -1.8491    1.4154 H   0  0  0  0  0  0  0  0  0  0  0  0
    3.6447   -2.0534   -0.3210 H   0  0  0  0  0  0  0  0  0  0  0  0
    5.3101   -1.7819    0.2466 H   0  0  0  0  0  0  0  0  0  0  0  0
    5.2917   -1.0696   -2.0240 H   0  0  0  0  0  0  0  0  0  0  0  0
    6.6314    0.2086   -3.6712 H   0  0  0  0  0  0  0  0  0  0  0  0
    6.9200    2.6675   -3.3428 H   0  0  0  0  0  0  0  0  0  0  0  0
    4.6598    2.6333    0.0976 H   0  0  0  0  0  0  0  0  0  0  0  0
  1  2  1  0
  2  3  1  0
  3  4  1  0
  4  5  1  0
  5  6  1  0
  6  7  1  0
  7  8  1  0
  8  9  1  0
  9 10  1  0
 10 11  2  0
 10 12  1  0
 12 13  1  0
 13 14  2  3
 14 15  1  0
 14 16  1  0
 16 17  2  0
 17 18  1  0
 18 19  2  0
 19 20  1  0
 20 21  2  0
 21 16  1  0
  1 22  1  0
  1 23  1  0
  1 24  1  0
  2 25  1  0
  2 26  1  0
  3 27  1  0
  3 28  1  0
  4 29  1  0
  4 30  1  0
  5 31  1  0
  5 32  1  0
  6 33  1  0
  6 34  1  0
  7 35  1  0
  7 36  1  0
  8 37  1  0
  8 38  1  0
  9 39  1  0
  9 40  1  0
 12 41  1  0
 15 42  1  0
 15 43  1  0
 15 44  1  0
 17 45  1  0
 18 46  1  0
 19 47  1  0
 21 48  1  0
M  END
$$$$
