
     RDKit          3D

 48 50  0  0  0  0  0  0  0  0999 V2000
    1.1147   -3.2936    2.4556 C   0  0  0  0  0  0  0  0  0  0  0  0
    1.0661   -1.7883    2.6699 C   0  0  0  0  0  0  0  0  0  0  0  0
    1.7805   -1.0504    1.5798 C   0  0  0  0  0  0  0  0  0  0  0  0
    1.2765   -0.3174    0.5892 C   0  0  0  0  0  0  0  0  0  0  0  0
   -0.1431   -0.0955    0.3254 C   0  0  0  0  0  0  0  0  0  0  0  0
   -0.8004    1.0111    0.8797 C   0  0  0  0  0  0  0  0  0  0  0  0
   -2.1622    1.2153    0.6480 C   0  0  0  0  0  0  0  0  0  0  0  0
   -2.8912    2.2680    1.1376 O   0  0  0  0  0  0  0  0  0  0  0  0
   -2.2508    3.1375    2.0608 C   0  0  0  0  0  0  0  0  0  0  0  0
   -2.8592    0.2939   -0.1523 C   0  0  0  0  0  0  0  0  0  0  0  0
   -4.2126    0.4627   -0.3506 O   0  0  0  0  0  0  0  0  0  0  0  0
   -4.4350    1.2322   -1.5309 C   0  0  0  0  0  0  0  0  0  0  0  0
   -2.2242   -0.8421   -0.6824 C   0  0  0  0  0  0  0  0  0  0  0  0
   -3.0090   -1.6885   -1.4218 O   0  0  0  0  0  0  0  0  0  0  0  0
   -2.4371   -2.9235   -1.8301 C   0  0  0  0  0  0  0  0  0  0  0  0
   -0.8618   -1.0255   -0.4396 C   0  0  0  0  0  0  0  0  0  0  0  0
    2.3834    0.2293   -0.2470 C   0  0  0  0  0  0  0  0  0  0  0  0
    2.4025   -0.2439   -1.7097 C   0  0  0  0  0  0  0  0  0  0  0  0
    3.0735    0.8991   -2.4615 C   0  0  0  0  0  0  0  0  0  0  0  0
    2.5287    2.1343   -1.7664 C   0  0  0  0  0  0  0  0  0  0  0  0
    2.5143    1.7641   -0.2845 C   0  0  0  0  0  0  0  0  0  0  0  0
    3.5662   -0.3808    0.5121 C   0  0  0  0  0  0  0  0  0  0  0  0
    4.7438   -0.2395    0.2023 O   0  0  0  0  0  0  0  0  0  0  0  0
    3.1712   -1.1194    1.6015 O   0  0  0  0  0  0  0  0  0  0  0  0
    2.1462   -3.6611    2.4393 H   0  0  0  0  0  0  0  0  0  0  0  0
    0.6375   -3.5741    1.5105 H   0  0  0  0  0  0  0  0  0  0  0  0
    0.5873   -3.8071    3.2659 H   0  0  0  0  0  0  0  0  0  0  0  0
    1.5275   -1.5402    3.6331 H   0  0  0  0  0  0  0  0  0  0  0  0
    0.0195   -1.4721    2.7406 H   0  0  0  0  0  0  0  0  0  0  0  0
   -0.2303    1.6988    1.4955 H   0  0  0  0  0  0  0  0  0  0  0  0
   -1.8997    2.5917    2.9428 H   0  0  0  0  0  0  0  0  0  0  0  0
   -1.4324    3.6846    1.5816 H   0  0  0  0  0  0  0  0  0  0  0  0
   -2.9895    3.8718    2.3963 H   0  0  0  0  0  0  0  0  0  0  0  0
   -4.0425    0.7250   -2.4190 H   0  0  0  0  0  0  0  0  0  0  0  0
   -3.9994    2.2335   -1.4435 H   0  0  0  0  0  0  0  0  0  0  0  0
   -5.5159    1.3450   -1.6577 H   0  0  0  0  0  0  0  0  0  0  0  0
   -1.6282   -2.7616   -2.5500 H   0  0  0  0  0  0  0  0  0  0  0  0
   -3.2174   -3.5035   -2.3323 H   0  0  0  0  0  0  0  0  0  0  0  0
   -2.0911   -3.5058   -0.9696 H   0  0  0  0  0  0  0  0  0  0  0  0
   -0.3342   -1.8869   -0.8370 H   0  0  0  0  0  0  0  0  0  0  0  0
    1.3902   -0.3780   -2.1067 H   0  0  0  0  0  0  0  0  0  0  0  0
    2.9452   -1.1838   -1.8580 H   0  0  0  0  0  0  0  0  0  0  0  0
    2.8381    0.8860   -3.5296 H   0  0  0  0  0  0  0  0  0  0  0  0
    4.1626    0.8463   -2.3500 H   0  0  0  0  0  0  0  0  0  0  0  0
    3.1326    3.0245   -1.9645 H   0  0  0  0  0  0  0  0  0  0  0  0
    1.5062    2.3359   -2.1081 H   0  0  0  0  0  0  0  0  0  0  0  0
    1.7038    2.2922    0.2255 H   0  0  0  0  0  0  0  0  0  0  0  0
    3.4492    2.0996    0.1811 H   0  0  0  0  0  0  0  0  0  0  0  0
  1  2  1  0
  2  3  1  0
  3  4  2  0
  4  5  1  0
  5  6  2  0
  6  7  1  0
  7  8  1  0
  8  9  1  0
  7 10  2  0
 10 11  1  0
 11 12  1  0
 10 13  1  0
 13 14  1  0
 14 15  1  0
 13 16  2  0
  4 17  1  0
 17 18  1  0
 18 19  1  0
 19 20  1  0
 20 21  1  0
 17 22  1  0
 22 23  2  0
 22 24  1  0
 24  3  1  0
 16  5  1  0
 21 17  1  0
  1 25  1  0
  1 26  1  0
  1 27  1  0
  2 28  1  0
  2 29  1  0
  6 30  1  0
  9 31  1  0
  9 32  1  0
  9 33  1  0
 12 34  1  0
 12 35  1  0
 12 36  1  0
 15 37  1  0
 15 38  1  0
 15 39  1  0
 16 40  1  0
 18 41  1  0
 18 42  1  0
 19 43  1  0
 19 44  1  0
 20 45  1  0
 20 46  1  0
 21 47  1  0
 21 48  1  0
M  END
$$$$
