
     RDKit          3D

 52 54  0  0  0  0  0  0  0  0999 V2000
    0.6962   -3.1669   -0.0439 O   0  0  0  0  0  0  0  0  0  0  0  0
    1.2582   -2.0798   -0.0971 C   0  0  0  0  0  0  0  0  0  0  0  0
    2.5902   -1.8320   -0.3666 N   0  0  0  0  0  0  0  0  0  0  0  0
    3.6124   -2.7787   -0.5818 C   0  0  0  0  0  0  0  0  0  0  0  0
    3.4265   -4.1600   -0.5033 C   0  0  0  0  0  0  0  0  0  0  0  0
    4.4970   -5.0327   -0.7252 C   0  0  0  0  0  0  0  0  0  0  0  0
    5.7616   -4.5320   -1.0227 C   0  0  0  0  0  0  0  0  0  0  0  0
    5.9585   -3.1563   -1.1015 C   0  0  0  0  0  0  0  0  0  0  0  0
    4.8888   -2.2843   -0.8819 C   0  0  0  0  0  0  0  0  0  0  0  0
    0.4571   -0.8232    0.1101 C   0  0  0  0  0  0  0  0  0  0  0  0
    0.8964    0.1199    0.9619 C   0  0  0  0  0  0  0  0  0  0  0  0
    0.1361    1.3954    1.2066 C   0  0  0  0  0  0  0  0  0  0  0  0
    1.0473    2.6121    1.1740 C   0  0  0  0  0  0  0  0  0  0  0  0
    1.7416    2.9783    0.0078 C   0  0  0  0  0  0  0  0  0  0  0  0
    2.5845    4.0922   -0.0011 C   0  0  0  0  0  0  0  0  0  0  0  0
    2.7428    4.8479    1.1575 C   0  0  0  0  0  0  0  0  0  0  0  0
    3.8853    6.3535    1.1477 Br  0  0  0  0  0  0  0  0  0  0  0  0
    2.0656    4.5012    2.3237 C   0  0  0  0  0  0  0  0  0  0  0  0
    1.2220    3.3874    2.3316 C   0  0  0  0  0  0  0  0  0  0  0  0
   -1.0449    1.5335    0.2401 C   0  0  0  0  0  0  0  0  0  0  0  0
   -1.6881    0.1662    0.0320 C   0  0  0  0  0  0  0  0  0  0  0  0
   -2.8161    0.3593   -0.8275 O   0  0  0  0  0  0  0  0  0  0  0  0
   -3.5570   -0.8431   -1.0187 C   0  0  0  0  0  0  0  0  0  0  0  0
   -4.8067   -0.5346   -1.8394 C   0  0  0  0  0  0  0  0  0  0  0  0
   -5.7112    0.5420   -1.2334 C   0  0  0  0  0  0  0  0  0  0  0  0
   -6.2751    0.1617    0.1294 C   0  0  0  0  0  0  0  0  0  0  0  0
   -7.1646    1.1722    0.5867 O   0  0  0  0  0  0  0  0  0  0  0  0
   -0.7524   -0.7448   -0.5512 O   0  0  0  0  0  0  0  0  0  0  0  0
    2.8615   -0.8620   -0.4596 H   0  0  0  0  0  0  0  0  0  0  0  0
    2.4593   -4.5940   -0.2694 H   0  0  0  0  0  0  0  0  0  0  0  0
    4.3371   -6.1064   -0.6618 H   0  0  0  0  0  0  0  0  0  0  0  0
    6.5905   -5.2138   -1.1936 H   0  0  0  0  0  0  0  0  0  0  0  0
    6.9439   -2.7609   -1.3340 H   0  0  0  0  0  0  0  0  0  0  0  0
    5.0703   -1.2149   -0.9509 H   0  0  0  0  0  0  0  0  0  0  0  0
    1.8176   -0.0224    1.5226 H   0  0  0  0  0  0  0  0  0  0  0  0
   -0.2806    1.3059    2.2201 H   0  0  0  0  0  0  0  0  0  0  0  0
    1.6293    2.3999   -0.9073 H   0  0  0  0  0  0  0  0  0  0  0  0
    3.1089    4.3608   -0.9143 H   0  0  0  0  0  0  0  0  0  0  0  0
    2.1861    5.0889    3.2302 H   0  0  0  0  0  0  0  0  0  0  0  0
    0.7019    3.1317    3.2530 H   0  0  0  0  0  0  0  0  0  0  0  0
   -0.7237    1.9226   -0.7354 H   0  0  0  0  0  0  0  0  0  0  0  0
   -1.7768    2.2555    0.6234 H   0  0  0  0  0  0  0  0  0  0  0  0
   -2.0440   -0.2366    0.9907 H   0  0  0  0  0  0  0  0  0  0  0  0
   -2.9440   -1.5700   -1.5630 H   0  0  0  0  0  0  0  0  0  0  0  0
   -3.8298   -1.2783   -0.0513 H   0  0  0  0  0  0  0  0  0  0  0  0
   -4.4952   -0.1850   -2.8318 H   0  0  0  0  0  0  0  0  0  0  0  0
   -5.3782   -1.4580   -1.9883 H   0  0  0  0  0  0  0  0  0  0  0  0
   -5.1757    1.4961   -1.1544 H   0  0  0  0  0  0  0  0  0  0  0  0
   -6.5422    0.7334   -1.9245 H   0  0  0  0  0  0  0  0  0  0  0  0
   -5.4822    0.0625    0.8757 H   0  0  0  0  0  0  0  0  0  0  0  0
   -6.8236   -0.7843    0.0811 H   0  0  0  0  0  0  0  0  0  0  0  0
   -7.8620    1.2752   -0.0834 H   0  0  0  0  0  0  0  0  0  0  0  0
  1  2  2  0
  2  3  1  0
  3  4  1  0
  4  5  2  0
  5  6  1  0
  6  7  2  0
  7  8  1  0
  8  9  2  0
  2 10  1  0
 10 11  2  0
 11 12  1  0
 12 13  1  0
 13 14  2  0
 14 15  1  0
 15 16  2  0
 16 17  1  0
 16 18  1  0
 18 19  2  0
 12 20  1  0
 20 21  1  0
 21 22  1  0
 22 23  1  0
 23 24  1  0
 24 25  1  0
 25 26  1  0
 26 27  1  0
 21 28  1  0
  9  4  1  0
 28 10  1  0
 19 13  1  0
  3 29  1  0
  5 30  1  0
  6 31  1  0
  7 32  1  0
  8 33  1  0
  9 34  1  0
 11 35  1  0
 12 36  1  0
 14 37  1  0
 15 38  1  0
 18 39  1  0
 19 40  1  0
 20 41  1  0
 20 42  1  0
 21 43  1  0
 23 44  1  0
 23 45  1  0
 24 46  1  0
 24 47  1  0
 25 48  1  0
 25 49  1  0
 26 50  1  0
 26 51  1  0
 27 52  1  0
M  END
$$$$
