
     RDKit          3D

 53 56  0  0  0  0  0  0  0  0999 V2000
    1.0556   -1.0282   -6.5163 C   0  0  0  0  0  0  0  0  0  0  0  0
    1.3181   -0.4094   -5.2636 O   0  0  0  0  0  0  0  0  0  0  0  0
    0.9961   -1.1221   -4.1424 C   0  0  0  0  0  0  0  0  0  0  0  0
    0.4436   -2.3984   -4.1105 C   0  0  0  0  0  0  0  0  0  0  0  0
    0.1681   -3.0179   -2.8848 C   0  0  0  0  0  0  0  0  0  0  0  0
    0.4409   -2.3705   -1.6746 C   0  0  0  0  0  0  0  0  0  0  0  0
    0.2099   -2.9174   -0.4402 O   0  0  0  0  0  0  0  0  0  0  0  0
   -0.0971   -4.3052   -0.3887 C   0  0  0  0  0  0  0  0  0  0  0  0
    0.9818   -1.0733   -1.6951 C   0  0  0  0  0  0  0  0  0  0  0  0
    1.2919   -0.3069   -0.4269 C   0  0  0  0  0  0  0  0  0  0  0  0
    0.4014    0.8576   -0.2733 N   0  0  0  0  0  0  0  0  0  0  0  0
    0.6166    1.5139    0.9828 N   0  0  0  0  0  0  0  0  0  0  0  0
   -0.4136    1.5847    1.9277 C   0  0  0  0  0  0  0  0  0  0  0  0
   -1.7090    0.9084    1.6565 C   0  0  0  0  0  0  0  0  0  0  0  0
   -2.8718    1.6871    1.6609 C   0  0  0  0  0  0  0  0  0  0  0  0
   -4.1099    1.0889    1.4319 C   0  0  0  0  0  0  0  0  0  0  0  0
   -4.1898   -0.2879    1.2159 C   0  0  0  0  0  0  0  0  0  0  0  0
   -3.0359   -1.0822    1.2477 C   0  0  0  0  0  0  0  0  0  0  0  0
   -3.1212   -2.5569    0.9908 C   0  0  0  0  0  0  0  0  0  0  0  0
   -1.7918   -0.4743    1.4668 C   0  0  0  0  0  0  0  0  0  0  0  0
   -0.3053    2.2562    3.0354 N   0  0  0  0  0  0  0  0  0  0  0  0
    0.8943    2.9261    3.3040 C   0  0  0  0  0  0  0  0  0  0  0  0
    1.0378    3.5774    4.5314 C   0  0  0  0  0  0  0  0  0  0  0  0
    2.2097    4.2763    4.8359 C   0  0  0  0  0  0  0  0  0  0  0  0
    3.2512    4.3324    3.9099 C   0  0  0  0  0  0  0  0  0  0  0  0
    3.1208    3.6878    2.6806 C   0  0  0  0  0  0  0  0  0  0  0  0
    1.9439    2.9868    2.3893 C   0  0  0  0  0  0  0  0  0  0  0  0
    1.7726    2.2956    1.1013 C   0  0  0  0  0  0  0  0  0  0  0  0
    2.6027    2.4494    0.2052 O   0  0  0  0  0  0  0  0  0  0  0  0
    1.2628   -0.4702   -2.9377 C   0  0  0  0  0  0  0  0  0  0  0  0
    1.3522   -0.3283   -7.3038 H   0  0  0  0  0  0  0  0  0  0  0  0
    1.6512   -1.9396   -6.6378 H   0  0  0  0  0  0  0  0  0  0  0  0
   -0.0130   -1.2344   -6.6397 H   0  0  0  0  0  0  0  0  0  0  0  0
    0.2139   -2.9444   -5.0192 H   0  0  0  0  0  0  0  0  0  0  0  0
   -0.2676   -4.0112   -2.9136 H   0  0  0  0  0  0  0  0  0  0  0  0
   -1.0797   -4.5061   -0.8277 H   0  0  0  0  0  0  0  0  0  0  0  0
   -0.1391   -4.5983    0.6649 H   0  0  0  0  0  0  0  0  0  0  0  0
    0.6830   -4.9046   -0.8698 H   0  0  0  0  0  0  0  0  0  0  0  0
    1.2124   -0.9555    0.4521 H   0  0  0  0  0  0  0  0  0  0  0  0
    2.3437    0.0027   -0.4720 H   0  0  0  0  0  0  0  0  0  0  0  0
    0.6558    1.5345   -0.9975 H   0  0  0  0  0  0  0  0  0  0  0  0
   -2.8120    2.7580    1.8381 H   0  0  0  0  0  0  0  0  0  0  0  0
   -5.0122    1.6946    1.4215 H   0  0  0  0  0  0  0  0  0  0  0  0
   -5.1614   -0.7399    1.0289 H   0  0  0  0  0  0  0  0  0  0  0  0
   -4.0975   -2.9522    1.2925 H   0  0  0  0  0  0  0  0  0  0  0  0
   -2.3608   -3.0968    1.5661 H   0  0  0  0  0  0  0  0  0  0  0  0
   -2.9741   -2.7596   -0.0752 H   0  0  0  0  0  0  0  0  0  0  0  0
   -0.8918   -1.0813    1.4931 H   0  0  0  0  0  0  0  0  0  0  0  0
    0.2252    3.5402    5.2532 H   0  0  0  0  0  0  0  0  0  0  0  0
    2.3055    4.7789    5.7955 H   0  0  0  0  0  0  0  0  0  0  0  0
    4.1615    4.8787    4.1450 H   0  0  0  0  0  0  0  0  0  0  0  0
    3.9297    3.7308    1.9545 H   0  0  0  0  0  0  0  0  0  0  0  0
    1.7008    0.5261   -2.9692 H   0  0  0  0  0  0  0  0  0  0  0  0
  1  2  1  0
  2  3  1  0
  3  4  2  0
  4  5  1  0
  5  6  2  0
  6  7  1  0
  7  8  1  0
  6  9  1  0
  9 10  1  0
 10 11  1  0
 11 12  1  0
 12 13  1  0
 13 14  1  0
 14 15  2  0
 15 16  1  0
 16 17  2  0
 17 18  1  0
 18 19  1  0
 18 20  2  0
 13 21  2  0
 21 22  1  0
 22 23  2  0
 23 24  1  0
 24 25  2  0
 25 26  1  0
 26 27  2  0
 27 28  1  0
 28 29  2  0
  9 30  2  0
 30  3  1  0
 28 12  1  0
 20 14  1  0
 27 22  1  0
  1 31  1  0
  1 32  1  0
  1 33  1  0
  4 34  1  0
  5 35  1  0
  8 36  1  0
  8 37  1  0
  8 38  1  0
 10 39  1  0
 10 40  1  0
 11 41  1  0
 15 42  1  0
 16 43  1  0
 17 44  1  0
 19 45  1  0
 19 46  1  0
 19 47  1  0
 20 48  1  0
 23 49  1  0
 24 50  1  0
 25 51  1  0
 26 52  1  0
 30 53  1  0
M  END
$$$$
