
     RDKit          3D

 76 78  0  0  0  0  0  0  0  0999 V2000
    8.2670    1.4345    1.5774 C   0  0  0  0  0  0  0  0  0  0  0  0
    6.8279    1.7206    1.9787 C   0  0  0  0  0  0  0  0  0  0  0  0
    5.9879    0.4424    1.9906 C   0  0  0  0  0  0  0  0  0  0  0  0
    4.5539    0.6511    2.4995 C   0  0  0  0  0  0  0  0  0  0  0  0
    3.7156    1.4580    1.6021 N   0  0  0  0  0  0  0  0  0  0  0  0
    2.9879    0.8574    0.5745 C   0  0  0  0  0  0  0  0  0  0  0  0
    3.1695   -0.4899    0.2804 N   0  0  0  0  0  0  0  0  0  0  0  0
    2.1032    1.5939   -0.1472 C   0  0  0  0  0  0  0  0  0  0  0  0
    1.2970    1.0437   -1.1528 N   0  0  0  0  0  0  0  0  0  0  0  0
    1.2976    1.6722   -2.4878 C   0  0  0  0  0  0  0  0  0  0  0  0
    2.3401    1.1146   -3.4824 C   0  0  0  0  0  0  0  0  0  0  0  0
    3.7794    1.4173   -3.0637 C   0  0  0  0  0  0  0  0  0  0  0  0
    2.1653   -0.3744   -3.7735 C   0  0  0  0  0  0  0  0  0  0  0  0
    0.3132    0.0661   -0.9072 C   0  0  0  0  0  0  0  0  0  0  0  0
   -0.3068   -0.4671   -1.8344 O   0  0  0  0  0  0  0  0  0  0  0  0
    0.0033   -0.2914    0.5592 C   0  0  0  0  0  0  0  0  0  0  0  0
   -1.2254   -1.0536    0.6134 N   0  0  0  0  0  0  0  0  0  0  0  0
   -1.2924   -2.4068    0.5405 C   0  0  0  0  0  0  0  0  0  0  0  0
   -0.3658   -3.1957    0.4657 O   0  0  0  0  0  0  0  0  0  0  0  0
   -2.6153   -2.7773    0.5792 N   0  0  0  0  0  0  0  0  0  0  0  0
   -3.5198   -1.6388    0.5214 C   0  0  0  0  0  0  0  0  0  0  0  0
   -4.4655   -1.6389    1.7246 C   0  0  0  0  0  0  0  0  0  0  0  0
   -5.7648   -2.3789    1.4000 C   0  0  0  0  0  0  0  0  0  0  0  0
   -6.6460   -2.5088    2.6419 C   0  0  0  0  0  0  0  0  0  0  0  0
   -6.5404   -1.7002    0.2552 C   0  0  0  0  0  0  0  0  0  0  0  0
   -5.6597   -1.0308   -0.8334 C   0  0  0  0  0  0  0  0  0  0  0  0
   -5.6252    0.4953   -0.6167 C   0  0  0  0  0  0  0  0  0  0  0  0
   -6.3000   -1.2736   -2.2171 C   0  0  0  0  0  0  0  0  0  0  0  0
   -4.2290   -1.6197   -0.8458 C   0  0  0  0  0  0  0  0  0  0  0  0
   -2.4752   -0.5051    0.6263 C   0  0  0  0  0  0  0  0  0  0  0  0
   -2.7221    0.6919    0.6897 O   0  0  0  0  0  0  0  0  0  0  0  0
    1.9743    3.0508    0.1646 C   0  0  0  0  0  0  0  0  0  0  0  0
    1.0669    3.7477   -0.2800 O   0  0  0  0  0  0  0  0  0  0  0  0
    2.9009    3.5657    1.0114 N   0  0  0  0  0  0  0  0  0  0  0  0
    3.6473    2.8214    1.8710 C   0  0  0  0  0  0  0  0  0  0  0  0
    4.2004    3.3752    2.8187 O   0  0  0  0  0  0  0  0  0  0  0  0
    8.3151    1.0044    0.5722 H   0  0  0  0  0  0  0  0  0  0  0  0
    8.8522    2.3594    1.5796 H   0  0  0  0  0  0  0  0  0  0  0  0
    8.7378    0.7353    2.2755 H   0  0  0  0  0  0  0  0  0  0  0  0
    6.8201    2.1837    2.9718 H   0  0  0  0  0  0  0  0  0  0  0  0
    6.4060    2.4444    1.2741 H   0  0  0  0  0  0  0  0  0  0  0  0
    6.4735   -0.2923    2.6447 H   0  0  0  0  0  0  0  0  0  0  0  0
    5.9806    0.0108    0.9838 H   0  0  0  0  0  0  0  0  0  0  0  0
    4.0708   -0.3208    2.6594 H   0  0  0  0  0  0  0  0  0  0  0  0
    4.5892    1.1209    3.4905 H   0  0  0  0  0  0  0  0  0  0  0  0
    4.1213   -0.8095    0.4239 H   0  0  0  0  0  0  0  0  0  0  0  0
    2.8536   -0.7374   -0.6577 H   0  0  0  0  0  0  0  0  0  0  0  0
    0.2992    1.5644   -2.9310 H   0  0  0  0  0  0  0  0  0  0  0  0
    1.4544    2.7507   -2.3977 H   0  0  0  0  0  0  0  0  0  0  0  0
    2.1731    1.6462   -4.4297 H   0  0  0  0  0  0  0  0  0  0  0  0
    4.0903    0.8231   -2.2010 H   0  0  0  0  0  0  0  0  0  0  0  0
    4.4703    1.1867   -3.8823 H   0  0  0  0  0  0  0  0  0  0  0  0
    3.9018    2.4772   -2.8171 H   0  0  0  0  0  0  0  0  0  0  0  0
    1.1511   -0.5853   -4.1277 H   0  0  0  0  0  0  0  0  0  0  0  0
    2.8599   -0.6964   -4.5565 H   0  0  0  0  0  0  0  0  0  0  0  0
    2.3578   -0.9884   -2.8890 H   0  0  0  0  0  0  0  0  0  0  0  0
   -0.1267    0.6245    1.1432 H   0  0  0  0  0  0  0  0  0  0  0  0
    0.7993   -0.9091    0.9746 H   0  0  0  0  0  0  0  0  0  0  0  0
   -2.8760   -3.7452    0.4435 H   0  0  0  0  0  0  0  0  0  0  0  0
   -3.9767   -2.1061    2.5898 H   0  0  0  0  0  0  0  0  0  0  0  0
   -4.6996   -0.6150    2.0394 H   0  0  0  0  0  0  0  0  0  0  0  0
   -5.5059   -3.3966    1.0777 H   0  0  0  0  0  0  0  0  0  0  0  0
   -6.1236   -3.0527    3.4355 H   0  0  0  0  0  0  0  0  0  0  0  0
   -7.5653   -3.0572    2.4093 H   0  0  0  0  0  0  0  0  0  0  0  0
   -6.9266   -1.5261    3.0350 H   0  0  0  0  0  0  0  0  0  0  0  0
   -7.1828   -2.4681   -0.1973 H   0  0  0  0  0  0  0  0  0  0  0  0
   -7.2356   -0.9554    0.6653 H   0  0  0  0  0  0  0  0  0  0  0  0
   -4.9541    0.9817   -1.3341 H   0  0  0  0  0  0  0  0  0  0  0  0
   -6.6216    0.9332   -0.7509 H   0  0  0  0  0  0  0  0  0  0  0  0
   -5.2961    0.7662    0.3891 H   0  0  0  0  0  0  0  0  0  0  0  0
   -6.3524   -2.3436   -2.4475 H   0  0  0  0  0  0  0  0  0  0  0  0
   -7.3197   -0.8748   -2.2581 H   0  0  0  0  0  0  0  0  0  0  0  0
   -5.7199   -0.7915   -3.0119 H   0  0  0  0  0  0  0  0  0  0  0  0
   -4.2997   -2.6530   -1.2178 H   0  0  0  0  0  0  0  0  0  0  0  0
   -3.6161   -1.0889   -1.5875 H   0  0  0  0  0  0  0  0  0  0  0  0
    2.7759    4.5320    1.2730 H   0  0  0  0  0  0  0  0  0  0  0  0
  1  2  1  0
  2  3  1  0
  3  4  1  0
  4  5  1  0
  5  6  1  0
  6  7  1  0
  6  8  2  0
  8  9  1  0
  9 10  1  0
 10 11  1  0
 11 12  1  0
 11 13  1  0
  9 14  1  0
 14 15  2  0
 14 16  1  0
 16 17  1  0
 17 18  1  0
 18 19  2  0
 18 20  1  0
 20 21  1  0
 21 22  1  0
 22 23  1  0
 23 24  1  0
 23 25  1  0
 25 26  1  0
 26 27  1  0
 26 28  1  0
 26 29  1  0
 21 30  1  0
 30 31  2  0
  8 32  1  0
 32 33  2  0
 32 34  1  0
 34 35  1  0
 35 36  2  0
 35  5  1  0
 30 17  1  0
 29 21  1  0
  1 37  1  0
  1 38  1  0
  1 39  1  0
  2 40  1  0
  2 41  1  0
  3 42  1  0
  3 43  1  0
  4 44  1  0
  4 45  1  0
  7 46  1  0
  7 47  1  0
 10 48  1  0
 10 49  1  0
 11 50  1  0
 12 51  1  0
 12 52  1  0
 12 53  1  0
 13 54  1  0
 13 55  1  0
 13 56  1  0
 16 57  1  0
 16 58  1  0
 20 59  1  0
 22 60  1  0
 22 61  1  0
 23 62  1  0
 24 63  1  0
 24 64  1  0
 24 65  1  0
 25 66  1  0
 25 67  1  0
 27 68  1  0
 27 69  1  0
 27 70  1  0
 28 71  1  0
 28 72  1  0
 28 73  1  0
 29 74  1  0
 29 75  1  0
 34 76  1  0
M  END
$$$$
