
     RDKit          3D

 37 37  0  0  0  0  0  0  0  0999 V2000
    5.0999    1.6984    0.3480 C   0  0  0  0  0  0  0  0  0  0  0  0
    4.4080    0.7089   -0.5776 C   0  0  0  0  0  0  0  0  0  0  0  0
    3.7882   -0.4481    0.2074 C   0  0  0  0  0  0  0  0  0  0  0  0
    3.1927   -1.5441   -0.6850 C   0  0  0  0  0  0  0  0  0  0  0  0
    2.0113   -1.1016   -1.5487 C   0  0  0  0  0  0  0  0  0  0  0  0
    0.7504   -0.7989   -0.7539 C   0  0  0  0  0  0  0  0  0  0  0  0
    0.6264   -1.0670    0.4371 O   0  0  0  0  0  0  0  0  0  0  0  0
   -0.2406   -0.2322   -1.5639 N   0  0  0  0  0  0  0  0  0  0  0  0
   -1.3474    0.3471   -1.0010 N   0  0  0  0  0  0  0  0  0  0  0  0
   -2.2058   -0.4102   -0.3747 C   0  0  0  0  0  0  0  0  0  0  0  0
   -2.1616   -1.9270   -0.3530 C   0  0  0  0  0  0  0  0  0  0  0  0
   -3.3400    0.2547    0.3443 C   0  0  0  0  0  0  0  0  0  0  0  0
   -3.9975   -0.3760    1.4087 C   0  0  0  0  0  0  0  0  0  0  0  0
   -5.0506    0.2690    2.0658 C   0  0  0  0  0  0  0  0  0  0  0  0
   -5.4433    1.5448    1.6647 C   0  0  0  0  0  0  0  0  0  0  0  0
   -6.7393    2.3342    2.4746 Cl  0  0  0  0  0  0  0  0  0  0  0  0
   -4.7896    2.1859    0.6148 C   0  0  0  0  0  0  0  0  0  0  0  0
   -3.7366    1.5431   -0.0423 C   0  0  0  0  0  0  0  0  0  0  0  0
    5.5325    2.5202   -0.2313 H   0  0  0  0  0  0  0  0  0  0  0  0
    5.9077    1.2150    0.9066 H   0  0  0  0  0  0  0  0  0  0  0  0
    4.3919    2.1245    1.0660 H   0  0  0  0  0  0  0  0  0  0  0  0
    5.1365    0.3228   -1.2996 H   0  0  0  0  0  0  0  0  0  0  0  0
    3.6370    1.2424   -1.1433 H   0  0  0  0  0  0  0  0  0  0  0  0
    4.5631   -0.9082    0.8336 H   0  0  0  0  0  0  0  0  0  0  0  0
    3.0261   -0.0606    0.8928 H   0  0  0  0  0  0  0  0  0  0  0  0
    2.8846   -2.3819   -0.0472 H   0  0  0  0  0  0  0  0  0  0  0  0
    3.9814   -1.9294   -1.3431 H   0  0  0  0  0  0  0  0  0  0  0  0
    2.2795   -0.2325   -2.1574 H   0  0  0  0  0  0  0  0  0  0  0  0
    1.7615   -1.9173   -2.2387 H   0  0  0  0  0  0  0  0  0  0  0  0
    0.1145    0.3056   -2.3495 H   0  0  0  0  0  0  0  0  0  0  0  0
   -1.6536   -2.2724    0.5509 H   0  0  0  0  0  0  0  0  0  0  0  0
   -3.1751   -2.3394   -0.3704 H   0  0  0  0  0  0  0  0  0  0  0  0
   -1.6481   -2.3214   -1.2336 H   0  0  0  0  0  0  0  0  0  0  0  0
   -3.6929   -1.3596    1.7558 H   0  0  0  0  0  0  0  0  0  0  0  0
   -5.5532   -0.2261    2.8929 H   0  0  0  0  0  0  0  0  0  0  0  0
   -5.0889    3.1834    0.3046 H   0  0  0  0  0  0  0  0  0  0  0  0
   -3.2293    2.0537   -0.8582 H   0  0  0  0  0  0  0  0  0  0  0  0
  1  2  1  0
  2  3  1  0
  3  4  1  0
  4  5  1  0
  5  6  1  0
  6  7  2  0
  6  8  1  0
  8  9  1  0
  9 10  2  3
 10 11  1  0
 10 12  1  0
 12 13  2  0
 13 14  1  0
 14 15  2  0
 15 16  1  0
 15 17  1  0
 17 18  2  0
 18 12  1  0
  1 19  1  0
  1 20  1  0
  1 21  1  0
  2 22  1  0
  2 23  1  0
  3 24  1  0
  3 25  1  0
  4 26  1  0
  4 27  1  0
  5 28  1  0
  5 29  1  0
  8 30  1  0
 11 31  1  0
 11 32  1  0
 11 33  1  0
 13 34  1  0
 14 35  1  0
 17 36  1  0
 18 37  1  0
M  END
$$$$
