
     RDKit          3D

 55 58  0  0  0  0  0  0  0  0999 V2000
   -3.2926    2.7367    0.5304 C   0  0  0  0  0  0  0  0  0  0  0  0
   -3.1524    1.3499    1.1583 C   0  0  0  0  0  0  0  0  0  0  0  0
   -4.1366    1.1403    2.3109 C   0  0  0  0  0  0  0  0  0  0  0  0
   -3.2169    0.2833    0.1633 N   0  0  0  0  0  0  0  0  0  0  0  0
   -2.1856   -0.5848   -0.1485 C   0  0  0  0  0  0  0  0  0  0  0  0
   -0.9390   -0.4554    0.3913 N   0  0  0  0  0  0  0  0  0  0  0  0
   -0.2544   -1.7488    0.6516 C   0  0  0  0  0  0  0  0  0  0  0  0
    0.7694   -2.0790   -0.4529 C   0  0  0  0  0  0  0  0  0  0  0  0
    1.8913   -1.1052   -0.5162 N   0  0  0  0  0  0  0  0  0  0  0  0
    2.4652   -1.1059   -1.8868 C   0  0  0  0  0  0  0  0  0  0  0  0
    3.8697   -0.4842   -1.9208 C   0  0  0  0  0  0  0  0  0  0  0  0
    4.3951   -0.1072   -2.9649 O   0  0  0  0  0  0  0  0  0  0  0  0
    4.4973   -0.4321   -0.6999 N   0  0  0  0  0  0  0  0  0  0  0  0
    5.8807   -0.0607   -0.5657 C   0  0  0  0  0  0  0  0  0  0  0  0
    6.1417    0.2691    0.8673 C   0  0  0  0  0  0  0  0  0  0  0  0
    5.9956    1.4872    1.5034 C   0  0  0  0  0  0  0  0  0  0  0  0
    6.3360    1.4226    2.8852 C   0  0  0  0  0  0  0  0  0  0  0  0
    6.7296    0.1576    3.2595 C   0  0  0  0  0  0  0  0  0  0  0  0
    6.6867   -0.9421    1.9512 S   0  0  0  0  0  0  0  0  0  0  0  0
    1.4233    0.2478   -0.1162 C   0  0  0  0  0  0  0  0  0  0  0  0
   -0.0818    0.5174   -0.3385 C   0  0  0  0  0  0  0  0  0  0  0  0
   -2.5782   -1.5067   -0.9962 N   0  0  0  0  0  0  0  0  0  0  0  0
   -3.8803   -1.2086   -1.2921 C   0  0  0  0  0  0  0  0  0  0  0  0
   -4.7593   -1.8679   -2.1654 C   0  0  0  0  0  0  0  0  0  0  0  0
   -6.0597   -1.3763   -2.3167 C   0  0  0  0  0  0  0  0  0  0  0  0
   -6.4773   -0.2492   -1.6105 C   0  0  0  0  0  0  0  0  0  0  0  0
   -5.6149    0.4195   -0.7330 C   0  0  0  0  0  0  0  0  0  0  0  0
   -4.3140   -0.0850   -0.5918 C   0  0  0  0  0  0  0  0  0  0  0  0
   -2.5741    2.8715   -0.2854 H   0  0  0  0  0  0  0  0  0  0  0  0
   -4.2930    2.9066    0.1223 H   0  0  0  0  0  0  0  0  0  0  0  0
   -3.1037    3.5160    1.2766 H   0  0  0  0  0  0  0  0  0  0  0  0
   -2.1539    1.3080    1.6078 H   0  0  0  0  0  0  0  0  0  0  0  0
   -5.1773    1.2566    1.9962 H   0  0  0  0  0  0  0  0  0  0  0  0
   -4.0272    0.1383    2.7405 H   0  0  0  0  0  0  0  0  0  0  0  0
   -3.9520    1.8690    3.1077 H   0  0  0  0  0  0  0  0  0  0  0  0
    0.2585   -1.6740    1.6191 H   0  0  0  0  0  0  0  0  0  0  0  0
   -0.9714   -2.5734    0.7571 H   0  0  0  0  0  0  0  0  0  0  0  0
    0.2393   -2.1232   -1.4140 H   0  0  0  0  0  0  0  0  0  0  0  0
    1.1906   -3.0736   -0.2672 H   0  0  0  0  0  0  0  0  0  0  0  0
    1.8181   -0.5712   -2.5915 H   0  0  0  0  0  0  0  0  0  0  0  0
    2.5927   -2.1374   -2.2384 H   0  0  0  0  0  0  0  0  0  0  0  0
    4.0218   -0.9116    0.0601 H   0  0  0  0  0  0  0  0  0  0  0  0
    6.4953   -0.8965   -0.9177 H   0  0  0  0  0  0  0  0  0  0  0  0
    6.0909    0.8007   -1.2096 H   0  0  0  0  0  0  0  0  0  0  0  0
    5.6576    2.3839    0.9972 H   0  0  0  0  0  0  0  0  0  0  0  0
    6.2945    2.2610    3.5695 H   0  0  0  0  0  0  0  0  0  0  0  0
    7.0413   -0.1765    4.2397 H   0  0  0  0  0  0  0  0  0  0  0  0
    2.0074    1.0356   -0.6068 H   0  0  0  0  0  0  0  0  0  0  0  0
    1.6341    0.3524    0.9564 H   0  0  0  0  0  0  0  0  0  0  0  0
   -0.2903    0.4870   -1.4170 H   0  0  0  0  0  0  0  0  0  0  0  0
   -0.3137    1.5295    0.0122 H   0  0  0  0  0  0  0  0  0  0  0  0
   -4.4240   -2.7431   -2.7106 H   0  0  0  0  0  0  0  0  0  0  0  0
   -6.7478   -1.8793   -2.9914 H   0  0  0  0  0  0  0  0  0  0  0  0
   -7.4932    0.1179   -1.7421 H   0  0  0  0  0  0  0  0  0  0  0  0
   -5.9590    1.2935   -0.1925 H   0  0  0  0  0  0  0  0  0  0  0  0
  1  2  1  0
  2  3  1  0
  2  4  1  0
  4  5  1  0
  5  6  1  0
  6  7  1  0
  7  8  1  0
  8  9  1  0
  9 10  1  0
 10 11  1  0
 11 12  2  0
 11 13  1  0
 13 14  1  0
 14 15  1  0
 15 16  2  0
 16 17  1  0
 17 18  2  0
 18 19  1  0
  9 20  1  0
 20 21  1  0
  5 22  2  0
 22 23  1  0
 23 24  2  0
 24 25  1  0
 25 26  2  0
 26 27  1  0
 27 28  2  0
 28  4  1  0
 21  6  1  0
 28 23  1  0
 19 15  1  0
  1 29  1  0
  1 30  1  0
  1 31  1  0
  2 32  1  0
  3 33  1  0
  3 34  1  0
  3 35  1  0
  7 36  1  0
  7 37  1  0
  8 38  1  0
  8 39  1  0
 10 40  1  0
 10 41  1  0
 13 42  1  0
 14 43  1  0
 14 44  1  0
 16 45  1  0
 17 46  1  0
 18 47  1  0
 20 48  1  0
 20 49  1  0
 21 50  1  0
 21 51  1  0
 24 52  1  0
 25 53  1  0
 26 54  1  0
 27 55  1  0
M  END
$$$$
