
     RDKit          3D

 58 61  0  0  0  0  0  0  0  0999 V2000
    2.1177   -0.5253   -1.0374 O   0  0  0  0  0  0  0  0  0  0  0  0
    2.0679    0.2535   -0.0884 C   0  0  0  0  0  0  0  0  0  0  0  0
    3.0723    1.3584    0.1748 C   0  0  0  0  0  0  0  0  0  0  0  0
    4.4007    1.1931   -0.5687 C   0  0  0  0  0  0  0  0  0  0  0  0
    5.4564    0.3880    0.2170 C   0  0  0  0  0  0  0  0  0  0  0  0
    6.8149    0.4374   -0.4946 C   0  0  0  0  0  0  0  0  0  0  0  0
    7.9245   -0.2074    0.3414 C   0  0  0  0  0  0  0  0  0  0  0  0
    7.4184   -1.2732    1.3134 C   0  0  0  0  0  0  0  0  0  0  0  0
    6.2124   -2.0130    0.7552 C   0  0  0  0  0  0  0  0  0  0  0  0
    5.0387   -1.0745    0.4571 C   0  0  0  0  0  0  0  0  0  0  0  0
    1.0387    0.2285    0.8382 N   0  0  0  0  0  0  0  0  0  0  0  0
   -0.0931   -0.5528    0.4876 N   0  0  0  0  0  0  0  0  0  0  0  0
   -1.3008    0.1238    0.4851 C   0  0  0  0  0  0  0  0  0  0  0  0
   -1.4221    1.2592    0.9312 O   0  0  0  0  0  0  0  0  0  0  0  0
   -2.3016   -0.6387   -0.0626 N   0  0  0  0  0  0  0  0  0  0  0  0
   -3.7060   -0.2219   -0.1394 C   0  0  0  0  0  0  0  0  0  0  0  0
   -4.3237   -0.0361    1.2682 C   0  0  0  0  0  0  0  0  0  0  0  0
   -5.8115    0.3425    1.1599 C   0  0  0  0  0  0  0  0  0  0  0  0
   -6.5690   -0.7775    0.4291 C   0  0  0  0  0  0  0  0  0  0  0  0
   -5.9910   -0.9685   -0.9821 C   0  0  0  0  0  0  0  0  0  0  0  0
   -6.1295    0.3424   -1.7709 C   0  0  0  0  0  0  0  0  0  0  0  0
   -5.3685    1.4679   -1.0536 C   0  0  0  0  0  0  0  0  0  0  0  0
   -5.9455    1.6501    0.3607 C   0  0  0  0  0  0  0  0  0  0  0  0
   -3.8802    1.0900   -0.9473 C   0  0  0  0  0  0  0  0  0  0  0  0
   -4.5025   -1.3353   -0.8723 C   0  0  0  0  0  0  0  0  0  0  0  0
    3.2420    1.4565    1.2531 H   0  0  0  0  0  0  0  0  0  0  0  0
    2.5953    2.2857   -0.1674 H   0  0  0  0  0  0  0  0  0  0  0  0
    4.8064    2.1988   -0.7401 H   0  0  0  0  0  0  0  0  0  0  0  0
    4.2485    0.7500   -1.5600 H   0  0  0  0  0  0  0  0  0  0  0  0
    5.5800    0.8734    1.1956 H   0  0  0  0  0  0  0  0  0  0  0  0
    7.0980    1.4714   -0.7257 H   0  0  0  0  0  0  0  0  0  0  0  0
    6.7395   -0.0851   -1.4575 H   0  0  0  0  0  0  0  0  0  0  0  0
    8.6659   -0.6454   -0.3382 H   0  0  0  0  0  0  0  0  0  0  0  0
    8.4540    0.5648    0.9130 H   0  0  0  0  0  0  0  0  0  0  0  0
    7.1426   -0.7996    2.2637 H   0  0  0  0  0  0  0  0  0  0  0  0
    8.2261   -1.9779    1.5400 H   0  0  0  0  0  0  0  0  0  0  0  0
    5.8900   -2.7940    1.4530 H   0  0  0  0  0  0  0  0  0  0  0  0
    6.5062   -2.5265   -0.1690 H   0  0  0  0  0  0  0  0  0  0  0  0
    4.5056   -1.4736   -0.4133 H   0  0  0  0  0  0  0  0  0  0  0  0
    4.3323   -1.1068    1.2959 H   0  0  0  0  0  0  0  0  0  0  0  0
    0.8028    1.0895    1.3349 H   0  0  0  0  0  0  0  0  0  0  0  0
    0.0767   -1.1437   -0.3267 H   0  0  0  0  0  0  0  0  0  0  0  0
   -2.1372   -1.6324    0.0228 H   0  0  0  0  0  0  0  0  0  0  0  0
   -4.2153   -0.9594    1.8528 H   0  0  0  0  0  0  0  0  0  0  0  0
   -3.7938    0.7447    1.8269 H   0  0  0  0  0  0  0  0  0  0  0  0
   -6.2312    0.4777    2.1632 H   0  0  0  0  0  0  0  0  0  0  0  0
   -7.6359   -0.5298    0.3666 H   0  0  0  0  0  0  0  0  0  0  0  0
   -6.4924   -1.7133    0.9960 H   0  0  0  0  0  0  0  0  0  0  0  0
   -6.5325   -1.7693   -1.4979 H   0  0  0  0  0  0  0  0  0  0  0  0
   -5.7367    0.2125   -2.7869 H   0  0  0  0  0  0  0  0  0  0  0  0
   -7.1888    0.6098   -1.8706 H   0  0  0  0  0  0  0  0  0  0  0  0
   -5.4721    2.4012   -1.6182 H   0  0  0  0  0  0  0  0  0  0  0  0
   -5.4194    2.4615    0.8784 H   0  0  0  0  0  0  0  0  0  0  0  0
   -7.0008    1.9436    0.2986 H   0  0  0  0  0  0  0  0  0  0  0  0
   -3.3395    1.9188   -0.4763 H   0  0  0  0  0  0  0  0  0  0  0  0
   -3.4506    0.9746   -1.9511 H   0  0  0  0  0  0  0  0  0  0  0  0
   -4.3978   -2.2890   -0.3379 H   0  0  0  0  0  0  0  0  0  0  0  0
   -4.0853   -1.4993   -1.8749 H   0  0  0  0  0  0  0  0  0  0  0  0
  1  2  2  0
  2  3  1  0
  3  4  1  0
  4  5  1  0
  5  6  1  0
  6  7  1  0
  7  8  1  0
  8  9  1  0
  9 10  1  0
  2 11  1  0
 11 12  1  0
 12 13  1  0
 13 14  2  0
 13 15  1  0
 15 16  1  0
 16 17  1  0
 17 18  1  0
 18 19  1  0
 19 20  1  0
 20 21  1  0
 21 22  1  0
 22 23  1  0
 22 24  1  0
 20 25  1  0
 10  5  1  0
 24 16  1  0
 25 16  1  0
 23 18  1  0
  3 26  1  0
  3 27  1  0
  4 28  1  0
  4 29  1  0
  5 30  1  0
  6 31  1  0
  6 32  1  0
  7 33  1  0
  7 34  1  0
  8 35  1  0
  8 36  1  0
  9 37  1  0
  9 38  1  0
 10 39  1  0
 10 40  1  0
 11 41  1  0
 12 42  1  0
 15 43  1  0
 17 44  1  0
 17 45  1  0
 18 46  1  0
 19 47  1  0
 19 48  1  0
 20 49  1  0
 21 50  1  0
 21 51  1  0
 22 52  1  0
 23 53  1  0
 23 54  1  0
 24 55  1  0
 24 56  1  0
 25 57  1  0
 25 58  1  0
M  END
$$$$
