
     RDKit          3D

 30 31  0  0  0  0  0  0  0  0999 V2000
    2.1249    2.7779   -0.5585 C   0  0  0  0  0  0  0  0  0  0  0  0
    1.3502    1.5030   -0.7991 C   0  0  0  0  0  0  0  0  0  0  0  0
    0.3247    1.5687   -1.6007 N   0  0  0  0  0  0  0  0  0  0  0  0
   -0.4374    0.4378   -1.7450 N   0  0  0  0  0  0  0  0  0  0  0  0
   -1.4858    0.2273   -0.8136 C   0  0  0  0  0  0  0  0  0  0  0  0
   -2.5745   -0.4008   -1.2927 N   0  0  0  0  0  0  0  0  0  0  0  0
   -3.5814   -0.6398   -0.4450 C   0  0  0  0  0  0  0  0  0  0  0  0
   -4.7090   -1.2647   -0.9746 N   0  0  0  0  0  0  0  0  0  0  0  0
   -3.5510   -0.2604    0.8695 C   0  0  0  0  0  0  0  0  0  0  0  0
   -2.3995    0.3674    1.2573 C   0  0  0  0  0  0  0  0  0  0  0  0
   -2.1895    0.8919    2.8787 Cl  0  0  0  0  0  0  0  0  0  0  0  0
   -1.3579    0.6202    0.4597 N   0  0  0  0  0  0  0  0  0  0  0  0
    1.8408    0.2899   -0.0973 C   0  0  0  0  0  0  0  0  0  0  0  0
    1.9430    0.2930    1.2989 C   0  0  0  0  0  0  0  0  0  0  0  0
    2.4145   -0.8435    1.9567 C   0  0  0  0  0  0  0  0  0  0  0  0
    2.7822   -1.9629    1.2155 C   0  0  0  0  0  0  0  0  0  0  0  0
    3.2337   -3.0526    1.8499 F   0  0  0  0  0  0  0  0  0  0  0  0
    2.6874   -1.9708   -0.1732 C   0  0  0  0  0  0  0  0  0  0  0  0
    2.2146   -0.8383   -0.8366 C   0  0  0  0  0  0  0  0  0  0  0  0
    3.0839    2.5829   -0.0713 H   0  0  0  0  0  0  0  0  0  0  0  0
    2.3176    3.2721   -1.5155 H   0  0  0  0  0  0  0  0  0  0  0  0
    1.5297    3.4448    0.0721 H   0  0  0  0  0  0  0  0  0  0  0  0
   -0.9168    0.3653   -2.6423 H   0  0  0  0  0  0  0  0  0  0  0  0
   -4.5156   -1.4955   -1.9464 H   0  0  0  0  0  0  0  0  0  0  0  0
   -4.9878   -2.0820   -0.4431 H   0  0  0  0  0  0  0  0  0  0  0  0
   -4.3747   -0.4337    1.5452 H   0  0  0  0  0  0  0  0  0  0  0  0
    1.6318    1.1615    1.8738 H   0  0  0  0  0  0  0  0  0  0  0  0
    2.4899   -0.8664    3.0392 H   0  0  0  0  0  0  0  0  0  0  0  0
    2.9786   -2.8573   -0.7273 H   0  0  0  0  0  0  0  0  0  0  0  0
    2.1335   -0.8349   -1.9204 H   0  0  0  0  0  0  0  0  0  0  0  0
  1  2  1  0
  2  3  2  3
  3  4  1  0
  4  5  1  0
  5  6  2  0
  6  7  1  0
  7  8  1  0
  7  9  2  0
  9 10  1  0
 10 11  1  0
 10 12  2  0
  2 13  1  0
 13 14  2  0
 14 15  1  0
 15 16  2  0
 16 17  1  0
 16 18  1  0
 18 19  2  0
 12  5  1  0
 19 13  1  0
  1 20  1  0
  1 21  1  0
  1 22  1  0
  4 23  1  0
  8 24  1  0
  8 25  1  0
  9 26  1  0
 14 27  1  0
 15 28  1  0
 18 29  1  0
 19 30  1  0
M  END
$$$$
