
     RDKit          3D

 48 49  0  0  0  0  0  0  0  0999 V2000
   -6.6864   -0.8876   -1.8795 C   0  0  0  0  0  0  0  0  0  0  0  0
   -5.2912   -0.9339   -1.3316 C   0  0  0  0  0  0  0  0  0  0  0  0
   -4.9313   -0.1377   -0.2394 C   0  0  0  0  0  0  0  0  0  0  0  0
   -3.6396   -0.1986    0.2888 C   0  0  0  0  0  0  0  0  0  0  0  0
   -2.6880   -1.0661   -0.2588 C   0  0  0  0  0  0  0  0  0  0  0  0
   -1.2868   -1.1270    0.3009 C   0  0  0  0  0  0  0  0  0  0  0  0
   -0.3166   -0.1432   -0.3761 C   0  0  0  0  0  0  0  0  0  0  0  0
    1.0727   -0.6443   -0.2726 N   0  0  0  0  0  0  0  0  0  0  0  0
    2.0576   -0.0707   -1.0605 C   0  0  0  0  0  0  0  0  0  0  0  0
    1.8770    0.9435   -1.7222 O   0  0  0  0  0  0  0  0  0  0  0  0
    3.3672   -0.7764   -1.0976 C   0  0  0  0  0  0  0  0  0  0  0  0
    3.8235   -1.5476   -0.0206 C   0  0  0  0  0  0  0  0  0  0  0  0
    5.0584   -2.1955   -0.1011 C   0  0  0  0  0  0  0  0  0  0  0  0
    5.8409   -2.0703   -1.2492 C   0  0  0  0  0  0  0  0  0  0  0  0
    5.3976   -1.2900   -2.3165 C   0  0  0  0  0  0  0  0  0  0  0  0
    4.1651   -0.6395   -2.2400 C   0  0  0  0  0  0  0  0  0  0  0  0
   -0.4167    1.2349    0.3228 C   0  0  0  0  0  0  0  0  0  0  0  0
   -1.2642    2.0751    0.0342 O   0  0  0  0  0  0  0  0  0  0  0  0
    0.4151    1.3660    1.4217 N   0  0  0  0  0  0  0  0  0  0  0  0
    0.6598    2.6734    2.0271 C   0  0  0  0  0  0  0  0  0  0  0  0
    0.4388    2.6141    3.5291 C   0  0  0  0  0  0  0  0  0  0  0  0
    2.1114    3.0429    1.7349 C   0  0  0  0  0  0  0  0  0  0  0  0
    3.0319    2.2515    1.5796 O   0  0  0  0  0  0  0  0  0  0  0  0
    2.3340    4.3710    1.7091 O   0  0  0  0  0  0  0  0  0  0  0  0
   -3.0513   -1.8686   -1.3482 C   0  0  0  0  0  0  0  0  0  0  0  0
   -4.3441   -1.8084   -1.8743 C   0  0  0  0  0  0  0  0  0  0  0  0
   -7.1270    0.1059   -1.7446 H   0  0  0  0  0  0  0  0  0  0  0  0
   -7.3134   -1.6251   -1.3692 H   0  0  0  0  0  0  0  0  0  0  0  0
   -6.6912   -1.1009   -2.9537 H   0  0  0  0  0  0  0  0  0  0  0  0
   -5.6517    0.5464    0.2035 H   0  0  0  0  0  0  0  0  0  0  0  0
   -3.3815    0.4494    1.1242 H   0  0  0  0  0  0  0  0  0  0  0  0
   -0.9275   -2.1579    0.1775 H   0  0  0  0  0  0  0  0  0  0  0  0
   -1.3208   -0.9658    1.3867 H   0  0  0  0  0  0  0  0  0  0  0  0
   -0.5395   -0.0084   -1.4412 H   0  0  0  0  0  0  0  0  0  0  0  0
    1.1928   -1.6285   -0.0702 H   0  0  0  0  0  0  0  0  0  0  0  0
    3.2484   -1.6285    0.8969 H   0  0  0  0  0  0  0  0  0  0  0  0
    5.4180   -2.7883    0.7366 H   0  0  0  0  0  0  0  0  0  0  0  0
    6.8043   -2.5715   -1.3078 H   0  0  0  0  0  0  0  0  0  0  0  0
    6.0132   -1.1824   -3.2062 H   0  0  0  0  0  0  0  0  0  0  0  0
    3.8270   -0.0253   -3.0725 H   0  0  0  0  0  0  0  0  0  0  0  0
    1.2154    0.7389    1.4032 H   0  0  0  0  0  0  0  0  0  0  0  0
    0.0084    3.4243    1.5684 H   0  0  0  0  0  0  0  0  0  0  0  0
    1.1044    1.8830    4.0022 H   0  0  0  0  0  0  0  0  0  0  0  0
    0.6330    3.5872    3.9925 H   0  0  0  0  0  0  0  0  0  0  0  0
   -0.5917    2.3234    3.7592 H   0  0  0  0  0  0  0  0  0  0  0  0
    3.2821    4.4514    1.4736 H   0  0  0  0  0  0  0  0  0  0  0  0
   -2.3319   -2.5488   -1.7982 H   0  0  0  0  0  0  0  0  0  0  0  0
   -4.6057   -2.4452   -2.7163 H   0  0  0  0  0  0  0  0  0  0  0  0
  1  2  1  0
  2  3  2  0
  3  4  1  0
  4  5  2  0
  5  6  1  0
  6  7  1  0
  7  8  1  0
  8  9  1  0
  9 10  2  0
  9 11  1  0
 11 12  2  0
 12 13  1  0
 13 14  2  0
 14 15  1  0
 15 16  2  0
  7 17  1  0
 17 18  2  0
 17 19  1  0
 19 20  1  0
 20 21  1  0
 20 22  1  0
 22 23  2  0
 22 24  1  0
  5 25  1  0
 25 26  2  0
 26  2  1  0
 16 11  1  0
  1 27  1  0
  1 28  1  0
  1 29  1  0
  3 30  1  0
  4 31  1  0
  6 32  1  0
  6 33  1  0
  7 34  1  0
  8 35  1  0
 12 36  1  0
 13 37  1  0
 14 38  1  0
 15 39  1  0
 16 40  1  0
 19 41  1  0
 20 42  1  0
 21 43  1  0
 21 44  1  0
 21 45  1  0
 24 46  1  0
 25 47  1  0
 26 48  1  0
M  END
$$$$
