
     RDKit          3D

 60 64  0  0  0  0  0  0  0  0999 V2000
   -4.6659   -3.8792   -0.9323 C   0  0  0  0  0  0  0  0  0  0  0  0
   -3.6842   -3.0379   -0.1288 C   0  0  0  0  0  0  0  0  0  0  0  0
   -4.1395   -1.5799    0.0308 C   0  0  0  0  0  0  0  0  0  0  0  0
   -4.1749   -0.8627   -1.2396 N   0  0  0  0  0  0  0  0  0  0  0  0
   -2.9251   -0.5116   -1.7436 C   0  0  0  0  0  0  0  0  0  0  0  0
   -2.8587   -0.4508   -3.0803 N   0  0  0  0  0  0  0  0  0  0  0  0
   -1.6817   -0.0808   -3.5831 C   0  0  0  0  0  0  0  0  0  0  0  0
   -0.5700    0.1670   -2.8837 N   0  0  0  0  0  0  0  0  0  0  0  0
   -0.6389    0.0602   -1.5384 C   0  0  0  0  0  0  0  0  0  0  0  0
    0.5853    0.1267   -0.8307 N   0  0  0  0  0  0  0  0  0  0  0  0
    1.0427   -1.2423   -0.4633 C   0  0  0  0  0  0  0  0  0  0  0  0
    2.3239   -1.1675    0.4021 C   0  0  0  0  0  0  0  0  0  0  0  0
    3.3906   -0.4095   -0.2911 N   0  0  0  0  0  0  0  0  0  0  0  0
    4.6775   -0.4177    0.2721 C   0  0  0  0  0  0  0  0  0  0  0  0
    5.7753   -0.0185   -0.5100 C   0  0  0  0  0  0  0  0  0  0  0  0
    7.0794   -0.0159   -0.0048 C   0  0  0  0  0  0  0  0  0  0  0  0
    7.3180   -0.4231    1.3024 C   0  0  0  0  0  0  0  0  0  0  0  0
    6.2533   -0.8370    2.0954 C   0  0  0  0  0  0  0  0  0  0  0  0
    4.9501   -0.8385    1.5822 C   0  0  0  0  0  0  0  0  0  0  0  0
    2.9373    0.9422   -0.7193 C   0  0  0  0  0  0  0  0  0  0  0  0
    1.6535    0.8430   -1.5764 C   0  0  0  0  0  0  0  0  0  0  0  0
   -1.8534   -0.2210   -0.8891 C   0  0  0  0  0  0  0  0  0  0  0  0
   -2.0759   -0.2590    0.5375 N   0  0  0  0  0  0  0  0  0  0  0  0
   -1.3102    0.5930    1.4463 C   0  0  0  0  0  0  0  0  0  0  0  0
   -1.7569    2.0409    1.4098 C   0  0  0  0  0  0  0  0  0  0  0  0
   -1.0603    2.9879    0.6463 C   0  0  0  0  0  0  0  0  0  0  0  0
   -1.4826    4.3178    0.6031 C   0  0  0  0  0  0  0  0  0  0  0  0
   -2.6065    4.7169    1.3236 C   0  0  0  0  0  0  0  0  0  0  0  0
   -3.3101    3.7865    2.0853 C   0  0  0  0  0  0  0  0  0  0  0  0
   -2.8894    2.4560    2.1268 C   0  0  0  0  0  0  0  0  0  0  0  0
   -3.2394   -0.8510    1.0461 C   0  0  0  0  0  0  0  0  0  0  0  0
   -3.5160   -0.8745    2.2488 O   0  0  0  0  0  0  0  0  0  0  0  0
   -4.7410   -3.5286   -1.9658 H   0  0  0  0  0  0  0  0  0  0  0  0
   -4.3336   -4.9219   -0.9578 H   0  0  0  0  0  0  0  0  0  0  0  0
   -5.6643   -3.8530   -0.4842 H   0  0  0  0  0  0  0  0  0  0  0  0
   -3.5740   -3.4906    0.8647 H   0  0  0  0  0  0  0  0  0  0  0  0
   -2.6955   -3.0968   -0.5997 H   0  0  0  0  0  0  0  0  0  0  0  0
   -5.1557   -1.5577    0.4437 H   0  0  0  0  0  0  0  0  0  0  0  0
   -4.7628   -1.2236   -1.9823 H   0  0  0  0  0  0  0  0  0  0  0  0
   -1.6140    0.0125   -4.6615 H   0  0  0  0  0  0  0  0  0  0  0  0
    0.2760   -1.7754    0.1109 H   0  0  0  0  0  0  0  0  0  0  0  0
    1.2488   -1.8266   -1.3703 H   0  0  0  0  0  0  0  0  0  0  0  0
    2.6567   -2.1926    0.6053 H   0  0  0  0  0  0  0  0  0  0  0  0
    2.0783   -0.6831    1.3558 H   0  0  0  0  0  0  0  0  0  0  0  0
    5.6234    0.2711   -1.5467 H   0  0  0  0  0  0  0  0  0  0  0  0
    7.9047    0.2951   -0.6391 H   0  0  0  0  0  0  0  0  0  0  0  0
    8.3291   -0.4245    1.6994 H   0  0  0  0  0  0  0  0  0  0  0  0
    6.4312   -1.1607    3.1175 H   0  0  0  0  0  0  0  0  0  0  0  0
    4.1544   -1.1627    2.2451 H   0  0  0  0  0  0  0  0  0  0  0  0
    3.6977    1.4561   -1.3181 H   0  0  0  0  0  0  0  0  0  0  0  0
    2.7386    1.5564    0.1693 H   0  0  0  0  0  0  0  0  0  0  0  0
    1.9008    0.3181   -2.5093 H   0  0  0  0  0  0  0  0  0  0  0  0
    1.3221    1.8582   -1.8268 H   0  0  0  0  0  0  0  0  0  0  0  0
   -0.2362    0.5158    1.2857 H   0  0  0  0  0  0  0  0  0  0  0  0
   -1.4379    0.2298    2.4747 H   0  0  0  0  0  0  0  0  0  0  0  0
   -0.1825    2.6949    0.0774 H   0  0  0  0  0  0  0  0  0  0  0  0
   -0.9356    5.0420    0.0049 H   0  0  0  0  0  0  0  0  0  0  0  0
   -2.9357    5.7519    1.2898 H   0  0  0  0  0  0  0  0  0  0  0  0
   -4.1880    4.0946    2.6478 H   0  0  0  0  0  0  0  0  0  0  0  0
   -3.4524    1.7420    2.7255 H   0  0  0  0  0  0  0  0  0  0  0  0
  1  2  1  0
  2  3  1  0
  3  4  1  0
  4  5  1  0
  5  6  2  0
  6  7  1  0
  7  8  2  0
  8  9  1  0
  9 10  1  0
 10 11  1  0
 11 12  1  0
 12 13  1  0
 13 14  1  0
 14 15  2  0
 15 16  1  0
 16 17  2  0
 17 18  1  0
 18 19  2  0
 13 20  1  0
 20 21  1  0
  9 22  2  0
 22 23  1  0
 23 24  1  0
 24 25  1  0
 25 26  2  0
 26 27  1  0
 27 28  2  0
 28 29  1  0
 29 30  2  0
 23 31  1  0
 31 32  2  0
 31  3  1  0
 22  5  1  0
 30 25  1  0
 21 10  1  0
 19 14  1  0
  1 33  1  0
  1 34  1  0
  1 35  1  0
  2 36  1  0
  2 37  1  0
  3 38  1  0
  4 39  1  0
  7 40  1  0
 11 41  1  0
 11 42  1  0
 12 43  1  0
 12 44  1  0
 15 45  1  0
 16 46  1  0
 17 47  1  0
 18 48  1  0
 19 49  1  0
 20 50  1  0
 20 51  1  0
 21 52  1  0
 21 53  1  0
 24 54  1  0
 24 55  1  0
 26 56  1  0
 27 57  1  0
 28 58  1  0
 29 59  1  0
 30 60  1  0
M  END
$$$$
