
     RDKit          3D

 37 38  0  0  0  0  0  0  0  0999 V2000
    3.8964   -0.1355   -0.8901 C   0  0  0  0  0  0  0  0  0  0  0  0
    3.9967    0.4148    0.5353 C   0  0  0  0  0  0  0  0  0  0  0  0
    5.4378    0.8456    0.8195 C   0  0  0  0  0  0  0  0  0  0  0  0
    3.0420    1.6001    0.7673 C   0  0  0  0  0  0  0  0  0  0  0  0
    1.6007    1.2036    0.7177 C   0  0  0  0  0  0  0  0  0  0  0  0
    0.8333    1.3014   -0.3487 N   0  0  0  0  0  0  0  0  0  0  0  0
   -0.4483    0.8421   -0.1098 N   0  0  0  0  0  0  0  0  0  0  0  0
   -0.5877    0.4096    1.1193 C   0  0  0  0  0  0  0  0  0  0  0  0
   -1.8569   -0.0795    1.6257 N   0  0  0  0  0  0  0  0  0  0  0  0
   -2.0536   -1.7268    1.3365 S   0  0  0  0  0  6  0  0  0  0  0  0
   -0.9454   -2.2657    0.5782 O   0  0  0  0  0  0  0  0  0  0  0  0
   -2.3553   -2.2745    2.6469 O   0  0  0  0  0  0  0  0  0  0  0  0
   -3.5655   -1.8052    0.3683 C   0  0  0  0  0  0  0  0  0  0  0  0
   -3.4665   -0.9755   -0.8819 C   0  0  0  0  0  0  0  0  0  0  0  0
   -2.7331   -1.4281   -1.9881 C   0  0  0  0  0  0  0  0  0  0  0  0
   -2.6452   -0.6539   -3.1457 C   0  0  0  0  0  0  0  0  0  0  0  0
   -3.2927    0.5773   -3.2135 C   0  0  0  0  0  0  0  0  0  0  0  0
   -4.0288    1.0362   -2.1236 C   0  0  0  0  0  0  0  0  0  0  0  0
   -4.1173    0.2645   -0.9639 C   0  0  0  0  0  0  0  0  0  0  0  0
    0.7920    0.5915    2.1084 S   0  0  0  0  0  0  0  0  0  0  0  0
    2.8988   -0.5375   -1.0928 H   0  0  0  0  0  0  0  0  0  0  0  0
    4.1077    0.6422   -1.6319 H   0  0  0  0  0  0  0  0  0  0  0  0
    4.6129   -0.9500   -1.0419 H   0  0  0  0  0  0  0  0  0  0  0  0
    3.7472   -0.3971    1.2303 H   0  0  0  0  0  0  0  0  0  0  0  0
    5.7500    1.6554    0.1510 H   0  0  0  0  0  0  0  0  0  0  0  0
    5.5427    1.1974    1.8514 H   0  0  0  0  0  0  0  0  0  0  0  0
    6.1293    0.0075    0.6827 H   0  0  0  0  0  0  0  0  0  0  0  0
    3.2224    2.3776    0.0138 H   0  0  0  0  0  0  0  0  0  0  0  0
    3.2543    2.0640    1.7392 H   0  0  0  0  0  0  0  0  0  0  0  0
   -1.9463    0.0771    2.6283 H   0  0  0  0  0  0  0  0  0  0  0  0
   -4.3849   -1.4687    1.0121 H   0  0  0  0  0  0  0  0  0  0  0  0
   -3.7432   -2.8574    0.1234 H   0  0  0  0  0  0  0  0  0  0  0  0
   -2.2058   -2.3798   -1.9526 H   0  0  0  0  0  0  0  0  0  0  0  0
   -2.0581   -1.0065   -3.9894 H   0  0  0  0  0  0  0  0  0  0  0  0
   -3.2126    1.1847   -4.1110 H   0  0  0  0  0  0  0  0  0  0  0  0
   -4.5259    2.0013   -2.1741 H   0  0  0  0  0  0  0  0  0  0  0  0
   -4.6912    0.6476   -0.1232 H   0  0  0  0  0  0  0  0  0  0  0  0
  1  2  1  0
  2  3  1  0
  2  4  1  0
  4  5  1  0
  5  6  2  0
  6  7  1  0
  7  8  2  0
  8  9  1  0
  9 10  1  0
 10 11  2  0
 10 12  2  0
 10 13  1  0
 13 14  1  0
 14 15  2  0
 15 16  1  0
 16 17  2  0
 17 18  1  0
 18 19  2  0
  8 20  1  0
 20  5  1  0
 19 14  1  0
  1 21  1  0
  1 22  1  0
  1 23  1  0
  2 24  1  0
  3 25  1  0
  3 26  1  0
  3 27  1  0
  4 28  1  0
  4 29  1  0
  9 30  1  0
 13 31  1  0
 13 32  1  0
 15 33  1  0
 16 34  1  0
 17 35  1  0
 18 36  1  0
 19 37  1  0
M  END
$$$$
