
     RDKit          3D

 57 61  0  0  0  0  0  0  0  0999 V2000
    5.8883   -4.3225    0.8860 C   0  0  0  0  0  0  0  0  0  0  0  0
    5.1198   -3.6356   -0.2036 C   0  0  0  0  0  0  0  0  0  0  0  0
    5.7747   -2.7901   -1.1056 C   0  0  0  0  0  0  0  0  0  0  0  0
    5.0574   -2.1233   -2.1012 C   0  0  0  0  0  0  0  0  0  0  0  0
    3.6696   -2.2860   -2.2088 C   0  0  0  0  0  0  0  0  0  0  0  0
    2.8933   -1.5555   -3.2752 C   0  0  0  0  0  0  0  0  0  0  0  0
    2.6078   -0.1915   -2.8829 N   0  0  0  0  0  0  0  0  0  0  0  0
    3.3898    0.8337   -3.3061 N   0  0  0  0  0  0  0  0  0  0  0  0
    2.8870    1.9621   -2.8049 N   0  0  0  0  0  0  0  0  0  0  0  0
    1.7806    1.6273   -2.0880 C   0  0  0  0  0  0  0  0  0  0  0  0
    0.8617    2.4399   -1.3401 C   0  0  0  0  0  0  0  0  0  0  0  0
    0.9156    3.6575   -1.2117 O   0  0  0  0  0  0  0  0  0  0  0  0
   -0.1437    1.6835   -0.7492 N   0  0  0  0  0  0  0  0  0  0  0  0
   -0.2602    0.3032   -0.8736 C   0  0  0  0  0  0  0  0  0  0  0  0
   -1.4297   -0.3514   -0.1542 C   0  0  0  0  0  0  0  0  0  0  0  0
   -2.7692    0.1654   -0.6852 C   0  0  0  0  0  0  0  0  0  0  0  0
   -3.9380   -0.4700    0.0569 C   0  0  0  0  0  0  0  0  0  0  0  0
   -3.7865   -0.3118    1.5131 N   0  0  0  0  0  0  0  0  0  0  0  0
   -4.7597    0.7709    2.3657 S   0  0  0  0  0  6  0  0  0  0  0  0
   -6.0596    0.8169    1.7318 O   0  0  0  0  0  0  0  0  0  0  0  0
   -4.6225    0.4959    3.7796 O   0  0  0  0  0  0  0  0  0  0  0  0
   -3.9675    2.3375    2.0550 C   0  0  0  0  0  0  0  0  0  0  0  0
   -2.9896    2.8064    2.9413 C   0  0  0  0  0  0  0  0  0  0  0  0
   -2.3863    4.0422    2.7055 C   0  0  0  0  0  0  0  0  0  0  0  0
   -2.7776    4.7999    1.6054 C   0  0  0  0  0  0  0  0  0  0  0  0
   -2.1992    5.9866    1.3853 F   0  0  0  0  0  0  0  0  0  0  0  0
   -3.7664    4.3493    0.7353 C   0  0  0  0  0  0  0  0  0  0  0  0
   -4.3752    3.1147    0.9635 C   0  0  0  0  0  0  0  0  0  0  0  0
   -2.5117   -0.7813    2.0814 C   0  0  0  0  0  0  0  0  0  0  0  0
   -1.3279   -0.1501    1.3600 C   0  0  0  0  0  0  0  0  0  0  0  0
    0.5638   -0.4419   -1.5579 N   0  0  0  0  0  0  0  0  0  0  0  0
    1.5643    0.2710   -2.1328 C   0  0  0  0  0  0  0  0  0  0  0  0
    3.0124   -3.1149   -1.2894 C   0  0  0  0  0  0  0  0  0  0  0  0
    3.7315   -3.7815   -0.2946 C   0  0  0  0  0  0  0  0  0  0  0  0
    6.8987   -4.5769    0.5489 H   0  0  0  0  0  0  0  0  0  0  0  0
    5.3997   -5.2573    1.1803 H   0  0  0  0  0  0  0  0  0  0  0  0
    5.9602   -3.6703    1.7620 H   0  0  0  0  0  0  0  0  0  0  0  0
    6.8502   -2.6409   -1.0367 H   0  0  0  0  0  0  0  0  0  0  0  0
    5.5899   -1.4656   -2.7867 H   0  0  0  0  0  0  0  0  0  0  0  0
    1.9393   -2.0534   -3.4842 H   0  0  0  0  0  0  0  0  0  0  0  0
    3.4545   -1.5336   -4.2168 H   0  0  0  0  0  0  0  0  0  0  0  0
   -0.8044    2.2252   -0.2116 H   0  0  0  0  0  0  0  0  0  0  0  0
   -1.3748   -1.4300   -0.3593 H   0  0  0  0  0  0  0  0  0  0  0  0
   -2.8234    1.2549   -0.5904 H   0  0  0  0  0  0  0  0  0  0  0  0
   -2.8538   -0.0513   -1.7571 H   0  0  0  0  0  0  0  0  0  0  0  0
   -3.9896   -1.5424   -0.1672 H   0  0  0  0  0  0  0  0  0  0  0  0
   -4.8775   -0.0382   -0.3007 H   0  0  0  0  0  0  0  0  0  0  0  0
   -2.7018    2.2229    3.8136 H   0  0  0  0  0  0  0  0  0  0  0  0
   -1.6254    4.4281    3.3780 H   0  0  0  0  0  0  0  0  0  0  0  0
   -4.0645    4.9710   -0.1042 H   0  0  0  0  0  0  0  0  0  0  0  0
   -5.1648    2.7710    0.2982 H   0  0  0  0  0  0  0  0  0  0  0  0
   -2.4749   -1.8731    1.9842 H   0  0  0  0  0  0  0  0  0  0  0  0
   -2.4441   -0.5682    3.1524 H   0  0  0  0  0  0  0  0  0  0  0  0
   -1.2780    0.9169    1.6008 H   0  0  0  0  0  0  0  0  0  0  0  0
   -0.3946   -0.5899    1.7326 H   0  0  0  0  0  0  0  0  0  0  0  0
    1.9324   -3.2407   -1.3352 H   0  0  0  0  0  0  0  0  0  0  0  0
    3.1996   -4.4148    0.4119 H   0  0  0  0  0  0  0  0  0  0  0  0
  1  2  1  0
  2  3  2  0
  3  4  1  0
  4  5  2  0
  5  6  1  0
  6  7  1  0
  7  8  1  0
  8  9  2  0
  9 10  1  0
 10 11  1  0
 11 12  2  0
 11 13  1  0
 13 14  1  0
 14 15  1  0
 15 16  1  0
 16 17  1  0
 17 18  1  0
 18 19  1  0
 19 20  2  0
 19 21  2  0
 19 22  1  0
 22 23  2  0
 23 24  1  0
 24 25  2  0
 25 26  1  0
 25 27  1  0
 27 28  2  0
 18 29  1  0
 29 30  1  0
 14 31  2  0
 31 32  1  0
  5 33  1  0
 33 34  2  0
 34  2  1  0
 32  7  1  0
 32 10  2  0
 30 15  1  0
 28 22  1  0
  1 35  1  0
  1 36  1  0
  1 37  1  0
  3 38  1  0
  4 39  1  0
  6 40  1  0
  6 41  1  0
 13 42  1  0
 15 43  1  0
 16 44  1  0
 16 45  1  0
 17 46  1  0
 17 47  1  0
 23 48  1  0
 24 49  1  0
 27 50  1  0
 28 51  1  0
 29 52  1  0
 29 53  1  0
 30 54  1  0
 30 55  1  0
 33 56  1  0
 34 57  1  0
M  END
$$$$
