
     RDKit          3D

 55 57  0  0  0  0  0  0  0  0999 V2000
    4.0470    0.7455    0.2792 C   0  0  0  0  0  0  0  0  0  0  0  0
    3.4577    1.4282    1.5174 C   0  0  0  0  0  0  0  0  0  0  0  0
    3.5742    0.4995    2.7285 C   0  0  0  0  0  0  0  0  0  0  0  0
    2.0099    1.9298    1.3259 C   0  0  0  0  0  0  0  0  0  0  0  0
    2.0213    3.0763    0.3770 N   0  0  0  0  0  0  0  0  0  0  0  0
    0.9373    4.3347    0.6133 S   0  0  0  0  0  6  0  0  0  0  0  0
    1.0946    4.7978    1.9739 O   0  0  0  0  0  0  0  0  0  0  0  0
    1.0746    5.2225   -0.5181 O   0  0  0  0  0  0  0  0  0  0  0  0
   -0.6472    3.5461    0.4897 C   0  0  0  0  0  0  0  0  0  0  0  0
   -1.3825    3.2705    1.6459 C   0  0  0  0  0  0  0  0  0  0  0  0
   -2.6193    2.6263    1.5352 C   0  0  0  0  0  0  0  0  0  0  0  0
   -3.1146    2.2823    0.2773 C   0  0  0  0  0  0  0  0  0  0  0  0
   -2.3930    2.6128   -0.8764 C   0  0  0  0  0  0  0  0  0  0  0  0
   -1.1539    3.2327   -0.7752 C   0  0  0  0  0  0  0  0  0  0  0  0
   -2.8430    2.3454   -2.1419 O   0  0  0  0  0  0  0  0  0  0  0  0
   -4.2511    2.0797   -2.1408 C   0  0  0  0  0  0  0  0  0  0  0  0
   -4.6038    1.0879   -1.0452 C   0  0  0  0  0  0  0  0  0  0  0  0
   -4.3211    1.6302    0.2503 O   0  0  0  0  0  0  0  0  0  0  0  0
    1.0715    0.8580    0.7741 C   0  0  0  0  0  0  0  0  0  0  0  0
    0.8755    0.6672   -0.4226 O   0  0  0  0  0  0  0  0  0  0  0  0
    0.4570    0.1796    1.7815 O   0  0  0  0  0  0  0  0  0  0  0  0
   -0.4039   -0.8628    1.3264 C   0  0  0  0  0  0  0  0  0  0  0  0
    0.3565   -2.0691    0.7591 C   0  0  0  0  0  0  0  0  0  0  0  0
    1.5624   -2.2115    0.9448 O   0  0  0  0  0  0  0  0  0  0  0  0
   -0.4734   -2.9421    0.0769 N   0  0  0  0  0  0  0  0  0  0  0  0
   -0.1097   -4.1300   -0.6053 C   0  0  0  0  0  0  0  0  0  0  0  0
    1.2223   -4.5036   -0.8169 C   0  0  0  0  0  0  0  0  0  0  0  0
    1.5305   -5.6871   -1.4940 C   0  0  0  0  0  0  0  0  0  0  0  0
    0.5126   -6.5151   -1.9631 C   0  0  0  0  0  0  0  0  0  0  0  0
   -0.8236   -6.1531   -1.7755 C   0  0  0  0  0  0  0  0  0  0  0  0
   -2.0369   -7.2337   -2.3833 Cl  0  0  0  0  0  0  0  0  0  0  0  0
   -1.1389   -4.9621   -1.1030 C   0  0  0  0  0  0  0  0  0  0  0  0
   -2.7989   -4.4895   -0.8639 Cl  0  0  0  0  0  0  0  0  0  0  0  0
    3.5349   -0.1942    0.0510 H   0  0  0  0  0  0  0  0  0  0  0  0
    5.1047    0.5117    0.4393 H   0  0  0  0  0  0  0  0  0  0  0  0
    3.9839    1.3935   -0.6010 H   0  0  0  0  0  0  0  0  0  0  0  0
    4.0856    2.3057    1.7274 H   0  0  0  0  0  0  0  0  0  0  0  0
    4.6176    0.2124    2.8912 H   0  0  0  0  0  0  0  0  0  0  0  0
    2.9930   -0.4176    2.5988 H   0  0  0  0  0  0  0  0  0  0  0  0
    3.2227    0.9973    3.6334 H   0  0  0  0  0  0  0  0  0  0  0  0
    1.6244    2.2772    2.2925 H   0  0  0  0  0  0  0  0  0  0  0  0
    2.1326    2.8271   -0.6095 H   0  0  0  0  0  0  0  0  0  0  0  0
   -1.0029    3.5444    2.6300 H   0  0  0  0  0  0  0  0  0  0  0  0
   -3.1950    2.3946    2.4271 H   0  0  0  0  0  0  0  0  0  0  0  0
   -0.5955    3.4689   -1.6747 H   0  0  0  0  0  0  0  0  0  0  0  0
   -4.5108    1.6710   -3.1209 H   0  0  0  0  0  0  0  0  0  0  0  0
   -4.7894    3.0291   -2.0122 H   0  0  0  0  0  0  0  0  0  0  0  0
   -5.6726    0.8531   -1.0780 H   0  0  0  0  0  0  0  0  0  0  0  0
   -4.0441    0.1517   -1.1582 H   0  0  0  0  0  0  0  0  0  0  0  0
   -1.1188   -0.4755    0.5898 H   0  0  0  0  0  0  0  0  0  0  0  0
   -0.9773   -1.2105    2.1931 H   0  0  0  0  0  0  0  0  0  0  0  0
   -1.4717   -2.7518    0.0964 H   0  0  0  0  0  0  0  0  0  0  0  0
    2.0482   -3.8856   -0.4823 H   0  0  0  0  0  0  0  0  0  0  0  0
    2.5726   -5.9596   -1.6524 H   0  0  0  0  0  0  0  0  0  0  0  0
    0.7673   -7.4361   -2.4828 H   0  0  0  0  0  0  0  0  0  0  0  0
  1  2  1  0
  2  3  1  0
  2  4  1  0
  4  5  1  0
  5  6  1  0
  6  7  2  0
  6  8  2  0
  6  9  1  0
  9 10  2  0
 10 11  1  0
 11 12  2  0
 12 13  1  0
 13 14  2  0
 13 15  1  0
 15 16  1  0
 16 17  1  0
 17 18  1  0
  4 19  1  0
 19 20  2  0
 19 21  1  0
 21 22  1  0
 22 23  1  0
 23 24  2  0
 23 25  1  0
 25 26  1  0
 26 27  2  0
 27 28  1  0
 28 29  2  0
 29 30  1  0
 30 31  1  0
 30 32  2  0
 32 33  1  0
 14  9  1  0
 32 26  1  0
 18 12  1  0
  1 34  1  0
  1 35  1  0
  1 36  1  0
  2 37  1  0
  3 38  1  0
  3 39  1  0
  3 40  1  0
  4 41  1  0
  5 42  1  0
 10 43  1  0
 11 44  1  0
 14 45  1  0
 16 46  1  0
 16 47  1  0
 17 48  1  0
 17 49  1  0
 22 50  1  0
 22 51  1  0
 25 52  1  0
 27 53  1  0
 28 54  1  0
 29 55  1  0
M  END
$$$$
