
     RDKit          3D

 41 42  0  0  0  0  0  0  0  0999 V2000
   -3.4895    1.3546   -4.4568 C   0  0  0  0  0  0  0  0  0  0  0  0
   -4.4570    0.1631   -3.4932 S   0  0  0  0  0  0  0  0  0  0  0  0
   -3.4837    0.1124   -1.9996 C   0  0  0  0  0  0  0  0  0  0  0  0
   -2.1375   -0.2610   -2.0133 C   0  0  0  0  0  0  0  0  0  0  0  0
   -1.4048   -0.3070   -0.8239 C   0  0  0  0  0  0  0  0  0  0  0  0
   -2.0095    0.0123    0.3998 C   0  0  0  0  0  0  0  0  0  0  0  0
   -1.2139   -0.0387    1.6868 C   0  0  0  0  0  0  0  0  0  0  0  0
   -0.2332    1.0668    1.7993 N   0  0  0  0  0  0  0  0  0  0  0  0
   -0.9182    2.3377    2.0650 C   0  0  0  0  0  0  0  0  0  0  0  0
    0.7161    0.7811    2.9116 C   0  0  0  0  0  0  0  0  0  0  0  0
    1.7755   -0.2461    2.4789 C   0  0  0  0  0  0  0  0  0  0  0  0
    2.3149   -0.9835    3.2974 O   0  0  0  0  0  0  0  0  0  0  0  0
    2.0424   -0.1706    1.1229 N   0  0  0  0  0  0  0  0  0  0  0  0
    2.9531   -0.9227    0.3640 C   0  0  0  0  0  0  0  0  0  0  0  0
    3.8093   -1.8827    0.9067 C   0  0  0  0  0  0  0  0  0  0  0  0
    4.6882   -2.5959    0.0842 C   0  0  0  0  0  0  0  0  0  0  0  0
    4.7176   -2.3548   -1.2873 C   0  0  0  0  0  0  0  0  0  0  0  0
    3.8662   -1.3971   -1.8302 C   0  0  0  0  0  0  0  0  0  0  0  0
    3.8976   -1.0623   -3.6915 Br  0  0  0  0  0  0  0  0  0  0  0  0
    2.9888   -0.6807   -1.0142 C   0  0  0  0  0  0  0  0  0  0  0  0
   -3.3637    0.3721    0.4096 C   0  0  0  0  0  0  0  0  0  0  0  0
   -4.0946    0.4173   -0.7808 C   0  0  0  0  0  0  0  0  0  0  0  0
   -3.3659    2.2872   -3.9006 H   0  0  0  0  0  0  0  0  0  0  0  0
   -2.5074    0.9478   -4.7093 H   0  0  0  0  0  0  0  0  0  0  0  0
   -4.0210    1.5733   -5.3870 H   0  0  0  0  0  0  0  0  0  0  0  0
   -1.6477   -0.5345   -2.9440 H   0  0  0  0  0  0  0  0  0  0  0  0
   -0.3606   -0.6076   -0.8552 H   0  0  0  0  0  0  0  0  0  0  0  0
   -0.7015   -1.0101    1.6953 H   0  0  0  0  0  0  0  0  0  0  0  0
   -1.8885   -0.0544    2.5533 H   0  0  0  0  0  0  0  0  0  0  0  0
   -0.1903    3.1503    2.1693 H   0  0  0  0  0  0  0  0  0  0  0  0
   -1.5209    2.2998    2.9795 H   0  0  0  0  0  0  0  0  0  0  0  0
   -1.5670    2.6207    1.2306 H   0  0  0  0  0  0  0  0  0  0  0  0
    1.2762    1.6854    3.1811 H   0  0  0  0  0  0  0  0  0  0  0  0
    0.1931    0.4162    3.8032 H   0  0  0  0  0  0  0  0  0  0  0  0
    1.4403    0.4906    0.6348 H   0  0  0  0  0  0  0  0  0  0  0  0
    3.8174   -2.1011    1.9708 H   0  0  0  0  0  0  0  0  0  0  0  0
    5.3492   -3.3407    0.5209 H   0  0  0  0  0  0  0  0  0  0  0  0
    5.4032   -2.9146   -1.9175 H   0  0  0  0  0  0  0  0  0  0  0  0
    2.3354    0.0656   -1.4574 H   0  0  0  0  0  0  0  0  0  0  0  0
   -3.8619    0.6186    1.3444 H   0  0  0  0  0  0  0  0  0  0  0  0
   -5.1458    0.6931   -0.7473 H   0  0  0  0  0  0  0  0  0  0  0  0
  1  2  1  0
  2  3  1  0
  3  4  2  0
  4  5  1  0
  5  6  2  0
  6  7  1  0
  7  8  1  0
  8  9  1  0
  8 10  1  0
 10 11  1  0
 11 12  2  0
 11 13  1  0
 13 14  1  0
 14 15  2  0
 15 16  1  0
 16 17  2  0
 17 18  1  0
 18 19  1  0
 18 20  2  0
  6 21  1  0
 21 22  2  0
 22  3  1  0
 20 14  1  0
  1 23  1  0
  1 24  1  0
  1 25  1  0
  4 26  1  0
  5 27  1  0
  7 28  1  0
  7 29  1  0
  9 30  1  0
  9 31  1  0
  9 32  1  0
 10 33  1  0
 10 34  1  0
 13 35  1  0
 15 36  1  0
 16 37  1  0
 17 38  1  0
 20 39  1  0
 21 40  1  0
 22 41  1  0
M  END
$$$$
