
     RDKit          3D

 48 51  0  0  0  0  0  0  0  0999 V2000
    3.5333   -1.0842   -1.8104 O   0  0  0  0  0  0  0  0  0  0  0  0
    2.8393    0.1059   -1.3612 S   0  0  0  0  0  6  0  0  0  0  0  0
    2.8563    1.3297   -2.1364 O   0  0  0  0  0  0  0  0  0  0  0  0
    3.3387    0.4734    0.3321 C   0  0  0  0  0  0  0  0  0  0  0  0
    4.7923    0.8691    0.3502 C   0  0  0  0  0  0  0  0  0  0  0  0
    5.1669    2.2118    0.1965 C   0  0  0  0  0  0  0  0  0  0  0  0
    6.5136    2.5775    0.2130 C   0  0  0  0  0  0  0  0  0  0  0  0
    7.4989    1.6069    0.3802 C   0  0  0  0  0  0  0  0  0  0  0  0
    7.1394    0.2689    0.5265 C   0  0  0  0  0  0  0  0  0  0  0  0
    5.7935   -0.0999    0.5105 C   0  0  0  0  0  0  0  0  0  0  0  0
    1.2155   -0.3270   -1.1710 N   0  0  0  0  0  0  0  0  0  0  0  0
    0.2339    0.7627   -0.9266 C   0  0  0  0  0  0  0  0  0  0  0  0
   -1.1674    0.1790   -0.6724 C   0  0  0  0  0  0  0  0  0  0  0  0
   -1.2304   -0.6778    0.5356 N   0  0  0  0  0  0  0  0  0  0  0  0
   -2.3920   -1.5817    0.4896 C   0  0  0  0  0  0  0  0  0  0  0  0
   -3.7187   -0.8504    0.5093 C   0  0  0  0  0  0  0  0  0  0  0  0
   -4.0719   -0.0492    1.6217 C   0  0  0  0  0  0  0  0  0  0  0  0
   -5.2917    0.6330    1.6622 C   0  0  0  0  0  0  0  0  0  0  0  0
   -6.1361    0.4966    0.5829 C   0  0  0  0  0  0  0  0  0  0  0  0
   -5.8041   -0.2793   -0.5024 C   0  0  0  0  0  0  0  0  0  0  0  0
   -4.6089   -0.9642   -0.5712 C   0  0  0  0  0  0  0  0  0  0  0  0
   -6.7731   -0.2784   -1.4569 O   0  0  0  0  0  0  0  0  0  0  0  0
   -7.7525    0.5882   -0.8474 C   0  0  0  0  0  0  0  0  0  0  0  0
   -7.3553    1.0835    0.4480 O   0  0  0  0  0  0  0  0  0  0  0  0
    0.0281   -1.4248    0.7382 C   0  0  0  0  0  0  0  0  0  0  0  0
    0.8932   -1.6240   -0.5205 C   0  0  0  0  0  0  0  0  0  0  0  0
    3.1739   -0.4189    0.9428 H   0  0  0  0  0  0  0  0  0  0  0  0
    2.7137    1.2861    0.7120 H   0  0  0  0  0  0  0  0  0  0  0  0
    4.4137    2.9837    0.0489 H   0  0  0  0  0  0  0  0  0  0  0  0
    6.7944    3.6199    0.0861 H   0  0  0  0  0  0  0  0  0  0  0  0
    8.5476    1.8921    0.3861 H   0  0  0  0  0  0  0  0  0  0  0  0
    7.9088   -0.4900    0.6440 H   0  0  0  0  0  0  0  0  0  0  0  0
    5.5352   -1.1525    0.6102 H   0  0  0  0  0  0  0  0  0  0  0  0
    0.5416    1.3696   -0.0688 H   0  0  0  0  0  0  0  0  0  0  0  0
    0.1903    1.4076   -1.8109 H   0  0  0  0  0  0  0  0  0  0  0  0
   -1.8744    1.0092   -0.5618 H   0  0  0  0  0  0  0  0  0  0  0  0
   -1.4639   -0.3899   -1.5644 H   0  0  0  0  0  0  0  0  0  0  0  0
   -2.3894   -2.2356    1.3722 H   0  0  0  0  0  0  0  0  0  0  0  0
   -2.3318   -2.2458   -0.3829 H   0  0  0  0  0  0  0  0  0  0  0  0
   -3.3799    0.0456    2.4570 H   0  0  0  0  0  0  0  0  0  0  0  0
   -5.5634    1.2497    2.5110 H   0  0  0  0  0  0  0  0  0  0  0  0
   -4.3753   -1.5670   -1.4421 H   0  0  0  0  0  0  0  0  0  0  0  0
   -8.6913    0.0332   -0.7375 H   0  0  0  0  0  0  0  0  0  0  0  0
   -7.9255    1.4430   -1.5114 H   0  0  0  0  0  0  0  0  0  0  0  0
   -0.1517   -2.3970    1.2135 H   0  0  0  0  0  0  0  0  0  0  0  0
    0.6178   -0.8515    1.4655 H   0  0  0  0  0  0  0  0  0  0  0  0
    0.3648   -2.2494   -1.2496 H   0  0  0  0  0  0  0  0  0  0  0  0
    1.8040   -2.1629   -0.2402 H   0  0  0  0  0  0  0  0  0  0  0  0
  1  2  2  0
  2  3  2  0
  2  4  1  0
  4  5  1  0
  5  6  2  0
  6  7  1  0
  7  8  2  0
  8  9  1  0
  9 10  2  0
  2 11  1  0
 11 12  1  0
 12 13  1  0
 13 14  1  0
 14 15  1  0
 15 16  1  0
 16 17  2  0
 17 18  1  0
 18 19  2  0
 19 20  1  0
 20 21  2  0
 20 22  1  0
 22 23  1  0
 23 24  1  0
 14 25  1  0
 25 26  1  0
 10  5  1  0
 26 11  1  0
 21 16  1  0
 24 19  1  0
  4 27  1  0
  4 28  1  0
  6 29  1  0
  7 30  1  0
  8 31  1  0
  9 32  1  0
 10 33  1  0
 12 34  1  0
 12 35  1  0
 13 36  1  0
 13 37  1  0
 15 38  1  0
 15 39  1  0
 17 40  1  0
 18 41  1  0
 21 42  1  0
 23 43  1  0
 23 44  1  0
 25 45  1  0
 25 46  1  0
 26 47  1  0
 26 48  1  0
M  END
$$$$
