
     RDKit          3D

 41 44  0  0  0  0  0  0  0  0999 V2000
    0.9519    0.3561   -4.8231 O   0  0  0  0  0  0  0  0  0  0  0  0
    0.2583   -0.2059   -3.9966 C   0  0  0  0  0  0  0  0  0  0  0  0
   -0.6624   -1.1149   -4.3942 O   0  0  0  0  0  0  0  0  0  0  0  0
    0.3502   -0.0717   -2.4846 C   0  0  0  0  0  0  0  0  0  0  0  0
    1.6224   -0.7831   -2.0053 C   0  0  0  0  0  0  0  0  0  0  0  0
    2.0462   -0.3574   -0.6309 C   0  0  0  0  0  0  0  0  0  0  0  0
    3.0113    0.5895   -0.3475 C   0  0  0  0  0  0  0  0  0  0  0  0
    3.1013    0.7199    1.0097 N   0  0  0  0  0  0  0  0  0  0  0  0
    2.2164   -0.1289    1.6279 C   0  0  0  0  0  0  0  0  0  0  0  0
    1.9606   -0.3234    2.9915 C   0  0  0  0  0  0  0  0  0  0  0  0
    0.9962   -1.2709    3.3424 C   0  0  0  0  0  0  0  0  0  0  0  0
    0.3197   -1.9963    2.3658 C   0  0  0  0  0  0  0  0  0  0  0  0
    0.5859   -1.7864    1.0070 C   0  0  0  0  0  0  0  0  0  0  0  0
    1.5490   -0.8306    0.6246 C   0  0  0  0  0  0  0  0  0  0  0  0
   -0.8536   -0.7152   -1.8694 N   0  0  0  0  0  0  0  0  0  0  0  0
   -2.2062    0.2601   -1.6597 S   0  0  0  0  0  6  0  0  0  0  0  0
   -2.0794    1.4551   -2.4611 O   0  0  0  0  0  0  0  0  0  0  0  0
   -3.3317   -0.6352   -1.8499 O   0  0  0  0  0  0  0  0  0  0  0  0
   -2.1330    0.6548    0.0483 C   0  0  0  0  0  0  0  0  0  0  0  0
   -2.9619   -0.0281    0.9710 C   0  0  0  0  0  0  0  0  0  0  0  0
   -2.9542    0.2380    2.3588 C   0  0  0  0  0  0  0  0  0  0  0  0
   -2.1242    1.2091    2.9425 C   0  0  0  0  0  0  0  0  0  0  0  0
   -1.2798    1.9312    2.0619 C   0  0  0  0  0  0  0  0  0  0  0  0
   -0.4293    2.9053    2.4241 N   0  0  0  0  0  0  0  0  0  0  0  0
    0.3114    3.4197    1.0319 S   0  0  0  0  0  0  0  0  0  0  0  0
   -0.4208    2.4457   -0.0891 N   0  0  0  0  0  0  0  0  0  0  0  0
   -1.2811    1.6535    0.5729 C   0  0  0  0  0  0  0  0  0  0  0  0
   -0.6383   -1.0676   -5.3730 H   0  0  0  0  0  0  0  0  0  0  0  0
    0.3915    0.9889   -2.2392 H   0  0  0  0  0  0  0  0  0  0  0  0
    2.4485   -0.5672   -2.6953 H   0  0  0  0  0  0  0  0  0  0  0  0
    1.4941   -1.8717   -2.0266 H   0  0  0  0  0  0  0  0  0  0  0  0
    3.6347    1.1876   -1.0003 H   0  0  0  0  0  0  0  0  0  0  0  0
    3.7233    1.3480    1.4962 H   0  0  0  0  0  0  0  0  0  0  0  0
    2.4935    0.2394    3.7509 H   0  0  0  0  0  0  0  0  0  0  0  0
    0.7794   -1.4449    4.3929 H   0  0  0  0  0  0  0  0  0  0  0  0
   -0.4176   -2.7417    2.6517 H   0  0  0  0  0  0  0  0  0  0  0  0
    0.0530   -2.3604    0.2553 H   0  0  0  0  0  0  0  0  0  0  0  0
   -1.1406   -1.5656   -2.3734 H   0  0  0  0  0  0  0  0  0  0  0  0
   -3.6383   -0.8025    0.6075 H   0  0  0  0  0  0  0  0  0  0  0  0
   -3.6205   -0.3369    3.0025 H   0  0  0  0  0  0  0  0  0  0  0  0
   -2.1259    1.4046    4.0080 H   0  0  0  0  0  0  0  0  0  0  0  0
  1  2  2  0
  2  3  1  0
  2  4  1  0
  4  5  1  0
  5  6  1  0
  6  7  2  0
  7  8  1  0
  8  9  1  0
  9 10  2  0
 10 11  1  0
 11 12  2  0
 12 13  1  0
 13 14  2  0
  4 15  1  0
 15 16  1  0
 16 17  2  0
 16 18  2  0
 16 19  1  0
 19 20  2  0
 20 21  1  0
 21 22  2  0
 22 23  1  0
 23 24  2  0
 24 25  1  0
 25 26  1  0
 26 27  2  0
 14  6  1  0
 27 19  1  0
 14  9  1  0
 27 23  1  0
  3 28  1  0
  4 29  1  0
  5 30  1  0
  5 31  1  0
  7 32  1  0
  8 33  1  0
 10 34  1  0
 11 35  1  0
 12 36  1  0
 13 37  1  0
 15 38  1  0
 20 39  1  0
 21 40  1  0
 22 41  1  0
M  END
$$$$
