
     RDKit          3D

 54 56  0  0  0  0  0  0  0  0999 V2000
   -7.7573    2.8166   -0.8255 C   0  0  0  0  0  0  0  0  0  0  0  0
   -7.5292    1.3448   -0.5154 C   0  0  0  0  0  0  0  0  0  0  0  0
   -6.2351    1.0771    0.2547 C   0  0  0  0  0  0  0  0  0  0  0  0
   -4.9770    1.4245   -0.5384 C   0  0  0  0  0  0  0  0  0  0  0  0
   -3.7762    1.0845    0.1989 N   0  0  0  0  0  0  0  0  0  0  0  0
   -3.2379   -0.1859    0.1700 C   0  0  0  0  0  0  0  0  0  0  0  0
   -3.7072   -1.0930   -0.5088 O   0  0  0  0  0  0  0  0  0  0  0  0
   -2.0084   -0.3502    1.0675 C   0  0  0  0  0  0  0  0  0  0  0  0
   -0.8315    0.5119    0.5690 C   0  0  0  0  0  0  0  0  0  0  0  0
    0.1636   -0.2963   -0.2614 C   0  0  0  0  0  0  0  0  0  0  0  0
    0.7860   -1.4643    0.5326 C   0  0  0  0  0  0  0  0  0  0  0  0
    2.1447   -1.0939    1.1570 C   0  0  0  0  0  0  0  0  0  0  0  0
    3.1389   -0.8497    0.1213 N   0  0  0  0  0  0  0  0  0  0  0  0
    4.4494   -0.4361    0.3229 C   0  0  0  0  0  0  0  0  0  0  0  0
    4.8060    0.0713    1.5445 N   0  0  0  0  0  0  0  0  0  0  0  0
    6.0516    0.5173    1.8976 C   0  0  0  0  0  0  0  0  0  0  0  0
    6.2513    1.1188    3.4504 S   0  0  0  0  0  0  0  0  0  0  0  0
    7.0574    0.4475    0.9766 N   0  0  0  0  0  0  0  0  0  0  0  0
    6.7625   -0.0183   -0.1943 C   0  0  0  0  0  0  0  0  0  0  0  0
    7.8445   -0.1028   -1.2156 C   0  0  0  0  0  0  0  0  0  0  0  0
    7.5917   -0.5610   -2.4481 C   0  0  0  0  0  0  0  0  0  0  0  0
    6.2738   -0.9836   -2.8528 C   0  0  0  0  0  0  0  0  0  0  0  0
    5.2398   -0.9565   -1.9999 C   0  0  0  0  0  0  0  0  0  0  0  0
    5.4073   -0.4965   -0.6308 C   0  0  0  0  0  0  0  0  0  0  0  0
   -0.1615   -1.9837    1.6308 C   0  0  0  0  0  0  0  0  0  0  0  0
   -1.6224   -1.8320    1.2249 C   0  0  0  0  0  0  0  0  0  0  0  0
   -7.0096    3.1991   -1.5264 H   0  0  0  0  0  0  0  0  0  0  0  0
   -8.7415    2.9556   -1.2848 H   0  0  0  0  0  0  0  0  0  0  0  0
   -7.7199    3.4217    0.0866 H   0  0  0  0  0  0  0  0  0  0  0  0
   -7.5331    0.7708   -1.4493 H   0  0  0  0  0  0  0  0  0  0  0  0
   -8.3716    0.9803    0.0841 H   0  0  0  0  0  0  0  0  0  0  0  0
   -6.2109    0.0155    0.5301 H   0  0  0  0  0  0  0  0  0  0  0  0
   -6.2419    1.6369    1.1983 H   0  0  0  0  0  0  0  0  0  0  0  0
   -4.9244    2.4991   -0.7392 H   0  0  0  0  0  0  0  0  0  0  0  0
   -4.9695    0.8955   -1.4977 H   0  0  0  0  0  0  0  0  0  0  0  0
   -3.4213    1.7543    0.8687 H   0  0  0  0  0  0  0  0  0  0  0  0
   -2.3018    0.0271    2.0573 H   0  0  0  0  0  0  0  0  0  0  0  0
   -0.3054    0.9319    1.4361 H   0  0  0  0  0  0  0  0  0  0  0  0
   -1.1772    1.3667   -0.0229 H   0  0  0  0  0  0  0  0  0  0  0  0
    0.9362    0.3703   -0.6602 H   0  0  0  0  0  0  0  0  0  0  0  0
   -0.3629   -0.7029   -1.1352 H   0  0  0  0  0  0  0  0  0  0  0  0
    0.9547   -2.2825   -0.1818 H   0  0  0  0  0  0  0  0  0  0  0  0
    2.4937   -1.9148    1.7948 H   0  0  0  0  0  0  0  0  0  0  0  0
    2.0258   -0.2042    1.7862 H   0  0  0  0  0  0  0  0  0  0  0  0
    3.0267   -1.4449   -0.6939 H   0  0  0  0  0  0  0  0  0  0  0  0
    4.1004    0.1589    2.2587 H   0  0  0  0  0  0  0  0  0  0  0  0
    8.8320    0.2227   -0.9108 H   0  0  0  0  0  0  0  0  0  0  0  0
    8.3880   -0.6168   -3.1844 H   0  0  0  0  0  0  0  0  0  0  0  0
    6.1401   -1.3172   -3.8779 H   0  0  0  0  0  0  0  0  0  0  0  0
    4.2612   -1.2649   -2.3473 H   0  0  0  0  0  0  0  0  0  0  0  0
    0.0618   -3.0379    1.8338 H   0  0  0  0  0  0  0  0  0  0  0  0
    0.0043   -1.4442    2.5724 H   0  0  0  0  0  0  0  0  0  0  0  0
   -1.7893   -2.3923    0.2969 H   0  0  0  0  0  0  0  0  0  0  0  0
   -2.2692   -2.2943    1.9803 H   0  0  0  0  0  0  0  0  0  0  0  0
  1  2  1  0
  2  3  1  0
  3  4  1  0
  4  5  1  0
  5  6  1  0
  6  7  2  0
  6  8  1  0
  8  9  1  0
  9 10  1  0
 10 11  1  0
 11 12  1  0
 12 13  1  0
 13 14  1  0
 14 15  1  0
 15 16  1  0
 16 17  2  0
 16 18  1  0
 18 19  2  0
 19 20  1  0
 20 21  2  0
 21 22  1  0
 22 23  2  0
 23 24  1  0
 11 25  1  0
 25 26  1  0
 26  8  1  0
 24 14  2  0
 24 19  1  0
  1 27  1  0
  1 28  1  0
  1 29  1  0
  2 30  1  0
  2 31  1  0
  3 32  1  0
  3 33  1  0
  4 34  1  0
  4 35  1  0
  5 36  1  0
  8 37  1  0
  9 38  1  0
  9 39  1  0
 10 40  1  0
 10 41  1  0
 11 42  1  0
 12 43  1  0
 12 44  1  0
 13 45  1  0
 15 46  1  0
 20 47  1  0
 21 48  1  0
 22 49  1  0
 23 50  1  0
 25 51  1  0
 25 52  1  0
 26 53  1  0
 26 54  1  0
M  END
$$$$
