
     RDKit          3D

 51 53  0  0  0  0  0  0  0  0999 V2000
   -8.3004   -0.6359    0.2481 C   0  0  0  0  0  0  0  0  0  0  0  0
   -6.8555   -0.5242   -0.1545 C   0  0  0  0  0  0  0  0  0  0  0  0
   -6.4377   -1.0686   -1.3780 C   0  0  0  0  0  0  0  0  0  0  0  0
   -5.1041   -0.9811   -1.7895 C   0  0  0  0  0  0  0  0  0  0  0  0
   -4.1659   -0.3467   -0.9803 C   0  0  0  0  0  0  0  0  0  0  0  0
   -2.8343   -0.1968   -1.2541 O   0  0  0  0  0  0  0  0  0  0  0  0
   -2.3827   -0.6402   -2.5328 C   0  0  0  0  0  0  0  0  0  0  0  0
   -0.9277   -0.3706   -2.5853 C   0  0  0  0  0  0  0  0  0  0  0  0
    0.0980   -0.4374   -1.6740 C   0  0  0  0  0  0  0  0  0  0  0  0
    1.2525   -0.0475   -2.4020 C   0  0  0  0  0  0  0  0  0  0  0  0
    2.6331    0.0463   -1.9219 C   0  0  0  0  0  0  0  0  0  0  0  0
    3.5232   -0.6390   -2.4256 O   0  0  0  0  0  0  0  0  0  0  0  0
    2.8920    0.9055   -0.8406 N   0  0  0  0  0  0  0  0  0  0  0  0
    1.9011    1.7719   -0.2158 C   0  0  0  0  0  0  0  0  0  0  0  0
    4.1972    0.8025   -0.1851 C   0  0  0  0  0  0  0  0  0  0  0  0
    4.2224   -0.3088    0.8692 C   0  0  0  0  0  0  0  0  0  0  0  0
    5.5607   -0.4002    1.5565 C   0  0  0  0  0  0  0  0  0  0  0  0
    6.6211   -1.0863    0.9478 C   0  0  0  0  0  0  0  0  0  0  0  0
    7.8673   -1.1576    1.5714 C   0  0  0  0  0  0  0  0  0  0  0  0
    8.0656   -0.5434    2.8065 C   0  0  0  0  0  0  0  0  0  0  0  0
    7.0183    0.1441    3.4185 C   0  0  0  0  0  0  0  0  0  0  0  0
    5.7712    0.2182    2.7960 C   0  0  0  0  0  0  0  0  0  0  0  0
    0.9380    0.2062   -3.6832 N   0  0  0  0  0  0  0  0  0  0  0  0
   -0.4266    0.0137   -3.7886 O   0  0  0  0  0  0  0  0  0  0  0  0
   -4.5751    0.1991    0.2399 C   0  0  0  0  0  0  0  0  0  0  0  0
   -5.9117    0.1233    0.6644 C   0  0  0  0  0  0  0  0  0  0  0  0
   -6.3023    0.7388    1.9801 C   0  0  0  0  0  0  0  0  0  0  0  0
   -8.8793   -1.2067   -0.4858 H   0  0  0  0  0  0  0  0  0  0  0  0
   -8.7507    0.3596    0.3255 H   0  0  0  0  0  0  0  0  0  0  0  0
   -8.3901   -1.1532    1.2088 H   0  0  0  0  0  0  0  0  0  0  0  0
   -7.1542   -1.5700   -2.0267 H   0  0  0  0  0  0  0  0  0  0  0  0
   -4.8412   -1.4224   -2.7443 H   0  0  0  0  0  0  0  0  0  0  0  0
   -2.8972   -0.0874   -3.3275 H   0  0  0  0  0  0  0  0  0  0  0  0
   -2.5476   -1.7176   -2.6487 H   0  0  0  0  0  0  0  0  0  0  0  0
    0.0275   -0.7272   -0.6366 H   0  0  0  0  0  0  0  0  0  0  0  0
    1.4658    1.2477    0.6401 H   0  0  0  0  0  0  0  0  0  0  0  0
    1.1119    2.0513   -0.9169 H   0  0  0  0  0  0  0  0  0  0  0  0
    2.3851    2.6915    0.1267 H   0  0  0  0  0  0  0  0  0  0  0  0
    4.4438    1.7728    0.2609 H   0  0  0  0  0  0  0  0  0  0  0  0
    4.9631    0.6107   -0.9458 H   0  0  0  0  0  0  0  0  0  0  0  0
    3.4352   -0.1368    1.6145 H   0  0  0  0  0  0  0  0  0  0  0  0
    3.9841   -1.2772    0.4114 H   0  0  0  0  0  0  0  0  0  0  0  0
    6.4814   -1.5686   -0.0184 H   0  0  0  0  0  0  0  0  0  0  0  0
    8.6834   -1.6912    1.0912 H   0  0  0  0  0  0  0  0  0  0  0  0
    9.0366   -0.5999    3.2912 H   0  0  0  0  0  0  0  0  0  0  0  0
    7.1738    0.6232    4.3813 H   0  0  0  0  0  0  0  0  0  0  0  0
    4.9661    0.7601    3.2868 H   0  0  0  0  0  0  0  0  0  0  0  0
   -3.8353    0.6965    0.8646 H   0  0  0  0  0  0  0  0  0  0  0  0
   -6.7083   -0.0240    2.6517 H   0  0  0  0  0  0  0  0  0  0  0  0
   -5.4429    1.1927    2.4835 H   0  0  0  0  0  0  0  0  0  0  0  0
   -7.0487    1.5247    1.8253 H   0  0  0  0  0  0  0  0  0  0  0  0
  1  2  1  0
  2  3  2  0
  3  4  1  0
  4  5  2  0
  5  6  1  0
  6  7  1  0
  7  8  1  0
  8  9  2  0
  9 10  1  0
 10 11  1  0
 11 12  2  0
 11 13  1  0
 13 14  1  0
 13 15  1  0
 15 16  1  0
 16 17  1  0
 17 18  2  0
 18 19  1  0
 19 20  2  0
 20 21  1  0
 21 22  2  0
 10 23  2  0
 23 24  1  0
  5 25  1  0
 25 26  2  0
 26 27  1  0
 26  2  1  0
 24  8  1  0
 22 17  1  0
  1 28  1  0
  1 29  1  0
  1 30  1  0
  3 31  1  0
  4 32  1  0
  7 33  1  0
  7 34  1  0
  9 35  1  0
 14 36  1  0
 14 37  1  0
 14 38  1  0
 15 39  1  0
 15 40  1  0
 16 41  1  0
 16 42  1  0
 18 43  1  0
 19 44  1  0
 20 45  1  0
 21 46  1  0
 22 47  1  0
 25 48  1  0
 27 49  1  0
 27 50  1  0
 27 51  1  0
M  END
$$$$
