
     RDKit          3D

 62 66  0  0  0  0  0  0  0  0999 V2000
   -8.9925    1.7349   -2.5453 C   0  0  0  0  0  0  0  0  0  0  0  0
   -8.1406    0.8951   -1.6258 C   0  0  0  0  0  0  0  0  0  0  0  0
   -8.6573   -0.2132   -1.0625 C   0  0  0  0  0  0  0  0  0  0  0  0
   -7.8730   -1.0579   -0.1536 C   0  0  0  0  0  0  0  0  0  0  0  0
   -8.4674   -2.1859    0.4256 C   0  0  0  0  0  0  0  0  0  0  0  0
   -7.7424   -2.9891    1.3031 C   0  0  0  0  0  0  0  0  0  0  0  0
   -6.4227   -2.6666    1.6057 C   0  0  0  0  0  0  0  0  0  0  0  0
   -5.8160   -1.5443    1.0311 C   0  0  0  0  0  0  0  0  0  0  0  0
   -6.5335   -0.7366    0.1442 C   0  0  0  0  0  0  0  0  0  0  0  0
   -6.0139    0.4287   -0.4866 N   0  0  0  0  0  0  0  0  0  0  0  0
   -4.7821    1.0615   -0.4796 C   0  0  0  0  0  0  0  0  0  0  0  0
   -3.3254    0.5335    0.2934 S   0  0  0  0  0  0  0  0  0  0  0  0
   -2.5725    2.1451    0.6638 C   0  0  0  0  0  0  0  0  0  0  0  0
   -1.2256    1.9242    1.3332 C   0  0  0  0  0  0  0  0  0  0  0  0
   -1.1496    1.6989    2.5382 O   0  0  0  0  0  0  0  0  0  0  0  0
   -0.1644    1.9975    0.4427 N   0  0  0  0  0  0  0  0  0  0  0  0
    1.2108    1.8806    0.7293 C   0  0  0  0  0  0  0  0  0  0  0  0
    2.0961    1.9837   -0.3544 C   0  0  0  0  0  0  0  0  0  0  0  0
    3.4770    1.8981   -0.1585 C   0  0  0  0  0  0  0  0  0  0  0  0
    3.9767    1.7050    1.1292 C   0  0  0  0  0  0  0  0  0  0  0  0
    5.7325    1.6167    1.3679 S   0  0  0  0  0  6  0  0  0  0  0  0
    6.0006    1.3646    2.7680 O   0  0  0  0  0  0  0  0  0  0  0  0
    6.3077    2.7564    0.6851 O   0  0  0  0  0  0  0  0  0  0  0  0
    6.1639    0.1962    0.5012 N   0  0  0  0  0  0  0  0  0  0  0  0
    5.6144   -1.0655    1.0771 C   0  0  0  0  0  0  0  0  0  0  0  0
    5.8678   -2.2204    0.1120 C   0  0  0  0  0  0  0  0  0  0  0  0
    7.3646   -2.3766   -0.1823 C   0  0  0  0  0  0  0  0  0  0  0  0
    7.6093   -3.4953   -1.1922 C   0  0  0  0  0  0  0  0  0  0  0  0
    7.9357   -1.0463   -0.6872 C   0  0  0  0  0  0  0  0  0  0  0  0
    7.6365    0.0922    0.2840 C   0  0  0  0  0  0  0  0  0  0  0  0
    3.1104    1.5972    2.2179 C   0  0  0  0  0  0  0  0  0  0  0  0
    1.7292    1.6849    2.0131 C   0  0  0  0  0  0  0  0  0  0  0  0
   -4.8263    2.1586   -1.2022 N   0  0  0  0  0  0  0  0  0  0  0  0
   -6.0790    2.2677   -1.7323 N   0  0  0  0  0  0  0  0  0  0  0  0
   -6.7857    1.2344   -1.3249 C   0  0  0  0  0  0  0  0  0  0  0  0
   -8.5862    1.7099   -3.5626 H   0  0  0  0  0  0  0  0  0  0  0  0
   -9.0077    2.7764   -2.2040 H   0  0  0  0  0  0  0  0  0  0  0  0
  -10.0311    1.3869   -2.5880 H   0  0  0  0  0  0  0  0  0  0  0  0
   -9.6819   -0.5144   -1.2642 H   0  0  0  0  0  0  0  0  0  0  0  0
   -9.4994   -2.4472    0.2041 H   0  0  0  0  0  0  0  0  0  0  0  0
   -8.2070   -3.8623    1.7555 H   0  0  0  0  0  0  0  0  0  0  0  0
   -5.8584   -3.2898    2.2967 H   0  0  0  0  0  0  0  0  0  0  0  0
   -4.7937   -1.3507    1.3235 H   0  0  0  0  0  0  0  0  0  0  0  0
   -2.4454    2.7285   -0.2529 H   0  0  0  0  0  0  0  0  0  0  0  0
   -3.2096    2.7180    1.3453 H   0  0  0  0  0  0  0  0  0  0  0  0
   -0.4000    2.1303   -0.5345 H   0  0  0  0  0  0  0  0  0  0  0  0
    1.7248    2.1377   -1.3643 H   0  0  0  0  0  0  0  0  0  0  0  0
    4.1559    1.9940   -1.0042 H   0  0  0  0  0  0  0  0  0  0  0  0
    6.0821   -1.2745    2.0461 H   0  0  0  0  0  0  0  0  0  0  0  0
    4.5338   -0.9789    1.2288 H   0  0  0  0  0  0  0  0  0  0  0  0
    5.3207   -2.0402   -0.8229 H   0  0  0  0  0  0  0  0  0  0  0  0
    5.4730   -3.1493    0.5423 H   0  0  0  0  0  0  0  0  0  0  0  0
    7.8784   -2.6454    0.7510 H   0  0  0  0  0  0  0  0  0  0  0  0
    8.6820   -3.6369   -1.3605 H   0  0  0  0  0  0  0  0  0  0  0  0
    7.1419   -3.2729   -2.1573 H   0  0  0  0  0  0  0  0  0  0  0  0
    7.1998   -4.4431   -0.8282 H   0  0  0  0  0  0  0  0  0  0  0  0
    9.0201   -1.1317   -0.8235 H   0  0  0  0  0  0  0  0  0  0  0  0
    7.5056   -0.8072   -1.6683 H   0  0  0  0  0  0  0  0  0  0  0  0
    8.0149    1.0224   -0.1551 H   0  0  0  0  0  0  0  0  0  0  0  0
    8.1463   -0.0732    1.2398 H   0  0  0  0  0  0  0  0  0  0  0  0
    3.4944    1.4549    3.2261 H   0  0  0  0  0  0  0  0  0  0  0  0
    1.0838    1.6003    2.8829 H   0  0  0  0  0  0  0  0  0  0  0  0
  1  2  1  0
  2  3  2  0
  3  4  1  0
  4  5  2  0
  5  6  1  0
  6  7  2  0
  7  8  1  0
  8  9  2  0
  9 10  1  0
 10 11  1  0
 11 12  1  0
 12 13  1  0
 13 14  1  0
 14 15  2  0
 14 16  1  0
 16 17  1  0
 17 18  2  0
 18 19  1  0
 19 20  2  0
 20 21  1  0
 21 22  2  0
 21 23  2  0
 21 24  1  0
 24 25  1  0
 25 26  1  0
 26 27  1  0
 27 28  1  0
 27 29  1  0
 29 30  1  0
 20 31  1  0
 31 32  2  0
 11 33  2  0
 33 34  1  0
 34 35  2  0
 35  2  1  0
  9  4  1  0
 35 10  1  0
 32 17  1  0
 30 24  1  0
  1 36  1  0
  1 37  1  0
  1 38  1  0
  3 39  1  0
  5 40  1  0
  6 41  1  0
  7 42  1  0
  8 43  1  0
 13 44  1  0
 13 45  1  0
 16 46  1  0
 18 47  1  0
 19 48  1  0
 25 49  1  0
 25 50  1  0
 26 51  1  0
 26 52  1  0
 27 53  1  0
 28 54  1  0
 28 55  1  0
 28 56  1  0
 29 57  1  0
 29 58  1  0
 30 59  1  0
 30 60  1  0
 31 61  1  0
 32 62  1  0
M  END
$$$$
