
     RDKit          3D

 45 47  0  0  0  0  0  0  0  0999 V2000
   -0.1675    2.8376   -0.6191 C   0  0  0  0  0  0  0  0  0  0  0  0
    0.5187    1.6496   -0.0245 C   0  0  0  0  0  0  0  0  0  0  0  0
   -0.0656    0.4871    0.3168 C   0  0  0  0  0  0  0  0  0  0  0  0
   -1.3415   -0.0305    0.2114 N   0  0  0  0  0  0  0  0  0  0  0  0
   -2.1046   -0.0784   -1.0369 C   0  0  0  0  0  0  0  0  0  0  0  0
   -1.4140   -0.9644   -2.0782 C   0  0  0  0  0  0  0  0  0  0  0  0
   -3.5207   -0.5565   -0.7506 C   0  0  0  0  0  0  0  0  0  0  0  0
   -4.6085    0.2362   -1.1595 C   0  0  0  0  0  0  0  0  0  0  0  0
   -5.9239   -0.1735   -0.9286 C   0  0  0  0  0  0  0  0  0  0  0  0
   -6.1752   -1.3824   -0.2846 C   0  0  0  0  0  0  0  0  0  0  0  0
   -5.1129   -2.1827    0.1320 C   0  0  0  0  0  0  0  0  0  0  0  0
   -3.8002   -1.7686   -0.1009 C   0  0  0  0  0  0  0  0  0  0  0  0
   -2.7607   -2.5516    0.3202 O   0  0  0  0  0  0  0  0  0  0  0  0
    1.0409   -0.3322    0.9395 C   0  0  0  0  0  0  0  0  0  0  0  0
    0.8637   -1.4729    1.3452 O   0  0  0  0  0  0  0  0  0  0  0  0
    2.2066    0.4358    0.8551 N   0  0  0  0  0  0  0  0  0  0  0  0
    3.5301   -0.0778    0.8296 C   0  0  0  0  0  0  0  0  0  0  0  0
    3.8498   -1.2741    1.4862 C   0  0  0  0  0  0  0  0  0  0  0  0
    5.1534   -1.7819    1.4671 C   0  0  0  0  0  0  0  0  0  0  0  0
    6.1587   -1.1028    0.7854 C   0  0  0  0  0  0  0  0  0  0  0  0
    5.8603    0.0819    0.1197 C   0  0  0  0  0  0  0  0  0  0  0  0
    4.5567    0.5883    0.1416 C   0  0  0  0  0  0  0  0  0  0  0  0
    1.8879    1.7065    0.2946 N   0  0  0  0  0  0  0  0  0  0  0  0
    2.3601    2.8387    1.1115 C   0  0  0  0  0  0  0  0  0  0  0  0
    0.1859    3.0045   -1.6414 H   0  0  0  0  0  0  0  0  0  0  0  0
   -1.2536    2.7223   -0.6468 H   0  0  0  0  0  0  0  0  0  0  0  0
    0.0284    3.7417   -0.0345 H   0  0  0  0  0  0  0  0  0  0  0  0
   -1.3549   -0.9690    0.6346 H   0  0  0  0  0  0  0  0  0  0  0  0
   -2.1652    0.9318   -1.4546 H   0  0  0  0  0  0  0  0  0  0  0  0
   -2.0198   -1.0444   -2.9877 H   0  0  0  0  0  0  0  0  0  0  0  0
   -1.2320   -1.9784   -1.7069 H   0  0  0  0  0  0  0  0  0  0  0  0
   -0.4420   -0.5464   -2.3624 H   0  0  0  0  0  0  0  0  0  0  0  0
   -4.4368    1.1861   -1.6614 H   0  0  0  0  0  0  0  0  0  0  0  0
   -6.7516    0.4536   -1.2502 H   0  0  0  0  0  0  0  0  0  0  0  0
   -7.1990   -1.6992   -0.1042 H   0  0  0  0  0  0  0  0  0  0  0  0
   -5.3250   -3.1206    0.6358 H   0  0  0  0  0  0  0  0  0  0  0  0
   -3.1140   -3.3171    0.8028 H   0  0  0  0  0  0  0  0  0  0  0  0
    3.0960   -1.8270    2.0410 H   0  0  0  0  0  0  0  0  0  0  0  0
    5.3774   -2.7100    1.9869 H   0  0  0  0  0  0  0  0  0  0  0  0
    7.1700   -1.5002    0.7678 H   0  0  0  0  0  0  0  0  0  0  0  0
    6.6375    0.6100   -0.4264 H   0  0  0  0  0  0  0  0  0  0  0  0
    4.3496    1.4964   -0.4175 H   0  0  0  0  0  0  0  0  0  0  0  0
    1.7550    2.9440    2.0195 H   0  0  0  0  0  0  0  0  0  0  0  0
    2.2985    3.7687    0.5371 H   0  0  0  0  0  0  0  0  0  0  0  0
    3.4040    2.7218    1.4168 H   0  0  0  0  0  0  0  0  0  0  0  0
  1  2  1  0
  2  3  2  0
  3  4  1  0
  4  5  1  0
  5  6  1  0
  5  7  1  0
  7  8  2  0
  8  9  1  0
  9 10  2  0
 10 11  1  0
 11 12  2  0
 12 13  1  0
  3 14  1  0
 14 15  2  0
 14 16  1  0
 16 17  1  0
 17 18  2  0
 18 19  1  0
 19 20  2  0
 20 21  1  0
 21 22  2  0
 16 23  1  0
 23 24  1  0
 23  2  1  0
 12  7  1  0
 22 17  1  0
  1 25  1  0
  1 26  1  0
  1 27  1  0
  4 28  1  0
  5 29  1  0
  6 30  1  0
  6 31  1  0
  6 32  1  0
  8 33  1  0
  9 34  1  0
 10 35  1  0
 11 36  1  0
 13 37  1  0
 18 38  1  0
 19 39  1  0
 20 40  1  0
 21 41  1  0
 22 42  1  0
 24 43  1  0
 24 44  1  0
 24 45  1  0
M  END
$$$$
