
     RDKit          3D

 48 51  0  0  0  0  0  0  0  0999 V2000
    2.8004    1.3588    2.1923 O   0  0  0  0  0  0  0  0  0  0  0  0
    2.8032    0.1247    1.4335 S   0  0  0  0  0  6  0  0  0  0  0  0
    3.4850   -1.0592    1.9165 O   0  0  0  0  0  0  0  0  0  0  0  0
    3.3464    0.4694   -0.2511 C   0  0  0  0  0  0  0  0  0  0  0  0
    4.8001    0.8650   -0.2368 C   0  0  0  0  0  0  0  0  0  0  0  0
    5.1707    2.2098   -0.0922 C   0  0  0  0  0  0  0  0  0  0  0  0
    6.5175    2.5754   -0.0787 C   0  0  0  0  0  0  0  0  0  0  0  0
    7.5067    1.6028   -0.2065 C   0  0  0  0  0  0  0  0  0  0  0  0
    7.1509    0.2628   -0.3435 C   0  0  0  0  0  0  0  0  0  0  0  0
    5.8049   -0.1060   -0.3574 C   0  0  0  0  0  0  0  0  0  0  0  0
    1.1848   -0.3109    1.2071 N   0  0  0  0  0  0  0  0  0  0  0  0
    0.2101    0.7753    0.9229 C   0  0  0  0  0  0  0  0  0  0  0  0
   -1.1843    0.1881    0.6404 C   0  0  0  0  0  0  0  0  0  0  0  0
   -1.2164   -0.6850   -0.5572 N   0  0  0  0  0  0  0  0  0  0  0  0
   -2.3789   -1.5883   -0.5288 C   0  0  0  0  0  0  0  0  0  0  0  0
   -3.7045   -0.8576   -0.5924 C   0  0  0  0  0  0  0  0  0  0  0  0
   -4.0287   -0.0711   -1.7240 C   0  0  0  0  0  0  0  0  0  0  0  0
   -5.2470    0.6102   -1.8049 C   0  0  0  0  0  0  0  0  0  0  0  0
   -6.1191    0.4877   -0.7462 C   0  0  0  0  0  0  0  0  0  0  0  0
   -5.8155   -0.2739    0.3573 C   0  0  0  0  0  0  0  0  0  0  0  0
   -4.6225   -0.9575    0.4660 C   0  0  0  0  0  0  0  0  0  0  0  0
   -6.8088   -0.2608    1.2863 O   0  0  0  0  0  0  0  0  0  0  0  0
   -7.7720    0.5976    0.6404 C   0  0  0  0  0  0  0  0  0  0  0  0
   -7.3413    1.0761   -0.6506 O   0  0  0  0  0  0  0  0  0  0  0  0
    0.0468   -1.4344   -0.7172 C   0  0  0  0  0  0  0  0  0  0  0  0
    0.8791   -1.6166    0.5660 C   0  0  0  0  0  0  0  0  0  0  0  0
    2.7317    1.2767   -0.6580 H   0  0  0  0  0  0  0  0  0  0  0  0
    3.1974   -0.4312   -0.8537 H   0  0  0  0  0  0  0  0  0  0  0  0
    4.4141    2.9836    0.0249 H   0  0  0  0  0  0  0  0  0  0  0  0
    6.7951    3.6196    0.0410 H   0  0  0  0  0  0  0  0  0  0  0  0
    8.5553    1.8881   -0.1891 H   0  0  0  0  0  0  0  0  0  0  0  0
    7.9229   -0.4975   -0.4302 H   0  0  0  0  0  0  0  0  0  0  0  0
    5.5491   -1.1599   -0.4491 H   0  0  0  0  0  0  0  0  0  0  0  0
    0.1439    1.4321    1.7969 H   0  0  0  0  0  0  0  0  0  0  0  0
    0.5400    1.3707    0.0651 H   0  0  0  0  0  0  0  0  0  0  0  0
   -1.8880    1.0166    0.5004 H   0  0  0  0  0  0  0  0  0  0  0  0
   -1.5039   -0.3688    1.5321 H   0  0  0  0  0  0  0  0  0  0  0  0
   -2.3538   -2.2540   -1.4022 H   0  0  0  0  0  0  0  0  0  0  0  0
   -2.3412   -2.2407    0.3538 H   0  0  0  0  0  0  0  0  0  0  0  0
   -3.3153    0.0129   -2.5423 H   0  0  0  0  0  0  0  0  0  0  0  0
   -5.4966    1.2157   -2.6685 H   0  0  0  0  0  0  0  0  0  0  0  0
   -4.4116   -1.5489    1.3504 H   0  0  0  0  0  0  0  0  0  0  0  0
   -8.7077    0.0409    0.5135 H   0  0  0  0  0  0  0  0  0  0  0  0
   -7.9620    1.4609    1.2885 H   0  0  0  0  0  0  0  0  0  0  0  0
   -0.1208   -2.4129   -1.1839 H   0  0  0  0  0  0  0  0  0  0  0  0
    0.6552   -0.8707   -1.4366 H   0  0  0  0  0  0  0  0  0  0  0  0
    0.3320   -2.2322    1.2896 H   0  0  0  0  0  0  0  0  0  0  0  0
    1.7967   -2.1590    0.3165 H   0  0  0  0  0  0  0  0  0  0  0  0
  1  2  2  0
  2  3  2  0
  2  4  1  0
  4  5  1  0
  5  6  2  0
  6  7  1  0
  7  8  2  0
  8  9  1  0
  9 10  2  0
  2 11  1  0
 11 12  1  0
 12 13  1  0
 13 14  1  0
 14 15  1  0
 15 16  1  0
 16 17  2  0
 17 18  1  0
 18 19  2  0
 19 20  1  0
 20 21  2  0
 20 22  1  0
 22 23  1  0
 23 24  1  0
 14 25  1  0
 25 26  1  0
 10  5  1  0
 26 11  1  0
 21 16  1  0
 24 19  1  0
  4 27  1  0
  4 28  1  0
  6 29  1  0
  7 30  1  0
  8 31  1  0
  9 32  1  0
 10 33  1  0
 12 34  1  0
 12 35  1  0
 13 36  1  0
 13 37  1  0
 15 38  1  0
 15 39  1  0
 17 40  1  0
 18 41  1  0
 21 42  1  0
 23 43  1  0
 23 44  1  0
 25 45  1  0
 25 46  1  0
 26 47  1  0
 26 48  1  0
M  END
$$$$
