
     RDKit          3D

 36 38  0  0  0  0  0  0  0  0999 V2000
    0.0094   -0.7325   -1.9131 O   0  0  0  0  0  0  0  0  0  0  0  0
   -0.2840   -0.1283   -0.8885 C   0  0  0  0  0  0  0  0  0  0  0  0
   -1.6914    0.1222   -0.4689 C   0  0  0  0  0  0  0  0  0  0  0  0
   -2.7271   -0.3190   -1.1966 C   0  0  0  0  0  0  0  0  0  0  0  0
   -4.1465   -0.1148   -0.8916 C   0  0  0  0  0  0  0  0  0  0  0  0
   -4.7429   -0.7056    0.2302 C   0  0  0  0  0  0  0  0  0  0  0  0
   -6.1012   -0.5095    0.4943 C   0  0  0  0  0  0  0  0  0  0  0  0
   -6.8599    0.2720   -0.3708 C   0  0  0  0  0  0  0  0  0  0  0  0
   -8.1876    0.4899   -0.1523 O   0  0  0  0  0  0  0  0  0  0  0  0
   -6.2848    0.8556   -1.4932 C   0  0  0  0  0  0  0  0  0  0  0  0
   -4.9278    0.6602   -1.7566 C   0  0  0  0  0  0  0  0  0  0  0  0
   -1.7375    1.0396    0.9850 S   0  0  0  0  0  0  0  0  0  0  0  0
    0.0182    1.1767    1.0711 C   0  0  0  0  0  0  0  0  0  0  0  0
    0.7707    2.1128    2.2348 S   0  0  0  0  0  0  0  0  0  0  0  0
    0.5825    0.4166    0.0550 N   0  0  0  0  0  0  0  0  0  0  0  0
    1.9330    0.4006   -0.2332 N   0  0  0  0  0  0  0  0  0  0  0  0
    2.6971   -0.1296    0.6694 C   0  0  0  0  0  0  0  0  0  0  0  0
    4.1631   -0.1931    0.5097 C   0  0  0  0  0  0  0  0  0  0  0  0
    4.7801    0.2786   -0.6529 C   0  0  0  0  0  0  0  0  0  0  0  0
    6.1683    0.2065   -0.7766 C   0  0  0  0  0  0  0  0  0  0  0  0
    6.9262   -0.3328    0.2578 C   0  0  0  0  0  0  0  0  0  0  0  0
    8.2783   -0.3815    0.0924 O   0  0  0  0  0  0  0  0  0  0  0  0
    6.3204   -0.8048    1.4194 C   0  0  0  0  0  0  0  0  0  0  0  0
    4.9305   -0.7353    1.5466 C   0  0  0  0  0  0  0  0  0  0  0  0
   -2.5409   -0.8636   -2.1220 H   0  0  0  0  0  0  0  0  0  0  0  0
   -4.1569   -1.3245    0.9055 H   0  0  0  0  0  0  0  0  0  0  0  0
   -6.5439   -0.9725    1.3704 H   0  0  0  0  0  0  0  0  0  0  0  0
   -8.4469    0.0352    0.6657 H   0  0  0  0  0  0  0  0  0  0  0  0
   -6.8904    1.4612   -2.1615 H   0  0  0  0  0  0  0  0  0  0  0  0
   -4.4882    1.1217   -2.6380 H   0  0  0  0  0  0  0  0  0  0  0  0
    2.2834   -0.5731    1.5938 H   0  0  0  0  0  0  0  0  0  0  0  0
    4.1911    0.6993   -1.4646 H   0  0  0  0  0  0  0  0  0  0  0  0
    6.6562    0.5699   -1.6770 H   0  0  0  0  0  0  0  0  0  0  0  0
    8.6792   -0.7716    0.8862 H   0  0  0  0  0  0  0  0  0  0  0  0
    6.9092   -1.2252    2.2289 H   0  0  0  0  0  0  0  0  0  0  0  0
    4.4611   -1.1016    2.4558 H   0  0  0  0  0  0  0  0  0  0  0  0
  1  2  2  0
  2  3  1  0
  3  4  2  3
  4  5  1  0
  5  6  2  0
  6  7  1  0
  7  8  2  0
  8  9  1  0
  8 10  1  0
 10 11  2  0
  3 12  1  0
 12 13  1  0
 13 14  2  0
 13 15  1  0
 15 16  1  0
 16 17  2  3
 17 18  1  0
 18 19  2  0
 19 20  1  0
 20 21  2  0
 21 22  1  0
 21 23  1  0
 23 24  2  0
 15  2  1  0
 24 18  1  0
 11  5  1  0
  4 25  1  0
  6 26  1  0
  7 27  1  0
  9 28  1  0
 10 29  1  0
 11 30  1  0
 17 31  1  0
 19 32  1  0
 20 33  1  0
 22 34  1  0
 23 35  1  0
 24 36  1  0
M  END
$$$$
