
     RDKit          3D

 53 56  0  0  0  0  0  0  0  0999 V2000
    7.0860   -1.1410    2.8374 C   0  0  0  0  0  0  0  0  0  0  0  0
    7.3193   -0.8506    1.3650 C   0  0  0  0  0  0  0  0  0  0  0  0
    6.6083    0.3183    0.9616 O   0  0  0  0  0  0  0  0  0  0  0  0
    5.3374    0.1839    0.4806 C   0  0  0  0  0  0  0  0  0  0  0  0
    4.5676   -0.9756    0.4840 C   0  0  0  0  0  0  0  0  0  0  0  0
    3.2658   -0.9638   -0.0406 C   0  0  0  0  0  0  0  0  0  0  0  0
    2.6960    0.2054   -0.5757 C   0  0  0  0  0  0  0  0  0  0  0  0
    1.3247    0.2340   -1.1255 C   0  0  0  0  0  0  0  0  0  0  0  0
    0.2990   -0.5530   -0.6328 C   0  0  0  0  0  0  0  0  0  0  0  0
   -0.9607   -0.4401   -1.2193 C   0  0  0  0  0  0  0  0  0  0  0  0
   -2.0303   -1.2771   -0.6455 C   0  0  0  0  0  0  0  0  0  0  0  0
   -1.9871   -2.4846   -0.8621 O   0  0  0  0  0  0  0  0  0  0  0  0
   -3.0069   -0.6613    0.1242 N   0  0  0  0  0  0  0  0  0  0  0  0
   -2.9910    0.7484    0.5406 C   0  0  0  0  0  0  0  0  0  0  0  0
   -3.7710    0.9661    1.8502 C   0  0  0  0  0  0  0  0  0  0  0  0
   -5.1846    0.5510    1.7609 N   0  0  0  0  0  0  0  0  0  0  0  0
   -5.7552    0.3702    3.0930 C   0  0  0  0  0  0  0  0  0  0  0  0
   -5.3711   -0.6456    0.9135 C   0  0  0  0  0  0  0  0  0  0  0  0
   -4.1008   -1.4757    0.6543 C   0  0  0  0  0  0  0  0  0  0  0  0
   -1.1906    0.4142   -2.3146 C   0  0  0  0  0  0  0  0  0  0  0  0
   -2.4246    0.5372   -3.0011 C   0  0  0  0  0  0  0  0  0  0  0  0
   -2.5639    1.4198   -4.0695 C   0  0  0  0  0  0  0  0  0  0  0  0
   -1.4764    2.1839   -4.4682 C   0  0  0  0  0  0  0  0  0  0  0  0
   -0.2564    2.0547   -3.7994 C   0  0  0  0  0  0  0  0  0  0  0  0
   -0.0904    1.1805   -2.7332 C   0  0  0  0  0  0  0  0  0  0  0  0
    1.1176    1.1035   -2.1471 N   0  0  0  0  0  0  0  0  0  0  0  0
    3.4932    1.3621   -0.5732 C   0  0  0  0  0  0  0  0  0  0  0  0
    4.7904    1.3523   -0.0482 C   0  0  0  0  0  0  0  0  0  0  0  0
    7.3521   -0.2704    3.4462 H   0  0  0  0  0  0  0  0  0  0  0  0
    6.0336   -1.3595    3.0408 H   0  0  0  0  0  0  0  0  0  0  0  0
    7.6879   -1.9943    3.1629 H   0  0  0  0  0  0  0  0  0  0  0  0
    7.1047   -1.7161    0.7285 H   0  0  0  0  0  0  0  0  0  0  0  0
    8.3833   -0.6301    1.2214 H   0  0  0  0  0  0  0  0  0  0  0  0
    4.9405   -1.9106    0.8875 H   0  0  0  0  0  0  0  0  0  0  0  0
    2.7089   -1.8989   -0.0390 H   0  0  0  0  0  0  0  0  0  0  0  0
    0.4497   -1.2314    0.2000 H   0  0  0  0  0  0  0  0  0  0  0  0
   -1.9585    1.0874    0.6686 H   0  0  0  0  0  0  0  0  0  0  0  0
   -3.4428    1.3351   -0.2674 H   0  0  0  0  0  0  0  0  0  0  0  0
   -3.2588    0.4058    2.6446 H   0  0  0  0  0  0  0  0  0  0  0  0
   -3.7280    2.0273    2.1208 H   0  0  0  0  0  0  0  0  0  0  0  0
   -6.8316    0.1767    3.0267 H   0  0  0  0  0  0  0  0  0  0  0  0
   -5.2870   -0.4610    3.6322 H   0  0  0  0  0  0  0  0  0  0  0  0
   -5.6370    1.2812    3.6904 H   0  0  0  0  0  0  0  0  0  0  0  0
   -5.7382   -0.2850   -0.0564 H   0  0  0  0  0  0  0  0  0  0  0  0
   -6.1607   -1.2990    1.3047 H   0  0  0  0  0  0  0  0  0  0  0  0
   -4.3251   -2.2905   -0.0430 H   0  0  0  0  0  0  0  0  0  0  0  0
   -3.7458   -1.9289    1.5878 H   0  0  0  0  0  0  0  0  0  0  0  0
   -3.2846   -0.0621   -2.7072 H   0  0  0  0  0  0  0  0  0  0  0  0
   -3.5151    1.5054   -4.5887 H   0  0  0  0  0  0  0  0  0  0  0  0
   -1.5674    2.8754   -5.3019 H   0  0  0  0  0  0  0  0  0  0  0  0
    0.5940    2.6502   -4.1248 H   0  0  0  0  0  0  0  0  0  0  0  0
    3.1027    2.2918   -0.9846 H   0  0  0  0  0  0  0  0  0  0  0  0
    5.3787    2.2667   -0.0594 H   0  0  0  0  0  0  0  0  0  0  0  0
  1  2  1  0
  2  3  1  0
  3  4  1  0
  4  5  2  0
  5  6  1  0
  6  7  2  0
  7  8  1  0
  8  9  2  0
  9 10  1  0
 10 11  1  0
 11 12  2  0
 11 13  1  0
 13 14  1  0
 14 15  1  0
 15 16  1  0
 16 17  1  0
 16 18  1  0
 18 19  1  0
 10 20  2  0
 20 21  1  0
 21 22  2  0
 22 23  1  0
 23 24  2  0
 24 25  1  0
 25 26  2  0
  7 27  1  0
 27 28  2  0
 28  4  1  0
 26  8  1  0
 19 13  1  0
 25 20  1  0
  1 29  1  0
  1 30  1  0
  1 31  1  0
  2 32  1  0
  2 33  1  0
  5 34  1  0
  6 35  1  0
  9 36  1  0
 14 37  1  0
 14 38  1  0
 15 39  1  0
 15 40  1  0
 17 41  1  0
 17 42  1  0
 17 43  1  0
 18 44  1  0
 18 45  1  0
 19 46  1  0
 19 47  1  0
 21 48  1  0
 22 49  1  0
 23 50  1  0
 24 51  1  0
 27 52  1  0
 28 53  1  0
M  END
$$$$
