
     RDKit          3D

 30 31  0  0  0  0  0  0  0  0999 V2000
   -2.8121    1.7305   -2.8320 C   0  0  0  0  0  0  0  0  0  0  0  0
   -2.1819    1.1814   -1.6035 C   0  0  0  0  0  0  0  0  0  0  0  0
   -2.3996   -0.0952   -1.2610 N   0  0  0  0  0  0  0  0  0  0  0  0
   -1.7075   -0.2585   -0.1125 N   0  0  0  0  0  0  0  0  0  0  0  0
   -1.7703   -1.5487    0.5373 C   0  0  0  0  0  0  0  0  0  0  0  0
   -1.0221    0.8683    0.2706 C   0  0  0  0  0  0  0  0  0  0  0  0
   -0.0072    0.9107    1.6869 S   0  0  0  0  0  0  0  0  0  0  0  0
    1.3464   -0.1281    1.1193 C   0  0  0  0  0  0  0  0  0  0  0  0
    2.0586    0.2239   -0.0379 C   0  0  0  0  0  0  0  0  0  0  0  0
    3.1106   -0.5716   -0.4915 C   0  0  0  0  0  0  0  0  0  0  0  0
    3.4747   -1.7104    0.2197 C   0  0  0  0  0  0  0  0  0  0  0  0
    2.7860   -2.0568    1.3835 C   0  0  0  0  0  0  0  0  0  0  0  0
    1.6981   -1.2961    1.8311 C   0  0  0  0  0  0  0  0  0  0  0  0
    1.1265   -1.6088    3.0750 N   0  0  0  0  0  0  0  0  0  0  0  0
   -1.3392    1.8325   -0.6677 C   0  0  0  0  0  0  0  0  0  0  0  0
   -0.8944    3.1909   -0.7105 N   0  0  0  0  0  4  0  0  0  0  0  0
   -0.6891    3.7653    0.3644 O   0  0  0  0  0  0  0  0  0  0  0  0
   -0.7609    3.6957   -1.8327 O   0  0  0  0  0  1  0  0  0  0  0  0
   -3.3140    2.6796   -2.6185 H   0  0  0  0  0  0  0  0  0  0  0  0
   -2.0563    1.8992   -3.6055 H   0  0  0  0  0  0  0  0  0  0  0  0
   -3.5619    1.0432   -3.2382 H   0  0  0  0  0  0  0  0  0  0  0  0
   -1.8297   -1.4108    1.6188 H   0  0  0  0  0  0  0  0  0  0  0  0
   -2.6668   -2.0765    0.1994 H   0  0  0  0  0  0  0  0  0  0  0  0
   -0.8802   -2.1167    0.2584 H   0  0  0  0  0  0  0  0  0  0  0  0
    1.8137    1.1280   -0.5891 H   0  0  0  0  0  0  0  0  0  0  0  0
    3.6582   -0.2903   -1.3877 H   0  0  0  0  0  0  0  0  0  0  0  0
    4.3113   -2.3179   -0.1166 H   0  0  0  0  0  0  0  0  0  0  0  0
    3.1153   -2.9243    1.9501 H   0  0  0  0  0  0  0  0  0  0  0  0
    1.1560   -2.5877    3.3365 H   0  0  0  0  0  0  0  0  0  0  0  0
    0.2378   -1.1511    3.2539 H   0  0  0  0  0  0  0  0  0  0  0  0
  1  2  1  0
  2  3  2  0
  3  4  1  0
  4  5  1  0
  4  6  1  0
  6  7  1  0
  7  8  1  0
  8  9  2  0
  9 10  1  0
 10 11  2  0
 11 12  1  0
 12 13  2  0
 13 14  1  0
  6 15  2  0
 15 16  1  0
 16 17  2  0
 16 18  1  0
 15  2  1  0
 13  8  1  0
  1 19  1  0
  1 20  1  0
  1 21  1  0
  5 22  1  0
  5 23  1  0
  5 24  1  0
  9 25  1  0
 10 26  1  0
 11 27  1  0
 12 28  1  0
 14 29  1  0
 14 30  1  0
M  CHG  2  16   1  18  -1
M  END
$$$$
