
     RDKit          3D

 46 49  0  0  0  0  0  0  0  0999 V2000
   -3.0178   -2.8439   -1.0124 O   0  0  0  0  0  0  0  0  0  0  0  0
   -2.4336   -1.7637   -0.8864 C   0  0  0  0  0  0  0  0  0  0  0  0
   -1.0798   -1.7453   -1.1195 N   0  0  0  0  0  0  0  0  0  0  0  0
   -0.2075   -0.6703   -0.9040 C   0  0  0  0  0  0  0  0  0  0  0  0
    1.0996   -0.7863   -1.3849 C   0  0  0  0  0  0  0  0  0  0  0  0
    2.0165    0.2465   -1.1657 C   0  0  0  0  0  0  0  0  0  0  0  0
    3.3783    0.1201   -1.7293 C   0  0  0  0  0  0  0  0  0  0  0  0
    3.4716   -0.1713   -2.9190 O   0  0  0  0  0  0  0  0  0  0  0  0
    4.4770    0.3565   -0.9024 N   0  0  0  0  0  0  0  0  0  0  0  0
    5.7999    0.2096   -1.5159 C   0  0  0  0  0  0  0  0  0  0  0  0
    6.8830    0.9158   -0.6975 C   0  0  0  0  0  0  0  0  0  0  0  0
    6.8660    0.4817    0.6708 O   0  0  0  0  0  0  0  0  0  0  0  0
    5.5966    0.7716    1.2715 C   0  0  0  0  0  0  0  0  0  0  0  0
    4.4604    0.0548    0.5363 C   0  0  0  0  0  0  0  0  0  0  0  0
    1.6275    1.4070   -0.4917 C   0  0  0  0  0  0  0  0  0  0  0  0
    0.3285    1.5106    0.0087 C   0  0  0  0  0  0  0  0  0  0  0  0
   -0.5937    0.4748   -0.1921 C   0  0  0  0  0  0  0  0  0  0  0  0
   -2.2000    0.6184    0.5568 S   0  0  0  0  0  0  0  0  0  0  0  0
   -3.1481   -0.4118   -0.6092 C   0  0  0  0  0  0  0  0  0  0  0  0
   -4.5552   -0.6201   -0.2234 N   0  0  0  0  0  0  0  0  0  0  0  0
   -4.7852   -1.3302    1.0451 C   0  0  0  0  0  0  0  0  0  0  0  0
   -5.4934   -0.4682    2.1050 C   0  0  0  0  0  0  0  0  0  0  0  0
   -6.7437    0.0759    1.6624 O   0  0  0  0  0  0  0  0  0  0  0  0
   -6.7924    0.3137    0.2495 C   0  0  0  0  0  0  0  0  0  0  0  0
   -5.4085    0.5652   -0.3684 C   0  0  0  0  0  0  0  0  0  0  0  0
   -0.7109   -2.6255   -1.4599 H   0  0  0  0  0  0  0  0  0  0  0  0
    1.4147   -1.6655   -1.9429 H   0  0  0  0  0  0  0  0  0  0  0  0
    5.7871    0.6020   -2.5385 H   0  0  0  0  0  0  0  0  0  0  0  0
    6.0079   -0.8662   -1.5668 H   0  0  0  0  0  0  0  0  0  0  0  0
    6.7503    2.0039   -0.7259 H   0  0  0  0  0  0  0  0  0  0  0  0
    7.8714    0.6885   -1.1088 H   0  0  0  0  0  0  0  0  0  0  0  0
    5.6358    0.4388    2.3134 H   0  0  0  0  0  0  0  0  0  0  0  0
    5.4413    1.8571    1.2715 H   0  0  0  0  0  0  0  0  0  0  0  0
    4.5867   -1.0316    0.6236 H   0  0  0  0  0  0  0  0  0  0  0  0
    3.5027    0.3095    0.9930 H   0  0  0  0  0  0  0  0  0  0  0  0
    2.3283    2.2272   -0.3553 H   0  0  0  0  0  0  0  0  0  0  0  0
    0.0410    2.4063    0.5565 H   0  0  0  0  0  0  0  0  0  0  0  0
   -3.1420    0.1052   -1.5784 H   0  0  0  0  0  0  0  0  0  0  0  0
   -3.8654   -1.7472    1.4702 H   0  0  0  0  0  0  0  0  0  0  0  0
   -5.4334   -2.1850    0.8148 H   0  0  0  0  0  0  0  0  0  0  0  0
   -5.6972   -1.0682    2.9979 H   0  0  0  0  0  0  0  0  0  0  0  0
   -4.8550    0.3658    2.4177 H   0  0  0  0  0  0  0  0  0  0  0  0
   -7.2790   -0.5476   -0.2236 H   0  0  0  0  0  0  0  0  0  0  0  0
   -7.4403    1.1811    0.0861 H   0  0  0  0  0  0  0  0  0  0  0  0
   -4.9642    1.4365    0.1268 H   0  0  0  0  0  0  0  0  0  0  0  0
   -5.5255    0.8041   -1.4312 H   0  0  0  0  0  0  0  0  0  0  0  0
  1  2  2  0
  2  3  1  0
  3  4  1  0
  4  5  2  0
  5  6  1  0
  6  7  1  0
  7  8  2  0
  7  9  1  0
  9 10  1  0
 10 11  1  0
 11 12  1  0
 12 13  1  0
 13 14  1  0
  6 15  2  0
 15 16  1  0
 16 17  2  0
 17 18  1  0
 18 19  1  0
 19 20  1  0
 20 21  1  0
 21 22  1  0
 22 23  1  0
 23 24  1  0
 24 25  1  0
 19  2  1  0
 25 20  1  0
 17  4  1  0
 14  9  1  0
  3 26  1  0
  5 27  1  0
 10 28  1  0
 10 29  1  0
 11 30  1  0
 11 31  1  0
 13 32  1  0
 13 33  1  0
 14 34  1  0
 14 35  1  0
 15 36  1  0
 16 37  1  0
 19 38  1  0
 21 39  1  0
 21 40  1  0
 22 41  1  0
 22 42  1  0
 24 43  1  0
 24 44  1  0
 25 45  1  0
 25 46  1  0
M  END
$$$$
