
     RDKit          3D

 64 67  0  0  0  0  0  0  0  0999 V2000
   10.7197   -0.6312   -1.5521 C   0  0  0  0  0  0  0  0  0  0  0  0
   10.3177    0.0828   -0.2707 C   0  0  0  0  0  0  0  0  0  0  0  0
    8.8238    0.0810   -0.0730 C   0  0  0  0  0  0  0  0  0  0  0  0
    8.0361    1.1160   -0.5884 C   0  0  0  0  0  0  0  0  0  0  0  0
    6.6464    1.1064   -0.4195 C   0  0  0  0  0  0  0  0  0  0  0  0
    6.0128    0.0594    0.2645 C   0  0  0  0  0  0  0  0  0  0  0  0
    4.5551    0.0388    0.4490 C   0  0  0  0  0  0  0  0  0  0  0  0
    3.6004    1.0105    0.0298 C   0  0  0  0  0  0  0  0  0  0  0  0
    2.3816    0.5283    0.4416 C   0  0  0  0  0  0  0  0  0  0  0  0
    1.0391    1.0105    0.3413 C   0  0  0  0  0  0  0  0  0  0  0  0
    0.7559    2.0810   -0.1900 O   0  0  0  0  0  0  0  0  0  0  0  0
    0.0821    0.1598    0.9265 N   0  0  0  0  0  0  0  0  0  0  0  0
   -1.3252    0.5044    0.7956 C   0  0  0  0  0  0  0  0  0  0  0  0
   -1.8819    0.0363   -0.5504 C   0  0  0  0  0  0  0  0  0  0  0  0
   -1.2189   -0.5256   -1.4189 O   0  0  0  0  0  0  0  0  0  0  0  0
   -3.2236    0.3193   -0.7097 N   0  0  0  0  0  0  0  0  0  0  0  0
   -3.9653   -0.1502   -1.8648 C   0  0  0  0  0  0  0  0  0  0  0  0
   -5.3882    0.4411   -1.8788 C   0  0  0  0  0  0  0  0  0  0  0  0
   -6.0852    0.3495   -0.5660 N   0  0  0  0  0  0  0  0  0  0  0  0
   -6.3582   -1.0682   -0.2418 C   0  0  0  0  0  0  0  0  0  0  0  0
   -7.0204   -1.2308    1.1245 C   0  0  0  0  0  0  0  0  0  0  0  0
   -8.3104   -0.4340    1.2013 C   0  0  0  0  0  0  0  0  0  0  0  0
   -8.0476    1.0146    0.8193 C   0  0  0  0  0  0  0  0  0  0  0  0
   -7.3480    1.1363   -0.5511 C   0  0  0  0  0  0  0  0  0  0  0  0
   -7.1289    2.6334   -0.8235 C   0  0  0  0  0  0  0  0  0  0  0  0
    0.3730   -1.0533    1.5633 N   0  0  0  0  0  0  0  0  0  0  0  0
    1.6183   -1.4309    1.6076 C   0  0  0  0  0  0  0  0  0  0  0  0
    2.0593   -2.7055    2.2524 C   0  0  0  0  0  0  0  0  0  0  0  0
    2.6303   -0.6556    1.0533 N   0  0  0  0  0  0  0  0  0  0  0  0
    3.9397   -0.9776    1.0853 N   0  0  0  0  0  0  0  0  0  0  0  0
    6.8090   -0.9785    0.7718 C   0  0  0  0  0  0  0  0  0  0  0  0
    8.1976   -0.9702    0.6039 C   0  0  0  0  0  0  0  0  0  0  0  0
   10.3971   -1.6779   -1.5417 H   0  0  0  0  0  0  0  0  0  0  0  0
   11.8077   -0.6129   -1.6700 H   0  0  0  0  0  0  0  0  0  0  0  0
   10.2749   -0.1514   -2.4305 H   0  0  0  0  0  0  0  0  0  0  0  0
   10.8040   -0.3953    0.5883 H   0  0  0  0  0  0  0  0  0  0  0  0
   10.6860    1.1158   -0.2910 H   0  0  0  0  0  0  0  0  0  0  0  0
    8.4986    1.9395   -1.1284 H   0  0  0  0  0  0  0  0  0  0  0  0
    6.0768    1.9318   -0.8370 H   0  0  0  0  0  0  0  0  0  0  0  0
    3.7672    1.9381   -0.5000 H   0  0  0  0  0  0  0  0  0  0  0  0
   -1.8864    0.0267    1.6061 H   0  0  0  0  0  0  0  0  0  0  0  0
   -1.4488    1.5901    0.8687 H   0  0  0  0  0  0  0  0  0  0  0  0
   -3.7899    0.5631    0.0972 H   0  0  0  0  0  0  0  0  0  0  0  0
   -3.4240    0.1419   -2.7718 H   0  0  0  0  0  0  0  0  0  0  0  0
   -3.9831   -1.2447   -1.8349 H   0  0  0  0  0  0  0  0  0  0  0  0
   -5.9800   -0.0238   -2.6768 H   0  0  0  0  0  0  0  0  0  0  0  0
   -5.2562    1.4938   -2.1476 H   0  0  0  0  0  0  0  0  0  0  0  0
   -5.4256   -1.6411   -0.2088 H   0  0  0  0  0  0  0  0  0  0  0  0
   -6.9917   -1.5240   -1.0141 H   0  0  0  0  0  0  0  0  0  0  0  0
   -7.2285   -2.2904    1.3111 H   0  0  0  0  0  0  0  0  0  0  0  0
   -6.3314   -0.8969    1.9105 H   0  0  0  0  0  0  0  0  0  0  0  0
   -8.7274   -0.4872    2.2128 H   0  0  0  0  0  0  0  0  0  0  0  0
   -9.0548   -0.8659    0.5215 H   0  0  0  0  0  0  0  0  0  0  0  0
   -9.0025    1.5542    0.8026 H   0  0  0  0  0  0  0  0  0  0  0  0
   -7.4312    1.4867    1.5961 H   0  0  0  0  0  0  0  0  0  0  0  0
   -8.0283    0.7480   -1.3218 H   0  0  0  0  0  0  0  0  0  0  0  0
   -6.3431    3.0445   -0.1797 H   0  0  0  0  0  0  0  0  0  0  0  0
   -6.8580    2.8241   -1.8662 H   0  0  0  0  0  0  0  0  0  0  0  0
   -8.0466    3.2017   -0.6335 H   0  0  0  0  0  0  0  0  0  0  0  0
    2.5648   -3.3448    1.5227 H   0  0  0  0  0  0  0  0  0  0  0  0
    2.7373   -2.4933    3.0843 H   0  0  0  0  0  0  0  0  0  0  0  0
    1.1910   -3.2449    2.6423 H   0  0  0  0  0  0  0  0  0  0  0  0
    6.3518   -1.8102    1.3045 H   0  0  0  0  0  0  0  0  0  0  0  0
    8.7840   -1.7935    1.0058 H   0  0  0  0  0  0  0  0  0  0  0  0
  1  2  1  0
  2  3  1  0
  3  4  2  0
  4  5  1  0
  5  6  2  0
  6  7  1  0
  7  8  1  0
  8  9  2  0
  9 10  1  0
 10 11  2  0
 10 12  1  0
 12 13  1  0
 13 14  1  0
 14 15  2  0
 14 16  1  0
 16 17  1  0
 17 18  1  0
 18 19  1  0
 19 20  1  0
 20 21  1  0
 21 22  1  0
 22 23  1  0
 23 24  1  0
 24 25  1  0
 12 26  1  0
 26 27  2  0
 27 28  1  0
 27 29  1  0
 29 30  1  0
  6 31  1  0
 31 32  2  0
 32  3  1  0
 30  7  2  0
 29  9  1  0
 24 19  1  0
  1 33  1  0
  1 34  1  0
  1 35  1  0
  2 36  1  0
  2 37  1  0
  4 38  1  0
  5 39  1  0
  8 40  1  0
 13 41  1  0
 13 42  1  0
 16 43  1  0
 17 44  1  0
 17 45  1  0
 18 46  1  0
 18 47  1  0
 20 48  1  0
 20 49  1  0
 21 50  1  0
 21 51  1  0
 22 52  1  0
 22 53  1  0
 23 54  1  0
 23 55  1  0
 24 56  1  0
 25 57  1  0
 25 58  1  0
 25 59  1  0
 28 60  1  0
 28 61  1  0
 28 62  1  0
 31 63  1  0
 32 64  1  0
M  END
$$$$
