
     RDKit          3D

 45 47  0  0  0  0  0  0  0  0999 V2000
   -4.8716    1.0651    0.5128 C   0  0  0  0  0  0  0  0  0  0  0  0
   -3.5090    1.1132   -0.1746 C   0  0  0  0  0  0  0  0  0  0  0  0
   -2.8248   -0.1751   -0.3806 N   0  0  0  0  0  0  0  0  0  0  0  0
   -3.6244   -1.0929   -1.2030 C   0  0  0  0  0  0  0  0  0  0  0  0
   -2.7638   -2.1452   -1.8960 C   0  0  0  0  0  0  0  0  0  0  0  0
   -2.3862   -0.8018    0.8830 C   0  0  0  0  0  0  0  0  0  0  0  0
   -1.2567   -0.0538    1.5661 C   0  0  0  0  0  0  0  0  0  0  0  0
   -1.4561    0.6211    2.7806 C   0  0  0  0  0  0  0  0  0  0  0  0
   -2.6913    0.5910    3.3658 O   0  0  0  0  0  0  0  0  0  0  0  0
   -0.4208    1.3205    3.4040 C   0  0  0  0  0  0  0  0  0  0  0  0
    0.8422    1.3530    2.8162 C   0  0  0  0  0  0  0  0  0  0  0  0
    1.0644    0.6810    1.6104 C   0  0  0  0  0  0  0  0  0  0  0  0
    2.4005    0.7085    0.9850 C   0  0  0  0  0  0  0  0  0  0  0  0
    3.3266    1.3024    1.5263 O   0  0  0  0  0  0  0  0  0  0  0  0
    2.5485   -0.0091   -0.3112 C   0  0  0  0  0  0  0  0  0  0  0  0
    3.8209   -0.0545   -1.0556 C   0  0  0  0  0  0  0  0  0  0  0  0
    5.0158   -0.3929   -0.4055 C   0  0  0  0  0  0  0  0  0  0  0  0
    6.2220   -0.4452   -1.1089 C   0  0  0  0  0  0  0  0  0  0  0  0
    6.2490   -0.1571   -2.4714 C   0  0  0  0  0  0  0  0  0  0  0  0
    5.0718    0.1881   -3.1310 C   0  0  0  0  0  0  0  0  0  0  0  0
    3.8654    0.2410   -2.4277 C   0  0  0  0  0  0  0  0  0  0  0  0
    1.4649   -0.6532   -0.7703 C   0  0  0  0  0  0  0  0  0  0  0  0
    0.2265   -0.7076   -0.1830 O   0  0  0  0  0  0  0  0  0  0  0  0
    0.0291   -0.0205    0.9911 C   0  0  0  0  0  0  0  0  0  0  0  0
   -5.2763    2.0794    0.5974 H   0  0  0  0  0  0  0  0  0  0  0  0
   -4.8084    0.6532    1.5233 H   0  0  0  0  0  0  0  0  0  0  0  0
   -5.5930    0.4728   -0.0581 H   0  0  0  0  0  0  0  0  0  0  0  0
   -2.8566    1.7998    0.3775 H   0  0  0  0  0  0  0  0  0  0  0  0
   -3.6384    1.5905   -1.1549 H   0  0  0  0  0  0  0  0  0  0  0  0
   -4.4098   -1.5815   -0.6135 H   0  0  0  0  0  0  0  0  0  0  0  0
   -4.1271   -0.5306   -2.0005 H   0  0  0  0  0  0  0  0  0  0  0  0
   -2.3170   -2.8482   -1.1875 H   0  0  0  0  0  0  0  0  0  0  0  0
   -1.9586   -1.6776   -2.4728 H   0  0  0  0  0  0  0  0  0  0  0  0
   -3.3775   -2.7275   -2.5915 H   0  0  0  0  0  0  0  0  0  0  0  0
   -2.0010   -1.8123    0.6987 H   0  0  0  0  0  0  0  0  0  0  0  0
   -3.2335   -0.9582    1.5602 H   0  0  0  0  0  0  0  0  0  0  0  0
   -2.6691    1.1133    4.1848 H   0  0  0  0  0  0  0  0  0  0  0  0
   -0.5777    1.8443    4.3424 H   0  0  0  0  0  0  0  0  0  0  0  0
    1.6513    1.8991    3.2969 H   0  0  0  0  0  0  0  0  0  0  0  0
    5.0200   -0.6132    0.6605 H   0  0  0  0  0  0  0  0  0  0  0  0
    7.1402   -0.7049   -0.5884 H   0  0  0  0  0  0  0  0  0  0  0  0
    7.1885   -0.1940   -3.0165 H   0  0  0  0  0  0  0  0  0  0  0  0
    5.0923    0.4227   -4.1920 H   0  0  0  0  0  0  0  0  0  0  0  0
    2.9621    0.5280   -2.9618 H   0  0  0  0  0  0  0  0  0  0  0  0
    1.4469   -1.2309   -1.6869 H   0  0  0  0  0  0  0  0  0  0  0  0
  1  2  1  0
  2  3  1  0
  3  4  1  0
  4  5  1  0
  3  6  1  0
  6  7  1  0
  7  8  2  0
  8  9  1  0
  8 10  1  0
 10 11  2  0
 11 12  1  0
 12 13  1  0
 13 14  2  0
 13 15  1  0
 15 16  1  0
 16 17  2  0
 17 18  1  0
 18 19  2  0
 19 20  1  0
 20 21  2  0
 15 22  2  0
 22 23  1  0
 23 24  1  0
 24  7  1  0
 24 12  2  0
 21 16  1  0
  1 25  1  0
  1 26  1  0
  1 27  1  0
  2 28  1  0
  2 29  1  0
  4 30  1  0
  4 31  1  0
  5 32  1  0
  5 33  1  0
  5 34  1  0
  6 35  1  0
  6 36  1  0
  9 37  1  0
 10 38  1  0
 11 39  1  0
 17 40  1  0
 18 41  1  0
 19 42  1  0
 20 43  1  0
 21 44  1  0
 22 45  1  0
M  END
$$$$
