
     RDKit          3D

 30 32  0  0  0  0  0  0  0  0999 V2000
    0.1384    1.6031    0.3315 O   0  0  0  0  0  0  0  0  0  0  0  0
    0.8640    0.6552    0.1309 C   0  0  0  0  0  0  0  0  0  0  0  0
    0.5386   -0.7513   -0.2535 C   0  0  0  0  0  0  0  0  0  0  0  0
   -0.6648   -1.2989   -0.4671 C   0  0  0  0  0  0  0  0  0  0  0  0
   -1.9620   -0.6219   -0.3920 C   0  0  0  0  0  0  0  0  0  0  0  0
   -2.2874    0.4250   -1.2685 C   0  0  0  0  0  0  0  0  0  0  0  0
   -3.5459    1.0297   -1.2158 C   0  0  0  0  0  0  0  0  0  0  0  0
   -4.4743    0.5795   -0.2906 C   0  0  0  0  0  0  0  0  0  0  0  0
   -5.7060    1.1667   -0.2402 O   0  0  0  0  0  0  0  0  0  0  0  0
   -4.1636   -0.4604    0.5816 C   0  0  0  0  0  0  0  0  0  0  0  0
   -5.1274   -0.8525    1.4705 O   0  0  0  0  0  0  0  0  0  0  0  0
   -2.9140   -1.0708    0.5351 C   0  0  0  0  0  0  0  0  0  0  0  0
    1.7140   -1.5049   -0.3605 O   0  0  0  0  0  0  0  0  0  0  0  0
    2.7467   -0.6444   -0.0734 C   0  0  0  0  0  0  0  0  0  0  0  0
    4.0857   -0.9758   -0.0678 C   0  0  0  0  0  0  0  0  0  0  0  0
    4.9860    0.0420    0.2511 C   0  0  0  0  0  0  0  0  0  0  0  0
    6.3306   -0.1913    0.2818 O   0  0  0  0  0  0  0  0  0  0  0  0
    4.5555    1.3458    0.5540 C   0  0  0  0  0  0  0  0  0  0  0  0
    3.1952    1.6630    0.5433 C   0  0  0  0  0  0  0  0  0  0  0  0
    2.3180    0.6453    0.2252 C   0  0  0  0  0  0  0  0  0  0  0  0
   -0.7195   -2.3564   -0.7150 H   0  0  0  0  0  0  0  0  0  0  0  0
   -1.5618    0.7854   -1.9940 H   0  0  0  0  0  0  0  0  0  0  0  0
   -3.7944    1.8456   -1.8871 H   0  0  0  0  0  0  0  0  0  0  0  0
   -6.1682    0.7004    0.4842 H   0  0  0  0  0  0  0  0  0  0  0  0
   -4.7485   -1.5419    2.0422 H   0  0  0  0  0  0  0  0  0  0  0  0
   -2.6705   -1.8849    1.2102 H   0  0  0  0  0  0  0  0  0  0  0  0
    4.4066   -1.9829   -0.3023 H   0  0  0  0  0  0  0  0  0  0  0  0
    6.4989   -1.1203    0.0520 H   0  0  0  0  0  0  0  0  0  0  0  0
    5.2900    2.1103    0.7977 H   0  0  0  0  0  0  0  0  0  0  0  0
    2.8402    2.6617    0.7737 H   0  0  0  0  0  0  0  0  0  0  0  0
  1  2  2  0
  2  3  1  0
  3  4  2  3
  4  5  1  0
  5  6  2  0
  6  7  1  0
  7  8  2  0
  8  9  1  0
  8 10  1  0
 10 11  1  0
 10 12  2  0
  3 13  1  0
 13 14  1  0
 14 15  2  0
 15 16  1  0
 16 17  1  0
 16 18  2  0
 18 19  1  0
 19 20  2  0
 20  2  1  0
 12  5  1  0
 20 14  1  0
  4 21  1  0
  6 22  1  0
  7 23  1  0
  9 24  1  0
 11 25  1  0
 12 26  1  0
 15 27  1  0
 17 28  1  0
 18 29  1  0
 19 30  1  0
M  END
$$$$
