
     RDKit          3D

 46 48  0  0  0  0  0  0  0  0999 V2000
   -5.6017   -0.5803    3.2426 C   0  0  0  0  0  0  0  0  0  0  0  0
   -5.0937    0.3696    2.1674 C   0  0  0  0  0  0  0  0  0  0  0  0
   -5.6320   -0.0201    0.7924 C   0  0  0  0  0  0  0  0  0  0  0  0
   -5.0509    1.1315   -0.5022 S   0  0  0  0  0  0  0  0  0  0  0  0
   -3.3986    0.5262   -0.8373 C   0  0  0  0  0  0  0  0  0  0  0  0
   -3.0399   -0.6303   -0.2273 N   0  0  0  0  0  0  0  0  0  0  0  0
   -1.8017   -1.1474   -0.4509 C   0  0  0  0  0  0  0  0  0  0  0  0
   -1.4876   -2.3978    0.3214 C   0  0  0  0  0  0  0  0  0  0  0  0
   -0.8893   -0.5455   -1.3200 C   0  0  0  0  0  0  0  0  0  0  0  0
    0.4340   -1.0718   -1.5985 C   0  0  0  0  0  0  0  0  0  0  0  0
    0.6785   -2.3281   -2.1065 C   0  0  0  0  0  0  0  0  0  0  0  0
    2.3610   -2.5520   -2.3128 S   0  0  0  0  0  0  0  0  0  0  0  0
    2.6631   -0.9280   -1.7514 C   0  0  0  0  0  0  0  0  0  0  0  0
    4.0088   -0.4267   -1.6667 C   0  0  0  0  0  0  0  0  0  0  0  0
    4.9781   -0.8458   -2.6338 C   0  0  0  0  0  0  0  0  0  0  0  0
    5.7741   -1.1850   -3.4084 N   0  0  0  0  0  0  0  0  0  0  0  0
    4.3692    0.4337   -0.6830 C   0  0  0  0  0  0  0  0  0  0  0  0
    5.7671    0.9810   -0.4848 C   0  0  0  0  0  0  0  0  0  0  0  0
    5.7765    1.4022    0.9778 C   0  0  0  0  0  0  0  0  0  0  0  0
    4.3700    1.9269    1.1988 C   0  0  0  0  0  0  0  0  0  0  0  0
    3.4840    0.9517    0.4321 C   0  0  0  0  0  0  0  0  0  0  0  0
    1.5545   -0.2802   -1.4310 N   0  0  0  0  0  0  0  0  0  0  0  0
   -1.2688    0.6549   -1.9310 C   0  0  0  0  0  0  0  0  0  0  0  0
   -2.5336    1.2039   -1.6941 C   0  0  0  0  0  0  0  0  0  0  0  0
   -2.8841    2.4328   -2.3395 C   0  0  0  0  0  0  0  0  0  0  0  0
   -3.1242    3.4290   -2.8846 N   0  0  0  0  0  0  0  0  0  0  0  0
   -6.6961   -0.5906    3.2705 H   0  0  0  0  0  0  0  0  0  0  0  0
   -5.2500   -1.6009    3.0584 H   0  0  0  0  0  0  0  0  0  0  0  0
   -5.2360   -0.2681    4.2259 H   0  0  0  0  0  0  0  0  0  0  0  0
   -3.9980    0.3567    2.1790 H   0  0  0  0  0  0  0  0  0  0  0  0
   -5.4103    1.3896    2.4210 H   0  0  0  0  0  0  0  0  0  0  0  0
   -5.3862   -1.0560    0.5339 H   0  0  0  0  0  0  0  0  0  0  0  0
   -6.7262    0.0472    0.8002 H   0  0  0  0  0  0  0  0  0  0  0  0
   -0.5387   -2.2972    0.8579 H   0  0  0  0  0  0  0  0  0  0  0  0
   -1.4452   -3.2620   -0.3464 H   0  0  0  0  0  0  0  0  0  0  0  0
   -2.2653   -2.5966    1.0677 H   0  0  0  0  0  0  0  0  0  0  0  0
   -0.0221   -3.1115   -2.3632 H   0  0  0  0  0  0  0  0  0  0  0  0
    6.5568    0.2495   -0.6807 H   0  0  0  0  0  0  0  0  0  0  0  0
    5.9145    1.8555   -1.1301 H   0  0  0  0  0  0  0  0  0  0  0  0
    6.5398    2.1589    1.1834 H   0  0  0  0  0  0  0  0  0  0  0  0
    5.9694    0.5354    1.6244 H   0  0  0  0  0  0  0  0  0  0  0  0
    4.1018    1.9831    2.2577 H   0  0  0  0  0  0  0  0  0  0  0  0
    4.2730    2.9347    0.7742 H   0  0  0  0  0  0  0  0  0  0  0  0
    3.1796    0.1270    1.0858 H   0  0  0  0  0  0  0  0  0  0  0  0
    2.5972    1.4762    0.0642 H   0  0  0  0  0  0  0  0  0  0  0  0
   -0.5708    1.1645   -2.5963 H   0  0  0  0  0  0  0  0  0  0  0  0
  1  2  1  0
  2  3  1  0
  3  4  1  0
  4  5  1  0
  5  6  2  0
  6  7  1  0
  7  8  1  0
  7  9  2  0
  9 10  1  0
 10 11  2  0
 11 12  1  0
 12 13  1  0
 13 14  1  0
 14 15  1  0
 15 16  3  0
 14 17  2  3
 17 18  1  0
 18 19  1  0
 19 20  1  0
 20 21  1  0
 13 22  2  0
  9 23  1  0
 23 24  2  0
 24 25  1  0
 25 26  3  0
 24  5  1  0
 22 10  1  0
 21 17  1  0
  1 27  1  0
  1 28  1  0
  1 29  1  0
  2 30  1  0
  2 31  1  0
  3 32  1  0
  3 33  1  0
  8 34  1  0
  8 35  1  0
  8 36  1  0
 11 37  1  0
 18 38  1  0
 18 39  1  0
 19 40  1  0
 19 41  1  0
 20 42  1  0
 20 43  1  0
 21 44  1  0
 21 45  1  0
 23 46  1  0
M  END
$$$$
