
     RDKit          3D

 42 44  0  0  0  0  0  0  0  0999 V2000
    5.5623   -0.7422    0.3113 C   0  0  0  0  0  0  0  0  0  0  0  0
    4.6011   -0.6834   -0.8659 C   0  0  0  0  0  0  0  0  0  0  0  0
    3.2242   -0.2395   -0.4435 C   0  0  0  0  0  0  0  0  0  0  0  0
    2.8875    1.1173   -0.4278 C   0  0  0  0  0  0  0  0  0  0  0  0
    1.6159    1.5268   -0.0186 C   0  0  0  0  0  0  0  0  0  0  0  0
    0.6509    0.5908    0.3935 C   0  0  0  0  0  0  0  0  0  0  0  0
   -0.7335    1.0949    0.8055 C   0  0  0  0  0  0  0  0  0  0  0  0
   -1.6576    1.2521   -0.4192 C   0  0  0  0  0  0  0  0  0  0  0  0
   -2.6502    2.3658   -0.1472 C   0  0  0  0  0  0  0  0  0  0  0  0
   -3.8544    2.2777    0.0224 O   0  0  0  0  0  0  0  0  0  0  0  0
   -2.0659    3.5855   -0.1337 O   0  0  0  0  0  0  0  0  0  0  0  0
   -2.3449   -0.0485   -0.7699 C   0  0  0  0  0  0  0  0  0  0  0  0
   -2.7599   -0.3014   -2.0875 C   0  0  0  0  0  0  0  0  0  0  0  0
   -3.4231   -1.4876   -2.4040 C   0  0  0  0  0  0  0  0  0  0  0  0
   -3.6851   -2.4284   -1.4108 C   0  0  0  0  0  0  0  0  0  0  0  0
   -3.2818   -2.1850   -0.0981 C   0  0  0  0  0  0  0  0  0  0  0  0
   -2.6101   -0.9987    0.2266 C   0  0  0  0  0  0  0  0  0  0  0  0
   -2.1803   -0.7763    1.6362 C   0  0  0  0  0  0  0  0  0  0  0  0
   -2.5534   -1.5543    2.5096 O   0  0  0  0  0  0  0  0  0  0  0  0
   -1.3477    0.3108    1.8876 N   0  0  0  0  0  0  0  0  0  0  0  0
   -0.8392    0.5067    3.2363 C   0  0  0  0  0  0  0  0  0  0  0  0
    0.9980   -0.7673    0.3771 C   0  0  0  0  0  0  0  0  0  0  0  0
    2.2707   -1.1765   -0.0322 C   0  0  0  0  0  0  0  0  0  0  0  0
    6.5526   -1.0656   -0.0248 H   0  0  0  0  0  0  0  0  0  0  0  0
    5.2149   -1.4488    1.0727 H   0  0  0  0  0  0  0  0  0  0  0  0
    5.6688    0.2386    0.7870 H   0  0  0  0  0  0  0  0  0  0  0  0
    4.5406   -1.6683   -1.3447 H   0  0  0  0  0  0  0  0  0  0  0  0
    4.9912    0.0008   -1.6292 H   0  0  0  0  0  0  0  0  0  0  0  0
    3.6150    1.8660   -0.7339 H   0  0  0  0  0  0  0  0  0  0  0  0
    1.3850    2.5907   -0.0235 H   0  0  0  0  0  0  0  0  0  0  0  0
   -0.5698    2.0879    1.2472 H   0  0  0  0  0  0  0  0  0  0  0  0
   -1.0748    1.5718   -1.2949 H   0  0  0  0  0  0  0  0  0  0  0  0
   -2.8167    4.1979    0.0287 H   0  0  0  0  0  0  0  0  0  0  0  0
   -2.5756    0.4257   -2.8758 H   0  0  0  0  0  0  0  0  0  0  0  0
   -3.7432   -1.6752   -3.4261 H   0  0  0  0  0  0  0  0  0  0  0  0
   -4.2074   -3.3498   -1.6555 H   0  0  0  0  0  0  0  0  0  0  0  0
   -3.4933   -2.9227    0.6735 H   0  0  0  0  0  0  0  0  0  0  0  0
   -0.8373    1.5756    3.4685 H   0  0  0  0  0  0  0  0  0  0  0  0
    0.1802    0.1151    3.2949 H   0  0  0  0  0  0  0  0  0  0  0  0
   -1.4569   -0.0088    3.9766 H   0  0  0  0  0  0  0  0  0  0  0  0
    0.2917   -1.5323    0.6891 H   0  0  0  0  0  0  0  0  0  0  0  0
    2.5117   -2.2377   -0.0252 H   0  0  0  0  0  0  0  0  0  0  0  0
  1  2  1  0
  2  3  1  0
  3  4  2  0
  4  5  1  0
  5  6  2  0
  6  7  1  0
  7  8  1  0
  8  9  1  0
  9 10  2  0
  9 11  1  0
  8 12  1  0
 12 13  2  0
 13 14  1  0
 14 15  2  0
 15 16  1  0
 16 17  2  0
 17 18  1  0
 18 19  2  0
 18 20  1  0
 20 21  1  0
  6 22  1  0
 22 23  2  0
 23  3  1  0
 20  7  1  0
 17 12  1  0
  1 24  1  0
  1 25  1  0
  1 26  1  0
  2 27  1  0
  2 28  1  0
  4 29  1  0
  5 30  1  0
  7 31  1  0
  8 32  1  0
 11 33  1  0
 13 34  1  0
 14 35  1  0
 15 36  1  0
 16 37  1  0
 21 38  1  0
 21 39  1  0
 21 40  1  0
 22 41  1  0
 23 42  1  0
M  END
$$$$
