
     RDKit          3D

 59 62  0  0  0  0  0  0  0  0999 V2000
   -0.5055    1.4851   -3.9215 C   0  0  0  0  0  0  0  0  0  0  0  0
   -1.7381    0.9104   -3.2491 C   0  0  0  0  0  0  0  0  0  0  0  0
   -1.8825    1.4620   -1.9309 O   0  0  0  0  0  0  0  0  0  0  0  0
   -1.1922    0.8189   -0.9443 C   0  0  0  0  0  0  0  0  0  0  0  0
   -0.5086   -0.1804   -1.1187 O   0  0  0  0  0  0  0  0  0  0  0  0
   -1.3938    1.5214    0.4079 C   0  0  0  0  0  0  0  0  0  0  0  0
   -2.8719    1.3630    0.8500 C   0  0  0  0  0  0  0  0  0  0  0  0
   -3.3885   -0.0531    0.9739 C   0  0  0  0  0  0  0  0  0  0  0  0
   -3.2517   -0.7699    2.1694 C   0  0  0  0  0  0  0  0  0  0  0  0
   -3.7338   -2.0801    2.2788 C   0  0  0  0  0  0  0  0  0  0  0  0
   -4.3640   -2.6895    1.1952 C   0  0  0  0  0  0  0  0  0  0  0  0
   -4.8818   -3.9553    1.1712 O   0  0  0  0  0  0  0  0  0  0  0  0
   -4.6734   -4.7566    2.3265 C   0  0  0  0  0  0  0  0  0  0  0  0
   -4.5108   -1.9757    0.0044 C   0  0  0  0  0  0  0  0  0  0  0  0
   -4.0293   -0.6698   -0.1085 C   0  0  0  0  0  0  0  0  0  0  0  0
   -1.0716    3.0304    0.2623 C   0  0  0  0  0  0  0  0  0  0  0  0
    0.3575    3.2729   -0.2275 C   0  0  0  0  0  0  0  0  0  0  0  0
    1.2632    2.2012    0.1578 N   0  0  0  0  0  0  0  0  0  0  0  0
    2.5358    2.2104   -0.4182 C   0  0  0  0  0  0  0  0  0  0  0  0
    2.9378    3.1863   -1.0538 O   0  0  0  0  0  0  0  0  0  0  0  0
    3.3669    1.0340   -0.2762 C   0  0  0  0  0  0  0  0  0  0  0  0
    3.0542   -0.3099   -0.1523 C   0  0  0  0  0  0  0  0  0  0  0  0
    4.2667   -1.0498   -0.0817 C   0  0  0  0  0  0  0  0  0  0  0  0
    4.5732   -2.4166    0.0591 C   0  0  0  0  0  0  0  0  0  0  0  0
    5.9140   -2.8178    0.0843 C   0  0  0  0  0  0  0  0  0  0  0  0
    6.9387   -1.8811   -0.0354 C   0  0  0  0  0  0  0  0  0  0  0  0
    6.6576   -0.5192   -0.1871 C   0  0  0  0  0  0  0  0  0  0  0  0
    5.3105   -0.1364   -0.2052 C   0  0  0  0  0  0  0  0  0  0  0  0
    4.7403    1.1046   -0.3568 N   0  0  0  0  0  0  0  0  0  0  0  0
    0.9729    1.5640    1.4351 C   0  0  0  0  0  0  0  0  0  0  0  0
   -0.4201    0.9250    1.4598 C   0  0  0  0  0  0  0  0  0  0  0  0
   -0.4052    1.1031   -4.9411 H   0  0  0  0  0  0  0  0  0  0  0  0
    0.4024    1.2359   -3.3609 H   0  0  0  0  0  0  0  0  0  0  0  0
   -0.5648    2.5779   -3.9580 H   0  0  0  0  0  0  0  0  0  0  0  0
   -2.6329    1.1936   -3.8143 H   0  0  0  0  0  0  0  0  0  0  0  0
   -1.7090   -0.1852   -3.2226 H   0  0  0  0  0  0  0  0  0  0  0  0
   -3.0241    1.8701    1.8134 H   0  0  0  0  0  0  0  0  0  0  0  0
   -3.5267    1.9002    0.1491 H   0  0  0  0  0  0  0  0  0  0  0  0
   -2.7730   -0.3162    3.0340 H   0  0  0  0  0  0  0  0  0  0  0  0
   -3.6039   -2.5924    3.2267 H   0  0  0  0  0  0  0  0  0  0  0  0
   -5.1757   -4.3282    3.2008 H   0  0  0  0  0  0  0  0  0  0  0  0
   -5.1180   -5.7391    2.1365 H   0  0  0  0  0  0  0  0  0  0  0  0
   -3.6048   -4.9060    2.5159 H   0  0  0  0  0  0  0  0  0  0  0  0
   -5.0039   -2.4423   -0.8452 H   0  0  0  0  0  0  0  0  0  0  0  0
   -4.1621   -0.1414   -1.0508 H   0  0  0  0  0  0  0  0  0  0  0  0
   -1.7724    3.5385   -0.4108 H   0  0  0  0  0  0  0  0  0  0  0  0
   -1.1947    3.5125    1.2413 H   0  0  0  0  0  0  0  0  0  0  0  0
    0.7390    4.2184    0.1758 H   0  0  0  0  0  0  0  0  0  0  0  0
    0.3737    3.3593   -1.3203 H   0  0  0  0  0  0  0  0  0  0  0  0
    2.0532   -0.7247   -0.1283 H   0  0  0  0  0  0  0  0  0  0  0  0
    3.7784   -3.1521    0.1453 H   0  0  0  0  0  0  0  0  0  0  0  0
    6.1562   -3.8720    0.1939 H   0  0  0  0  0  0  0  0  0  0  0  0
    7.9744   -2.2122   -0.0155 H   0  0  0  0  0  0  0  0  0  0  0  0
    7.4570    0.2079   -0.2889 H   0  0  0  0  0  0  0  0  0  0  0  0
    5.2480    1.9657   -0.5114 H   0  0  0  0  0  0  0  0  0  0  0  0
    1.7322    0.8413    1.7392 H   0  0  0  0  0  0  0  0  0  0  0  0
    1.0206    2.3601    2.1905 H   0  0  0  0  0  0  0  0  0  0  0  0
   -0.8198    1.0574    2.4732 H   0  0  0  0  0  0  0  0  0  0  0  0
   -0.3159   -0.1585    1.3220 H   0  0  0  0  0  0  0  0  0  0  0  0
  1  2  1  0
  2  3  1  0
  3  4  1  0
  4  5  2  0
  4  6  1  0
  6  7  1  0
  7  8  1  0
  8  9  2  0
  9 10  1  0
 10 11  2  0
 11 12  1  0
 12 13  1  0
 11 14  1  0
 14 15  2  0
  6 16  1  0
 16 17  1  0
 17 18  1  0
 18 19  1  0
 19 20  2  0
 19 21  1  0
 21 22  2  0
 22 23  1  0
 23 24  2  0
 24 25  1  0
 25 26  2  0
 26 27  1  0
 27 28  2  0
 28 29  1  0
 18 30  1  0
 30 31  1  0
 31  6  1  0
 15  8  1  0
 29 21  1  0
 28 23  1  0
  1 32  1  0
  1 33  1  0
  1 34  1  0
  2 35  1  0
  2 36  1  0
  7 37  1  0
  7 38  1  0
  9 39  1  0
 10 40  1  0
 13 41  1  0
 13 42  1  0
 13 43  1  0
 14 44  1  0
 15 45  1  0
 16 46  1  0
 16 47  1  0
 17 48  1  0
 17 49  1  0
 22 50  1  0
 24 51  1  0
 25 52  1  0
 26 53  1  0
 27 54  1  0
 29 55  1  0
 30 56  1  0
 30 57  1  0
 31 58  1  0
 31 59  1  0
M  END
$$$$
