
     RDKit          3D

 41 42  0  0  0  0  0  0  0  0999 V2000
   -1.7563    3.4039    0.4389 O   0  0  0  0  0  0  0  0  0  0  0  0
   -1.1895    2.3149    0.4904 C   0  0  0  0  0  0  0  0  0  0  0  0
    0.3196    2.1931    0.6792 C   0  0  0  0  0  0  0  0  0  0  0  0
    0.7931    0.9231    0.2357 O   0  0  0  0  0  0  0  0  0  0  0  0
    2.1723    0.8476    0.4854 N   0  0  0  0  0  0  0  0  0  0  0  0
    2.6200   -0.2823    0.0401 C   0  0  0  0  0  0  0  0  0  0  0  0
    4.0419   -0.6590    0.1548 C   0  0  0  0  0  0  0  0  0  0  0  0
    4.9660    0.2049    0.7542 C   0  0  0  0  0  0  0  0  0  0  0  0
    6.3089   -0.1652    0.8556 C   0  0  0  0  0  0  0  0  0  0  0  0
    6.7331   -1.3987    0.3592 C   0  0  0  0  0  0  0  0  0  0  0  0
    5.8023   -2.2595   -0.2401 C   0  0  0  0  0  0  0  0  0  0  0  0
    6.2461   -3.5580   -0.7626 N   0  0  0  0  0  4  0  0  0  0  0  0
    5.3903   -4.2911   -1.2783 O   0  0  0  0  0  0  0  0  0  0  0  0
    7.4468   -3.8434   -0.6568 O   0  0  0  0  0  1  0  0  0  0  0  0
    4.4521   -1.8967   -0.3467 C   0  0  0  0  0  0  0  0  0  0  0  0
   -1.8595    1.1085    0.4349 N   0  0  0  0  0  0  0  0  0  0  0  0
   -3.2818    1.0262    0.1420 C   0  0  0  0  0  0  0  0  0  0  0  0
   -3.5347    1.1509   -1.3666 C   0  0  0  0  0  0  0  0  0  0  0  0
   -5.0150    0.9943   -1.7051 C   0  0  0  0  0  0  0  0  0  0  0  0
   -5.5855   -0.3077   -1.1510 C   0  0  0  0  0  0  0  0  0  0  0  0
   -5.3379   -0.4360    0.3490 C   0  0  0  0  0  0  0  0  0  0  0  0
   -3.8577   -0.2843    0.6891 C   0  0  0  0  0  0  0  0  0  0  0  0
    0.5412    2.3243    1.7438 H   0  0  0  0  0  0  0  0  0  0  0  0
    0.8034    2.9805    0.0913 H   0  0  0  0  0  0  0  0  0  0  0  0
    1.9437   -1.0089   -0.4462 H   0  0  0  0  0  0  0  0  0  0  0  0
    4.6461    1.1697    1.1446 H   0  0  0  0  0  0  0  0  0  0  0  0
    7.0233    0.5102    1.3222 H   0  0  0  0  0  0  0  0  0  0  0  0
    7.7833   -1.6719    0.4462 H   0  0  0  0  0  0  0  0  0  0  0  0
    3.7304   -2.5644   -0.8120 H   0  0  0  0  0  0  0  0  0  0  0  0
   -1.2826    0.2868    0.2880 H   0  0  0  0  0  0  0  0  0  0  0  0
   -3.7755    1.8661    0.6482 H   0  0  0  0  0  0  0  0  0  0  0  0
   -2.9558    0.3884   -1.9042 H   0  0  0  0  0  0  0  0  0  0  0  0
   -3.1798    2.1220   -1.7322 H   0  0  0  0  0  0  0  0  0  0  0  0
   -5.5745    1.8428   -1.2923 H   0  0  0  0  0  0  0  0  0  0  0  0
   -5.1492    1.0220   -2.7923 H   0  0  0  0  0  0  0  0  0  0  0  0
   -5.1257   -1.1574   -1.6705 H   0  0  0  0  0  0  0  0  0  0  0  0
   -6.6616   -0.3542   -1.3525 H   0  0  0  0  0  0  0  0  0  0  0  0
   -5.6989   -1.4092    0.7002 H   0  0  0  0  0  0  0  0  0  0  0  0
   -5.9148    0.3302    0.8814 H   0  0  0  0  0  0  0  0  0  0  0  0
   -3.7258   -0.3249    1.7772 H   0  0  0  0  0  0  0  0  0  0  0  0
   -3.3020   -1.1376    0.2781 H   0  0  0  0  0  0  0  0  0  0  0  0
  1  2  2  0
  2  3  1  0
  3  4  1  0
  4  5  1  0
  5  6  2  3
  6  7  1  0
  7  8  2  0
  8  9  1  0
  9 10  2  0
 10 11  1  0
 11 12  1  0
 12 13  2  0
 12 14  1  0
 11 15  2  0
  2 16  1  0
 16 17  1  0
 17 18  1  0
 18 19  1  0
 19 20  1  0
 20 21  1  0
 21 22  1  0
 15  7  1  0
 22 17  1  0
  3 23  1  0
  3 24  1  0
  6 25  1  0
  8 26  1  0
  9 27  1  0
 10 28  1  0
 15 29  1  0
 16 30  1  0
 17 31  1  0
 18 32  1  0
 18 33  1  0
 19 34  1  0
 19 35  1  0
 20 36  1  0
 20 37  1  0
 21 38  1  0
 21 39  1  0
 22 40  1  0
 22 41  1  0
M  CHG  2  12   1  14  -1
M  END
$$$$
