
     RDKit          3D

 62 64  0  0  0  0  0  0  0  0999 V2000
    7.6130    2.3536   -0.3784 C   0  0  0  0  0  0  0  0  0  0  0  0
    7.3833    1.2107    0.5716 C   0  0  0  0  0  0  0  0  0  0  0  0
    8.3330    1.0614    1.6013 C   0  0  0  0  0  0  0  0  0  0  0  0
    8.1743    0.1062    2.5987 C   0  0  0  0  0  0  0  0  0  0  0  0
    7.0556   -0.7159    2.5898 C   0  0  0  0  0  0  0  0  0  0  0  0
    6.0999   -0.6132    1.5655 C   0  0  0  0  0  0  0  0  0  0  0  0
    4.9255   -1.5592    1.6069 C   0  0  0  0  0  0  0  0  0  0  0  0
    6.2805    0.3310    0.5215 C   0  0  0  0  0  0  0  0  0  0  0  0
    5.2888    0.3674   -0.4853 N   0  0  0  0  0  0  0  0  0  0  0  0
    5.4567    0.5997   -1.8389 C   0  0  0  0  0  0  0  0  0  0  0  0
    6.5165    0.7909   -2.4279 O   0  0  0  0  0  0  0  0  0  0  0  0
    4.1326    0.5604   -2.6097 C   0  0  0  0  0  0  0  0  0  0  0  0
    3.0372    0.2114   -1.7536 O   0  0  0  0  0  0  0  0  0  0  0  0
    1.8124    0.3608   -2.3308 C   0  0  0  0  0  0  0  0  0  0  0  0
    1.6205    0.7092   -3.4840 O   0  0  0  0  0  0  0  0  0  0  0  0
    0.7415    0.0422   -1.3202 C   0  0  0  0  0  0  0  0  0  0  0  0
   -0.6530    0.2217   -1.9129 C   0  0  0  0  0  0  0  0  0  0  0  0
   -1.7237   -0.0059   -0.8729 C   0  0  0  0  0  0  0  0  0  0  0  0
   -2.1975   -1.2997   -0.6112 C   0  0  0  0  0  0  0  0  0  0  0  0
   -3.1659   -1.5127    0.3721 C   0  0  0  0  0  0  0  0  0  0  0  0
   -3.6785   -0.4255    1.0849 C   0  0  0  0  0  0  0  0  0  0  0  0
   -4.8907   -0.6992    2.3627 S   0  0  0  0  0  6  0  0  0  0  0  0
   -4.7305   -2.0641    2.8207 O   0  0  0  0  0  0  0  0  0  0  0  0
   -4.8054    0.4131    3.2864 O   0  0  0  0  0  0  0  0  0  0  0  0
   -6.3636   -0.5867    1.5284 N   0  0  0  0  0  0  0  0  0  0  0  0
   -6.7475   -1.7320    0.6721 C   0  0  0  0  0  0  0  0  0  0  0  0
   -8.0946   -1.4667    0.0110 C   0  0  0  0  0  0  0  0  0  0  0  0
   -8.0404   -0.2379   -0.8966 C   0  0  0  0  0  0  0  0  0  0  0  0
   -7.0103    0.7903   -0.4299 C   0  0  0  0  0  0  0  0  0  0  0  0
   -6.8160    0.7517    1.0806 C   0  0  0  0  0  0  0  0  0  0  0  0
   -3.1955    0.8646    0.8534 C   0  0  0  0  0  0  0  0  0  0  0  0
   -2.2230    1.0719   -0.1269 C   0  0  0  0  0  0  0  0  0  0  0  0
    8.2597    2.0423   -1.2025 H   0  0  0  0  0  0  0  0  0  0  0  0
    6.6732    2.7596   -0.7611 H   0  0  0  0  0  0  0  0  0  0  0  0
    8.1036    3.1897    0.1362 H   0  0  0  0  0  0  0  0  0  0  0  0
    9.2022    1.7155    1.6401 H   0  0  0  0  0  0  0  0  0  0  0  0
    8.9146    0.0174    3.3888 H   0  0  0  0  0  0  0  0  0  0  0  0
    6.9388   -1.4523    3.3839 H   0  0  0  0  0  0  0  0  0  0  0  0
    5.0007   -2.2635    2.4431 H   0  0  0  0  0  0  0  0  0  0  0  0
    3.9931   -1.0003    1.7283 H   0  0  0  0  0  0  0  0  0  0  0  0
    4.8846   -2.1549    0.6895 H   0  0  0  0  0  0  0  0  0  0  0  0
    4.4038   -0.0755   -0.2692 H   0  0  0  0  0  0  0  0  0  0  0  0
    3.9764    1.5559   -3.0434 H   0  0  0  0  0  0  0  0  0  0  0  0
    4.2249   -0.1982   -3.3958 H   0  0  0  0  0  0  0  0  0  0  0  0
    0.8791   -0.9911   -0.9830 H   0  0  0  0  0  0  0  0  0  0  0  0
    0.8764    0.7112   -0.4622 H   0  0  0  0  0  0  0  0  0  0  0  0
   -0.7649    1.2274   -2.3394 H   0  0  0  0  0  0  0  0  0  0  0  0
   -0.8038   -0.4711   -2.7514 H   0  0  0  0  0  0  0  0  0  0  0  0
   -1.8103   -2.1510   -1.1683 H   0  0  0  0  0  0  0  0  0  0  0  0
   -3.5110   -2.5232    0.5790 H   0  0  0  0  0  0  0  0  0  0  0  0
   -5.9894   -1.9099   -0.0973 H   0  0  0  0  0  0  0  0  0  0  0  0
   -6.8318   -2.6317    1.2910 H   0  0  0  0  0  0  0  0  0  0  0  0
   -8.4143   -2.3406   -0.5685 H   0  0  0  0  0  0  0  0  0  0  0  0
   -8.8540   -1.3088    0.7875 H   0  0  0  0  0  0  0  0  0  0  0  0
   -9.0362    0.2194   -0.9416 H   0  0  0  0  0  0  0  0  0  0  0  0
   -7.7936   -0.5415   -1.9209 H   0  0  0  0  0  0  0  0  0  0  0  0
   -6.0517    0.5861   -0.9251 H   0  0  0  0  0  0  0  0  0  0  0  0
   -7.3184    1.7927   -0.7498 H   0  0  0  0  0  0  0  0  0  0  0  0
   -6.1114    1.5342    1.3723 H   0  0  0  0  0  0  0  0  0  0  0  0
   -7.7609    0.9761    1.5877 H   0  0  0  0  0  0  0  0  0  0  0  0
   -3.5632    1.7066    1.4357 H   0  0  0  0  0  0  0  0  0  0  0  0
   -1.8514    2.0799   -0.3014 H   0  0  0  0  0  0  0  0  0  0  0  0
  1  2  1  0
  2  3  2  0
  3  4  1  0
  4  5  2  0
  5  6  1  0
  6  7  1  0
  6  8  2  0
  8  9  1  0
  9 10  1  0
 10 11  2  0
 10 12  1  0
 12 13  1  0
 13 14  1  0
 14 15  2  0
 14 16  1  0
 16 17  1  0
 17 18  1  0
 18 19  2  0
 19 20  1  0
 20 21  2  0
 21 22  1  0
 22 23  2  0
 22 24  2  0
 22 25  1  0
 25 26  1  0
 26 27  1  0
 27 28  1  0
 28 29  1  0
 29 30  1  0
 21 31  1  0
 31 32  2  0
  8  2  1  0
 32 18  1  0
 30 25  1  0
  1 33  1  0
  1 34  1  0
  1 35  1  0
  3 36  1  0
  4 37  1  0
  5 38  1  0
  7 39  1  0
  7 40  1  0
  7 41  1  0
  9 42  1  0
 12 43  1  0
 12 44  1  0
 16 45  1  0
 16 46  1  0
 17 47  1  0
 17 48  1  0
 19 49  1  0
 20 50  1  0
 26 51  1  0
 26 52  1  0
 27 53  1  0
 27 54  1  0
 28 55  1  0
 28 56  1  0
 29 57  1  0
 29 58  1  0
 30 59  1  0
 30 60  1  0
 31 61  1  0
 32 62  1  0
M  END
$$$$
