
     RDKit          3D

 55 58  0  0  0  0  0  0  0  0999 V2000
    5.9424   -3.5118    2.1996 N   0  0  0  0  0  0  0  0  0  0  0  0
    5.2781   -2.3150    2.1950 C   0  0  0  0  0  0  0  0  0  0  0  0
    5.7253   -1.3399    2.8042 O   0  0  0  0  0  0  0  0  0  0  0  0
    4.0488   -2.2859    1.3921 C   0  0  0  0  0  0  0  0  0  0  0  0
    3.7075   -3.3550    0.6507 N   0  0  0  0  0  0  0  0  0  0  0  0
    2.3248   -3.0106   -0.1897 S   0  0  0  0  0  0  0  0  0  0  0  0
    2.0652   -1.4700    0.4926 C   0  0  0  0  0  0  0  0  0  0  0  0
    0.9119   -0.6637    0.1442 C   0  0  0  0  0  0  0  0  0  0  0  0
    1.0598    0.5056   -0.2248 O   0  0  0  0  0  0  0  0  0  0  0  0
   -0.3649   -1.2640    0.2124 N   0  0  0  0  0  0  0  0  0  0  0  0
   -0.6891   -2.2598    1.1942 C   0  0  0  0  0  0  0  0  0  0  0  0
   -0.1272   -2.2291    2.4787 C   0  0  0  0  0  0  0  0  0  0  0  0
   -0.4238   -3.2306    3.4097 C   0  0  0  0  0  0  0  0  0  0  0  0
   -1.2995   -4.2578    3.0757 C   0  0  0  0  0  0  0  0  0  0  0  0
   -1.8811   -4.2876    1.8108 C   0  0  0  0  0  0  0  0  0  0  0  0
   -1.5804   -3.2932    0.8742 C   0  0  0  0  0  0  0  0  0  0  0  0
   -1.5127   -0.5115   -0.3462 C   0  0  0  0  0  0  0  0  0  0  0  0
   -1.3241   -0.0999   -1.8313 C   0  0  0  0  0  0  0  0  0  0  0  0
   -0.4705   -0.6129   -2.5596 O   0  0  0  0  0  0  0  0  0  0  0  0
   -2.2606    0.7831   -2.3295 N   0  0  0  0  0  0  0  0  0  0  0  0
   -2.1288    1.3679   -3.6486 C   0  0  0  0  0  0  0  0  0  0  0  0
   -1.4976    2.7370   -3.5546 C   0  0  0  0  0  0  0  0  0  0  0  0
   -2.2937    3.8921   -3.6504 C   0  0  0  0  0  0  0  0  0  0  0  0
   -1.7149    5.1578   -3.5505 C   0  0  0  0  0  0  0  0  0  0  0  0
   -0.3426    5.2697   -3.3512 C   0  0  0  0  0  0  0  0  0  0  0  0
    0.2025    6.4868   -3.2481 F   0  0  0  0  0  0  0  0  0  0  0  0
    0.4619    4.1381   -3.2447 C   0  0  0  0  0  0  0  0  0  0  0  0
   -0.1146    2.8728   -3.3435 C   0  0  0  0  0  0  0  0  0  0  0  0
   -1.8937    0.6441    0.5331 C   0  0  0  0  0  0  0  0  0  0  0  0
   -1.4006    1.9180    0.7516 C   0  0  0  0  0  0  0  0  0  0  0  0
   -2.2199    2.5047    1.7448 C   0  0  0  0  0  0  0  0  0  0  0  0
   -3.1734    1.5717    2.0568 C   0  0  0  0  0  0  0  0  0  0  0  0
   -3.0084    0.4570    1.3071 O   0  0  0  0  0  0  0  0  0  0  0  0
    3.1260   -1.1742    1.3229 C   0  0  0  0  0  0  0  0  0  0  0  0
    3.2435   -0.0164    2.0169 N   0  0  0  0  0  0  0  0  0  0  0  0
    5.6590   -4.2149    1.5375 H   0  0  0  0  0  0  0  0  0  0  0  0
    6.8730   -3.5310    2.5844 H   0  0  0  0  0  0  0  0  0  0  0  0
    0.5338   -1.4253    2.7895 H   0  0  0  0  0  0  0  0  0  0  0  0
    0.0295   -3.1976    4.3971 H   0  0  0  0  0  0  0  0  0  0  0  0
   -1.5310   -5.0337    3.8009 H   0  0  0  0  0  0  0  0  0  0  0  0
   -2.5659   -5.0883    1.5521 H   0  0  0  0  0  0  0  0  0  0  0  0
   -2.0199   -3.3721   -0.1140 H   0  0  0  0  0  0  0  0  0  0  0  0
   -2.3733   -1.1838   -0.3959 H   0  0  0  0  0  0  0  0  0  0  0  0
   -2.9017    1.2401   -1.6979 H   0  0  0  0  0  0  0  0  0  0  0  0
   -1.5414    0.7267   -4.3147 H   0  0  0  0  0  0  0  0  0  0  0  0
   -3.1391    1.4420   -4.0712 H   0  0  0  0  0  0  0  0  0  0  0  0
   -3.3632    3.8149   -3.8180 H   0  0  0  0  0  0  0  0  0  0  0  0
   -2.3234    6.0548   -3.6312 H   0  0  0  0  0  0  0  0  0  0  0  0
    1.5280    4.2425   -3.0824 H   0  0  0  0  0  0  0  0  0  0  0  0
    0.5163    1.9856   -3.2338 H   0  0  0  0  0  0  0  0  0  0  0  0
   -0.5447    2.3623    0.2648 H   0  0  0  0  0  0  0  0  0  0  0  0
   -2.1248    3.4840    2.1840 H   0  0  0  0  0  0  0  0  0  0  0  0
   -4.0027    1.5557    2.7485 H   0  0  0  0  0  0  0  0  0  0  0  0
    4.1342    0.1964    2.4674 H   0  0  0  0  0  0  0  0  0  0  0  0
    2.7818    0.8243    1.6673 H   0  0  0  0  0  0  0  0  0  0  0  0
  1  2  1  0
  2  3  2  0
  2  4  1  0
  4  5  2  0
  5  6  1  0
  6  7  1  0
  7  8  1  0
  8  9  2  0
  8 10  1  0
 10 11  1  0
 11 12  2  0
 12 13  1  0
 13 14  2  0
 14 15  1  0
 15 16  2  0
 10 17  1  0
 17 18  1  0
 18 19  2  0
 18 20  1  0
 20 21  1  0
 21 22  1  0
 22 23  2  0
 23 24  1  0
 24 25  2  0
 25 26  1  0
 25 27  1  0
 27 28  2  0
 17 29  1  0
 29 30  2  0
 30 31  1  0
 31 32  2  0
 32 33  1  0
  7 34  2  0
 34 35  1  0
 34  4  1  0
 16 11  1  0
 28 22  1  0
 33 29  1  0
  1 36  1  0
  1 37  1  0
 12 38  1  0
 13 39  1  0
 14 40  1  0
 15 41  1  0
 16 42  1  0
 17 43  1  0
 20 44  1  0
 21 45  1  0
 21 46  1  0
 23 47  1  0
 24 48  1  0
 27 49  1  0
 28 50  1  0
 30 51  1  0
 31 52  1  0
 32 53  1  0
 35 54  1  0
 35 55  1  0
M  END
$$$$
