
     RDKit          3D

 74 77  0  0  0  0  0  0  0  0999 V2000
    2.3165    2.6675   -1.6156 C   0  0  0  0  0  0  0  0  0  0  0  0
    0.8822    2.1872   -1.3851 C   0  0  0  0  0  0  0  0  0  0  0  0
   -0.1445    3.3230   -1.5744 C   0  0  0  0  0  0  0  0  0  0  0  0
   -0.3007    4.1842   -0.3958 N   0  0  0  0  0  0  0  0  0  0  0  0
    0.4496    5.4708   -0.2653 C   0  0  0  0  0  0  0  0  0  0  0  0
    0.9898    6.0495   -1.5745 C   0  0  0  0  0  0  0  0  0  0  0  0
    1.5772    5.3909    0.7966 C   0  0  0  0  0  0  0  0  0  0  0  0
    1.1266    5.8116    2.0835 O   0  0  0  0  0  0  0  0  0  0  0  0
   -1.1069    3.8181    0.6938 C   0  0  0  0  0  0  0  0  0  0  0  0
   -1.1073    4.4702    1.7415 O   0  0  0  0  0  0  0  0  0  0  0  0
   -2.0515    2.6759    0.6220 C   0  0  0  0  0  0  0  0  0  0  0  0
   -3.3683    3.0258    0.9869 C   0  0  0  0  0  0  0  0  0  0  0  0
   -4.3923    2.0827    1.0008 C   0  0  0  0  0  0  0  0  0  0  0  0
   -4.1190    0.7634    0.6614 C   0  0  0  0  0  0  0  0  0  0  0  0
   -2.8215    0.3881    0.3132 C   0  0  0  0  0  0  0  0  0  0  0  0
   -2.4695   -0.9449    0.0036 N   0  0  0  0  0  0  0  0  0  0  0  0
   -3.2849   -2.0405   -0.2115 C   0  0  0  0  0  0  0  0  0  0  0  0
   -4.5084   -2.0079   -0.2356 O   0  0  0  0  0  0  0  0  0  0  0  0
   -2.5059   -3.1671   -0.4227 N   0  0  0  0  0  0  0  0  0  0  0  0
   -2.9177   -4.4486   -0.8307 C   0  0  0  0  0  0  0  0  0  0  0  0
   -1.9292   -5.4366   -0.9129 C   0  0  0  0  0  0  0  0  0  0  0  0
   -2.2436   -6.7263   -1.3469 C   0  0  0  0  0  0  0  0  0  0  0  0
   -3.5517   -7.0387   -1.7078 C   0  0  0  0  0  0  0  0  0  0  0  0
   -4.5431   -6.0662   -1.6185 C   0  0  0  0  0  0  0  0  0  0  0  0
   -4.2277   -4.7739   -1.1865 C   0  0  0  0  0  0  0  0  0  0  0  0
   -1.7689    1.3457    0.2875 C   0  0  0  0  0  0  0  0  0  0  0  0
   -0.5907    0.7845   -0.1214 O   0  0  0  0  0  0  0  0  0  0  0  0
    0.6696    1.4509   -0.0425 C   0  0  0  0  0  0  0  0  0  0  0  0
    1.7160    0.3327    0.1839 C   0  0  0  0  0  0  0  0  0  0  0  0
    1.4183   -0.3922    1.4512 N   0  0  0  0  0  0  0  0  0  0  0  0
    2.1907    0.0804    2.6131 C   0  0  0  0  0  0  0  0  0  0  0  0
    1.0691   -2.0482    1.3646 S   0  0  0  0  0  6  0  0  0  0  0  0
    0.7175   -2.5161    2.6866 O   0  0  0  0  0  0  0  0  0  0  0  0
    0.1684   -2.2645    0.2454 O   0  0  0  0  0  0  0  0  0  0  0  0
    2.6409   -2.7694    0.9435 C   0  0  0  0  0  0  0  0  0  0  0  0
    3.5201   -3.1435    1.9643 C   0  0  0  0  0  0  0  0  0  0  0  0
    4.7480   -3.7184    1.6373 C   0  0  0  0  0  0  0  0  0  0  0  0
    5.0851   -3.9329    0.3000 C   0  0  0  0  0  0  0  0  0  0  0  0
    4.1925   -3.5843   -0.7152 C   0  0  0  0  0  0  0  0  0  0  0  0
    2.9622   -3.0087   -0.3964 C   0  0  0  0  0  0  0  0  0  0  0  0
    2.6835    3.2912   -0.8011 H   0  0  0  0  0  0  0  0  0  0  0  0
    2.3894    3.2378   -2.5469 H   0  0  0  0  0  0  0  0  0  0  0  0
    3.0012    1.8210   -1.7206 H   0  0  0  0  0  0  0  0  0  0  0  0
    0.6747    1.4728   -2.1953 H   0  0  0  0  0  0  0  0  0  0  0  0
    0.0932    3.9188   -2.4595 H   0  0  0  0  0  0  0  0  0  0  0  0
   -1.1223    2.8842   -1.8029 H   0  0  0  0  0  0  0  0  0  0  0  0
   -0.2920    6.1959    0.0985 H   0  0  0  0  0  0  0  0  0  0  0  0
    0.1965    6.1479   -2.3209 H   0  0  0  0  0  0  0  0  0  0  0  0
    1.7896    5.4368   -1.9959 H   0  0  0  0  0  0  0  0  0  0  0  0
    1.4008    7.0524   -1.4079 H   0  0  0  0  0  0  0  0  0  0  0  0
    2.4161    6.0438    0.5356 H   0  0  0  0  0  0  0  0  0  0  0  0
    1.9609    4.3741    0.9073 H   0  0  0  0  0  0  0  0  0  0  0  0
    0.2540    5.3784    2.2308 H   0  0  0  0  0  0  0  0  0  0  0  0
   -3.6004    4.0524    1.2711 H   0  0  0  0  0  0  0  0  0  0  0  0
   -5.3998    2.3715    1.2899 H   0  0  0  0  0  0  0  0  0  0  0  0
   -4.9290    0.0420    0.7008 H   0  0  0  0  0  0  0  0  0  0  0  0
   -1.4755   -1.0912   -0.1487 H   0  0  0  0  0  0  0  0  0  0  0  0
   -1.5217   -3.0566   -0.1953 H   0  0  0  0  0  0  0  0  0  0  0  0
   -0.9013   -5.2116   -0.6419 H   0  0  0  0  0  0  0  0  0  0  0  0
   -1.4673   -7.4842   -1.4049 H   0  0  0  0  0  0  0  0  0  0  0  0
   -3.8002   -8.0383   -2.0521 H   0  0  0  0  0  0  0  0  0  0  0  0
   -5.5667   -6.3042   -1.9012 H   0  0  0  0  0  0  0  0  0  0  0  0
   -5.0267   -4.0415   -1.1417 H   0  0  0  0  0  0  0  0  0  0  0  0
    0.7190    2.1162    0.8246 H   0  0  0  0  0  0  0  0  0  0  0  0
    2.7314    0.7395    0.2353 H   0  0  0  0  0  0  0  0  0  0  0  0
    1.6883   -0.3584   -0.6643 H   0  0  0  0  0  0  0  0  0  0  0  0
    3.2442   -0.1954    2.5206 H   0  0  0  0  0  0  0  0  0  0  0  0
    2.1255    1.1704    2.6857 H   0  0  0  0  0  0  0  0  0  0  0  0
    1.7858   -0.3224    3.5442 H   0  0  0  0  0  0  0  0  0  0  0  0
    3.2577   -2.9945    3.0096 H   0  0  0  0  0  0  0  0  0  0  0  0
    5.4398   -4.0086    2.4250 H   0  0  0  0  0  0  0  0  0  0  0  0
    6.0429   -4.3860    0.0479 H   0  0  0  0  0  0  0  0  0  0  0  0
    4.4546   -3.7715   -1.7542 H   0  0  0  0  0  0  0  0  0  0  0  0
    2.2671   -2.7569   -1.1932 H   0  0  0  0  0  0  0  0  0  0  0  0
  1  2  1  0
  2  3  1  0
  3  4  1  0
  4  5  1  0
  5  6  1  0
  5  7  1  0
  7  8  1  0
  4  9  1  0
  9 10  2  0
  9 11  1  0
 11 12  2  0
 12 13  1  0
 13 14  2  0
 14 15  1  0
 15 16  1  0
 16 17  1  0
 17 18  2  0
 17 19  1  0
 19 20  1  0
 20 21  2  0
 21 22  1  0
 22 23  2  0
 23 24  1  0
 24 25  2  0
 15 26  2  0
 26 27  1  0
 27 28  1  0
 28 29  1  0
 29 30  1  0
 30 31  1  0
 30 32  1  0
 32 33  2  0
 32 34  2  0
 32 35  1  0
 35 36  2  0
 36 37  1  0
 37 38  2  0
 38 39  1  0
 39 40  2  0
 28  2  1  0
 40 35  1  0
 26 11  1  0
 25 20  1  0
  1 41  1  0
  1 42  1  0
  1 43  1  0
  2 44  1  0
  3 45  1  0
  3 46  1  0
  5 47  1  0
  6 48  1  0
  6 49  1  0
  6 50  1  0
  7 51  1  0
  7 52  1  0
  8 53  1  0
 12 54  1  0
 13 55  1  0
 14 56  1  0
 16 57  1  0
 19 58  1  0
 21 59  1  0
 22 60  1  0
 23 61  1  0
 24 62  1  0
 25 63  1  0
 28 64  1  0
 29 65  1  0
 29 66  1  0
 31 67  1  0
 31 68  1  0
 31 69  1  0
 36 70  1  0
 37 71  1  0
 38 72  1  0
 39 73  1  0
 40 74  1  0
M  END
$$$$
