
     RDKit          3D

 62 63  0  0  0  0  0  0  0  0999 V2000
   -4.4820    1.9152    2.4588 C   0  0  0  0  0  0  0  0  0  0  0  0
   -5.1243    1.0583    1.3437 C   0  0  0  0  0  0  0  0  0  0  0  0
   -5.8026   -0.1460    2.0361 C   0  0  0  0  0  0  0  0  0  0  0  0
   -6.2030    1.9254    0.6613 C   0  0  0  0  0  0  0  0  0  0  0  0
   -4.1213    0.5600    0.2863 C   0  0  0  0  0  0  0  0  0  0  0  0
   -2.7626    0.9110    0.3026 C   0  0  0  0  0  0  0  0  0  0  0  0
   -1.8751    0.4475   -0.6783 C   0  0  0  0  0  0  0  0  0  0  0  0
   -2.3245   -0.3891   -1.6978 C   0  0  0  0  0  0  0  0  0  0  0  0
   -1.5389   -0.8993   -2.7040 O   0  0  0  0  0  0  0  0  0  0  0  0
   -0.1265   -0.9682   -2.4935 C   0  0  0  0  0  0  0  0  0  0  0  0
    0.2542   -2.1338   -1.5774 C   0  0  0  0  0  0  0  0  0  0  0  0
    1.6697   -2.3201   -1.5220 O   0  0  0  0  0  0  0  0  0  0  0  0
    2.4139   -1.4695   -0.7398 C   0  0  0  0  0  0  0  0  0  0  0  0
    1.9107   -0.6920    0.2999 C   0  0  0  0  0  0  0  0  0  0  0  0
    2.7642    0.1425    1.0309 C   0  0  0  0  0  0  0  0  0  0  0  0
    4.1420    0.2177    0.7542 C   0  0  0  0  0  0  0  0  0  0  0  0
    5.0487    1.1486    1.5817 C   0  0  0  0  0  0  0  0  0  0  0  0
    6.5429    1.0881    1.1869 C   0  0  0  0  0  0  0  0  0  0  0  0
    4.9598    0.7713    3.0768 C   0  0  0  0  0  0  0  0  0  0  0  0
    4.5864    2.6112    1.3983 C   0  0  0  0  0  0  0  0  0  0  0  0
    4.6343   -0.5863   -0.2901 C   0  0  0  0  0  0  0  0  0  0  0  0
    3.7917   -1.4279   -1.0291 C   0  0  0  0  0  0  0  0  0  0  0  0
    4.2487   -2.2573   -2.0784 N   0  0  0  0  0  0  0  0  0  0  0  0
    5.5256   -2.4018   -2.5574 C   0  0  0  0  0  0  0  0  0  0  0  0
    6.5532   -1.8455   -2.2010 O   0  0  0  0  0  0  0  0  0  0  0  0
   -3.6867   -0.7396   -1.7523 C   0  0  0  0  0  0  0  0  0  0  0  0
   -4.0958   -1.5606   -2.8266 N   0  0  0  0  0  0  0  0  0  0  0  0
   -5.3445   -2.0675   -3.0829 C   0  0  0  0  0  0  0  0  0  0  0  0
   -6.3745   -1.9513   -2.4350 O   0  0  0  0  0  0  0  0  0  0  0  0
   -4.5619   -0.2706   -0.7656 C   0  0  0  0  0  0  0  0  0  0  0  0
   -5.2317    2.2339    3.1946 H   0  0  0  0  0  0  0  0  0  0  0  0
   -4.0204    2.8254    2.0571 H   0  0  0  0  0  0  0  0  0  0  0  0
   -3.7133    1.3545    3.0046 H   0  0  0  0  0  0  0  0  0  0  0  0
   -5.0588   -0.8042    2.5001 H   0  0  0  0  0  0  0  0  0  0  0  0
   -6.3897   -0.7527    1.3361 H   0  0  0  0  0  0  0  0  0  0  0  0
   -6.4903    0.1856    2.8234 H   0  0  0  0  0  0  0  0  0  0  0  0
   -6.7919    1.3558   -0.0665 H   0  0  0  0  0  0  0  0  0  0  0  0
   -5.7513    2.7710    0.1293 H   0  0  0  0  0  0  0  0  0  0  0  0
   -6.9087    2.3309    1.3966 H   0  0  0  0  0  0  0  0  0  0  0  0
   -2.3582    1.5643    1.0724 H   0  0  0  0  0  0  0  0  0  0  0  0
   -0.8462    0.7837   -0.6181 H   0  0  0  0  0  0  0  0  0  0  0  0
    0.3240   -1.1486   -3.4779 H   0  0  0  0  0  0  0  0  0  0  0  0
    0.2987   -0.0106   -2.1754 H   0  0  0  0  0  0  0  0  0  0  0  0
   -0.1627   -3.0537   -2.0061 H   0  0  0  0  0  0  0  0  0  0  0  0
   -0.2005   -2.0699   -0.5844 H   0  0  0  0  0  0  0  0  0  0  0  0
    0.8665   -0.7165    0.5896 H   0  0  0  0  0  0  0  0  0  0  0  0
    2.3312    0.7350    1.8365 H   0  0  0  0  0  0  0  0  0  0  0  0
    6.6992    1.3932    0.1452 H   0  0  0  0  0  0  0  0  0  0  0  0
    6.9526    0.0785    1.3135 H   0  0  0  0  0  0  0  0  0  0  0  0
    7.1436    1.7601    1.8121 H   0  0  0  0  0  0  0  0  0  0  0  0
    5.6251    1.3989    3.6821 H   0  0  0  0  0  0  0  0  0  0  0  0
    5.2481   -0.2752    3.2366 H   0  0  0  0  0  0  0  0  0  0  0  0
    3.9480    0.8991    3.4793 H   0  0  0  0  0  0  0  0  0  0  0  0
    3.5639    2.7714    1.7593 H   0  0  0  0  0  0  0  0  0  0  0  0
    4.6108    2.9034    0.3412 H   0  0  0  0  0  0  0  0  0  0  0  0
    5.2333    3.3022    1.9491 H   0  0  0  0  0  0  0  0  0  0  0  0
    5.6918   -0.5612   -0.5297 H   0  0  0  0  0  0  0  0  0  0  0  0
    3.5231   -2.8266   -2.5033 H   0  0  0  0  0  0  0  0  0  0  0  0
    5.5434   -3.1418   -3.3775 H   0  0  0  0  0  0  0  0  0  0  0  0
   -3.3546   -1.7905   -3.4803 H   0  0  0  0  0  0  0  0  0  0  0  0
   -5.3329   -2.6582   -4.0157 H   0  0  0  0  0  0  0  0  0  0  0  0
   -5.6142   -0.5397   -0.8105 H   0  0  0  0  0  0  0  0  0  0  0  0
  1  2  1  0
  2  3  1  0
  2  4  1  0
  2  5  1  0
  5  6  2  0
  6  7  1  0
  7  8  2  0
  8  9  1  0
  9 10  1  0
 10 11  1  0
 11 12  1  0
 12 13  1  0
 13 14  2  0
 14 15  1  0
 15 16  2  0
 16 17  1  0
 17 18  1  0
 17 19  1  0
 17 20  1  0
 16 21  1  0
 21 22  2  0
 22 23  1  0
 23 24  1  0
 24 25  2  0
  8 26  1  0
 26 27  1  0
 27 28  1  0
 28 29  2  0
 26 30  2  0
 30  5  1  0
 22 13  1  0
  1 31  1  0
  1 32  1  0
  1 33  1  0
  3 34  1  0
  3 35  1  0
  3 36  1  0
  4 37  1  0
  4 38  1  0
  4 39  1  0
  6 40  1  0
  7 41  1  0
 10 42  1  0
 10 43  1  0
 11 44  1  0
 11 45  1  0
 14 46  1  0
 15 47  1  0
 18 48  1  0
 18 49  1  0
 18 50  1  0
 19 51  1  0
 19 52  1  0
 19 53  1  0
 20 54  1  0
 20 55  1  0
 20 56  1  0
 21 57  1  0
 23 58  1  0
 24 59  1  0
 27 60  1  0
 28 61  1  0
 30 62  1  0
M  END
$$$$
