
     RDKit          3D

 50 53  0  0  0  0  0  0  0  0999 V2000
   -5.8525    2.1940   -1.1006 C   0  0  0  0  0  0  0  0  0  0  0  0
   -4.7024    1.1892   -1.1114 C   0  0  0  0  0  0  0  0  0  0  0  0
   -5.1902   -0.2094   -0.6990 C   0  0  0  0  0  0  0  0  0  0  0  0
   -4.0909   -1.0650   -0.0483 C   0  0  0  0  0  0  0  0  0  0  0  0
   -4.3737   -2.5537   -0.2402 C   0  0  0  0  0  0  0  0  0  0  0  0
   -2.6944   -0.6913   -0.5657 C   0  0  0  0  0  0  0  0  0  0  0  0
   -2.4326    0.7203   -0.3234 N   0  0  0  0  0  0  0  0  0  0  0  0
   -1.1563    1.1408   -0.0327 C   0  0  0  0  0  0  0  0  0  0  0  0
   -0.9642    2.4077    0.3757 N   0  0  0  0  0  0  0  0  0  0  0  0
    0.2983    2.8038    0.6452 C   0  0  0  0  0  0  0  0  0  0  0  0
    1.3853    1.9764    0.5249 C   0  0  0  0  0  0  0  0  0  0  0  0
    1.1182    0.6917    0.1106 C   0  0  0  0  0  0  0  0  0  0  0  0
   -0.1357    0.2725   -0.1743 N   0  0  0  0  0  0  0  0  0  0  0  0
    2.2271   -0.3057   -0.0855 C   0  0  0  0  0  0  0  0  0  0  0  0
    3.4091    0.0028    0.8457 C   0  0  0  0  0  0  0  0  0  0  0  0
    4.5414   -0.9948    0.6729 C   0  0  0  0  0  0  0  0  0  0  0  0
    4.9179   -1.8113    1.7515 C   0  0  0  0  0  0  0  0  0  0  0  0
    5.9552   -2.7379    1.6172 C   0  0  0  0  0  0  0  0  0  0  0  0
    6.6251   -2.8564    0.4030 C   0  0  0  0  0  0  0  0  0  0  0  0
    7.9016   -3.9974    0.2370 Cl  0  0  0  0  0  0  0  0  0  0  0  0
    6.2665   -2.0559   -0.6780 C   0  0  0  0  0  0  0  0  0  0  0  0
    5.2292   -1.1290   -0.5441 C   0  0  0  0  0  0  0  0  0  0  0  0
    3.8840    1.4468    0.6405 C   0  0  0  0  0  0  0  0  0  0  0  0
    2.7513    2.4334    0.8218 C   0  0  0  0  0  0  0  0  0  0  0  0
    2.9480    3.5976    1.1557 O   0  0  0  0  0  0  0  0  0  0  0  0
   -3.5355    1.6667   -0.2356 C   0  0  0  0  0  0  0  0  0  0  0  0
   -5.5189    3.1698   -1.4690 H   0  0  0  0  0  0  0  0  0  0  0  0
   -6.2497    2.3324   -0.0893 H   0  0  0  0  0  0  0  0  0  0  0  0
   -6.6708    1.8543   -1.7443 H   0  0  0  0  0  0  0  0  0  0  0  0
   -4.3367    1.1195   -2.1462 H   0  0  0  0  0  0  0  0  0  0  0  0
   -6.0287   -0.1352    0.0057 H   0  0  0  0  0  0  0  0  0  0  0  0
   -5.5921   -0.7085   -1.5905 H   0  0  0  0  0  0  0  0  0  0  0  0
   -4.1115   -0.8635    1.0325 H   0  0  0  0  0  0  0  0  0  0  0  0
   -3.6312   -3.1613    0.2879 H   0  0  0  0  0  0  0  0  0  0  0  0
   -5.3620   -2.8150    0.1531 H   0  0  0  0  0  0  0  0  0  0  0  0
   -4.3448   -2.8303   -1.2997 H   0  0  0  0  0  0  0  0  0  0  0  0
   -2.6146   -0.8963   -1.6407 H   0  0  0  0  0  0  0  0  0  0  0  0
   -1.9651   -1.3332   -0.0555 H   0  0  0  0  0  0  0  0  0  0  0  0
    0.3995    3.8368    0.9670 H   0  0  0  0  0  0  0  0  0  0  0  0
    1.8499   -1.3169    0.1128 H   0  0  0  0  0  0  0  0  0  0  0  0
    2.5297   -0.2731   -1.1394 H   0  0  0  0  0  0  0  0  0  0  0  0
    3.0400   -0.0738    1.8798 H   0  0  0  0  0  0  0  0  0  0  0  0
    4.4073   -1.7352    2.7099 H   0  0  0  0  0  0  0  0  0  0  0  0
    6.2337   -3.3618    2.4625 H   0  0  0  0  0  0  0  0  0  0  0  0
    6.7890   -2.1474   -1.6267 H   0  0  0  0  0  0  0  0  0  0  0  0
    4.9685   -0.5156   -1.4040 H   0  0  0  0  0  0  0  0  0  0  0  0
    4.3034    1.6042   -0.3599 H   0  0  0  0  0  0  0  0  0  0  0  0
    4.6629    1.6841    1.3753 H   0  0  0  0  0  0  0  0  0  0  0  0
   -3.8547    1.7694    0.8094 H   0  0  0  0  0  0  0  0  0  0  0  0
   -3.2328    2.6606   -0.5895 H   0  0  0  0  0  0  0  0  0  0  0  0
  1  2  1  0
  2  3  1  0
  3  4  1  0
  4  5  1  0
  4  6  1  0
  6  7  1  0
  7  8  1  0
  8  9  2  0
  9 10  1  0
 10 11  2  0
 11 12  1  0
 12 13  2  0
 12 14  1  0
 14 15  1  0
 15 16  1  0
 16 17  2  0
 17 18  1  0
 18 19  2  0
 19 20  1  0
 19 21  1  0
 21 22  2  0
 15 23  1  0
 23 24  1  0
 24 25  2  0
  7 26  1  0
 26  2  1  0
 13  8  1  0
 22 16  1  0
 24 11  1  0
  1 27  1  0
  1 28  1  0
  1 29  1  0
  2 30  1  0
  3 31  1  0
  3 32  1  0
  4 33  1  0
  5 34  1  0
  5 35  1  0
  5 36  1  0
  6 37  1  0
  6 38  1  0
 10 39  1  0
 14 40  1  0
 14 41  1  0
 15 42  1  0
 17 43  1  0
 18 44  1  0
 21 45  1  0
 22 46  1  0
 23 47  1  0
 23 48  1  0
 26 49  1  0
 26 50  1  0
M  END
$$$$
