
     RDKit          3D

 37 39  0  0  0  0  0  0  0  0999 V2000
    4.7101   -1.6617    2.0657 C   0  0  0  0  0  0  0  0  0  0  0  0
    3.4426   -1.1569    1.4454 C   0  0  0  0  0  0  0  0  0  0  0  0
    2.2041   -1.6238    1.8772 C   0  0  0  0  0  0  0  0  0  0  0  0
    1.0185   -1.1200    1.3255 C   0  0  0  0  0  0  0  0  0  0  0  0
    1.0250   -0.1209    0.3412 C   0  0  0  0  0  0  0  0  0  0  0  0
    2.2852    0.3223   -0.1153 C   0  0  0  0  0  0  0  0  0  0  0  0
    3.4740   -0.1744    0.4556 C   0  0  0  0  0  0  0  0  0  0  0  0
    2.4036    1.3602   -1.1957 C   0  0  0  0  0  0  0  0  0  0  0  0
    1.2325    1.2235   -2.1415 C   0  0  0  0  0  0  0  0  0  0  0  0
   -0.0583    1.3520   -1.3543 C   0  0  0  0  0  0  0  0  0  0  0  0
   -0.1935    0.4259   -0.2203 N   0  0  0  0  0  0  0  0  0  0  0  0
   -1.4470    0.2923    0.4267 C   0  0  0  0  0  0  0  0  0  0  0  0
   -1.6092   -0.2145    1.5405 O   0  0  0  0  0  0  0  0  0  0  0  0
   -2.6860    0.8710   -0.3181 C   0  0  0  0  0  0  0  0  0  0  0  0
   -3.9776    0.7480    0.4828 C   0  0  0  0  0  0  0  0  0  0  0  0
   -4.4934   -0.6041    0.0582 C   0  0  0  0  0  0  0  0  0  0  0  0
   -4.0978   -0.6476   -1.3998 C   0  0  0  0  0  0  0  0  0  0  0  0
   -2.9312    0.1732   -1.5500 O   0  0  0  0  0  0  0  0  0  0  0  0
    4.5946   -2.6961    2.4062 H   0  0  0  0  0  0  0  0  0  0  0  0
    4.9829   -1.0365    2.9214 H   0  0  0  0  0  0  0  0  0  0  0  0
    5.5314   -1.6488    1.3415 H   0  0  0  0  0  0  0  0  0  0  0  0
    2.1404   -2.3884    2.6483 H   0  0  0  0  0  0  0  0  0  0  0  0
    0.0956   -1.5604    1.6882 H   0  0  0  0  0  0  0  0  0  0  0  0
    4.4344    0.2067    0.1125 H   0  0  0  0  0  0  0  0  0  0  0  0
    3.3337    1.2275   -1.7606 H   0  0  0  0  0  0  0  0  0  0  0  0
    2.4268    2.3564   -0.7385 H   0  0  0  0  0  0  0  0  0  0  0  0
    1.2636    0.2504   -2.6487 H   0  0  0  0  0  0  0  0  0  0  0  0
    1.2793    1.9963   -2.9167 H   0  0  0  0  0  0  0  0  0  0  0  0
   -0.8787    1.2037   -2.0589 H   0  0  0  0  0  0  0  0  0  0  0  0
   -0.1588    2.3683   -0.9522 H   0  0  0  0  0  0  0  0  0  0  0  0
   -2.4959    1.9289   -0.5286 H   0  0  0  0  0  0  0  0  0  0  0  0
   -4.6853    1.5199    0.1552 H   0  0  0  0  0  0  0  0  0  0  0  0
   -3.8572    0.8441    1.5651 H   0  0  0  0  0  0  0  0  0  0  0  0
   -3.9761   -1.3967    0.6111 H   0  0  0  0  0  0  0  0  0  0  0  0
   -5.5683   -0.7318    0.2110 H   0  0  0  0  0  0  0  0  0  0  0  0
   -3.8805   -1.6624   -1.7450 H   0  0  0  0  0  0  0  0  0  0  0  0
   -4.8835   -0.2258   -2.0353 H   0  0  0  0  0  0  0  0  0  0  0  0
  1  2  1  0
  2  3  2  0
  3  4  1  0
  4  5  2  0
  5  6  1  0
  6  7  2  0
  6  8  1  0
  8  9  1  0
  9 10  1  0
 10 11  1  0
 11 12  1  0
 12 13  2  0
 12 14  1  0
 14 15  1  0
 15 16  1  0
 16 17  1  0
 17 18  1  0
  7  2  1  0
 18 14  1  0
 11  5  1  0
  1 19  1  0
  1 20  1  0
  1 21  1  0
  3 22  1  0
  4 23  1  0
  7 24  1  0
  8 25  1  0
  8 26  1  0
  9 27  1  0
  9 28  1  0
 10 29  1  0
 10 30  1  0
 14 31  1  0
 15 32  1  0
 15 33  1  0
 16 34  1  0
 16 35  1  0
 17 36  1  0
 17 37  1  0
M  END
$$$$
