
     RDKit          3D

 48 51  0  0  0  0  0  0  0  0999 V2000
    7.8416    1.6605    3.8084 C   0  0  0  0  0  0  0  0  0  0  0  0
    7.3377    1.0828    2.5369 C   0  0  0  0  0  0  0  0  0  0  0  0
    7.3204    1.7110    1.3803 N   0  0  0  0  0  0  0  0  0  0  0  0
    6.8078    0.9211    0.3699 N   0  0  0  0  0  0  0  0  0  0  0  0
    6.4404   -0.2650    0.8037 C   0  0  0  0  0  0  0  0  0  0  0  0
    5.7479   -1.4828   -0.2370 S   0  0  0  0  0  0  0  0  0  0  0  0
    5.0654   -0.4467   -1.5650 C   0  0  0  0  0  0  0  0  0  0  0  0
    3.7586    0.1908   -1.1440 C   0  0  0  0  0  0  0  0  0  0  0  0
    3.7056    1.4891   -0.8138 C   0  0  0  0  0  0  0  0  0  0  0  0
    2.4061    2.0542   -0.4361 C   0  0  0  0  0  0  0  0  0  0  0  0
    2.2900    3.2201   -0.0776 O   0  0  0  0  0  0  0  0  0  0  0  0
    1.3626    1.1855   -0.5150 N   0  0  0  0  0  0  0  0  0  0  0  0
    1.4915   -0.1285   -0.8696 C   0  0  0  0  0  0  0  0  0  0  0  0
    0.3957   -0.9296   -0.9045 N   0  0  0  0  0  0  0  0  0  0  0  0
   -0.9364   -0.6051   -0.7156 C   0  0  0  0  0  0  0  0  0  0  0  0
   -1.2893    0.6504   -0.3945 N   0  0  0  0  0  0  0  0  0  0  0  0
   -2.6059    0.9158   -0.2441 C   0  0  0  0  0  0  0  0  0  0  0  0
   -2.9389    2.3344    0.1226 C   0  0  0  0  0  0  0  0  0  0  0  0
   -3.5959   -0.0591   -0.4043 C   0  0  0  0  0  0  0  0  0  0  0  0
   -4.9905    0.1538   -0.2665 C   0  0  0  0  0  0  0  0  0  0  0  0
   -5.9095   -0.8887   -0.4470 C   0  0  0  0  0  0  0  0  0  0  0  0
   -7.3811   -0.6166   -0.2992 C   0  0  0  0  0  0  0  0  0  0  0  0
   -5.4252   -2.1661   -0.7655 C   0  0  0  0  0  0  0  0  0  0  0  0
   -6.3516   -3.3345   -0.9684 C   0  0  0  0  0  0  0  0  0  0  0  0
   -4.0379   -2.3574   -0.8975 C   0  0  0  0  0  0  0  0  0  0  0  0
   -3.1180   -1.3305   -0.7272 C   0  0  0  0  0  0  0  0  0  0  0  0
   -1.8149   -1.6014   -0.8809 N   0  0  0  0  0  0  0  0  0  0  0  0
    2.6517   -0.6322   -1.1765 N   0  0  0  0  0  0  0  0  0  0  0  0
    6.7333   -0.5241    2.4724 S   0  0  0  0  0  0  0  0  0  0  0  0
    7.8653    2.7539    3.7452 H   0  0  0  0  0  0  0  0  0  0  0  0
    7.2033    1.3876    4.6566 H   0  0  0  0  0  0  0  0  0  0  0  0
    8.8596    1.3099    4.0079 H   0  0  0  0  0  0  0  0  0  0  0  0
    4.8866   -1.0912   -2.4337 H   0  0  0  0  0  0  0  0  0  0  0  0
    5.8007    0.2989   -1.8924 H   0  0  0  0  0  0  0  0  0  0  0  0
    4.5646    2.1468   -0.7917 H   0  0  0  0  0  0  0  0  0  0  0  0
    0.4412    1.5295   -0.2766 H   0  0  0  0  0  0  0  0  0  0  0  0
    0.5299   -1.8899   -1.1768 H   0  0  0  0  0  0  0  0  0  0  0  0
   -3.6056    2.7813   -0.6229 H   0  0  0  0  0  0  0  0  0  0  0  0
   -2.0321    2.9488    0.1680 H   0  0  0  0  0  0  0  0  0  0  0  0
   -3.4139    2.3681    1.1091 H   0  0  0  0  0  0  0  0  0  0  0  0
   -5.3642    1.1469   -0.0201 H   0  0  0  0  0  0  0  0  0  0  0  0
   -7.5736    0.4335   -0.0557 H   0  0  0  0  0  0  0  0  0  0  0  0
   -7.9043   -0.8400   -1.2347 H   0  0  0  0  0  0  0  0  0  0  0  0
   -7.8014   -1.2239    0.5088 H   0  0  0  0  0  0  0  0  0  0  0  0
   -7.0387   -3.1365   -1.7974 H   0  0  0  0  0  0  0  0  0  0  0  0
   -6.9242   -3.5278   -0.0551 H   0  0  0  0  0  0  0  0  0  0  0  0
   -5.7999   -4.2503   -1.2098 H   0  0  0  0  0  0  0  0  0  0  0  0
   -3.6548   -3.3467   -1.1423 H   0  0  0  0  0  0  0  0  0  0  0  0
  1  2  1  0
  2  3  2  0
  3  4  1  0
  4  5  2  0
  5  6  1  0
  6  7  1  0
  7  8  1  0
  8  9  2  0
  9 10  1  0
 10 11  2  0
 10 12  1  0
 12 13  1  0
 13 14  1  0
 14 15  1  0
 15 16  2  0
 16 17  1  0
 17 18  1  0
 17 19  2  0
 19 20  1  0
 20 21  2  0
 21 22  1  0
 21 23  1  0
 23 24  1  0
 23 25  2  0
 25 26  1  0
 26 27  2  0
 13 28  2  0
  5 29  1  0
 29  2  1  0
 28  8  1  0
 27 15  1  0
 26 19  1  0
  1 30  1  0
  1 31  1  0
  1 32  1  0
  7 33  1  0
  7 34  1  0
  9 35  1  0
 12 36  1  0
 14 37  1  0
 18 38  1  0
 18 39  1  0
 18 40  1  0
 20 41  1  0
 22 42  1  0
 22 43  1  0
 22 44  1  0
 24 45  1  0
 24 46  1  0
 24 47  1  0
 25 48  1  0
M  END
$$$$
