
     RDKit          3D

 48 51  0  0  0  0  0  0  0  0999 V2000
    1.8835    0.7686   -0.8507 O   0  0  0  0  0  0  0  0  0  0  0  0
    2.4442    0.5324    0.4657 S   0  0  0  0  0  6  0  0  0  0  0  0
    2.8020    1.6306    1.3421 O   0  0  0  0  0  0  0  0  0  0  0  0
    3.8331   -0.6080    0.3580 C   0  0  0  0  0  0  0  0  0  0  0  0
    5.0128    0.0798   -0.2798 C   0  0  0  0  0  0  0  0  0  0  0  0
    5.8641    0.8921    0.4858 C   0  0  0  0  0  0  0  0  0  0  0  0
    6.9685    1.5135   -0.1001 C   0  0  0  0  0  0  0  0  0  0  0  0
    7.2359    1.3291   -1.4560 C   0  0  0  0  0  0  0  0  0  0  0  0
    6.3932    0.5309   -2.2291 C   0  0  0  0  0  0  0  0  0  0  0  0
    5.2852   -0.0889   -1.6466 C   0  0  0  0  0  0  0  0  0  0  0  0
    1.2953   -0.4159    1.3176 N   0  0  0  0  0  0  0  0  0  0  0  0
    0.8156   -1.6459    0.6031 C   0  0  0  0  0  0  0  0  0  0  0  0
   -0.5417   -2.1332    1.1477 C   0  0  0  0  0  0  0  0  0  0  0  0
   -1.6403   -1.1510    1.0480 N   0  0  0  0  0  0  0  0  0  0  0  0
   -2.4816   -1.3853   -0.1407 C   0  0  0  0  0  0  0  0  0  0  0  0
   -3.7531   -0.5598   -0.1472 C   0  0  0  0  0  0  0  0  0  0  0  0
   -4.6506   -0.6227    0.9483 C   0  0  0  0  0  0  0  0  0  0  0  0
   -5.8347    0.1208    0.9588 C   0  0  0  0  0  0  0  0  0  0  0  0
   -6.1004    0.9113   -0.1365 C   0  0  0  0  0  0  0  0  0  0  0  0
   -5.2409    0.9742   -1.2111 C   0  0  0  0  0  0  0  0  0  0  0  0
   -4.0648    0.2537   -1.2490 C   0  0  0  0  0  0  0  0  0  0  0  0
   -5.6927    1.8054   -2.1890 O   0  0  0  0  0  0  0  0  0  0  0  0
   -6.9219    2.2775   -1.5937 C   0  0  0  0  0  0  0  0  0  0  0  0
   -7.1971    1.6998   -0.2979 O   0  0  0  0  0  0  0  0  0  0  0  0
   -1.1202    0.2379    1.0746 C   0  0  0  0  0  0  0  0  0  0  0  0
    0.1642    0.3806    1.9091 C   0  0  0  0  0  0  0  0  0  0  0  0
    3.5243   -1.4742   -0.2345 H   0  0  0  0  0  0  0  0  0  0  0  0
    4.0812   -0.9373    1.3723 H   0  0  0  0  0  0  0  0  0  0  0  0
    5.6662    1.0572    1.5448 H   0  0  0  0  0  0  0  0  0  0  0  0
    7.6178    2.1462    0.5014 H   0  0  0  0  0  0  0  0  0  0  0  0
    8.0964    1.8135   -1.9105 H   0  0  0  0  0  0  0  0  0  0  0  0
    6.5986    0.3941   -3.2891 H   0  0  0  0  0  0  0  0  0  0  0  0
    4.6362   -0.7014   -2.2705 H   0  0  0  0  0  0  0  0  0  0  0  0
    1.5575   -2.4384    0.7552 H   0  0  0  0  0  0  0  0  0  0  0  0
    0.7250   -1.4627   -0.4739 H   0  0  0  0  0  0  0  0  0  0  0  0
   -0.8096   -3.0826    0.6686 H   0  0  0  0  0  0  0  0  0  0  0  0
   -0.4192   -2.3712    2.2130 H   0  0  0  0  0  0  0  0  0  0  0  0
   -1.9056   -1.2167   -1.0637 H   0  0  0  0  0  0  0  0  0  0  0  0
   -2.8055   -2.4370   -0.1659 H   0  0  0  0  0  0  0  0  0  0  0  0
   -4.4103   -1.2524    1.8030 H   0  0  0  0  0  0  0  0  0  0  0  0
   -6.5172    0.0804    1.8012 H   0  0  0  0  0  0  0  0  0  0  0  0
   -3.4082    0.3247   -2.1111 H   0  0  0  0  0  0  0  0  0  0  0  0
   -6.8602    3.3669   -1.4849 H   0  0  0  0  0  0  0  0  0  0  0  0
   -7.7541    2.0368   -2.2701 H   0  0  0  0  0  0  0  0  0  0  0  0
   -0.9070    0.5934    0.0573 H   0  0  0  0  0  0  0  0  0  0  0  0
   -1.8878    0.8956    1.4988 H   0  0  0  0  0  0  0  0  0  0  0  0
    0.4214    1.4379    1.9952 H   0  0  0  0  0  0  0  0  0  0  0  0
    0.0027    0.0240    2.9322 H   0  0  0  0  0  0  0  0  0  0  0  0
  1  2  2  0
  2  3  2  0
  2  4  1  0
  4  5  1  0
  5  6  2  0
  6  7  1  0
  7  8  2  0
  8  9  1  0
  9 10  2  0
  2 11  1  0
 11 12  1  0
 12 13  1  0
 13 14  1  0
 14 15  1  0
 15 16  1  0
 16 17  2  0
 17 18  1  0
 18 19  2  0
 19 20  1  0
 20 21  2  0
 20 22  1  0
 22 23  1  0
 23 24  1  0
 14 25  1  0
 25 26  1  0
 10  5  1  0
 26 11  1  0
 21 16  1  0
 24 19  1  0
  4 27  1  0
  4 28  1  0
  6 29  1  0
  7 30  1  0
  8 31  1  0
  9 32  1  0
 10 33  1  0
 12 34  1  0
 12 35  1  0
 13 36  1  0
 13 37  1  0
 15 38  1  0
 15 39  1  0
 17 40  1  0
 18 41  1  0
 21 42  1  0
 23 43  1  0
 23 44  1  0
 25 45  1  0
 25 46  1  0
 26 47  1  0
 26 48  1  0
M  END
$$$$
