
     RDKit          3D

 51 52  0  0  0  0  0  0  0  0999 V2000
    5.0120   -2.3045    1.0415 C   0  0  0  0  0  0  0  0  0  0  0  0
    4.0036   -2.2343   -0.0373 N   0  0  0  0  0  0  0  0  0  0  0  0
    3.9641   -3.4814   -0.8321 C   0  0  0  0  0  0  0  0  0  0  0  0
    4.0801   -0.8140   -0.9501 S   0  0  0  0  0  6  0  0  0  0  0  0
    4.2101    0.3186   -0.0665 O   0  0  0  0  0  0  0  0  0  0  0  0
    5.0090   -1.0218   -2.0366 O   0  0  0  0  0  0  0  0  0  0  0  0
    2.5310   -0.7733   -1.6304 N   0  0  0  0  0  0  0  0  0  0  0  0
    1.4543   -0.5049   -0.7260 C   0  0  0  0  0  0  0  0  0  0  0  0
    0.8179   -1.5623   -0.0838 C   0  0  0  0  0  0  0  0  0  0  0  0
   -0.2057   -1.3127    0.8349 C   0  0  0  0  0  0  0  0  0  0  0  0
   -0.6103   -0.0044    1.1268 C   0  0  0  0  0  0  0  0  0  0  0  0
   -1.7050    0.1813    2.0478 N   0  0  0  0  0  0  0  0  0  0  0  0
   -3.2420   -0.2467    1.4868 S   0  0  0  0  0  6  0  0  0  0  0  0
   -3.3048    0.0303    0.0699 O   0  0  0  0  0  0  0  0  0  0  0  0
   -4.2108    0.3074    2.4014 O   0  0  0  0  0  0  0  0  0  0  0  0
   -3.2172   -1.9283    1.7135 N   0  0  0  0  0  0  0  0  0  0  0  0
   -3.1528   -2.3521    3.1315 C   0  0  0  0  0  0  0  0  0  0  0  0
   -4.2964   -2.6344    0.9891 C   0  0  0  0  0  0  0  0  0  0  0  0
    0.0546    1.0534    0.4889 C   0  0  0  0  0  0  0  0  0  0  0  0
   -0.3162    2.7533    0.8314 S   0  0  0  0  0  6  0  0  0  0  0  0
    0.9424    3.3720    1.2091 O   0  0  0  0  0  0  0  0  0  0  0  0
   -1.4476    2.7883    1.7435 O   0  0  0  0  0  0  0  0  0  0  0  0
   -0.8553    3.5020   -0.6883 C   0  0  0  0  0  0  0  0  0  0  0  0
   -2.0530    3.0838   -1.2716 C   0  0  0  0  0  0  0  0  0  0  0  0
   -2.4711    3.6634   -2.4702 C   0  0  0  0  0  0  0  0  0  0  0  0
   -1.6974    4.6583   -3.0735 C   0  0  0  0  0  0  0  0  0  0  0  0
   -0.5070    5.0814   -2.4799 C   0  0  0  0  0  0  0  0  0  0  0  0
   -0.0816    4.5067   -1.2822 C   0  0  0  0  0  0  0  0  0  0  0  0
    1.0905    0.8063   -0.4289 C   0  0  0  0  0  0  0  0  0  0  0  0
    6.0255   -2.2316    0.6339 H   0  0  0  0  0  0  0  0  0  0  0  0
    4.9208   -3.2569    1.5776 H   0  0  0  0  0  0  0  0  0  0  0  0
    4.8459   -1.5056    1.7711 H   0  0  0  0  0  0  0  0  0  0  0  0
    4.9605   -3.7491   -1.1930 H   0  0  0  0  0  0  0  0  0  0  0  0
    3.5887   -4.2966   -0.2045 H   0  0  0  0  0  0  0  0  0  0  0  0
    3.2825   -3.3957   -1.6834 H   0  0  0  0  0  0  0  0  0  0  0  0
    2.5727   -0.1078   -2.4023 H   0  0  0  0  0  0  0  0  0  0  0  0
    1.1106   -2.5880   -0.2912 H   0  0  0  0  0  0  0  0  0  0  0  0
   -0.6791   -2.1596    1.3247 H   0  0  0  0  0  0  0  0  0  0  0  0
   -1.7904    1.1555    2.3811 H   0  0  0  0  0  0  0  0  0  0  0  0
   -2.9819   -3.4326    3.1817 H   0  0  0  0  0  0  0  0  0  0  0  0
   -2.3160   -1.8741    3.6503 H   0  0  0  0  0  0  0  0  0  0  0  0
   -4.0847   -2.1249    3.6559 H   0  0  0  0  0  0  0  0  0  0  0  0
   -4.1886   -3.7174    1.1255 H   0  0  0  0  0  0  0  0  0  0  0  0
   -5.2800   -2.3319    1.3590 H   0  0  0  0  0  0  0  0  0  0  0  0
   -4.2288   -2.4399   -0.0857 H   0  0  0  0  0  0  0  0  0  0  0  0
   -2.6748    2.3216   -0.8069 H   0  0  0  0  0  0  0  0  0  0  0  0
   -3.4033    3.3438   -2.9279 H   0  0  0  0  0  0  0  0  0  0  0  0
   -2.0324    5.1102   -4.0052 H   0  0  0  0  0  0  0  0  0  0  0  0
    0.0869    5.8647   -2.9463 H   0  0  0  0  0  0  0  0  0  0  0  0
    0.8424    4.8495   -0.8204 H   0  0  0  0  0  0  0  0  0  0  0  0
    1.6282    1.6353   -0.8844 H   0  0  0  0  0  0  0  0  0  0  0  0
  1  2  1  0
  2  3  1  0
  2  4  1  0
  4  5  2  0
  4  6  2  0
  4  7  1  0
  7  8  1  0
  8  9  2  0
  9 10  1  0
 10 11  2  0
 11 12  1  0
 12 13  1  0
 13 14  2  0
 13 15  2  0
 13 16  1  0
 16 17  1  0
 16 18  1  0
 11 19  1  0
 19 20  1  0
 20 21  2  0
 20 22  2  0
 20 23  1  0
 23 24  2  0
 24 25  1  0
 25 26  2  0
 26 27  1  0
 27 28  2  0
 19 29  2  0
 29  8  1  0
 28 23  1  0
  1 30  1  0
  1 31  1  0
  1 32  1  0
  3 33  1  0
  3 34  1  0
  3 35  1  0
  7 36  1  0
  9 37  1  0
 10 38  1  0
 12 39  1  0
 17 40  1  0
 17 41  1  0
 17 42  1  0
 18 43  1  0
 18 44  1  0
 18 45  1  0
 24 46  1  0
 25 47  1  0
 26 48  1  0
 27 49  1  0
 28 50  1  0
 29 51  1  0
M  END
$$$$
