
     RDKit          3D

 57 60  0  0  0  0  0  0  0  0999 V2000
   -2.3197    6.3864   -0.5704 C   0  0  0  0  0  0  0  0  0  0  0  0
   -1.9979    4.8982   -0.6893 C   0  0  0  0  0  0  0  0  0  0  0  0
   -0.5689    4.6053   -0.1892 C   0  0  0  0  0  0  0  0  0  0  0  0
   -0.1814    3.1307   -0.3955 C   0  0  0  0  0  0  0  0  0  0  0  0
   -1.2762    2.1962    0.0293 C   0  0  0  0  0  0  0  0  0  0  0  0
   -2.5712    2.6415    0.2241 C   0  0  0  0  0  0  0  0  0  0  0  0
   -3.6258    1.4007    0.7105 S   0  0  0  0  0  0  0  0  0  0  0  0
   -2.3737    0.2465    0.6732 C   0  0  0  0  0  0  0  0  0  0  0  0
   -2.6254   -1.0273    1.0067 N   0  0  0  0  0  0  0  0  0  0  0  0
   -1.5494   -1.8184    0.9555 C   0  0  0  0  0  0  0  0  0  0  0  0
   -1.7363   -3.3028    1.2760 C   0  0  0  0  0  0  0  0  0  0  0  0
   -1.8435   -4.0777   -0.0482 C   0  0  0  0  0  0  0  0  0  0  0  0
   -3.0141   -3.5515    2.1038 C   0  0  0  0  0  0  0  0  0  0  0  0
   -0.5337   -3.8309    2.0829 C   0  0  0  0  0  0  0  0  0  0  0  0
   -0.3169   -1.4275    0.5706 N   0  0  0  0  0  0  0  0  0  0  0  0
   -0.0865   -0.1389    0.2197 C   0  0  0  0  0  0  0  0  0  0  0  0
    1.2048    0.2366   -0.2048 N   0  0  0  0  0  0  0  0  0  0  0  0
    1.3133    0.0057   -1.6692 C   0  0  0  0  0  0  0  0  0  0  0  0
    2.7737   -0.1870   -2.1081 C   0  0  0  0  0  0  0  0  0  0  0  0
    3.4188   -1.3111   -1.4170 N   0  0  0  0  0  0  0  0  0  0  0  0
    4.5066   -1.9367   -2.0263 C   0  0  0  0  0  0  0  0  0  0  0  0
    4.9714   -1.5072   -3.0845 O   0  0  0  0  0  0  0  0  0  0  0  0
    5.0896   -3.1431   -1.3024 C   0  0  0  0  0  0  0  0  0  0  0  0
    6.0970   -4.1338   -2.3860 Cl  0  0  0  0  0  0  0  0  0  0  0  0
    2.8878   -1.6347   -0.0818 C   0  0  0  0  0  0  0  0  0  0  0  0
    2.2635   -0.4070    0.6052 C   0  0  0  0  0  0  0  0  0  0  0  0
   -1.1562    0.7768    0.2789 C   0  0  0  0  0  0  0  0  0  0  0  0
   -3.0348    4.0585    0.0867 C   0  0  0  0  0  0  0  0  0  0  0  0
   -3.3318    6.5937   -0.9309 H   0  0  0  0  0  0  0  0  0  0  0  0
   -1.6208    6.9843   -1.1648 H   0  0  0  0  0  0  0  0  0  0  0  0
   -2.2567    6.7294    0.4709 H   0  0  0  0  0  0  0  0  0  0  0  0
   -2.0563    4.6220   -1.7495 H   0  0  0  0  0  0  0  0  0  0  0  0
   -0.5029    4.8491    0.8816 H   0  0  0  0  0  0  0  0  0  0  0  0
    0.1586    5.2423   -0.7060 H   0  0  0  0  0  0  0  0  0  0  0  0
    0.7342    2.9255    0.1699 H   0  0  0  0  0  0  0  0  0  0  0  0
    0.0365    2.9648   -1.4584 H   0  0  0  0  0  0  0  0  0  0  0  0
   -2.6839   -3.7192   -0.6531 H   0  0  0  0  0  0  0  0  0  0  0  0
   -0.9348   -3.9658   -0.6513 H   0  0  0  0  0  0  0  0  0  0  0  0
   -1.9933   -5.1496    0.1309 H   0  0  0  0  0  0  0  0  0  0  0  0
   -2.9944   -2.9886    3.0505 H   0  0  0  0  0  0  0  0  0  0  0  0
   -3.1241   -4.6179    2.3497 H   0  0  0  0  0  0  0  0  0  0  0  0
   -3.9191   -3.2494    1.5544 H   0  0  0  0  0  0  0  0  0  0  0  0
   -0.3913   -3.2541    3.0049 H   0  0  0  0  0  0  0  0  0  0  0  0
    0.3989   -3.7698    1.5108 H   0  0  0  0  0  0  0  0  0  0  0  0
   -0.6749   -4.8824    2.3612 H   0  0  0  0  0  0  0  0  0  0  0  0
    0.8870    0.8609   -2.2038 H   0  0  0  0  0  0  0  0  0  0  0  0
    0.7472   -0.8881   -1.9712 H   0  0  0  0  0  0  0  0  0  0  0  0
    3.3645    0.7080   -1.8819 H   0  0  0  0  0  0  0  0  0  0  0  0
    2.8186   -0.3449   -3.1906 H   0  0  0  0  0  0  0  0  0  0  0  0
    4.2896   -3.7916   -0.9334 H   0  0  0  0  0  0  0  0  0  0  0  0
    5.7150   -2.8005   -0.4748 H   0  0  0  0  0  0  0  0  0  0  0  0
    2.1435   -2.4277   -0.2213 H   0  0  0  0  0  0  0  0  0  0  0  0
    3.6853   -2.0340    0.5500 H   0  0  0  0  0  0  0  0  0  0  0  0
    1.9173   -0.6671    1.6150 H   0  0  0  0  0  0  0  0  0  0  0  0
    3.0515    0.3455    0.7460 H   0  0  0  0  0  0  0  0  0  0  0  0
   -3.9986    4.1013   -0.4273 H   0  0  0  0  0  0  0  0  0  0  0  0
   -3.1797    4.4765    1.0893 H   0  0  0  0  0  0  0  0  0  0  0  0
  1  2  1  0
  2  3  1  0
  3  4  1  0
  4  5  1  0
  5  6  2  0
  6  7  1  0
  7  8  1  0
  8  9  2  0
  9 10  1  0
 10 11  1  0
 11 12  1  0
 11 13  1  0
 11 14  1  0
 10 15  2  0
 15 16  1  0
 16 17  1  0
 17 18  1  0
 18 19  1  0
 19 20  1  0
 20 21  1  0
 21 22  2  0
 21 23  1  0
 23 24  1  0
 20 25  1  0
 25 26  1  0
 16 27  2  0
  6 28  1  0
 28  2  1  0
 27  5  1  0
 27  8  1  0
 26 17  1  0
  1 29  1  0
  1 30  1  0
  1 31  1  0
  2 32  1  0
  3 33  1  0
  3 34  1  0
  4 35  1  0
  4 36  1  0
 12 37  1  0
 12 38  1  0
 12 39  1  0
 13 40  1  0
 13 41  1  0
 13 42  1  0
 14 43  1  0
 14 44  1  0
 14 45  1  0
 18 46  1  0
 18 47  1  0
 19 48  1  0
 19 49  1  0
 23 50  1  0
 23 51  1  0
 25 52  1  0
 25 53  1  0
 26 54  1  0
 26 55  1  0
 28 56  1  0
 28 57  1  0
M  END
$$$$
