
     RDKit          3D

 40 41  0  0  0  0  0  0  0  0999 V2000
   -3.7153   -0.2713    3.5624 C   0  0  0  0  0  0  0  0  0  0  0  0
   -3.6681    0.4334    2.2569 C   0  0  0  0  0  0  0  0  0  0  0  0
   -4.5765    1.3719    1.9763 N   0  0  0  0  0  0  0  0  0  0  0  0
   -4.2462    1.7963    0.7441 N   0  0  0  0  0  0  0  0  0  0  0  0
   -5.0387    2.8353    0.1276 C   0  0  0  0  0  0  0  0  0  0  0  0
   -3.1533    1.1558    0.2194 C   0  0  0  0  0  0  0  0  0  0  0  0
   -2.5926    1.4453   -1.1287 C   0  0  0  0  0  0  0  0  0  0  0  0
   -2.7457    0.2510    1.1906 C   0  0  0  0  0  0  0  0  0  0  0  0
   -1.6345   -0.6741    1.1431 C   0  0  0  0  0  0  0  0  0  0  0  0
   -0.8809   -0.7307    0.0940 N   0  0  0  0  0  0  0  0  0  0  0  0
    0.1449   -1.6284    0.1352 N   0  0  0  0  0  0  0  0  0  0  0  0
    1.0246   -1.7053   -0.9348 C   0  0  0  0  0  0  0  0  0  0  0  0
    0.9487   -1.0470   -1.9685 O   0  0  0  0  0  0  0  0  0  0  0  0
    2.0948   -2.7541   -0.7275 C   0  0  0  0  0  0  0  0  0  0  0  0
    3.3045   -2.4844   -1.6120 C   0  0  0  0  0  0  0  0  0  0  0  0
    4.0325   -1.2953   -1.2010 N   0  0  0  0  0  0  0  0  0  0  0  0
    4.1794   -0.1351   -1.9042 C   0  0  0  0  0  0  0  0  0  0  0  0
    4.9471    0.6896   -1.1087 C   0  0  0  0  0  0  0  0  0  0  0  0
    5.3767    2.0202   -1.3990 N   0  0  0  0  0  4  0  0  0  0  0  0
    6.0274    2.5981   -0.5190 O   0  0  0  0  0  0  0  0  0  0  0  0
    5.0741    2.4869   -2.5042 O   0  0  0  0  0  1  0  0  0  0  0  0
    5.2119   -0.0643    0.0479 C   0  0  0  0  0  0  0  0  0  0  0  0
    4.6558   -1.2808   -0.0027 N   0  0  0  0  0  0  0  0  0  0  0  0
   -4.5463    0.0811    4.1825 H   0  0  0  0  0  0  0  0  0  0  0  0
   -2.7864   -0.1066    4.1177 H   0  0  0  0  0  0  0  0  0  0  0  0
   -3.8415   -1.3479    3.4096 H   0  0  0  0  0  0  0  0  0  0  0  0
   -4.3875    3.6870   -0.0837 H   0  0  0  0  0  0  0  0  0  0  0  0
   -5.8364    3.1416    0.8098 H   0  0  0  0  0  0  0  0  0  0  0  0
   -5.4731    2.4376   -0.7928 H   0  0  0  0  0  0  0  0  0  0  0  0
   -2.6155    0.5445   -1.7504 H   0  0  0  0  0  0  0  0  0  0  0  0
   -3.1487    2.2229   -1.6596 H   0  0  0  0  0  0  0  0  0  0  0  0
   -1.5548    1.7838   -1.0439 H   0  0  0  0  0  0  0  0  0  0  0  0
   -1.4671   -1.3136    2.0269 H   0  0  0  0  0  0  0  0  0  0  0  0
    0.2973   -2.1782    0.9737 H   0  0  0  0  0  0  0  0  0  0  0  0
    1.6579   -3.7241   -0.9909 H   0  0  0  0  0  0  0  0  0  0  0  0
    2.3828   -2.7894    0.3293 H   0  0  0  0  0  0  0  0  0  0  0  0
    3.0260   -2.3642   -2.6649 H   0  0  0  0  0  0  0  0  0  0  0  0
    4.0131   -3.3184   -1.5498 H   0  0  0  0  0  0  0  0  0  0  0  0
    3.7252    0.0120   -2.8757 H   0  0  0  0  0  0  0  0  0  0  0  0
    5.7844    0.2189    0.9228 H   0  0  0  0  0  0  0  0  0  0  0  0
  1  2  1  0
  2  3  2  0
  3  4  1  0
  4  5  1  0
  4  6  1  0
  6  7  1  0
  6  8  2  0
  8  9  1  0
  9 10  2  3
 10 11  1  0
 11 12  1  0
 12 13  2  0
 12 14  1  0
 14 15  1  0
 15 16  1  0
 16 17  1  0
 17 18  2  0
 18 19  1  0
 19 20  2  0
 19 21  1  0
 18 22  1  0
 22 23  2  0
  8  2  1  0
 23 16  1  0
  1 24  1  0
  1 25  1  0
  1 26  1  0
  5 27  1  0
  5 28  1  0
  5 29  1  0
  7 30  1  0
  7 31  1  0
  7 32  1  0
  9 33  1  0
 11 34  1  0
 14 35  1  0
 14 36  1  0
 15 37  1  0
 15 38  1  0
 17 39  1  0
 22 40  1  0
M  CHG  2  19   1  21  -1
M  END
$$$$
