
     RDKit          3D

 32 33  0  0  0  0  0  0  0  0999 V2000
   -5.4106   -0.9153    0.6222 C   0  0  0  0  0  0  0  0  0  0  0  0
   -4.4223    0.0105    1.3066 C   0  0  0  0  0  0  0  0  0  0  0  0
   -3.1154   -0.1497    0.7362 O   0  0  0  0  0  0  0  0  0  0  0  0
   -2.8497    0.6132   -0.3548 C   0  0  0  0  0  0  0  0  0  0  0  0
   -3.6201    1.3991   -0.8846 O   0  0  0  0  0  0  0  0  0  0  0  0
   -1.4630    0.3704   -0.8383 C   0  0  0  0  0  0  0  0  0  0  0  0
   -0.6207   -0.5892   -0.2622 C   0  0  0  0  0  0  0  0  0  0  0  0
    0.6753   -0.7749   -0.7529 C   0  0  0  0  0  0  0  0  0  0  0  0
    1.1505   -0.0083   -1.8262 C   0  0  0  0  0  0  0  0  0  0  0  0
    2.5565   -0.1983   -2.3439 C   0  0  0  0  0  0  0  0  0  0  0  0
    3.7103    1.0513   -1.7086 S   0  0  0  0  0  0  0  0  0  0  0  0
    4.0111    0.4458   -0.0983 C   0  0  0  0  0  0  0  0  0  0  0  0
    3.9100   -0.8264    0.2174 N   0  0  0  0  0  0  0  0  0  0  0  0
    4.1952   -1.0509    1.5502 N   0  0  0  0  0  0  0  0  0  0  0  0
    4.5245    0.0520    2.1840 C   0  0  0  0  0  0  0  0  0  0  0  0
    4.8525    0.1146    3.4877 N   0  0  0  0  0  0  0  0  0  0  0  0
    4.4876    1.4580    1.1974 S   0  0  0  0  0  0  0  0  0  0  0  0
    0.3041    0.9523   -2.3998 C   0  0  0  0  0  0  0  0  0  0  0  0
   -0.9933    1.1373   -1.9118 C   0  0  0  0  0  0  0  0  0  0  0  0
   -5.4946   -0.6842   -0.4439 H   0  0  0  0  0  0  0  0  0  0  0  0
   -6.4015   -0.8299    1.0767 H   0  0  0  0  0  0  0  0  0  0  0  0
   -5.0774   -1.9546    0.6968 H   0  0  0  0  0  0  0  0  0  0  0  0
   -4.3431   -0.2539    2.3660 H   0  0  0  0  0  0  0  0  0  0  0  0
   -4.7515    1.0553    1.2597 H   0  0  0  0  0  0  0  0  0  0  0  0
   -0.9569   -1.2006    0.5718 H   0  0  0  0  0  0  0  0  0  0  0  0
    1.3141   -1.5233   -0.2857 H   0  0  0  0  0  0  0  0  0  0  0  0
    2.9177   -1.2125   -2.1371 H   0  0  0  0  0  0  0  0  0  0  0  0
    2.5418   -0.1109   -3.4368 H   0  0  0  0  0  0  0  0  0  0  0  0
    4.7798    1.0099    3.9578 H   0  0  0  0  0  0  0  0  0  0  0  0
    4.5740   -0.6781    4.0555 H   0  0  0  0  0  0  0  0  0  0  0  0
    0.6500    1.5661   -3.2295 H   0  0  0  0  0  0  0  0  0  0  0  0
   -1.6349    1.8870   -2.3714 H   0  0  0  0  0  0  0  0  0  0  0  0
  1  2  1  0
  2  3  1  0
  3  4  1  0
  4  5  2  0
  4  6  1  0
  6  7  2  0
  7  8  1  0
  8  9  2  0
  9 10  1  0
 10 11  1  0
 11 12  1  0
 12 13  2  0
 13 14  1  0
 14 15  2  0
 15 16  1  0
 15 17  1  0
  9 18  1  0
 18 19  2  0
 19  6  1  0
 17 12  1  0
  1 20  1  0
  1 21  1  0
  1 22  1  0
  2 23  1  0
  2 24  1  0
  7 25  1  0
  8 26  1  0
 10 27  1  0
 10 28  1  0
 16 29  1  0
 16 30  1  0
 18 31  1  0
 19 32  1  0
M  END
$$$$
