
     RDKit          3D

 53 56  0  0  0  0  0  0  0  0999 V2000
   -6.2923    1.8357    1.2585 C   0  0  0  0  0  0  0  0  0  0  0  0
   -4.7972    1.5806    1.3809 C   0  0  0  0  0  0  0  0  0  0  0  0
   -4.2035    0.8043    0.1923 C   0  0  0  0  0  0  0  0  0  0  0  0
   -4.7647   -0.6270    0.0038 C   0  0  0  0  0  0  0  0  0  0  0  0
   -4.3737   -1.6195    1.0785 C   0  0  0  0  0  0  0  0  0  0  0  0
   -3.2262   -2.4112    0.9220 C   0  0  0  0  0  0  0  0  0  0  0  0
   -2.8475   -3.3190    1.9118 C   0  0  0  0  0  0  0  0  0  0  0  0
   -3.6148   -3.4495    3.0670 C   0  0  0  0  0  0  0  0  0  0  0  0
   -4.7626   -2.6765    3.2300 C   0  0  0  0  0  0  0  0  0  0  0  0
   -5.1423   -1.7679    2.2401 C   0  0  0  0  0  0  0  0  0  0  0  0
   -2.7439    0.7974    0.3027 N   0  0  0  0  0  0  0  0  0  0  0  0
   -1.9319    0.6715   -0.8037 C   0  0  0  0  0  0  0  0  0  0  0  0
   -2.3518    0.7084   -1.9551 O   0  0  0  0  0  0  0  0  0  0  0  0
   -0.4731    0.4946   -0.5524 C   0  0  0  0  0  0  0  0  0  0  0  0
    0.0155   -0.1214    0.6032 C   0  0  0  0  0  0  0  0  0  0  0  0
    1.3946   -0.2793    0.7933 C   0  0  0  0  0  0  0  0  0  0  0  0
    2.2978    0.1764   -0.1880 C   0  0  0  0  0  0  0  0  0  0  0  0
    3.6744    0.0823   -0.1276 N   0  0  0  0  0  0  0  0  0  0  0  0
    4.2390    0.5864   -1.2041 C   0  0  0  0  0  0  0  0  0  0  0  0
    5.5877    0.6102   -1.3883 N   0  0  0  0  0  0  0  0  0  0  0  0
    6.4747    0.1987   -0.2954 C   0  0  0  0  0  0  0  0  0  0  0  0
    7.7811    1.0071   -0.3508 C   0  0  0  0  0  0  0  0  0  0  0  0
    8.5027    0.8745   -1.5846 O   0  0  0  0  0  0  0  0  0  0  0  0
    7.6650    0.5589   -2.7054 C   0  0  0  0  0  0  0  0  0  0  0  0
    6.2366    1.1196   -2.5969 C   0  0  0  0  0  0  0  0  0  0  0  0
    3.1049    1.2173   -2.3507 S   0  0  0  0  0  0  0  0  0  0  0  0
    1.7923    0.7741   -1.3383 C   0  0  0  0  0  0  0  0  0  0  0  0
    0.4129    0.9402   -1.5465 C   0  0  0  0  0  0  0  0  0  0  0  0
   -6.6314    2.4754    2.0799 H   0  0  0  0  0  0  0  0  0  0  0  0
   -6.8685    0.9079    1.3039 H   0  0  0  0  0  0  0  0  0  0  0  0
   -6.5278    2.3433    0.3176 H   0  0  0  0  0  0  0  0  0  0  0  0
   -4.2940    2.5545    1.4508 H   0  0  0  0  0  0  0  0  0  0  0  0
   -4.5852    1.0694    2.3270 H   0  0  0  0  0  0  0  0  0  0  0  0
   -4.4499    1.3641   -0.7200 H   0  0  0  0  0  0  0  0  0  0  0  0
   -4.4168   -1.0195   -0.9618 H   0  0  0  0  0  0  0  0  0  0  0  0
   -5.8574   -0.6025   -0.0842 H   0  0  0  0  0  0  0  0  0  0  0  0
   -2.6236   -2.3286    0.0191 H   0  0  0  0  0  0  0  0  0  0  0  0
   -1.9588   -3.9304    1.7766 H   0  0  0  0  0  0  0  0  0  0  0  0
   -3.3242   -4.1607    3.8354 H   0  0  0  0  0  0  0  0  0  0  0  0
   -5.3674   -2.7854    4.1268 H   0  0  0  0  0  0  0  0  0  0  0  0
   -6.0464   -1.1814    2.3827 H   0  0  0  0  0  0  0  0  0  0  0  0
   -2.3580    0.6852    1.2293 H   0  0  0  0  0  0  0  0  0  0  0  0
   -0.6530   -0.5157    1.3635 H   0  0  0  0  0  0  0  0  0  0  0  0
    1.7794   -0.7608    1.6873 H   0  0  0  0  0  0  0  0  0  0  0  0
    6.0153    0.3570    0.6877 H   0  0  0  0  0  0  0  0  0  0  0  0
    6.6924   -0.8705   -0.4036 H   0  0  0  0  0  0  0  0  0  0  0  0
    7.5722    2.0744   -0.2064 H   0  0  0  0  0  0  0  0  0  0  0  0
    8.4519    0.6954    0.4563 H   0  0  0  0  0  0  0  0  0  0  0  0
    7.6373   -0.5335   -2.8005 H   0  0  0  0  0  0  0  0  0  0  0  0
    8.1556    0.9509   -3.6025 H   0  0  0  0  0  0  0  0  0  0  0  0
    5.6913    0.8261   -3.5006 H   0  0  0  0  0  0  0  0  0  0  0  0
    6.2718    2.2145   -2.5485 H   0  0  0  0  0  0  0  0  0  0  0  0
    0.0412    1.4040   -2.4571 H   0  0  0  0  0  0  0  0  0  0  0  0
  1  2  1  0
  2  3  1  0
  3  4  1  0
  4  5  1  0
  5  6  2  0
  6  7  1  0
  7  8  2  0
  8  9  1  0
  9 10  2  0
  3 11  1  0
 11 12  1  0
 12 13  2  0
 12 14  1  0
 14 15  2  0
 15 16  1  0
 16 17  2  0
 17 18  1  0
 18 19  2  0
 19 20  1  0
 20 21  1  0
 21 22  1  0
 22 23  1  0
 23 24  1  0
 24 25  1  0
 19 26  1  0
 26 27  1  0
 27 28  2  0
 10  5  1  0
 28 14  1  0
 27 17  1  0
 25 20  1  0
  1 29  1  0
  1 30  1  0
  1 31  1  0
  2 32  1  0
  2 33  1  0
  3 34  1  0
  4 35  1  0
  4 36  1  0
  6 37  1  0
  7 38  1  0
  8 39  1  0
  9 40  1  0
 10 41  1  0
 11 42  1  0
 15 43  1  0
 16 44  1  0
 21 45  1  0
 21 46  1  0
 22 47  1  0
 22 48  1  0
 24 49  1  0
 24 50  1  0
 25 51  1  0
 25 52  1  0
 28 53  1  0
M  END
$$$$
