
     RDKit          3D

 42 44  0  0  0  0  0  0  0  0999 V2000
   -3.0754    3.3035   -2.2983 C   0  0  0  0  0  0  0  0  0  0  0  0
   -3.8603    2.4069   -1.3575 C   0  0  0  0  0  0  0  0  0  0  0  0
   -2.9304    1.5633   -0.6801 O   0  0  0  0  0  0  0  0  0  0  0  0
   -3.4364    0.6995    0.2662 C   0  0  0  0  0  0  0  0  0  0  0  0
   -4.7962    0.5291    0.5446 C   0  0  0  0  0  0  0  0  0  0  0  0
   -5.2015   -0.3875    1.5157 C   0  0  0  0  0  0  0  0  0  0  0  0
   -4.2540   -1.1434    2.1996 C   0  0  0  0  0  0  0  0  0  0  0  0
   -2.8936   -0.9805    1.9266 C   0  0  0  0  0  0  0  0  0  0  0  0
   -2.4705   -0.0477    0.9790 C   0  0  0  0  0  0  0  0  0  0  0  0
   -1.1173    0.1681    0.6229 N   0  0  0  0  0  0  0  0  0  0  0  0
    0.0786   -0.0991    1.2715 C   0  0  0  0  0  0  0  0  0  0  0  0
    0.2972   -0.4807    2.8838 S   0  0  0  0  0  0  0  0  0  0  0  0
    1.1232    0.0615    0.3635 N   0  0  0  0  0  0  0  0  0  0  0  0
    2.5419   -0.1927    0.6179 C   0  0  0  0  0  0  0  0  0  0  0  0
    3.4338    0.4685   -0.4555 C   0  0  0  0  0  0  0  0  0  0  0  0
    4.2189   -0.7213   -1.0371 C   0  0  0  0  0  0  0  0  0  0  0  0
    5.2157   -1.2291    0.0191 C   0  0  0  0  0  0  0  0  0  0  0  0
    4.3075   -1.9143    1.0513 C   0  0  0  0  0  0  0  0  0  0  0  0
    2.8992   -1.6924    0.4717 C   0  0  0  0  0  0  0  0  0  0  0  0
    3.1652   -1.8258   -1.0300 C   0  0  0  0  0  0  0  0  0  0  0  0
   -3.7435    3.9735   -2.8466 H   0  0  0  0  0  0  0  0  0  0  0  0
   -2.3497    3.9054   -1.7412 H   0  0  0  0  0  0  0  0  0  0  0  0
   -2.5070    2.7042   -3.0173 H   0  0  0  0  0  0  0  0  0  0  0  0
   -4.5631    1.8034   -1.9431 H   0  0  0  0  0  0  0  0  0  0  0  0
   -4.4037    3.0316   -0.6392 H   0  0  0  0  0  0  0  0  0  0  0  0
   -5.5653    1.0884    0.0237 H   0  0  0  0  0  0  0  0  0  0  0  0
   -6.2588   -0.5197    1.7317 H   0  0  0  0  0  0  0  0  0  0  0  0
   -4.5704   -1.8705    2.9437 H   0  0  0  0  0  0  0  0  0  0  0  0
   -2.1942   -1.6216    2.4499 H   0  0  0  0  0  0  0  0  0  0  0  0
   -1.0325    0.8146   -0.1554 H   0  0  0  0  0  0  0  0  0  0  0  0
    0.8382   -0.0139   -0.6037 H   0  0  0  0  0  0  0  0  0  0  0  0
    2.7968    0.1913    1.6111 H   0  0  0  0  0  0  0  0  0  0  0  0
    4.0994    1.2207   -0.0190 H   0  0  0  0  0  0  0  0  0  0  0  0
    2.8399    0.9562   -1.2374 H   0  0  0  0  0  0  0  0  0  0  0  0
    4.6770   -0.5108   -2.0054 H   0  0  0  0  0  0  0  0  0  0  0  0
    5.9073   -1.9592   -0.4162 H   0  0  0  0  0  0  0  0  0  0  0  0
    5.8063   -0.4212    0.4625 H   0  0  0  0  0  0  0  0  0  0  0  0
    4.4248   -1.4877    2.0523 H   0  0  0  0  0  0  0  0  0  0  0  0
    4.5411   -2.9836    1.1069 H   0  0  0  0  0  0  0  0  0  0  0  0
    2.1526   -2.3840    0.8676 H   0  0  0  0  0  0  0  0  0  0  0  0
    2.2934   -1.5972   -1.6512 H   0  0  0  0  0  0  0  0  0  0  0  0
    3.5658   -2.8057   -1.3108 H   0  0  0  0  0  0  0  0  0  0  0  0
  1  2  1  0
  2  3  1  0
  3  4  1  0
  4  5  2  0
  5  6  1  0
  6  7  2  0
  7  8  1  0
  8  9  2  0
  9 10  1  0
 10 11  1  0
 11 12  2  0
 11 13  1  0
 13 14  1  0
 14 15  1  0
 15 16  1  0
 16 17  1  0
 17 18  1  0
 18 19  1  0
 19 20  1  0
  9  4  1  0
 19 14  1  0
 20 16  1  0
  1 21  1  0
  1 22  1  0
  1 23  1  0
  2 24  1  0
  2 25  1  0
  5 26  1  0
  6 27  1  0
  7 28  1  0
  8 29  1  0
 10 30  1  0
 13 31  1  0
 14 32  1  0
 15 33  1  0
 15 34  1  0
 16 35  1  0
 17 36  1  0
 17 37  1  0
 18 38  1  0
 18 39  1  0
 19 40  1  0
 20 41  1  0
 20 42  1  0
M  END
$$$$
