
     RDKit          3D

 71 76  0  0  0  0  0  0  0  0999 V2000
    9.1505    3.9001   -0.8279 C   0  0  0  0  0  0  0  0  0  0  0  0
    8.4917    3.3595    0.3101 O   0  0  0  0  0  0  0  0  0  0  0  0
    7.5854    2.3631    0.0786 C   0  0  0  0  0  0  0  0  0  0  0  0
    7.0874    1.7442    1.2256 C   0  0  0  0  0  0  0  0  0  0  0  0
    6.1482    0.7101    1.1337 C   0  0  0  0  0  0  0  0  0  0  0  0
    5.6710    0.2804   -0.1090 C   0  0  0  0  0  0  0  0  0  0  0  0
    4.7140   -0.7351   -0.2756 N   0  0  0  0  0  0  0  0  0  0  0  0
    3.3855   -0.1870   -0.6410 C   0  0  0  0  0  0  0  0  0  0  0  0
    2.4298   -1.3185   -1.0710 C   0  0  0  0  0  0  0  0  0  0  0  0
    2.3748   -2.4371   -0.1131 N   0  0  0  0  0  0  0  0  0  0  0  0
    1.3088   -3.3096    0.0506 C   0  0  0  0  0  0  0  0  0  0  0  0
    1.4619   -4.3940    0.6255 O   0  0  0  0  0  0  0  0  0  0  0  0
   -0.0914   -2.9607   -0.4471 C   0  0  0  0  0  0  0  0  0  0  0  0
   -0.2310   -2.9863   -1.9666 C   0  0  0  0  0  0  0  0  0  0  0  0
   -1.6743   -2.7342   -2.4036 C   0  0  0  0  0  0  0  0  0  0  0  0
   -2.4878   -1.8659   -1.4370 C   0  0  0  0  0  0  0  0  0  0  0  0
   -1.6029   -0.9981   -0.6600 N   0  0  0  0  0  0  0  0  0  0  0  0
   -2.2098    0.0808    0.0195 C   0  0  0  0  0  0  0  0  0  0  0  0
   -1.3883    0.9390    0.7005 N   0  0  0  0  0  0  0  0  0  0  0  0
   -1.9142    2.0021    1.3422 C   0  0  0  0  0  0  0  0  0  0  0  0
   -3.2037    2.3652    1.4338 N   0  0  0  0  0  0  0  0  0  0  0  0
   -3.9910    1.4959    0.7802 C   0  0  0  0  0  0  0  0  0  0  0  0
   -3.6003    0.3695    0.0717 C   0  0  0  0  0  0  0  0  0  0  0  0
   -4.7162   -0.2769   -0.4352 N   0  0  0  0  0  0  0  0  0  0  0  0
   -5.7559    0.4359   -0.0487 C   0  0  0  0  0  0  0  0  0  0  0  0
   -5.3558    1.5297    0.6796 N   0  0  0  0  0  0  0  0  0  0  0  0
   -6.2281    2.5317    1.2518 C   0  0  0  0  0  0  0  0  0  0  0  0
   -7.1988    1.9631    2.2835 C   0  0  0  0  0  0  0  0  0  0  0  0
   -8.3706    1.1863    1.6769 C   0  0  0  0  0  0  0  0  0  0  0  0
   -7.9925   -0.1048    0.9450 C   0  0  0  0  0  0  0  0  0  0  0  0
   -7.1834    0.1184   -0.3310 C   0  0  0  0  0  0  0  0  0  0  0  0
   -0.6387   -1.6909    0.2137 C   0  0  0  0  0  0  0  0  0  0  0  0
    3.6981   -2.9044    0.3331 C   0  0  0  0  0  0  0  0  0  0  0  0
    4.6134   -1.7540    0.7892 C   0  0  0  0  0  0  0  0  0  0  0  0
    6.1828    0.9136   -1.2528 C   0  0  0  0  0  0  0  0  0  0  0  0
    7.1289    1.9423   -1.1672 C   0  0  0  0  0  0  0  0  0  0  0  0
    8.4417    4.3882   -1.5023 H   0  0  0  0  0  0  0  0  0  0  0  0
    9.8544    4.6616   -0.4777 H   0  0  0  0  0  0  0  0  0  0  0  0
    9.7258    3.1290   -1.3487 H   0  0  0  0  0  0  0  0  0  0  0  0
    7.4323    2.0689    2.2043 H   0  0  0  0  0  0  0  0  0  0  0  0
    5.7872    0.2700    2.0575 H   0  0  0  0  0  0  0  0  0  0  0  0
    2.9559    0.3433    0.2209 H   0  0  0  0  0  0  0  0  0  0  0  0
    3.4610    0.5284   -1.4705 H   0  0  0  0  0  0  0  0  0  0  0  0
    1.4440   -0.8843   -1.2307 H   0  0  0  0  0  0  0  0  0  0  0  0
    2.7662   -1.7436   -2.0243 H   0  0  0  0  0  0  0  0  0  0  0  0
   -0.7290   -3.7825   -0.0834 H   0  0  0  0  0  0  0  0  0  0  0  0
    0.4010   -2.2328   -2.4449 H   0  0  0  0  0  0  0  0  0  0  0  0
    0.1130   -3.9487   -2.3651 H   0  0  0  0  0  0  0  0  0  0  0  0
   -2.1965   -3.6900   -2.5410 H   0  0  0  0  0  0  0  0  0  0  0  0
   -1.6555   -2.2613   -3.3948 H   0  0  0  0  0  0  0  0  0  0  0  0
   -3.1845   -1.2881   -2.0543 H   0  0  0  0  0  0  0  0  0  0  0  0
   -3.0734   -2.5074   -0.7657 H   0  0  0  0  0  0  0  0  0  0  0  0
   -1.2006    2.6455    1.8486 H   0  0  0  0  0  0  0  0  0  0  0  0
   -6.7571    3.0204    0.4248 H   0  0  0  0  0  0  0  0  0  0  0  0
   -5.6015    3.2931    1.7304 H   0  0  0  0  0  0  0  0  0  0  0  0
   -7.6192    2.8044    2.8506 H   0  0  0  0  0  0  0  0  0  0  0  0
   -6.6619    1.3314    3.0057 H   0  0  0  0  0  0  0  0  0  0  0  0
   -8.9328    1.8410    0.9982 H   0  0  0  0  0  0  0  0  0  0  0  0
   -9.0580    0.9246    2.4898 H   0  0  0  0  0  0  0  0  0  0  0  0
   -8.9262   -0.6100    0.6671 H   0  0  0  0  0  0  0  0  0  0  0  0
   -7.4641   -0.7797    1.6298 H   0  0  0  0  0  0  0  0  0  0  0  0
   -7.6330    0.9044   -0.9501 H   0  0  0  0  0  0  0  0  0  0  0  0
   -7.2152   -0.8033   -0.9267 H   0  0  0  0  0  0  0  0  0  0  0  0
   -1.1270   -1.9797    1.1564 H   0  0  0  0  0  0  0  0  0  0  0  0
    0.1714   -1.0114    0.4980 H   0  0  0  0  0  0  0  0  0  0  0  0
    4.1507   -3.4345   -0.5147 H   0  0  0  0  0  0  0  0  0  0  0  0
    3.5981   -3.6211    1.1550 H   0  0  0  0  0  0  0  0  0  0  0  0
    5.6036   -2.1654    1.0205 H   0  0  0  0  0  0  0  0  0  0  0  0
    4.1947   -1.3119    1.7034 H   0  0  0  0  0  0  0  0  0  0  0  0
    5.8539    0.5815   -2.2333 H   0  0  0  0  0  0  0  0  0  0  0  0
    7.4831    2.3853   -2.0909 H   0  0  0  0  0  0  0  0  0  0  0  0
  1  2  1  0
  2  3  1  0
  3  4  2  0
  4  5  1  0
  5  6  2  0
  6  7  1  0
  7  8  1  0
  8  9  1  0
  9 10  1  0
 10 11  1  0
 11 12  2  0
 11 13  1  0
 13 14  1  0
 14 15  1  0
 15 16  1  0
 16 17  1  0
 17 18  1  0
 18 19  2  0
 19 20  1  0
 20 21  2  0
 21 22  1  0
 22 23  2  0
 23 24  1  0
 24 25  2  0
 25 26  1  0
 26 27  1  0
 27 28  1  0
 28 29  1  0
 29 30  1  0
 30 31  1  0
 17 32  1  0
 10 33  1  0
 33 34  1  0
  6 35  1  0
 35 36  2  0
 36  3  1  0
 34  7  1  0
 32 13  1  0
 23 18  1  0
 31 25  1  0
 26 22  1  0
  1 37  1  0
  1 38  1  0
  1 39  1  0
  4 40  1  0
  5 41  1  0
  8 42  1  0
  8 43  1  0
  9 44  1  0
  9 45  1  0
 13 46  1  0
 14 47  1  0
 14 48  1  0
 15 49  1  0
 15 50  1  0
 16 51  1  0
 16 52  1  0
 20 53  1  0
 27 54  1  0
 27 55  1  0
 28 56  1  0
 28 57  1  0
 29 58  1  0
 29 59  1  0
 30 60  1  0
 30 61  1  0
 31 62  1  0
 31 63  1  0
 32 64  1  0
 32 65  1  0
 33 66  1  0
 33 67  1  0
 34 68  1  0
 34 69  1  0
 35 70  1  0
 36 71  1  0
M  END
$$$$
