
     RDKit          3D

 52 55  0  0  0  0  0  0  0  0999 V2000
   -5.7347   -0.3332    0.8931 C   0  0  0  0  0  0  0  0  0  0  0  0
   -4.8413    0.6691    0.2280 C   0  0  0  0  0  0  0  0  0  0  0  0
   -3.6637    1.1117    0.8451 C   0  0  0  0  0  0  0  0  0  0  0  0
   -2.8362    2.0316    0.1875 C   0  0  0  0  0  0  0  0  0  0  0  0
   -1.3490    2.5801    0.9871 S   0  0  0  0  0  6  0  0  0  0  0  0
   -1.6800    2.8855    2.3598 O   0  0  0  0  0  0  0  0  0  0  0  0
   -0.6742    3.5271    0.1282 O   0  0  0  0  0  0  0  0  0  0  0  0
   -0.4369    1.1730    1.0158 N   0  0  0  0  0  0  0  0  0  0  0  0
    0.3125    0.8027   -0.2003 C   0  0  0  0  0  0  0  0  0  0  0  0
    0.7492   -0.6953   -0.1454 C   0  0  0  0  0  0  0  0  0  0  0  0
    1.7011   -1.0355    1.0097 C   0  0  0  0  0  0  0  0  0  0  0  0
    1.6312   -2.3318    1.5845 C   0  0  0  0  0  0  0  0  0  0  0  0
    2.4722   -2.7129    2.6353 C   0  0  0  0  0  0  0  0  0  0  0  0
    3.3834   -1.7888    3.0909 C   0  0  0  0  0  0  0  0  0  0  0  0
    3.4773   -0.5359    2.5357 C   0  0  0  0  0  0  0  0  0  0  0  0
    2.6613   -0.1307    1.4983 C   0  0  0  0  0  0  0  0  0  0  0  0
    4.4475    0.2184    3.1191 O   0  0  0  0  0  0  0  0  0  0  0  0
    4.9497   -0.7036    4.1093 C   0  0  0  0  0  0  0  0  0  0  0  0
    4.2788   -1.9809    4.0956 O   0  0  0  0  0  0  0  0  0  0  0  0
    1.2561   -1.2579   -1.4144 N   0  0  0  0  0  0  0  0  0  0  0  0
    0.2351   -1.3897   -2.4717 C   0  0  0  0  0  0  0  0  0  0  0  0
    0.4674   -0.4629   -3.6766 C   0  0  0  0  0  0  0  0  0  0  0  0
    1.7502   -0.6334   -4.2892 O   0  0  0  0  0  0  0  0  0  0  0  0
    2.7639   -1.0752   -3.3762 C   0  0  0  0  0  0  0  0  0  0  0  0
    2.4937   -0.6432   -1.9262 C   0  0  0  0  0  0  0  0  0  0  0  0
   -3.1687    2.5217   -1.0793 C   0  0  0  0  0  0  0  0  0  0  0  0
   -4.3352    2.0732   -1.6982 C   0  0  0  0  0  0  0  0  0  0  0  0
   -5.1545    1.1528   -1.0469 C   0  0  0  0  0  0  0  0  0  0  0  0
   -6.2662    0.7288   -1.6658 F   0  0  0  0  0  0  0  0  0  0  0  0
   -5.5903   -1.3204    0.4440 H   0  0  0  0  0  0  0  0  0  0  0  0
   -6.7847   -0.0412    0.7888 H   0  0  0  0  0  0  0  0  0  0  0  0
   -5.5216   -0.4057    1.9647 H   0  0  0  0  0  0  0  0  0  0  0  0
   -3.3898    0.7474    1.8338 H   0  0  0  0  0  0  0  0  0  0  0  0
    0.0039    1.0091    1.9222 H   0  0  0  0  0  0  0  0  0  0  0  0
   -0.3378    0.9538   -1.0680 H   0  0  0  0  0  0  0  0  0  0  0  0
    1.1733    1.4696   -0.3060 H   0  0  0  0  0  0  0  0  0  0  0  0
   -0.1715   -1.2491    0.0956 H   0  0  0  0  0  0  0  0  0  0  0  0
    0.9148   -3.0552    1.1975 H   0  0  0  0  0  0  0  0  0  0  0  0
    2.4153   -3.7035    3.0709 H   0  0  0  0  0  0  0  0  0  0  0  0
    2.7915    0.8626    1.0847 H   0  0  0  0  0  0  0  0  0  0  0  0
    6.0182   -0.8666    3.9268 H   0  0  0  0  0  0  0  0  0  0  0  0
    4.8274   -0.2533    5.1009 H   0  0  0  0  0  0  0  0  0  0  0  0
   -0.7815   -1.2465   -2.0864 H   0  0  0  0  0  0  0  0  0  0  0  0
    0.2849   -2.4270   -2.8260 H   0  0  0  0  0  0  0  0  0  0  0  0
   -0.2900   -0.6513   -4.4445 H   0  0  0  0  0  0  0  0  0  0  0  0
    0.3714    0.5879   -3.3812 H   0  0  0  0  0  0  0  0  0  0  0  0
    3.7171   -0.6602   -3.7207 H   0  0  0  0  0  0  0  0  0  0  0  0
    2.8393   -2.1666   -3.4504 H   0  0  0  0  0  0  0  0  0  0  0  0
    3.3446   -0.9454   -1.3069 H   0  0  0  0  0  0  0  0  0  0  0  0
    2.4250    0.4503   -1.9049 H   0  0  0  0  0  0  0  0  0  0  0  0
   -2.5331    3.2458   -1.5848 H   0  0  0  0  0  0  0  0  0  0  0  0
   -4.6163    2.4357   -2.6829 H   0  0  0  0  0  0  0  0  0  0  0  0
  1  2  1  0
  2  3  2  0
  3  4  1  0
  4  5  1  0
  5  6  2  0
  5  7  2  0
  5  8  1  0
  8  9  1  0
  9 10  1  0
 10 11  1  0
 11 12  2  0
 12 13  1  0
 13 14  2  0
 14 15  1  0
 15 16  2  0
 15 17  1  0
 17 18  1  0
 18 19  1  0
 10 20  1  0
 20 21  1  0
 21 22  1  0
 22 23  1  0
 23 24  1  0
 24 25  1  0
  4 26  2  0
 26 27  1  0
 27 28  2  0
 28 29  1  0
 28  2  1  0
 16 11  1  0
 25 20  1  0
 19 14  1  0
  1 30  1  0
  1 31  1  0
  1 32  1  0
  3 33  1  0
  8 34  1  0
  9 35  1  0
  9 36  1  0
 10 37  1  0
 12 38  1  0
 13 39  1  0
 16 40  1  0
 18 41  1  0
 18 42  1  0
 21 43  1  0
 21 44  1  0
 22 45  1  0
 22 46  1  0
 24 47  1  0
 24 48  1  0
 25 49  1  0
 25 50  1  0
 26 51  1  0
 27 52  1  0
M  END
$$$$
