
     RDKit          3D

 35 37  0  0  0  0  0  0  0  0999 V2000
   -2.1388   -2.6977   -0.3986 C   0  0  0  0  0  0  0  0  0  0  0  0
   -1.2484   -1.5121   -0.2370 C   0  0  0  0  0  0  0  0  0  0  0  0
    0.0474   -1.6175   -0.0944 N   0  0  0  0  0  0  0  0  0  0  0  0
    0.5310   -0.3213   -0.0329 N   0  0  0  0  0  0  0  0  0  0  0  0
    1.8762   -0.0514    0.1004 C   0  0  0  0  0  0  0  0  0  0  0  0
    2.8651   -0.9181    0.2000 N   0  0  0  0  0  0  0  0  0  0  0  0
    4.0098   -0.1688    0.3133 C   0  0  0  0  0  0  0  0  0  0  0  0
    5.3431   -0.5817    0.4464 C   0  0  0  0  0  0  0  0  0  0  0  0
    6.3424    0.3952    0.5450 C   0  0  0  0  0  0  0  0  0  0  0  0
    6.0201    1.7547    0.5117 C   0  0  0  0  0  0  0  0  0  0  0  0
    4.6948    2.1860    0.3793 C   0  0  0  0  0  0  0  0  0  0  0  0
    3.7211    1.1902    0.2833 C   0  0  0  0  0  0  0  0  0  0  0  0
    2.3596    1.2363    0.1475 N   0  0  0  0  0  0  0  0  0  0  0  0
   -0.4401    0.6747   -0.1353 C   0  0  0  0  0  0  0  0  0  0  0  0
   -0.3265    1.8892   -0.1294 O   0  0  0  0  0  0  0  0  0  0  0  0
   -1.6931   -0.1084   -0.2373 C   0  0  0  0  0  0  0  0  0  0  0  0
   -2.8945    0.4721   -0.3195 C   0  0  0  0  0  0  0  0  0  0  0  0
   -4.1756   -0.0742   -0.3502 N   0  0  0  0  0  0  0  0  0  0  0  0
   -4.6685   -0.8262    0.8155 C   0  0  0  0  0  0  0  0  0  0  0  0
   -5.2496    0.6905   -1.0048 C   0  0  0  0  0  0  0  0  0  0  0  0
   -2.4603   -3.0495    0.5846 H   0  0  0  0  0  0  0  0  0  0  0  0
   -3.0084   -2.4602   -1.0139 H   0  0  0  0  0  0  0  0  0  0  0  0
   -1.5854   -3.5033   -0.8908 H   0  0  0  0  0  0  0  0  0  0  0  0
    5.5842   -1.6385    0.4712 H   0  0  0  0  0  0  0  0  0  0  0  0
    7.3804    0.0884    0.6485 H   0  0  0  0  0  0  0  0  0  0  0  0
    6.8154    2.4934    0.5900 H   0  0  0  0  0  0  0  0  0  0  0  0
    4.4445    3.2409    0.3531 H   0  0  0  0  0  0  0  0  0  0  0  0
    1.7829    2.0650    0.0878 H   0  0  0  0  0  0  0  0  0  0  0  0
   -2.9277    1.5611   -0.3955 H   0  0  0  0  0  0  0  0  0  0  0  0
   -3.8616   -1.3384    1.3469 H   0  0  0  0  0  0  0  0  0  0  0  0
   -5.1554   -0.1502    1.5275 H   0  0  0  0  0  0  0  0  0  0  0  0
   -5.3943   -1.5809    0.4956 H   0  0  0  0  0  0  0  0  0  0  0  0
   -6.1241    0.0544   -1.1783 H   0  0  0  0  0  0  0  0  0  0  0  0
   -5.5508    1.5428   -0.3861 H   0  0  0  0  0  0  0  0  0  0  0  0
   -4.9150    1.0636   -1.9790 H   0  0  0  0  0  0  0  0  0  0  0  0
  1  2  1  0
  2  3  2  0
  3  4  1  0
  4  5  1  0
  5  6  2  0
  6  7  1  0
  7  8  2  0
  8  9  1  0
  9 10  2  0
 10 11  1  0
 11 12  2  0
 12 13  1  0
  4 14  1  0
 14 15  2  0
 14 16  1  0
 16 17  2  3
 17 18  1  0
 18 19  1  0
 18 20  1  0
 16  2  1  0
 13  5  1  0
 12  7  1  0
  1 21  1  0
  1 22  1  0
  1 23  1  0
  8 24  1  0
  9 25  1  0
 10 26  1  0
 11 27  1  0
 13 28  1  0
 17 29  1  0
 19 30  1  0
 19 31  1  0
 19 32  1  0
 20 33  1  0
 20 34  1  0
 20 35  1  0
M  END
$$$$
