
     RDKit          3D

 51 54  0  0  0  0  0  0  0  0999 V2000
   -6.4065   -0.4656   -1.4896 C   0  0  0  0  0  0  0  0  0  0  0  0
   -5.7978   -1.2910   -0.3548 C   0  0  0  0  0  0  0  0  0  0  0  0
   -5.8406   -2.7874   -0.6664 C   0  0  0  0  0  0  0  0  0  0  0  0
   -4.4409   -0.8471   -0.0306 N   0  0  0  0  0  0  0  0  0  0  0  0
   -3.3852   -0.8812   -0.9075 C   0  0  0  0  0  0  0  0  0  0  0  0
   -2.2616   -0.3834   -0.2758 C   0  0  0  0  0  0  0  0  0  0  0  0
   -0.9657   -0.2790   -0.9238 C   0  0  0  0  0  0  0  0  0  0  0  0
    0.0471    0.1618   -0.2529 N   0  0  0  0  0  0  0  0  0  0  0  0
    1.2672    0.2836   -0.8684 N   0  0  0  0  0  0  0  0  0  0  0  0
    1.5158    0.4553   -2.2251 C   0  0  0  0  0  0  0  0  0  0  0  0
    0.6825    0.4187   -3.1284 O   0  0  0  0  0  0  0  0  0  0  0  0
    3.0016    0.6502   -2.5188 C   0  0  0  0  0  0  0  0  0  0  0  0
    3.4935    1.8151   -1.8542 O   0  0  0  0  0  0  0  0  0  0  0  0
    4.7135    1.5906   -1.2571 C   0  0  0  0  0  0  0  0  0  0  0  0
    5.8112    2.2397   -1.8290 C   0  0  0  0  0  0  0  0  0  0  0  0
    7.0702    2.0923   -1.2605 C   0  0  0  0  0  0  0  0  0  0  0  0
    7.2204    1.3131   -0.1150 C   0  0  0  0  0  0  0  0  0  0  0  0
    6.1088    0.6832    0.4746 C   0  0  0  0  0  0  0  0  0  0  0  0
    6.2430   -0.0879    1.6373 C   0  0  0  0  0  0  0  0  0  0  0  0
    5.1273   -0.6890    2.2061 C   0  0  0  0  0  0  0  0  0  0  0  0
    3.9069   -0.5001    1.5907 C   0  0  0  0  0  0  0  0  0  0  0  0
    3.7366    0.2314    0.4653 N   0  0  0  0  0  0  0  0  0  0  0  0
    4.8229    0.8200   -0.0915 C   0  0  0  0  0  0  0  0  0  0  0  0
   -2.6620   -0.0303    1.0532 C   0  0  0  0  0  0  0  0  0  0  0  0
   -1.9881    0.5240    2.1649 C   0  0  0  0  0  0  0  0  0  0  0  0
   -2.6750    0.7552    3.3600 C   0  0  0  0  0  0  0  0  0  0  0  0
   -4.0239    0.4428    3.4659 C   0  0  0  0  0  0  0  0  0  0  0  0
   -4.7203   -0.1045    2.3844 C   0  0  0  0  0  0  0  0  0  0  0  0
   -4.0245   -0.3336    1.1833 C   0  0  0  0  0  0  0  0  0  0  0  0
   -7.4532   -0.7449   -1.6510 H   0  0  0  0  0  0  0  0  0  0  0  0
   -6.3752    0.6041   -1.2547 H   0  0  0  0  0  0  0  0  0  0  0  0
   -5.8719   -0.6147   -2.4340 H   0  0  0  0  0  0  0  0  0  0  0  0
   -6.4148   -1.1242    0.5340 H   0  0  0  0  0  0  0  0  0  0  0  0
   -5.2775   -3.0297   -1.5742 H   0  0  0  0  0  0  0  0  0  0  0  0
   -5.4127   -3.3698    0.1570 H   0  0  0  0  0  0  0  0  0  0  0  0
   -6.8732   -3.1212   -0.8143 H   0  0  0  0  0  0  0  0  0  0  0  0
   -3.5110   -1.2534   -1.9162 H   0  0  0  0  0  0  0  0  0  0  0  0
   -0.9206   -0.6274   -1.9669 H   0  0  0  0  0  0  0  0  0  0  0  0
    2.0425    0.4963   -0.2298 H   0  0  0  0  0  0  0  0  0  0  0  0
    3.5321   -0.2762   -2.2623 H   0  0  0  0  0  0  0  0  0  0  0  0
    3.1174    0.8106   -3.5968 H   0  0  0  0  0  0  0  0  0  0  0  0
    5.6780    2.8565   -2.7136 H   0  0  0  0  0  0  0  0  0  0  0  0
    7.9309    2.5881   -1.7026 H   0  0  0  0  0  0  0  0  0  0  0  0
    8.2103    1.2079    0.3242 H   0  0  0  0  0  0  0  0  0  0  0  0
    7.2144   -0.2190    2.1077 H   0  0  0  0  0  0  0  0  0  0  0  0
    5.2088   -1.2854    3.1079 H   0  0  0  0  0  0  0  0  0  0  0  0
    3.0006   -0.9441    1.9957 H   0  0  0  0  0  0  0  0  0  0  0  0
   -0.9333    0.7757    2.0928 H   0  0  0  0  0  0  0  0  0  0  0  0
   -2.1468    1.1841    4.2072 H   0  0  0  0  0  0  0  0  0  0  0  0
   -4.5470    0.6284    4.4008 H   0  0  0  0  0  0  0  0  0  0  0  0
   -5.7742   -0.3386    2.4882 H   0  0  0  0  0  0  0  0  0  0  0  0
  1  2  1  0
  2  3  1  0
  2  4  1  0
  4  5  1  0
  5  6  2  0
  6  7  1  0
  7  8  2  3
  8  9  1  0
  9 10  1  0
 10 11  2  0
 10 12  1  0
 12 13  1  0
 13 14  1  0
 14 15  2  0
 15 16  1  0
 16 17  2  0
 17 18  1  0
 18 19  2  0
 19 20  1  0
 20 21  2  0
 21 22  1  0
 22 23  2  0
  6 24  1  0
 24 25  2  0
 25 26  1  0
 26 27  2  0
 27 28  1  0
 28 29  2  0
 29  4  1  0
 23 14  1  0
 29 24  1  0
 23 18  1  0
  1 30  1  0
  1 31  1  0
  1 32  1  0
  2 33  1  0
  3 34  1  0
  3 35  1  0
  3 36  1  0
  5 37  1  0
  7 38  1  0
  9 39  1  0
 12 40  1  0
 12 41  1  0
 15 42  1  0
 16 43  1  0
 17 44  1  0
 19 45  1  0
 20 46  1  0
 21 47  1  0
 25 48  1  0
 26 49  1  0
 27 50  1  0
 28 51  1  0
M  END
$$$$
