
     RDKit          3D

 61 65  0  0  0  0  0  0  0  0999 V2000
   -3.3551   -3.7897   -1.2173 C   0  0  0  0  0  0  0  0  0  0  0  0
   -2.6810   -3.0473   -0.1474 N   0  0  0  0  0  0  0  0  0  0  0  0
   -1.2429   -3.3308   -0.1904 C   0  0  0  0  0  0  0  0  0  0  0  0
   -2.9600   -1.6039   -0.2841 C   0  0  0  0  0  0  0  0  0  0  0  0
   -2.6431   -0.7962    0.9921 C   0  0  0  0  0  0  0  0  0  0  0  0
   -2.7728    0.6635    0.7702 N   0  0  0  0  0  0  0  0  0  0  0  0
   -1.7317    1.4070    0.1949 C   0  0  0  0  0  0  0  0  0  0  0  0
   -1.8024    2.5022   -0.3554 O   0  0  0  0  0  0  0  0  0  0  0  0
   -0.3756    0.8170    0.2035 C   0  0  0  0  0  0  0  0  0  0  0  0
    0.3357    0.7158    1.4065 C   0  0  0  0  0  0  0  0  0  0  0  0
    1.6157    0.1601    1.4046 C   0  0  0  0  0  0  0  0  0  0  0  0
    2.1757   -0.2679    0.1954 C   0  0  0  0  0  0  0  0  0  0  0  0
    3.8029   -0.9970    0.1690 S   0  0  0  0  0  6  0  0  0  0  0  0
    3.6797   -2.2141   -0.6064 O   0  0  0  0  0  0  0  0  0  0  0  0
    4.2926   -1.0246    1.5324 O   0  0  0  0  0  0  0  0  0  0  0  0
    4.6896    0.1661   -0.7015 N   0  0  0  0  0  0  0  0  0  0  0  0
    4.7403    1.5432   -0.1005 C   0  0  0  0  0  0  0  0  0  0  0  0
    6.0590    2.1719   -0.5766 C   0  0  0  0  0  0  0  0  0  0  0  0
    6.8512    0.9721   -0.9777 C   0  0  0  0  0  0  0  0  0  0  0  0
    8.1937    0.9239   -1.3217 C   0  0  0  0  0  0  0  0  0  0  0  0
    8.7235   -0.2944   -1.7483 C   0  0  0  0  0  0  0  0  0  0  0  0
    7.9061   -1.4298   -1.8472 C   0  0  0  0  0  0  0  0  0  0  0  0
    6.5510   -1.3645   -1.5082 C   0  0  0  0  0  0  0  0  0  0  0  0
    6.0450   -0.1641   -1.0406 C   0  0  0  0  0  0  0  0  0  0  0  0
    1.4740   -0.1480   -1.0107 C   0  0  0  0  0  0  0  0  0  0  0  0
    0.1961    0.4095   -1.0074 C   0  0  0  0  0  0  0  0  0  0  0  0
   -4.0501    1.2230    0.9288 C   0  0  0  0  0  0  0  0  0  0  0  0
   -5.1160    0.4928    1.1792 N   0  0  0  0  0  0  0  0  0  0  0  0
   -6.2329    1.2935    1.3254 C   0  0  0  0  0  0  0  0  0  0  0  0
   -7.5471    0.8441    1.5736 C   0  0  0  0  0  0  0  0  0  0  0  0
   -8.5833    1.7744    1.7006 C   0  0  0  0  0  0  0  0  0  0  0  0
   -8.3147    3.1307    1.5842 C   0  0  0  0  0  0  0  0  0  0  0  0
   -9.3203    4.0070    1.7093 F   0  0  0  0  0  0  0  0  0  0  0  0
   -7.0285    3.6083    1.3419 C   0  0  0  0  0  0  0  0  0  0  0  0
   -5.9980    2.6641    1.2154 C   0  0  0  0  0  0  0  0  0  0  0  0
   -4.3235    2.9119    0.9268 S   0  0  0  0  0  0  0  0  0  0  0  0
   -3.0127   -3.4829   -2.2122 H   0  0  0  0  0  0  0  0  0  0  0  0
   -3.1821   -4.8663   -1.1081 H   0  0  0  0  0  0  0  0  0  0  0  0
   -4.4397   -3.6431   -1.1640 H   0  0  0  0  0  0  0  0  0  0  0  0
   -0.7807   -2.9837   -1.1215 H   0  0  0  0  0  0  0  0  0  0  0  0
   -0.7185   -2.8661    0.6499 H   0  0  0  0  0  0  0  0  0  0  0  0
   -1.0626   -4.4083   -0.1003 H   0  0  0  0  0  0  0  0  0  0  0  0
   -2.4237   -1.1910   -1.1478 H   0  0  0  0  0  0  0  0  0  0  0  0
   -4.0276   -1.4604   -0.4971 H   0  0  0  0  0  0  0  0  0  0  0  0
   -1.6376   -1.0187    1.3502 H   0  0  0  0  0  0  0  0  0  0  0  0
   -3.3112   -1.0989    1.8086 H   0  0  0  0  0  0  0  0  0  0  0  0
   -0.1059    1.0619    2.3384 H   0  0  0  0  0  0  0  0  0  0  0  0
    2.1642    0.0638    2.3397 H   0  0  0  0  0  0  0  0  0  0  0  0
    4.7397    1.4902    0.9944 H   0  0  0  0  0  0  0  0  0  0  0  0
    3.8820    2.1402   -0.4233 H   0  0  0  0  0  0  0  0  0  0  0  0
    5.8908    2.8165   -1.4457 H   0  0  0  0  0  0  0  0  0  0  0  0
    6.5384    2.7461    0.2212 H   0  0  0  0  0  0  0  0  0  0  0  0
    8.8185    1.8100   -1.2739 H   0  0  0  0  0  0  0  0  0  0  0  0
    9.7737   -0.3621   -2.0233 H   0  0  0  0  0  0  0  0  0  0  0  0
    8.3269   -2.3681   -2.2013 H   0  0  0  0  0  0  0  0  0  0  0  0
    5.9292   -2.2458   -1.6204 H   0  0  0  0  0  0  0  0  0  0  0  0
    1.9212   -0.4821   -1.9453 H   0  0  0  0  0  0  0  0  0  0  0  0
   -0.3529    0.5239   -1.9395 H   0  0  0  0  0  0  0  0  0  0  0  0
   -7.7425   -0.2200    1.6630 H   0  0  0  0  0  0  0  0  0  0  0  0
   -9.5996    1.4426    1.8904 H   0  0  0  0  0  0  0  0  0  0  0  0
   -6.8404    4.6724    1.2554 H   0  0  0  0  0  0  0  0  0  0  0  0
  1  2  1  0
  2  3  1  0
  2  4  1  0
  4  5  1  0
  5  6  1  0
  6  7  1  0
  7  8  2  0
  7  9  1  0
  9 10  2  0
 10 11  1  0
 11 12  2  0
 12 13  1  0
 13 14  2  0
 13 15  2  0
 13 16  1  0
 16 17  1  0
 17 18  1  0
 18 19  1  0
 19 20  2  0
 20 21  1  0
 21 22  2  0
 22 23  1  0
 23 24  2  0
 12 25  1  0
 25 26  2  0
  6 27  1  0
 27 28  2  0
 28 29  1  0
 29 30  2  0
 30 31  1  0
 31 32  2  0
 32 33  1  0
 32 34  1  0
 34 35  2  0
 35 36  1  0
 26  9  1  0
 36 27  1  0
 24 16  1  0
 35 29  1  0
 24 19  1  0
  1 37  1  0
  1 38  1  0
  1 39  1  0
  3 40  1  0
  3 41  1  0
  3 42  1  0
  4 43  1  0
  4 44  1  0
  5 45  1  0
  5 46  1  0
 10 47  1  0
 11 48  1  0
 17 49  1  0
 17 50  1  0
 18 51  1  0
 18 52  1  0
 20 53  1  0
 21 54  1  0
 22 55  1  0
 23 56  1  0
 25 57  1  0
 26 58  1  0
 30 59  1  0
 31 60  1  0
 34 61  1  0
M  END
$$$$
