
     RDKit          3D

 40 43  0  0  0  0  0  0  0  0999 V2000
   -4.9742    1.7194    2.0251 C   0  0  0  0  0  0  0  0  0  0  0  0
   -4.6917    0.4418    2.7284 C   0  0  0  0  0  0  0  0  0  0  0  0
   -5.5000    0.0974    3.8078 N   0  0  0  0  0  0  0  0  0  0  0  0
   -5.1614   -1.0688    4.3272 N   0  0  0  0  0  0  0  0  0  0  0  0
   -3.8849   -1.7859    3.5287 S   0  0  0  0  0  0  0  0  0  0  0  0
   -3.6878   -0.4750    2.4393 C   0  0  0  0  0  0  0  0  0  0  0  0
   -2.7127   -0.4330    1.3994 C   0  0  0  0  0  0  0  0  0  0  0  0
   -2.9638    0.0327    0.1878 N   0  0  0  0  0  0  0  0  0  0  0  0
   -1.8376   -0.1378   -0.5857 N   0  0  0  0  0  0  0  0  0  0  0  0
   -0.9124   -0.6777    0.1741 C   0  0  0  0  0  0  0  0  0  0  0  0
    0.6729   -1.1411   -0.3302 S   0  0  0  0  0  0  0  0  0  0  0  0
    0.4541   -1.1211   -2.1321 C   0  0  0  0  0  0  0  0  0  0  0  0
    1.7668   -1.4661   -2.8011 C   0  0  0  0  0  0  0  0  0  0  0  0
    2.0633   -2.6343   -3.0562 O   0  0  0  0  0  0  0  0  0  0  0  0
    2.7309   -0.3786   -3.1634 C   0  0  0  0  0  0  0  0  0  0  0  0
    3.8487   -0.7209   -3.9402 C   0  0  0  0  0  0  0  0  0  0  0  0
    4.7864    0.2491   -4.3094 C   0  0  0  0  0  0  0  0  0  0  0  0
    4.6183    1.5748   -3.9028 C   0  0  0  0  0  0  0  0  0  0  0  0
    5.5776    2.5726   -4.2773 C   0  0  0  0  0  0  0  0  0  0  0  0
    6.3513    3.3836   -4.5776 N   0  0  0  0  0  0  0  0  0  0  0  0
    3.5091    1.9224   -3.1247 C   0  0  0  0  0  0  0  0  0  0  0  0
    2.5694    0.9513   -2.7545 C   0  0  0  0  0  0  0  0  0  0  0  0
   -1.3948   -0.8210    1.4464 N   0  0  0  0  0  0  0  0  0  0  0  0
   -0.6422   -1.3075    2.6279 C   0  0  0  0  0  0  0  0  0  0  0  0
   -0.6101   -0.5598    3.9440 C   0  0  0  0  0  0  0  0  0  0  0  0
    0.6275   -0.6374    3.1088 C   0  0  0  0  0  0  0  0  0  0  0  0
   -5.3713    1.5247    1.0241 H   0  0  0  0  0  0  0  0  0  0  0  0
   -5.7136    2.3120    2.5732 H   0  0  0  0  0  0  0  0  0  0  0  0
   -4.0648    2.3213    1.9318 H   0  0  0  0  0  0  0  0  0  0  0  0
    0.0775   -0.1593   -2.4912 H   0  0  0  0  0  0  0  0  0  0  0  0
   -0.2827   -1.8778   -2.4245 H   0  0  0  0  0  0  0  0  0  0  0  0
    3.9976   -1.7508   -4.2642 H   0  0  0  0  0  0  0  0  0  0  0  0
    5.6448   -0.0417   -4.9130 H   0  0  0  0  0  0  0  0  0  0  0  0
    3.3691    2.9520   -2.7971 H   0  0  0  0  0  0  0  0  0  0  0  0
    1.7318    1.2670   -2.1388 H   0  0  0  0  0  0  0  0  0  0  0  0
   -0.6546   -2.3937    2.6849 H   0  0  0  0  0  0  0  0  0  0  0  0
   -1.0974    0.4061    4.0228 H   0  0  0  0  0  0  0  0  0  0  0  0
   -0.6386   -1.1394    4.8609 H   0  0  0  0  0  0  0  0  0  0  0  0
    0.9632    0.2742    2.6265 H   0  0  0  0  0  0  0  0  0  0  0  0
    1.4365   -1.2738    3.4517 H   0  0  0  0  0  0  0  0  0  0  0  0
  1  2  1  0
  2  3  1  0
  3  4  2  0
  4  5  1  0
  5  6  1  0
  6  7  1  0
  7  8  2  0
  8  9  1  0
  9 10  2  0
 10 11  1  0
 11 12  1  0
 12 13  1  0
 13 14  2  0
 13 15  1  0
 15 16  2  0
 16 17  1  0
 17 18  2  0
 18 19  1  0
 19 20  3  0
 18 21  1  0
 21 22  2  0
 10 23  1  0
 23 24  1  0
 24 25  1  0
 25 26  1  0
  6  2  2  0
 23  7  1  0
 26 24  1  0
 22 15  1  0
  1 27  1  0
  1 28  1  0
  1 29  1  0
 12 30  1  0
 12 31  1  0
 16 32  1  0
 17 33  1  0
 21 34  1  0
 22 35  1  0
 24 36  1  0
 25 37  1  0
 25 38  1  0
 26 39  1  0
 26 40  1  0
M  END
$$$$
