
     RDKit          3D

 44 47  0  0  0  0  0  0  0  0999 V2000
    7.6855   -1.8895   -1.0426 C   0  0  0  0  0  0  0  0  0  0  0  0
    7.4678   -1.0216    0.1841 C   0  0  0  0  0  0  0  0  0  0  0  0
    6.2007   -1.3010    0.7765 O   0  0  0  0  0  0  0  0  0  0  0  0
    5.1150   -0.5411    0.4348 C   0  0  0  0  0  0  0  0  0  0  0  0
    5.0646    0.3309   -0.6559 C   0  0  0  0  0  0  0  0  0  0  0  0
    3.8982    1.0538   -0.9322 C   0  0  0  0  0  0  0  0  0  0  0  0
    2.7613    0.9029   -0.1307 C   0  0  0  0  0  0  0  0  0  0  0  0
    1.5455    1.6973   -0.4642 C   0  0  0  0  0  0  0  0  0  0  0  0
    1.7032    2.8109   -0.9490 O   0  0  0  0  0  0  0  0  0  0  0  0
    0.3435    1.0590   -0.2181 N   0  0  0  0  0  0  0  0  0  0  0  0
   -0.9550    1.5828   -0.3990 C   0  0  0  0  0  0  0  0  0  0  0  0
   -1.2202    2.8955   -0.7872 C   0  0  0  0  0  0  0  0  0  0  0  0
   -2.5374    3.3361   -0.9380 C   0  0  0  0  0  0  0  0  0  0  0  0
   -3.6024    2.4673   -0.6990 C   0  0  0  0  0  0  0  0  0  0  0  0
   -3.3634    1.1454   -0.3042 C   0  0  0  0  0  0  0  0  0  0  0  0
   -4.4516    0.2057   -0.0420 C   0  0  0  0  0  0  0  0  0  0  0  0
   -4.3744   -1.0602    0.3369 N   0  0  0  0  0  0  0  0  0  0  0  0
   -5.6873   -1.4423    0.4298 C   0  0  0  0  0  0  0  0  0  0  0  0
   -6.2813   -2.6579    0.7832 C   0  0  0  0  0  0  0  0  0  0  0  0
   -7.6782   -2.7039    0.7746 C   0  0  0  0  0  0  0  0  0  0  0  0
   -8.3973   -1.5630    0.4226 C   0  0  0  0  0  0  0  0  0  0  0  0
   -7.8668   -0.3668    0.0739 N   0  0  0  0  0  0  0  0  0  0  0  0
   -6.5220   -0.3810    0.0997 C   0  0  0  0  0  0  0  0  0  0  0  0
   -5.7268    0.6828   -0.2048 O   0  0  0  0  0  0  0  0  0  0  0  0
   -2.0321    0.7183   -0.1573 C   0  0  0  0  0  0  0  0  0  0  0  0
    2.8026    0.0424    0.9688 C   0  0  0  0  0  0  0  0  0  0  0  0
    3.9704   -0.6782    1.2403 C   0  0  0  0  0  0  0  0  0  0  0  0
    3.9569   -1.7358    2.6108 Cl  0  0  0  0  0  0  0  0  0  0  0  0
    8.6820   -1.7237   -1.4617 H   0  0  0  0  0  0  0  0  0  0  0  0
    7.5848   -2.9490   -0.7843 H   0  0  0  0  0  0  0  0  0  0  0  0
    6.9418   -1.6815   -1.8175 H   0  0  0  0  0  0  0  0  0  0  0  0
    7.6120    0.0439   -0.0260 H   0  0  0  0  0  0  0  0  0  0  0  0
    8.2242   -1.2846    0.9323 H   0  0  0  0  0  0  0  0  0  0  0  0
    5.9101    0.4693   -1.3219 H   0  0  0  0  0  0  0  0  0  0  0  0
    3.8777    1.7347   -1.7824 H   0  0  0  0  0  0  0  0  0  0  0  0
    0.3830    0.0872    0.0609 H   0  0  0  0  0  0  0  0  0  0  0  0
   -0.4229    3.6074   -0.9781 H   0  0  0  0  0  0  0  0  0  0  0  0
   -2.7302    4.3623   -1.2424 H   0  0  0  0  0  0  0  0  0  0  0  0
   -4.6187    2.8363   -0.8238 H   0  0  0  0  0  0  0  0  0  0  0  0
   -5.6806   -3.5190    1.0499 H   0  0  0  0  0  0  0  0  0  0  0  0
   -8.2002   -3.6184    1.0393 H   0  0  0  0  0  0  0  0  0  0  0  0
   -9.4857   -1.5895    0.4132 H   0  0  0  0  0  0  0  0  0  0  0  0
   -1.8467   -0.3098    0.1498 H   0  0  0  0  0  0  0  0  0  0  0  0
    1.9504   -0.0546    1.6354 H   0  0  0  0  0  0  0  0  0  0  0  0
  1  2  1  0
  2  3  1  0
  3  4  1  0
  4  5  2  0
  5  6  1  0
  6  7  2  0
  7  8  1  0
  8  9  2  0
  8 10  1  0
 10 11  1  0
 11 12  2  0
 12 13  1  0
 13 14  2  0
 14 15  1  0
 15 16  1  0
 16 17  2  0
 17 18  1  0
 18 19  2  0
 19 20  1  0
 20 21  2  0
 21 22  1  0
 22 23  2  0
 23 24  1  0
 15 25  2  0
  7 26  1  0
 26 27  2  0
 27 28  1  0
 27  4  1  0
 25 11  1  0
 24 16  1  0
 23 18  1  0
  1 29  1  0
  1 30  1  0
  1 31  1  0
  2 32  1  0
  2 33  1  0
  5 34  1  0
  6 35  1  0
 10 36  1  0
 12 37  1  0
 13 38  1  0
 14 39  1  0
 19 40  1  0
 20 41  1  0
 21 42  1  0
 25 43  1  0
 26 44  1  0
M  END
$$$$
