
     RDKit          3D

 34 36  0  0  0  0  0  0  0  0999 V2000
    5.4911   -0.7809    0.6568 C   0  0  0  0  0  0  0  0  0  0  0  0
    4.2362   -0.1067    0.3817 N   0  0  0  0  0  0  0  0  0  0  0  0
    3.2233   -0.8695   -0.3258 C   0  0  0  0  0  0  0  0  0  0  0  0
    1.9054   -0.1760   -0.3918 C   0  0  0  0  0  0  0  0  0  0  0  0
    0.7142   -0.8411   -0.6927 C   0  0  0  0  0  0  0  0  0  0  0  0
   -0.4664   -0.1061   -0.8096 C   0  0  0  0  0  0  0  0  0  0  0  0
   -1.7262   -0.7981   -1.1433 C   0  0  0  0  0  0  0  0  0  0  0  0
   -1.6880   -1.7472   -1.9262 O   0  0  0  0  0  0  0  0  0  0  0  0
   -3.0398   -0.3818   -0.5899 C   0  0  0  0  0  0  0  0  0  0  0  0
   -3.1436    0.2336    0.6656 C   0  0  0  0  0  0  0  0  0  0  0  0
   -4.3939    0.6259    1.1520 C   0  0  0  0  0  0  0  0  0  0  0  0
   -5.5439    0.3959    0.3969 C   0  0  0  0  0  0  0  0  0  0  0  0
   -5.4513   -0.2415   -0.8396 C   0  0  0  0  0  0  0  0  0  0  0  0
   -4.2074   -0.6402   -1.3225 C   0  0  0  0  0  0  0  0  0  0  0  0
   -4.2007   -1.2868   -2.5298 O   0  0  0  0  0  0  0  0  0  0  0  0
   -0.3932    1.2738   -0.6755 C   0  0  0  0  0  0  0  0  0  0  0  0
    0.7495    1.9408   -0.3836 N   0  0  0  0  0  0  0  0  0  0  0  0
    1.8671    1.1993   -0.2415 C   0  0  0  0  0  0  0  0  0  0  0  0
    3.0349    1.8681    0.0668 N   0  0  0  0  0  0  0  0  0  0  0  0
    4.2147    1.2749    0.3933 C   0  0  0  0  0  0  0  0  0  0  0  0
    5.1797    1.9674    0.7094 O   0  0  0  0  0  0  0  0  0  0  0  0
    6.1245   -0.1850    1.3200 H   0  0  0  0  0  0  0  0  0  0  0  0
    6.0187   -0.9422   -0.2880 H   0  0  0  0  0  0  0  0  0  0  0  0
    5.2877   -1.7429    1.1359 H   0  0  0  0  0  0  0  0  0  0  0  0
    3.1079   -1.8297    0.1900 H   0  0  0  0  0  0  0  0  0  0  0  0
    3.5899   -1.0534   -1.3426 H   0  0  0  0  0  0  0  0  0  0  0  0
    0.7039   -1.9184   -0.8442 H   0  0  0  0  0  0  0  0  0  0  0  0
   -2.2708    0.4031    1.2910 H   0  0  0  0  0  0  0  0  0  0  0  0
   -4.4736    1.1063    2.1250 H   0  0  0  0  0  0  0  0  0  0  0  0
   -6.5162    0.7012    0.7766 H   0  0  0  0  0  0  0  0  0  0  0  0
   -6.3473   -0.4379   -1.4229 H   0  0  0  0  0  0  0  0  0  0  0  0
   -3.3120   -1.6911   -2.6483 H   0  0  0  0  0  0  0  0  0  0  0  0
   -1.2606    1.9138   -0.8136 H   0  0  0  0  0  0  0  0  0  0  0  0
    2.9862    2.8726    0.1452 H   0  0  0  0  0  0  0  0  0  0  0  0
  1  2  1  0
  2  3  1  0
  3  4  1  0
  4  5  2  0
  5  6  1  0
  6  7  1  0
  7  8  2  0
  7  9  1  0
  9 10  2  0
 10 11  1  0
 11 12  2  0
 12 13  1  0
 13 14  2  0
 14 15  1  0
  6 16  2  0
 16 17  1  0
 17 18  2  0
 18 19  1  0
 19 20  1  0
 20 21  2  0
 20  2  1  0
 18  4  1  0
 14  9  1  0
  1 22  1  0
  1 23  1  0
  1 24  1  0
  3 25  1  0
  3 26  1  0
  5 27  1  0
 10 28  1  0
 11 29  1  0
 12 30  1  0
 13 31  1  0
 15 32  1  0
 16 33  1  0
 19 34  1  0
M  END
$$$$
