
     RDKit          3D

 69 72  0  0  0  0  0  0  0  0999 V2000
   10.7674    1.5913    1.1513 C   0  0  0  0  0  0  0  0  0  0  0  0
    9.9058    0.5036    0.8518 O   0  0  0  0  0  0  0  0  0  0  0  0
    8.6275    0.7964    0.4439 C   0  0  0  0  0  0  0  0  0  0  0  0
    8.0996    2.0896    0.3654 C   0  0  0  0  0  0  0  0  0  0  0  0
    6.7844    2.2944   -0.0605 C   0  0  0  0  0  0  0  0  0  0  0  0
    5.9790    1.2100   -0.4176 C   0  0  0  0  0  0  0  0  0  0  0  0
    4.5555    1.4222   -0.8688 C   0  0  0  0  0  0  0  0  0  0  0  0
    3.5565    1.2179    0.2728 C   0  0  0  0  0  0  0  0  0  0  0  0
    2.1859    1.4227   -0.1596 N   0  0  0  0  0  0  0  0  0  0  0  0
    1.4996    0.4525   -0.8590 C   0  0  0  0  0  0  0  0  0  0  0  0
    1.9871   -0.6381   -1.1372 O   0  0  0  0  0  0  0  0  0  0  0  0
    0.0857    0.8669   -1.2598 C   0  0  0  0  0  0  0  0  0  0  0  0
   -0.7724    1.0761   -0.0023 C   0  0  0  0  0  0  0  0  0  0  0  0
   -2.2437    0.7843   -0.2610 C   0  0  0  0  0  0  0  0  0  0  0  0
   -2.4551   -0.6119   -0.7218 N   0  0  0  0  0  0  0  0  0  0  0  0
   -3.2122   -1.6476    0.3807 S   0  0  0  0  0  6  0  0  0  0  0  0
   -3.4079   -2.9349   -0.2428 O   0  0  0  0  0  0  0  0  0  0  0  0
   -2.5315   -1.5145    1.6475 O   0  0  0  0  0  0  0  0  0  0  0  0
   -4.7283   -0.8857    0.4938 N   0  0  0  0  0  0  0  0  0  0  0  0
   -5.5241   -0.9234   -0.7660 C   0  0  0  0  0  0  0  0  0  0  0  0
   -6.7096    0.0223   -0.6331 C   0  0  0  0  0  0  0  0  0  0  0  0
   -7.5723   -0.3536    0.5690 C   0  0  0  0  0  0  0  0  0  0  0  0
   -6.7326   -0.4443    1.8408 C   0  0  0  0  0  0  0  0  0  0  0  0
   -5.5404   -1.3712    1.6440 C   0  0  0  0  0  0  0  0  0  0  0  0
   -8.2104   -1.6231    0.3344 O   0  0  0  0  0  0  0  0  0  0  0  0
   -9.5797   -1.3075    0.0834 C   0  0  0  0  0  0  0  0  0  0  0  0
   -9.8033   -0.0680    0.9032 C   0  0  0  0  0  0  0  0  0  0  0  0
   -8.5848    0.6564    0.7389 O   0  0  0  0  0  0  0  0  0  0  0  0
   -1.3019   -1.2261   -1.4315 C   0  0  0  0  0  0  0  0  0  0  0  0
   -0.5462   -0.1586   -2.2135 C   0  0  0  0  0  0  0  0  0  0  0  0
    6.5044   -0.0887   -0.3327 C   0  0  0  0  0  0  0  0  0  0  0  0
    7.8208   -0.3047    0.0941 C   0  0  0  0  0  0  0  0  0  0  0  0
    8.4083   -1.5417    0.2015 O   0  0  0  0  0  0  0  0  0  0  0  0
    7.6244   -2.6749   -0.1433 C   0  0  0  0  0  0  0  0  0  0  0  0
   10.3959    2.1657    2.0060 H   0  0  0  0  0  0  0  0  0  0  0  0
   10.9146    2.2327    0.2762 H   0  0  0  0  0  0  0  0  0  0  0  0
   11.7423    1.1791    1.4285 H   0  0  0  0  0  0  0  0  0  0  0  0
    8.6865    2.9622    0.6308 H   0  0  0  0  0  0  0  0  0  0  0  0
    6.3979    3.3098   -0.1127 H   0  0  0  0  0  0  0  0  0  0  0  0
    4.4431    2.4323   -1.2837 H   0  0  0  0  0  0  0  0  0  0  0  0
    4.3375    0.7408   -1.7010 H   0  0  0  0  0  0  0  0  0  0  0  0
    3.7464    1.9280    1.0853 H   0  0  0  0  0  0  0  0  0  0  0  0
    3.6427    0.2066    0.6871 H   0  0  0  0  0  0  0  0  0  0  0  0
    1.7685    2.3343   -0.0247 H   0  0  0  0  0  0  0  0  0  0  0  0
    0.1766    1.8149   -1.8070 H   0  0  0  0  0  0  0  0  0  0  0  0
   -0.6609    2.1094    0.3475 H   0  0  0  0  0  0  0  0  0  0  0  0
   -0.4181    0.4358    0.8163 H   0  0  0  0  0  0  0  0  0  0  0  0
   -2.6355    1.4565   -1.0341 H   0  0  0  0  0  0  0  0  0  0  0  0
   -2.8192    1.0002    0.6455 H   0  0  0  0  0  0  0  0  0  0  0  0
   -5.8634   -1.9448   -0.9745 H   0  0  0  0  0  0  0  0  0  0  0  0
   -4.9149   -0.5900   -1.6120 H   0  0  0  0  0  0  0  0  0  0  0  0
   -7.3057   -0.0122   -1.5531 H   0  0  0  0  0  0  0  0  0  0  0  0
   -6.3569    1.0566   -0.5287 H   0  0  0  0  0  0  0  0  0  0  0  0
   -6.3870    0.5573    2.1282 H   0  0  0  0  0  0  0  0  0  0  0  0
   -7.3435   -0.8146    2.6730 H   0  0  0  0  0  0  0  0  0  0  0  0
   -4.9424   -1.3542    2.5615 H   0  0  0  0  0  0  0  0  0  0  0  0
   -5.8682   -2.4029    1.4700 H   0  0  0  0  0  0  0  0  0  0  0  0
   -9.6926   -1.1096   -0.9879 H   0  0  0  0  0  0  0  0  0  0  0  0
  -10.2277   -2.1400    0.3686 H   0  0  0  0  0  0  0  0  0  0  0  0
  -10.6561    0.5276    0.5677 H   0  0  0  0  0  0  0  0  0  0  0  0
   -9.9200   -0.3027    1.9668 H   0  0  0  0  0  0  0  0  0  0  0  0
   -0.6355   -1.7283   -0.7209 H   0  0  0  0  0  0  0  0  0  0  0  0
   -1.6846   -1.9743   -2.1344 H   0  0  0  0  0  0  0  0  0  0  0  0
    0.2055   -0.6263   -2.8593 H   0  0  0  0  0  0  0  0  0  0  0  0
   -1.2456    0.3596   -2.8831 H   0  0  0  0  0  0  0  0  0  0  0  0
    5.8610   -0.9192   -0.6090 H   0  0  0  0  0  0  0  0  0  0  0  0
    8.2447   -3.5653   -0.0022 H   0  0  0  0  0  0  0  0  0  0  0  0
    7.3245   -2.6436   -1.1960 H   0  0  0  0  0  0  0  0  0  0  0  0
    6.7544   -2.7694    0.5151 H   0  0  0  0  0  0  0  0  0  0  0  0
  1  2  1  0
  2  3  1  0
  3  4  2  0
  4  5  1  0
  5  6  2  0
  6  7  1  0
  7  8  1  0
  8  9  1  0
  9 10  1  0
 10 11  2  0
 10 12  1  0
 12 13  1  0
 13 14  1  0
 14 15  1  0
 15 16  1  0
 16 17  2  0
 16 18  2  0
 16 19  1  0
 19 20  1  0
 20 21  1  0
 21 22  1  0
 22 23  1  0
 23 24  1  0
 22 25  1  0
 25 26  1  0
 26 27  1  0
 27 28  1  0
 15 29  1  0
 29 30  1  0
  6 31  1  0
 31 32  2  0
 32 33  1  0
 33 34  1  0
 32  3  1  0
 30 12  1  0
 24 19  1  0
 28 22  1  0
  1 35  1  0
  1 36  1  0
  1 37  1  0
  4 38  1  0
  5 39  1  0
  7 40  1  0
  7 41  1  0
  8 42  1  0
  8 43  1  0
  9 44  1  0
 12 45  1  0
 13 46  1  0
 13 47  1  0
 14 48  1  0
 14 49  1  0
 20 50  1  0
 20 51  1  0
 21 52  1  0
 21 53  1  0
 23 54  1  0
 23 55  1  0
 24 56  1  0
 24 57  1  0
 26 58  1  0
 26 59  1  0
 27 60  1  0
 27 61  1  0
 29 62  1  0
 29 63  1  0
 30 64  1  0
 30 65  1  0
 31 66  1  0
 34 67  1  0
 34 68  1  0
 34 69  1  0
M  END
$$$$
