
     RDKit          3D

 38 41  0  0  0  0  0  0  0  0999 V2000
    6.2268    1.0087   -1.4435 C   0  0  0  0  0  0  0  0  0  0  0  0
    5.2132    0.0519   -1.8274 N   0  0  0  0  0  0  0  0  0  0  0  0
    4.0146    0.0913   -1.2036 C   0  0  0  0  0  0  0  0  0  0  0  0
    3.5597    1.1046   -0.4968 N   0  0  0  0  0  0  0  0  0  0  0  0
    2.3205    0.7914   -0.0265 C   0  0  0  0  0  0  0  0  0  0  0  0
    1.5884    1.6511    0.7504 N   0  0  0  0  0  0  0  0  0  0  0  0
    0.3473    1.3046    1.2271 C   0  0  0  0  0  0  0  0  0  0  0  0
   -0.2893    2.0462    1.9685 O   0  0  0  0  0  0  0  0  0  0  0  0
   -0.1997   -0.0393    0.8172 C   0  0  0  0  0  0  0  0  0  0  0  0
    0.5433   -0.8838    0.0806 C   0  0  0  0  0  0  0  0  0  0  0  0
    1.8135   -0.4444   -0.3493 C   0  0  0  0  0  0  0  0  0  0  0  0
    2.9496   -1.2737   -1.3040 S   0  0  0  0  0  0  0  0  0  0  0  0
    0.1220   -2.1547   -0.3274 O   0  0  0  0  0  0  0  0  0  0  0  0
   -1.0296   -2.6475    0.1793 C   0  0  0  0  0  0  0  0  0  0  0  0
   -1.5203   -3.7126   -0.3611 N   0  0  0  0  0  0  0  0  0  0  0  0
   -1.6885   -1.9783    1.3580 C   0  0  0  0  0  0  0  0  0  0  0  0
   -1.0638   -2.5068    2.5825 C   0  0  0  0  0  0  0  0  0  0  0  0
   -0.5537   -2.8902    3.5518 N   0  0  0  0  0  0  0  0  0  0  0  0
   -1.5630   -0.4432    1.3043 C   0  0  0  0  0  0  0  0  0  0  0  0
   -2.6736    0.2192    0.4880 C   0  0  0  0  0  0  0  0  0  0  0  0
   -3.0002   -0.1777   -0.8190 C   0  0  0  0  0  0  0  0  0  0  0  0
   -4.0210    0.4642   -1.5257 C   0  0  0  0  0  0  0  0  0  0  0  0
   -4.7234    1.5160   -0.9444 C   0  0  0  0  0  0  0  0  0  0  0  0
   -4.4031    1.9326    0.3436 C   0  0  0  0  0  0  0  0  0  0  0  0
   -3.3855    1.2921    1.0527 C   0  0  0  0  0  0  0  0  0  0  0  0
    5.8714    2.0384   -1.5584 H   0  0  0  0  0  0  0  0  0  0  0  0
    7.1042    0.8881   -2.0865 H   0  0  0  0  0  0  0  0  0  0  0  0
    6.5429    0.8507   -0.4070 H   0  0  0  0  0  0  0  0  0  0  0  0
    5.5591   -0.8631   -2.0943 H   0  0  0  0  0  0  0  0  0  0  0  0
    1.9903    2.5449    0.9948 H   0  0  0  0  0  0  0  0  0  0  0  0
   -0.8930   -3.9979   -1.1247 H   0  0  0  0  0  0  0  0  0  0  0  0
   -2.7485   -2.2650    1.3674 H   0  0  0  0  0  0  0  0  0  0  0  0
   -1.6723   -0.0862    2.3396 H   0  0  0  0  0  0  0  0  0  0  0  0
   -2.4743   -0.9838   -1.3225 H   0  0  0  0  0  0  0  0  0  0  0  0
   -4.2660    0.1440   -2.5357 H   0  0  0  0  0  0  0  0  0  0  0  0
   -5.5145    2.0156   -1.4974 H   0  0  0  0  0  0  0  0  0  0  0  0
   -4.9400    2.7622    0.7970 H   0  0  0  0  0  0  0  0  0  0  0  0
   -3.1432    1.6524    2.0523 H   0  0  0  0  0  0  0  0  0  0  0  0
  1  2  1  0
  2  3  1  0
  3  4  2  0
  4  5  1  0
  5  6  1  0
  6  7  1  0
  7  8  2  0
  7  9  1  0
  9 10  2  0
 10 11  1  0
 11 12  1  0
 10 13  1  0
 13 14  1  0
 14 15  2  3
 14 16  1  0
 16 17  1  0
 17 18  3  0
 16 19  1  0
 19 20  1  0
 20 21  2  0
 21 22  1  0
 22 23  2  0
 23 24  1  0
 24 25  2  0
 12  3  1  0
 25 20  1  0
 11  5  2  0
 19  9  1  0
  1 26  1  0
  1 27  1  0
  1 28  1  0
  2 29  1  0
  6 30  1  0
 15 31  1  0
 16 32  1  0
 19 33  1  0
 21 34  1  0
 22 35  1  0
 23 36  1  0
 24 37  1  0
 25 38  1  0
M  END
$$$$
