
     RDKit          3D

 33 34  0  0  0  0  0  0  0  0999 V2000
    3.0431    0.3706   -2.9148 C   0  0  0  0  0  0  0  0  0  0  0  0
    2.2129   -0.8489   -2.5520 C   0  0  0  0  0  0  0  0  0  0  0  0
    2.0716   -1.0255   -1.0445 C   0  0  0  0  0  0  0  0  0  0  0  0
    2.7288   -0.3465   -0.2466 O   0  0  0  0  0  0  0  0  0  0  0  0
    1.0483   -2.0141   -0.5184 C   0  0  0  0  0  0  0  0  0  0  0  0
    1.0622   -3.2631   -1.2893 C   0  0  0  0  0  0  0  0  0  0  0  0
    1.1382   -4.2618   -1.8775 N   0  0  0  0  0  0  0  0  0  0  0  0
   -0.2814   -1.3386   -0.5315 C   0  0  0  0  0  0  0  0  0  0  0  0
   -1.2041   -1.4675   -1.4616 N   0  0  0  0  0  0  0  0  0  0  0  0
   -2.2469   -0.6438   -1.1520 N   0  0  0  0  0  0  0  0  0  0  0  0
   -1.9584   -0.0025   -0.0398 C   0  0  0  0  0  0  0  0  0  0  0  0
   -0.7247   -0.4198    0.4013 N   0  0  0  0  0  0  0  0  0  0  0  0
    0.0059    0.0589    1.5604 C   0  0  0  0  0  0  0  0  0  0  0  0
   -0.8609    0.4757    2.7445 C   0  0  0  0  0  0  0  0  0  0  0  0
   -1.4817    1.8644    2.5951 C   0  0  0  0  0  0  0  0  0  0  0  0
   -2.0819    2.1756    1.2240 C   0  0  0  0  0  0  0  0  0  0  0  0
   -2.8425    1.0049    0.6141 C   0  0  0  0  0  0  0  0  0  0  0  0
    3.1079    0.4776   -4.0020 H   0  0  0  0  0  0  0  0  0  0  0  0
    2.5982    1.2840   -2.5062 H   0  0  0  0  0  0  0  0  0  0  0  0
    4.0606    0.2865   -2.5192 H   0  0  0  0  0  0  0  0  0  0  0  0
    2.6874   -1.7441   -2.9660 H   0  0  0  0  0  0  0  0  0  0  0  0
    1.2160   -0.7412   -2.9911 H   0  0  0  0  0  0  0  0  0  0  0  0
    1.3325   -2.2720    0.5083 H   0  0  0  0  0  0  0  0  0  0  0  0
    0.6504   -0.7587    1.8969 H   0  0  0  0  0  0  0  0  0  0  0  0
    0.6470    0.8808    1.2236 H   0  0  0  0  0  0  0  0  0  0  0  0
   -1.6482   -0.2689    2.9170 H   0  0  0  0  0  0  0  0  0  0  0  0
   -0.2437    0.4824    3.6516 H   0  0  0  0  0  0  0  0  0  0  0  0
   -2.2591    1.9744    3.3617 H   0  0  0  0  0  0  0  0  0  0  0  0
   -0.7255    2.6267    2.8207 H   0  0  0  0  0  0  0  0  0  0  0  0
   -2.7657    3.0255    1.3424 H   0  0  0  0  0  0  0  0  0  0  0  0
   -1.2914    2.5135    0.5416 H   0  0  0  0  0  0  0  0  0  0  0  0
   -3.5195    1.4009   -0.1535 H   0  0  0  0  0  0  0  0  0  0  0  0
   -3.4753    0.5148    1.3628 H   0  0  0  0  0  0  0  0  0  0  0  0
  1  2  1  0
  2  3  1  0
  3  4  2  0
  3  5  1  0
  5  6  1  0
  6  7  3  0
  5  8  1  0
  8  9  2  0
  9 10  1  0
 10 11  2  0
 11 12  1  0
 12 13  1  0
 13 14  1  0
 14 15  1  0
 15 16  1  0
 16 17  1  0
 12  8  1  0
 17 11  1  0
  1 18  1  0
  1 19  1  0
  1 20  1  0
  2 21  1  0
  2 22  1  0
  5 23  1  0
 13 24  1  0
 13 25  1  0
 14 26  1  0
 14 27  1  0
 15 28  1  0
 15 29  1  0
 16 30  1  0
 16 31  1  0
 17 32  1  0
 17 33  1  0
M  END
$$$$
