
     RDKit          3D

 33 36  0  0  0  0  0  0  0  0999 V2000
    2.1809   -2.5825    0.7029 O   0  0  0  0  0  0  0  0  0  0  0  0
    1.9942   -1.4124    0.4095 C   0  0  0  0  0  0  0  0  0  0  0  0
    0.6027   -0.9076    0.1014 C   0  0  0  0  0  0  0  0  0  0  0  0
   -0.3861   -1.4247    0.7726 N   0  0  0  0  0  0  0  0  0  0  0  0
   -1.6985   -1.0054    0.5132 C   0  0  0  0  0  0  0  0  0  0  0  0
   -2.4324   -1.6604   -0.5329 C   0  0  0  0  0  0  0  0  0  0  0  0
   -3.7559   -1.3392   -0.9022 C   0  0  0  0  0  0  0  0  0  0  0  0
   -4.2494   -0.3162   -0.1058 C   0  0  0  0  0  0  0  0  0  0  0  0
   -5.4970    0.2320   -0.1974 C   0  0  0  0  0  0  0  0  0  0  0  0
   -5.5269    1.1835    0.7816 N   0  0  0  0  0  0  0  0  0  0  0  0
   -4.3862    1.2899    1.4915 N   0  0  0  0  0  0  0  0  0  0  0  0
   -3.5677    0.3618    0.9674 C   0  0  0  0  0  0  0  0  0  0  0  0
   -2.2521    0.0186    1.3139 C   0  0  0  0  0  0  0  0  0  0  0  0
    0.5396    0.1600   -0.9511 C   0  0  0  0  0  0  0  0  0  0  0  0
    0.7146   -0.6242   -2.5438 Cl  0  0  0  0  0  0  0  0  0  0  0  0
    1.6173    1.2061   -0.8282 C   0  0  0  0  0  0  0  0  0  0  0  0
    1.4736    2.3472   -1.2626 O   0  0  0  0  0  0  0  0  0  0  0  0
    2.9085    0.8232   -0.2064 C   0  0  0  0  0  0  0  0  0  0  0  0
    3.9681    1.7413   -0.2154 C   0  0  0  0  0  0  0  0  0  0  0  0
    5.2057    1.3915    0.3282 C   0  0  0  0  0  0  0  0  0  0  0  0
    5.3935    0.1251    0.8794 C   0  0  0  0  0  0  0  0  0  0  0  0
    4.3421   -0.7916    0.8945 C   0  0  0  0  0  0  0  0  0  0  0  0
    3.0968   -0.4389    0.3576 C   0  0  0  0  0  0  0  0  0  0  0  0
   -1.9329   -2.4654   -1.0747 H   0  0  0  0  0  0  0  0  0  0  0  0
   -4.2919   -1.8420   -1.6944 H   0  0  0  0  0  0  0  0  0  0  0  0
   -6.3461    0.0467   -0.8388 H   0  0  0  0  0  0  0  0  0  0  0  0
   -6.2945    1.8013    1.0232 H   0  0  0  0  0  0  0  0  0  0  0  0
   -1.7189    0.4954    2.1228 H   0  0  0  0  0  0  0  0  0  0  0  0
   -0.4231    0.6760   -0.9344 H   0  0  0  0  0  0  0  0  0  0  0  0
    3.8402    2.7306   -0.6536 H   0  0  0  0  0  0  0  0  0  0  0  0
    6.0259    2.1066    0.3157 H   0  0  0  0  0  0  0  0  0  0  0  0
    6.3596   -0.1486    1.2990 H   0  0  0  0  0  0  0  0  0  0  0  0
    4.4962   -1.7777    1.3315 H   0  0  0  0  0  0  0  0  0  0  0  0
  1  2  2  0
  2  3  1  0
  3  4  2  3
  4  5  1  0
  5  6  1  0
  6  7  2  0
  7  8  1  0
  8  9  2  0
  9 10  1  0
 10 11  1  0
 11 12  2  0
 12 13  1  0
  3 14  1  0
 14 15  1  0
 14 16  1  0
 16 17  2  0
 16 18  1  0
 18 19  2  0
 19 20  1  0
 20 21  2  0
 21 22  1  0
 22 23  2  0
 23  2  1  0
 13  5  2  0
 23 18  1  0
 12  8  1  0
  6 24  1  0
  7 25  1  0
  9 26  1  0
 10 27  1  0
 13 28  1  0
 14 29  1  0
 19 30  1  0
 20 31  1  0
 21 32  1  0
 22 33  1  0
M  END
$$$$
