
     RDKit          3D

 40 41  0  0  0  0  0  0  0  0999 V2000
    2.2087    0.4177    3.8031 O   0  0  0  0  0  0  0  0  0  0  0  0
    2.1588    1.0560    2.7647 C   0  0  0  0  0  0  0  0  0  0  0  0
    2.6842    2.2929    2.6927 O   0  0  0  0  0  0  0  0  0  0  0  0
    1.6211    0.5620    1.4571 C   0  0  0  0  0  0  0  0  0  0  0  0
    0.5245    1.4731    0.9015 C   0  0  0  0  0  0  0  0  0  0  0  0
   -0.7113    1.5536    1.7275 N   0  0  0  0  0  0  0  0  0  0  0  0
   -1.2963    0.2536    2.0775 C   0  0  0  0  0  0  0  0  0  0  0  0
   -2.6816    0.4304    2.5954 C   0  0  0  0  0  0  0  0  0  0  0  0
   -3.8975    0.6491    1.9790 C   0  0  0  0  0  0  0  0  0  0  0  0
   -4.8606    0.7284    3.0132 C   0  0  0  0  0  0  0  0  0  0  0  0
   -4.1735    0.5511    4.1909 C   0  0  0  0  0  0  0  0  0  0  0  0
   -2.8508    0.3660    3.9477 O   0  0  0  0  0  0  0  0  0  0  0  0
    0.1762    1.1053   -0.5545 C   0  0  0  0  0  0  0  0  0  0  0  0
   -0.9641    0.9624   -0.9806 O   0  0  0  0  0  0  0  0  0  0  0  0
    1.3012    1.0067   -1.3155 O   0  0  0  0  0  0  0  0  0  0  0  0
    1.0927    0.7138   -2.7067 C   0  0  0  0  0  0  0  0  0  0  0  0
    0.8168   -0.7693   -2.9484 C   0  0  0  0  0  0  0  0  0  0  0  0
    1.8776   -1.6932   -2.3701 C   0  0  0  0  0  0  0  0  0  0  0  0
    1.7133   -2.9163   -3.2372 C   0  0  0  0  0  0  0  0  0  0  0  0
    1.4249   -2.3067   -4.5931 C   0  0  0  0  0  0  0  0  0  0  0  0
    0.7723   -1.0491   -4.3594 O   0  0  0  0  0  0  0  0  0  0  0  0
    2.9806    2.4751    3.6100 H   0  0  0  0  0  0  0  0  0  0  0  0
    2.4760    0.4933    0.7737 H   0  0  0  0  0  0  0  0  0  0  0  0
    1.2644   -0.4665    1.5831 H   0  0  0  0  0  0  0  0  0  0  0  0
    0.9026    2.5022    0.8459 H   0  0  0  0  0  0  0  0  0  0  0  0
   -1.4100    2.0717    1.1875 H   0  0  0  0  0  0  0  0  0  0  0  0
   -1.3381   -0.4171    1.2120 H   0  0  0  0  0  0  0  0  0  0  0  0
   -0.6875   -0.2352    2.8461 H   0  0  0  0  0  0  0  0  0  0  0  0
   -4.0611    0.7412    0.9140 H   0  0  0  0  0  0  0  0  0  0  0  0
   -5.9237    0.8952    2.9144 H   0  0  0  0  0  0  0  0  0  0  0  0
   -4.4629    0.5302    5.2322 H   0  0  0  0  0  0  0  0  0  0  0  0
    2.0029    1.0142   -3.2392 H   0  0  0  0  0  0  0  0  0  0  0  0
    0.2925    1.3385   -3.1234 H   0  0  0  0  0  0  0  0  0  0  0  0
   -0.1607   -1.0424   -2.5329 H   0  0  0  0  0  0  0  0  0  0  0  0
    1.7339   -1.8948   -1.3049 H   0  0  0  0  0  0  0  0  0  0  0  0
    2.8814   -1.2742   -2.5105 H   0  0  0  0  0  0  0  0  0  0  0  0
    2.5867   -3.5735   -3.2420 H   0  0  0  0  0  0  0  0  0  0  0  0
    0.8485   -3.4988   -2.8978 H   0  0  0  0  0  0  0  0  0  0  0  0
    0.7867   -2.9435   -5.2122 H   0  0  0  0  0  0  0  0  0  0  0  0
    2.3512   -2.1028   -5.1406 H   0  0  0  0  0  0  0  0  0  0  0  0
  1  2  2  0
  2  3  1  0
  2  4  1  0
  4  5  1  0
  5  6  1  0
  6  7  1  0
  7  8  1  0
  8  9  2  0
  9 10  1  0
 10 11  2  0
 11 12  1  0
  5 13  1  0
 13 14  2  0
 13 15  1  0
 15 16  1  0
 16 17  1  0
 17 18  1  0
 18 19  1  0
 19 20  1  0
 20 21  1  0
 12  8  1  0
 21 17  1  0
  3 22  1  0
  4 23  1  0
  4 24  1  0
  5 25  1  0
  6 26  1  0
  7 27  1  0
  7 28  1  0
  9 29  1  0
 10 30  1  0
 11 31  1  0
 16 32  1  0
 16 33  1  0
 17 34  1  0
 18 35  1  0
 18 36  1  0
 19 37  1  0
 19 38  1  0
 20 39  1  0
 20 40  1  0
M  END
$$$$
