
     RDKit          3D

 46 48  0  0  0  0  0  0  0  0999 V2000
    7.1800    3.1479    0.1131 C   0  0  0  0  0  0  0  0  0  0  0  0
    5.8294    2.6580   -0.3105 C   0  0  0  0  0  0  0  0  0  0  0  0
    4.8256    3.3540   -0.3649 O   0  0  0  0  0  0  0  0  0  0  0  0
    5.8894    1.3325   -0.6180 O   0  0  0  0  0  0  0  0  0  0  0  0
    4.6525    0.7381   -1.0410 C   0  0  0  0  0  0  0  0  0  0  0  0
    3.8648    0.2532    0.1706 C   0  0  0  0  0  0  0  0  0  0  0  0
    2.5402   -0.3785   -0.2481 C   0  0  0  0  0  0  0  0  0  0  0  0
    1.8371   -0.8682    0.9370 N   0  0  0  0  0  0  0  0  0  0  0  0
    0.6077   -1.5459    0.8316 C   0  0  0  0  0  0  0  0  0  0  0  0
   -0.2074   -1.4142   -0.3321 C   0  0  0  0  0  0  0  0  0  0  0  0
   -1.4889   -1.9997   -0.4920 C   0  0  0  0  0  0  0  0  0  0  0  0
   -2.4480   -1.8104   -1.9616 S   0  0  0  0  0  0  0  0  0  0  0  0
   -3.6183   -0.5817   -1.4131 C   0  0  0  0  0  0  0  0  0  0  0  0
   -3.2631    0.7693   -1.3697 C   0  0  0  0  0  0  0  0  0  0  0  0
   -4.1819    1.7250   -0.9274 C   0  0  0  0  0  0  0  0  0  0  0  0
   -5.4710    1.3429   -0.5377 C   0  0  0  0  0  0  0  0  0  0  0  0
   -6.4460    2.3627   -0.0274 C   0  0  0  0  0  0  0  0  0  0  0  0
   -5.8209   -0.0118   -0.5781 C   0  0  0  0  0  0  0  0  0  0  0  0
   -4.9029   -0.9671   -1.0213 C   0  0  0  0  0  0  0  0  0  0  0  0
   -1.9574   -2.7587    0.6044 C   0  0  0  0  0  0  0  0  0  0  0  0
   -3.0912   -3.4563    0.7642 N   0  0  0  0  0  0  0  0  0  0  0  0
   -3.0347   -4.0003    2.0310 O   0  0  0  0  0  0  0  0  0  0  0  0
   -1.8614   -3.6653    2.6768 N   0  0  0  0  0  0  0  0  0  0  0  0
   -1.1748   -2.8873    1.8279 C   0  0  0  0  0  0  0  0  0  0  0  0
    0.0792   -2.2584    1.9408 C   0  0  0  0  0  0  0  0  0  0  0  0
    0.7904   -2.3988    3.1801 N   0  0  0  0  0  4  0  0  0  0  0  0
    0.2051   -2.0823    4.2235 O   0  0  0  0  0  0  0  0  0  0  0  0
    1.9651   -2.7928    3.1075 O   0  0  0  0  0  1  0  0  0  0  0  0
    7.8954    3.0137   -0.7026 H   0  0  0  0  0  0  0  0  0  0  0  0
    7.5064    2.6075    1.0056 H   0  0  0  0  0  0  0  0  0  0  0  0
    7.1206    4.2139    0.3523 H   0  0  0  0  0  0  0  0  0  0  0  0
    4.0706    1.4344   -1.6565 H   0  0  0  0  0  0  0  0  0  0  0  0
    4.9134   -0.1109   -1.6822 H   0  0  0  0  0  0  0  0  0  0  0  0
    3.6810    1.0861    0.8602 H   0  0  0  0  0  0  0  0  0  0  0  0
    4.4739   -0.4639    0.7354 H   0  0  0  0  0  0  0  0  0  0  0  0
    2.7273   -1.2081   -0.9400 H   0  0  0  0  0  0  0  0  0  0  0  0
    1.9386    0.3803   -0.7611 H   0  0  0  0  0  0  0  0  0  0  0  0
    2.4748   -1.3248    1.6000 H   0  0  0  0  0  0  0  0  0  0  0  0
    0.1561   -0.8217   -1.1713 H   0  0  0  0  0  0  0  0  0  0  0  0
   -2.2719    1.0910   -1.6782 H   0  0  0  0  0  0  0  0  0  0  0  0
   -3.8851    2.7711   -0.8910 H   0  0  0  0  0  0  0  0  0  0  0  0
   -6.3558    2.4547    1.0598 H   0  0  0  0  0  0  0  0  0  0  0  0
   -6.2620    3.3425   -0.4823 H   0  0  0  0  0  0  0  0  0  0  0  0
   -7.4740    2.0777   -0.2765 H   0  0  0  0  0  0  0  0  0  0  0  0
   -6.8114   -0.3346   -0.2640 H   0  0  0  0  0  0  0  0  0  0  0  0
   -5.1966   -2.0148   -1.0468 H   0  0  0  0  0  0  0  0  0  0  0  0
  1  2  1  0
  2  3  2  0
  2  4  1  0
  4  5  1  0
  5  6  1  0
  6  7  1  0
  7  8  1  0
  8  9  1  0
  9 10  1  0
 10 11  2  0
 11 12  1  0
 12 13  1  0
 13 14  2  0
 14 15  1  0
 15 16  2  0
 16 17  1  0
 16 18  1  0
 18 19  2  0
 11 20  1  0
 20 21  2  0
 21 22  1  0
 22 23  1  0
 23 24  2  0
 24 25  1  0
 25 26  1  0
 26 27  2  0
 26 28  1  0
 25  9  2  0
 19 13  1  0
 24 20  1  0
  1 29  1  0
  1 30  1  0
  1 31  1  0
  5 32  1  0
  5 33  1  0
  6 34  1  0
  6 35  1  0
  7 36  1  0
  7 37  1  0
  8 38  1  0
 10 39  1  0
 14 40  1  0
 15 41  1  0
 17 42  1  0
 17 43  1  0
 17 44  1  0
 18 45  1  0
 19 46  1  0
M  CHG  2  26   1  28  -1
M  END
$$$$
