
     RDKit          3D

 56 59  0  0  0  0  0  0  0  0999 V2000
   -5.4332   -0.5892    1.6480 C   0  0  0  0  0  0  0  0  0  0  0  0
   -4.7502   -0.5485    0.2921 C   0  0  0  0  0  0  0  0  0  0  0  0
   -3.3227   -0.8441    0.4591 N   0  0  0  0  0  0  0  0  0  0  0  0
   -2.4358   -0.6793   -0.6114 C   0  0  0  0  0  0  0  0  0  0  0  0
   -1.8464   -1.6688   -1.3072 C   0  0  0  0  0  0  0  0  0  0  0  0
   -2.1350   -3.0315   -0.9336 N   0  0  0  0  0  0  0  0  0  0  0  0
   -1.3366   -3.5843    0.4674 S   0  0  0  0  0  6  0  0  0  0  0  0
   -2.1965   -3.2705    1.5899 O   0  0  0  0  0  0  0  0  0  0  0  0
   -0.9372   -4.9468    0.1865 O   0  0  0  0  0  0  0  0  0  0  0  0
    0.1409   -2.6064    0.5916 C   0  0  0  0  0  0  0  0  0  0  0  0
    1.2398   -2.9189   -0.2078 C   0  0  0  0  0  0  0  0  0  0  0  0
    2.3599   -2.0867   -0.1828 C   0  0  0  0  0  0  0  0  0  0  0  0
    2.4068   -0.9498    0.6472 C   0  0  0  0  0  0  0  0  0  0  0  0
    3.6315   -0.0440    0.5765 C   0  0  0  0  0  0  0  0  0  0  0  0
    3.3767    1.1963   -0.2980 C   0  0  0  0  0  0  0  0  0  0  0  0
    2.7485    2.3668    0.4528 C   0  0  0  0  0  0  0  0  0  0  0  0
    3.5633    2.7304    1.6867 C   0  0  0  0  0  0  0  0  0  0  0  0
    3.7166    1.5461    2.6318 C   0  0  0  0  0  0  0  0  0  0  0  0
    4.2709    0.3044    1.9347 C   0  0  0  0  0  0  0  0  0  0  0  0
    1.3035   -0.6827    1.4691 C   0  0  0  0  0  0  0  0  0  0  0  0
    0.1791   -1.5111    1.4545 C   0  0  0  0  0  0  0  0  0  0  0  0
   -0.9760   -1.4615   -2.4874 C   0  0  0  0  0  0  0  0  0  0  0  0
   -0.5237   -2.4269   -3.0996 O   0  0  0  0  0  0  0  0  0  0  0  0
   -0.7199   -0.1578   -2.8581 O   0  0  0  0  0  0  0  0  0  0  0  0
   -1.1925    0.9071   -2.0709 C   0  0  0  0  0  0  0  0  0  0  0  0
   -0.7569    2.1810   -2.4436 C   0  0  0  0  0  0  0  0  0  0  0  0
   -1.1392    3.2834   -1.6856 C   0  0  0  0  0  0  0  0  0  0  0  0
   -1.9445    3.1030   -0.5632 C   0  0  0  0  0  0  0  0  0  0  0  0
   -2.3755    1.8205   -0.2043 C   0  0  0  0  0  0  0  0  0  0  0  0
   -2.0220    0.6969   -0.9665 C   0  0  0  0  0  0  0  0  0  0  0  0
   -6.4981   -0.3580    1.5483 H   0  0  0  0  0  0  0  0  0  0  0  0
   -4.9853    0.1386    2.3318 H   0  0  0  0  0  0  0  0  0  0  0  0
   -5.3378   -1.5793    2.1067 H   0  0  0  0  0  0  0  0  0  0  0  0
   -5.2015   -1.2924   -0.3745 H   0  0  0  0  0  0  0  0  0  0  0  0
   -4.8986    0.4383   -0.1585 H   0  0  0  0  0  0  0  0  0  0  0  0
   -3.2517   -1.8041    0.8264 H   0  0  0  0  0  0  0  0  0  0  0  0
   -1.8744   -3.6829   -1.6857 H   0  0  0  0  0  0  0  0  0  0  0  0
    1.2231   -3.7796   -0.8734 H   0  0  0  0  0  0  0  0  0  0  0  0
    3.1983   -2.3250   -0.8360 H   0  0  0  0  0  0  0  0  0  0  0  0
    4.3982   -0.6321    0.0503 H   0  0  0  0  0  0  0  0  0  0  0  0
    2.7573    0.9431   -1.1671 H   0  0  0  0  0  0  0  0  0  0  0  0
    4.3419    1.5354   -0.6979 H   0  0  0  0  0  0  0  0  0  0  0  0
    2.6935    3.2356   -0.2133 H   0  0  0  0  0  0  0  0  0  0  0  0
    1.7183    2.1291    0.7391 H   0  0  0  0  0  0  0  0  0  0  0  0
    3.0833    3.5626    2.2145 H   0  0  0  0  0  0  0  0  0  0  0  0
    4.5570    3.0805    1.3789 H   0  0  0  0  0  0  0  0  0  0  0  0
    4.3886    1.8246    3.4527 H   0  0  0  0  0  0  0  0  0  0  0  0
    2.7534    1.3241    3.1005 H   0  0  0  0  0  0  0  0  0  0  0  0
    4.2249   -0.5532    2.6170 H   0  0  0  0  0  0  0  0  0  0  0  0
    5.3394    0.4895    1.7552 H   0  0  0  0  0  0  0  0  0  0  0  0
    1.2806    0.1865    2.1169 H   0  0  0  0  0  0  0  0  0  0  0  0
   -0.6732   -1.2662    2.0861 H   0  0  0  0  0  0  0  0  0  0  0  0
   -0.1143    2.3097   -3.3099 H   0  0  0  0  0  0  0  0  0  0  0  0
   -0.8027    4.2796   -1.9612 H   0  0  0  0  0  0  0  0  0  0  0  0
   -2.2334    3.9593    0.0423 H   0  0  0  0  0  0  0  0  0  0  0  0
   -2.9806    1.7090    0.6928 H   0  0  0  0  0  0  0  0  0  0  0  0
  1  2  1  0
  2  3  1  0
  3  4  1  0
  4  5  2  0
  5  6  1  0
  6  7  1  0
  7  8  2  0
  7  9  2  0
  7 10  1  0
 10 11  2  0
 11 12  1  0
 12 13  2  0
 13 14  1  0
 14 15  1  0
 15 16  1  0
 16 17  1  0
 17 18  1  0
 18 19  1  0
 13 20  1  0
 20 21  2  0
  5 22  1  0
 22 23  2  0
 22 24  1  0
 24 25  1  0
 25 26  2  0
 26 27  1  0
 27 28  2  0
 28 29  1  0
 29 30  2  0
 30  4  1  0
 21 10  1  0
 30 25  1  0
 19 14  1  0
  1 31  1  0
  1 32  1  0
  1 33  1  0
  2 34  1  0
  2 35  1  0
  3 36  1  0
  6 37  1  0
 11 38  1  0
 12 39  1  0
 14 40  1  0
 15 41  1  0
 15 42  1  0
 16 43  1  0
 16 44  1  0
 17 45  1  0
 17 46  1  0
 18 47  1  0
 18 48  1  0
 19 49  1  0
 19 50  1  0
 20 51  1  0
 21 52  1  0
 26 53  1  0
 27 54  1  0
 28 55  1  0
 29 56  1  0
M  END
$$$$
