
     RDKit          3D

 61 66  0  0  0  0  0  0  0  0999 V2000
   -2.5398    1.8720   -1.4769 O   0  0  0  0  0  0  0  0  0  0  0  0
   -2.9226    1.2698   -0.4703 C   0  0  0  0  0  0  0  0  0  0  0  0
   -2.1909    1.4518    0.8473 C   0  0  0  0  0  0  0  0  0  0  0  0
   -0.8144    1.8412    0.6287 N   0  0  0  0  0  0  0  0  0  0  0  0
   -0.4091    3.1116    0.8017 N   0  0  0  0  0  0  0  0  0  0  0  0
    0.9095    3.0617    0.6861 N   0  0  0  0  0  0  0  0  0  0  0  0
    1.2478    1.7391    0.4998 C   0  0  0  0  0  0  0  0  0  0  0  0
    2.6255    1.2903    0.3511 C   0  0  0  0  0  0  0  0  0  0  0  0
    2.9311   -0.0637    0.1902 C   0  0  0  0  0  0  0  0  0  0  0  0
    4.2619   -0.4829    0.0577 C   0  0  0  0  0  0  0  0  0  0  0  0
    5.3342    0.4245    0.0894 C   0  0  0  0  0  0  0  0  0  0  0  0
    6.6484   -0.0511   -0.0487 N   0  0  0  0  0  0  0  0  0  0  0  0
    7.7199    0.9317   -0.3219 C   0  0  0  0  0  0  0  0  0  0  0  0
    9.0336    0.2006   -0.6399 C   0  0  0  0  0  0  0  0  0  0  0  0
    9.4184   -0.6740    0.4330 O   0  0  0  0  0  0  0  0  0  0  0  0
    8.3975   -1.6608    0.6483 C   0  0  0  0  0  0  0  0  0  0  0  0
    7.0478   -1.0164    1.0064 C   0  0  0  0  0  0  0  0  0  0  0  0
    5.0095    1.7809    0.2270 C   0  0  0  0  0  0  0  0  0  0  0  0
    3.6799    2.2093    0.3617 C   0  0  0  0  0  0  0  0  0  0  0  0
    0.1729    0.9285    0.5093 N   0  0  0  0  0  0  0  0  0  0  0  0
   -3.9917    0.3429   -0.4595 N   0  0  0  0  0  0  0  0  0  0  0  0
   -4.5882   -0.0894    0.7613 C   0  0  0  0  0  0  0  0  0  0  0  0
   -5.1099    0.8524    1.6608 C   0  0  0  0  0  0  0  0  0  0  0  0
   -5.6449    0.4407    2.8817 C   0  0  0  0  0  0  0  0  0  0  0  0
   -5.6624   -0.9119    3.2119 C   0  0  0  0  0  0  0  0  0  0  0  0
   -5.1583   -1.8559    2.3176 C   0  0  0  0  0  0  0  0  0  0  0  0
   -4.6229   -1.4502    1.0878 C   0  0  0  0  0  0  0  0  0  0  0  0
   -4.1129   -2.4531    0.0961 C   0  0  0  0  0  0  0  0  0  0  0  0
   -5.0707   -2.5219   -1.0852 C   0  0  0  0  0  0  0  0  0  0  0  0
   -5.2745   -1.2684   -1.9154 C   0  0  0  0  0  0  0  0  0  0  0  0
   -6.0459   -1.4647   -3.0868 C   0  0  0  0  0  0  0  0  0  0  0  0
   -6.2714   -0.4369   -3.9973 C   0  0  0  0  0  0  0  0  0  0  0  0
   -5.7318    0.8144   -3.7546 C   0  0  0  0  0  0  0  0  0  0  0  0
   -4.9790    1.0336   -2.5984 C   0  0  0  0  0  0  0  0  0  0  0  0
   -4.7371    0.0150   -1.6518 C   0  0  0  0  0  0  0  0  0  0  0  0
   -2.6716    2.2438    1.4287 H   0  0  0  0  0  0  0  0  0  0  0  0
   -2.1583    0.5283    1.4320 H   0  0  0  0  0  0  0  0  0  0  0  0
    2.1380   -0.8079    0.1570 H   0  0  0  0  0  0  0  0  0  0  0  0
    4.4522   -1.5415   -0.1017 H   0  0  0  0  0  0  0  0  0  0  0  0
    7.4574    1.5638   -1.1780 H   0  0  0  0  0  0  0  0  0  0  0  0
    7.8733    1.5657    0.5606 H   0  0  0  0  0  0  0  0  0  0  0  0
    9.8388    0.9291   -0.7771 H   0  0  0  0  0  0  0  0  0  0  0  0
    8.9483   -0.3832   -1.5642 H   0  0  0  0  0  0  0  0  0  0  0  0
    8.3097   -2.2827   -0.2505 H   0  0  0  0  0  0  0  0  0  0  0  0
    8.7284   -2.3056    1.4685 H   0  0  0  0  0  0  0  0  0  0  0  0
    7.1421   -0.4819    1.9608 H   0  0  0  0  0  0  0  0  0  0  0  0
    6.3130   -1.8180    1.1345 H   0  0  0  0  0  0  0  0  0  0  0  0
    5.7812    2.5443    0.2514 H   0  0  0  0  0  0  0  0  0  0  0  0
    3.4830    3.2740    0.4753 H   0  0  0  0  0  0  0  0  0  0  0  0
   -5.1334    1.9094    1.4071 H   0  0  0  0  0  0  0  0  0  0  0  0
   -6.0563    1.1735    3.5717 H   0  0  0  0  0  0  0  0  0  0  0  0
   -6.0827   -1.2339    4.1621 H   0  0  0  0  0  0  0  0  0  0  0  0
   -5.1930   -2.9101    2.5832 H   0  0  0  0  0  0  0  0  0  0  0  0
   -4.0377   -3.4438    0.5613 H   0  0  0  0  0  0  0  0  0  0  0  0
   -3.0970   -2.1896   -0.2236 H   0  0  0  0  0  0  0  0  0  0  0  0
   -4.6985   -3.3088   -1.7551 H   0  0  0  0  0  0  0  0  0  0  0  0
   -6.0574   -2.8479   -0.7274 H   0  0  0  0  0  0  0  0  0  0  0  0
   -6.4673   -2.4465   -3.3009 H   0  0  0  0  0  0  0  0  0  0  0  0
   -6.8604   -0.6162   -4.8927 H   0  0  0  0  0  0  0  0  0  0  0  0
   -5.8966    1.6294   -4.4552 H   0  0  0  0  0  0  0  0  0  0  0  0
   -4.6147    2.0458   -2.4386 H   0  0  0  0  0  0  0  0  0  0  0  0
  1  2  2  0
  2  3  1  0
  3  4  1  0
  4  5  1  0
  5  6  2  0
  6  7  1  0
  7  8  1  0
  8  9  2  0
  9 10  1  0
 10 11  2  0
 11 12  1  0
 12 13  1  0
 13 14  1  0
 14 15  1  0
 15 16  1  0
 16 17  1  0
 11 18  1  0
 18 19  2  0
  7 20  2  0
  2 21  1  0
 21 22  1  0
 22 23  2  0
 23 24  1  0
 24 25  2  0
 25 26  1  0
 26 27  2  0
 27 28  1  0
 28 29  1  0
 29 30  1  0
 30 31  2  0
 31 32  1  0
 32 33  2  0
 33 34  1  0
 34 35  2  0
 20  4  1  0
 35 21  1  0
 19  8  1  0
 27 22  1  0
 35 30  1  0
 17 12  1  0
  3 36  1  0
  3 37  1  0
  9 38  1  0
 10 39  1  0
 13 40  1  0
 13 41  1  0
 14 42  1  0
 14 43  1  0
 16 44  1  0
 16 45  1  0
 17 46  1  0
 17 47  1  0
 18 48  1  0
 19 49  1  0
 23 50  1  0
 24 51  1  0
 25 52  1  0
 26 53  1  0
 28 54  1  0
 28 55  1  0
 29 56  1  0
 29 57  1  0
 31 58  1  0
 32 59  1  0
 33 60  1  0
 34 61  1  0
M  END
$$$$
