
     RDKit          3D

 44 46  0  0  0  0  0  0  0  0999 V2000
    5.9694    1.4698    0.1225 C   0  0  0  0  0  0  0  0  0  0  0  0
    4.7536    0.5368   -0.0287 C   0  0  0  0  0  0  0  0  0  0  0  0
    4.3661    0.0232    1.3637 C   0  0  0  0  0  0  0  0  0  0  0  0
    5.1441   -0.6357   -0.9385 C   0  0  0  0  0  0  0  0  0  0  0  0
    3.5906    1.3134   -0.6849 C   0  0  0  0  0  0  0  0  0  0  0  0
    3.7662    2.4328   -1.1782 O   0  0  0  0  0  0  0  0  0  0  0  0
    2.2209    0.6610   -0.7532 C   0  0  0  0  0  0  0  0  0  0  0  0
    1.1374    1.3857    0.5163 S   0  0  0  0  0  0  0  0  0  0  0  0
   -0.4110    0.5637    0.1348 C   0  0  0  0  0  0  0  0  0  0  0  0
   -0.3151   -0.4883   -0.7217 N   0  0  0  0  0  0  0  0  0  0  0  0
   -1.4558   -1.1300   -1.0080 C   0  0  0  0  0  0  0  0  0  0  0  0
   -2.6995   -0.7953   -0.4973 C   0  0  0  0  0  0  0  0  0  0  0  0
   -2.8083    0.2843    0.3692 C   0  0  0  0  0  0  0  0  0  0  0  0
   -4.1140    0.6610    0.9115 C   0  0  0  0  0  0  0  0  0  0  0  0
   -4.6587    0.3635    2.1447 C   0  0  0  0  0  0  0  0  0  0  0  0
   -5.9602    0.9225    2.3077 C   0  0  0  0  0  0  0  0  0  0  0  0
   -6.3627    1.6263    1.1946 C   0  0  0  0  0  0  0  0  0  0  0  0
   -5.1774    1.6114   -0.0380 S   0  0  0  0  0  0  0  0  0  0  0  0
   -1.6279    0.9785    0.7063 C   0  0  0  0  0  0  0  0  0  0  0  0
   -1.6755    2.0859    1.6168 C   0  0  0  0  0  0  0  0  0  0  0  0
   -1.7322    2.9687    2.3690 N   0  0  0  0  0  0  0  0  0  0  0  0
   -3.7577   -1.6981   -1.0509 C   0  0  0  0  0  0  0  0  0  0  0  0
   -2.9129   -2.8706   -1.5717 C   0  0  0  0  0  0  0  0  0  0  0  0
   -1.5530   -2.2838   -1.9657 C   0  0  0  0  0  0  0  0  0  0  0  0
    6.3094    1.8446   -0.8499 H   0  0  0  0  0  0  0  0  0  0  0  0
    6.8138    0.9518    0.5910 H   0  0  0  0  0  0  0  0  0  0  0  0
    5.7247    2.3405    0.7421 H   0  0  0  0  0  0  0  0  0  0  0  0
    4.0279    0.8435    2.0067 H   0  0  0  0  0  0  0  0  0  0  0  0
    3.5593   -0.7156    1.3188 H   0  0  0  0  0  0  0  0  0  0  0  0
    5.2173   -0.4593    1.8578 H   0  0  0  0  0  0  0  0  0  0  0  0
    5.3780   -0.2876   -1.9513 H   0  0  0  0  0  0  0  0  0  0  0  0
    4.3360   -1.3693   -1.0272 H   0  0  0  0  0  0  0  0  0  0  0  0
    6.0240   -1.1619   -0.5514 H   0  0  0  0  0  0  0  0  0  0  0  0
    1.8160    0.8460   -1.7541 H   0  0  0  0  0  0  0  0  0  0  0  0
    2.3065   -0.4195   -0.6190 H   0  0  0  0  0  0  0  0  0  0  0  0
   -4.1499   -0.2218    2.9016 H   0  0  0  0  0  0  0  0  0  0  0  0
   -6.5672    0.8192    3.1990 H   0  0  0  0  0  0  0  0  0  0  0  0
   -7.2948    2.1542    1.0459 H   0  0  0  0  0  0  0  0  0  0  0  0
   -4.4694   -2.0353   -0.2923 H   0  0  0  0  0  0  0  0  0  0  0  0
   -4.2877   -1.2021   -1.8707 H   0  0  0  0  0  0  0  0  0  0  0  0
   -2.7699   -3.5988   -0.7611 H   0  0  0  0  0  0  0  0  0  0  0  0
   -3.3966   -3.3996   -2.3988 H   0  0  0  0  0  0  0  0  0  0  0  0
   -1.5621   -1.9120   -2.9952 H   0  0  0  0  0  0  0  0  0  0  0  0
   -0.7414   -3.0037   -1.8323 H   0  0  0  0  0  0  0  0  0  0  0  0
  1  2  1  0
  2  3  1  0
  2  4  1  0
  2  5  1  0
  5  6  2  0
  5  7  1  0
  7  8  1  0
  8  9  1  0
  9 10  2  0
 10 11  1  0
 11 12  2  0
 12 13  1  0
 13 14  1  0
 14 15  2  0
 15 16  1  0
 16 17  2  0
 17 18  1  0
 13 19  2  0
 19 20  1  0
 20 21  3  0
 12 22  1  0
 22 23  1  0
 23 24  1  0
 19  9  1  0
 24 11  1  0
 18 14  1  0
  1 25  1  0
  1 26  1  0
  1 27  1  0
  3 28  1  0
  3 29  1  0
  3 30  1  0
  4 31  1  0
  4 32  1  0
  4 33  1  0
  7 34  1  0
  7 35  1  0
 15 36  1  0
 16 37  1  0
 17 38  1  0
 22 39  1  0
 22 40  1  0
 23 41  1  0
 23 42  1  0
 24 43  1  0
 24 44  1  0
M  END
$$$$
