
     RDKit          3D

 37 40  0  0  0  0  0  0  0  0999 V2000
   -1.6364    3.5610   -0.2367 C   0  0  0  0  0  0  0  0  0  0  0  0
   -2.4932    2.8491    0.6493 O   0  0  0  0  0  0  0  0  0  0  0  0
   -2.4213    1.4853    0.6119 C   0  0  0  0  0  0  0  0  0  0  0  0
   -3.1624    0.8300    1.5862 C   0  0  0  0  0  0  0  0  0  0  0  0
   -3.1618   -0.5650    1.6501 C   0  0  0  0  0  0  0  0  0  0  0  0
   -2.4326   -1.3384    0.7601 C   0  0  0  0  0  0  0  0  0  0  0  0
   -2.4905   -2.6730    0.8956 N   0  0  0  0  0  0  0  0  0  0  0  0
   -1.7985   -3.4522    0.0383 C   0  0  0  0  0  0  0  0  0  0  0  0
   -1.9014   -4.9364    0.2220 C   0  0  0  0  0  0  0  0  0  0  0  0
   -1.0176   -2.9268   -0.9754 C   0  0  0  0  0  0  0  0  0  0  0  0
   -0.9387   -1.5388   -1.1136 C   0  0  0  0  0  0  0  0  0  0  0  0
    0.1041   -0.9319   -2.4485 S   0  0  0  0  0  0  0  0  0  0  0  0
    1.4032   -0.2761   -1.4662 C   0  0  0  0  0  0  0  0  0  0  0  0
    1.5745    1.0224   -1.3735 N   0  0  0  0  0  0  0  0  0  0  0  0
    2.6486    1.2889   -0.5413 C   0  0  0  0  0  0  0  0  0  0  0  0
    3.1240    2.5690   -0.1914 C   0  0  0  0  0  0  0  0  0  0  0  0
    4.2231    2.6930    0.6648 C   0  0  0  0  0  0  0  0  0  0  0  0
    4.8519    1.5607    1.1731 C   0  0  0  0  0  0  0  0  0  0  0  0
    4.4013    0.2795    0.8402 C   0  0  0  0  0  0  0  0  0  0  0  0
    3.2963    0.1665   -0.0197 C   0  0  0  0  0  0  0  0  0  0  0  0
    2.5177   -1.2518   -0.6090 S   0  0  0  0  0  0  0  0  0  0  0  0
   -1.6721   -0.6965   -0.2387 C   0  0  0  0  0  0  0  0  0  0  0  0
   -1.6918    0.7247   -0.3007 C   0  0  0  0  0  0  0  0  0  0  0  0
   -1.9181    3.3858   -1.2801 H   0  0  0  0  0  0  0  0  0  0  0  0
   -0.5850    3.3091   -0.0614 H   0  0  0  0  0  0  0  0  0  0  0  0
   -1.7605    4.6292   -0.0340 H   0  0  0  0  0  0  0  0  0  0  0  0
   -3.7441    1.4024    2.3042 H   0  0  0  0  0  0  0  0  0  0  0  0
   -3.7485   -1.0613    2.4199 H   0  0  0  0  0  0  0  0  0  0  0  0
   -0.9137   -5.3616    0.4252 H   0  0  0  0  0  0  0  0  0  0  0  0
   -2.3154   -5.4012   -0.6783 H   0  0  0  0  0  0  0  0  0  0  0  0
   -2.5574   -5.1807    1.0638 H   0  0  0  0  0  0  0  0  0  0  0  0
   -0.4762   -3.5908   -1.6427 H   0  0  0  0  0  0  0  0  0  0  0  0
    2.6320    3.4505   -0.5900 H   0  0  0  0  0  0  0  0  0  0  0  0
    4.5864    3.6824    0.9333 H   0  0  0  0  0  0  0  0  0  0  0  0
    5.7057    1.6717    1.8386 H   0  0  0  0  0  0  0  0  0  0  0  0
    4.8934   -0.6030    1.2380 H   0  0  0  0  0  0  0  0  0  0  0  0
   -1.1249    1.2244   -1.0792 H   0  0  0  0  0  0  0  0  0  0  0  0
  1  2  1  0
  2  3  1  0
  3  4  2  0
  4  5  1  0
  5  6  2  0
  6  7  1  0
  7  8  2  0
  8  9  1  0
  8 10  1  0
 10 11  2  0
 11 12  1  0
 12 13  1  0
 13 14  2  0
 14 15  1  0
 15 16  2  0
 16 17  1  0
 17 18  2  0
 18 19  1  0
 19 20  2  0
 20 21  1  0
 11 22  1  0
 22 23  2  0
 23  3  1  0
 22  6  1  0
 21 13  1  0
 20 15  1  0
  1 24  1  0
  1 25  1  0
  1 26  1  0
  4 27  1  0
  5 28  1  0
  9 29  1  0
  9 30  1  0
  9 31  1  0
 10 32  1  0
 16 33  1  0
 17 34  1  0
 18 35  1  0
 19 36  1  0
 23 37  1  0
M  END
$$$$
