
     RDKit          3D

 50 52  0  0  0  0  0  0  0  0999 V2000
   -2.9957   -2.3919   -2.4490 C   0  0  0  0  0  0  0  0  0  0  0  0
   -3.8572   -1.3976   -1.9115 O   0  0  0  0  0  0  0  0  0  0  0  0
   -3.4222   -0.7083   -0.8098 C   0  0  0  0  0  0  0  0  0  0  0  0
   -2.2251   -0.9521   -0.1392 C   0  0  0  0  0  0  0  0  0  0  0  0
   -1.8759   -0.1649    0.9652 C   0  0  0  0  0  0  0  0  0  0  0  0
   -0.6088   -0.4115    1.6887 C   0  0  0  0  0  0  0  0  0  0  0  0
   -0.6708   -0.6128    2.8986 O   0  0  0  0  0  0  0  0  0  0  0  0
    0.5830   -0.4012    0.9750 N   0  0  0  0  0  0  0  0  0  0  0  0
    1.8206   -0.7366    1.6855 C   0  0  0  0  0  0  0  0  0  0  0  0
    2.9346   -1.2324    0.7444 C   0  0  0  0  0  0  0  0  0  0  0  0
    3.1829   -0.2975   -0.3813 N   0  0  0  0  0  0  0  0  0  0  0  0
    4.5195   -0.0522   -0.7217 C   0  0  0  0  0  0  0  0  0  0  0  0
    5.0262    1.2623   -0.7437 C   0  0  0  0  0  0  0  0  0  0  0  0
    6.3609    1.5325   -1.0641 C   0  0  0  0  0  0  0  0  0  0  0  0
    6.9261    3.1587   -1.0586 Cl  0  0  0  0  0  0  0  0  0  0  0  0
    7.2362    0.5032   -1.3823 C   0  0  0  0  0  0  0  0  0  0  0  0
    6.7678   -0.8068   -1.3890 C   0  0  0  0  0  0  0  0  0  0  0  0
    5.4293   -1.0836   -1.0696 C   0  0  0  0  0  0  0  0  0  0  0  0
    4.9474   -2.7441   -1.2122 Cl  0  0  0  0  0  0  0  0  0  0  0  0
    2.1594    0.7401   -0.6003 C   0  0  0  0  0  0  0  0  0  0  0  0
    0.7477    0.1659   -0.3738 C   0  0  0  0  0  0  0  0  0  0  0  0
   -2.7290    0.8371    1.4426 C   0  0  0  0  0  0  0  0  0  0  0  0
   -3.9319    1.0916    0.7865 C   0  0  0  0  0  0  0  0  0  0  0  0
   -4.8332    2.0584    1.1489 O   0  0  0  0  0  0  0  0  0  0  0  0
   -4.5245    2.8491    2.2889 C   0  0  0  0  0  0  0  0  0  0  0  0
   -4.2715    0.3091   -0.3339 C   0  0  0  0  0  0  0  0  0  0  0  0
   -5.4325    0.5888   -1.0225 O   0  0  0  0  0  0  0  0  0  0  0  0
   -6.5105   -0.1758   -0.4846 C   0  0  0  0  0  0  0  0  0  0  0  0
   -2.8461   -3.2093   -1.7361 H   0  0  0  0  0  0  0  0  0  0  0  0
   -3.4799   -2.8095   -3.3370 H   0  0  0  0  0  0  0  0  0  0  0  0
   -2.0396   -1.9600   -2.7628 H   0  0  0  0  0  0  0  0  0  0  0  0
   -1.5533   -1.7476   -0.4426 H   0  0  0  0  0  0  0  0  0  0  0  0
    2.1456    0.1722    2.2072 H   0  0  0  0  0  0  0  0  0  0  0  0
    1.6137   -1.4956    2.4482 H   0  0  0  0  0  0  0  0  0  0  0  0
    3.8403   -1.3952    1.3415 H   0  0  0  0  0  0  0  0  0  0  0  0
    2.6212   -2.1960    0.3264 H   0  0  0  0  0  0  0  0  0  0  0  0
    4.3904    2.1032   -0.4841 H   0  0  0  0  0  0  0  0  0  0  0  0
    8.2726    0.7116   -1.6330 H   0  0  0  0  0  0  0  0  0  0  0  0
    7.4451   -1.6139   -1.6584 H   0  0  0  0  0  0  0  0  0  0  0  0
    2.3124    1.5776    0.0915 H   0  0  0  0  0  0  0  0  0  0  0  0
    2.2237    1.1214   -1.6263 H   0  0  0  0  0  0  0  0  0  0  0  0
    0.0025    0.9496   -0.5421 H   0  0  0  0  0  0  0  0  0  0  0  0
    0.5641   -0.6469   -1.0858 H   0  0  0  0  0  0  0  0  0  0  0  0
   -2.4226    1.3973    2.3204 H   0  0  0  0  0  0  0  0  0  0  0  0
   -3.6085    3.4281    2.1313 H   0  0  0  0  0  0  0  0  0  0  0  0
   -5.3448    3.5583    2.4358 H   0  0  0  0  0  0  0  0  0  0  0  0
   -4.4532    2.2315    3.1902 H   0  0  0  0  0  0  0  0  0  0  0  0
   -6.3270   -1.2511   -0.5845 H   0  0  0  0  0  0  0  0  0  0  0  0
   -6.6988    0.0802    0.5637 H   0  0  0  0  0  0  0  0  0  0  0  0
   -7.4106    0.0668   -1.0574 H   0  0  0  0  0  0  0  0  0  0  0  0
  1  2  1  0
  2  3  1  0
  3  4  2  0
  4  5  1  0
  5  6  1  0
  6  7  2  0
  6  8  1  0
  8  9  1  0
  9 10  1  0
 10 11  1  0
 11 12  1  0
 12 13  2  0
 13 14  1  0
 14 15  1  0
 14 16  2  0
 16 17  1  0
 17 18  2  0
 18 19  1  0
 11 20  1  0
 20 21  1  0
  5 22  2  0
 22 23  1  0
 23 24  1  0
 24 25  1  0
 23 26  2  0
 26 27  1  0
 27 28  1  0
 26  3  1  0
 21  8  1  0
 18 12  1  0
  1 29  1  0
  1 30  1  0
  1 31  1  0
  4 32  1  0
  9 33  1  0
  9 34  1  0
 10 35  1  0
 10 36  1  0
 13 37  1  0
 16 38  1  0
 17 39  1  0
 20 40  1  0
 20 41  1  0
 21 42  1  0
 21 43  1  0
 22 44  1  0
 25 45  1  0
 25 46  1  0
 25 47  1  0
 28 48  1  0
 28 49  1  0
 28 50  1  0
M  END
$$$$
