
     RDKit          3D

 50 51  0  0  0  0  0  0  0  0999 V2000
    6.6566    1.0888   -1.4421 C   0  0  0  0  0  0  0  0  0  0  0  0
    5.4904    0.3596   -0.8427 C   0  0  0  0  0  0  0  0  0  0  0  0
    4.2923    0.2366   -1.5559 C   0  0  0  0  0  0  0  0  0  0  0  0
    3.1948   -0.4168   -0.9903 C   0  0  0  0  0  0  0  0  0  0  0  0
    3.2750   -0.9403    0.3039 C   0  0  0  0  0  0  0  0  0  0  0  0
    2.1299   -1.6279    0.8992 C   0  0  0  0  0  0  0  0  0  0  0  0
    1.9716   -2.9546    0.8054 C   0  0  0  0  0  0  0  0  0  0  0  0
    0.5389   -3.4920    1.6160 S   0  0  0  0  0  0  0  0  0  0  0  0
    0.1316   -1.8348    2.0986 C   0  0  0  0  0  0  0  0  0  0  0  0
   -1.2316   -1.4433    2.9734 S   0  0  0  0  0  0  0  0  0  0  0  0
    1.1283   -0.9817    1.6162 N   0  0  0  0  0  0  0  0  0  0  0  0
    1.0907    0.4740    1.7868 C   0  0  0  0  0  0  0  0  0  0  0  0
    0.2408    1.1367    0.7076 C   0  0  0  0  0  0  0  0  0  0  0  0
    0.2033    0.8100   -0.4702 O   0  0  0  0  0  0  0  0  0  0  0  0
   -0.4653    2.1739    1.2436 O   0  0  0  0  0  0  0  0  0  0  0  0
   -1.1771    2.9672    0.2949 C   0  0  0  0  0  0  0  0  0  0  0  0
   -2.4577    2.3782   -0.3080 C   0  0  0  0  0  0  0  0  0  0  0  0
   -2.9685    2.8584   -1.3179 O   0  0  0  0  0  0  0  0  0  0  0  0
   -3.0187    1.3371    0.4023 N   0  0  0  0  0  0  0  0  0  0  0  0
   -4.1913    0.6173   -0.0894 C   0  0  0  0  0  0  0  0  0  0  0  0
   -4.9177   -0.0363    1.0859 C   0  0  0  0  0  0  0  0  0  0  0  0
   -3.8161   -0.3607   -1.2357 C   0  0  0  0  0  0  0  0  0  0  0  0
   -2.8913   -1.4978   -0.7936 C   0  0  0  0  0  0  0  0  0  0  0  0
   -5.0601   -0.9397   -1.9160 C   0  0  0  0  0  0  0  0  0  0  0  0
    4.4697   -0.8124    1.0221 C   0  0  0  0  0  0  0  0  0  0  0  0
    5.5673   -0.1601    0.4547 C   0  0  0  0  0  0  0  0  0  0  0  0
    6.6983    0.9316   -2.5250 H   0  0  0  0  0  0  0  0  0  0  0  0
    7.6022    0.7265   -1.0252 H   0  0  0  0  0  0  0  0  0  0  0  0
    6.5704    2.1610   -1.2417 H   0  0  0  0  0  0  0  0  0  0  0  0
    4.2044    0.6475   -2.5597 H   0  0  0  0  0  0  0  0  0  0  0  0
    2.2742   -0.5048   -1.5654 H   0  0  0  0  0  0  0  0  0  0  0  0
    2.6393   -3.6348    0.2930 H   0  0  0  0  0  0  0  0  0  0  0  0
    2.0950    0.9064    1.7619 H   0  0  0  0  0  0  0  0  0  0  0  0
    0.6694    0.7029    2.7712 H   0  0  0  0  0  0  0  0  0  0  0  0
   -1.4687    3.8886    0.8110 H   0  0  0  0  0  0  0  0  0  0  0  0
   -0.5054    3.2554   -0.5232 H   0  0  0  0  0  0  0  0  0  0  0  0
   -2.4664    0.9042    1.1323 H   0  0  0  0  0  0  0  0  0  0  0  0
   -4.8663    1.3749   -0.5094 H   0  0  0  0  0  0  0  0  0  0  0  0
   -5.1775    0.7169    1.8387 H   0  0  0  0  0  0  0  0  0  0  0  0
   -5.8475   -0.5167    0.7685 H   0  0  0  0  0  0  0  0  0  0  0  0
   -4.2954   -0.7847    1.5852 H   0  0  0  0  0  0  0  0  0  0  0  0
   -3.2741    0.2098   -2.0018 H   0  0  0  0  0  0  0  0  0  0  0  0
   -1.9711   -1.1083   -0.3498 H   0  0  0  0  0  0  0  0  0  0  0  0
   -2.6024   -2.1120   -1.6537 H   0  0  0  0  0  0  0  0  0  0  0  0
   -3.3748   -2.1575   -0.0667 H   0  0  0  0  0  0  0  0  0  0  0  0
   -5.6134   -1.6105   -1.2513 H   0  0  0  0  0  0  0  0  0  0  0  0
   -4.7784   -1.5151   -2.8047 H   0  0  0  0  0  0  0  0  0  0  0  0
   -5.7359   -0.1411   -2.2391 H   0  0  0  0  0  0  0  0  0  0  0  0
    4.5536   -1.2162    2.0288 H   0  0  0  0  0  0  0  0  0  0  0  0
    6.4850   -0.0633    1.0311 H   0  0  0  0  0  0  0  0  0  0  0  0
  1  2  1  0
  2  3  2  0
  3  4  1  0
  4  5  2  0
  5  6  1  0
  6  7  2  0
  7  8  1  0
  8  9  1  0
  9 10  2  0
  9 11  1  0
 11 12  1  0
 12 13  1  0
 13 14  2  0
 13 15  1  0
 15 16  1  0
 16 17  1  0
 17 18  2  0
 17 19  1  0
 19 20  1  0
 20 21  1  0
 20 22  1  0
 22 23  1  0
 22 24  1  0
  5 25  1  0
 25 26  2  0
 26  2  1  0
 11  6  1  0
  1 27  1  0
  1 28  1  0
  1 29  1  0
  3 30  1  0
  4 31  1  0
  7 32  1  0
 12 33  1  0
 12 34  1  0
 16 35  1  0
 16 36  1  0
 19 37  1  0
 20 38  1  0
 21 39  1  0
 21 40  1  0
 21 41  1  0
 22 42  1  0
 23 43  1  0
 23 44  1  0
 23 45  1  0
 24 46  1  0
 24 47  1  0
 24 48  1  0
 25 49  1  0
 26 50  1  0
M  END
$$$$
