
     RDKit          3D

 45 47  0  0  0  0  0  0  0  0999 V2000
    2.5487    1.4001   -1.6251 O   0  0  0  0  0  0  0  0  0  0  0  0
    2.0874    0.5766   -0.8529 C   0  0  0  0  0  0  0  0  0  0  0  0
    2.7959   -0.2996   -0.0709 N   0  0  0  0  0  0  0  0  0  0  0  0
    4.2276   -0.1685    0.0312 C   0  0  0  0  0  0  0  0  0  0  0  0
    4.7475   -1.2708    0.8728 C   0  0  0  0  0  0  0  0  0  0  0  0
    5.0184   -1.3855    2.2209 C   0  0  0  0  0  0  0  0  0  0  0  0
    5.4925   -2.7031    2.4239 C   0  0  0  0  0  0  0  0  0  0  0  0
    5.4748   -3.3090    1.1897 C   0  0  0  0  0  0  0  0  0  0  0  0
    5.0226   -2.4491    0.2422 O   0  0  0  0  0  0  0  0  0  0  0  0
    0.5712    0.4629   -0.6893 C   0  0  0  0  0  0  0  0  0  0  0  0
   -0.0787   -0.3387   -1.7688 C   0  0  0  0  0  0  0  0  0  0  0  0
   -1.3785   -0.6746   -1.8238 C   0  0  0  0  0  0  0  0  0  0  0  0
   -2.4459   -0.3461   -0.8143 C   0  0  0  0  0  0  0  0  0  0  0  0
   -3.7343   -1.0967   -1.0735 C   0  0  0  0  0  0  0  0  0  0  0  0
   -3.9206   -2.3886   -0.5616 C   0  0  0  0  0  0  0  0  0  0  0  0
   -5.0999   -3.0890   -0.8199 C   0  0  0  0  0  0  0  0  0  0  0  0
   -6.1008   -2.5082   -1.5954 C   0  0  0  0  0  0  0  0  0  0  0  0
   -5.9233   -1.2277   -2.1150 C   0  0  0  0  0  0  0  0  0  0  0  0
   -4.7441   -0.5257   -1.8602 C   0  0  0  0  0  0  0  0  0  0  0  0
   -0.0826    1.0223    0.2815 N   0  0  0  0  0  0  0  0  0  0  0  0
    0.6323    1.7456    1.1995 C   0  0  0  0  0  0  0  0  0  0  0  0
    1.5064    1.2631    1.9127 O   0  0  0  0  0  0  0  0  0  0  0  0
    0.2067    3.1285    1.2655 C   0  0  0  0  0  0  0  0  0  0  0  0
    0.6590    4.1714    2.0551 C   0  0  0  0  0  0  0  0  0  0  0  0
   -0.1056    5.3115    1.7080 C   0  0  0  0  0  0  0  0  0  0  0  0
   -0.9798    4.9016    0.7289 C   0  0  0  0  0  0  0  0  0  0  0  0
   -2.2678    6.0074   -0.1267 Br  0  0  0  0  0  0  0  0  0  0  0  0
   -0.7977    3.5846    0.4507 O   0  0  0  0  0  0  0  0  0  0  0  0
    2.3061   -0.6979    0.7239 H   0  0  0  0  0  0  0  0  0  0  0  0
    4.6627   -0.1913   -0.9728 H   0  0  0  0  0  0  0  0  0  0  0  0
    4.4545    0.8055    0.4783 H   0  0  0  0  0  0  0  0  0  0  0  0
    4.8840   -0.6108    2.9627 H   0  0  0  0  0  0  0  0  0  0  0  0
    5.8053   -3.1582    3.3531 H   0  0  0  0  0  0  0  0  0  0  0  0
    5.7376   -4.2959    0.8351 H   0  0  0  0  0  0  0  0  0  0  0  0
    0.5822   -0.6469   -2.5759 H   0  0  0  0  0  0  0  0  0  0  0  0
   -1.7044   -1.2452   -2.6931 H   0  0  0  0  0  0  0  0  0  0  0  0
   -2.1091   -0.5926    0.1993 H   0  0  0  0  0  0  0  0  0  0  0  0
   -2.6533    0.7312   -0.8360 H   0  0  0  0  0  0  0  0  0  0  0  0
   -3.1449   -2.8554    0.0407 H   0  0  0  0  0  0  0  0  0  0  0  0
   -5.2357   -4.0886   -0.4173 H   0  0  0  0  0  0  0  0  0  0  0  0
   -7.0190   -3.0542   -1.7956 H   0  0  0  0  0  0  0  0  0  0  0  0
   -6.7024   -0.7756   -2.7223 H   0  0  0  0  0  0  0  0  0  0  0  0
   -4.6166    0.4708   -2.2764 H   0  0  0  0  0  0  0  0  0  0  0  0
    1.4506    4.1033    2.7891 H   0  0  0  0  0  0  0  0  0  0  0  0
   -0.0287    6.3076    2.1217 H   0  0  0  0  0  0  0  0  0  0  0  0
  1  2  2  0
  2  3  1  0
  3  4  1  0
  4  5  1  0
  5  6  2  0
  6  7  1  0
  7  8  2  0
  8  9  1  0
  2 10  1  0
 10 11  1  0
 11 12  2  3
 12 13  1  0
 13 14  1  0
 14 15  2  0
 15 16  1  0
 16 17  2  0
 17 18  1  0
 18 19  2  0
 10 20  2  3
 20 21  1  0
 21 22  2  0
 21 23  1  0
 23 24  2  0
 24 25  1  0
 25 26  2  0
 26 27  1  0
 26 28  1  0
  9  5  1  0
 19 14  1  0
 28 23  1  0
  3 29  1  0
  4 30  1  0
  4 31  1  0
  6 32  1  0
  7 33  1  0
  8 34  1  0
 11 35  1  0
 12 36  1  0
 13 37  1  0
 13 38  1  0
 15 39  1  0
 16 40  1  0
 17 41  1  0
 18 42  1  0
 19 43  1  0
 24 44  1  0
 25 45  1  0
M  END
$$$$
