
     RDKit          3D

 57 61  0  0  0  0  0  0  0  0999 V2000
   -9.1740   -0.9946    2.2543 C   0  0  0  0  0  0  0  0  0  0  0  0
   -7.8451   -0.6564    1.6470 C   0  0  0  0  0  0  0  0  0  0  0  0
   -7.7614    0.2219    0.5646 C   0  0  0  0  0  0  0  0  0  0  0  0
   -6.5227    0.5129   -0.0181 C   0  0  0  0  0  0  0  0  0  0  0  0
   -5.3293   -0.0649    0.4536 C   0  0  0  0  0  0  0  0  0  0  0  0
   -4.0314    0.2705   -0.1727 C   0  0  0  0  0  0  0  0  0  0  0  0
   -2.8280    0.2370    0.5097 C   0  0  0  0  0  0  0  0  0  0  0  0
   -1.6602    0.5752   -0.1762 C   0  0  0  0  0  0  0  0  0  0  0  0
   -0.3976    0.4635    0.5910 C   0  0  0  0  0  0  0  0  0  0  0  0
   -0.3048    1.0893    1.6382 O   0  0  0  0  0  0  0  0  0  0  0  0
    0.5255   -0.4002    0.0328 N   0  0  0  0  0  0  0  0  0  0  0  0
    1.8174   -0.6981    0.5121 C   0  0  0  0  0  0  0  0  0  0  0  0
    2.5854   -1.5980   -0.2420 C   0  0  0  0  0  0  0  0  0  0  0  0
    3.8827   -1.9370    0.1528 C   0  0  0  0  0  0  0  0  0  0  0  0
    4.4165   -1.3703    1.3098 C   0  0  0  0  0  0  0  0  0  0  0  0
    6.0569   -1.7974    1.8385 S   0  0  0  0  0  6  0  0  0  0  0  0
    5.9520   -2.1463    3.2420 O   0  0  0  0  0  0  0  0  0  0  0  0
    6.6343   -2.7365    0.8985 O   0  0  0  0  0  0  0  0  0  0  0  0
    6.8797   -0.3591    1.7824 N   0  0  0  0  0  0  0  0  0  0  0  0
    7.3480    0.0803    0.5523 C   0  0  0  0  0  0  0  0  0  0  0  0
    8.4798    0.7855    0.6415 N   0  0  0  0  0  0  0  0  0  0  0  0
    8.8927    1.3648   -0.5019 C   0  0  0  0  0  0  0  0  0  0  0  0
    8.1979    1.2861   -1.6864 C   0  0  0  0  0  0  0  0  0  0  0  0
    7.0221    0.5738   -1.6366 C   0  0  0  0  0  0  0  0  0  0  0  0
    6.5611   -0.0204   -0.5209 N   0  0  0  0  0  0  0  0  0  0  0  0
    3.6602   -0.4836    2.0784 C   0  0  0  0  0  0  0  0  0  0  0  0
    2.3645   -0.1459    1.6735 C   0  0  0  0  0  0  0  0  0  0  0  0
   -1.6966    0.9955   -1.5230 C   0  0  0  0  0  0  0  0  0  0  0  0
   -0.5766    1.4359   -2.2756 C   0  0  0  0  0  0  0  0  0  0  0  0
   -0.7116    1.8200   -3.6081 C   0  0  0  0  0  0  0  0  0  0  0  0
   -1.9629    1.7808   -4.2051 C   0  0  0  0  0  0  0  0  0  0  0  0
   -3.0709    1.3710   -3.4608 C   0  0  0  0  0  0  0  0  0  0  0  0
   -2.9640    0.9871   -2.1307 C   0  0  0  0  0  0  0  0  0  0  0  0
   -4.0836    0.6287   -1.4809 N   0  0  0  0  0  0  0  0  0  0  0  0
   -5.4379   -0.9659    1.5287 C   0  0  0  0  0  0  0  0  0  0  0  0
   -6.6758   -1.2603    2.1149 C   0  0  0  0  0  0  0  0  0  0  0  0
   -9.8727   -0.1575    2.1550 H   0  0  0  0  0  0  0  0  0  0  0  0
   -9.0717   -1.2059    3.3245 H   0  0  0  0  0  0  0  0  0  0  0  0
   -9.6007   -1.8720    1.7582 H   0  0  0  0  0  0  0  0  0  0  0  0
   -8.6569    0.6911    0.1640 H   0  0  0  0  0  0  0  0  0  0  0  0
   -6.4921    1.2090   -0.8563 H   0  0  0  0  0  0  0  0  0  0  0  0
   -2.7780   -0.0319    1.5600 H   0  0  0  0  0  0  0  0  0  0  0  0
    0.2472   -0.8802   -0.8148 H   0  0  0  0  0  0  0  0  0  0  0  0
    2.1883   -2.0456   -1.1495 H   0  0  0  0  0  0  0  0  0  0  0  0
    4.4686   -2.6297   -0.4473 H   0  0  0  0  0  0  0  0  0  0  0  0
    7.5334   -0.2206    2.5440 H   0  0  0  0  0  0  0  0  0  0  0  0
    9.8257    1.9177   -0.4325 H   0  0  0  0  0  0  0  0  0  0  0  0
    8.5480    1.7591   -2.5931 H   0  0  0  0  0  0  0  0  0  0  0  0
    6.3941    0.4623   -2.5156 H   0  0  0  0  0  0  0  0  0  0  0  0
    4.0687   -0.0510    2.9886 H   0  0  0  0  0  0  0  0  0  0  0  0
    1.8066    0.5511    2.2922 H   0  0  0  0  0  0  0  0  0  0  0  0
    0.4106    1.5056   -1.8217 H   0  0  0  0  0  0  0  0  0  0  0  0
    0.1544    2.1579   -4.1715 H   0  0  0  0  0  0  0  0  0  0  0  0
   -2.0872    2.0798   -5.2427 H   0  0  0  0  0  0  0  0  0  0  0  0
   -4.0521    1.3580   -3.9319 H   0  0  0  0  0  0  0  0  0  0  0  0
   -4.5599   -1.4733    1.9211 H   0  0  0  0  0  0  0  0  0  0  0  0
   -6.7166   -1.9686    2.9398 H   0  0  0  0  0  0  0  0  0  0  0  0
  1  2  1  0
  2  3  2  0
  3  4  1  0
  4  5  2  0
  5  6  1  0
  6  7  2  0
  7  8  1  0
  8  9  1  0
  9 10  2  0
  9 11  1  0
 11 12  1  0
 12 13  2  0
 13 14  1  0
 14 15  2  0
 15 16  1  0
 16 17  2  0
 16 18  2  0
 16 19  1  0
 19 20  1  0
 20 21  2  0
 21 22  1  0
 22 23  2  0
 23 24  1  0
 24 25  2  0
 15 26  1  0
 26 27  2  0
  8 28  2  0
 28 29  1  0
 29 30  2  0
 30 31  1  0
 31 32  2  0
 32 33  1  0
 33 34  2  0
  5 35  1  0
 35 36  2  0
 36  2  1  0
 34  6  1  0
 27 12  1  0
 33 28  1  0
 25 20  1  0
  1 37  1  0
  1 38  1  0
  1 39  1  0
  3 40  1  0
  4 41  1  0
  7 42  1  0
 11 43  1  0
 13 44  1  0
 14 45  1  0
 19 46  1  0
 22 47  1  0
 23 48  1  0
 24 49  1  0
 26 50  1  0
 27 51  1  0
 29 52  1  0
 30 53  1  0
 31 54  1  0
 32 55  1  0
 35 56  1  0
 36 57  1  0
M  END
$$$$
