
     RDKit          3D

 47 49  0  0  0  0  0  0  0  0999 V2000
   -6.2125   -1.6567   -1.9039 C   0  0  0  0  0  0  0  0  0  0  0  0
   -5.0518   -0.8217   -2.4157 C   0  0  0  0  0  0  0  0  0  0  0  0
   -4.7916    0.2749   -1.5409 O   0  0  0  0  0  0  0  0  0  0  0  0
   -3.9227    0.1036   -0.5011 C   0  0  0  0  0  0  0  0  0  0  0  0
   -3.3189   -1.0937   -0.1139 C   0  0  0  0  0  0  0  0  0  0  0  0
   -2.4472   -1.1219    0.9804 C   0  0  0  0  0  0  0  0  0  0  0  0
   -2.1688    0.0560    1.6794 C   0  0  0  0  0  0  0  0  0  0  0  0
   -1.0794    0.0119    3.0883 S   0  0  0  0  0  6  0  0  0  0  0  0
   -1.4398    1.1140    3.9544 O   0  0  0  0  0  0  0  0  0  0  0  0
   -1.0573   -1.3510    3.5765 O   0  0  0  0  0  0  0  0  0  0  0  0
    0.4396    0.3468    2.4183 N   0  0  0  0  0  0  0  0  0  0  0  0
    0.7049    1.7360    1.9445 C   0  0  0  0  0  0  0  0  0  0  0  0
    1.1399    1.7751    0.4755 C   0  0  0  0  0  0  0  0  0  0  0  0
    2.3028    0.9245    0.2115 N   0  0  0  0  0  0  0  0  0  0  0  0
    3.0423    1.1726   -0.9395 C   0  0  0  0  0  0  0  0  0  0  0  0
    2.7139    2.0063   -1.7797 O   0  0  0  0  0  0  0  0  0  0  0  0
    4.2832    0.4054   -1.1783 C   0  0  0  0  0  0  0  0  0  0  0  0
    4.4641   -0.2015   -2.4189 C   0  0  0  0  0  0  0  0  0  0  0  0
    5.6394   -0.8969   -2.6254 C   0  0  0  0  0  0  0  0  0  0  0  0
    6.6154   -1.0090   -1.6973 N   0  0  0  0  0  0  0  0  0  0  0  0
    6.4237   -0.3780   -0.5184 C   0  0  0  0  0  0  0  0  0  0  0  0
    5.2848    0.3421   -0.2114 C   0  0  0  0  0  0  0  0  0  0  0  0
    2.4350   -0.2729    1.0547 C   0  0  0  0  0  0  0  0  0  0  0  0
    1.0845   -0.7328    1.6242 C   0  0  0  0  0  0  0  0  0  0  0  0
   -2.7948    1.2509    1.3225 C   0  0  0  0  0  0  0  0  0  0  0  0
   -3.6617    1.2691    0.2282 C   0  0  0  0  0  0  0  0  0  0  0  0
   -6.4572   -2.4535   -2.6121 H   0  0  0  0  0  0  0  0  0  0  0  0
   -7.0994   -1.0308   -1.7585 H   0  0  0  0  0  0  0  0  0  0  0  0
   -5.9834   -2.1104   -0.9352 H   0  0  0  0  0  0  0  0  0  0  0  0
   -4.1579   -1.4232   -2.6137 H   0  0  0  0  0  0  0  0  0  0  0  0
   -5.3389   -0.3862   -3.3797 H   0  0  0  0  0  0  0  0  0  0  0  0
   -3.5164   -2.0280   -0.6288 H   0  0  0  0  0  0  0  0  0  0  0  0
   -1.9994   -2.0662    1.2832 H   0  0  0  0  0  0  0  0  0  0  0  0
   -0.1659    2.3832    2.0787 H   0  0  0  0  0  0  0  0  0  0  0  0
    1.5025    2.1446    2.5770 H   0  0  0  0  0  0  0  0  0  0  0  0
    0.3280    1.4194   -0.1708 H   0  0  0  0  0  0  0  0  0  0  0  0
    1.3686    2.8053    0.1806 H   0  0  0  0  0  0  0  0  0  0  0  0
    3.7139   -0.1280   -3.1984 H   0  0  0  0  0  0  0  0  0  0  0  0
    5.8387   -1.3949   -3.5702 H   0  0  0  0  0  0  0  0  0  0  0  0
    7.2417   -0.4665    0.1914 H   0  0  0  0  0  0  0  0  0  0  0  0
    5.1925    0.8502    0.7410 H   0  0  0  0  0  0  0  0  0  0  0  0
    3.1131   -0.0107    1.8749 H   0  0  0  0  0  0  0  0  0  0  0  0
    2.8841   -1.0898    0.4820 H   0  0  0  0  0  0  0  0  0  0  0  0
    0.4315   -1.0280    0.7966 H   0  0  0  0  0  0  0  0  0  0  0  0
    1.2527   -1.6035    2.2665 H   0  0  0  0  0  0  0  0  0  0  0  0
   -2.6267    2.1641    1.8883 H   0  0  0  0  0  0  0  0  0  0  0  0
   -4.1491    2.1995   -0.0567 H   0  0  0  0  0  0  0  0  0  0  0  0
  1  2  1  0
  2  3  1  0
  3  4  1  0
  4  5  2  0
  5  6  1  0
  6  7  2  0
  7  8  1  0
  8  9  2  0
  8 10  2  0
  8 11  1  0
 11 12  1  0
 12 13  1  0
 13 14  1  0
 14 15  1  0
 15 16  2  0
 15 17  1  0
 17 18  2  0
 18 19  1  0
 19 20  2  0
 20 21  1  0
 21 22  2  0
 14 23  1  0
 23 24  1  0
  7 25  1  0
 25 26  2  0
 26  4  1  0
 24 11  1  0
 22 17  1  0
  1 27  1  0
  1 28  1  0
  1 29  1  0
  2 30  1  0
  2 31  1  0
  5 32  1  0
  6 33  1  0
 12 34  1  0
 12 35  1  0
 13 36  1  0
 13 37  1  0
 18 38  1  0
 19 39  1  0
 21 40  1  0
 22 41  1  0
 23 42  1  0
 23 43  1  0
 24 44  1  0
 24 45  1  0
 25 46  1  0
 26 47  1  0
M  END
$$$$
