
     RDKit          3D

 46 49  0  0  0  0  0  0  0  0999 V2000
    6.7736   -1.0817    0.6837 C   0  0  0  0  0  0  0  0  0  0  0  0
    6.0242   -0.1894   -0.2866 C   0  0  0  0  0  0  0  0  0  0  0  0
    4.6363   -0.2160    0.0647 O   0  0  0  0  0  0  0  0  0  0  0  0
    3.8390    0.5512   -0.7290 C   0  0  0  0  0  0  0  0  0  0  0  0
    4.2619    1.2109   -1.6717 O   0  0  0  0  0  0  0  0  0  0  0  0
    2.5014    0.4941   -0.3559 N   0  0  0  0  0  0  0  0  0  0  0  0
    1.5924    1.4621   -0.9581 C   0  0  0  0  0  0  0  0  0  0  0  0
    0.1595    0.9450   -1.0137 C   0  0  0  0  0  0  0  0  0  0  0  0
   -0.3427    0.4639    0.3646 C   0  0  0  0  0  0  0  0  0  0  0  0
    0.6609   -0.5815    0.9038 C   0  0  0  0  0  0  0  0  0  0  0  0
    2.0938   -0.0543    0.9343 C   0  0  0  0  0  0  0  0  0  0  0  0
   -0.4118    1.5880    1.3454 N   0  0  0  0  0  0  0  0  0  0  0  0
   -1.5751    2.4806    1.1293 C   0  0  0  0  0  0  0  0  0  0  0  0
   -2.9336    1.7699    1.3213 C   0  0  0  0  0  0  0  0  0  0  0  0
   -2.9112    0.4433    0.6474 C   0  0  0  0  0  0  0  0  0  0  0  0
   -1.7245   -0.1347    0.2364 C   0  0  0  0  0  0  0  0  0  0  0  0
   -2.0326   -1.3303   -0.3593 N   0  0  0  0  0  0  0  0  0  0  0  0
   -3.3932   -1.5464   -0.3132 C   0  0  0  0  0  0  0  0  0  0  0  0
   -4.1491   -2.6271   -0.7833 C   0  0  0  0  0  0  0  0  0  0  0  0
   -5.5345   -2.5769   -0.6016 C   0  0  0  0  0  0  0  0  0  0  0  0
   -6.1379   -1.4882    0.0241 C   0  0  0  0  0  0  0  0  0  0  0  0
   -5.3687   -0.4145    0.4872 C   0  0  0  0  0  0  0  0  0  0  0  0
   -3.9709   -0.4421    0.3168 C   0  0  0  0  0  0  0  0  0  0  0  0
    7.8431   -1.0945    0.4557 H   0  0  0  0  0  0  0  0  0  0  0  0
    6.6353   -0.7338    1.7127 H   0  0  0  0  0  0  0  0  0  0  0  0
    6.3901   -2.1064    0.6399 H   0  0  0  0  0  0  0  0  0  0  0  0
    6.1552   -0.5632   -1.3083 H   0  0  0  0  0  0  0  0  0  0  0  0
    6.4053    0.8355   -0.2151 H   0  0  0  0  0  0  0  0  0  0  0  0
    1.9237    1.7044   -1.9742 H   0  0  0  0  0  0  0  0  0  0  0  0
    1.6575    2.3874   -0.3733 H   0  0  0  0  0  0  0  0  0  0  0  0
    0.1243    0.1075   -1.7251 H   0  0  0  0  0  0  0  0  0  0  0  0
   -0.4925    1.7183   -1.4370 H   0  0  0  0  0  0  0  0  0  0  0  0
    0.6460   -1.4753    0.2650 H   0  0  0  0  0  0  0  0  0  0  0  0
    0.3737   -0.9235    1.9070 H   0  0  0  0  0  0  0  0  0  0  0  0
    2.2112    0.7385    1.6825 H   0  0  0  0  0  0  0  0  0  0  0  0
    2.7589   -0.8721    1.2303 H   0  0  0  0  0  0  0  0  0  0  0  0
   -0.5288    1.1744    2.2719 H   0  0  0  0  0  0  0  0  0  0  0  0
   -1.5093    3.3130    1.8392 H   0  0  0  0  0  0  0  0  0  0  0  0
   -1.5209    2.9312    0.1316 H   0  0  0  0  0  0  0  0  0  0  0  0
   -3.7381    2.3965    0.9214 H   0  0  0  0  0  0  0  0  0  0  0  0
   -3.1224    1.6210    2.3913 H   0  0  0  0  0  0  0  0  0  0  0  0
   -1.3712   -1.9681   -0.7796 H   0  0  0  0  0  0  0  0  0  0  0  0
   -3.6835   -3.4763   -1.2724 H   0  0  0  0  0  0  0  0  0  0  0  0
   -6.1499   -3.4009   -0.9555 H   0  0  0  0  0  0  0  0  0  0  0  0
   -7.2171   -1.4698    0.1541 H   0  0  0  0  0  0  0  0  0  0  0  0
   -5.8478    0.4302    0.9723 H   0  0  0  0  0  0  0  0  0  0  0  0
  1  2  1  0
  2  3  1  0
  3  4  1  0
  4  5  2  0
  4  6  1  0
  6  7  1  0
  7  8  1  0
  8  9  1  0
  9 10  1  0
 10 11  1  0
  9 12  1  0
 12 13  1  0
 13 14  1  0
 14 15  1  0
 15 16  2  0
 16 17  1  0
 17 18  1  0
 18 19  2  0
 19 20  1  0
 20 21  2  0
 21 22  1  0
 22 23  2  0
 11  6  1  0
 23 15  1  0
 16  9  1  0
 23 18  1  0
  1 24  1  0
  1 25  1  0
  1 26  1  0
  2 27  1  0
  2 28  1  0
  7 29  1  0
  7 30  1  0
  8 31  1  0
  8 32  1  0
 10 33  1  0
 10 34  1  0
 11 35  1  0
 11 36  1  0
 12 37  1  0
 13 38  1  0
 13 39  1  0
 14 40  1  0
 14 41  1  0
 17 42  1  0
 19 43  1  0
 20 44  1  0
 21 45  1  0
 22 46  1  0
M  END
$$$$
