
     RDKit          3D

 55 58  0  0  0  0  0  0  0  0999 V2000
    7.1745    0.8879   -0.1798 C   0  0  0  0  0  0  0  0  0  0  0  0
    5.8699    0.5707    0.2910 O   0  0  0  0  0  0  0  0  0  0  0  0
    4.9232    0.2451   -0.6451 C   0  0  0  0  0  0  0  0  0  0  0  0
    5.1461    0.2138   -2.0264 C   0  0  0  0  0  0  0  0  0  0  0  0
    4.1091   -0.1095   -2.9061 C   0  0  0  0  0  0  0  0  0  0  0  0
    2.8397   -0.3992   -2.4161 C   0  0  0  0  0  0  0  0  0  0  0  0
    2.6070   -0.3744   -1.0427 C   0  0  0  0  0  0  0  0  0  0  0  0
    3.6455   -0.0665   -0.1442 C   0  0  0  0  0  0  0  0  0  0  0  0
    3.3440   -0.0285    1.3359 C   0  0  0  0  0  0  0  0  0  0  0  0
    2.8933    1.2989    1.7326 N   0  0  0  0  0  0  0  0  0  0  0  0
    1.7159    1.4553    2.8967 S   0  0  0  0  0  6  0  0  0  0  0  0
    1.6555    2.8550    3.2525 O   0  0  0  0  0  0  0  0  0  0  0  0
    1.9191    0.4204    3.8859 O   0  0  0  0  0  0  0  0  0  0  0  0
    0.2498    1.0799    1.9669 C   0  0  0  0  0  0  0  0  0  0  0  0
   -0.4891   -0.0764    2.2578 C   0  0  0  0  0  0  0  0  0  0  0  0
   -1.6244   -0.3990    1.5014 C   0  0  0  0  0  0  0  0  0  0  0  0
   -2.0063    0.4413    0.4690 C   0  0  0  0  0  0  0  0  0  0  0  0
   -1.2524    1.5904    0.1910 C   0  0  0  0  0  0  0  0  0  0  0  0
   -0.1325    1.9359    0.9336 C   0  0  0  0  0  0  0  0  0  0  0  0
   -1.8510    2.3755   -0.9347 C   0  0  0  0  0  0  0  0  0  0  0  0
   -2.8483    1.3582   -1.5155 C   0  0  0  0  0  0  0  0  0  0  0  0
   -2.2967    0.7150   -2.7933 C   0  0  0  0  0  0  0  0  0  0  0  0
   -3.0659    0.3442   -0.4542 N   0  0  0  0  0  0  0  0  0  0  0  0
   -4.1728   -0.5008   -0.5156 C   0  0  0  0  0  0  0  0  0  0  0  0
   -4.9211   -0.4505   -1.5059 O   0  0  0  0  0  0  0  0  0  0  0  0
   -4.4894   -1.4479    0.6713 C   0  0  0  0  0  0  0  0  0  0  0  0
   -5.9084   -2.0905    0.7181 C   0  0  0  0  0  0  0  0  0  0  0  0
   -5.3133   -3.3336    0.0352 C   0  0  0  0  0  0  0  0  0  0  0  0
   -3.9434   -2.9022    0.5854 C   0  0  0  0  0  0  0  0  0  0  0  0
    7.7969    1.1170    0.6911 H   0  0  0  0  0  0  0  0  0  0  0  0
    7.1571    1.7767   -0.8197 H   0  0  0  0  0  0  0  0  0  0  0  0
    7.6263    0.0346   -0.6960 H   0  0  0  0  0  0  0  0  0  0  0  0
    6.1169    0.4394   -2.4547 H   0  0  0  0  0  0  0  0  0  0  0  0
    4.2937   -0.1292   -3.9777 H   0  0  0  0  0  0  0  0  0  0  0  0
    2.0316   -0.6430   -3.1013 H   0  0  0  0  0  0  0  0  0  0  0  0
    1.6073   -0.5944   -0.6716 H   0  0  0  0  0  0  0  0  0  0  0  0
    2.5850   -0.7896    1.5535 H   0  0  0  0  0  0  0  0  0  0  0  0
    4.2268   -0.3058    1.9228 H   0  0  0  0  0  0  0  0  0  0  0  0
    3.5482    2.0725    1.6489 H   0  0  0  0  0  0  0  0  0  0  0  0
   -0.1807   -0.7385    3.0646 H   0  0  0  0  0  0  0  0  0  0  0  0
   -2.1421   -1.3168    1.7386 H   0  0  0  0  0  0  0  0  0  0  0  0
    0.4334    2.8367    0.7130 H   0  0  0  0  0  0  0  0  0  0  0  0
   -1.1033    2.7087   -1.6606 H   0  0  0  0  0  0  0  0  0  0  0  0
   -2.3789    3.2444   -0.5264 H   0  0  0  0  0  0  0  0  0  0  0  0
   -3.8001    1.8497   -1.7518 H   0  0  0  0  0  0  0  0  0  0  0  0
   -2.9991   -0.0145   -3.2080 H   0  0  0  0  0  0  0  0  0  0  0  0
   -1.3548    0.1889   -2.6033 H   0  0  0  0  0  0  0  0  0  0  0  0
   -2.1138    1.4759   -3.5592 H   0  0  0  0  0  0  0  0  0  0  0  0
   -4.2949   -0.9530    1.6308 H   0  0  0  0  0  0  0  0  0  0  0  0
   -6.6993   -1.5801    0.1615 H   0  0  0  0  0  0  0  0  0  0  0  0
   -6.2679   -2.2792    1.7373 H   0  0  0  0  0  0  0  0  0  0  0  0
   -5.6869   -4.2966    0.3925 H   0  0  0  0  0  0  0  0  0  0  0  0
   -5.3774   -3.3106   -1.0587 H   0  0  0  0  0  0  0  0  0  0  0  0
   -3.7019   -3.3384    1.5618 H   0  0  0  0  0  0  0  0  0  0  0  0
   -3.0994   -3.0635   -0.0914 H   0  0  0  0  0  0  0  0  0  0  0  0
  1  2  1  0
  2  3  1  0
  3  4  2  0
  4  5  1  0
  5  6  2  0
  6  7  1  0
  7  8  2  0
  8  9  1  0
  9 10  1  0
 10 11  1  0
 11 12  2  0
 11 13  2  0
 11 14  1  0
 14 15  2  0
 15 16  1  0
 16 17  2  0
 17 18  1  0
 18 19  2  0
 18 20  1  0
 20 21  1  0
 21 22  1  0
 21 23  1  0
 23 24  1  0
 24 25  2  0
 24 26  1  0
 26 27  1  0
 27 28  1  0
 28 29  1  0
  8  3  1  0
 19 14  1  0
 29 26  1  0
 23 17  1  0
  1 30  1  0
  1 31  1  0
  1 32  1  0
  4 33  1  0
  5 34  1  0
  6 35  1  0
  7 36  1  0
  9 37  1  0
  9 38  1  0
 10 39  1  0
 15 40  1  0
 16 41  1  0
 19 42  1  0
 20 43  1  0
 20 44  1  0
 21 45  1  0
 22 46  1  0
 22 47  1  0
 22 48  1  0
 26 49  1  0
 27 50  1  0
 27 51  1  0
 28 52  1  0
 28 53  1  0
 29 54  1  0
 29 55  1  0
M  END
$$$$
