
     RDKit          3D

 38 39  0  0  0  0  0  0  0  0999 V2000
   -4.0978    3.0006    1.0007 C   0  0  0  0  0  0  0  0  0  0  0  0
   -3.6252    1.7060    1.3825 O   0  0  0  0  0  0  0  0  0  0  0  0
   -2.7709    1.1687    0.4561 C   0  0  0  0  0  0  0  0  0  0  0  0
   -1.5024    0.8104    0.9168 C   0  0  0  0  0  0  0  0  0  0  0  0
   -0.5537    0.2678    0.0405 C   0  0  0  0  0  0  0  0  0  0  0  0
    0.7827   -0.1406    0.4934 C   0  0  0  0  0  0  0  0  0  0  0  0
    1.5360    0.6050    1.3167 C   0  0  0  0  0  0  0  0  0  0  0  0
    2.8759    0.2092    1.8255 C   0  0  0  0  0  0  0  0  0  0  0  0
    3.2619    0.6459    2.9067 O   0  0  0  0  0  0  0  0  0  0  0  0
    3.7433   -0.7042    1.0465 C   0  0  0  0  0  0  0  0  0  0  0  0
    4.4629   -1.6866    1.7377 C   0  0  0  0  0  0  0  0  0  0  0  0
    5.3066   -2.5557    1.0424 C   0  0  0  0  0  0  0  0  0  0  0  0
    5.4293   -2.4304   -0.3391 C   0  0  0  0  0  0  0  0  0  0  0  0
    6.2385   -3.2579   -1.0584 O   0  0  0  0  0  0  0  0  0  0  0  0
    4.7365   -1.4441   -1.0324 C   0  0  0  0  0  0  0  0  0  0  0  0
    3.8955   -0.5718   -0.3392 C   0  0  0  0  0  0  0  0  0  0  0  0
   -0.9056    0.0631   -1.2994 C   0  0  0  0  0  0  0  0  0  0  0  0
   -2.1836    0.3945   -1.7577 C   0  0  0  0  0  0  0  0  0  0  0  0
   -3.1236    0.9166   -0.8725 C   0  0  0  0  0  0  0  0  0  0  0  0
   -4.3714    1.1869   -1.3662 O   0  0  0  0  0  0  0  0  0  0  0  0
   -5.3089    0.1871   -0.9276 C   0  0  0  0  0  0  0  0  0  0  0  0
   -6.6158    0.4166   -1.5627 C   0  0  0  0  0  0  0  0  0  0  0  0
   -7.6613    0.5805   -2.0476 N   0  0  0  0  0  0  0  0  0  0  0  0
   -5.0363    2.9097    0.4443 H   0  0  0  0  0  0  0  0  0  0  0  0
   -3.3629    3.5684    0.4177 H   0  0  0  0  0  0  0  0  0  0  0  0
   -4.3107    3.5584    1.9163 H   0  0  0  0  0  0  0  0  0  0  0  0
   -1.2648    0.9614    1.9665 H   0  0  0  0  0  0  0  0  0  0  0  0
    1.1271   -1.1015    0.1169 H   0  0  0  0  0  0  0  0  0  0  0  0
    1.1797    1.5456    1.7275 H   0  0  0  0  0  0  0  0  0  0  0  0
    4.3688   -1.7717    2.8183 H   0  0  0  0  0  0  0  0  0  0  0  0
    5.8552   -3.3145    1.5908 H   0  0  0  0  0  0  0  0  0  0  0  0
    6.6676   -3.8827   -0.4499 H   0  0  0  0  0  0  0  0  0  0  0  0
    4.8629   -1.3483   -2.1068 H   0  0  0  0  0  0  0  0  0  0  0  0
    3.3783    0.2118   -0.8875 H   0  0  0  0  0  0  0  0  0  0  0  0
   -0.1875   -0.3538   -2.0022 H   0  0  0  0  0  0  0  0  0  0  0  0
   -2.4457    0.2311   -2.7996 H   0  0  0  0  0  0  0  0  0  0  0  0
   -5.4341    0.2318    0.1624 H   0  0  0  0  0  0  0  0  0  0  0  0
   -4.9467   -0.8132   -1.2002 H   0  0  0  0  0  0  0  0  0  0  0  0
  1  2  1  0
  2  3  1  0
  3  4  2  0
  4  5  1  0
  5  6  1  0
  6  7  2  3
  7  8  1  0
  8  9  2  0
  8 10  1  0
 10 11  2  0
 11 12  1  0
 12 13  2  0
 13 14  1  0
 13 15  1  0
 15 16  2  0
  5 17  2  0
 17 18  1  0
 18 19  2  0
 19 20  1  0
 20 21  1  0
 21 22  1  0
 22 23  3  0
 19  3  1  0
 16 10  1  0
  1 24  1  0
  1 25  1  0
  1 26  1  0
  4 27  1  0
  6 28  1  0
  7 29  1  0
 11 30  1  0
 12 31  1  0
 14 32  1  0
 15 33  1  0
 16 34  1  0
 17 35  1  0
 18 36  1  0
 21 37  1  0
 21 38  1  0
M  END
$$$$
