
     RDKit          3D

 53 55  0  0  0  0  0  0  0  0999 V2000
   -5.4704    1.5960    1.9604 C   0  0  0  0  0  0  0  0  0  0  0  0
   -5.5152    1.3229    0.5669 O   0  0  0  0  0  0  0  0  0  0  0  0
   -4.4447    1.7211   -0.1943 C   0  0  0  0  0  0  0  0  0  0  0  0
   -3.3269    2.3957    0.3056 C   0  0  0  0  0  0  0  0  0  0  0  0
   -2.2783    2.7534   -0.5454 C   0  0  0  0  0  0  0  0  0  0  0  0
   -2.3278    2.4286   -1.9028 C   0  0  0  0  0  0  0  0  0  0  0  0
   -1.2226    2.7626   -2.8063 C   0  0  0  0  0  0  0  0  0  0  0  0
    0.0660    2.4043   -2.6794 C   0  0  0  0  0  0  0  0  0  0  0  0
    0.7058    1.5765   -1.6171 C   0  0  0  0  0  0  0  0  0  0  0  0
    1.8416    1.8693   -1.2634 O   0  0  0  0  0  0  0  0  0  0  0  0
   -0.0418    0.5001   -1.2043 N   0  0  0  0  0  0  0  0  0  0  0  0
    0.2641   -0.4164   -0.1791 C   0  0  0  0  0  0  0  0  0  0  0  0
   -0.6291   -1.4816    0.0092 C   0  0  0  0  0  0  0  0  0  0  0  0
   -0.4041   -2.4409    1.0002 C   0  0  0  0  0  0  0  0  0  0  0  0
    0.7179   -2.3433    1.8173 C   0  0  0  0  0  0  0  0  0  0  0  0
    1.6067   -1.2808    1.6354 C   0  0  0  0  0  0  0  0  0  0  0  0
    3.0100   -1.1364    2.7147 S   0  0  0  0  0  6  0  0  0  0  0  0
    2.6619   -1.7663    3.9720 O   0  0  0  0  0  0  0  0  0  0  0  0
    3.4922    0.2277    2.6801 O   0  0  0  0  0  0  0  0  0  0  0  0
    4.1600   -2.1194    1.9470 N   0  0  0  0  0  0  0  0  0  0  0  0
    4.6475   -1.6897    0.6067 C   0  0  0  0  0  0  0  0  0  0  0  0
    6.1681   -1.7386    0.6926 C   0  0  0  0  0  0  0  0  0  0  0  0
    6.4249   -2.7794    1.7627 C   0  0  0  0  0  0  0  0  0  0  0  0
    5.3396   -2.4650    2.7792 C   0  0  0  0  0  0  0  0  0  0  0  0
    1.3786   -0.3095    0.6530 C   0  0  0  0  0  0  0  0  0  0  0  0
   -3.4554    1.7741   -2.4134 C   0  0  0  0  0  0  0  0  0  0  0  0
   -4.5143    1.4169   -1.5690 C   0  0  0  0  0  0  0  0  0  0  0  0
   -5.6434    0.7540   -1.9837 O   0  0  0  0  0  0  0  0  0  0  0  0
   -5.8392    0.5927   -3.3811 C   0  0  0  0  0  0  0  0  0  0  0  0
   -6.3891    1.2042    2.4074 H   0  0  0  0  0  0  0  0  0  0  0  0
   -4.6259    1.0867    2.4363 H   0  0  0  0  0  0  0  0  0  0  0  0
   -5.4424    2.6738    2.1505 H   0  0  0  0  0  0  0  0  0  0  0  0
   -3.2366    2.6576    1.3548 H   0  0  0  0  0  0  0  0  0  0  0  0
   -1.4184    3.2772   -0.1307 H   0  0  0  0  0  0  0  0  0  0  0  0
   -1.5046    3.3864   -3.6533 H   0  0  0  0  0  0  0  0  0  0  0  0
    0.7906    2.7923   -3.3914 H   0  0  0  0  0  0  0  0  0  0  0  0
   -0.9170    0.3431   -1.6873 H   0  0  0  0  0  0  0  0  0  0  0  0
   -1.5162   -1.5789   -0.6131 H   0  0  0  0  0  0  0  0  0  0  0  0
   -1.1069   -3.2595    1.1352 H   0  0  0  0  0  0  0  0  0  0  0  0
    0.8928   -3.0864    2.5926 H   0  0  0  0  0  0  0  0  0  0  0  0
    4.3143   -0.6898    0.3186 H   0  0  0  0  0  0  0  0  0  0  0  0
    4.2759   -2.4053   -0.1348 H   0  0  0  0  0  0  0  0  0  0  0  0
    6.5560   -0.7650    1.0161 H   0  0  0  0  0  0  0  0  0  0  0  0
    6.6328   -1.9880   -0.2653 H   0  0  0  0  0  0  0  0  0  0  0  0
    7.4300   -2.7135    2.1881 H   0  0  0  0  0  0  0  0  0  0  0  0
    6.2860   -3.7869    1.3528 H   0  0  0  0  0  0  0  0  0  0  0  0
    5.6405   -1.6150    3.4022 H   0  0  0  0  0  0  0  0  0  0  0  0
    5.1264   -3.3274    3.4166 H   0  0  0  0  0  0  0  0  0  0  0  0
    2.0743    0.5192    0.5624 H   0  0  0  0  0  0  0  0  0  0  0  0
   -3.4821    1.5363   -3.4721 H   0  0  0  0  0  0  0  0  0  0  0  0
   -5.8387    1.5582   -3.8978 H   0  0  0  0  0  0  0  0  0  0  0  0
   -5.0909   -0.0841   -3.8056 H   0  0  0  0  0  0  0  0  0  0  0  0
   -6.8224    0.1361   -3.5307 H   0  0  0  0  0  0  0  0  0  0  0  0
  1  2  1  0
  2  3  1  0
  3  4  2  0
  4  5  1  0
  5  6  2  0
  6  7  1  0
  7  8  2  3
  8  9  1  0
  9 10  2  0
  9 11  1  0
 11 12  1  0
 12 13  2  0
 13 14  1  0
 14 15  2  0
 15 16  1  0
 16 17  1  0
 17 18  2  0
 17 19  2  0
 17 20  1  0
 20 21  1  0
 21 22  1  0
 22 23  1  0
 23 24  1  0
 16 25  2  0
  6 26  1  0
 26 27  2  0
 27 28  1  0
 28 29  1  0
 27  3  1  0
 25 12  1  0
 24 20  1  0
  1 30  1  0
  1 31  1  0
  1 32  1  0
  4 33  1  0
  5 34  1  0
  7 35  1  0
  8 36  1  0
 11 37  1  0
 13 38  1  0
 14 39  1  0
 15 40  1  0
 21 41  1  0
 21 42  1  0
 22 43  1  0
 22 44  1  0
 23 45  1  0
 23 46  1  0
 24 47  1  0
 24 48  1  0
 25 49  1  0
 26 50  1  0
 29 51  1  0
 29 52  1  0
 29 53  1  0
M  END
$$$$
