
     RDKit          3D

 46 49  0  0  0  0  0  0  0  0999 V2000
    6.7655    0.3573    0.4254 C   0  0  0  0  0  0  0  0  0  0  0  0
    6.0008   -0.7611   -0.2574 C   0  0  0  0  0  0  0  0  0  0  0  0
    4.6059   -0.6770    0.0665 O   0  0  0  0  0  0  0  0  0  0  0  0
    3.8553    0.1379   -0.7251 C   0  0  0  0  0  0  0  0  0  0  0  0
    4.3124    0.7754   -1.6669 O   0  0  0  0  0  0  0  0  0  0  0  0
    2.5172    0.1605   -0.3486 N   0  0  0  0  0  0  0  0  0  0  0  0
    2.0814   -0.3628    0.9428 C   0  0  0  0  0  0  0  0  0  0  0  0
    0.6182   -0.7992    0.9183 C   0  0  0  0  0  0  0  0  0  0  0  0
   -0.3203    0.3075    0.3845 C   0  0  0  0  0  0  0  0  0  0  0  0
    0.2049    0.7575   -0.9957 C   0  0  0  0  0  0  0  0  0  0  0  0
    1.6676    1.1838   -0.9463 C   0  0  0  0  0  0  0  0  0  0  0  0
   -0.3143    1.4327    1.3664 N   0  0  0  0  0  0  0  0  0  0  0  0
   -1.4203    2.3968    1.1562 C   0  0  0  0  0  0  0  0  0  0  0  0
   -2.8199    1.7725    1.3538 C   0  0  0  0  0  0  0  0  0  0  0  0
   -2.8838    0.4478    0.6789 C   0  0  0  0  0  0  0  0  0  0  0  0
   -1.7375   -0.2031    0.2622 C   0  0  0  0  0  0  0  0  0  0  0  0
   -2.1226   -1.3764   -0.3330 N   0  0  0  0  0  0  0  0  0  0  0  0
   -3.4939   -1.5068   -0.2808 C   0  0  0  0  0  0  0  0  0  0  0  0
   -4.3182   -2.5375   -0.7483 C   0  0  0  0  0  0  0  0  0  0  0  0
   -5.6969   -2.4007   -0.5601 C   0  0  0  0  0  0  0  0  0  0  0  0
   -6.2280   -1.2770    0.0690 C   0  0  0  0  0  0  0  0  0  0  0  0
   -5.3909   -0.2540    0.5294 C   0  0  0  0  0  0  0  0  0  0  0  0
   -3.9984   -0.3691    0.3526 C   0  0  0  0  0  0  0  0  0  0  0  0
    6.4294    1.3370    0.0716 H   0  0  0  0  0  0  0  0  0  0  0  0
    7.8385    0.2664    0.2342 H   0  0  0  0  0  0  0  0  0  0  0  0
    6.5959    0.3342    1.5069 H   0  0  0  0  0  0  0  0  0  0  0  0
    6.1616   -0.7559   -1.3416 H   0  0  0  0  0  0  0  0  0  0  0  0
    6.3563   -1.7280    0.1137 H   0  0  0  0  0  0  0  0  0  0  0  0
    2.2517    0.4200    1.6913 H   0  0  0  0  0  0  0  0  0  0  0  0
    2.6951   -1.2212    1.2349 H   0  0  0  0  0  0  0  0  0  0  0  0
    0.5444   -1.6896    0.2788 H   0  0  0  0  0  0  0  0  0  0  0  0
    0.3146   -1.1237    1.9225 H   0  0  0  0  0  0  0  0  0  0  0  0
   -0.3993    1.5705   -1.4156 H   0  0  0  0  0  0  0  0  0  0  0  0
    0.1141   -0.0756   -1.7075 H   0  0  0  0  0  0  0  0  0  0  0  0
    1.7931    2.1028   -0.3613 H   0  0  0  0  0  0  0  0  0  0  0  0
    2.0087    1.4056   -1.9638 H   0  0  0  0  0  0  0  0  0  0  0  0
   -0.4530    1.0264    2.2931 H   0  0  0  0  0  0  0  0  0  0  0  0
   -1.2993    3.2228    1.8664 H   0  0  0  0  0  0  0  0  0  0  0  0
   -1.3424    2.8441    0.1586 H   0  0  0  0  0  0  0  0  0  0  0  0
   -3.5852    2.4488    0.9580 H   0  0  0  0  0  0  0  0  0  0  0  0
   -3.0129    1.6348    2.4246 H   0  0  0  0  0  0  0  0  0  0  0  0
   -1.5045   -2.0540   -0.7568 H   0  0  0  0  0  0  0  0  0  0  0  0
   -3.9090   -3.4137   -1.2401 H   0  0  0  0  0  0  0  0  0  0  0  0
   -6.3644   -3.1842   -0.9118 H   0  0  0  0  0  0  0  0  0  0  0  0
   -7.3033   -1.1910    0.2040 H   0  0  0  0  0  0  0  0  0  0  0  0
   -5.8139    0.6186    1.0172 H   0  0  0  0  0  0  0  0  0  0  0  0
  1  2  1  0
  2  3  1  0
  3  4  1  0
  4  5  2  0
  4  6  1  0
  6  7  1  0
  7  8  1  0
  8  9  1  0
  9 10  1  0
 10 11  1  0
  9 12  1  0
 12 13  1  0
 13 14  1  0
 14 15  1  0
 15 16  2  0
 16 17  1  0
 17 18  1  0
 18 19  2  0
 19 20  1  0
 20 21  2  0
 21 22  1  0
 22 23  2  0
 11  6  1  0
 23 15  1  0
 16  9  1  0
 23 18  1  0
  1 24  1  0
  1 25  1  0
  1 26  1  0
  2 27  1  0
  2 28  1  0
  7 29  1  0
  7 30  1  0
  8 31  1  0
  8 32  1  0
 10 33  1  0
 10 34  1  0
 11 35  1  0
 11 36  1  0
 12 37  1  0
 13 38  1  0
 13 39  1  0
 14 40  1  0
 14 41  1  0
 17 42  1  0
 19 43  1  0
 20 44  1  0
 21 45  1  0
 22 46  1  0
M  END
$$$$
