
     RDKit          3D

 39 39  0  0  0  0  0  0  0  0999 V2000
   -1.6464   -2.6375   -3.7138 C   0  0  0  0  0  0  0  0  0  0  0  0
   -1.3213   -2.0255   -2.4651 O   0  0  0  0  0  0  0  0  0  0  0  0
   -1.8949   -0.7992   -2.2810 C   0  0  0  0  0  0  0  0  0  0  0  0
   -2.6796   -0.2783   -3.0651 O   0  0  0  0  0  0  0  0  0  0  0  0
   -1.5158   -0.1924   -0.9170 C   0  0  0  0  0  0  0  0  0  0  0  0
   -2.6971   -0.2826    0.0591 C   0  0  0  0  0  0  0  0  0  0  0  0
   -3.8333    0.6739   -0.3029 C   0  0  0  0  0  0  0  0  0  0  0  0
   -5.1604    0.6366    0.9505 S   0  0  0  0  0  0  0  0  0  0  0  0
   -4.3953    1.6624    2.2312 C   0  0  0  0  0  0  0  0  0  0  0  0
   -0.3605   -0.8816   -0.3257 N   0  0  0  0  0  0  0  0  0  0  0  0
    0.9057   -0.5039   -0.6935 C   0  0  0  0  0  0  0  0  0  0  0  0
    1.1560    0.4510   -1.4147 O   0  0  0  0  0  0  0  0  0  0  0  0
    1.8436   -1.3414   -0.1559 N   0  0  0  0  0  0  0  0  0  0  0  0
    3.2542   -1.0406   -0.3044 C   0  0  0  0  0  0  0  0  0  0  0  0
    3.7416   -0.1268    0.7965 C   0  0  0  0  0  0  0  0  0  0  0  0
    3.8217    1.2485    0.5895 C   0  0  0  0  0  0  0  0  0  0  0  0
    4.2420    2.0624    1.6373 C   0  0  0  0  0  0  0  0  0  0  0  0
    4.5615    1.4868    2.8607 C   0  0  0  0  0  0  0  0  0  0  0  0
    4.4402    0.1136    2.9892 C   0  0  0  0  0  0  0  0  0  0  0  0
    4.0319   -0.7033    1.9930 N   0  0  0  0  0  0  0  0  0  0  0  0
   -1.3270   -2.0045   -4.5477 H   0  0  0  0  0  0  0  0  0  0  0  0
   -2.7199   -2.8429   -3.7701 H   0  0  0  0  0  0  0  0  0  0  0  0
   -1.1084   -3.5874   -3.7752 H   0  0  0  0  0  0  0  0  0  0  0  0
   -1.2365    0.8539   -1.0880 H   0  0  0  0  0  0  0  0  0  0  0  0
   -3.0737   -1.3139    0.0902 H   0  0  0  0  0  0  0  0  0  0  0  0
   -2.3282   -0.0522    1.0665 H   0  0  0  0  0  0  0  0  0  0  0  0
   -4.2945    0.3794   -1.2493 H   0  0  0  0  0  0  0  0  0  0  0  0
   -3.4722    1.7011   -0.4173 H   0  0  0  0  0  0  0  0  0  0  0  0
   -5.1126    1.8114    3.0429 H   0  0  0  0  0  0  0  0  0  0  0  0
   -3.5093    1.1745    2.6437 H   0  0  0  0  0  0  0  0  0  0  0  0
   -4.1247    2.6411    1.8265 H   0  0  0  0  0  0  0  0  0  0  0  0
   -0.4546   -1.8864   -0.2514 H   0  0  0  0  0  0  0  0  0  0  0  0
    1.5975   -1.7313    0.7433 H   0  0  0  0  0  0  0  0  0  0  0  0
    3.4517   -0.6092   -1.2921 H   0  0  0  0  0  0  0  0  0  0  0  0
    3.7924   -1.9928   -0.2438 H   0  0  0  0  0  0  0  0  0  0  0  0
    3.5479    1.6820   -0.3684 H   0  0  0  0  0  0  0  0  0  0  0  0
    4.3125    3.1375    1.4994 H   0  0  0  0  0  0  0  0  0  0  0  0
    4.8917    2.0942    3.6957 H   0  0  0  0  0  0  0  0  0  0  0  0
    4.6738   -0.3817    3.9273 H   0  0  0  0  0  0  0  0  0  0  0  0
  1  2  1  0
  2  3  1  0
  3  4  2  0
  3  5  1  0
  5  6  1  0
  6  7  1  0
  7  8  1  0
  8  9  1  0
  5 10  1  0
 10 11  1  0
 11 12  2  0
 11 13  1  0
 13 14  1  0
 14 15  1  0
 15 16  2  0
 16 17  1  0
 17 18  2  0
 18 19  1  0
 19 20  2  0
 20 15  1  0
  1 21  1  0
  1 22  1  0
  1 23  1  0
  5 24  1  0
  6 25  1  0
  6 26  1  0
  7 27  1  0
  7 28  1  0
  9 29  1  0
  9 30  1  0
  9 31  1  0
 10 32  1  0
 13 33  1  0
 14 34  1  0
 14 35  1  0
 16 36  1  0
 17 37  1  0
 18 38  1  0
 19 39  1  0
M  END
$$$$
