
     RDKit          3D

 36 37  0  0  0  0  0  0  0  0999 V2000
    2.6413    1.8713   -2.0632 C   0  0  0  0  0  0  0  0  0  0  0  0
    2.1768    1.1731   -0.8922 N   0  0  0  0  0  0  0  0  0  0  0  0
    3.0633    0.7357    0.0730 C   0  0  0  0  0  0  0  0  0  0  0  0
    4.2787    0.8877   -0.0118 O   0  0  0  0  0  0  0  0  0  0  0  0
    2.3995    0.1177    1.3053 C   0  0  0  0  0  0  0  0  0  0  0  0
    1.1580   -0.5397    1.0252 O   0  0  0  0  0  0  0  0  0  0  0  0
    1.2782   -1.8206    0.5884 C   0  0  0  0  0  0  0  0  0  0  0  0
    2.3353   -2.4089    0.4267 O   0  0  0  0  0  0  0  0  0  0  0  0
   -0.0556   -2.4580    0.3587 C   0  0  0  0  0  0  0  0  0  0  0  0
   -0.0428   -3.8643    0.2823 C   0  0  0  0  0  0  0  0  0  0  0  0
   -1.2157   -4.5783    0.0488 C   0  0  0  0  0  0  0  0  0  0  0  0
   -2.4130   -3.8943   -0.1173 C   0  0  0  0  0  0  0  0  0  0  0  0
   -2.4418   -2.4978   -0.0523 C   0  0  0  0  0  0  0  0  0  0  0  0
   -1.2746   -1.7587    0.1854 C   0  0  0  0  0  0  0  0  0  0  0  0
   -1.2921   -0.3485    0.2395 N   0  0  0  0  0  0  0  0  0  0  0  0
   -2.3293    0.5388    0.0310 C   0  0  0  0  0  0  0  0  0  0  0  0
   -3.4897    0.2378   -0.2227 O   0  0  0  0  0  0  0  0  0  0  0  0
   -1.8917    1.9216    0.1341 C   0  0  0  0  0  0  0  0  0  0  0  0
   -2.5925    3.1087    0.0387 C   0  0  0  0  0  0  0  0  0  0  0  0
   -1.6543    4.1533    0.2155 C   0  0  0  0  0  0  0  0  0  0  0  0
   -0.4355    3.5470    0.4050 C   0  0  0  0  0  0  0  0  0  0  0  0
   -0.5614    2.1950    0.3526 O   0  0  0  0  0  0  0  0  0  0  0  0
    2.8663    2.9049   -1.7875 H   0  0  0  0  0  0  0  0  0  0  0  0
    1.8492    1.8531   -2.8151 H   0  0  0  0  0  0  0  0  0  0  0  0
    3.5427    1.3945   -2.4574 H   0  0  0  0  0  0  0  0  0  0  0  0
    1.2016    1.2681   -0.6361 H   0  0  0  0  0  0  0  0  0  0  0  0
    3.1032   -0.5607    1.8014 H   0  0  0  0  0  0  0  0  0  0  0  0
    2.1833    0.9333    2.0036 H   0  0  0  0  0  0  0  0  0  0  0  0
    0.8906   -4.4132    0.4028 H   0  0  0  0  0  0  0  0  0  0  0  0
   -1.1928   -5.6640   -0.0072 H   0  0  0  0  0  0  0  0  0  0  0  0
   -3.3334   -4.4439   -0.3022 H   0  0  0  0  0  0  0  0  0  0  0  0
   -3.4056   -2.0165   -0.1908 H   0  0  0  0  0  0  0  0  0  0  0  0
   -0.4103    0.0916    0.4862 H   0  0  0  0  0  0  0  0  0  0  0  0
   -3.6570    3.1954   -0.1362 H   0  0  0  0  0  0  0  0  0  0  0  0
   -1.8437    5.2181    0.2066 H   0  0  0  0  0  0  0  0  0  0  0  0
    0.5648    3.9209    0.5795 H   0  0  0  0  0  0  0  0  0  0  0  0
  1  2  1  0
  2  3  1  0
  3  4  2  0
  3  5  1  0
  5  6  1  0
  6  7  1  0
  7  8  2  0
  7  9  1  0
  9 10  2  0
 10 11  1  0
 11 12  2  0
 12 13  1  0
 13 14  2  0
 14 15  1  0
 15 16  1  0
 16 17  2  0
 16 18  1  0
 18 19  2  0
 19 20  1  0
 20 21  2  0
 21 22  1  0
 14  9  1  0
 22 18  1  0
  1 23  1  0
  1 24  1  0
  1 25  1  0
  2 26  1  0
  5 27  1  0
  5 28  1  0
 10 29  1  0
 11 30  1  0
 12 31  1  0
 13 32  1  0
 15 33  1  0
 19 34  1  0
 20 35  1  0
 21 36  1  0
M  END
$$$$
