
     RDKit          3D

 36 37  0  0  0  0  0  0  0  0999 V2000
   -4.9789   -1.4790   -0.8521 C   0  0  0  0  0  0  0  0  0  0  0  0
   -4.2057   -0.3002   -0.5075 N   0  0  0  0  0  0  0  0  0  0  0  0
   -4.7299    0.5649    0.4438 C   0  0  0  0  0  0  0  0  0  0  0  0
   -5.8068    0.3816    1.0079 O   0  0  0  0  0  0  0  0  0  0  0  0
   -3.9106    1.7509    0.7763 C   0  0  0  0  0  0  0  0  0  0  0  0
   -4.3914    2.7106    1.7037 C   0  0  0  0  0  0  0  0  0  0  0  0
   -4.7270    3.5327    2.4512 N   0  0  0  0  0  0  0  0  0  0  0  0
   -2.7154    1.8824    0.1926 C   0  0  0  0  0  0  0  0  0  0  0  0
   -2.2259    0.9596   -0.7055 N   0  0  0  0  0  0  0  0  0  0  0  0
   -0.8797    1.1430   -1.2617 C   0  0  0  0  0  0  0  0  0  0  0  0
    0.1902    0.3506   -0.4920 C   0  0  0  0  0  0  0  0  0  0  0  0
    1.5067    0.5847   -1.0866 N   0  0  0  0  0  0  0  0  0  0  0  0
    2.5829   -0.0029   -0.3898 C   0  0  0  0  0  0  0  0  0  0  0  0
    2.3755   -0.4913    0.8551 N   0  0  0  0  0  0  0  0  0  0  0  0
    3.4309   -1.0034    1.5334 C   0  0  0  0  0  0  0  0  0  0  0  0
    4.7223   -1.0603    1.0349 C   0  0  0  0  0  0  0  0  0  0  0  0
    5.8286   -1.6232    1.8703 C   0  0  0  0  0  0  0  0  0  0  0  0
    6.3582   -0.6995    2.7165 F   0  0  0  0  0  0  0  0  0  0  0  0
    6.8690   -2.0946    1.1296 F   0  0  0  0  0  0  0  0  0  0  0  0
    5.4272   -2.6627    2.6519 F   0  0  0  0  0  0  0  0  0  0  0  0
    4.9390   -0.5394   -0.2422 C   0  0  0  0  0  0  0  0  0  0  0  0
    3.8675   -0.0059   -0.9590 C   0  0  0  0  0  0  0  0  0  0  0  0
    4.1626    0.6162   -2.5435 Cl  0  0  0  0  0  0  0  0  0  0  0  0
   -2.9336   -0.1870   -1.0626 C   0  0  0  0  0  0  0  0  0  0  0  0
   -2.4526   -1.0401   -1.8083 O   0  0  0  0  0  0  0  0  0  0  0  0
   -4.8079   -1.7614   -1.8955 H   0  0  0  0  0  0  0  0  0  0  0  0
   -6.0497   -1.3112   -0.7054 H   0  0  0  0  0  0  0  0  0  0  0  0
   -4.6557   -2.3018   -0.2066 H   0  0  0  0  0  0  0  0  0  0  0  0
   -2.0736    2.7334    0.4149 H   0  0  0  0  0  0  0  0  0  0  0  0
   -0.8886    0.8220   -2.3113 H   0  0  0  0  0  0  0  0  0  0  0  0
   -0.6314    2.2120   -1.2704 H   0  0  0  0  0  0  0  0  0  0  0  0
   -0.0480   -0.7199   -0.5104 H   0  0  0  0  0  0  0  0  0  0  0  0
    0.1719    0.6835    0.5536 H   0  0  0  0  0  0  0  0  0  0  0  0
    1.5542    0.2811   -2.0587 H   0  0  0  0  0  0  0  0  0  0  0  0
    3.1893   -1.3773    2.5271 H   0  0  0  0  0  0  0  0  0  0  0  0
    5.9366   -0.5477   -0.6767 H   0  0  0  0  0  0  0  0  0  0  0  0
  1  2  1  0
  2  3  1  0
  3  4  2  0
  3  5  1  0
  5  6  1  0
  6  7  3  0
  5  8  2  0
  8  9  1  0
  9 10  1  0
 10 11  1  0
 11 12  1  0
 12 13  1  0
 13 14  2  0
 14 15  1  0
 15 16  2  0
 16 17  1  0
 17 18  1  0
 17 19  1  0
 17 20  1  0
 16 21  1  0
 21 22  2  0
 22 23  1  0
  9 24  1  0
 24 25  2  0
 24  2  1  0
 22 13  1  0
  1 26  1  0
  1 27  1  0
  1 28  1  0
  8 29  1  0
 10 30  1  0
 10 31  1  0
 11 32  1  0
 11 33  1  0
 12 34  1  0
 15 35  1  0
 21 36  1  0
M  END
$$$$
