
     RDKit          3D

 33 34  0  0  0  0  0  0  0  0999 V2000
    2.5433   -0.6428   -3.9092 C   0  0  0  0  0  0  0  0  0  0  0  0
    2.3988   -1.0522   -2.4513 C   0  0  0  0  0  0  0  0  0  0  0  0
    0.9527   -1.3646   -2.0793 C   0  0  0  0  0  0  0  0  0  0  0  0
    0.0169   -1.1135   -2.8485 O   0  0  0  0  0  0  0  0  0  0  0  0
    0.6536   -1.9197   -0.7007 C   0  0  0  0  0  0  0  0  0  0  0  0
    1.4960   -3.0811   -0.3930 C   0  0  0  0  0  0  0  0  0  0  0  0
    2.1233   -4.0362   -0.1870 N   0  0  0  0  0  0  0  0  0  0  0  0
    0.8110   -0.8228    0.2949 C   0  0  0  0  0  0  0  0  0  0  0  0
    1.9407   -0.4496    0.8592 N   0  0  0  0  0  0  0  0  0  0  0  0
    1.6703    0.5656    1.7307 N   0  0  0  0  0  0  0  0  0  0  0  0
    0.3798    0.8200    1.6906 C   0  0  0  0  0  0  0  0  0  0  0  0
   -0.2015   -0.0056    0.7571 N   0  0  0  0  0  0  0  0  0  0  0  0
   -1.5927   -0.0440    0.3472 C   0  0  0  0  0  0  0  0  0  0  0  0
   -2.3447    1.2789    0.4592 C   0  0  0  0  0  0  0  0  0  0  0  0
   -2.7748    1.6261    1.8839 C   0  0  0  0  0  0  0  0  0  0  0  0
   -1.7096    1.4254    2.9634 C   0  0  0  0  0  0  0  0  0  0  0  0
   -0.3111    1.8455    2.5244 C   0  0  0  0  0  0  0  0  0  0  0  0
    3.5886   -0.4098   -4.1360 H   0  0  0  0  0  0  0  0  0  0  0  0
    2.2203   -1.4517   -4.5754 H   0  0  0  0  0  0  0  0  0  0  0  0
    1.9374    0.2411   -4.1384 H   0  0  0  0  0  0  0  0  0  0  0  0
    3.0146   -1.9400   -2.2803 H   0  0  0  0  0  0  0  0  0  0  0  0
    2.7594   -0.2424   -1.8072 H   0  0  0  0  0  0  0  0  0  0  0  0
   -0.3845   -2.2758   -0.7091 H   0  0  0  0  0  0  0  0  0  0  0  0
   -1.6068   -0.3418   -0.7065 H   0  0  0  0  0  0  0  0  0  0  0  0
   -2.0799   -0.8346    0.9289 H   0  0  0  0  0  0  0  0  0  0  0  0
   -3.2499    1.2256   -0.1578 H   0  0  0  0  0  0  0  0  0  0  0  0
   -1.7400    2.0964    0.0434 H   0  0  0  0  0  0  0  0  0  0  0  0
   -3.1049    2.6735    1.8939 H   0  0  0  0  0  0  0  0  0  0  0  0
   -3.6565    1.0294    2.1532 H   0  0  0  0  0  0  0  0  0  0  0  0
   -1.7074    0.3763    3.2888 H   0  0  0  0  0  0  0  0  0  0  0  0
   -2.0031    2.0160    3.8405 H   0  0  0  0  0  0  0  0  0  0  0  0
   -0.3358    2.8050    1.9941 H   0  0  0  0  0  0  0  0  0  0  0  0
    0.2963    2.0036    3.4261 H   0  0  0  0  0  0  0  0  0  0  0  0
  1  2  1  0
  2  3  1  0
  3  4  2  0
  3  5  1  0
  5  6  1  0
  6  7  3  0
  5  8  1  0
  8  9  2  0
  9 10  1  0
 10 11  2  0
 11 12  1  0
 12 13  1  0
 13 14  1  0
 14 15  1  0
 15 16  1  0
 16 17  1  0
 12  8  1  0
 17 11  1  0
  1 18  1  0
  1 19  1  0
  1 20  1  0
  2 21  1  0
  2 22  1  0
  5 23  1  0
 13 24  1  0
 13 25  1  0
 14 26  1  0
 14 27  1  0
 15 28  1  0
 15 29  1  0
 16 30  1  0
 16 31  1  0
 17 32  1  0
 17 33  1  0
M  END
$$$$
