
     RDKit          3D

 52 55  0  0  0  0  0  0  0  0999 V2000
    3.2287   -1.6222    1.7635 O   0  0  0  0  0  0  0  0  0  0  0  0
    3.2159   -0.5058    1.2523 C   0  0  0  0  0  0  0  0  0  0  0  0
    2.2720    0.4605    1.5631 N   0  0  0  0  0  0  0  0  0  0  0  0
    1.1909    0.0410    2.3897 N   0  0  0  0  0  0  0  0  0  0  0  0
   -0.0395    0.0286    1.6845 C   0  0  0  0  0  0  0  0  0  0  0  0
   -0.6021    1.2066    1.2435 C   0  0  0  0  0  0  0  0  0  0  0  0
   -1.7913    1.1222    0.5554 C   0  0  0  0  0  0  0  0  0  0  0  0
   -2.4128    2.2544    0.0564 N   0  0  0  0  0  0  0  0  0  0  0  0
   -2.3572    3.5318    0.7664 C   0  0  0  0  0  0  0  0  0  0  0  0
   -3.7071    4.1919    0.4786 C   0  0  0  0  0  0  0  0  0  0  0  0
   -4.1682    3.5278   -0.8086 C   0  0  0  0  0  0  0  0  0  0  0  0
   -3.6980    2.0900   -0.6197 C   0  0  0  0  0  0  0  0  0  0  0  0
   -2.3455   -0.0767    0.3125 N   0  0  0  0  0  0  0  0  0  0  0  0
   -1.7572   -1.1845    0.7890 C   0  0  0  0  0  0  0  0  0  0  0  0
   -2.3609   -2.3955    0.5679 N   0  0  0  0  0  0  0  0  0  0  0  0
   -1.6372   -3.6286    0.8130 C   0  0  0  0  0  0  0  0  0  0  0  0
   -2.5931   -4.6892    0.2740 C   0  0  0  0  0  0  0  0  0  0  0  0
   -3.2205   -3.9936   -0.9258 C   0  0  0  0  0  0  0  0  0  0  0  0
   -3.3689   -2.5399   -0.4686 C   0  0  0  0  0  0  0  0  0  0  0  0
   -0.6153   -1.1596    1.4854 N   0  0  0  0  0  0  0  0  0  0  0  0
    4.2204   -0.1398    0.2166 C   0  0  0  0  0  0  0  0  0  0  0  0
    4.6034    1.1896   -0.0135 C   0  0  0  0  0  0  0  0  0  0  0  0
    5.5566    1.4858   -0.9949 C   0  0  0  0  0  0  0  0  0  0  0  0
    6.1318    0.4472   -1.7417 C   0  0  0  0  0  0  0  0  0  0  0  0
    7.1321    0.7586   -2.7716 N   0  0  0  0  0  4  0  0  0  0  0  0
    7.4214    1.9504   -2.9493 O   0  0  0  0  0  0  0  0  0  0  0  0
    7.6241   -0.1872   -3.4024 O   0  0  0  0  0  1  0  0  0  0  0  0
    5.7649   -0.8841   -1.5084 C   0  0  0  0  0  0  0  0  0  0  0  0
    4.8129   -1.1726   -0.5258 C   0  0  0  0  0  0  0  0  0  0  0  0
    2.1000    1.2555    0.9583 H   0  0  0  0  0  0  0  0  0  0  0  0
    1.3399   -0.9499    2.6401 H   0  0  0  0  0  0  0  0  0  0  0  0
   -0.1217    2.1537    1.4381 H   0  0  0  0  0  0  0  0  0  0  0  0
   -2.2207    3.4229    1.8484 H   0  0  0  0  0  0  0  0  0  0  0  0
   -1.5379    4.1376    0.3640 H   0  0  0  0  0  0  0  0  0  0  0  0
   -4.4120    3.9642    1.2875 H   0  0  0  0  0  0  0  0  0  0  0  0
   -3.6304    5.2795    0.3930 H   0  0  0  0  0  0  0  0  0  0  0  0
   -3.6634    3.9840   -1.6686 H   0  0  0  0  0  0  0  0  0  0  0  0
   -5.2484    3.6004   -0.9615 H   0  0  0  0  0  0  0  0  0  0  0  0
   -4.4133    1.5463    0.0105 H   0  0  0  0  0  0  0  0  0  0  0  0
   -3.5960    1.5764   -1.5815 H   0  0  0  0  0  0  0  0  0  0  0  0
   -1.4294   -3.7886    1.8761 H   0  0  0  0  0  0  0  0  0  0  0  0
   -0.6951   -3.6513    0.2514 H   0  0  0  0  0  0  0  0  0  0  0  0
   -3.3648   -4.9179    1.0190 H   0  0  0  0  0  0  0  0  0  0  0  0
   -2.0827   -5.6189    0.0081 H   0  0  0  0  0  0  0  0  0  0  0  0
   -4.1744   -4.4372   -1.2246 H   0  0  0  0  0  0  0  0  0  0  0  0
   -2.5379   -4.0456   -1.7829 H   0  0  0  0  0  0  0  0  0  0  0  0
   -3.2267   -1.8673   -1.3223 H   0  0  0  0  0  0  0  0  0  0  0  0
   -4.3636   -2.3674   -0.0431 H   0  0  0  0  0  0  0  0  0  0  0  0
    4.1954    2.0048    0.5790 H   0  0  0  0  0  0  0  0  0  0  0  0
    5.8457    2.5230   -1.1573 H   0  0  0  0  0  0  0  0  0  0  0  0
    6.2071   -1.7027   -2.0735 H   0  0  0  0  0  0  0  0  0  0  0  0
    4.5306   -2.2087   -0.3399 H   0  0  0  0  0  0  0  0  0  0  0  0
  1  2  2  0
  2  3  1  0
  3  4  1  0
  4  5  1  0
  5  6  2  0
  6  7  1  0
  7  8  1  0
  8  9  1  0
  9 10  1  0
 10 11  1  0
 11 12  1  0
  7 13  2  0
 13 14  1  0
 14 15  1  0
 15 16  1  0
 16 17  1  0
 17 18  1  0
 18 19  1  0
 14 20  2  0
  2 21  1  0
 21 22  2  0
 22 23  1  0
 23 24  2  0
 24 25  1  0
 25 26  2  0
 25 27  1  0
 24 28  1  0
 28 29  2  0
 20  5  1  0
 29 21  1  0
 12  8  1  0
 19 15  1  0
  3 30  1  0
  4 31  1  0
  6 32  1  0
  9 33  1  0
  9 34  1  0
 10 35  1  0
 10 36  1  0
 11 37  1  0
 11 38  1  0
 12 39  1  0
 12 40  1  0
 16 41  1  0
 16 42  1  0
 17 43  1  0
 17 44  1  0
 18 45  1  0
 18 46  1  0
 19 47  1  0
 19 48  1  0
 22 49  1  0
 23 50  1  0
 28 51  1  0
 29 52  1  0
M  CHG  2  25   1  27  -1
M  END
$$$$
