
     RDKit          3D

 57 60  0  0  0  0  0  0  0  0999 V2000
   -4.5344    3.5014    1.6448 C   0  0  0  0  0  0  0  0  0  0  0  0
   -4.0705    2.6469    0.5956 O   0  0  0  0  0  0  0  0  0  0  0  0
   -3.0178    1.8835    1.0145 C   0  0  0  0  0  0  0  0  0  0  0  0
   -1.7593    2.4952    1.0927 C   0  0  0  0  0  0  0  0  0  0  0  0
   -0.6389    1.7551    1.4693 C   0  0  0  0  0  0  0  0  0  0  0  0
   -0.7747    0.3924    1.7471 C   0  0  0  0  0  0  0  0  0  0  0  0
    0.3945   -0.4013    2.1826 C   0  0  0  0  0  0  0  0  0  0  0  0
    0.3124   -0.9828    3.2606 O   0  0  0  0  0  0  0  0  0  0  0  0
    1.5284   -0.4300    1.3702 N   0  0  0  0  0  0  0  0  0  0  0  0
    1.4606   -0.2876   -0.0935 C   0  0  0  0  0  0  0  0  0  0  0  0
    2.8111    0.1098   -0.7197 C   0  0  0  0  0  0  0  0  0  0  0  0
    3.8869   -0.8008   -0.2618 N   0  0  0  0  0  0  0  0  0  0  0  0
    5.0780   -0.6639   -0.9958 C   0  0  0  0  0  0  0  0  0  0  0  0
    6.2941   -0.2466   -0.4355 C   0  0  0  0  0  0  0  0  0  0  0  0
    7.4547   -0.1327   -1.2107 C   0  0  0  0  0  0  0  0  0  0  0  0
    7.4255   -0.4447   -2.5658 C   0  0  0  0  0  0  0  0  0  0  0  0
    6.2371   -0.8747   -3.1442 C   0  0  0  0  0  0  0  0  0  0  0  0
    5.0813   -0.9841   -2.3649 C   0  0  0  0  0  0  0  0  0  0  0  0
    3.9900   -0.8524    1.2134 C   0  0  0  0  0  0  0  0  0  0  0  0
    2.6442   -1.2636    1.8351 C   0  0  0  0  0  0  0  0  0  0  0  0
   -2.0271   -0.2243    1.6788 C   0  0  0  0  0  0  0  0  0  0  0  0
   -3.1499    0.5160    1.2754 C   0  0  0  0  0  0  0  0  0  0  0  0
   -4.7242   -0.3189    1.2192 S   0  0  0  0  0  6  0  0  0  0  0  0
   -4.5895   -1.5187    2.0217 O   0  0  0  0  0  0  0  0  0  0  0  0
   -5.7760    0.6316    1.5088 O   0  0  0  0  0  0  0  0  0  0  0  0
   -4.8756   -0.8168   -0.3804 N   0  0  0  0  0  0  0  0  0  0  0  0
   -5.1757    0.1595   -1.4445 C   0  0  0  0  0  0  0  0  0  0  0  0
   -4.2760   -0.2510   -2.6040 C   0  0  0  0  0  0  0  0  0  0  0  0
   -4.1351   -1.7499   -2.4141 C   0  0  0  0  0  0  0  0  0  0  0  0
   -3.9950   -1.8771   -0.9029 C   0  0  0  0  0  0  0  0  0  0  0  0
   -4.6235    2.9701    2.5994 H   0  0  0  0  0  0  0  0  0  0  0  0
   -3.8713    4.3659    1.7546 H   0  0  0  0  0  0  0  0  0  0  0  0
   -5.5263    3.8672    1.3639 H   0  0  0  0  0  0  0  0  0  0  0  0
   -1.6517    3.5523    0.8608 H   0  0  0  0  0  0  0  0  0  0  0  0
    0.3303    2.2408    1.5546 H   0  0  0  0  0  0  0  0  0  0  0  0
    0.7009    0.4388   -0.3885 H   0  0  0  0  0  0  0  0  0  0  0  0
    1.1394   -1.2604   -0.4871 H   0  0  0  0  0  0  0  0  0  0  0  0
    2.6928    0.0916   -1.8090 H   0  0  0  0  0  0  0  0  0  0  0  0
    3.0584    1.1393   -0.4288 H   0  0  0  0  0  0  0  0  0  0  0  0
    6.3676    0.0158    0.6151 H   0  0  0  0  0  0  0  0  0  0  0  0
    8.3813    0.1989   -0.7495 H   0  0  0  0  0  0  0  0  0  0  0  0
    8.3271   -0.3611   -3.1658 H   0  0  0  0  0  0  0  0  0  0  0  0
    6.2062   -1.1364   -4.1980 H   0  0  0  0  0  0  0  0  0  0  0  0
    4.1737   -1.3553   -2.8344 H   0  0  0  0  0  0  0  0  0  0  0  0
    4.7474   -1.5832    1.5215 H   0  0  0  0  0  0  0  0  0  0  0  0
    4.2746    0.1331    1.6040 H   0  0  0  0  0  0  0  0  0  0  0  0
    2.7191   -1.2116    2.9270 H   0  0  0  0  0  0  0  0  0  0  0  0
    2.4050   -2.3007    1.5686 H   0  0  0  0  0  0  0  0  0  0  0  0
   -2.1174   -1.2774    1.9426 H   0  0  0  0  0  0  0  0  0  0  0  0
   -4.9962    1.1957   -1.1621 H   0  0  0  0  0  0  0  0  0  0  0  0
   -6.2311    0.0557   -1.7192 H   0  0  0  0  0  0  0  0  0  0  0  0
   -3.2963    0.2328   -2.5086 H   0  0  0  0  0  0  0  0  0  0  0  0
   -4.6978    0.0176   -3.5763 H   0  0  0  0  0  0  0  0  0  0  0  0
   -3.2797   -2.1688   -2.9507 H   0  0  0  0  0  0  0  0  0  0  0  0
   -5.0429   -2.2608   -2.7569 H   0  0  0  0  0  0  0  0  0  0  0  0
   -4.3141   -2.8636   -0.5564 H   0  0  0  0  0  0  0  0  0  0  0  0
   -2.9548   -1.7058   -0.6120 H   0  0  0  0  0  0  0  0  0  0  0  0
  1  2  1  0
  2  3  1  0
  3  4  2  0
  4  5  1  0
  5  6  2  0
  6  7  1  0
  7  8  2  0
  7  9  1  0
  9 10  1  0
 10 11  1  0
 11 12  1  0
 12 13  1  0
 13 14  2  0
 14 15  1  0
 15 16  2  0
 16 17  1  0
 17 18  2  0
 12 19  1  0
 19 20  1  0
  6 21  1  0
 21 22  2  0
 22 23  1  0
 23 24  2  0
 23 25  2  0
 23 26  1  0
 26 27  1  0
 27 28  1  0
 28 29  1  0
 29 30  1  0
 22  3  1  0
 30 26  1  0
 20  9  1  0
 18 13  1  0
  1 31  1  0
  1 32  1  0
  1 33  1  0
  4 34  1  0
  5 35  1  0
 10 36  1  0
 10 37  1  0
 11 38  1  0
 11 39  1  0
 14 40  1  0
 15 41  1  0
 16 42  1  0
 17 43  1  0
 18 44  1  0
 19 45  1  0
 19 46  1  0
 20 47  1  0
 20 48  1  0
 21 49  1  0
 27 50  1  0
 27 51  1  0
 28 52  1  0
 28 53  1  0
 29 54  1  0
 29 55  1  0
 30 56  1  0
 30 57  1  0
M  END
$$$$
