
     RDKit          3D

 39 41  0  0  0  0  0  0  0  0999 V2000
    2.7304    1.2443   -2.2339 O   0  0  0  0  0  0  0  0  0  0  0  0
    2.0445    0.8564   -1.2922 C   0  0  0  0  0  0  0  0  0  0  0  0
    2.3678   -0.1762   -0.4410 N   0  0  0  0  0  0  0  0  0  0  0  0
    3.5589   -0.9401   -0.3977 C   0  0  0  0  0  0  0  0  0  0  0  0
    3.5076   -2.1315    0.3425 C   0  0  0  0  0  0  0  0  0  0  0  0
    2.3622   -2.4830    0.9483 F   0  0  0  0  0  0  0  0  0  0  0  0
    4.6024   -2.9820    0.4585 C   0  0  0  0  0  0  0  0  0  0  0  0
    5.7859   -2.6320   -0.1702 C   0  0  0  0  0  0  0  0  0  0  0  0
    6.8504   -3.4373   -0.0705 F   0  0  0  0  0  0  0  0  0  0  0  0
    5.8860   -1.4515   -0.8924 C   0  0  0  0  0  0  0  0  0  0  0  0
    4.7788   -0.6090   -0.9984 C   0  0  0  0  0  0  0  0  0  0  0  0
    4.9705    0.5545   -1.6314 F   0  0  0  0  0  0  0  0  0  0  0  0
    0.7096    1.4950   -1.0331 C   0  0  0  0  0  0  0  0  0  0  0  0
    0.3247    2.5049   -1.8347 C   0  0  0  0  0  0  0  0  0  0  0  0
   -0.9278    3.1883   -1.6464 C   0  0  0  0  0  0  0  0  0  0  0  0
   -1.7386    2.8306   -0.6464 C   0  0  0  0  0  0  0  0  0  0  0  0
   -1.3982    1.8003    0.2144 N   0  0  0  0  0  0  0  0  0  0  0  0
   -2.3147    1.4387    1.2968 C   0  0  0  0  0  0  0  0  0  0  0  0
   -3.3466    0.3805    0.9601 C   0  0  0  0  0  0  0  0  0  0  0  0
   -3.5968   -0.0742   -0.3428 C   0  0  0  0  0  0  0  0  0  0  0  0
   -4.5749   -1.0424   -0.5860 C   0  0  0  0  0  0  0  0  0  0  0  0
   -5.3199   -1.5668    0.4680 C   0  0  0  0  0  0  0  0  0  0  0  0
   -5.0902   -1.1220    1.7668 C   0  0  0  0  0  0  0  0  0  0  0  0
   -4.1134   -0.1547    2.0098 C   0  0  0  0  0  0  0  0  0  0  0  0
   -0.2040    1.0847    0.0866 C   0  0  0  0  0  0  0  0  0  0  0  0
    0.1144    0.1561    0.8293 O   0  0  0  0  0  0  0  0  0  0  0  0
    1.6324   -0.4908    0.1992 H   0  0  0  0  0  0  0  0  0  0  0  0
    4.5292   -3.9021    1.0259 H   0  0  0  0  0  0  0  0  0  0  0  0
    6.8254   -1.1732   -1.3604 H   0  0  0  0  0  0  0  0  0  0  0  0
    0.9508    2.8447   -2.6575 H   0  0  0  0  0  0  0  0  0  0  0  0
   -1.1897    3.9942   -2.3257 H   0  0  0  0  0  0  0  0  0  0  0  0
   -2.6888    3.3304   -0.4813 H   0  0  0  0  0  0  0  0  0  0  0  0
   -1.7197    1.0829    2.1463 H   0  0  0  0  0  0  0  0  0  0  0  0
   -2.8340    2.3453    1.6327 H   0  0  0  0  0  0  0  0  0  0  0  0
   -3.0326    0.3078   -1.1887 H   0  0  0  0  0  0  0  0  0  0  0  0
   -4.7516   -1.3914   -1.6008 H   0  0  0  0  0  0  0  0  0  0  0  0
   -6.0769   -2.3233    0.2781 H   0  0  0  0  0  0  0  0  0  0  0  0
   -5.6680   -1.5313    2.5924 H   0  0  0  0  0  0  0  0  0  0  0  0
   -3.9456    0.1754    3.0330 H   0  0  0  0  0  0  0  0  0  0  0  0
  1  2  2  0
  2  3  1  0
  3  4  1  0
  4  5  2  0
  5  6  1  0
  5  7  1  0
  7  8  2  0
  8  9  1  0
  8 10  1  0
 10 11  2  0
 11 12  1  0
  2 13  1  0
 13 14  2  0
 14 15  1  0
 15 16  2  0
 16 17  1  0
 17 18  1  0
 18 19  1  0
 19 20  2  0
 20 21  1  0
 21 22  2  0
 22 23  1  0
 23 24  2  0
 17 25  1  0
 25 26  2  0
 11  4  1  0
 25 13  1  0
 24 19  1  0
  3 27  1  0
  7 28  1  0
 10 29  1  0
 14 30  1  0
 15 31  1  0
 16 32  1  0
 18 33  1  0
 18 34  1  0
 20 35  1  0
 21 36  1  0
 22 37  1  0
 23 38  1  0
 24 39  1  0
M  END
$$$$
