
     RDKit          3D

 46 50  0  0  0  0  0  0  0  0999 V2000
    4.0571    1.5111    1.1246 O   0  0  0  0  0  0  0  0  0  0  0  0
    4.8381    0.7867    0.5277 C   0  0  0  0  0  0  0  0  0  0  0  0
    4.5893   -0.4726    0.0170 O   0  0  0  0  0  0  0  0  0  0  0  0
    3.2821   -0.9140    0.2371 C   0  0  0  0  0  0  0  0  0  0  0  0
    3.0707   -1.8964    1.2042 C   0  0  0  0  0  0  0  0  0  0  0  0
    1.7793   -2.3820    1.4104 C   0  0  0  0  0  0  0  0  0  0  0  0
    0.7202   -1.8873    0.6383 C   0  0  0  0  0  0  0  0  0  0  0  0
   -0.6518   -2.3860    0.8424 C   0  0  0  0  0  0  0  0  0  0  0  0
   -0.8912   -3.2512    1.6767 O   0  0  0  0  0  0  0  0  0  0  0  0
   -1.7121   -1.7819   -0.0079 C   0  0  0  0  0  0  0  0  0  0  0  0
   -3.0032   -2.2598    0.1658 O   0  0  0  0  0  0  0  0  0  0  0  0
   -4.0547   -1.4378   -0.1560 C   0  0  0  0  0  0  0  0  0  0  0  0
   -4.9391   -1.8640   -1.1417 C   0  0  0  0  0  0  0  0  0  0  0  0
   -6.0308   -1.0640   -1.4813 C   0  0  0  0  0  0  0  0  0  0  0  0
   -6.2545    0.1591   -0.8267 C   0  0  0  0  0  0  0  0  0  0  0  0
   -7.3469    0.9760   -1.1587 C   0  0  0  0  0  0  0  0  0  0  0  0
   -7.5612    2.1850   -0.4946 C   0  0  0  0  0  0  0  0  0  0  0  0
   -6.6885    2.5918    0.5104 C   0  0  0  0  0  0  0  0  0  0  0  0
   -5.5976    1.7917    0.8537 C   0  0  0  0  0  0  0  0  0  0  0  0
   -5.3654    0.5745    0.1937 C   0  0  0  0  0  0  0  0  0  0  0  0
   -4.2719   -0.2394    0.5269 C   0  0  0  0  0  0  0  0  0  0  0  0
   -1.3267   -0.8724   -0.9187 C   0  0  0  0  0  0  0  0  0  0  0  0
   -0.0500   -0.4087   -1.1278 O   0  0  0  0  0  0  0  0  0  0  0  0
    0.9497   -0.9183   -0.3389 C   0  0  0  0  0  0  0  0  0  0  0  0
    2.2378   -0.4303   -0.5516 C   0  0  0  0  0  0  0  0  0  0  0  0
    6.2401    1.1695    0.2487 C   0  0  0  0  0  0  0  0  0  0  0  0
    6.6813    2.4112    0.6947 C   0  0  0  0  0  0  0  0  0  0  0  0
    7.9400    2.8804    0.5030 N   0  0  0  0  0  0  0  0  0  0  0  0
    8.7960    2.0709   -0.1639 C   0  0  0  0  0  0  0  0  0  0  0  0
    8.4460    0.8183   -0.6449 C   0  0  0  0  0  0  0  0  0  0  0  0
    9.7032   -0.2449   -1.5637 Br  0  0  0  0  0  0  0  0  0  0  0  0
    7.1485    0.3568   -0.4379 C   0  0  0  0  0  0  0  0  0  0  0  0
    3.8976   -2.2779    1.7964 H   0  0  0  0  0  0  0  0  0  0  0  0
    1.5980   -3.1417    2.1683 H   0  0  0  0  0  0  0  0  0  0  0  0
   -4.7801   -2.8129   -1.6462 H   0  0  0  0  0  0  0  0  0  0  0  0
   -6.7115   -1.4047   -2.2585 H   0  0  0  0  0  0  0  0  0  0  0  0
   -8.0428    0.6745   -1.9385 H   0  0  0  0  0  0  0  0  0  0  0  0
   -8.4118    2.8071   -0.7609 H   0  0  0  0  0  0  0  0  0  0  0  0
   -6.8568    3.5318    1.0297 H   0  0  0  0  0  0  0  0  0  0  0  0
   -4.9285    2.1267    1.6433 H   0  0  0  0  0  0  0  0  0  0  0  0
   -3.5924    0.0544    1.3230 H   0  0  0  0  0  0  0  0  0  0  0  0
   -2.0021   -0.3927   -1.6159 H   0  0  0  0  0  0  0  0  0  0  0  0
    2.4203    0.3215   -1.3130 H   0  0  0  0  0  0  0  0  0  0  0  0
    6.0225    3.0888    1.2348 H   0  0  0  0  0  0  0  0  0  0  0  0
    9.7954    2.4754   -0.3000 H   0  0  0  0  0  0  0  0  0  0  0  0
    6.8586   -0.6222   -0.8090 H   0  0  0  0  0  0  0  0  0  0  0  0
  1  2  2  0
  2  3  1  0
  3  4  1  0
  4  5  2  0
  5  6  1  0
  6  7  2  0
  7  8  1  0
  8  9  2  0
  8 10  1  0
 10 11  1  0
 11 12  1  0
 12 13  2  0
 13 14  1  0
 14 15  2  0
 15 16  1  0
 16 17  2  0
 17 18  1  0
 18 19  2  0
 19 20  1  0
 20 21  2  0
 10 22  2  0
 22 23  1  0
 23 24  1  0
 24 25  2  0
  2 26  1  0
 26 27  2  0
 27 28  1  0
 28 29  2  0
 29 30  1  0
 30 31  1  0
 30 32  2  0
 25  4  1  0
 32 26  1  0
 24  7  1  0
 21 12  1  0
 20 15  1  0
  5 33  1  0
  6 34  1  0
 13 35  1  0
 14 36  1  0
 16 37  1  0
 17 38  1  0
 18 39  1  0
 19 40  1  0
 21 41  1  0
 22 42  1  0
 25 43  1  0
 27 44  1  0
 29 45  1  0
 32 46  1  0
M  END
$$$$
