
     RDKit          3D

 96102  0  0  0  0  0  0  0  0999 V2000
   -4.8111    1.7728    1.8962 C   0  0  0  0  0  0  0  0  0  0  0  0
   -4.3581    2.1097    0.4825 C   0  0  0  0  0  0  0  0  0  0  0  0
   -3.1118    1.3511    0.0545 C   0  0  0  0  0  0  0  0  0  0  0  0
   -1.9401    1.9914   -0.1758 C   0  0  0  0  0  0  0  0  0  0  0  0
   -1.8131    3.3769   -0.0028 O   0  0  0  0  0  0  0  0  0  0  0  0
   -1.5142    3.7449    1.2890 C   0  0  0  0  0  0  0  0  0  0  0  0
   -1.3717    2.9551    2.2207 O   0  0  0  0  0  0  0  0  0  0  0  0
   -1.4274    5.1220    1.4388 N   0  0  0  0  0  0  0  0  0  0  0  0
   -1.4499    6.0376    0.3021 C   0  0  0  0  0  0  0  0  0  0  0  0
   -2.8657    6.4895   -0.0254 C   0  0  0  0  0  0  0  0  0  0  0  0
   -1.1829    5.6734    2.7645 C   0  0  0  0  0  0  0  0  0  0  0  0
    0.3018    5.8214    3.0546 C   0  0  0  0  0  0  0  0  0  0  0  0
   -0.8149    1.3172   -0.6122 N   0  0  0  0  0  0  0  0  0  0  0  0
    0.4507    1.8517   -0.6767 C   0  0  0  0  0  0  0  0  0  0  0  0
    0.7908    3.0224   -0.6182 O   0  0  0  0  0  0  0  0  0  0  0  0
    1.3383    0.8359   -0.7547 O   0  0  0  0  0  0  0  0  0  0  0  0
    0.6561   -0.3324   -0.7168 C   0  0  0  0  0  0  0  0  0  0  0  0
    1.2364   -1.4760   -0.5865 N   0  0  0  0  0  0  0  0  0  0  0  0
    2.7126   -1.4720   -0.5264 C   0  0  0  0  0  0  0  0  0  0  0  0
    3.2163   -1.1315    0.8803 C   0  0  0  0  0  0  0  0  0  0  0  0
    4.6480   -1.5191    1.0789 C   0  0  0  0  0  0  0  0  0  0  0  0
    5.1008   -2.5797    1.8431 C   0  0  0  0  0  0  0  0  0  0  0  0
    6.4665   -2.6139    1.7694 N   0  0  0  0  0  0  0  0  0  0  0  0
    6.9241   -1.5948    0.9676 C   0  0  0  0  0  0  0  0  0  0  0  0
    8.2340   -1.2524    0.6101 C   0  0  0  0  0  0  0  0  0  0  0  0
    8.4088   -0.1449   -0.2266 C   0  0  0  0  0  0  0  0  0  0  0  0
    7.3148    0.5850   -0.6862 C   0  0  0  0  0  0  0  0  0  0  0  0
    6.0109    0.2279   -0.3206 C   0  0  0  0  0  0  0  0  0  0  0  0
    5.8066   -0.8843    0.5235 C   0  0  0  0  0  0  0  0  0  0  0  0
   -0.8336   -0.1174   -0.9163 C   0  0  0  0  0  0  0  0  0  0  0  0
   -1.1917   -0.4249   -2.4051 C   0  0  0  0  0  0  0  0  0  0  0  0
   -0.3485    0.2482   -3.4668 C   0  0  0  0  0  0  0  0  0  0  0  0
   -0.6341    1.5570   -3.8773 C   0  0  0  0  0  0  0  0  0  0  0  0
    0.1570    2.1845   -4.8391 C   0  0  0  0  0  0  0  0  0  0  0  0
    1.2437    1.5137   -5.3957 C   0  0  0  0  0  0  0  0  0  0  0  0
    1.5348    0.2104   -4.9984 C   0  0  0  0  0  0  0  0  0  0  0  0
    0.7379   -0.4211   -4.0443 C   0  0  0  0  0  0  0  0  0  0  0  0
   -1.7975   -0.8375    0.0680 C   0  0  0  0  0  0  0  0  0  0  0  0
   -3.1752   -0.1143   -0.0956 C   0  0  0  0  0  0  0  0  0  0  0  0
   -4.3183   -0.7462   -0.4431 C   0  0  0  0  0  0  0  0  0  0  0  0
   -4.4639   -2.2188   -0.7046 C   0  0  0  0  0  0  0  0  0  0  0  0
   -3.2092   -2.9618   -0.4201 C   0  0  0  0  0  0  0  0  0  0  0  0
   -1.9623   -2.3473   -0.0671 C   0  0  0  0  0  0  0  0  0  0  0  0
   -1.1098   -3.3925    0.2414 C   0  0  0  0  0  0  0  0  0  0  0  0
    0.1355   -3.4327    0.6925 O   0  0  0  0  0  0  0  0  0  0  0  0
   -1.7644   -4.5828    0.0080 N   0  0  0  0  0  0  0  0  0  0  0  0
   -1.1075   -5.8800    0.0930 C   0  0  0  0  0  0  0  0  0  0  0  0
   -0.9497   -6.3947    1.4990 C   0  0  0  0  0  0  0  0  0  0  0  0
   -0.0722   -7.1891    1.8283 O   0  0  0  0  0  0  0  0  0  0  0  0
   -1.9501   -5.9767    2.3253 O   0  0  0  0  0  0  0  0  0  0  0  0
   -1.8233   -6.4146    3.6782 C   0  0  0  0  0  0  0  0  0  0  0  0
   -3.0597   -4.3316   -0.3722 C   0  0  0  0  0  0  0  0  0  0  0  0
   -3.9676   -5.2709   -0.6163 O   0  0  0  0  0  0  0  0  0  0  0  0
   -5.1733    0.7409    1.9711 H   0  0  0  0  0  0  0  0  0  0  0  0
   -5.6323    2.4333    2.1896 H   0  0  0  0  0  0  0  0  0  0  0  0
   -3.9976    1.9027    2.6154 H   0  0  0  0  0  0  0  0  0  0  0  0
   -4.1879    3.1917    0.4365 H   0  0  0  0  0  0  0  0  0  0  0  0
   -5.1741    1.9361   -0.2281 H   0  0  0  0  0  0  0  0  0  0  0  0
   -0.8179    6.9038    0.5296 H   0  0  0  0  0  0  0  0  0  0  0  0
   -1.0096    5.5476   -0.5733 H   0  0  0  0  0  0  0  0  0  0  0  0
   -3.4983    5.6382   -0.2940 H   0  0  0  0  0  0  0  0  0  0  0  0
   -2.8573    7.1861   -0.8705 H   0  0  0  0  0  0  0  0  0  0  0  0
   -3.3281    6.9899    0.8333 H   0  0  0  0  0  0  0  0  0  0  0  0
   -1.6313    5.0177    3.5185 H   0  0  0  0  0  0  0  0  0  0  0  0
   -1.6883    6.6428    2.8423 H   0  0  0  0  0  0  0  0  0  0  0  0
    0.4544    6.2234    4.0616 H   0  0  0  0  0  0  0  0  0  0  0  0
    0.7764    6.4990    2.3369 H   0  0  0  0  0  0  0  0  0  0  0  0
    0.8165    4.8569    2.9895 H   0  0  0  0  0  0  0  0  0  0  0  0
    3.1473   -0.8038   -1.2807 H   0  0  0  0  0  0  0  0  0  0  0  0
    3.0399   -2.4819   -0.8016 H   0  0  0  0  0  0  0  0  0  0  0  0
    2.5993   -1.6468    1.6281 H   0  0  0  0  0  0  0  0  0  0  0  0
    3.1007   -0.0597    1.0803 H   0  0  0  0  0  0  0  0  0  0  0  0
    4.5640   -3.3130    2.4320 H   0  0  0  0  0  0  0  0  0  0  0  0
    7.0579   -3.2919    2.2316 H   0  0  0  0  0  0  0  0  0  0  0  0
    9.0898   -1.8159    0.9704 H   0  0  0  0  0  0  0  0  0  0  0  0
    9.4144    0.1517   -0.5221 H   0  0  0  0  0  0  0  0  0  0  0  0
    7.4709    1.4421   -1.3369 H   0  0  0  0  0  0  0  0  0  0  0  0
    5.1681    0.8111   -0.6811 H   0  0  0  0  0  0  0  0  0  0  0  0
   -1.1439   -1.5081   -2.5794 H   0  0  0  0  0  0  0  0  0  0  0  0
   -2.2312   -0.1467   -2.6149 H   0  0  0  0  0  0  0  0  0  0  0  0
   -1.4762    2.0988   -3.4539 H   0  0  0  0  0  0  0  0  0  0  0  0
   -0.0678    3.2035   -5.1441 H   0  0  0  0  0  0  0  0  0  0  0  0
    1.8599    2.0048   -6.1433 H   0  0  0  0  0  0  0  0  0  0  0  0
    2.3774   -0.3165   -5.4415 H   0  0  0  0  0  0  0  0  0  0  0  0
    0.9836   -1.4381   -3.7433 H   0  0  0  0  0  0  0  0  0  0  0  0
   -1.4526   -0.6652    1.1000 H   0  0  0  0  0  0  0  0  0  0  0  0
   -5.2395   -0.1921   -0.5993 H   0  0  0  0  0  0  0  0  0  0  0  0
   -5.2712   -2.6047   -0.0690 H   0  0  0  0  0  0  0  0  0  0  0  0
   -4.7572   -2.3687   -1.7510 H   0  0  0  0  0  0  0  0  0  0  0  0
    0.6198   -2.6801    0.2878 H   0  0  0  0  0  0  0  0  0  0  0  0
   -0.1176   -5.7704   -0.3644 H   0  0  0  0  0  0  0  0  0  0  0  0
   -1.6795   -6.6047   -0.4937 H   0  0  0  0  0  0  0  0  0  0  0  0
   -2.0322   -7.4870    3.7423 H   0  0  0  0  0  0  0  0  0  0  0  0
   -0.8289   -6.1902    4.0750 H   0  0  0  0  0  0  0  0  0  0  0  0
   -2.5628   -5.8773    4.2795 H   0  0  0  0  0  0  0  0  0  0  0  0
   -3.7103   -6.1030   -0.1839 H   0  0  0  0  0  0  0  0  0  0  0  0
  1  2  1  0
  2  3  1  0
  3  4  2  0
  4  5  1  0
  5  6  1  0
  6  7  2  0
  6  8  1  0
  8  9  1  0
  9 10  1  0
  8 11  1  0
 11 12  1  0
  4 13  1  0
 13 14  1  0
 14 15  2  0
 14 16  1  0
 16 17  1  0
 17 18  2  3
 18 19  1  0
 19 20  1  0
 20 21  1  0
 21 22  2  0
 22 23  1  0
 23 24  1  0
 24 25  2  0
 25 26  1  0
 26 27  2  0
 27 28  1  0
 28 29  2  0
 17 30  1  0
 30 31  1  0
 31 32  1  0
 32 33  2  0
 33 34  1  0
 34 35  2  0
 35 36  1  0
 36 37  2  0
 30 38  1  0
 38 39  1  0
 39 40  2  0
 40 41  1  0
 41 42  1  0
 42 43  1  0
 43 44  2  0
 44 45  1  0
 44 46  1  0
 46 47  1  0
 47 48  1  0
 48 49  2  0
 48 50  1  0
 50 51  1  0
 46 52  1  0
 52 53  1  0
 39  3  1  0
 52 42  2  0
 30 13  1  0
 37 32  1  0
 43 38  1  0
 29 21  1  0
 29 24  1  0
  1 54  1  0
  1 55  1  0
  1 56  1  0
  2 57  1  0
  2 58  1  0
  9 59  1  0
  9 60  1  0
 10 61  1  0
 10 62  1  0
 10 63  1  0
 11 64  1  0
 11 65  1  0
 12 66  1  0
 12 67  1  0
 12 68  1  0
 19 69  1  0
 19 70  1  0
 20 71  1  0
 20 72  1  0
 22 73  1  0
 23 74  1  0
 25 75  1  0
 26 76  1  0
 27 77  1  0
 28 78  1  0
 31 79  1  0
 31 80  1  0
 33 81  1  0
 34 82  1  0
 35 83  1  0
 36 84  1  0
 37 85  1  0
 38 86  1  0
 40 87  1  0
 41 88  1  0
 41 89  1  0
 45 90  1  0
 47 91  1  0
 47 92  1  0
 51 93  1  0
 51 94  1  0
 51 95  1  0
 53 96  1  0
M  END
$$$$
