
     RDKit          3D

 48 50  0  0  0  0  0  0  0  0999 V2000
   -2.8764    0.0975    1.4897 O   0  0  0  0  0  0  0  0  0  0  0  0
   -1.7942    0.1043    0.9080 C   0  0  0  0  0  0  0  0  0  0  0  0
   -0.5269   -0.5170    1.4533 C   0  0  0  0  0  0  0  0  0  0  0  0
   -0.7085   -1.0588    2.8712 C   0  0  0  0  0  0  0  0  0  0  0  0
    0.5141   -1.8275    3.3864 C   0  0  0  0  0  0  0  0  0  0  0  0
    1.7052   -0.9866    3.5294 N   0  0  0  0  0  0  0  0  0  0  0  0
    2.5927   -0.9058    2.4671 C   0  0  0  0  0  0  0  0  0  0  0  0
    2.4953   -1.5306    1.4202 O   0  0  0  0  0  0  0  0  0  0  0  0
    3.6835    0.0609    2.7746 C   0  0  0  0  0  0  0  0  0  0  0  0
    4.6487    0.4912    1.9499 C   0  0  0  0  0  0  0  0  0  0  0  0
    4.8021    0.0981    0.5426 C   0  0  0  0  0  0  0  0  0  0  0  0
    5.8249   -0.8060    0.2212 C   0  0  0  0  0  0  0  0  0  0  0  0
    6.0205   -1.2152   -1.1000 C   0  0  0  0  0  0  0  0  0  0  0  0
    5.1993   -0.7245   -2.1132 C   0  0  0  0  0  0  0  0  0  0  0  0
    4.1811    0.1788   -1.8084 C   0  0  0  0  0  0  0  0  0  0  0  0
    3.9821    0.5914   -0.4877 C   0  0  0  0  0  0  0  0  0  0  0  0
    2.7124    1.7277   -0.1801 Cl  0  0  0  0  0  0  0  0  0  0  0  0
    3.5192    0.6273    4.3935 S   0  0  0  0  0  0  0  0  0  0  0  0
    2.0133   -0.2447    4.6508 C   0  0  0  0  0  0  0  0  0  0  0  0
    1.1604   -0.1276    6.0795 S   0  0  0  0  0  0  0  0  0  0  0  0
   -1.6148    0.6914   -0.3309 N   0  0  0  0  0  0  0  0  0  0  0  0
   -2.7778    1.0710   -1.0269 N   0  0  0  0  0  0  0  0  0  0  0  0
   -2.8266    0.7572   -2.3729 C   0  0  0  0  0  0  0  0  0  0  0  0
   -1.8516    0.3309   -2.9876 O   0  0  0  0  0  0  0  0  0  0  0  0
   -4.1424    0.9256   -3.0506 C   0  0  0  0  0  0  0  0  0  0  0  0
   -5.1354    1.7829   -2.5557 C   0  0  0  0  0  0  0  0  0  0  0  0
   -6.3532    1.9080   -3.2330 C   0  0  0  0  0  0  0  0  0  0  0  0
   -6.5765    1.1852   -4.4044 C   0  0  0  0  0  0  0  0  0  0  0  0
   -8.0752    1.3438   -5.2331 Cl  0  0  0  0  0  0  0  0  0  0  0  0
   -5.5908    0.3408   -4.9110 C   0  0  0  0  0  0  0  0  0  0  0  0
   -4.3731    0.2141   -4.2370 C   0  0  0  0  0  0  0  0  0  0  0  0
   -0.2328   -1.3268    0.7758 H   0  0  0  0  0  0  0  0  0  0  0  0
    0.2521    0.2524    1.4404 H   0  0  0  0  0  0  0  0  0  0  0  0
   -0.9490   -0.2293    3.5468 H   0  0  0  0  0  0  0  0  0  0  0  0
   -1.5709   -1.7369    2.8929 H   0  0  0  0  0  0  0  0  0  0  0  0
    0.2733   -2.2764    4.3557 H   0  0  0  0  0  0  0  0  0  0  0  0
    0.7366   -2.6579    2.7058 H   0  0  0  0  0  0  0  0  0  0  0  0
    5.3907    1.2077    2.2956 H   0  0  0  0  0  0  0  0  0  0  0  0
    6.4732   -1.2060    0.9982 H   0  0  0  0  0  0  0  0  0  0  0  0
    6.8121   -1.9221   -1.3374 H   0  0  0  0  0  0  0  0  0  0  0  0
    5.3497   -1.0471   -3.1406 H   0  0  0  0  0  0  0  0  0  0  0  0
    3.5445    0.5565   -2.6047 H   0  0  0  0  0  0  0  0  0  0  0  0
   -0.8272    0.4219   -0.9233 H   0  0  0  0  0  0  0  0  0  0  0  0
   -3.6243    1.0866   -0.4584 H   0  0  0  0  0  0  0  0  0  0  0  0
   -4.9759    2.3798   -1.6617 H   0  0  0  0  0  0  0  0  0  0  0  0
   -7.1194    2.5758   -2.8463 H   0  0  0  0  0  0  0  0  0  0  0  0
   -5.7600   -0.2183   -5.8277 H   0  0  0  0  0  0  0  0  0  0  0  0
   -3.6043   -0.4437   -4.6395 H   0  0  0  0  0  0  0  0  0  0  0  0
  1  2  2  0
  2  3  1  0
  3  4  1  0
  4  5  1  0
  5  6  1  0
  6  7  1  0
  7  8  2  0
  7  9  1  0
  9 10  2  3
 10 11  1  0
 11 12  2  0
 12 13  1  0
 13 14  2  0
 14 15  1  0
 15 16  2  0
 16 17  1  0
  9 18  1  0
 18 19  1  0
 19 20  2  0
  2 21  1  0
 21 22  1  0
 22 23  1  0
 23 24  2  0
 23 25  1  0
 25 26  2  0
 26 27  1  0
 27 28  2  0
 28 29  1  0
 28 30  1  0
 30 31  2  0
 19  6  1  0
 31 25  1  0
 16 11  1  0
  3 32  1  0
  3 33  1  0
  4 34  1  0
  4 35  1  0
  5 36  1  0
  5 37  1  0
 10 38  1  0
 12 39  1  0
 13 40  1  0
 14 41  1  0
 15 42  1  0
 21 43  1  0
 22 44  1  0
 26 45  1  0
 27 46  1  0
 30 47  1  0
 31 48  1  0
M  END
$$$$
