
     RDKit          3D

 51 54  0  0  0  0  0  0  0  0999 V2000
    1.7893   -1.3143   -3.0017 C   0  0  0  0  0  0  0  0  0  0  0  0
    2.1695    0.0703   -2.4658 C   0  0  0  0  0  0  0  0  0  0  0  0
    1.0227    1.0769   -2.6684 C   0  0  0  0  0  0  0  0  0  0  0  0
    0.4351    1.1339   -1.2917 C   0  0  0  0  0  0  0  0  0  0  0  0
   -0.7643    1.7311   -0.9291 C   0  0  0  0  0  0  0  0  0  0  0  0
   -1.1275    1.6966    0.4181 C   0  0  0  0  0  0  0  0  0  0  0  0
   -2.6483    2.4673    0.9431 S   0  0  0  0  0  6  0  0  0  0  0  0
   -2.9618    3.5027   -0.0185 O   0  0  0  0  0  0  0  0  0  0  0  0
   -2.5104    2.7705    2.3522 O   0  0  0  0  0  0  0  0  0  0  0  0
   -3.7851    1.2193    0.7778 N   0  0  0  0  0  0  0  0  0  0  0  0
   -4.2262    0.8479   -0.5873 C   0  0  0  0  0  0  0  0  0  0  0  0
   -4.0062   -0.6349   -0.8561 C   0  0  0  0  0  0  0  0  0  0  0  0
   -4.7624   -1.5090    0.1424 C   0  0  0  0  0  0  0  0  0  0  0  0
   -4.8803   -0.8575    1.5200 C   0  0  0  0  0  0  0  0  0  0  0  0
   -3.7461    0.1279    1.7771 C   0  0  0  0  0  0  0  0  0  0  0  0
   -0.2787    1.1164    1.3756 C   0  0  0  0  0  0  0  0  0  0  0  0
    0.9347    0.5317    0.9884 C   0  0  0  0  0  0  0  0  0  0  0  0
    1.2929    0.5510   -0.3486 C   0  0  0  0  0  0  0  0  0  0  0  0
    2.4252    0.0313   -1.0052 N   0  0  0  0  0  0  0  0  0  0  0  0
    3.6315   -0.4717   -0.5225 C   0  0  0  0  0  0  0  0  0  0  0  0
    4.4280   -1.0022   -1.3151 O   0  0  0  0  0  0  0  0  0  0  0  0
    4.0014   -0.3043    0.9717 C   0  0  0  0  0  0  0  0  0  0  0  0
    3.8405   -1.5484    1.8939 C   0  0  0  0  0  0  0  0  0  0  0  0
    5.1092   -1.0891    2.6341 C   0  0  0  0  0  0  0  0  0  0  0  0
    5.5178   -0.3689    1.3376 C   0  0  0  0  0  0  0  0  0  0  0  0
    2.5951   -2.0385   -2.8469 H   0  0  0  0  0  0  0  0  0  0  0  0
    1.5831   -1.2684   -4.0763 H   0  0  0  0  0  0  0  0  0  0  0  0
    0.8980   -1.7082   -2.5009 H   0  0  0  0  0  0  0  0  0  0  0  0
    3.0727    0.4127   -2.9855 H   0  0  0  0  0  0  0  0  0  0  0  0
    0.2976    0.7575   -3.4226 H   0  0  0  0  0  0  0  0  0  0  0  0
    1.4171    2.0642   -2.9326 H   0  0  0  0  0  0  0  0  0  0  0  0
   -1.3916    2.2157   -1.6717 H   0  0  0  0  0  0  0  0  0  0  0  0
   -3.7046    1.4300   -1.3517 H   0  0  0  0  0  0  0  0  0  0  0  0
   -5.2903    1.0966   -0.6786 H   0  0  0  0  0  0  0  0  0  0  0  0
   -2.9340   -0.8607   -0.7919 H   0  0  0  0  0  0  0  0  0  0  0  0
   -4.3179   -0.8872   -1.8760 H   0  0  0  0  0  0  0  0  0  0  0  0
   -4.2522   -2.4762    0.2260 H   0  0  0  0  0  0  0  0  0  0  0  0
   -5.7702   -1.7230   -0.2351 H   0  0  0  0  0  0  0  0  0  0  0  0
   -4.8951   -1.6327    2.2945 H   0  0  0  0  0  0  0  0  0  0  0  0
   -5.8401   -0.3290    1.5842 H   0  0  0  0  0  0  0  0  0  0  0  0
   -3.8712    0.5489    2.7800 H   0  0  0  0  0  0  0  0  0  0  0  0
   -2.7851   -0.3947    1.7382 H   0  0  0  0  0  0  0  0  0  0  0  0
   -0.5581    1.1154    2.4282 H   0  0  0  0  0  0  0  0  0  0  0  0
    1.5381    0.0656    1.7536 H   0  0  0  0  0  0  0  0  0  0  0  0
    3.5872    0.6165    1.4029 H   0  0  0  0  0  0  0  0  0  0  0  0
    3.9534   -2.5081    1.3749 H   0  0  0  0  0  0  0  0  0  0  0  0
    2.9371   -1.5874    2.5071 H   0  0  0  0  0  0  0  0  0  0  0  0
    4.9099   -0.4116    3.4728 H   0  0  0  0  0  0  0  0  0  0  0  0
    5.7802   -1.8834    2.9699 H   0  0  0  0  0  0  0  0  0  0  0  0
    6.0107    0.5979    1.4716 H   0  0  0  0  0  0  0  0  0  0  0  0
    6.1294   -0.9867    0.6694 H   0  0  0  0  0  0  0  0  0  0  0  0
  1  2  1  0
  2  3  1  0
  3  4  1  0
  4  5  2  0
  5  6  1  0
  6  7  1  0
  7  8  2  0
  7  9  2  0
  7 10  1  0
 10 11  1  0
 11 12  1  0
 12 13  1  0
 13 14  1  0
 14 15  1  0
  6 16  2  0
 16 17  1  0
 17 18  2  0
 18 19  1  0
 19 20  1  0
 20 21  2  0
 20 22  1  0
 22 23  1  0
 23 24  1  0
 24 25  1  0
 19  2  1  0
 25 22  1  0
 18  4  1  0
 15 10  1  0
  1 26  1  0
  1 27  1  0
  1 28  1  0
  2 29  1  0
  3 30  1  0
  3 31  1  0
  5 32  1  0
 11 33  1  0
 11 34  1  0
 12 35  1  0
 12 36  1  0
 13 37  1  0
 13 38  1  0
 14 39  1  0
 14 40  1  0
 15 41  1  0
 15 42  1  0
 16 43  1  0
 17 44  1  0
 22 45  1  0
 23 46  1  0
 23 47  1  0
 24 48  1  0
 24 49  1  0
 25 50  1  0
 25 51  1  0
M  END
$$$$
