
     RDKit          3D

 44 46  0  0  0  0  0  0  0  0999 V2000
    8.0514    1.5074   -0.0631 C   0  0  0  0  0  0  0  0  0  0  0  0
    7.5744    0.1925    0.1982 O   0  0  0  0  0  0  0  0  0  0  0  0
    6.2194    0.0129    0.2011 C   0  0  0  0  0  0  0  0  0  0  0  0
    5.8060   -1.2984    0.4475 C   0  0  0  0  0  0  0  0  0  0  0  0
    4.4477   -1.6338    0.4786 C   0  0  0  0  0  0  0  0  0  0  0  0
    3.4793   -0.6525    0.2608 C   0  0  0  0  0  0  0  0  0  0  0  0
    2.1285   -0.8746    0.2796 O   0  0  0  0  0  0  0  0  0  0  0  0
    1.6780   -2.2279    0.2776 C   0  0  0  0  0  0  0  0  0  0  0  0
    0.2045   -2.1886    0.1339 C   0  0  0  0  0  0  0  0  0  0  0  0
   -0.7080   -1.2382   -0.2547 C   0  0  0  0  0  0  0  0  0  0  0  0
   -1.9700   -1.8838   -0.1596 C   0  0  0  0  0  0  0  0  0  0  0  0
   -3.2989   -1.3442   -0.4760 C   0  0  0  0  0  0  0  0  0  0  0  0
   -4.1316   -2.0158   -1.0868 O   0  0  0  0  0  0  0  0  0  0  0  0
   -3.5739   -0.0105   -0.1117 N   0  0  0  0  0  0  0  0  0  0  0  0
   -2.9362    0.6338    1.0333 C   0  0  0  0  0  0  0  0  0  0  0  0
   -4.8088    0.5737   -0.6468 C   0  0  0  0  0  0  0  0  0  0  0  0
   -4.8781    2.0891   -0.6959 C   0  0  0  0  0  0  0  0  0  0  0  0
   -6.3681    2.3171   -0.8121 C   0  0  0  0  0  0  0  0  0  0  0  0
   -6.9853    1.3213    0.0124 O   0  0  0  0  0  0  0  0  0  0  0  0
   -6.0776    0.2092    0.1288 C   0  0  0  0  0  0  0  0  0  0  0  0
   -1.8110   -3.1594    0.2337 N   0  0  0  0  0  0  0  0  0  0  0  0
   -0.4555   -3.3399    0.4254 O   0  0  0  0  0  0  0  0  0  0  0  0
    3.8998    0.6668    0.0227 C   0  0  0  0  0  0  0  0  0  0  0  0
    2.7506    1.9348   -0.2465 Cl  0  0  0  0  0  0  0  0  0  0  0  0
    5.2595    0.9990   -0.0115 C   0  0  0  0  0  0  0  0  0  0  0  0
    7.7197    2.2077    0.7108 H   0  0  0  0  0  0  0  0  0  0  0  0
    9.1449    1.4775   -0.0391 H   0  0  0  0  0  0  0  0  0  0  0  0
    7.7493    1.8452   -1.0597 H   0  0  0  0  0  0  0  0  0  0  0  0
    6.5534   -2.0710    0.6210 H   0  0  0  0  0  0  0  0  0  0  0  0
    4.1901   -2.6675    0.6848 H   0  0  0  0  0  0  0  0  0  0  0  0
    1.9408   -2.7138    1.2241 H   0  0  0  0  0  0  0  0  0  0  0  0
    2.1070   -2.7781   -0.5679 H   0  0  0  0  0  0  0  0  0  0  0  0
   -0.4959   -0.2258   -0.5673 H   0  0  0  0  0  0  0  0  0  0  0  0
   -2.2639   -0.0355    1.5720 H   0  0  0  0  0  0  0  0  0  0  0  0
   -2.3784    1.5041    0.6778 H   0  0  0  0  0  0  0  0  0  0  0  0
   -3.7040    0.9533    1.7438 H   0  0  0  0  0  0  0  0  0  0  0  0
   -4.9308    0.2066   -1.6758 H   0  0  0  0  0  0  0  0  0  0  0  0
   -4.5192    2.5480    0.2311 H   0  0  0  0  0  0  0  0  0  0  0  0
   -4.3136    2.5209   -1.5269 H   0  0  0  0  0  0  0  0  0  0  0  0
   -6.7164    2.1725   -1.8408 H   0  0  0  0  0  0  0  0  0  0  0  0
   -6.6703    3.3128   -0.4765 H   0  0  0  0  0  0  0  0  0  0  0  0
   -6.5587   -0.6889   -0.2718 H   0  0  0  0  0  0  0  0  0  0  0  0
   -5.8878    0.0466    1.1949 H   0  0  0  0  0  0  0  0  0  0  0  0
    5.5377    2.0300   -0.2032 H   0  0  0  0  0  0  0  0  0  0  0  0
  1  2  1  0
  2  3  1  0
  3  4  2  0
  4  5  1  0
  5  6  2  0
  6  7  1  0
  7  8  1  0
  8  9  1  0
  9 10  2  0
 10 11  1  0
 11 12  1  0
 12 13  2  0
 12 14  1  0
 14 15  1  0
 14 16  1  0
 16 17  1  0
 17 18  1  0
 18 19  1  0
 19 20  1  0
 11 21  2  0
 21 22  1  0
  6 23  1  0
 23 24  1  0
 23 25  2  0
 25  3  1  0
 22  9  1  0
 20 16  1  0
  1 26  1  0
  1 27  1  0
  1 28  1  0
  4 29  1  0
  5 30  1  0
  8 31  1  0
  8 32  1  0
 10 33  1  0
 15 34  1  0
 15 35  1  0
 15 36  1  0
 16 37  1  0
 17 38  1  0
 17 39  1  0
 18 40  1  0
 18 41  1  0
 20 42  1  0
 20 43  1  0
 25 44  1  0
M  END
$$$$
