
     RDKit          3D

 53 56  0  0  0  0  0  0  0  0999 V2000
    7.6348   -2.4264    0.4684 C   0  0  0  0  0  0  0  0  0  0  0  0
    7.2713   -1.1683    1.2383 C   0  0  0  0  0  0  0  0  0  0  0  0
    5.9811   -1.2996    1.8345 O   0  0  0  0  0  0  0  0  0  0  0  0
    4.8915   -0.8534    1.1414 C   0  0  0  0  0  0  0  0  0  0  0  0
    3.7060   -0.8333    1.8757 C   0  0  0  0  0  0  0  0  0  0  0  0
    2.5081   -0.3979    1.2947 C   0  0  0  0  0  0  0  0  0  0  0  0
    2.4586    0.0283   -0.0432 C   0  0  0  0  0  0  0  0  0  0  0  0
    1.2093    0.5012   -0.6786 C   0  0  0  0  0  0  0  0  0  0  0  0
    0.1904    1.1186    0.0262 C   0  0  0  0  0  0  0  0  0  0  0  0
   -0.9462    1.5159   -0.6737 C   0  0  0  0  0  0  0  0  0  0  0  0
   -2.0266    2.1450    0.1030 C   0  0  0  0  0  0  0  0  0  0  0  0
   -2.0307    3.3688    0.1930 O   0  0  0  0  0  0  0  0  0  0  0  0
   -2.9660    1.3179    0.7012 N   0  0  0  0  0  0  0  0  0  0  0  0
   -4.0319    1.9396    1.4868 C   0  0  0  0  0  0  0  0  0  0  0  0
   -4.7872    0.9269    2.3636 C   0  0  0  0  0  0  0  0  0  0  0  0
   -5.3815   -0.1658    1.5721 N   0  0  0  0  0  0  0  0  0  0  0  0
   -5.8762   -1.2374    2.4315 C   0  0  0  0  0  0  0  0  0  0  0  0
   -4.4764   -0.6648    0.5173 C   0  0  0  0  0  0  0  0  0  0  0  0
   -3.0252   -0.1436    0.5763 C   0  0  0  0  0  0  0  0  0  0  0  0
   -1.0616    1.3357   -2.0641 C   0  0  0  0  0  0  0  0  0  0  0  0
   -2.1780    1.7374   -2.8381 C   0  0  0  0  0  0  0  0  0  0  0  0
   -2.2132    1.5092   -4.2113 C   0  0  0  0  0  0  0  0  0  0  0  0
   -1.1388    0.8811   -4.8255 C   0  0  0  0  0  0  0  0  0  0  0  0
   -0.0365    0.4874   -4.0616 C   0  0  0  0  0  0  0  0  0  0  0  0
    0.0243    0.7041   -2.6909 C   0  0  0  0  0  0  0  0  0  0  0  0
    1.1164    0.2969   -2.0186 N   0  0  0  0  0  0  0  0  0  0  0  0
    3.6616   -0.0210   -0.7718 C   0  0  0  0  0  0  0  0  0  0  0  0
    4.8628   -0.4538   -0.1918 C   0  0  0  0  0  0  0  0  0  0  0  0
    8.6421   -2.3451    0.0496 H   0  0  0  0  0  0  0  0  0  0  0  0
    6.9297   -2.6169   -0.3476 H   0  0  0  0  0  0  0  0  0  0  0  0
    7.5976   -3.3008    1.1274 H   0  0  0  0  0  0  0  0  0  0  0  0
    7.9834   -1.0488    2.0627 H   0  0  0  0  0  0  0  0  0  0  0  0
    7.3665   -0.2641    0.6282 H   0  0  0  0  0  0  0  0  0  0  0  0
    3.7109   -1.1626    2.9141 H   0  0  0  0  0  0  0  0  0  0  0  0
    1.6108   -0.4167    1.9098 H   0  0  0  0  0  0  0  0  0  0  0  0
    0.2660    1.3133    1.0901 H   0  0  0  0  0  0  0  0  0  0  0  0
   -3.6028    2.7295    2.1079 H   0  0  0  0  0  0  0  0  0  0  0  0
   -4.7189    2.4160    0.7806 H   0  0  0  0  0  0  0  0  0  0  0  0
   -5.5807    1.4523    2.9083 H   0  0  0  0  0  0  0  0  0  0  0  0
   -4.0897    0.5201    3.1110 H   0  0  0  0  0  0  0  0  0  0  0  0
   -6.5841   -0.8479    3.1689 H   0  0  0  0  0  0  0  0  0  0  0  0
   -5.0622   -1.7394    2.9650 H   0  0  0  0  0  0  0  0  0  0  0  0
   -6.4175   -1.9846    1.8396 H   0  0  0  0  0  0  0  0  0  0  0  0
   -4.4577   -1.7614    0.4811 H   0  0  0  0  0  0  0  0  0  0  0  0
   -4.9086   -0.3394   -0.4382 H   0  0  0  0  0  0  0  0  0  0  0  0
   -2.5122   -0.5581    1.4526 H   0  0  0  0  0  0  0  0  0  0  0  0
   -2.4855   -0.4837   -0.3105 H   0  0  0  0  0  0  0  0  0  0  0  0
   -3.0234    2.2406   -2.3713 H   0  0  0  0  0  0  0  0  0  0  0  0
   -3.0727    1.8262   -4.7965 H   0  0  0  0  0  0  0  0  0  0  0  0
   -1.1497    0.6993   -5.8974 H   0  0  0  0  0  0  0  0  0  0  0  0
    0.8018   -0.0021   -4.5523 H   0  0  0  0  0  0  0  0  0  0  0  0
    3.6701    0.2840   -1.8175 H   0  0  0  0  0  0  0  0  0  0  0  0
    5.7466   -0.4759   -0.8205 H   0  0  0  0  0  0  0  0  0  0  0  0
  1  2  1  0
  2  3  1  0
  3  4  1  0
  4  5  2  0
  5  6  1  0
  6  7  2  0
  7  8  1  0
  8  9  2  0
  9 10  1  0
 10 11  1  0
 11 12  2  0
 11 13  1  0
 13 14  1  0
 14 15  1  0
 15 16  1  0
 16 17  1  0
 16 18  1  0
 18 19  1  0
 10 20  2  0
 20 21  1  0
 21 22  2  0
 22 23  1  0
 23 24  2  0
 24 25  1  0
 25 26  2  0
  7 27  1  0
 27 28  2  0
 28  4  1  0
 26  8  1  0
 19 13  1  0
 25 20  1  0
  1 29  1  0
  1 30  1  0
  1 31  1  0
  2 32  1  0
  2 33  1  0
  5 34  1  0
  6 35  1  0
  9 36  1  0
 14 37  1  0
 14 38  1  0
 15 39  1  0
 15 40  1  0
 17 41  1  0
 17 42  1  0
 17 43  1  0
 18 44  1  0
 18 45  1  0
 19 46  1  0
 19 47  1  0
 21 48  1  0
 22 49  1  0
 23 50  1  0
 24 51  1  0
 27 52  1  0
 28 53  1  0
M  END
$$$$
