
     RDKit          3D

 47 49  0  0  0  0  0  0  0  0999 V2000
    4.6316    2.6015    0.3063 C   0  0  0  0  0  0  0  0  0  0  0  0
    3.2362    2.2239   -0.1094 C   0  0  0  0  0  0  0  0  0  0  0  0
    2.2450    2.0736    0.8702 C   0  0  0  0  0  0  0  0  0  0  0  0
    0.9399    1.7240    0.5204 C   0  0  0  0  0  0  0  0  0  0  0  0
    0.5905    1.5182   -0.8208 C   0  0  0  0  0  0  0  0  0  0  0  0
   -0.8165    1.1132   -1.2236 C   0  0  0  0  0  0  0  0  0  0  0  0
   -1.8610    2.1249   -0.7428 C   0  0  0  0  0  0  0  0  0  0  0  0
   -1.1002   -0.2187   -0.7196 N   0  0  0  0  0  0  0  0  0  0  0  0
   -2.0985   -1.0085   -1.2356 C   0  0  0  0  0  0  0  0  0  0  0  0
   -2.7963   -0.6572   -2.1816 O   0  0  0  0  0  0  0  0  0  0  0  0
   -2.2474   -2.3084   -0.6120 C   0  0  0  0  0  0  0  0  0  0  0  0
   -1.9508   -2.7744    0.7063 C   0  0  0  0  0  0  0  0  0  0  0  0
   -1.4520   -2.0265    1.8545 C   0  0  0  0  0  0  0  0  0  0  0  0
   -0.2933   -2.4477    2.5189 C   0  0  0  0  0  0  0  0  0  0  0  0
    0.2048   -1.7144    3.5976 C   0  0  0  0  0  0  0  0  0  0  0  0
   -0.4555   -0.5625    4.0235 C   0  0  0  0  0  0  0  0  0  0  0  0
   -1.6176   -0.1442    3.3768 C   0  0  0  0  0  0  0  0  0  0  0  0
   -2.1168   -0.8740    2.2962 C   0  0  0  0  0  0  0  0  0  0  0  0
   -2.2088   -4.0869    0.8181 N   0  0  0  0  0  0  0  0  0  0  0  0
   -2.7325   -4.4811   -0.3934 O   0  0  0  0  0  0  0  0  0  0  0  0
   -2.7664   -3.4227   -1.2404 C   0  0  0  0  0  0  0  0  0  0  0  0
   -3.3048   -3.6817   -2.5904 C   0  0  0  0  0  0  0  0  0  0  0  0
    1.5854    1.6608   -1.7999 C   0  0  0  0  0  0  0  0  0  0  0  0
    2.9033    2.0137   -1.4613 C   0  0  0  0  0  0  0  0  0  0  0  0
    3.9299    2.1564   -2.5521 C   0  0  0  0  0  0  0  0  0  0  0  0
    4.7068    2.7316    1.3912 H   0  0  0  0  0  0  0  0  0  0  0  0
    4.9245    3.5479   -0.1591 H   0  0  0  0  0  0  0  0  0  0  0  0
    5.3392    1.8175    0.0187 H   0  0  0  0  0  0  0  0  0  0  0  0
    2.4833    2.2265    1.9208 H   0  0  0  0  0  0  0  0  0  0  0  0
    0.2003    1.6084    1.3096 H   0  0  0  0  0  0  0  0  0  0  0  0
   -0.8815    1.0693   -2.3183 H   0  0  0  0  0  0  0  0  0  0  0  0
   -1.9317    2.1526    0.3503 H   0  0  0  0  0  0  0  0  0  0  0  0
   -2.8567    1.8691   -1.1207 H   0  0  0  0  0  0  0  0  0  0  0  0
   -1.6192    3.1347   -1.0920 H   0  0  0  0  0  0  0  0  0  0  0  0
   -0.4715   -0.5945   -0.0228 H   0  0  0  0  0  0  0  0  0  0  0  0
    0.2264   -3.3494    2.1998 H   0  0  0  0  0  0  0  0  0  0  0  0
    1.1044   -2.0471    4.1097 H   0  0  0  0  0  0  0  0  0  0  0  0
   -0.0699    0.0027    4.8687 H   0  0  0  0  0  0  0  0  0  0  0  0
   -2.1397    0.7462    3.7188 H   0  0  0  0  0  0  0  0  0  0  0  0
   -3.0310   -0.5402    1.8094 H   0  0  0  0  0  0  0  0  0  0  0  0
   -4.2514   -3.1514   -2.7319 H   0  0  0  0  0  0  0  0  0  0  0  0
   -2.6005   -3.3452   -3.3574 H   0  0  0  0  0  0  0  0  0  0  0  0
   -3.4881   -4.7493   -2.7481 H   0  0  0  0  0  0  0  0  0  0  0  0
    1.3321    1.4924   -2.8459 H   0  0  0  0  0  0  0  0  0  0  0  0
    4.3293    3.1753   -2.5674 H   0  0  0  0  0  0  0  0  0  0  0  0
    4.7476    1.4448   -2.4000 H   0  0  0  0  0  0  0  0  0  0  0  0
    3.4993    1.9570   -3.5392 H   0  0  0  0  0  0  0  0  0  0  0  0
  1  2  1  0
  2  3  2  0
  3  4  1  0
  4  5  2  0
  5  6  1  0
  6  7  1  0
  6  8  1  0
  8  9  1  0
  9 10  2  0
  9 11  1  0
 11 12  1  0
 12 13  1  0
 13 14  2  0
 14 15  1  0
 15 16  2  0
 16 17  1  0
 17 18  2  0
 12 19  2  0
 19 20  1  0
 20 21  1  0
 21 22  1  0
  5 23  1  0
 23 24  2  0
 24 25  1  0
 24  2  1  0
 21 11  2  0
 18 13  1  0
  1 26  1  0
  1 27  1  0
  1 28  1  0
  3 29  1  0
  4 30  1  0
  6 31  1  0
  7 32  1  0
  7 33  1  0
  7 34  1  0
  8 35  1  0
 14 36  1  0
 15 37  1  0
 16 38  1  0
 17 39  1  0
 18 40  1  0
 22 41  1  0
 22 42  1  0
 22 43  1  0
 23 44  1  0
 25 45  1  0
 25 46  1  0
 25 47  1  0
M  END
$$$$
