
     RDKit          3D

 56 61  0  0  0  0  0  0  0  0999 V2000
    5.2296   -2.6667   -1.1988 C   0  0  0  0  0  0  0  0  0  0  0  0
    4.7435   -1.9107   -2.2998 O   0  0  0  0  0  0  0  0  0  0  0  0
    3.6219   -1.1561   -2.0950 C   0  0  0  0  0  0  0  0  0  0  0  0
    3.1611   -0.4805   -3.2254 C   0  0  0  0  0  0  0  0  0  0  0  0
    2.0240    0.3222   -3.1592 C   0  0  0  0  0  0  0  0  0  0  0  0
    1.3375    0.4582   -1.9541 C   0  0  0  0  0  0  0  0  0  0  0  0
    1.7819   -0.2063   -0.7967 C   0  0  0  0  0  0  0  0  0  0  0  0
    1.0479   -0.0751    0.5387 C   0  0  0  0  0  0  0  0  0  0  0  0
   -0.1810   -0.8983    0.3718 C   0  0  0  0  0  0  0  0  0  0  0  0
   -0.4384   -2.2720    0.2262 C   0  0  0  0  0  0  0  0  0  0  0  0
    0.5237   -3.3990    0.1649 C   0  0  0  0  0  0  0  0  0  0  0  0
   -1.7493   -2.5142    0.1335 N   0  0  0  0  0  0  0  0  0  0  0  0
   -2.3597   -1.2903    0.2146 N   0  0  0  0  0  0  0  0  0  0  0  0
   -3.7852   -1.2065    0.1272 C   0  0  0  0  0  0  0  0  0  0  0  0
   -4.4652    0.0181    0.1939 C   0  0  0  0  0  0  0  0  0  0  0  0
   -5.8627    0.0614    0.1038 C   0  0  0  0  0  0  0  0  0  0  0  0
   -6.5872   -1.1253   -0.0549 C   0  0  0  0  0  0  0  0  0  0  0  0
   -8.0513   -1.0800   -0.1488 N   0  0  0  0  0  4  0  0  0  0  0  0
   -8.6009    0.0291   -0.0850 O   0  0  0  0  0  0  0  0  0  0  0  0
   -8.6544   -2.1544   -0.2859 O   0  0  0  0  0  1  0  0  0  0  0  0
   -5.9244   -2.3549   -0.1251 C   0  0  0  0  0  0  0  0  0  0  0  0
   -4.5289   -2.3912   -0.0345 C   0  0  0  0  0  0  0  0  0  0  0  0
   -1.4124   -0.2854    0.3889 C   0  0  0  0  0  0  0  0  0  0  0  0
   -1.6412    1.0413    0.5529 N   0  0  0  0  0  0  0  0  0  0  0  0
   -0.5817    1.7749    0.7892 C   0  0  0  0  0  0  0  0  0  0  0  0
   -0.8858    3.2787    0.9945 C   0  0  0  0  0  0  0  0  0  0  0  0
   -2.0088    3.7409    0.8481 O   0  0  0  0  0  0  0  0  0  0  0  0
    0.1796    4.0598    1.3537 N   0  0  0  0  0  0  0  0  0  0  0  0
    1.4809    3.5772    1.5145 C   0  0  0  0  0  0  0  0  0  0  0  0
    2.4646    4.4914    1.9108 C   0  0  0  0  0  0  0  0  0  0  0  0
    3.7762    4.0672    2.0893 C   0  0  0  0  0  0  0  0  0  0  0  0
    4.0990    2.7337    1.8734 C   0  0  0  0  0  0  0  0  0  0  0  0
    3.1120    1.8227    1.4755 C   0  0  0  0  0  0  0  0  0  0  0  0
    1.7778    2.2172    1.2777 C   0  0  0  0  0  0  0  0  0  0  0  0
    0.7541    1.3367    0.8718 N   0  0  0  0  0  0  0  0  0  0  0  0
    2.9344   -1.0168   -0.8872 C   0  0  0  0  0  0  0  0  0  0  0  0
    4.4831   -3.3911   -0.8562 H   0  0  0  0  0  0  0  0  0  0  0  0
    6.1063   -3.2267   -1.5380 H   0  0  0  0  0  0  0  0  0  0  0  0
    5.5485   -2.0112   -0.3817 H   0  0  0  0  0  0  0  0  0  0  0  0
    3.6916   -0.5841   -4.1691 H   0  0  0  0  0  0  0  0  0  0  0  0
    1.6714    0.8389   -4.0483 H   0  0  0  0  0  0  0  0  0  0  0  0
    0.4471    1.0841   -1.9272 H   0  0  0  0  0  0  0  0  0  0  0  0
    1.6317   -0.5252    1.3523 H   0  0  0  0  0  0  0  0  0  0  0  0
    0.0477   -4.3448    0.4448 H   0  0  0  0  0  0  0  0  0  0  0  0
    0.9207   -3.5048   -0.8494 H   0  0  0  0  0  0  0  0  0  0  0  0
    1.3604   -3.2342    0.8509 H   0  0  0  0  0  0  0  0  0  0  0  0
   -3.9457    0.9649    0.3136 H   0  0  0  0  0  0  0  0  0  0  0  0
   -6.3618    1.0273    0.1591 H   0  0  0  0  0  0  0  0  0  0  0  0
   -6.4699   -3.2881   -0.2493 H   0  0  0  0  0  0  0  0  0  0  0  0
   -4.0316   -3.3590   -0.0921 H   0  0  0  0  0  0  0  0  0  0  0  0
   -0.0303    5.0371    1.5030 H   0  0  0  0  0  0  0  0  0  0  0  0
    2.2187    5.5359    2.0837 H   0  0  0  0  0  0  0  0  0  0  0  0
    4.5435    4.7737    2.3959 H   0  0  0  0  0  0  0  0  0  0  0  0
    5.1237    2.3955    2.0115 H   0  0  0  0  0  0  0  0  0  0  0  0
    3.4346    0.7980    1.3287 H   0  0  0  0  0  0  0  0  0  0  0  0
    3.2788   -1.5331    0.0032 H   0  0  0  0  0  0  0  0  0  0  0  0
  1  2  1  0
  2  3  1  0
  3  4  2  0
  4  5  1  0
  5  6  2  0
  6  7  1  0
  7  8  1  0
  8  9  1  0
  9 10  1  0
 10 11  1  0
 10 12  2  0
 12 13  1  0
 13 14  1  0
 14 15  2  0
 15 16  1  0
 16 17  2  0
 17 18  1  0
 18 19  2  0
 18 20  1  0
 17 21  1  0
 21 22  2  0
 13 23  1  0
 23 24  1  0
 24 25  2  0
 25 26  1  0
 26 27  2  0
 26 28  1  0
 28 29  1  0
 29 30  2  0
 30 31  1  0
 31 32  2  0
 32 33  1  0
 33 34  2  0
 34 35  1  0
  7 36  2  0
 36  3  1  0
 35  8  1  0
 23  9  2  0
 35 25  1  0
 22 14  1  0
 34 29  1  0
  1 37  1  0
  1 38  1  0
  1 39  1  0
  4 40  1  0
  5 41  1  0
  6 42  1  0
  8 43  1  0
 11 44  1  0
 11 45  1  0
 11 46  1  0
 15 47  1  0
 16 48  1  0
 21 49  1  0
 22 50  1  0
 28 51  1  0
 30 52  1  0
 31 53  1  0
 32 54  1  0
 33 55  1  0
 36 56  1  0
M  CHG  2  18   1  20  -1
M  END
$$$$
