
     RDKit          3D

 54 56  0  0  0  0  0  0  0  0999 V2000
   -1.9191   -3.7779    2.4027 N   0  0  0  0  0  0  0  0  0  0  0  0
   -2.8033   -2.9615    1.8037 C   0  0  0  0  0  0  0  0  0  0  0  0
   -4.0865   -3.1088    1.9477 N   0  0  0  0  0  0  0  0  0  0  0  0
   -4.6656   -2.0238    1.1156 C   0  0  0  0  0  0  0  0  0  0  0  0
   -3.4975   -1.1067    0.6888 C   0  0  0  0  0  0  0  0  0  0  0  0
   -3.5860   -0.7734   -0.8074 C   0  0  0  0  0  0  0  0  0  0  0  0
   -2.6924    0.3557   -1.2698 C   0  0  0  0  0  0  0  0  0  0  0  0
   -2.8139    1.6417   -0.7251 C   0  0  0  0  0  0  0  0  0  0  0  0
   -1.9935    2.6805   -1.1678 C   0  0  0  0  0  0  0  0  0  0  0  0
   -1.0550    2.4503   -2.1700 C   0  0  0  0  0  0  0  0  0  0  0  0
   -0.9381    1.1825   -2.7328 C   0  0  0  0  0  0  0  0  0  0  0  0
   -1.7525    0.1405   -2.2863 C   0  0  0  0  0  0  0  0  0  0  0  0
   -2.3344   -1.9406    1.0292 N   0  0  0  0  0  0  0  0  0  0  0  0
   -1.0761   -1.2485    1.3135 C   0  0  0  0  0  0  0  0  0  0  0  0
    0.0623   -1.8333    0.4740 C   0  0  0  0  0  0  0  0  0  0  0  0
    1.4138   -1.1638    0.7485 C   0  0  0  0  0  0  0  0  0  0  0  0
    1.5230    0.2425    0.1477 C   0  0  0  0  0  0  0  0  0  0  0  0
    2.8248    0.9770    0.5395 C   0  0  0  0  0  0  0  0  0  0  0  0
    4.1056    0.2926    0.0341 C   0  0  0  0  0  0  0  0  0  0  0  0
    4.2833    0.4070   -1.4775 C   0  0  0  0  0  0  0  0  0  0  0  0
    4.2413    1.8599   -1.9367 C   0  0  0  0  0  0  0  0  0  0  0  0
    2.9817    2.5732   -1.4556 C   0  0  0  0  0  0  0  0  0  0  0  0
    2.7941    2.4381    0.0547 C   0  0  0  0  0  0  0  0  0  0  0  0
   -2.4090   -4.5594    2.8247 H   0  0  0  0  0  0  0  0  0  0  0  0
   -1.2075   -4.1081    1.7648 H   0  0  0  0  0  0  0  0  0  0  0  0
   -5.4047   -1.4631    1.6978 H   0  0  0  0  0  0  0  0  0  0  0  0
   -5.1780   -2.4746    0.2591 H   0  0  0  0  0  0  0  0  0  0  0  0
   -3.5175   -0.2069    1.3160 H   0  0  0  0  0  0  0  0  0  0  0  0
   -3.3773   -1.6759   -1.3965 H   0  0  0  0  0  0  0  0  0  0  0  0
   -4.6146   -0.4794   -1.0559 H   0  0  0  0  0  0  0  0  0  0  0  0
   -3.5512    1.8495    0.0463 H   0  0  0  0  0  0  0  0  0  0  0  0
   -2.0903    3.6709   -0.7329 H   0  0  0  0  0  0  0  0  0  0  0  0
   -0.4184    3.2598   -2.5164 H   0  0  0  0  0  0  0  0  0  0  0  0
   -0.2088    1.0022   -3.5169 H   0  0  0  0  0  0  0  0  0  0  0  0
   -1.6446   -0.8429   -2.7354 H   0  0  0  0  0  0  0  0  0  0  0  0
   -0.8357   -1.3185    2.3820 H   0  0  0  0  0  0  0  0  0  0  0  0
   -1.1774   -0.1796    1.1026 H   0  0  0  0  0  0  0  0  0  0  0  0
   -0.1772   -1.7699   -0.5932 H   0  0  0  0  0  0  0  0  0  0  0  0
    0.1674   -2.9006    0.6954 H   0  0  0  0  0  0  0  0  0  0  0  0
    1.5938   -1.1268    1.8296 H   0  0  0  0  0  0  0  0  0  0  0  0
    2.1924   -1.8021    0.3169 H   0  0  0  0  0  0  0  0  0  0  0  0
    0.6773    0.8501    0.4928 H   0  0  0  0  0  0  0  0  0  0  0  0
    1.4298    0.1700   -0.9424 H   0  0  0  0  0  0  0  0  0  0  0  0
    2.8674    0.9963    1.6364 H   0  0  0  0  0  0  0  0  0  0  0  0
    4.1356   -0.7587    0.3330 H   0  0  0  0  0  0  0  0  0  0  0  0
    4.9678    0.7662    0.5203 H   0  0  0  0  0  0  0  0  0  0  0  0
    3.5034   -0.1654   -1.9908 H   0  0  0  0  0  0  0  0  0  0  0  0
    5.2420   -0.0373   -1.7668 H   0  0  0  0  0  0  0  0  0  0  0  0
    4.2960    1.9042   -3.0298 H   0  0  0  0  0  0  0  0  0  0  0  0
    5.1242    2.3854   -1.5531 H   0  0  0  0  0  0  0  0  0  0  0  0
    2.1100    2.1656   -1.9792 H   0  0  0  0  0  0  0  0  0  0  0  0
    3.0382    3.6352   -1.7222 H   0  0  0  0  0  0  0  0  0  0  0  0
    1.8548    2.9177    0.3523 H   0  0  0  0  0  0  0  0  0  0  0  0
    3.5961    2.9927    0.5570 H   0  0  0  0  0  0  0  0  0  0  0  0
  1  2  1  0
  2  3  2  0
  3  4  1  0
  4  5  1  0
  5  6  1  0
  6  7  1  0
  7  8  2  0
  8  9  1  0
  9 10  2  0
 10 11  1  0
 11 12  2  0
  5 13  1  0
 13 14  1  0
 14 15  1  0
 15 16  1  0
 16 17  1  0
 17 18  1  0
 18 19  1  0
 19 20  1  0
 20 21  1  0
 21 22  1  0
 22 23  1  0
 13  2  1  0
 23 18  1  0
 12  7  1  0
  1 24  1  0
  1 25  1  0
  4 26  1  0
  4 27  1  0
  5 28  1  0
  6 29  1  0
  6 30  1  0
  8 31  1  0
  9 32  1  0
 10 33  1  0
 11 34  1  0
 12 35  1  0
 14 36  1  0
 14 37  1  0
 15 38  1  0
 15 39  1  0
 16 40  1  0
 16 41  1  0
 17 42  1  0
 17 43  1  0
 18 44  1  0
 19 45  1  0
 19 46  1  0
 20 47  1  0
 20 48  1  0
 21 49  1  0
 21 50  1  0
 22 51  1  0
 22 52  1  0
 23 53  1  0
 23 54  1  0
M  END
$$$$
