
     RDKit          3D

 46 48  0  0  0  0  0  0  0  0999 V2000
    5.2973    2.7246   -5.1404 C   0  0  0  0  0  0  0  0  0  0  0  0
    5.4549    1.8481   -4.0321 O   0  0  0  0  0  0  0  0  0  0  0  0
    4.4433    2.0579   -3.0485 C   0  0  0  0  0  0  0  0  0  0  0  0
    4.6388    1.0628   -1.9083 C   0  0  0  0  0  0  0  0  0  0  0  0
    3.7397    1.3255   -0.8204 O   0  0  0  0  0  0  0  0  0  0  0  0
    2.4722    0.8437   -0.9686 C   0  0  0  0  0  0  0  0  0  0  0  0
    2.0791    0.2560   -1.9690 O   0  0  0  0  0  0  0  0  0  0  0  0
    1.6198    1.1147    0.1769 C   0  0  0  0  0  0  0  0  0  0  0  0
    1.9455    1.8301    1.3215 C   0  0  0  0  0  0  0  0  0  0  0  0
    3.1651    2.5257    1.7906 C   0  0  0  0  0  0  0  0  0  0  0  0
    0.8821    1.8822    2.1724 O   0  0  0  0  0  0  0  0  0  0  0  0
   -0.1361    1.1983    1.5921 C   0  0  0  0  0  0  0  0  0  0  0  0
   -1.4000    1.0148    2.1479 C   0  0  0  0  0  0  0  0  0  0  0  0
   -2.3135    0.2729    1.3920 C   0  0  0  0  0  0  0  0  0  0  0  0
   -1.9597   -0.2441    0.1441 C   0  0  0  0  0  0  0  0  0  0  0  0
   -2.8964   -1.0371   -0.5762 N   0  0  0  0  0  0  0  0  0  0  0  0
   -2.9461   -2.6964   -0.2398 S   0  0  0  0  0  6  0  0  0  0  0  0
   -1.6229   -3.1595    0.1155 O   0  0  0  0  0  0  0  0  0  0  0  0
   -3.6857   -3.3030   -1.3268 O   0  0  0  0  0  0  0  0  0  0  0  0
   -3.9842   -2.7681    1.2006 C   0  0  0  0  0  0  0  0  0  0  0  0
   -3.4184   -3.0273    2.4548 C   0  0  0  0  0  0  0  0  0  0  0  0
   -4.2444   -3.0922    3.5773 C   0  0  0  0  0  0  0  0  0  0  0  0
   -5.6170   -2.9086    3.4331 C   0  0  0  0  0  0  0  0  0  0  0  0
   -6.4059   -2.9707    4.5135 F   0  0  0  0  0  0  0  0  0  0  0  0
   -6.1847   -2.6640    2.1855 C   0  0  0  0  0  0  0  0  0  0  0  0
   -5.3666   -2.5966    1.0574 C   0  0  0  0  0  0  0  0  0  0  0  0
   -0.6772   -0.0475   -0.3865 C   0  0  0  0  0  0  0  0  0  0  0  0
    0.2586    0.7003    0.3577 C   0  0  0  0  0  0  0  0  0  0  0  0
    5.3676    3.7675   -4.8168 H   0  0  0  0  0  0  0  0  0  0  0  0
    4.3380    2.5468   -5.6357 H   0  0  0  0  0  0  0  0  0  0  0  0
    6.1011    2.5251   -5.8541 H   0  0  0  0  0  0  0  0  0  0  0  0
    3.4524    1.9335   -3.4993 H   0  0  0  0  0  0  0  0  0  0  0  0
    4.5069    3.0820   -2.6615 H   0  0  0  0  0  0  0  0  0  0  0  0
    5.6575    1.1521   -1.5140 H   0  0  0  0  0  0  0  0  0  0  0  0
    4.5461    0.0272   -2.2589 H   0  0  0  0  0  0  0  0  0  0  0  0
    3.0024    3.0001    2.7637 H   0  0  0  0  0  0  0  0  0  0  0  0
    3.9933    1.8185    1.8973 H   0  0  0  0  0  0  0  0  0  0  0  0
    3.4587    3.3068    1.0828 H   0  0  0  0  0  0  0  0  0  0  0  0
   -1.6551    1.4276    3.1165 H   0  0  0  0  0  0  0  0  0  0  0  0
   -3.3140    0.1154    1.7874 H   0  0  0  0  0  0  0  0  0  0  0  0
   -2.9550   -0.8854   -1.5836 H   0  0  0  0  0  0  0  0  0  0  0  0
   -2.3458   -3.1754    2.5637 H   0  0  0  0  0  0  0  0  0  0  0  0
   -3.8294   -3.2887    4.5613 H   0  0  0  0  0  0  0  0  0  0  0  0
   -7.2593   -2.5331    2.1013 H   0  0  0  0  0  0  0  0  0  0  0  0
   -5.8053   -2.4146    0.0787 H   0  0  0  0  0  0  0  0  0  0  0  0
   -0.3975   -0.4757   -1.3450 H   0  0  0  0  0  0  0  0  0  0  0  0
  1  2  1  0
  2  3  1  0
  3  4  1  0
  4  5  1  0
  5  6  1  0
  6  7  2  0
  6  8  1  0
  8  9  2  0
  9 10  1  0
  9 11  1  0
 11 12  1  0
 12 13  2  0
 13 14  1  0
 14 15  2  0
 15 16  1  0
 16 17  1  0
 17 18  2  0
 17 19  2  0
 17 20  1  0
 20 21  2  0
 21 22  1  0
 22 23  2  0
 23 24  1  0
 23 25  1  0
 25 26  2  0
 15 27  1  0
 27 28  2  0
 28  8  1  0
 28 12  1  0
 26 20  1  0
  1 29  1  0
  1 30  1  0
  1 31  1  0
  3 32  1  0
  3 33  1  0
  4 34  1  0
  4 35  1  0
 10 36  1  0
 10 37  1  0
 10 38  1  0
 13 39  1  0
 14 40  1  0
 16 41  1  0
 21 42  1  0
 22 43  1  0
 25 44  1  0
 26 45  1  0
 27 46  1  0
M  END
$$$$
