
     RDKit          3D

 73 75  0  0  0  0  0  0  0  0999 V2000
   10.5310   -0.9136   -2.1390 C   0  0  0  0  0  0  0  0  0  0  0  0
    9.5883   -1.9739   -2.6876 C   0  0  0  0  0  0  0  0  0  0  0  0
    8.1776   -1.8998   -2.0979 C   0  0  0  0  0  0  0  0  0  0  0  0
    7.4355   -0.6133   -2.4701 C   0  0  0  0  0  0  0  0  0  0  0  0
    5.9482   -0.6409   -2.0985 C   0  0  0  0  0  0  0  0  0  0  0  0
    5.6997   -0.6668   -0.5880 C   0  0  0  0  0  0  0  0  0  0  0  0
    4.2124   -0.7349   -0.2201 C   0  0  0  0  0  0  0  0  0  0  0  0
    3.4220    0.5110   -0.6286 C   0  0  0  0  0  0  0  0  0  0  0  0
    1.9811    0.5085   -0.0985 C   0  0  0  0  0  0  0  0  0  0  0  0
    1.1345   -0.6264   -0.6761 C   0  0  0  0  0  0  0  0  0  0  0  0
   -0.3835   -0.4575   -0.5415 C   0  0  0  0  0  0  0  0  0  0  0  0
   -0.9845   -0.6100    0.8700 N   0  0  0  0  0  4  0  0  0  0  0  0
   -0.4010   -1.8260    1.5970 C   0  0  0  0  0  0  0  0  0  0  0  0
   -0.7545    0.6282    1.7373 C   0  0  0  0  0  0  0  0  0  0  0  0
   -2.5200   -0.8722    0.7407 C   0  0  0  0  0  0  0  0  0  0  0  0
   -3.2903    0.2703    0.0631 C   0  0  0  0  0  0  0  0  0  0  0  0
   -4.7745    0.0008    0.0261 C   0  0  0  0  0  0  0  0  0  0  0  0
   -5.7654    0.6205    0.7097 C   0  0  0  0  0  0  0  0  0  0  0  0
   -7.1677    0.3485    0.2864 C   0  0  0  0  0  0  0  0  0  0  0  0
   -7.6529   -0.9562    0.0998 C   0  0  0  0  0  0  0  0  0  0  0  0
   -8.9740   -1.1681   -0.3001 C   0  0  0  0  0  0  0  0  0  0  0  0
   -9.8241   -0.0832   -0.5070 C   0  0  0  0  0  0  0  0  0  0  0  0
   -9.3595    1.2185   -0.3083 C   0  0  0  0  0  0  0  0  0  0  0  0
   -8.0372    1.4424    0.0943 C   0  0  0  0  0  0  0  0  0  0  0  0
   -7.4957    3.1375    0.3376 S   0  0  0  0  0  0  0  0  0  0  0  0
   -6.2274    2.9105    1.5814 C   0  0  0  0  0  0  0  0  0  0  0  0
   -5.9748    3.9581    2.4773 C   0  0  0  0  0  0  0  0  0  0  0  0
   -5.0344    3.8030    3.4980 C   0  0  0  0  0  0  0  0  0  0  0  0
   -4.3699    2.5901    3.6408 C   0  0  0  0  0  0  0  0  0  0  0  0
   -3.2129    2.3795    4.8966 Cl  0  0  0  0  0  0  0  0  0  0  0  0
   -4.6146    1.5389    2.7586 C   0  0  0  0  0  0  0  0  0  0  0  0
   -5.5046    1.7064    1.6896 C   0  0  0  0  0  0  0  0  0  0  0  0
   10.5738   -0.9528   -1.0467 H   0  0  0  0  0  0  0  0  0  0  0  0
   10.2205    0.0921   -2.4377 H   0  0  0  0  0  0  0  0  0  0  0  0
   11.5428   -1.0755   -2.5239 H   0  0  0  0  0  0  0  0  0  0  0  0
   10.0063   -2.9630   -2.4645 H   0  0  0  0  0  0  0  0  0  0  0  0
    9.5410   -1.8896   -3.7791 H   0  0  0  0  0  0  0  0  0  0  0  0
    7.6089   -2.7631   -2.4645 H   0  0  0  0  0  0  0  0  0  0  0  0
    8.2390   -1.9979   -1.0088 H   0  0  0  0  0  0  0  0  0  0  0  0
    7.5117   -0.4569   -3.5533 H   0  0  0  0  0  0  0  0  0  0  0  0
    7.9111    0.2499   -1.9906 H   0  0  0  0  0  0  0  0  0  0  0  0
    5.4678   -1.5069   -2.5694 H   0  0  0  0  0  0  0  0  0  0  0  0
    5.4842    0.2532   -2.5302 H   0  0  0  0  0  0  0  0  0  0  0  0
    6.1870   -1.5468   -0.1504 H   0  0  0  0  0  0  0  0  0  0  0  0
    6.1568    0.2150   -0.1210 H   0  0  0  0  0  0  0  0  0  0  0  0
    3.7733   -1.6277   -0.6781 H   0  0  0  0  0  0  0  0  0  0  0  0
    4.1373   -0.8664    0.8661 H   0  0  0  0  0  0  0  0  0  0  0  0
    3.9298    1.4025   -0.2418 H   0  0  0  0  0  0  0  0  0  0  0  0
    3.3988    0.6055   -1.7197 H   0  0  0  0  0  0  0  0  0  0  0  0
    1.5213    1.4721   -0.3483 H   0  0  0  0  0  0  0  0  0  0  0  0
    2.0205    0.4355    0.9912 H   0  0  0  0  0  0  0  0  0  0  0  0
    1.4576   -1.5889   -0.2690 H   0  0  0  0  0  0  0  0  0  0  0  0
    1.3414   -0.6833   -1.7532 H   0  0  0  0  0  0  0  0  0  0  0  0
   -0.6929    0.5197   -0.9262 H   0  0  0  0  0  0  0  0  0  0  0  0
   -0.8605   -1.2296   -1.1570 H   0  0  0  0  0  0  0  0  0  0  0  0
   -0.5274   -2.7035    0.9569 H   0  0  0  0  0  0  0  0  0  0  0  0
   -0.9414   -1.9564    2.5393 H   0  0  0  0  0  0  0  0  0  0  0  0
    0.6559   -1.6432    1.8080 H   0  0  0  0  0  0  0  0  0  0  0  0
   -0.9491    1.5234    1.1412 H   0  0  0  0  0  0  0  0  0  0  0  0
    0.2732    0.6283    2.1009 H   0  0  0  0  0  0  0  0  0  0  0  0
   -1.4319    0.5783    2.5952 H   0  0  0  0  0  0  0  0  0  0  0  0
   -2.8933   -1.0468    1.7565 H   0  0  0  0  0  0  0  0  0  0  0  0
   -2.6331   -1.8055    0.1749 H   0  0  0  0  0  0  0  0  0  0  0  0
   -3.0801    1.2305    0.5391 H   0  0  0  0  0  0  0  0  0  0  0  0
   -2.9599    0.3787   -0.9770 H   0  0  0  0  0  0  0  0  0  0  0  0
   -5.0551   -0.7247   -0.7406 H   0  0  0  0  0  0  0  0  0  0  0  0
   -7.0146   -1.8193    0.2710 H   0  0  0  0  0  0  0  0  0  0  0  0
   -9.3454   -2.1805   -0.4458 H   0  0  0  0  0  0  0  0  0  0  0  0
  -10.8545   -0.2478   -0.8159 H   0  0  0  0  0  0  0  0  0  0  0  0
  -10.0408    2.0536   -0.4649 H   0  0  0  0  0  0  0  0  0  0  0  0
   -6.5172    4.8980    2.3933 H   0  0  0  0  0  0  0  0  0  0  0  0
   -4.8477    4.6233    4.1872 H   0  0  0  0  0  0  0  0  0  0  0  0
   -4.1220    0.5865    2.9205 H   0  0  0  0  0  0  0  0  0  0  0  0
  1  2  1  0
  2  3  1  0
  3  4  1  0
  4  5  1  0
  5  6  1  0
  6  7  1  0
  7  8  1  0
  8  9  1  0
  9 10  1  0
 10 11  1  0
 11 12  1  0
 12 13  1  0
 12 14  1  0
 12 15  1  0
 15 16  1  0
 16 17  1  0
 17 18  2  3
 18 19  1  0
 19 20  2  0
 20 21  1  0
 21 22  2  0
 22 23  1  0
 23 24  2  0
 24 25  1  0
 25 26  1  0
 26 27  2  0
 27 28  1  0
 28 29  2  0
 29 30  1  0
 29 31  1  0
 31 32  2  0
 32 18  1  0
 24 19  1  0
 32 26  1  0
  1 33  1  0
  1 34  1  0
  1 35  1  0
  2 36  1  0
  2 37  1  0
  3 38  1  0
  3 39  1  0
  4 40  1  0
  4 41  1  0
  5 42  1  0
  5 43  1  0
  6 44  1  0
  6 45  1  0
  7 46  1  0
  7 47  1  0
  8 48  1  0
  8 49  1  0
  9 50  1  0
  9 51  1  0
 10 52  1  0
 10 53  1  0
 11 54  1  0
 11 55  1  0
 13 56  1  0
 13 57  1  0
 13 58  1  0
 14 59  1  0
 14 60  1  0
 14 61  1  0
 15 62  1  0
 15 63  1  0
 16 64  1  0
 16 65  1  0
 17 66  1  0
 20 67  1  0
 21 68  1  0
 22 69  1  0
 23 70  1  0
 27 71  1  0
 28 72  1  0
 31 73  1  0
M  CHG  1  12   1
M  END
$$$$
