
     RDKit          3D

 46 48  0  0  0  0  0  0  0  0999 V2000
    8.1190   -1.2075   -0.6053 C   0  0  0  0  0  0  0  0  0  0  0  0
    7.2390   -1.5269    0.4657 O   0  0  0  0  0  0  0  0  0  0  0  0
    5.9326   -1.1504    0.3256 C   0  0  0  0  0  0  0  0  0  0  0  0
    5.3815   -0.4866   -0.7687 C   0  0  0  0  0  0  0  0  0  0  0  0
    4.0199   -0.1607   -0.7788 C   0  0  0  0  0  0  0  0  0  0  0  0
    3.1940   -0.4930    0.3042 C   0  0  0  0  0  0  0  0  0  0  0  0
    1.7478   -0.1200    0.2364 C   0  0  0  0  0  0  0  0  0  0  0  0
    1.3112    0.3922   -0.7951 O   0  0  0  0  0  0  0  0  0  0  0  0
    0.8716   -0.4044    1.4532 C   0  0  0  0  0  0  0  0  0  0  0  0
   -0.4484    0.1359    1.2266 N   0  0  0  0  0  0  0  0  0  0  0  0
   -0.8118    1.4132    1.5073 C   0  0  0  0  0  0  0  0  0  0  0  0
   -0.1325    2.2763    2.0371 O   0  0  0  0  0  0  0  0  0  0  0  0
   -2.1128    1.5954    1.1023 N   0  0  0  0  0  0  0  0  0  0  0  0
   -2.6418    0.4497    0.3860 C   0  0  0  0  0  0  0  0  0  0  0  0
   -2.7697    0.7625   -1.1188 C   0  0  0  0  0  0  0  0  0  0  0  0
   -3.9018    0.0147   -1.8236 C   0  0  0  0  0  0  0  0  0  0  0  0
   -5.3195    0.5048   -1.4976 C   0  0  0  0  0  0  0  0  0  0  0  0
   -5.4708    1.4076   -0.2753 C   0  0  0  0  0  0  0  0  0  0  0  0
   -5.1234    0.7596    1.0610 C   0  0  0  0  0  0  0  0  0  0  0  0
   -3.8790   -0.1250    1.0847 C   0  0  0  0  0  0  0  0  0  0  0  0
   -1.4592   -0.5259    0.5906 C   0  0  0  0  0  0  0  0  0  0  0  0
   -1.4337   -1.6944    0.2250 O   0  0  0  0  0  0  0  0  0  0  0  0
    3.7489   -1.1609    1.4002 C   0  0  0  0  0  0  0  0  0  0  0  0
    5.1105   -1.4842    1.4048 C   0  0  0  0  0  0  0  0  0  0  0  0
    7.8162   -1.7123   -1.5287 H   0  0  0  0  0  0  0  0  0  0  0  0
    8.1875   -0.1243   -0.7502 H   0  0  0  0  0  0  0  0  0  0  0  0
    9.1159   -1.5714   -0.3385 H   0  0  0  0  0  0  0  0  0  0  0  0
    5.9777   -0.2067   -1.6311 H   0  0  0  0  0  0  0  0  0  0  0  0
    3.6076    0.3581   -1.6434 H   0  0  0  0  0  0  0  0  0  0  0  0
    0.7955   -1.4865    1.5960 H   0  0  0  0  0  0  0  0  0  0  0  0
    1.3026    0.0808    2.3341 H   0  0  0  0  0  0  0  0  0  0  0  0
   -2.5340    2.5144    1.1393 H   0  0  0  0  0  0  0  0  0  0  0  0
   -2.8965    1.8401   -1.2840 H   0  0  0  0  0  0  0  0  0  0  0  0
   -1.8304    0.5110   -1.6305 H   0  0  0  0  0  0  0  0  0  0  0  0
   -3.7559    0.1037   -2.9080 H   0  0  0  0  0  0  0  0  0  0  0  0
   -3.8241   -1.0590   -1.6134 H   0  0  0  0  0  0  0  0  0  0  0  0
   -5.6901    1.0641   -2.3666 H   0  0  0  0  0  0  0  0  0  0  0  0
   -5.9839   -0.3628   -1.4007 H   0  0  0  0  0  0  0  0  0  0  0  0
   -6.5116    1.7525   -0.2247 H   0  0  0  0  0  0  0  0  0  0  0  0
   -4.8764    2.3190   -0.4077 H   0  0  0  0  0  0  0  0  0  0  0  0
   -5.9753    0.1510    1.3904 H   0  0  0  0  0  0  0  0  0  0  0  0
   -5.0172    1.5536    1.8109 H   0  0  0  0  0  0  0  0  0  0  0  0
   -3.6428   -0.3430    2.1360 H   0  0  0  0  0  0  0  0  0  0  0  0
   -4.1317   -1.1019    0.6523 H   0  0  0  0  0  0  0  0  0  0  0  0
    3.1576   -1.4484    2.2638 H   0  0  0  0  0  0  0  0  0  0  0  0
    5.5376   -2.0040    2.2601 H   0  0  0  0  0  0  0  0  0  0  0  0
  1  2  1  0
  2  3  1  0
  3  4  2  0
  4  5  1  0
  5  6  2  0
  6  7  1  0
  7  8  2  0
  7  9  1  0
  9 10  1  0
 10 11  1  0
 11 12  2  0
 11 13  1  0
 13 14  1  0
 14 15  1  0
 15 16  1  0
 16 17  1  0
 17 18  1  0
 18 19  1  0
 19 20  1  0
 14 21  1  0
 21 22  2  0
  6 23  1  0
 23 24  2  0
 24  3  1  0
 21 10  1  0
 20 14  1  0
  1 25  1  0
  1 26  1  0
  1 27  1  0
  4 28  1  0
  5 29  1  0
  9 30  1  0
  9 31  1  0
 13 32  1  0
 15 33  1  0
 15 34  1  0
 16 35  1  0
 16 36  1  0
 17 37  1  0
 17 38  1  0
 18 39  1  0
 18 40  1  0
 19 41  1  0
 19 42  1  0
 20 43  1  0
 20 44  1  0
 23 45  1  0
 24 46  1  0
M  END
$$$$
