
     RDKit          3D

 44 46  0  0  0  0  0  0  0  0999 V2000
    2.3944    0.1247   -4.4331 C   0  0  0  0  0  0  0  0  0  0  0  0
    2.4353    0.2130   -3.0077 O   0  0  0  0  0  0  0  0  0  0  0  0
    1.3262   -0.2884   -2.3902 C   0  0  0  0  0  0  0  0  0  0  0  0
    0.3647   -0.7804   -2.9666 O   0  0  0  0  0  0  0  0  0  0  0  0
    1.4495   -0.1540   -0.8899 C   0  0  0  0  0  0  0  0  0  0  0  0
    1.4156   -1.5175   -0.2368 C   0  0  0  0  0  0  0  0  0  0  0  0
    2.6958   -2.3169   -0.2373 C   0  0  0  0  0  0  0  0  0  0  0  0
    0.3640   -2.0508    0.3059 N   0  0  0  0  0  0  0  0  0  0  0  0
   -0.8248   -1.3594    0.2909 C   0  0  0  0  0  0  0  0  0  0  0  0
   -0.8939   -0.0544    0.0038 C   0  0  0  0  0  0  0  0  0  0  0  0
   -2.2075    0.6156   -0.0163 C   0  0  0  0  0  0  0  0  0  0  0  0
   -2.2969    1.7707   -0.4295 O   0  0  0  0  0  0  0  0  0  0  0  0
   -3.2774   -0.1248    0.4375 N   0  0  0  0  0  0  0  0  0  0  0  0
   -4.5795    0.5122    0.4775 C   0  0  0  0  0  0  0  0  0  0  0  0
   -3.2213   -1.4881    0.6929 C   0  0  0  0  0  0  0  0  0  0  0  0
   -4.2357   -2.1349    0.9628 O   0  0  0  0  0  0  0  0  0  0  0  0
   -1.9623   -2.0711    0.6163 N   0  0  0  0  0  0  0  0  0  0  0  0
   -1.8438   -3.4995    0.8939 C   0  0  0  0  0  0  0  0  0  0  0  0
    0.3222    0.7490   -0.3654 C   0  0  0  0  0  0  0  0  0  0  0  0
    0.7907    1.6235    0.8012 C   0  0  0  0  0  0  0  0  0  0  0  0
    0.7190    3.0226    0.6853 C   0  0  0  0  0  0  0  0  0  0  0  0
    1.1277    3.8493    1.7349 C   0  0  0  0  0  0  0  0  0  0  0  0
    1.6076    3.2853    2.9129 C   0  0  0  0  0  0  0  0  0  0  0  0
    2.1079    4.3022    4.2072 Cl  0  0  0  0  0  0  0  0  0  0  0  0
    1.6786    1.9016    3.0519 C   0  0  0  0  0  0  0  0  0  0  0  0
    1.2701    1.0734    2.0026 C   0  0  0  0  0  0  0  0  0  0  0  0
    2.2489   -0.9113   -4.7544 H   0  0  0  0  0  0  0  0  0  0  0  0
    3.3521    0.4767   -4.8238 H   0  0  0  0  0  0  0  0  0  0  0  0
    1.6017    0.7672   -4.8267 H   0  0  0  0  0  0  0  0  0  0  0  0
    2.4276    0.2964   -0.6698 H   0  0  0  0  0  0  0  0  0  0  0  0
    2.5391   -3.2980    0.2213 H   0  0  0  0  0  0  0  0  0  0  0  0
    3.0401   -2.4543   -1.2664 H   0  0  0  0  0  0  0  0  0  0  0  0
    3.4589   -1.7754    0.3296 H   0  0  0  0  0  0  0  0  0  0  0  0
   -4.4898    1.5950    0.6039 H   0  0  0  0  0  0  0  0  0  0  0  0
   -5.0929    0.3046   -0.4658 H   0  0  0  0  0  0  0  0  0  0  0  0
   -5.1775    0.1128    1.3028 H   0  0  0  0  0  0  0  0  0  0  0  0
   -1.1881   -3.6472    1.7590 H   0  0  0  0  0  0  0  0  0  0  0  0
   -2.8097   -3.9594    1.1204 H   0  0  0  0  0  0  0  0  0  0  0  0
   -1.4253   -4.0056    0.0179 H   0  0  0  0  0  0  0  0  0  0  0  0
    0.0468    1.4257   -1.1874 H   0  0  0  0  0  0  0  0  0  0  0  0
    0.3250    3.4834   -0.2198 H   0  0  0  0  0  0  0  0  0  0  0  0
    1.0585    4.9292    1.6277 H   0  0  0  0  0  0  0  0  0  0  0  0
    2.0413    1.4605    3.9765 H   0  0  0  0  0  0  0  0  0  0  0  0
    1.3172   -0.0033    2.1500 H   0  0  0  0  0  0  0  0  0  0  0  0
  1  2  1  0
  2  3  1  0
  3  4  2  0
  3  5  1  0
  5  6  1  0
  6  7  1  0
  6  8  2  0
  8  9  1  0
  9 10  2  0
 10 11  1  0
 11 12  2  0
 11 13  1  0
 13 14  1  0
 13 15  1  0
 15 16  2  0
 15 17  1  0
 17 18  1  0
 10 19  1  0
 19 20  1  0
 20 21  2  0
 21 22  1  0
 22 23  2  0
 23 24  1  0
 23 25  1  0
 25 26  2  0
 19  5  1  0
 26 20  1  0
 17  9  1  0
  1 27  1  0
  1 28  1  0
  1 29  1  0
  5 30  1  0
  7 31  1  0
  7 32  1  0
  7 33  1  0
 14 34  1  0
 14 35  1  0
 14 36  1  0
 18 37  1  0
 18 38  1  0
 18 39  1  0
 19 40  1  0
 21 41  1  0
 22 42  1  0
 25 43  1  0
 26 44  1  0
M  END
$$$$
