
     RDKit          3D

 62 66  0  0  0  0  0  0  0  0999 V2000
   -5.8026   -2.0665    2.5291 C   0  0  0  0  0  0  0  0  0  0  0  0
   -5.8516   -0.8601    1.6251 C   0  0  0  0  0  0  0  0  0  0  0  0
   -6.9046   -0.0223    1.6883 C   0  0  0  0  0  0  0  0  0  0  0  0
   -7.0028    1.1630    0.8308 C   0  0  0  0  0  0  0  0  0  0  0  0
   -8.1273    1.9929    0.9283 C   0  0  0  0  0  0  0  0  0  0  0  0
   -8.2394    3.1194    0.1168 C   0  0  0  0  0  0  0  0  0  0  0  0
   -7.2280    3.4221   -0.7906 C   0  0  0  0  0  0  0  0  0  0  0  0
   -6.0969    2.6030   -0.8953 C   0  0  0  0  0  0  0  0  0  0  0  0
   -5.9828    1.4636   -0.0945 C   0  0  0  0  0  0  0  0  0  0  0  0
   -4.8985    0.5446   -0.1504 N   0  0  0  0  0  0  0  0  0  0  0  0
   -3.7616    0.4425   -0.9345 C   0  0  0  0  0  0  0  0  0  0  0  0
   -3.2559    1.4879   -2.2171 S   0  0  0  0  0  0  0  0  0  0  0  0
   -2.4456    0.3044   -3.3289 C   0  0  0  0  0  0  0  0  0  0  0  0
   -0.9549    0.2126   -3.0465 C   0  0  0  0  0  0  0  0  0  0  0  0
   -0.1504    0.8559   -3.7158 O   0  0  0  0  0  0  0  0  0  0  0  0
   -0.6398   -0.6508   -2.0128 N   0  0  0  0  0  0  0  0  0  0  0  0
    0.6460   -1.0730   -1.6204 C   0  0  0  0  0  0  0  0  0  0  0  0
    0.7593   -1.7396   -0.3922 C   0  0  0  0  0  0  0  0  0  0  0  0
    2.0019   -2.1979    0.0573 C   0  0  0  0  0  0  0  0  0  0  0  0
    3.1368   -1.9975   -0.7330 C   0  0  0  0  0  0  0  0  0  0  0  0
    4.7158   -2.6201   -0.1928 S   0  0  0  0  0  6  0  0  0  0  0  0
    4.4624   -3.6170    0.8257 O   0  0  0  0  0  0  0  0  0  0  0  0
    5.4864   -2.9407   -1.3762 O   0  0  0  0  0  0  0  0  0  0  0  0
    5.4280   -1.2762    0.5569 N   0  0  0  0  0  0  0  0  0  0  0  0
    4.8320   -0.7909    1.8126 C   0  0  0  0  0  0  0  0  0  0  0  0
    5.9265   -0.1411    2.6620 C   0  0  0  0  0  0  0  0  0  0  0  0
    6.9181    0.7016    1.8369 C   0  0  0  0  0  0  0  0  0  0  0  0
    7.3485    1.9530    2.6006 C   0  0  0  0  0  0  0  0  0  0  0  0
    6.3315    1.0486    0.4662 C   0  0  0  0  0  0  0  0  0  0  0  0
    5.9855   -0.2191   -0.3197 C   0  0  0  0  0  0  0  0  0  0  0  0
    3.0277   -1.3780   -1.9794 C   0  0  0  0  0  0  0  0  0  0  0  0
    1.7861   -0.9012   -2.4111 C   0  0  0  0  0  0  0  0  0  0  0  0
   -3.0621   -0.6176   -0.5897 N   0  0  0  0  0  0  0  0  0  0  0  0
   -3.7216   -1.2552    0.4161 N   0  0  0  0  0  0  0  0  0  0  0  0
   -4.8203   -0.5759    0.6784 C   0  0  0  0  0  0  0  0  0  0  0  0
   -4.9685   -1.9759    3.2344 H   0  0  0  0  0  0  0  0  0  0  0  0
   -6.7222   -2.1899    3.1125 H   0  0  0  0  0  0  0  0  0  0  0  0
   -5.6600   -2.9780    1.9390 H   0  0  0  0  0  0  0  0  0  0  0  0
   -7.7214   -0.2037    2.3845 H   0  0  0  0  0  0  0  0  0  0  0  0
   -8.9242    1.7716    1.6343 H   0  0  0  0  0  0  0  0  0  0  0  0
   -9.1109    3.7638    0.1961 H   0  0  0  0  0  0  0  0  0  0  0  0
   -7.3134    4.3053   -1.4210 H   0  0  0  0  0  0  0  0  0  0  0  0
   -5.3512    2.9040   -1.6181 H   0  0  0  0  0  0  0  0  0  0  0  0
   -2.5714    0.6583   -4.3579 H   0  0  0  0  0  0  0  0  0  0  0  0
   -2.9052   -0.6880   -3.2817 H   0  0  0  0  0  0  0  0  0  0  0  0
   -1.4112   -0.9280   -1.4050 H   0  0  0  0  0  0  0  0  0  0  0  0
   -0.1181   -1.9035    0.2323 H   0  0  0  0  0  0  0  0  0  0  0  0
    2.0710   -2.7179    1.0106 H   0  0  0  0  0  0  0  0  0  0  0  0
    4.3838   -1.6058    2.3884 H   0  0  0  0  0  0  0  0  0  0  0  0
    4.0353   -0.0704    1.5920 H   0  0  0  0  0  0  0  0  0  0  0  0
    5.4528    0.4539    3.4533 H   0  0  0  0  0  0  0  0  0  0  0  0
    6.4931   -0.9278    3.1777 H   0  0  0  0  0  0  0  0  0  0  0  0
    7.8197    0.0938    1.6716 H   0  0  0  0  0  0  0  0  0  0  0  0
    6.4936    2.6081    2.8094 H   0  0  0  0  0  0  0  0  0  0  0  0
    7.8113    1.6764    3.5561 H   0  0  0  0  0  0  0  0  0  0  0  0
    8.0847    2.5262    2.0269 H   0  0  0  0  0  0  0  0  0  0  0  0
    5.4295    1.6616    0.5936 H   0  0  0  0  0  0  0  0  0  0  0  0
    7.0358    1.6538   -0.1165 H   0  0  0  0  0  0  0  0  0  0  0  0
    5.2928    0.0421   -1.1215 H   0  0  0  0  0  0  0  0  0  0  0  0
    6.9011   -0.6115   -0.7784 H   0  0  0  0  0  0  0  0  0  0  0  0
    3.8958   -1.2676   -2.6260 H   0  0  0  0  0  0  0  0  0  0  0  0
    1.7317   -0.4254   -3.3867 H   0  0  0  0  0  0  0  0  0  0  0  0
  1  2  1  0
  2  3  2  0
  3  4  1  0
  4  5  2  0
  5  6  1  0
  6  7  2  0
  7  8  1  0
  8  9  2  0
  9 10  1  0
 10 11  1  0
 11 12  1  0
 12 13  1  0
 13 14  1  0
 14 15  2  0
 14 16  1  0
 16 17  1  0
 17 18  2  0
 18 19  1  0
 19 20  2  0
 20 21  1  0
 21 22  2  0
 21 23  2  0
 21 24  1  0
 24 25  1  0
 25 26  1  0
 26 27  1  0
 27 28  1  0
 27 29  1  0
 29 30  1  0
 20 31  1  0
 31 32  2  0
 11 33  2  0
 33 34  1  0
 34 35  2  0
 35  2  1  0
  9  4  1  0
 35 10  1  0
 32 17  1  0
 30 24  1  0
  1 36  1  0
  1 37  1  0
  1 38  1  0
  3 39  1  0
  5 40  1  0
  6 41  1  0
  7 42  1  0
  8 43  1  0
 13 44  1  0
 13 45  1  0
 16 46  1  0
 18 47  1  0
 19 48  1  0
 25 49  1  0
 25 50  1  0
 26 51  1  0
 26 52  1  0
 27 53  1  0
 28 54  1  0
 28 55  1  0
 28 56  1  0
 29 57  1  0
 29 58  1  0
 30 59  1  0
 30 60  1  0
 31 61  1  0
 32 62  1  0
M  END
$$$$
