
     RDKit          3D

 38 40  0  0  0  0  0  0  0  0999 V2000
   -0.8675   -1.5499   -1.3417 O   0  0  0  0  0  0  0  0  0  0  0  0
   -0.9425   -0.4826   -1.9365 C   0  0  0  0  0  0  0  0  0  0  0  0
   -2.1158    0.4677   -1.8674 C   0  0  0  0  0  0  0  0  0  0  0  0
   -2.5656    0.7347   -0.4500 C   0  0  0  0  0  0  0  0  0  0  0  0
   -1.9695    1.7589    0.3000 C   0  0  0  0  0  0  0  0  0  0  0  0
   -2.3665    1.9932    1.6176 C   0  0  0  0  0  0  0  0  0  0  0  0
   -3.3579    1.2023    2.2013 C   0  0  0  0  0  0  0  0  0  0  0  0
   -3.9650    0.1675    1.4723 C   0  0  0  0  0  0  0  0  0  0  0  0
   -5.0125   -0.7080    2.1179 C   0  0  0  0  0  0  0  0  0  0  0  0
   -5.8421   -1.3079    1.2178 F   0  0  0  0  0  0  0  0  0  0  0  0
   -4.4688   -1.7164    2.8537 F   0  0  0  0  0  0  0  0  0  0  0  0
   -5.8281   -0.0222    2.9709 F   0  0  0  0  0  0  0  0  0  0  0  0
   -3.5537   -0.0633    0.1479 C   0  0  0  0  0  0  0  0  0  0  0  0
    0.0136    0.0150   -2.7671 O   0  0  0  0  0  0  0  0  0  0  0  0
    1.2233   -0.7467   -2.8268 C   0  0  0  0  0  0  0  0  0  0  0  0
    1.9934   -0.5911   -1.6186 N   0  0  0  0  0  0  0  0  0  0  0  0
    2.6882   -1.6210   -1.0488 C   0  0  0  0  0  0  0  0  0  0  0  0
    2.7758   -2.7809   -1.4029 O   0  0  0  0  0  0  0  0  0  0  0  0
    3.4187   -1.0518    0.0828 C   0  0  0  0  0  0  0  0  0  0  0  0
    4.2277   -1.6580    1.0244 C   0  0  0  0  0  0  0  0  0  0  0  0
    4.8160   -0.8312    1.9865 C   0  0  0  0  0  0  0  0  0  0  0  0
    4.5902    0.5622    1.9802 C   0  0  0  0  0  0  0  0  0  0  0  0
    3.7723    1.1521    1.0106 C   0  0  0  0  0  0  0  0  0  0  0  0
    3.1955    0.3130    0.0778 C   0  0  0  0  0  0  0  0  0  0  0  0
    2.3182    0.6114   -1.0534 C   0  0  0  0  0  0  0  0  0  0  0  0
    1.9983    1.7380   -1.3850 O   0  0  0  0  0  0  0  0  0  0  0  0
   -2.9334    0.0445   -2.4636 H   0  0  0  0  0  0  0  0  0  0  0  0
   -1.8520    1.4213   -2.3431 H   0  0  0  0  0  0  0  0  0  0  0  0
   -1.1863    2.3800   -0.1361 H   0  0  0  0  0  0  0  0  0  0  0  0
   -1.8982    2.7896    2.1914 H   0  0  0  0  0  0  0  0  0  0  0  0
   -3.6550    1.3928    3.2329 H   0  0  0  0  0  0  0  0  0  0  0  0
   -4.0032   -0.8799   -0.4183 H   0  0  0  0  0  0  0  0  0  0  0  0
    1.0153   -1.8024   -3.0442 H   0  0  0  0  0  0  0  0  0  0  0  0
    1.8184   -0.3437   -3.6552 H   0  0  0  0  0  0  0  0  0  0  0  0
    4.3985   -2.7301    1.0122 H   0  0  0  0  0  0  0  0  0  0  0  0
    5.4586   -1.2664    2.7506 H   0  0  0  0  0  0  0  0  0  0  0  0
    5.0631    1.1852    2.7382 H   0  0  0  0  0  0  0  0  0  0  0  0
    3.5983    2.2243    0.9862 H   0  0  0  0  0  0  0  0  0  0  0  0
  1  2  2  0
  2  3  1  0
  3  4  1  0
  4  5  2  0
  5  6  1  0
  6  7  2  0
  7  8  1  0
  8  9  1  0
  9 10  1  0
  9 11  1  0
  9 12  1  0
  8 13  2  0
  2 14  1  0
 14 15  1  0
 15 16  1  0
 16 17  1  0
 17 18  2  0
 17 19  1  0
 19 20  2  0
 20 21  1  0
 21 22  2  0
 22 23  1  0
 23 24  2  0
 24 25  1  0
 25 26  2  0
 13  4  1  0
 25 16  1  0
 24 19  1  0
  3 27  1  0
  3 28  1  0
  5 29  1  0
  6 30  1  0
  7 31  1  0
 13 32  1  0
 15 33  1  0
 15 34  1  0
 20 35  1  0
 21 36  1  0
 22 37  1  0
 23 38  1  0
M  END
$$$$
