
     RDKit          3D

 49 51  0  0  0  0  0  0  0  0999 V2000
   -8.4397    0.3867   -0.0468 C   0  0  0  0  0  0  0  0  0  0  0  0
   -7.4764   -0.3887    0.8156 C   0  0  0  0  0  0  0  0  0  0  0  0
   -7.8929   -1.0476    1.7686 O   0  0  0  0  0  0  0  0  0  0  0  0
   -6.1281   -0.3022    0.4947 N   0  0  0  0  0  0  0  0  0  0  0  0
   -5.2056   -1.1904    1.2123 C   0  0  0  0  0  0  0  0  0  0  0  0
   -3.7608   -0.6621    1.2554 C   0  0  0  0  0  0  0  0  0  0  0  0
   -3.3002   -0.2846   -0.1050 N   0  0  0  0  0  0  0  0  0  0  0  0
   -1.9163   -0.0608   -0.1786 C   0  0  0  0  0  0  0  0  0  0  0  0
   -1.3414    1.1692   -0.5170 C   0  0  0  0  0  0  0  0  0  0  0  0
    0.0526    1.3445   -0.5863 C   0  0  0  0  0  0  0  0  0  0  0  0
    0.9184    0.2879   -0.3306 C   0  0  0  0  0  0  0  0  0  0  0  0
    2.3285    0.3386   -0.3652 N   0  0  0  0  0  0  0  0  0  0  0  0
    3.2420    1.3138   -0.6858 C   0  0  0  0  0  0  0  0  0  0  0  0
    3.0110    2.8783   -1.2214 S   0  0  0  0  0  0  0  0  0  0  0  0
    4.5695    0.9294   -0.5388 N   0  0  0  0  0  0  0  0  0  0  0  0
    5.0902   -0.2931   -0.1333 C   0  0  0  0  0  0  0  0  0  0  0  0
    4.4000   -1.2859    0.0818 O   0  0  0  0  0  0  0  0  0  0  0  0
    6.5708   -0.3681   -0.0121 C   0  0  0  0  0  0  0  0  0  0  0  0
    7.3422    0.7379    0.3696 C   0  0  0  0  0  0  0  0  0  0  0  0
    8.7304    0.6168    0.4700 C   0  0  0  0  0  0  0  0  0  0  0  0
    9.3485   -0.6041    0.1995 C   0  0  0  0  0  0  0  0  0  0  0  0
    8.5824   -1.7111   -0.1630 C   0  0  0  0  0  0  0  0  0  0  0  0
    7.1952   -1.5962   -0.2639 C   0  0  0  0  0  0  0  0  0  0  0  0
    0.3558   -0.9495    0.0003 C   0  0  0  0  0  0  0  0  0  0  0  0
   -1.0332   -1.1190    0.0702 C   0  0  0  0  0  0  0  0  0  0  0  0
   -4.1926    0.7067   -0.7387 C   0  0  0  0  0  0  0  0  0  0  0  0
   -5.6354    0.1715   -0.8062 C   0  0  0  0  0  0  0  0  0  0  0  0
   -8.1808    1.4487   -0.0423 H   0  0  0  0  0  0  0  0  0  0  0  0
   -8.4374   -0.0082   -1.0660 H   0  0  0  0  0  0  0  0  0  0  0  0
   -9.4513    0.2829    0.3577 H   0  0  0  0  0  0  0  0  0  0  0  0
   -5.5590   -1.3564    2.2359 H   0  0  0  0  0  0  0  0  0  0  0  0
   -5.2330   -2.1576    0.6949 H   0  0  0  0  0  0  0  0  0  0  0  0
   -3.1318   -1.4405    1.7017 H   0  0  0  0  0  0  0  0  0  0  0  0
   -3.7135    0.2187    1.9095 H   0  0  0  0  0  0  0  0  0  0  0  0
   -1.9585    2.0393   -0.7193 H   0  0  0  0  0  0  0  0  0  0  0  0
    0.4031    2.3358   -0.8379 H   0  0  0  0  0  0  0  0  0  0  0  0
    2.7758   -0.5475   -0.1208 H   0  0  0  0  0  0  0  0  0  0  0  0
    5.2164    1.6585   -0.8060 H   0  0  0  0  0  0  0  0  0  0  0  0
    6.8853    1.6905    0.6224 H   0  0  0  0  0  0  0  0  0  0  0  0
    9.3317    1.4722    0.7700 H   0  0  0  0  0  0  0  0  0  0  0  0
   10.4292   -0.6961    0.2818 H   0  0  0  0  0  0  0  0  0  0  0  0
    9.0643   -2.6652   -0.3631 H   0  0  0  0  0  0  0  0  0  0  0  0
    6.6034   -2.4665   -0.5419 H   0  0  0  0  0  0  0  0  0  0  0  0
    0.9890   -1.8112    0.2008 H   0  0  0  0  0  0  0  0  0  0  0  0
   -1.4231   -2.1079    0.2988 H   0  0  0  0  0  0  0  0  0  0  0  0
   -4.1872    1.6408   -0.1621 H   0  0  0  0  0  0  0  0  0  0  0  0
   -3.8629    0.9257   -1.7615 H   0  0  0  0  0  0  0  0  0  0  0  0
   -6.2850    0.9553   -1.2040 H   0  0  0  0  0  0  0  0  0  0  0  0
   -5.6894   -0.6817   -1.4937 H   0  0  0  0  0  0  0  0  0  0  0  0
  1  2  1  0
  2  3  2  0
  2  4  1  0
  4  5  1  0
  5  6  1  0
  6  7  1  0
  7  8  1  0
  8  9  2  0
  9 10  1  0
 10 11  2  0
 11 12  1  0
 12 13  1  0
 13 14  2  0
 13 15  1  0
 15 16  1  0
 16 17  2  0
 16 18  1  0
 18 19  2  0
 19 20  1  0
 20 21  2  0
 21 22  1  0
 22 23  2  0
 11 24  1  0
 24 25  2  0
  7 26  1  0
 26 27  1  0
 27  4  1  0
 25  8  1  0
 23 18  1  0
  1 28  1  0
  1 29  1  0
  1 30  1  0
  5 31  1  0
  5 32  1  0
  6 33  1  0
  6 34  1  0
  9 35  1  0
 10 36  1  0
 12 37  1  0
 15 38  1  0
 19 39  1  0
 20 40  1  0
 21 41  1  0
 22 42  1  0
 23 43  1  0
 24 44  1  0
 25 45  1  0
 26 46  1  0
 26 47  1  0
 27 48  1  0
 27 49  1  0
M  END
$$$$
