
     RDKit          3D

 57 61  0  0  0  0  0  0  0  0999 V2000
   -3.7539    4.2450    0.2479 C   0  0  0  0  0  0  0  0  0  0  0  0
   -3.7404    3.7015    1.5284 C   0  0  0  0  0  0  0  0  0  0  0  0
   -3.5247    2.3328    1.7044 C   0  0  0  0  0  0  0  0  0  0  0  0
   -3.3082    1.4783    0.6046 C   0  0  0  0  0  0  0  0  0  0  0  0
   -3.1055   -0.0082    0.8852 C   0  0  0  0  0  0  0  0  0  0  0  0
   -4.3496   -0.8809    0.9514 C   0  0  0  0  0  0  0  0  0  0  0  0
   -5.4960   -0.6315    0.1784 C   0  0  0  0  0  0  0  0  0  0  0  0
   -6.6171   -1.4601    0.2708 C   0  0  0  0  0  0  0  0  0  0  0  0
   -6.6113   -2.5530    1.1336 C   0  0  0  0  0  0  0  0  0  0  0  0
   -5.4835   -2.8218    1.9039 C   0  0  0  0  0  0  0  0  0  0  0  0
   -4.3620   -1.9949    1.8131 C   0  0  0  0  0  0  0  0  0  0  0  0
   -2.1595   -0.6003   -0.1211 C   0  0  0  0  0  0  0  0  0  0  0  0
   -2.5127   -1.0584   -1.3360 N   0  0  0  0  0  0  0  0  0  0  0  0
   -1.3076   -1.4838   -1.8915 O   0  0  0  0  0  0  0  0  0  0  0  0
   -0.3449   -1.2542   -0.9543 C   0  0  0  0  0  0  0  0  0  0  0  0
    1.0544   -1.6303   -1.3143 C   0  0  0  0  0  0  0  0  0  0  0  0
    1.7421   -0.6366   -2.1670 N   0  0  0  0  0  0  0  0  0  0  0  0
    1.9264    0.6702   -1.5155 C   0  0  0  0  0  0  0  0  0  0  0  0
    2.9839    0.6723   -0.4090 C   0  0  0  0  0  0  0  0  0  0  0  0
    4.3240    0.1356   -0.9344 C   0  0  0  0  0  0  0  0  0  0  0  0
    5.3841    0.0744    0.1481 C   0  0  0  0  0  0  0  0  0  0  0  0
    6.5671    0.8087    0.0130 C   0  0  0  0  0  0  0  0  0  0  0  0
    7.5230    0.7326    1.0156 C   0  0  0  0  0  0  0  0  0  0  0  0
    7.3862   -0.0150    2.1300 N   0  0  0  0  0  0  0  0  0  0  0  0
    6.2401   -0.7169    2.2461 C   0  0  0  0  0  0  0  0  0  0  0  0
    5.2268   -0.7062    1.2984 C   0  0  0  0  0  0  0  0  0  0  0  0
    4.1285   -1.2240   -1.6221 C   0  0  0  0  0  0  0  0  0  0  0  0
    3.0213   -1.1493   -2.6769 C   0  0  0  0  0  0  0  0  0  0  0  0
   -0.8119   -0.7288    0.1575 N   0  0  0  0  0  0  0  0  0  0  0  0
   -3.3432    2.0491   -0.6804 C   0  0  0  0  0  0  0  0  0  0  0  0
   -3.5584    3.4194   -0.8553 C   0  0  0  0  0  0  0  0  0  0  0  0
   -3.9229    5.3093    0.1086 H   0  0  0  0  0  0  0  0  0  0  0  0
   -3.9018    4.3412    2.3922 H   0  0  0  0  0  0  0  0  0  0  0  0
   -3.5303    1.9316    2.7167 H   0  0  0  0  0  0  0  0  0  0  0  0
   -2.6026   -0.0742    1.8619 H   0  0  0  0  0  0  0  0  0  0  0  0
   -5.5306    0.2080   -0.5120 H   0  0  0  0  0  0  0  0  0  0  0  0
   -7.4940   -1.2519   -0.3368 H   0  0  0  0  0  0  0  0  0  0  0  0
   -7.4838   -3.1971    1.2010 H   0  0  0  0  0  0  0  0  0  0  0  0
   -5.4748   -3.6778    2.5735 H   0  0  0  0  0  0  0  0  0  0  0  0
   -3.4895   -2.2290    2.4205 H   0  0  0  0  0  0  0  0  0  0  0  0
    1.0013   -2.5864   -1.8513 H   0  0  0  0  0  0  0  0  0  0  0  0
    1.6124   -1.8258   -0.3915 H   0  0  0  0  0  0  0  0  0  0  0  0
    2.2233    1.3940   -2.2864 H   0  0  0  0  0  0  0  0  0  0  0  0
    0.9786    1.0549   -1.1225 H   0  0  0  0  0  0  0  0  0  0  0  0
    2.6265    0.0814    0.4426 H   0  0  0  0  0  0  0  0  0  0  0  0
    3.1152    1.6963   -0.0369 H   0  0  0  0  0  0  0  0  0  0  0  0
    4.6689    0.8394   -1.7060 H   0  0  0  0  0  0  0  0  0  0  0  0
    6.7515    1.4334   -0.8549 H   0  0  0  0  0  0  0  0  0  0  0  0
    8.4528    1.2897    0.9439 H   0  0  0  0  0  0  0  0  0  0  0  0
    6.1514   -1.3103    3.1516 H   0  0  0  0  0  0  0  0  0  0  0  0
    4.3348   -1.3001    1.4658 H   0  0  0  0  0  0  0  0  0  0  0  0
    3.8878   -2.0038   -0.8894 H   0  0  0  0  0  0  0  0  0  0  0  0
    5.0644   -1.5353   -2.1032 H   0  0  0  0  0  0  0  0  0  0  0  0
    3.3533   -0.4959   -3.4945 H   0  0  0  0  0  0  0  0  0  0  0  0
    2.8804   -2.1358   -3.1356 H   0  0  0  0  0  0  0  0  0  0  0  0
   -3.2122    1.4395   -1.5720 H   0  0  0  0  0  0  0  0  0  0  0  0
   -3.5775    3.8390   -1.8581 H   0  0  0  0  0  0  0  0  0  0  0  0
  1  2  2  0
  2  3  1  0
  3  4  2  0
  4  5  1  0
  5  6  1  0
  6  7  2  0
  7  8  1  0
  8  9  2  0
  9 10  1  0
 10 11  2  0
  5 12  1  0
 12 13  2  0
 13 14  1  0
 14 15  1  0
 15 16  1  0
 16 17  1  0
 17 18  1  0
 18 19  1  0
 19 20  1  0
 20 21  1  0
 21 22  2  0
 22 23  1  0
 23 24  2  0
 24 25  1  0
 25 26  2  0
 20 27  1  0
 27 28  1  0
 15 29  2  0
  4 30  1  0
 30 31  2  0
 31  1  1  0
 11  6  1  0
 29 12  1  0
 28 17  1  0
 26 21  1  0
  1 32  1  0
  2 33  1  0
  3 34  1  0
  5 35  1  0
  7 36  1  0
  8 37  1  0
  9 38  1  0
 10 39  1  0
 11 40  1  0
 16 41  1  0
 16 42  1  0
 18 43  1  0
 18 44  1  0
 19 45  1  0
 19 46  1  0
 20 47  1  0
 22 48  1  0
 23 49  1  0
 25 50  1  0
 26 51  1  0
 27 52  1  0
 27 53  1  0
 28 54  1  0
 28 55  1  0
 30 56  1  0
 31 57  1  0
M  END
$$$$
