
     RDKit          3D

 49 52  0  0  0  0  0  0  0  0999 V2000
    0.9852   -2.4998    2.3345 N   0  0  0  0  0  0  0  0  0  0  0  0
   -0.2357   -2.0632    1.9727 C   0  0  0  0  0  0  0  0  0  0  0  0
   -1.3199   -2.4507    2.5751 N   0  0  0  0  0  0  0  0  0  0  0  0
   -2.4103   -1.7532    1.8391 C   0  0  0  0  0  0  0  0  0  0  0  0
   -1.7335   -0.7375    0.8950 C   0  0  0  0  0  0  0  0  0  0  0  0
   -2.2838   -0.7771   -0.5347 C   0  0  0  0  0  0  0  0  0  0  0  0
   -3.6847   -0.2232   -0.6405 C   0  0  0  0  0  0  0  0  0  0  0  0
   -4.7842   -1.0833   -0.7745 C   0  0  0  0  0  0  0  0  0  0  0  0
   -6.0808   -0.5703   -0.8571 C   0  0  0  0  0  0  0  0  0  0  0  0
   -6.2769    0.8054   -0.8065 C   0  0  0  0  0  0  0  0  0  0  0  0
   -7.5248    1.3490   -0.8831 O   0  0  0  0  0  0  0  0  0  0  0  0
   -5.2001    1.6731   -0.6759 C   0  0  0  0  0  0  0  0  0  0  0  0
   -3.9047    1.1610   -0.5927 C   0  0  0  0  0  0  0  0  0  0  0  0
   -0.3356   -1.1849    0.9364 N   0  0  0  0  0  0  0  0  0  0  0  0
    0.6920   -0.1896    0.6246 C   0  0  0  0  0  0  0  0  0  0  0  0
    1.6442   -0.7192   -0.4527 C   0  0  0  0  0  0  0  0  0  0  0  0
    2.6592    0.3230   -0.8794 C   0  0  0  0  0  0  0  0  0  0  0  0
    2.4015    1.0390   -2.0624 C   0  0  0  0  0  0  0  0  0  0  0  0
    3.2809    2.0192   -2.5070 C   0  0  0  0  0  0  0  0  0  0  0  0
    4.4300    2.3020   -1.7750 C   0  0  0  0  0  0  0  0  0  0  0  0
    4.7167    1.6118   -0.5886 C   0  0  0  0  0  0  0  0  0  0  0  0
    5.8812    1.9171    0.1356 C   0  0  0  0  0  0  0  0  0  0  0  0
    6.1874    1.2485    1.3190 C   0  0  0  0  0  0  0  0  0  0  0  0
    5.3316    0.2646    1.7936 C   0  0  0  0  0  0  0  0  0  0  0  0
    4.1704   -0.0518    1.0838 C   0  0  0  0  0  0  0  0  0  0  0  0
    3.8301    0.6079   -0.1205 C   0  0  0  0  0  0  0  0  0  0  0  0
    0.8842   -3.2280    3.0354 H   0  0  0  0  0  0  0  0  0  0  0  0
    1.5110   -2.8537    1.5471 H   0  0  0  0  0  0  0  0  0  0  0  0
   -2.9981   -2.5040    1.3002 H   0  0  0  0  0  0  0  0  0  0  0  0
   -3.0713   -1.2444    2.5485 H   0  0  0  0  0  0  0  0  0  0  0  0
   -1.8182    0.2666    1.3312 H   0  0  0  0  0  0  0  0  0  0  0  0
   -2.2514   -1.8015   -0.9291 H   0  0  0  0  0  0  0  0  0  0  0  0
   -1.6362   -0.1946   -1.2036 H   0  0  0  0  0  0  0  0  0  0  0  0
   -4.6388   -2.1610   -0.8147 H   0  0  0  0  0  0  0  0  0  0  0  0
   -6.9167   -1.2550   -0.9598 H   0  0  0  0  0  0  0  0  0  0  0  0
   -8.1712    0.6289   -0.9653 H   0  0  0  0  0  0  0  0  0  0  0  0
   -5.3689    2.7456   -0.6390 H   0  0  0  0  0  0  0  0  0  0  0  0
   -3.0702    1.8516   -0.4928 H   0  0  0  0  0  0  0  0  0  0  0  0
    1.2315    0.0997    1.5343 H   0  0  0  0  0  0  0  0  0  0  0  0
    0.2216    0.7313    0.2550 H   0  0  0  0  0  0  0  0  0  0  0  0
    2.1639   -1.6263   -0.1263 H   0  0  0  0  0  0  0  0  0  0  0  0
    1.0594   -1.0392   -1.3261 H   0  0  0  0  0  0  0  0  0  0  0  0
    1.5077    0.8328   -2.6482 H   0  0  0  0  0  0  0  0  0  0  0  0
    3.0728    2.5638   -3.4243 H   0  0  0  0  0  0  0  0  0  0  0  0
    5.1055    3.0727   -2.1403 H   0  0  0  0  0  0  0  0  0  0  0  0
    6.5639    2.6861   -0.2200 H   0  0  0  0  0  0  0  0  0  0  0  0
    7.0915    1.4980    1.8677 H   0  0  0  0  0  0  0  0  0  0  0  0
    5.5621   -0.2598    2.7175 H   0  0  0  0  0  0  0  0  0  0  0  0
    3.5303   -0.8273    1.4966 H   0  0  0  0  0  0  0  0  0  0  0  0
  1  2  1  0
  2  3  2  0
  3  4  1  0
  4  5  1  0
  5  6  1  0
  6  7  1  0
  7  8  2  0
  8  9  1  0
  9 10  2  0
 10 11  1  0
 10 12  1  0
 12 13  2  0
  5 14  1  0
 14 15  1  0
 15 16  1  0
 16 17  1  0
 17 18  2  0
 18 19  1  0
 19 20  2  0
 20 21  1  0
 21 22  2  0
 22 23  1  0
 23 24  2  0
 24 25  1  0
 25 26  2  0
 14  2  1  0
 26 17  1  0
 13  7  1  0
 26 21  1  0
  1 27  1  0
  1 28  1  0
  4 29  1  0
  4 30  1  0
  5 31  1  0
  6 32  1  0
  6 33  1  0
  8 34  1  0
  9 35  1  0
 11 36  1  0
 12 37  1  0
 13 38  1  0
 15 39  1  0
 15 40  1  0
 16 41  1  0
 16 42  1  0
 18 43  1  0
 19 44  1  0
 20 45  1  0
 22 46  1  0
 23 47  1  0
 24 48  1  0
 25 49  1  0
M  END
$$$$
