
     RDKit          3D

 43 45  0  0  0  0  0  0  0  0999 V2000
   -0.2989   -3.4024   -1.4961 C   0  0  0  0  0  0  0  0  0  0  0  0
   -0.3595   -1.9907   -2.0194 C   0  0  0  0  0  0  0  0  0  0  0  0
   -1.1673   -1.6643   -2.8889 O   0  0  0  0  0  0  0  0  0  0  0  0
    0.5889   -1.0084   -1.4371 C   0  0  0  0  0  0  0  0  0  0  0  0
    0.1329   -0.1056   -0.5400 C   0  0  0  0  0  0  0  0  0  0  0  0
   -1.1790    0.0135   -0.0960 N   0  0  0  0  0  0  0  0  0  0  0  0
   -2.2299    0.5984   -0.9664 C   0  0  0  0  0  0  0  0  0  0  0  0
   -3.5311   -0.2292   -0.9160 C   0  0  0  0  0  0  0  0  0  0  0  0
   -4.1196   -0.3184    0.4409 N   0  0  0  0  0  0  0  0  0  0  0  0
   -5.0126   -1.4704    0.5337 C   0  0  0  0  0  0  0  0  0  0  0  0
   -3.0777   -0.3376    1.4878 C   0  0  0  0  0  0  0  0  0  0  0  0
   -1.6839   -0.8109    1.0215 C   0  0  0  0  0  0  0  0  0  0  0  0
    1.0396    0.7613    0.0096 N   0  0  0  0  0  0  0  0  0  0  0  0
    2.3805    0.7107   -0.2487 C   0  0  0  0  0  0  0  0  0  0  0  0
    3.3116    1.6494    0.4535 C   0  0  0  0  0  0  0  0  0  0  0  0
    2.8563    2.8650    0.9801 C   0  0  0  0  0  0  0  0  0  0  0  0
    3.7452    3.7195    1.6381 C   0  0  0  0  0  0  0  0  0  0  0  0
    5.0882    3.3677    1.7690 C   0  0  0  0  0  0  0  0  0  0  0  0
    5.5492    2.1650    1.2365 C   0  0  0  0  0  0  0  0  0  0  0  0
    4.6650    1.3089    0.5774 C   0  0  0  0  0  0  0  0  0  0  0  0
    2.8846   -0.1466   -1.0855 N   0  0  0  0  0  0  0  0  0  0  0  0
    2.0562   -1.0159   -1.7754 C   0  0  0  0  0  0  0  0  0  0  0  0
    2.7329   -2.0461   -2.9406 S   0  0  0  0  0  0  0  0  0  0  0  0
    0.0040   -4.0771   -2.3007 H   0  0  0  0  0  0  0  0  0  0  0  0
    0.4142   -3.4886   -0.6714 H   0  0  0  0  0  0  0  0  0  0  0  0
   -1.2871   -3.6869   -1.1242 H   0  0  0  0  0  0  0  0  0  0  0  0
   -2.4280    1.6215   -0.6239 H   0  0  0  0  0  0  0  0  0  0  0  0
   -1.8846    0.6768   -2.0035 H   0  0  0  0  0  0  0  0  0  0  0  0
   -4.2694    0.2224   -1.5885 H   0  0  0  0  0  0  0  0  0  0  0  0
   -3.3131   -1.2340   -1.3007 H   0  0  0  0  0  0  0  0  0  0  0  0
   -4.4756   -2.4196    0.4242 H   0  0  0  0  0  0  0  0  0  0  0  0
   -5.7887   -1.4194   -0.2382 H   0  0  0  0  0  0  0  0  0  0  0  0
   -5.5308   -1.4766    1.4990 H   0  0  0  0  0  0  0  0  0  0  0  0
   -3.3947   -0.9291    2.3556 H   0  0  0  0  0  0  0  0  0  0  0  0
   -2.9785    0.6927    1.8543 H   0  0  0  0  0  0  0  0  0  0  0  0
   -1.7341   -1.8623    0.7157 H   0  0  0  0  0  0  0  0  0  0  0  0
   -0.9867   -0.7442    1.8650 H   0  0  0  0  0  0  0  0  0  0  0  0
    0.6501    1.3605    0.7235 H   0  0  0  0  0  0  0  0  0  0  0  0
    1.8245    3.1812    0.8653 H   0  0  0  0  0  0  0  0  0  0  0  0
    3.3926    4.6661    2.0408 H   0  0  0  0  0  0  0  0  0  0  0  0
    5.7789    4.0357    2.2779 H   0  0  0  0  0  0  0  0  0  0  0  0
    6.5978    1.8934    1.3294 H   0  0  0  0  0  0  0  0  0  0  0  0
    5.0380    0.3747    0.1625 H   0  0  0  0  0  0  0  0  0  0  0  0
  1  2  1  0
  2  3  2  0
  2  4  1  0
  4  5  2  0
  5  6  1  0
  6  7  1  0
  7  8  1  0
  8  9  1  0
  9 10  1  0
  9 11  1  0
 11 12  1  0
  5 13  1  0
 13 14  1  0
 14 15  1  0
 15 16  2  0
 16 17  1  0
 17 18  2  0
 18 19  1  0
 19 20  2  0
 14 21  2  0
 21 22  1  0
 22 23  2  0
 22  4  1  0
 12  6  1  0
 20 15  1  0
  1 24  1  0
  1 25  1  0
  1 26  1  0
  7 27  1  0
  7 28  1  0
  8 29  1  0
  8 30  1  0
 10 31  1  0
 10 32  1  0
 10 33  1  0
 11 34  1  0
 11 35  1  0
 12 36  1  0
 12 37  1  0
 13 38  1  0
 16 39  1  0
 17 40  1  0
 18 41  1  0
 19 42  1  0
 20 43  1  0
M  END
$$$$
