
     RDKit          3D

 33 35  0  0  0  0  0  0  0  0999 V2000
   -6.5074    0.2291   -0.7199 C   0  0  0  0  0  0  0  0  0  0  0  0
   -5.2731   -0.4196   -0.1705 C   0  0  0  0  0  0  0  0  0  0  0  0
   -5.3727   -1.4944    0.6881 C   0  0  0  0  0  0  0  0  0  0  0  0
   -4.1841   -2.0202    1.1355 C   0  0  0  0  0  0  0  0  0  0  0  0
   -2.9781   -1.5421    0.7811 N   0  0  0  0  0  0  0  0  0  0  0  0
   -2.9777   -0.4887   -0.0528 C   0  0  0  0  0  0  0  0  0  0  0  0
   -1.4293    0.1918   -0.5821 S   0  0  0  0  0  0  0  0  0  0  0  0
   -0.3425   -0.5196    0.6894 C   0  0  0  0  0  0  0  0  0  0  0  0
    1.0563   -0.0224    0.5351 C   0  0  0  0  0  0  0  0  0  0  0  0
    1.9710   -0.2957   -0.4639 C   0  0  0  0  0  0  0  0  0  0  0  0
    3.1101    0.4048   -0.1454 N   0  0  0  0  0  0  0  0  0  0  0  0
    4.3399    0.4971   -0.8226 C   0  0  0  0  0  0  0  0  0  0  0  0
    4.5343   -0.2457   -2.1088 C   0  0  0  0  0  0  0  0  0  0  0  0
    5.3061    1.2651   -0.2758 C   0  0  0  0  0  0  0  0  0  0  0  0
    5.0536    1.9626    0.9747 C   0  0  0  0  0  0  0  0  0  0  0  0
    3.8711    1.8637    1.6093 C   0  0  0  0  0  0  0  0  0  0  0  0
    2.8374    1.0612    1.0531 C   0  0  0  0  0  0  0  0  0  0  0  0
    1.6173    0.8109    1.4789 N   0  0  0  0  0  0  0  0  0  0  0  0
   -4.0842    0.0903   -0.5507 N   0  0  0  0  0  0  0  0  0  0  0  0
   -7.1237    0.6208    0.0953 H   0  0  0  0  0  0  0  0  0  0  0  0
   -7.0910   -0.4955   -1.2963 H   0  0  0  0  0  0  0  0  0  0  0  0
   -6.2488    1.0619   -1.3820 H   0  0  0  0  0  0  0  0  0  0  0  0
   -6.3254   -1.9048    0.9946 H   0  0  0  0  0  0  0  0  0  0  0  0
   -4.1663   -2.8686    1.8135 H   0  0  0  0  0  0  0  0  0  0  0  0
   -0.3405   -1.6121    0.6078 H   0  0  0  0  0  0  0  0  0  0  0  0
   -0.7163   -0.2495    1.6832 H   0  0  0  0  0  0  0  0  0  0  0  0
    1.8965   -0.9027   -1.3540 H   0  0  0  0  0  0  0  0  0  0  0  0
    4.4160   -1.3233   -1.9542 H   0  0  0  0  0  0  0  0  0  0  0  0
    5.5339   -0.0816   -2.5256 H   0  0  0  0  0  0  0  0  0  0  0  0
    3.8077    0.0838   -2.8589 H   0  0  0  0  0  0  0  0  0  0  0  0
    6.2802    1.3873   -0.7391 H   0  0  0  0  0  0  0  0  0  0  0  0
    5.8519    2.5729    1.3860 H   0  0  0  0  0  0  0  0  0  0  0  0
    3.6774    2.3832    2.5404 H   0  0  0  0  0  0  0  0  0  0  0  0
  1  2  1  0
  2  3  2  0
  3  4  1  0
  4  5  2  0
  5  6  1  0
  6  7  1  0
  7  8  1  0
  8  9  1  0
  9 10  2  0
 10 11  1  0
 11 12  1  0
 12 13  1  0
 12 14  2  0
 14 15  1  0
 15 16  2  0
 16 17  1  0
 17 18  2  0
  6 19  2  0
 19  2  1  0
 18  9  1  0
 17 11  1  0
  1 20  1  0
  1 21  1  0
  1 22  1  0
  3 23  1  0
  4 24  1  0
  8 25  1  0
  8 26  1  0
 10 27  1  0
 13 28  1  0
 13 29  1  0
 13 30  1  0
 14 31  1  0
 15 32  1  0
 16 33  1  0
M  END
$$$$
