
     RDKit          3D

 72 75  0  0  0  0  0  0  0  0999 V2000
   -3.8193    2.4102    2.5539 C   0  0  0  0  0  0  0  0  0  0  0  0
   -4.6376    1.5552    1.6283 C   0  0  0  0  0  0  0  0  0  0  0  0
   -5.8292    0.9951    2.1078 C   0  0  0  0  0  0  0  0  0  0  0  0
   -6.6493    0.2094    1.2874 C   0  0  0  0  0  0  0  0  0  0  0  0
   -6.3190   -0.0424   -0.0512 C   0  0  0  0  0  0  0  0  0  0  0  0
   -7.1979   -0.8976   -0.9807 C   0  0  0  0  0  0  0  0  0  0  0  0
   -8.4715   -1.4499   -0.3015 C   0  0  0  0  0  0  0  0  0  0  0  0
   -7.6555   -0.0516   -2.1883 C   0  0  0  0  0  0  0  0  0  0  0  0
   -6.3881   -2.1109   -1.4869 C   0  0  0  0  0  0  0  0  0  0  0  0
   -5.1266    0.5297   -0.5339 C   0  0  0  0  0  0  0  0  0  0  0  0
   -4.2943    1.3115    0.2890 C   0  0  0  0  0  0  0  0  0  0  0  0
   -2.8065    1.9849   -0.4367 S   0  0  0  0  0  6  0  0  0  0  0  0
   -2.7385    3.3872   -0.0833 O   0  0  0  0  0  0  0  0  0  0  0  0
   -2.7373    1.5728   -1.8239 O   0  0  0  0  0  0  0  0  0  0  0  0
   -1.5565    1.1549    0.3955 N   0  0  0  0  0  0  0  0  0  0  0  0
   -1.5252   -0.3166    0.1728 C   0  0  0  0  0  0  0  0  0  0  0  0
   -0.5714   -0.9509    1.1854 C   0  0  0  0  0  0  0  0  0  0  0  0
    0.8403   -0.3357    1.1614 C   0  0  0  0  0  0  0  0  0  0  0  0
    1.6499   -0.8255   -0.0458 C   0  0  0  0  0  0  0  0  0  0  0  0
    1.0916   -1.4083   -0.9778 O   0  0  0  0  0  0  0  0  0  0  0  0
    3.0130   -0.5763   -0.0779 N   0  0  0  0  0  0  0  0  0  0  0  0
    3.8350   -0.1112    1.0483 C   0  0  0  0  0  0  0  0  0  0  0  0
    5.2688   -0.6791    1.0253 C   0  0  0  0  0  0  0  0  0  0  0  0
    5.9451   -0.3680   -0.2424 N   0  0  0  0  0  0  0  0  0  0  0  0
    7.3284   -0.3372   -0.3379 C   0  0  0  0  0  0  0  0  0  0  0  0
    8.1563   -0.9266    0.6327 C   0  0  0  0  0  0  0  0  0  0  0  0
    9.5530   -0.8908    0.5373 C   0  0  0  0  0  0  0  0  0  0  0  0
   10.1525   -0.2563   -0.5374 C   0  0  0  0  0  0  0  0  0  0  0  0
   11.5133   -0.2420   -0.5949 O   0  0  0  0  0  0  0  0  0  0  0  0
    9.3759    0.3428   -1.5165 C   0  0  0  0  0  0  0  0  0  0  0  0
    7.9791    0.2988   -1.4106 C   0  0  0  0  0  0  0  0  0  0  0  0
    5.1002   -0.2459   -1.4445 C   0  0  0  0  0  0  0  0  0  0  0  0
    3.7559   -0.9777   -1.2785 C   0  0  0  0  0  0  0  0  0  0  0  0
    0.7547    1.1953    1.2038 C   0  0  0  0  0  0  0  0  0  0  0  0
   -0.2148    1.7486    0.1615 C   0  0  0  0  0  0  0  0  0  0  0  0
   -4.1705    2.3217    3.5881 H   0  0  0  0  0  0  0  0  0  0  0  0
   -3.9004    3.4637    2.2710 H   0  0  0  0  0  0  0  0  0  0  0  0
   -2.7702    2.1045    2.5581 H   0  0  0  0  0  0  0  0  0  0  0  0
   -6.1400    1.1683    3.1372 H   0  0  0  0  0  0  0  0  0  0  0  0
   -7.5568   -0.1914    1.7318 H   0  0  0  0  0  0  0  0  0  0  0  0
   -9.0631   -2.0521   -1.0015 H   0  0  0  0  0  0  0  0  0  0  0  0
   -9.1206   -0.6419    0.0556 H   0  0  0  0  0  0  0  0  0  0  0  0
   -8.2273   -2.0946    0.5508 H   0  0  0  0  0  0  0  0  0  0  0  0
   -6.8126    0.2918   -2.7979 H   0  0  0  0  0  0  0  0  0  0  0  0
   -8.2081    0.8369   -1.8608 H   0  0  0  0  0  0  0  0  0  0  0  0
   -8.3132   -0.6290   -2.8486 H   0  0  0  0  0  0  0  0  0  0  0  0
   -6.0221   -2.7177   -0.6502 H   0  0  0  0  0  0  0  0  0  0  0  0
   -5.5177   -1.8103   -2.0803 H   0  0  0  0  0  0  0  0  0  0  0  0
   -7.0023   -2.7576   -2.1244 H   0  0  0  0  0  0  0  0  0  0  0  0
   -4.8359    0.3654   -1.5706 H   0  0  0  0  0  0  0  0  0  0  0  0
   -1.2287   -0.5390   -0.8569 H   0  0  0  0  0  0  0  0  0  0  0  0
   -2.5174   -0.7480    0.3347 H   0  0  0  0  0  0  0  0  0  0  0  0
   -0.5233   -2.0329    1.0138 H   0  0  0  0  0  0  0  0  0  0  0  0
   -0.9898   -0.8111    2.1913 H   0  0  0  0  0  0  0  0  0  0  0  0
    1.3452   -0.6998    2.0623 H   0  0  0  0  0  0  0  0  0  0  0  0
    3.8817    0.9811    0.9717 H   0  0  0  0  0  0  0  0  0  0  0  0
    3.3658   -0.3637    2.0009 H   0  0  0  0  0  0  0  0  0  0  0  0
    5.2371   -1.7670    1.1611 H   0  0  0  0  0  0  0  0  0  0  0  0
    5.8076   -0.2404    1.8736 H   0  0  0  0  0  0  0  0  0  0  0  0
    7.7307   -1.4533    1.4815 H   0  0  0  0  0  0  0  0  0  0  0  0
   10.1642   -1.3631    1.3006 H   0  0  0  0  0  0  0  0  0  0  0  0
   11.7833    0.2297   -1.3998 H   0  0  0  0  0  0  0  0  0  0  0  0
    9.8263    0.8516   -2.3624 H   0  0  0  0  0  0  0  0  0  0  0  0
    7.4030    0.8011   -2.1828 H   0  0  0  0  0  0  0  0  0  0  0  0
    5.5987   -0.6719   -2.3236 H   0  0  0  0  0  0  0  0  0  0  0  0
    4.9155    0.8180   -1.6375 H   0  0  0  0  0  0  0  0  0  0  0  0
    3.9289   -2.0581   -1.1945 H   0  0  0  0  0  0  0  0  0  0  0  0
    3.1370   -0.8125   -2.1677 H   0  0  0  0  0  0  0  0  0  0  0  0
    0.4125    1.4976    2.2024 H   0  0  0  0  0  0  0  0  0  0  0  0
    1.7320    1.6612    1.0536 H   0  0  0  0  0  0  0  0  0  0  0  0
   -0.2552    2.8362    0.2823 H   0  0  0  0  0  0  0  0  0  0  0  0
    0.1313    1.5306   -0.8552 H   0  0  0  0  0  0  0  0  0  0  0  0
  1  2  1  0
  2  3  2  0
  3  4  1  0
  4  5  2  0
  5  6  1  0
  6  7  1  0
  6  8  1  0
  6  9  1  0
  5 10  1  0
 10 11  2  0
 11 12  1  0
 12 13  2  0
 12 14  2  0
 12 15  1  0
 15 16  1  0
 16 17  1  0
 17 18  1  0
 18 19  1  0
 19 20  2  0
 19 21  1  0
 21 22  1  0
 22 23  1  0
 23 24  1  0
 24 25  1  0
 25 26  2  0
 26 27  1  0
 27 28  2  0
 28 29  1  0
 28 30  1  0
 30 31  2  0
 24 32  1  0
 32 33  1  0
 18 34  1  0
 34 35  1  0
 11  2  1  0
 35 15  1  0
 33 21  1  0
 31 25  1  0
  1 36  1  0
  1 37  1  0
  1 38  1  0
  3 39  1  0
  4 40  1  0
  7 41  1  0
  7 42  1  0
  7 43  1  0
  8 44  1  0
  8 45  1  0
  8 46  1  0
  9 47  1  0
  9 48  1  0
  9 49  1  0
 10 50  1  0
 16 51  1  0
 16 52  1  0
 17 53  1  0
 17 54  1  0
 18 55  1  0
 22 56  1  0
 22 57  1  0
 23 58  1  0
 23 59  1  0
 26 60  1  0
 27 61  1  0
 29 62  1  0
 30 63  1  0
 31 64  1  0
 32 65  1  0
 32 66  1  0
 33 67  1  0
 33 68  1  0
 34 69  1  0
 34 70  1  0
 35 71  1  0
 35 72  1  0
M  END
$$$$
