
     RDKit          3D

 44 46  0  0  0  0  0  0  0  0999 V2000
   -2.0333   -2.0923   -2.0229 C   0  0  0  0  0  0  0  0  0  0  0  0
   -0.7467   -1.4893   -2.0080 O   0  0  0  0  0  0  0  0  0  0  0  0
   -0.4054   -0.7549   -0.8975 C   0  0  0  0  0  0  0  0  0  0  0  0
   -1.1723   -0.6944    0.2726 C   0  0  0  0  0  0  0  0  0  0  0  0
   -0.7613    0.0899    1.3582 C   0  0  0  0  0  0  0  0  0  0  0  0
   -1.5499    0.1690    2.5967 C   0  0  0  0  0  0  0  0  0  0  0  0
   -2.8567    0.4923    2.7054 C   0  0  0  0  0  0  0  0  0  0  0  0
   -3.4654    0.4935    3.9975 C   0  0  0  0  0  0  0  0  0  0  0  0
   -3.9121    0.5159    5.0693 N   0  0  0  0  0  0  0  0  0  0  0  0
   -3.7062    0.8618    1.5615 C   0  0  0  0  0  0  0  0  0  0  0  0
   -3.4663    2.0170    0.8190 C   0  0  0  0  0  0  0  0  0  0  0  0
   -4.3043    2.3087   -0.2547 C   0  0  0  0  0  0  0  0  0  0  0  0
   -5.3544    1.4481   -0.5526 C   0  0  0  0  0  0  0  0  0  0  0  0
   -5.5233    0.3237    0.2378 C   0  0  0  0  0  0  0  0  0  0  0  0
   -4.7243    0.0112    1.2823 N   0  0  0  0  0  0  0  0  0  0  0  0
    0.4507    0.7787    1.2807 C   0  0  0  0  0  0  0  0  0  0  0  0
    1.2310    0.7139    0.1225 C   0  0  0  0  0  0  0  0  0  0  0  0
    0.8085   -0.0425   -0.9746 C   0  0  0  0  0  0  0  0  0  0  0  0
    1.4996   -0.1673   -2.1530 O   0  0  0  0  0  0  0  0  0  0  0  0
    2.7120    0.5613   -2.3423 C   0  0  0  0  0  0  0  0  0  0  0  0
    3.9148   -0.1117   -1.7160 C   0  0  0  0  0  0  0  0  0  0  0  0
    4.9776    0.6616   -1.2244 C   0  0  0  0  0  0  0  0  0  0  0  0
    6.1027    0.0471   -0.6668 C   0  0  0  0  0  0  0  0  0  0  0  0
    6.1772   -1.3437   -0.6096 C   0  0  0  0  0  0  0  0  0  0  0  0
    7.5626   -2.0982    0.0786 Cl  0  0  0  0  0  0  0  0  0  0  0  0
    5.1383   -2.1258   -1.1063 C   0  0  0  0  0  0  0  0  0  0  0  0
    4.0140   -1.5114   -1.6636 C   0  0  0  0  0  0  0  0  0  0  0  0
   -2.8257   -1.3455   -1.9018 H   0  0  0  0  0  0  0  0  0  0  0  0
   -2.1701   -2.5646   -3.0005 H   0  0  0  0  0  0  0  0  0  0  0  0
   -2.1083   -2.8777   -1.2637 H   0  0  0  0  0  0  0  0  0  0  0  0
   -2.0952   -1.2600    0.3610 H   0  0  0  0  0  0  0  0  0  0  0  0
   -0.9812   -0.0679    3.4972 H   0  0  0  0  0  0  0  0  0  0  0  0
   -2.6432    2.6813    1.0635 H   0  0  0  0  0  0  0  0  0  0  0  0
   -4.1392    3.2018   -0.8516 H   0  0  0  0  0  0  0  0  0  0  0  0
   -6.0271    1.6495   -1.3795 H   0  0  0  0  0  0  0  0  0  0  0  0
   -6.3325   -0.3773    0.0489 H   0  0  0  0  0  0  0  0  0  0  0  0
    0.8041    1.3743    2.1203 H   0  0  0  0  0  0  0  0  0  0  0  0
    2.1691    1.2582    0.1190 H   0  0  0  0  0  0  0  0  0  0  0  0
    2.5998    1.6033   -2.0189 H   0  0  0  0  0  0  0  0  0  0  0  0
    2.8879    0.5996   -3.4240 H   0  0  0  0  0  0  0  0  0  0  0  0
    4.9371    1.7485   -1.2686 H   0  0  0  0  0  0  0  0  0  0  0  0
    6.9165    0.6562   -0.2825 H   0  0  0  0  0  0  0  0  0  0  0  0
    5.1942   -3.2104   -1.0650 H   0  0  0  0  0  0  0  0  0  0  0  0
    3.2068   -2.1316   -2.0503 H   0  0  0  0  0  0  0  0  0  0  0  0
  1  2  1  0
  2  3  1  0
  3  4  2  0
  4  5  1  0
  5  6  1  0
  6  7  2  3
  7  8  1  0
  8  9  3  0
  7 10  1  0
 10 11  2  0
 11 12  1  0
 12 13  2  0
 13 14  1  0
 14 15  2  0
  5 16  2  0
 16 17  1  0
 17 18  2  0
 18 19  1  0
 19 20  1  0
 20 21  1  0
 21 22  2  0
 22 23  1  0
 23 24  2  0
 24 25  1  0
 24 26  1  0
 26 27  2  0
 18  3  1  0
 27 21  1  0
 15 10  1  0
  1 28  1  0
  1 29  1  0
  1 30  1  0
  4 31  1  0
  6 32  1  0
 11 33  1  0
 12 34  1  0
 13 35  1  0
 14 36  1  0
 16 37  1  0
 17 38  1  0
 20 39  1  0
 20 40  1  0
 22 41  1  0
 23 42  1  0
 26 43  1  0
 27 44  1  0
M  END
$$$$
