
     RDKit          3D

 53 56  0  0  0  0  0  0  0  0999 V2000
    8.2234    0.6609    0.1083 C   0  0  0  0  0  0  0  0  0  0  0  0
    6.8566    1.0613    0.6348 C   0  0  0  0  0  0  0  0  0  0  0  0
    6.0469    1.8181   -0.4149 C   0  0  0  0  0  0  0  0  0  0  0  0
    4.7863    2.2238    0.1183 O   0  0  0  0  0  0  0  0  0  0  0  0
    3.7193    1.3795    0.0008 C   0  0  0  0  0  0  0  0  0  0  0  0
    3.7440    0.0728   -0.4765 C   0  0  0  0  0  0  0  0  0  0  0  0
    2.5618   -0.6810   -0.5344 C   0  0  0  0  0  0  0  0  0  0  0  0
    1.3238   -0.1573   -0.1166 C   0  0  0  0  0  0  0  0  0  0  0  0
    0.0820   -0.9567   -0.1812 C   0  0  0  0  0  0  0  0  0  0  0  0
   -1.0525   -0.3823    0.2505 N   0  0  0  0  0  0  0  0  0  0  0  0
   -2.1871   -1.1010    0.1839 C   0  0  0  0  0  0  0  0  0  0  0  0
   -3.3925   -0.4871    0.5893 N   0  0  0  0  0  0  0  0  0  0  0  0
   -4.2433   -0.0940   -0.5621 C   0  0  0  0  0  0  0  0  0  0  0  0
   -4.4481    1.4364   -0.6390 C   0  0  0  0  0  0  0  0  0  0  0  0
   -5.0555    2.0118    0.5825 N   0  0  0  0  0  0  0  0  0  0  0  0
   -4.8460    3.4567    0.6230 C   0  0  0  0  0  0  0  0  0  0  0  0
   -4.5375    1.3479    1.8021 C   0  0  0  0  0  0  0  0  0  0  0  0
   -3.2133    0.5769    1.6000 C   0  0  0  0  0  0  0  0  0  0  0  0
   -2.1948   -2.4275   -0.2907 C   0  0  0  0  0  0  0  0  0  0  0  0
   -3.3339   -3.2725   -0.3390 C   0  0  0  0  0  0  0  0  0  0  0  0
   -3.2449   -4.5727   -0.8303 C   0  0  0  0  0  0  0  0  0  0  0  0
   -2.0188   -5.0480   -1.2720 C   0  0  0  0  0  0  0  0  0  0  0  0
   -0.8930   -4.2222   -1.2093 C   0  0  0  0  0  0  0  0  0  0  0  0
   -0.9582   -2.9225   -0.7200 C   0  0  0  0  0  0  0  0  0  0  0  0
    0.1648   -2.2024   -0.6764 N   0  0  0  0  0  0  0  0  0  0  0  0
    1.3265    1.1630    0.3671 C   0  0  0  0  0  0  0  0  0  0  0  0
    2.5049    1.9170    0.4261 C   0  0  0  0  0  0  0  0  0  0  0  0
    8.1304    0.0025   -0.7613 H   0  0  0  0  0  0  0  0  0  0  0  0
    8.7857    0.1265    0.8804 H   0  0  0  0  0  0  0  0  0  0  0  0
    8.8038    1.5409   -0.1866 H   0  0  0  0  0  0  0  0  0  0  0  0
    6.9713    1.6880    1.5274 H   0  0  0  0  0  0  0  0  0  0  0  0
    6.3155    0.1680    0.9653 H   0  0  0  0  0  0  0  0  0  0  0  0
    5.9433    1.2635   -1.3547 H   0  0  0  0  0  0  0  0  0  0  0  0
    6.5803    2.7408   -0.6729 H   0  0  0  0  0  0  0  0  0  0  0  0
    4.6611   -0.4034   -0.8051 H   0  0  0  0  0  0  0  0  0  0  0  0
    2.6174   -1.7012   -0.9127 H   0  0  0  0  0  0  0  0  0  0  0  0
   -5.2197   -0.5793   -0.4402 H   0  0  0  0  0  0  0  0  0  0  0  0
   -3.8359   -0.4397   -1.5211 H   0  0  0  0  0  0  0  0  0  0  0  0
   -3.4729    1.9010   -0.8405 H   0  0  0  0  0  0  0  0  0  0  0  0
   -5.0958    1.6642   -1.4938 H   0  0  0  0  0  0  0  0  0  0  0  0
   -3.7850    3.7191    0.7036 H   0  0  0  0  0  0  0  0  0  0  0  0
   -5.2524    3.9302   -0.2777 H   0  0  0  0  0  0  0  0  0  0  0  0
   -5.3761    3.8969    1.4748 H   0  0  0  0  0  0  0  0  0  0  0  0
   -4.4234    2.0607    2.6282 H   0  0  0  0  0  0  0  0  0  0  0  0
   -5.3051    0.6335    2.1268 H   0  0  0  0  0  0  0  0  0  0  0  0
   -2.9154    0.1212    2.5520 H   0  0  0  0  0  0  0  0  0  0  0  0
   -2.4371    1.2989    1.3143 H   0  0  0  0  0  0  0  0  0  0  0  0
   -4.2930   -2.9112    0.0260 H   0  0  0  0  0  0  0  0  0  0  0  0
   -4.1258   -5.2084   -0.8604 H   0  0  0  0  0  0  0  0  0  0  0  0
   -1.9289   -6.0604   -1.6569 H   0  0  0  0  0  0  0  0  0  0  0  0
    0.0664   -4.6077   -1.5477 H   0  0  0  0  0  0  0  0  0  0  0  0
    0.3995    1.6215    0.7070 H   0  0  0  0  0  0  0  0  0  0  0  0
    2.4705    2.9348    0.8073 H   0  0  0  0  0  0  0  0  0  0  0  0
  1  2  1  0
  2  3  1  0
  3  4  1  0
  4  5  1  0
  5  6  2  0
  6  7  1  0
  7  8  2  0
  8  9  1  0
  9 10  2  0
 10 11  1  0
 11 12  1  0
 12 13  1  0
 13 14  1  0
 14 15  1  0
 15 16  1  0
 15 17  1  0
 17 18  1  0
 11 19  2  0
 19 20  1  0
 20 21  2  0
 21 22  1  0
 22 23  2  0
 23 24  1  0
 24 25  2  0
  8 26  1  0
 26 27  2  0
 27  5  1  0
 25  9  1  0
 18 12  1  0
 24 19  1  0
  1 28  1  0
  1 29  1  0
  1 30  1  0
  2 31  1  0
  2 32  1  0
  3 33  1  0
  3 34  1  0
  6 35  1  0
  7 36  1  0
 13 37  1  0
 13 38  1  0
 14 39  1  0
 14 40  1  0
 16 41  1  0
 16 42  1  0
 16 43  1  0
 17 44  1  0
 17 45  1  0
 18 46  1  0
 18 47  1  0
 20 48  1  0
 21 49  1  0
 22 50  1  0
 23 51  1  0
 26 52  1  0
 27 53  1  0
M  END
$$$$
