
     RDKit          3D

 62 65  0  0  0  0  0  0  0  0999 V2000
   -0.3181   -1.6524    3.5229 C   0  0  0  0  0  0  0  0  0  0  0  0
   -0.7460   -0.3828    2.8405 C   0  0  0  0  0  0  0  0  0  0  0  0
   -1.6934    0.3993    3.5338 C   0  0  0  0  0  0  0  0  0  0  0  0
   -2.1645    1.6173    3.0431 C   0  0  0  0  0  0  0  0  0  0  0  0
   -3.1073    2.2210    3.8233 O   0  0  0  0  0  0  0  0  0  0  0  0
   -1.6821    2.1346    1.8468 C   0  0  0  0  0  0  0  0  0  0  0  0
   -2.0751    3.4639    1.2248 C   0  0  0  0  0  0  0  0  0  0  0  0
   -1.8318    4.6668    2.1398 C   0  0  0  0  0  0  0  0  0  0  0  0
   -3.5051    3.4437    0.6828 C   0  0  0  0  0  0  0  0  0  0  0  0
   -0.7510    1.3415    1.1455 C   0  0  0  0  0  0  0  0  0  0  0  0
   -0.2891    0.0622    1.5831 C   0  0  0  0  0  0  0  0  0  0  0  0
    0.6913   -0.6526    0.6212 C   0  0  0  0  0  0  0  0  0  0  0  0
    0.2047   -0.6925   -0.8600 C   0  0  0  0  0  0  0  0  0  0  0  0
    1.1194   -0.3315   -1.8832 C   0  0  0  0  0  0  0  0  0  0  0  0
    0.7874   -0.3456   -3.2498 C   0  0  0  0  0  0  0  0  0  0  0  0
    1.8015    0.0701   -4.3045 C   0  0  0  0  0  0  0  0  0  0  0  0
    3.1220   -0.6990   -4.1790 C   0  0  0  0  0  0  0  0  0  0  0  0
    2.0470    1.5826   -4.2566 C   0  0  0  0  0  0  0  0  0  0  0  0
   -0.5062   -0.7236   -3.5978 C   0  0  0  0  0  0  0  0  0  0  0  0
   -0.8703   -0.7222   -4.9137 O   0  0  0  0  0  0  0  0  0  0  0  0
   -1.4315   -1.0954   -2.6243 C   0  0  0  0  0  0  0  0  0  0  0  0
   -1.0920   -1.1067   -1.2567 C   0  0  0  0  0  0  0  0  0  0  0  0
   -2.1910   -1.5023   -0.3058 C   0  0  0  0  0  0  0  0  0  0  0  0
    1.8639    0.2334    0.7184 O   0  0  0  0  0  0  0  0  0  0  0  0
    2.9568   -0.3717    1.2562 C   0  0  0  0  0  0  0  0  0  0  0  0
    4.0175    0.1510    1.5312 O   0  0  0  0  0  0  0  0  0  0  0  0
    2.6233   -1.7774    1.3782 C   0  0  0  0  0  0  0  0  0  0  0  0
    3.4665   -2.8115    1.7527 C   0  0  0  0  0  0  0  0  0  0  0  0
    2.9593   -4.1093    1.7115 C   0  0  0  0  0  0  0  0  0  0  0  0
    1.6433   -4.3377    1.2873 C   0  0  0  0  0  0  0  0  0  0  0  0
    0.8171   -3.2707    0.9129 C   0  0  0  0  0  0  0  0  0  0  0  0
    1.3106   -1.9711    0.9879 C   0  0  0  0  0  0  0  0  0  0  0  0
   -0.7031   -1.7088    4.5478 H   0  0  0  0  0  0  0  0  0  0  0  0
   -0.7160   -2.5225    2.9971 H   0  0  0  0  0  0  0  0  0  0  0  0
    0.7695   -1.6992    3.6129 H   0  0  0  0  0  0  0  0  0  0  0  0
   -2.0844    0.0542    4.4916 H   0  0  0  0  0  0  0  0  0  0  0  0
   -3.4693    2.9864    3.3575 H   0  0  0  0  0  0  0  0  0  0  0  0
   -1.4239    3.6293    0.3559 H   0  0  0  0  0  0  0  0  0  0  0  0
   -1.9140    5.5973    1.5664 H   0  0  0  0  0  0  0  0  0  0  0  0
   -0.8317    4.6302    2.5894 H   0  0  0  0  0  0  0  0  0  0  0  0
   -2.5577    4.7321    2.9568 H   0  0  0  0  0  0  0  0  0  0  0  0
   -3.7158    4.3632    0.1246 H   0  0  0  0  0  0  0  0  0  0  0  0
   -3.6557    2.5967    0.0038 H   0  0  0  0  0  0  0  0  0  0  0  0
   -4.2509    3.3661    1.4787 H   0  0  0  0  0  0  0  0  0  0  0  0
   -0.3598    1.7299    0.2000 H   0  0  0  0  0  0  0  0  0  0  0  0
    2.1260   -0.0162   -1.6113 H   0  0  0  0  0  0  0  0  0  0  0  0
    1.4080   -0.1638   -5.3018 H   0  0  0  0  0  0  0  0  0  0  0  0
    3.7719   -0.4857   -5.0343 H   0  0  0  0  0  0  0  0  0  0  0  0
    3.6729   -0.4245   -3.2754 H   0  0  0  0  0  0  0  0  0  0  0  0
    2.9474   -1.7788   -4.1528 H   0  0  0  0  0  0  0  0  0  0  0  0
    2.4916    1.8896   -3.3020 H   0  0  0  0  0  0  0  0  0  0  0  0
    1.1102    2.1360   -4.3838 H   0  0  0  0  0  0  0  0  0  0  0  0
    2.7278    1.8900   -5.0590 H   0  0  0  0  0  0  0  0  0  0  0  0
   -1.7912   -1.0105   -4.9873 H   0  0  0  0  0  0  0  0  0  0  0  0
   -2.4377   -1.3800   -2.9211 H   0  0  0  0  0  0  0  0  0  0  0  0
   -2.8124   -0.6339   -0.0702 H   0  0  0  0  0  0  0  0  0  0  0  0
   -1.8165   -1.9381    0.6229 H   0  0  0  0  0  0  0  0  0  0  0  0
   -2.8241   -2.2705   -0.7549 H   0  0  0  0  0  0  0  0  0  0  0  0
    4.4930   -2.6160    2.0460 H   0  0  0  0  0  0  0  0  0  0  0  0
    3.5913   -4.9498    1.9886 H   0  0  0  0  0  0  0  0  0  0  0  0
    1.2662   -5.3577    1.2348 H   0  0  0  0  0  0  0  0  0  0  0  0
   -0.1892   -3.4764    0.5669 H   0  0  0  0  0  0  0  0  0  0  0  0
  1  2  1  0
  2  3  2  0
  3  4  1  0
  4  5  1  0
  4  6  2  0
  6  7  1  0
  7  8  1  0
  7  9  1  0
  6 10  1  0
 10 11  2  0
 11 12  1  0
 12 13  1  0
 13 14  2  0
 14 15  1  0
 15 16  1  0
 16 17  1  0
 16 18  1  0
 15 19  2  0
 19 20  1  0
 19 21  1  0
 21 22  2  0
 22 23  1  0
 12 24  1  0
 24 25  1  0
 25 26  2  0
 25 27  1  0
 27 28  2  0
 28 29  1  0
 29 30  2  0
 30 31  1  0
 31 32  2  0
 11  2  1  0
 32 12  1  0
 22 13  1  0
 32 27  1  0
  1 33  1  0
  1 34  1  0
  1 35  1  0
  3 36  1  0
  5 37  1  0
  7 38  1  0
  8 39  1  0
  8 40  1  0
  8 41  1  0
  9 42  1  0
  9 43  1  0
  9 44  1  0
 10 45  1  0
 14 46  1  0
 16 47  1  0
 17 48  1  0
 17 49  1  0
 17 50  1  0
 18 51  1  0
 18 52  1  0
 18 53  1  0
 20 54  1  0
 21 55  1  0
 23 56  1  0
 23 57  1  0
 23 58  1  0
 28 59  1  0
 29 60  1  0
 30 61  1  0
 31 62  1  0
M  END
$$$$
