
     RDKit          3D

 58 61  0  0  0  0  0  0  0  0999 V2000
    2.4269   -0.2300   -3.7207 S   0  0  0  0  0  0  0  0  0  0  0  0
    1.7612   -0.7318   -2.2630 C   0  0  0  0  0  0  0  0  0  0  0  0
    2.4210   -1.7477   -1.6389 N   0  0  0  0  0  0  0  0  0  0  0  0
    2.5312   -2.0204   -0.2113 C   0  0  0  0  0  0  0  0  0  0  0  0
    3.0577   -0.8474    0.6193 C   0  0  0  0  0  0  0  0  0  0  0  0
    4.4984   -0.4681    0.2501 C   0  0  0  0  0  0  0  0  0  0  0  0
    5.0106    0.6619    1.0427 N   0  0  0  0  0  0  0  0  0  0  0  0
    5.1134    0.3384    2.4838 C   0  0  0  0  0  0  0  0  0  0  0  0
    6.1731    1.1924    3.1969 C   0  0  0  0  0  0  0  0  0  0  0  0
    7.4965    0.9513    2.7001 O   0  0  0  0  0  0  0  0  0  0  0  0
    7.5185    0.6034    1.3088 C   0  0  0  0  0  0  0  0  0  0  0  0
    6.3116    1.1452    0.5268 C   0  0  0  0  0  0  0  0  0  0  0  0
    0.6403   -0.1906   -1.6740 N   0  0  0  0  0  0  0  0  0  0  0  0
    0.1299    1.1374   -2.0657 C   0  0  0  0  0  0  0  0  0  0  0  0
   -0.8961    1.7172   -1.0737 C   0  0  0  0  0  0  0  0  0  0  0  0
   -2.0089    0.7917   -0.8466 N   0  0  0  0  0  0  0  0  0  0  0  0
   -3.2606    1.2015   -0.4995 C   0  0  0  0  0  0  0  0  0  0  0  0
   -4.3041    0.3986   -0.5041 N   0  0  0  0  0  0  0  0  0  0  0  0
   -5.4642    1.0554   -0.1197 C   0  0  0  0  0  0  0  0  0  0  0  0
   -6.7442    0.3514   -0.0681 C   0  0  0  0  0  0  0  0  0  0  0  0
   -7.9727    1.0286   -0.0482 C   0  0  0  0  0  0  0  0  0  0  0  0
   -9.1779    0.3200    0.0012 C   0  0  0  0  0  0  0  0  0  0  0  0
   -9.1706   -1.0728    0.0282 C   0  0  0  0  0  0  0  0  0  0  0  0
   -7.9600   -1.7598    0.0014 C   0  0  0  0  0  0  0  0  0  0  0  0
   -6.7561   -1.0519   -0.0485 C   0  0  0  0  0  0  0  0  0  0  0  0
   -5.2799    2.3793    0.2166 C   0  0  0  0  0  0  0  0  0  0  0  0
   -3.6370    2.8109    0.0228 S   0  0  0  0  0  0  0  0  0  0  0  0
   -1.7947   -0.6185   -1.1866 C   0  0  0  0  0  0  0  0  0  0  0  0
   -0.3286   -1.0228   -0.9408 C   0  0  0  0  0  0  0  0  0  0  0  0
    3.2195   -2.0480   -2.1879 H   0  0  0  0  0  0  0  0  0  0  0  0
    3.2059   -2.8787   -0.1120 H   0  0  0  0  0  0  0  0  0  0  0  0
    1.5632   -2.3483    0.1708 H   0  0  0  0  0  0  0  0  0  0  0  0
    2.4060    0.0263    0.5024 H   0  0  0  0  0  0  0  0  0  0  0  0
    3.0071   -1.1438    1.6735 H   0  0  0  0  0  0  0  0  0  0  0  0
    4.5088   -0.1828   -0.8087 H   0  0  0  0  0  0  0  0  0  0  0  0
    5.1559   -1.3411    0.3515 H   0  0  0  0  0  0  0  0  0  0  0  0
    4.1406    0.5024    2.9595 H   0  0  0  0  0  0  0  0  0  0  0  0
    5.3858   -0.7170    2.6183 H   0  0  0  0  0  0  0  0  0  0  0  0
    5.9525    2.2614    3.0932 H   0  0  0  0  0  0  0  0  0  0  0  0
    6.1801    0.9654    4.2678 H   0  0  0  0  0  0  0  0  0  0  0  0
    8.4478    1.0011    0.8884 H   0  0  0  0  0  0  0  0  0  0  0  0
    7.5691   -0.4890    1.2326 H   0  0  0  0  0  0  0  0  0  0  0  0
    6.4295    0.9323   -0.5421 H   0  0  0  0  0  0  0  0  0  0  0  0
    6.3039    2.2388    0.6191 H   0  0  0  0  0  0  0  0  0  0  0  0
    0.9727    1.8307   -2.1629 H   0  0  0  0  0  0  0  0  0  0  0  0
   -0.3375    1.0315   -3.0529 H   0  0  0  0  0  0  0  0  0  0  0  0
   -0.4033    1.9180   -0.1147 H   0  0  0  0  0  0  0  0  0  0  0  0
   -1.2424    2.6724   -1.4843 H   0  0  0  0  0  0  0  0  0  0  0  0
   -8.0181    2.1134   -0.0850 H   0  0  0  0  0  0  0  0  0  0  0  0
  -10.1227    0.8576    0.0137 H   0  0  0  0  0  0  0  0  0  0  0  0
  -10.1077   -1.6224    0.0652 H   0  0  0  0  0  0  0  0  0  0  0  0
   -7.9484   -2.8463    0.0171 H   0  0  0  0  0  0  0  0  0  0  0  0
   -5.8188   -1.6049   -0.0710 H   0  0  0  0  0  0  0  0  0  0  0  0
   -5.9977    3.1057    0.5662 H   0  0  0  0  0  0  0  0  0  0  0  0
   -2.4287   -1.2757   -0.5788 H   0  0  0  0  0  0  0  0  0  0  0  0
   -2.0554   -0.7798   -2.2399 H   0  0  0  0  0  0  0  0  0  0  0  0
   -0.1061   -0.8988    0.1253 H   0  0  0  0  0  0  0  0  0  0  0  0
   -0.1961   -2.0749   -1.2138 H   0  0  0  0  0  0  0  0  0  0  0  0
  1  2  2  0
  2  3  1  0
  3  4  1  0
  4  5  1  0
  5  6  1  0
  6  7  1  0
  7  8  1  0
  8  9  1  0
  9 10  1  0
 10 11  1  0
 11 12  1  0
  2 13  1  0
 13 14  1  0
 14 15  1  0
 15 16  1  0
 16 17  1  0
 17 18  2  0
 18 19  1  0
 19 20  1  0
 20 21  2  0
 21 22  1  0
 22 23  2  0
 23 24  1  0
 24 25  2  0
 19 26  2  0
 26 27  1  0
 16 28  1  0
 28 29  1  0
 12  7  1  0
 29 13  1  0
 27 17  1  0
 25 20  1  0
  3 30  1  0
  4 31  1  0
  4 32  1  0
  5 33  1  0
  5 34  1  0
  6 35  1  0
  6 36  1  0
  8 37  1  0
  8 38  1  0
  9 39  1  0
  9 40  1  0
 11 41  1  0
 11 42  1  0
 12 43  1  0
 12 44  1  0
 14 45  1  0
 14 46  1  0
 15 47  1  0
 15 48  1  0
 21 49  1  0
 22 50  1  0
 23 51  1  0
 24 52  1  0
 25 53  1  0
 26 54  1  0
 28 55  1  0
 28 56  1  0
 29 57  1  0
 29 58  1  0
M  END
$$$$
