
     RDKit          3D

 49 52  0  0  0  0  0  0  0  0999 V2000
   -3.9777   -5.2206   -0.9474 C   0  0  0  0  0  0  0  0  0  0  0  0
   -3.3590   -4.4230    0.0540 O   0  0  0  0  0  0  0  0  0  0  0  0
   -2.7527   -3.2706   -0.3644 C   0  0  0  0  0  0  0  0  0  0  0  0
   -2.1499   -2.5255    0.6502 C   0  0  0  0  0  0  0  0  0  0  0  0
   -1.4964   -1.3236    0.3634 C   0  0  0  0  0  0  0  0  0  0  0  0
   -1.4280   -0.8433   -0.9526 C   0  0  0  0  0  0  0  0  0  0  0  0
   -0.7375    0.4813   -1.2893 C   0  0  0  0  0  0  0  0  0  0  0  0
    0.6333    0.4990   -0.7333 N   0  0  0  0  0  0  0  0  0  0  0  0
    0.8496    1.2401    0.2975 C   0  0  0  0  0  0  0  0  0  0  0  0
    2.0257    1.3356    0.9997 N   0  0  0  0  0  0  0  0  0  0  0  0
    3.2600    0.6942    0.7614 C   0  0  0  0  0  0  0  0  0  0  0  0
    4.2626    0.7925    1.7420 C   0  0  0  0  0  0  0  0  0  0  0  0
    5.5216    0.2077    1.5633 C   0  0  0  0  0  0  0  0  0  0  0  0
    5.8142   -0.4927    0.3922 C   0  0  0  0  0  0  0  0  0  0  0  0
    7.1705   -1.0948    0.1786 C   0  0  0  0  0  0  0  0  0  0  0  0
    4.8388   -0.5679   -0.6042 C   0  0  0  0  0  0  0  0  0  0  0  0
    3.5805    0.0203   -0.4199 C   0  0  0  0  0  0  0  0  0  0  0  0
   -0.1214    2.0474    0.8069 N   0  0  0  0  0  0  0  0  0  0  0  0
   -1.2954    2.3385    0.1920 C   0  0  0  0  0  0  0  0  0  0  0  0
   -2.0500    3.2924    0.6497 N   0  0  0  0  0  0  0  0  0  0  0  0
   -3.1987    3.5815   -0.0421 C   0  0  0  0  0  0  0  0  0  0  0  0
   -4.0546    4.6618    0.5544 C   0  0  0  0  0  0  0  0  0  0  0  0
   -3.5484    2.9705   -1.1797 C   0  0  0  0  0  0  0  0  0  0  0  0
   -2.6743    1.9128   -1.7115 C   0  0  0  0  0  0  0  0  0  0  0  0
   -2.9593    1.3854   -2.7831 O   0  0  0  0  0  0  0  0  0  0  0  0
   -1.5800    1.6137   -0.9349 N   0  0  0  0  0  0  0  0  0  0  0  0
   -2.0407   -1.5983   -1.9654 C   0  0  0  0  0  0  0  0  0  0  0  0
   -2.6966   -2.8010   -1.6753 C   0  0  0  0  0  0  0  0  0  0  0  0
   -3.2449   -5.5726   -1.6811 H   0  0  0  0  0  0  0  0  0  0  0  0
   -4.4056   -6.1001   -0.4568 H   0  0  0  0  0  0  0  0  0  0  0  0
   -4.7964   -4.6795   -1.4331 H   0  0  0  0  0  0  0  0  0  0  0  0
   -2.1882   -2.8848    1.6755 H   0  0  0  0  0  0  0  0  0  0  0  0
   -1.0362   -0.7716    1.1780 H   0  0  0  0  0  0  0  0  0  0  0  0
   -0.6066    0.5213   -2.3788 H   0  0  0  0  0  0  0  0  0  0  0  0
    1.9517    1.6812    1.9452 H   0  0  0  0  0  0  0  0  0  0  0  0
    4.0772    1.3304    2.6684 H   0  0  0  0  0  0  0  0  0  0  0  0
    6.2702    0.3056    2.3460 H   0  0  0  0  0  0  0  0  0  0  0  0
    7.6132   -1.4077    1.1301 H   0  0  0  0  0  0  0  0  0  0  0  0
    7.8332   -0.3654   -0.2971 H   0  0  0  0  0  0  0  0  0  0  0  0
    7.1072   -1.9839   -0.4576 H   0  0  0  0  0  0  0  0  0  0  0  0
    5.0452   -1.0840   -1.5394 H   0  0  0  0  0  0  0  0  0  0  0  0
    2.8654   -0.0615   -1.2326 H   0  0  0  0  0  0  0  0  0  0  0  0
    0.1214    2.7130    1.5236 H   0  0  0  0  0  0  0  0  0  0  0  0
   -4.3790    4.3757    1.5604 H   0  0  0  0  0  0  0  0  0  0  0  0
   -4.9511    4.8570   -0.0435 H   0  0  0  0  0  0  0  0  0  0  0  0
   -3.4897    5.5972    0.6259 H   0  0  0  0  0  0  0  0  0  0  0  0
   -4.4450    3.2005   -1.7384 H   0  0  0  0  0  0  0  0  0  0  0  0
   -2.0231   -1.2452   -2.9957 H   0  0  0  0  0  0  0  0  0  0  0  0
   -3.1551   -3.3391   -2.4978 H   0  0  0  0  0  0  0  0  0  0  0  0
  1  2  1  0
  2  3  1  0
  3  4  2  0
  4  5  1  0
  5  6  2  0
  6  7  1  0
  7  8  1  0
  8  9  2  0
  9 10  1  0
 10 11  1  0
 11 12  2  0
 12 13  1  0
 13 14  2  0
 14 15  1  0
 14 16  1  0
 16 17  2  0
  9 18  1  0
 18 19  1  0
 19 20  2  0
 20 21  1  0
 21 22  1  0
 21 23  2  0
 23 24  1  0
 24 25  2  0
 24 26  1  0
  6 27  1  0
 27 28  2  0
 28  3  1  0
 26  7  1  0
 17 11  1  0
 26 19  1  0
  1 29  1  0
  1 30  1  0
  1 31  1  0
  4 32  1  0
  5 33  1  0
  7 34  1  0
 10 35  1  0
 12 36  1  0
 13 37  1  0
 15 38  1  0
 15 39  1  0
 15 40  1  0
 16 41  1  0
 17 42  1  0
 18 43  1  0
 22 44  1  0
 22 45  1  0
 22 46  1  0
 23 47  1  0
 27 48  1  0
 28 49  1  0
M  END
$$$$
