
     RDKit          3D

 46 48  0  0  0  0  0  0  0  0999 V2000
   -5.2601    0.4570    0.0096 C   0  0  0  0  0  0  0  0  0  0  0  0
   -5.1952   -0.2633    1.3002 C   0  0  0  0  0  0  0  0  0  0  0  0
   -6.3618   -0.8657    1.6733 O   0  0  0  0  0  0  0  0  0  0  0  0
   -6.1200   -1.5389    2.8241 C   0  0  0  0  0  0  0  0  0  0  0  0
   -4.8113   -1.3762    3.2035 C   0  0  0  0  0  0  0  0  0  0  0  0
   -4.2024   -0.5111    2.2398 C   0  0  0  0  0  0  0  0  0  0  0  0
   -2.8142   -0.0658    2.2638 C   0  0  0  0  0  0  0  0  0  0  0  0
   -1.9624   -0.6682    2.9095 O   0  0  0  0  0  0  0  0  0  0  0  0
   -2.5411    1.0814    1.5578 N   0  0  0  0  0  0  0  0  0  0  0  0
   -1.1972    1.5792    1.3838 C   0  0  0  0  0  0  0  0  0  0  0  0
   -0.7557    1.3823   -0.0435 C   0  0  0  0  0  0  0  0  0  0  0  0
   -1.0789    2.3233   -1.0304 C   0  0  0  0  0  0  0  0  0  0  0  0
   -0.6948    2.1171   -2.3555 C   0  0  0  0  0  0  0  0  0  0  0  0
    0.0108    0.9668   -2.7093 C   0  0  0  0  0  0  0  0  0  0  0  0
    0.3322    0.0056   -1.7415 C   0  0  0  0  0  0  0  0  0  0  0  0
    1.1256   -1.2225   -2.1081 C   0  0  0  0  0  0  0  0  0  0  0  0
    2.5428   -0.9535   -2.0359 N   0  0  0  0  0  0  0  0  0  0  0  0
    3.2640   -1.2211   -0.8930 C   0  0  0  0  0  0  0  0  0  0  0  0
    2.7912   -1.8182    0.0690 O   0  0  0  0  0  0  0  0  0  0  0  0
    4.6313   -0.7131   -0.9047 C   0  0  0  0  0  0  0  0  0  0  0  0
    5.4102   -0.1702   -1.9733 C   0  0  0  0  0  0  0  0  0  0  0  0
    6.6303    0.1725   -1.4399 C   0  0  0  0  0  0  0  0  0  0  0  0
    6.6716   -0.1285   -0.1203 O   0  0  0  0  0  0  0  0  0  0  0  0
    5.4657   -0.6726    0.2043 C   0  0  0  0  0  0  0  0  0  0  0  0
    5.2913   -1.0620    1.6224 C   0  0  0  0  0  0  0  0  0  0  0  0
   -0.0542    0.2245   -0.4107 C   0  0  0  0  0  0  0  0  0  0  0  0
   -6.1146    0.1210   -0.5863 H   0  0  0  0  0  0  0  0  0  0  0  0
   -5.3637    1.5340    0.1770 H   0  0  0  0  0  0  0  0  0  0  0  0
   -4.3596    0.2782   -0.5875 H   0  0  0  0  0  0  0  0  0  0  0  0
   -6.9593   -2.0817    3.2361 H   0  0  0  0  0  0  0  0  0  0  0  0
   -4.3374   -1.8068    4.0759 H   0  0  0  0  0  0  0  0  0  0  0  0
   -3.2815    1.5655    1.0777 H   0  0  0  0  0  0  0  0  0  0  0  0
   -0.4997    1.0939    2.0757 H   0  0  0  0  0  0  0  0  0  0  0  0
   -1.2059    2.6472    1.6308 H   0  0  0  0  0  0  0  0  0  0  0  0
   -1.6289    3.2253   -0.7713 H   0  0  0  0  0  0  0  0  0  0  0  0
   -0.9443    2.8552   -3.1136 H   0  0  0  0  0  0  0  0  0  0  0  0
    0.3070    0.8244   -3.7460 H   0  0  0  0  0  0  0  0  0  0  0  0
    0.9006   -1.5216   -3.1380 H   0  0  0  0  0  0  0  0  0  0  0  0
    0.8563   -2.0653   -1.4612 H   0  0  0  0  0  0  0  0  0  0  0  0
    2.9171   -0.2877   -2.6927 H   0  0  0  0  0  0  0  0  0  0  0  0
    5.1265   -0.0466   -3.0087 H   0  0  0  0  0  0  0  0  0  0  0  0
    7.5322    0.6087   -1.8473 H   0  0  0  0  0  0  0  0  0  0  0  0
    4.4752   -0.4923    2.0759 H   0  0  0  0  0  0  0  0  0  0  0  0
    6.1986   -0.8660    2.2025 H   0  0  0  0  0  0  0  0  0  0  0  0
    5.0647   -2.1292    1.7084 H   0  0  0  0  0  0  0  0  0  0  0  0
    0.1988   -0.5150    0.3511 H   0  0  0  0  0  0  0  0  0  0  0  0
  1  2  1  0
  2  3  1  0
  3  4  1  0
  4  5  2  0
  5  6  1  0
  6  7  1  0
  7  8  2  0
  7  9  1  0
  9 10  1  0
 10 11  1  0
 11 12  2  0
 12 13  1  0
 13 14  2  0
 14 15  1  0
 15 16  1  0
 16 17  1  0
 17 18  1  0
 18 19  2  0
 18 20  1  0
 20 21  1  0
 21 22  2  0
 22 23  1  0
 23 24  1  0
 24 25  1  0
 15 26  2  0
  6  2  2  0
 26 11  1  0
 24 20  2  0
  1 27  1  0
  1 28  1  0
  1 29  1  0
  4 30  1  0
  5 31  1  0
  9 32  1  0
 10 33  1  0
 10 34  1  0
 12 35  1  0
 13 36  1  0
 14 37  1  0
 16 38  1  0
 16 39  1  0
 17 40  1  0
 21 41  1  0
 22 42  1  0
 25 43  1  0
 25 44  1  0
 25 45  1  0
 26 46  1  0
M  END
$$$$
