
     RDKit          3D

 53 56  0  0  0  0  0  0  0  0999 V2000
   -2.1219   -2.1350    0.7529 C   0  0  0  0  0  0  0  0  0  0  0  0
   -1.3753   -2.5639   -0.5047 C   0  0  0  0  0  0  0  0  0  0  0  0
   -0.2446   -1.6786   -0.8454 N   0  0  0  0  0  0  0  0  0  0  0  0
    1.0073   -2.1455   -1.2571 C   0  0  0  0  0  0  0  0  0  0  0  0
    1.8486   -1.4019   -1.7792 O   0  0  0  0  0  0  0  0  0  0  0  0
    1.3892   -3.5943   -1.0032 C   0  0  0  0  0  0  0  0  0  0  0  0
    1.7255   -3.9496    0.7484 S   0  0  0  0  0  0  0  0  0  0  0  0
    2.4119   -2.4516    1.2751 C   0  0  0  0  0  0  0  0  0  0  0  0
    1.7332   -1.4863    1.8538 N   0  0  0  0  0  0  0  0  0  0  0  0
    2.5950   -0.4310    2.0565 N   0  0  0  0  0  0  0  0  0  0  0  0
    3.7809   -0.7896    1.6081 C   0  0  0  0  0  0  0  0  0  0  0  0
    5.0336   -0.1185    1.5576 C   0  0  0  0  0  0  0  0  0  0  0  0
    6.1029   -0.7454    1.0280 C   0  0  0  0  0  0  0  0  0  0  0  0
    6.0101   -2.1000    0.5033 C   0  0  0  0  0  0  0  0  0  0  0  0
    4.8270   -2.7376    0.5482 C   0  0  0  0  0  0  0  0  0  0  0  0
    3.7233   -2.0822    1.0971 N   0  0  0  0  0  0  0  0  0  0  0  0
   -0.5839   -0.3930   -1.2882 C   0  0  0  0  0  0  0  0  0  0  0  0
   -0.5286    0.7003   -0.4904 C   0  0  0  0  0  0  0  0  0  0  0  0
   -0.1346    0.5802    0.8400 N   0  0  0  0  0  0  0  0  0  0  0  0
   -0.8779    1.9453   -1.0153 N   0  0  0  0  0  0  0  0  0  0  0  0
   -1.0739    3.1002   -0.1340 C   0  0  0  0  0  0  0  0  0  0  0  0
   -2.4938    3.2037    0.3867 C   0  0  0  0  0  0  0  0  0  0  0  0
   -3.4523    3.9621   -0.3019 C   0  0  0  0  0  0  0  0  0  0  0  0
   -4.7622    4.0525    0.1721 C   0  0  0  0  0  0  0  0  0  0  0  0
   -5.1305    3.3824    1.3364 C   0  0  0  0  0  0  0  0  0  0  0  0
   -4.1909    2.6179    2.0251 C   0  0  0  0  0  0  0  0  0  0  0  0
   -2.8806    2.5268    1.5521 C   0  0  0  0  0  0  0  0  0  0  0  0
   -1.1625    2.1400   -2.3618 C   0  0  0  0  0  0  0  0  0  0  0  0
   -1.4922    3.2162   -2.8601 O   0  0  0  0  0  0  0  0  0  0  0  0
   -1.0734    1.0431   -3.1651 N   0  0  0  0  0  0  0  0  0  0  0  0
   -0.9545   -0.2355   -2.7228 C   0  0  0  0  0  0  0  0  0  0  0  0
   -1.1601   -1.1992   -3.4578 O   0  0  0  0  0  0  0  0  0  0  0  0
   -1.4417   -2.0757    1.6096 H   0  0  0  0  0  0  0  0  0  0  0  0
   -2.9061   -2.8596    0.9915 H   0  0  0  0  0  0  0  0  0  0  0  0
   -2.6010   -1.1586    0.6268 H   0  0  0  0  0  0  0  0  0  0  0  0
   -1.0364   -3.5906   -0.3577 H   0  0  0  0  0  0  0  0  0  0  0  0
   -2.0645   -2.5919   -1.3585 H   0  0  0  0  0  0  0  0  0  0  0  0
    2.3067   -3.8014   -1.5666 H   0  0  0  0  0  0  0  0  0  0  0  0
    0.6333   -4.2752   -1.4030 H   0  0  0  0  0  0  0  0  0  0  0  0
    5.1033    0.8922    1.9453 H   0  0  0  0  0  0  0  0  0  0  0  0
    7.0681   -0.2486    0.9768 H   0  0  0  0  0  0  0  0  0  0  0  0
    6.8979   -2.5620    0.0839 H   0  0  0  0  0  0  0  0  0  0  0  0
    4.6887   -3.7439    0.1750 H   0  0  0  0  0  0  0  0  0  0  0  0
    0.2772   -0.3406    1.0373 H   0  0  0  0  0  0  0  0  0  0  0  0
    0.5906    1.2549    1.0738 H   0  0  0  0  0  0  0  0  0  0  0  0
   -0.3654    3.0837    0.7020 H   0  0  0  0  0  0  0  0  0  0  0  0
   -0.8277    4.0202   -0.6812 H   0  0  0  0  0  0  0  0  0  0  0  0
   -3.1820    4.4862   -1.2173 H   0  0  0  0  0  0  0  0  0  0  0  0
   -5.4939    4.6454   -0.3702 H   0  0  0  0  0  0  0  0  0  0  0  0
   -6.1496    3.4533    1.7054 H   0  0  0  0  0  0  0  0  0  0  0  0
   -4.4767    2.0900    2.9306 H   0  0  0  0  0  0  0  0  0  0  0  0
   -2.1612    1.9185    2.0972 H   0  0  0  0  0  0  0  0  0  0  0  0
   -1.3547    1.1716   -4.1236 H   0  0  0  0  0  0  0  0  0  0  0  0
  1  2  1  0
  2  3  1  0
  3  4  1  0
  4  5  2  0
  4  6  1  0
  6  7  1  0
  7  8  1  0
  8  9  2  0
  9 10  1  0
 10 11  2  0
 11 12  1  0
 12 13  2  0
 13 14  1  0
 14 15  2  0
 15 16  1  0
  3 17  1  0
 17 18  2  0
 18 19  1  0
 18 20  1  0
 20 21  1  0
 21 22  1  0
 22 23  2  0
 23 24  1  0
 24 25  2  0
 25 26  1  0
 26 27  2  0
 20 28  1  0
 28 29  2  0
 28 30  1  0
 30 31  1  0
 31 32  2  0
 16  8  1  0
 31 17  1  0
 16 11  1  0
 27 22  1  0
  1 33  1  0
  1 34  1  0
  1 35  1  0
  2 36  1  0
  2 37  1  0
  6 38  1  0
  6 39  1  0
 12 40  1  0
 13 41  1  0
 14 42  1  0
 15 43  1  0
 19 44  1  0
 19 45  1  0
 21 46  1  0
 21 47  1  0
 23 48  1  0
 24 49  1  0
 25 50  1  0
 26 51  1  0
 27 52  1  0
 30 53  1  0
M  END
$$$$
