
     RDKit          3D

 40 41  0  0  0  0  0  0  0  0999 V2000
   -2.6822   -0.1140   -3.3609 O   0  0  0  0  0  0  0  0  0  0  0  0
   -2.0060   -0.1609   -2.3378 C   0  0  0  0  0  0  0  0  0  0  0  0
   -0.4983   -0.4222   -2.4085 C   0  0  0  0  0  0  0  0  0  0  0  0
    0.0802   -0.4833   -1.1011 O   0  0  0  0  0  0  0  0  0  0  0  0
    1.4289   -0.6767   -1.1014 C   0  0  0  0  0  0  0  0  0  0  0  0
    2.1124   -0.8057   -2.1055 O   0  0  0  0  0  0  0  0  0  0  0  0
    1.9286   -0.7321    0.3244 C   0  0  0  0  0  0  0  0  0  0  0  0
    3.4514   -0.6715    0.4180 C   0  0  0  0  0  0  0  0  0  0  0  0
    4.0378    0.6981    0.0752 C   0  0  0  0  0  0  0  0  0  0  0  0
    5.4361    0.6713    0.6850 C   0  0  0  0  0  0  0  0  0  0  0  0
    5.3902   -0.3638    1.8091 C   0  0  0  0  0  0  0  0  0  0  0  0
    3.9578   -0.8843    1.8433 C   0  0  0  0  0  0  0  0  0  0  0  0
   -2.4637    0.0050   -1.0423 N   0  0  0  0  0  0  0  0  0  0  0  0
   -3.7749    0.2796   -0.5801 C   0  0  0  0  0  0  0  0  0  0  0  0
   -4.8408    0.4504   -1.4749 C   0  0  0  0  0  0  0  0  0  0  0  0
   -6.1374    0.7261   -1.0232 C   0  0  0  0  0  0  0  0  0  0  0  0
   -6.4016    0.8378    0.3365 C   0  0  0  0  0  0  0  0  0  0  0  0
   -5.3671    0.6720    1.2527 C   0  0  0  0  0  0  0  0  0  0  0  0
   -4.0607    0.3936    0.8020 C   0  0  0  0  0  0  0  0  0  0  0  0
   -3.0199    0.2188    1.8293 N   0  0  0  0  0  4  0  0  0  0  0  0
   -1.8335    0.1843    1.4655 O   0  0  0  0  0  0  0  0  0  0  0  0
   -3.3827    0.1126    3.0097 O   0  0  0  0  0  1  0  0  0  0  0  0
   -0.0468    0.3988   -2.9765 H   0  0  0  0  0  0  0  0  0  0  0  0
   -0.3503   -1.3796   -2.9200 H   0  0  0  0  0  0  0  0  0  0  0  0
    1.4843    0.1006    0.8824 H   0  0  0  0  0  0  0  0  0  0  0  0
    1.5693   -1.6718    0.7597 H   0  0  0  0  0  0  0  0  0  0  0  0
    3.8996   -1.4301   -0.2381 H   0  0  0  0  0  0  0  0  0  0  0  0
    4.0699    0.8854   -1.0024 H   0  0  0  0  0  0  0  0  0  0  0  0
    3.4502    1.5011    0.5371 H   0  0  0  0  0  0  0  0  0  0  0  0
    5.7267    1.6601    1.0540 H   0  0  0  0  0  0  0  0  0  0  0  0
    6.1757    0.3712   -0.0662 H   0  0  0  0  0  0  0  0  0  0  0  0
    5.6829    0.0657    2.7725 H   0  0  0  0  0  0  0  0  0  0  0  0
    6.0868   -1.1809    1.5885 H   0  0  0  0  0  0  0  0  0  0  0  0
    3.3677   -0.2981    2.5587 H   0  0  0  0  0  0  0  0  0  0  0  0
    3.9110   -1.9338    2.1499 H   0  0  0  0  0  0  0  0  0  0  0  0
   -1.7338   -0.0704   -0.3283 H   0  0  0  0  0  0  0  0  0  0  0  0
   -4.7023    0.3788   -2.5501 H   0  0  0  0  0  0  0  0  0  0  0  0
   -6.9409    0.8537   -1.7463 H   0  0  0  0  0  0  0  0  0  0  0  0
   -7.4109    1.0520    0.6808 H   0  0  0  0  0  0  0  0  0  0  0  0
   -5.5937    0.7620    2.3139 H   0  0  0  0  0  0  0  0  0  0  0  0
  1  2  2  0
  2  3  1  0
  3  4  1  0
  4  5  1  0
  5  6  2  0
  5  7  1  0
  7  8  1  0
  8  9  1  0
  9 10  1  0
 10 11  1  0
 11 12  1  0
  2 13  1  0
 13 14  1  0
 14 15  2  0
 15 16  1  0
 16 17  2  0
 17 18  1  0
 18 19  2  0
 19 20  1  0
 20 21  2  0
 20 22  1  0
 12  8  1  0
 19 14  1  0
  3 23  1  0
  3 24  1  0
  7 25  1  0
  7 26  1  0
  8 27  1  0
  9 28  1  0
  9 29  1  0
 10 30  1  0
 10 31  1  0
 11 32  1  0
 11 33  1  0
 12 34  1  0
 12 35  1  0
 13 36  1  0
 15 37  1  0
 16 38  1  0
 17 39  1  0
 18 40  1  0
M  CHG  2  20   1  22  -1
M  END
$$$$
