
     RDKit          3D

 75 77  0  0  0  0  0  0  0  0999 V2000
   -4.9953    2.0485    4.5595 C   0  0  0  0  0  0  0  0  0  0  0  0
   -4.7186    3.1431    3.5370 C   0  0  0  0  0  0  0  0  0  0  0  0
   -3.4868    2.9169    2.8568 O   0  0  0  0  0  0  0  0  0  0  0  0
   -3.4522    1.9971    1.8449 C   0  0  0  0  0  0  0  0  0  0  0  0
   -4.5515    1.4385    1.1974 C   0  0  0  0  0  0  0  0  0  0  0  0
   -4.3571    0.4945    0.1880 C   0  0  0  0  0  0  0  0  0  0  0  0
   -3.0667    0.0953   -0.1720 C   0  0  0  0  0  0  0  0  0  0  0  0
   -1.9442    0.6547    0.4503 C   0  0  0  0  0  0  0  0  0  0  0  0
   -0.5980    0.2397    0.1262 N   0  0  0  0  0  0  0  0  0  0  0  0
    0.4184    1.2056    0.0932 C   0  0  0  0  0  0  0  0  0  0  0  0
    0.1939    2.4170    0.1069 O   0  0  0  0  0  0  0  0  0  0  0  0
    1.8525    0.7272   -0.0139 C   0  0  0  0  0  0  0  0  0  0  0  0
    2.8242    1.9091    0.0219 C   0  0  0  0  0  0  0  0  0  0  0  0
    4.2429    1.4963   -0.3073 C   0  0  0  0  0  0  0  0  0  0  0  0
    4.5391    0.3446   -0.6088 O   0  0  0  0  0  0  0  0  0  0  0  0
    5.1051    2.5648   -0.2373 N   0  0  0  0  0  0  0  0  0  0  0  0
    6.4432    2.5335   -0.5585 C   0  0  0  0  0  0  0  0  0  0  0  0
    7.2174    1.4682   -1.0682 C   0  0  0  0  0  0  0  0  0  0  0  0
    8.4731    2.0019   -1.2209 C   0  0  0  0  0  0  0  0  0  0  0  0
    9.7654    1.4682   -1.6831 C   0  0  0  0  0  0  0  0  0  0  0  0
    8.4578    3.3042   -0.8347 O   0  0  0  0  0  0  0  0  0  0  0  0
    7.1776    3.6438   -0.4286 N   0  0  0  0  0  0  0  0  0  0  0  0
   -0.3551   -1.2093   -0.1659 C   0  0  0  0  0  0  0  0  0  0  0  0
   -0.6699   -1.6015   -1.6394 C   0  0  0  0  0  0  0  0  0  0  0  0
   -0.8748   -2.7584   -2.0003 O   0  0  0  0  0  0  0  0  0  0  0  0
   -0.5579   -0.5488   -2.5382 N   0  0  0  0  0  0  0  0  0  0  0  0
   -0.7553   -0.6501   -3.9934 C   0  0  0  0  0  0  0  0  0  0  0  0
   -0.3849    0.7136   -4.6064 C   0  0  0  0  0  0  0  0  0  0  0  0
   -2.2235   -0.9574   -4.3208 C   0  0  0  0  0  0  0  0  0  0  0  0
    0.1643   -1.7140   -4.6190 C   0  0  0  0  0  0  0  0  0  0  0  0
   -0.8928   -2.1191    0.9435 C   0  0  0  0  0  0  0  0  0  0  0  0
   -0.2281   -2.1231    2.1857 C   0  0  0  0  0  0  0  0  0  0  0  0
   -0.7025   -2.8900    3.2529 C   0  0  0  0  0  0  0  0  0  0  0  0
   -1.8612   -3.6554    3.1165 C   0  0  0  0  0  0  0  0  0  0  0  0
   -2.2336   -4.3433    4.2392 O   0  0  0  0  0  0  0  0  0  0  0  0
   -3.5609   -4.8594    4.2476 C   0  0  0  0  0  0  0  0  0  0  0  0
   -2.5219   -3.6736    1.8888 C   0  0  0  0  0  0  0  0  0  0  0  0
   -2.0421   -2.9149    0.8111 C   0  0  0  0  0  0  0  0  0  0  0  0
   -2.1631    1.6184    1.4504 C   0  0  0  0  0  0  0  0  0  0  0  0
   -5.0740    1.0649    4.0851 H   0  0  0  0  0  0  0  0  0  0  0  0
   -4.1821    1.9849    5.2921 H   0  0  0  0  0  0  0  0  0  0  0  0
   -5.9300    2.2423    5.0962 H   0  0  0  0  0  0  0  0  0  0  0  0
   -4.6043    4.0921    4.0760 H   0  0  0  0  0  0  0  0  0  0  0  0
   -5.5579    3.2879    2.8495 H   0  0  0  0  0  0  0  0  0  0  0  0
   -5.5681    1.7172    1.4466 H   0  0  0  0  0  0  0  0  0  0  0  0
   -5.2160    0.0760   -0.3359 H   0  0  0  0  0  0  0  0  0  0  0  0
   -2.9804   -0.6256   -0.9797 H   0  0  0  0  0  0  0  0  0  0  0  0
    1.9738    0.1830   -0.9607 H   0  0  0  0  0  0  0  0  0  0  0  0
    2.0746    0.0559    0.8269 H   0  0  0  0  0  0  0  0  0  0  0  0
    2.8064    2.3761    1.0149 H   0  0  0  0  0  0  0  0  0  0  0  0
    2.5249    2.6673   -0.7148 H   0  0  0  0  0  0  0  0  0  0  0  0
    4.7774    3.4730    0.0652 H   0  0  0  0  0  0  0  0  0  0  0  0
    6.9098    0.4590   -1.3020 H   0  0  0  0  0  0  0  0  0  0  0  0
    9.6223    0.5686   -2.2912 H   0  0  0  0  0  0  0  0  0  0  0  0
   10.3003    2.2043   -2.2924 H   0  0  0  0  0  0  0  0  0  0  0  0
   10.3945    1.2072   -0.8281 H   0  0  0  0  0  0  0  0  0  0  0  0
    0.7261   -1.3843   -0.1369 H   0  0  0  0  0  0  0  0  0  0  0  0
   -0.6496    0.3799   -2.1366 H   0  0  0  0  0  0  0  0  0  0  0  0
    0.6515    0.9796   -4.3736 H   0  0  0  0  0  0  0  0  0  0  0  0
   -0.4887    0.7080   -5.6967 H   0  0  0  0  0  0  0  0  0  0  0  0
   -1.0223    1.5142   -4.2084 H   0  0  0  0  0  0  0  0  0  0  0  0
   -2.8828   -0.1822   -3.9132 H   0  0  0  0  0  0  0  0  0  0  0  0
   -2.3880   -1.0074   -5.4036 H   0  0  0  0  0  0  0  0  0  0  0  0
   -2.5438   -1.9127   -3.8928 H   0  0  0  0  0  0  0  0  0  0  0  0
    1.2062   -1.5696   -4.3072 H   0  0  0  0  0  0  0  0  0  0  0  0
   -0.1302   -2.7280   -4.3329 H   0  0  0  0  0  0  0  0  0  0  0  0
    0.1298   -1.6730   -5.7145 H   0  0  0  0  0  0  0  0  0  0  0  0
    0.6660   -1.5183    2.3362 H   0  0  0  0  0  0  0  0  0  0  0  0
   -0.1778   -2.8771    4.2055 H   0  0  0  0  0  0  0  0  0  0  0  0
   -3.7549   -5.2675    5.2456 H   0  0  0  0  0  0  0  0  0  0  0  0
   -4.2993   -4.0681    4.0675 H   0  0  0  0  0  0  0  0  0  0  0  0
   -3.6669   -5.6797    3.5264 H   0  0  0  0  0  0  0  0  0  0  0  0
   -3.4122   -4.2754    1.7308 H   0  0  0  0  0  0  0  0  0  0  0  0
   -2.5878   -2.9605   -0.1308 H   0  0  0  0  0  0  0  0  0  0  0  0
   -1.3237    2.0614    1.9858 H   0  0  0  0  0  0  0  0  0  0  0  0
  1  2  1  0
  2  3  1  0
  3  4  1  0
  4  5  2  0
  5  6  1  0
  6  7  2  0
  7  8  1  0
  8  9  1  0
  9 10  1  0
 10 11  2  0
 10 12  1  0
 12 13  1  0
 13 14  1  0
 14 15  2  0
 14 16  1  0
 16 17  1  0
 17 18  1  0
 18 19  2  0
 19 20  1  0
 19 21  1  0
 21 22  1  0
  9 23  1  0
 23 24  1  0
 24 25  2  0
 24 26  1  0
 26 27  1  0
 27 28  1  0
 27 29  1  0
 27 30  1  0
 23 31  1  0
 31 32  2  0
 32 33  1  0
 33 34  2  0
 34 35  1  0
 35 36  1  0
 34 37  1  0
 37 38  2  0
  8 39  2  0
 39  4  1  0
 22 17  2  0
 38 31  1  0
  1 40  1  0
  1 41  1  0
  1 42  1  0
  2 43  1  0
  2 44  1  0
  5 45  1  0
  6 46  1  0
  7 47  1  0
 12 48  1  0
 12 49  1  0
 13 50  1  0
 13 51  1  0
 16 52  1  0
 18 53  1  0
 20 54  1  0
 20 55  1  0
 20 56  1  0
 23 57  1  0
 26 58  1  0
 28 59  1  0
 28 60  1  0
 28 61  1  0
 29 62  1  0
 29 63  1  0
 29 64  1  0
 30 65  1  0
 30 66  1  0
 30 67  1  0
 32 68  1  0
 33 69  1  0
 36 70  1  0
 36 71  1  0
 36 72  1  0
 37 73  1  0
 38 74  1  0
 39 75  1  0
M  END
$$$$
