
     RDKit          3D

 44 46  0  0  0  0  0  0  0  0999 V2000
    7.7979    0.5902   -2.1666 C   0  0  0  0  0  0  0  0  0  0  0  0
    6.5110    0.2169   -1.4902 C   0  0  0  0  0  0  0  0  0  0  0  0
    5.9963    1.0094   -0.4574 C   0  0  0  0  0  0  0  0  0  0  0  0
    4.7851    0.6751    0.1539 C   0  0  0  0  0  0  0  0  0  0  0  0
    4.0675   -0.4510   -0.2676 C   0  0  0  0  0  0  0  0  0  0  0  0
    2.7863   -0.7652    0.4189 C   0  0  0  0  0  0  0  0  0  0  0  0
    2.2974   -0.0694    1.2979 O   0  0  0  0  0  0  0  0  0  0  0  0
    2.2469   -1.9122   -0.0595 O   0  0  0  0  0  0  0  0  0  0  0  0
    1.0286   -2.3194    0.5645 C   0  0  0  0  0  0  0  0  0  0  0  0
   -0.1920   -1.5132    0.1125 C   0  0  0  0  0  0  0  0  0  0  0  0
   -0.9308   -1.8892   -0.7924 O   0  0  0  0  0  0  0  0  0  0  0  0
   -0.3912   -0.3417    0.8163 N   0  0  0  0  0  0  0  0  0  0  0  0
   -1.3947    0.6238    0.4051 C   0  0  0  0  0  0  0  0  0  0  0  0
   -2.8524    0.1697    0.5695 C   0  0  0  0  0  0  0  0  0  0  0  0
   -3.1741   -0.1711    2.0238 C   0  0  0  0  0  0  0  0  0  0  0  0
   -4.5235   -0.6366    2.1595 O   0  0  0  0  0  0  0  0  0  0  0  0
   -5.4003    0.1427    1.4510 C   0  0  0  0  0  0  0  0  0  0  0  0
   -6.7551   -0.0261    1.7316 C   0  0  0  0  0  0  0  0  0  0  0  0
   -7.7059    0.7495    1.0654 C   0  0  0  0  0  0  0  0  0  0  0  0
   -7.3005    1.6893    0.1162 C   0  0  0  0  0  0  0  0  0  0  0  0
   -5.9442    1.8499   -0.1737 C   0  0  0  0  0  0  0  0  0  0  0  0
   -4.9967    1.0675    0.4830 C   0  0  0  0  0  0  0  0  0  0  0  0
   -3.6865    1.2622    0.1322 O   0  0  0  0  0  0  0  0  0  0  0  0
    4.5706   -1.2348   -1.3138 C   0  0  0  0  0  0  0  0  0  0  0  0
    5.7833   -0.8983   -1.9229 C   0  0  0  0  0  0  0  0  0  0  0  0
    7.5933    1.2068   -3.0472 H   0  0  0  0  0  0  0  0  0  0  0  0
    8.3463   -0.3060   -2.4770 H   0  0  0  0  0  0  0  0  0  0  0  0
    8.4485    1.1478   -1.4857 H   0  0  0  0  0  0  0  0  0  0  0  0
    6.5365    1.8921   -0.1193 H   0  0  0  0  0  0  0  0  0  0  0  0
    4.4067    1.3010    0.9598 H   0  0  0  0  0  0  0  0  0  0  0  0
    0.8537   -3.3677    0.2974 H   0  0  0  0  0  0  0  0  0  0  0  0
    1.1203   -2.2911    1.6580 H   0  0  0  0  0  0  0  0  0  0  0  0
    0.4413    0.0277    1.2818 H   0  0  0  0  0  0  0  0  0  0  0  0
   -1.2211    1.5362    0.9891 H   0  0  0  0  0  0  0  0  0  0  0  0
   -1.2053    0.8872   -0.6433 H   0  0  0  0  0  0  0  0  0  0  0  0
   -3.0632   -0.6902   -0.0793 H   0  0  0  0  0  0  0  0  0  0  0  0
   -3.0449    0.6987    2.6807 H   0  0  0  0  0  0  0  0  0  0  0  0
   -2.5244   -0.9717    2.3924 H   0  0  0  0  0  0  0  0  0  0  0  0
   -7.0687   -0.7546    2.4739 H   0  0  0  0  0  0  0  0  0  0  0  0
   -8.7623    0.6203    1.2867 H   0  0  0  0  0  0  0  0  0  0  0  0
   -8.0407    2.2935   -0.4021 H   0  0  0  0  0  0  0  0  0  0  0  0
   -5.6274    2.5759   -0.9178 H   0  0  0  0  0  0  0  0  0  0  0  0
    4.0313   -2.1094   -1.6696 H   0  0  0  0  0  0  0  0  0  0  0  0
    6.1573   -1.5144   -2.7388 H   0  0  0  0  0  0  0  0  0  0  0  0
  1  2  1  0
  2  3  2  0
  3  4  1  0
  4  5  2  0
  5  6  1  0
  6  7  2  0
  6  8  1  0
  8  9  1  0
  9 10  1  0
 10 11  2  0
 10 12  1  0
 12 13  1  0
 13 14  1  0
 14 15  1  0
 15 16  1  0
 16 17  1  0
 17 18  2  0
 18 19  1  0
 19 20  2  0
 20 21  1  0
 21 22  2  0
 22 23  1  0
  5 24  1  0
 24 25  2  0
 25  2  1  0
 23 14  1  0
 22 17  1  0
  1 26  1  0
  1 27  1  0
  1 28  1  0
  3 29  1  0
  4 30  1  0
  9 31  1  0
  9 32  1  0
 12 33  1  0
 13 34  1  0
 13 35  1  0
 14 36  1  0
 15 37  1  0
 15 38  1  0
 18 39  1  0
 19 40  1  0
 20 41  1  0
 21 42  1  0
 24 43  1  0
 25 44  1  0
M  END
$$$$
