
     RDKit          3D

 46 48  0  0  0  0  0  0  0  0999 V2000
   -2.9371    5.2388   -1.2526 C   0  0  0  0  0  0  0  0  0  0  0  0
   -3.0334    4.2214   -0.1327 C   0  0  0  0  0  0  0  0  0  0  0  0
   -1.7649    3.5681   -0.0130 O   0  0  0  0  0  0  0  0  0  0  0  0
   -1.7309    2.6227    0.9502 C   0  0  0  0  0  0  0  0  0  0  0  0
   -2.6248    2.2872    1.7027 O   0  0  0  0  0  0  0  0  0  0  0  0
   -0.3522    2.0189    0.9819 C   0  0  0  0  0  0  0  0  0  0  0  0
    0.3822    1.9693    2.0564 N   0  0  0  0  0  0  0  0  0  0  0  0
    1.5440    1.3344    1.6884 N   0  0  0  0  0  0  0  0  0  0  0  0
    1.6856    1.3087    0.2289 C   0  0  0  0  0  0  0  0  0  0  0  0
    2.4617    0.1681   -0.4298 C   0  0  0  0  0  0  0  0  0  0  0  0
    2.6511    0.1387   -1.6468 O   0  0  0  0  0  0  0  0  0  0  0  0
    2.9759   -0.9505    0.3872 C   0  0  0  0  0  0  0  0  0  0  0  0
    2.5934   -2.2517    0.0453 C   0  0  0  0  0  0  0  0  0  0  0  0
    3.0730   -3.3314    0.7861 C   0  0  0  0  0  0  0  0  0  0  0  0
    3.9450   -3.1112    1.8530 C   0  0  0  0  0  0  0  0  0  0  0  0
    4.3476   -1.8138    2.1752 C   0  0  0  0  0  0  0  0  0  0  0  0
    3.8700   -0.7291    1.4377 C   0  0  0  0  0  0  0  0  0  0  0  0
    0.2322    1.4201   -0.2675 C   0  0  0  0  0  0  0  0  0  0  0  0
   -0.4627    0.1260   -0.6492 C   0  0  0  0  0  0  0  0  0  0  0  0
   -0.7326   -0.1381   -1.9981 C   0  0  0  0  0  0  0  0  0  0  0  0
   -1.3555   -1.3298   -2.3777 C   0  0  0  0  0  0  0  0  0  0  0  0
   -1.7206   -2.2809   -1.4243 C   0  0  0  0  0  0  0  0  0  0  0  0
   -2.3214   -3.3997   -1.9311 O   0  0  0  0  0  0  0  0  0  0  0  0
   -2.7448   -4.3812   -0.9933 C   0  0  0  0  0  0  0  0  0  0  0  0
   -1.4492   -2.0318   -0.0808 C   0  0  0  0  0  0  0  0  0  0  0  0
   -0.8219   -0.8408    0.3031 C   0  0  0  0  0  0  0  0  0  0  0  0
   -2.6694    4.7502   -2.1953 H   0  0  0  0  0  0  0  0  0  0  0  0
   -2.1524    5.9724   -1.0404 H   0  0  0  0  0  0  0  0  0  0  0  0
   -3.8865    5.7652   -1.3844 H   0  0  0  0  0  0  0  0  0  0  0  0
   -3.2788    4.7280    0.8075 H   0  0  0  0  0  0  0  0  0  0  0  0
   -3.8093    3.4844   -0.3685 H   0  0  0  0  0  0  0  0  0  0  0  0
    2.3363    1.5412    2.2961 H   0  0  0  0  0  0  0  0  0  0  0  0
    2.2314    2.2320   -0.0104 H   0  0  0  0  0  0  0  0  0  0  0  0
    1.9217   -2.4241   -0.7935 H   0  0  0  0  0  0  0  0  0  0  0  0
    2.7712   -4.3432    0.5279 H   0  0  0  0  0  0  0  0  0  0  0  0
    4.3207   -3.9544    2.4281 H   0  0  0  0  0  0  0  0  0  0  0  0
    5.0409   -1.6511    2.9970 H   0  0  0  0  0  0  0  0  0  0  0  0
    4.2164    0.2710    1.6781 H   0  0  0  0  0  0  0  0  0  0  0  0
    0.1697    2.1445   -1.0876 H   0  0  0  0  0  0  0  0  0  0  0  0
   -0.4470    0.5715   -2.7723 H   0  0  0  0  0  0  0  0  0  0  0  0
   -1.5532   -1.5208   -3.4299 H   0  0  0  0  0  0  0  0  0  0  0  0
   -3.4904   -3.9732   -0.3028 H   0  0  0  0  0  0  0  0  0  0  0  0
   -3.2184   -5.1945   -1.5517 H   0  0  0  0  0  0  0  0  0  0  0  0
   -1.8916   -4.8025   -0.4514 H   0  0  0  0  0  0  0  0  0  0  0  0
   -1.7072   -2.7422    0.6977 H   0  0  0  0  0  0  0  0  0  0  0  0
   -0.6142   -0.6869    1.3622 H   0  0  0  0  0  0  0  0  0  0  0  0
  1  2  1  0
  2  3  1  0
  3  4  1  0
  4  5  2  0
  4  6  1  0
  6  7  2  0
  7  8  1  0
  8  9  1  0
  9 10  1  0
 10 11  2  0
 10 12  1  0
 12 13  2  0
 13 14  1  0
 14 15  2  0
 15 16  1  0
 16 17  2  0
  9 18  1  0
 18 19  1  0
 19 20  2  0
 20 21  1  0
 21 22  2  0
 22 23  1  0
 23 24  1  0
 22 25  1  0
 25 26  2  0
 18  6  1  0
 26 19  1  0
 17 12  1  0
  1 27  1  0
  1 28  1  0
  1 29  1  0
  2 30  1  0
  2 31  1  0
  8 32  1  0
  9 33  1  0
 13 34  1  0
 14 35  1  0
 15 36  1  0
 16 37  1  0
 17 38  1  0
 18 39  1  0
 20 40  1  0
 21 41  1  0
 24 42  1  0
 24 43  1  0
 24 44  1  0
 25 45  1  0
 26 46  1  0
M  END
$$$$
