
     RDKit          3D

 45 47  0  0  0  0  0  0  0  0999 V2000
    3.1698   -1.0461    2.1106 O   0  0  0  0  0  0  0  0  0  0  0  0
    2.4282   -0.1710    1.6691 C   0  0  0  0  0  0  0  0  0  0  0  0
    2.9165    1.0028    1.1244 N   0  0  0  0  0  0  0  0  0  0  0  0
    4.3092    1.0541    0.8944 N   0  0  0  0  0  0  0  0  0  0  0  0
    4.7316    1.5581   -0.3295 C   0  0  0  0  0  0  0  0  0  0  0  0
    3.9242    2.1289   -1.0676 O   0  0  0  0  0  0  0  0  0  0  0  0
    6.1383    1.3401   -0.6386 C   0  0  0  0  0  0  0  0  0  0  0  0
    7.1658    0.8559    0.1545 C   0  0  0  0  0  0  0  0  0  0  0  0
    8.4121    0.7932   -0.5377 C   0  0  0  0  0  0  0  0  0  0  0  0
    8.3029    1.2352   -1.8356 C   0  0  0  0  0  0  0  0  0  0  0  0
    6.7110    1.7250   -2.2128 S   0  0  0  0  0  0  0  0  0  0  0  0
    0.9493   -0.3498    1.6605 C   0  0  0  0  0  0  0  0  0  0  0  0
    0.4398   -1.6531    1.7724 C   0  0  0  0  0  0  0  0  0  0  0  0
   -0.9390   -1.8776    1.7680 C   0  0  0  0  0  0  0  0  0  0  0  0
   -1.8078   -0.7906    1.6538 C   0  0  0  0  0  0  0  0  0  0  0  0
   -3.5665   -1.0458    1.6471 S   0  0  0  0  0  6  0  0  0  0  0  0
   -3.8266   -2.4696    1.6773 O   0  0  0  0  0  0  0  0  0  0  0  0
   -4.1255   -0.1531    2.6394 O   0  0  0  0  0  0  0  0  0  0  0  0
   -4.0168   -0.4778    0.1006 N   0  0  0  0  0  0  0  0  0  0  0  0
   -3.5207   -1.2699   -1.0480 C   0  0  0  0  0  0  0  0  0  0  0  0
   -3.5970   -0.4095   -2.3090 C   0  0  0  0  0  0  0  0  0  0  0  0
   -4.8805    0.4197   -2.3932 C   0  0  0  0  0  0  0  0  0  0  0  0
   -5.9536   -0.1117   -1.4532 C   0  0  0  0  0  0  0  0  0  0  0  0
   -5.4682   -0.1447   -0.0026 C   0  0  0  0  0  0  0  0  0  0  0  0
   -1.3149    0.5151    1.5623 C   0  0  0  0  0  0  0  0  0  0  0  0
    0.0652    0.7356    1.5675 C   0  0  0  0  0  0  0  0  0  0  0  0
    2.3613    1.5459    0.4626 H   0  0  0  0  0  0  0  0  0  0  0  0
    4.8415    0.3250    1.3659 H   0  0  0  0  0  0  0  0  0  0  0  0
    7.0503    0.5623    1.1907 H   0  0  0  0  0  0  0  0  0  0  0  0
    9.3415    0.4449   -0.1031 H   0  0  0  0  0  0  0  0  0  0  0  0
    9.0825    1.2989   -2.5827 H   0  0  0  0  0  0  0  0  0  0  0  0
    1.1188   -2.4999    1.8647 H   0  0  0  0  0  0  0  0  0  0  0  0
   -1.3207   -2.8925    1.8577 H   0  0  0  0  0  0  0  0  0  0  0  0
   -4.1228   -2.1790   -1.1636 H   0  0  0  0  0  0  0  0  0  0  0  0
   -2.4816   -1.5794   -0.9032 H   0  0  0  0  0  0  0  0  0  0  0  0
   -2.7372    0.2709   -2.3481 H   0  0  0  0  0  0  0  0  0  0  0  0
   -3.5135   -1.0605   -3.1873 H   0  0  0  0  0  0  0  0  0  0  0  0
   -5.2488    0.4329   -3.4251 H   0  0  0  0  0  0  0  0  0  0  0  0
   -4.6559    1.4609   -2.1292 H   0  0  0  0  0  0  0  0  0  0  0  0
   -6.2373   -1.1242   -1.7677 H   0  0  0  0  0  0  0  0  0  0  0  0
   -6.8609    0.4988   -1.5243 H   0  0  0  0  0  0  0  0  0  0  0  0
   -5.6109    0.8464    0.4440 H   0  0  0  0  0  0  0  0  0  0  0  0
   -6.0764   -0.8622    0.5597 H   0  0  0  0  0  0  0  0  0  0  0  0
   -2.0020    1.3572    1.4966 H   0  0  0  0  0  0  0  0  0  0  0  0
    0.4257    1.7600    1.5249 H   0  0  0  0  0  0  0  0  0  0  0  0
  1  2  2  0
  2  3  1  0
  3  4  1  0
  4  5  1  0
  5  6  2  0
  5  7  1  0
  7  8  2  0
  8  9  1  0
  9 10  2  0
 10 11  1  0
  2 12  1  0
 12 13  2  0
 13 14  1  0
 14 15  2  0
 15 16  1  0
 16 17  2  0
 16 18  2  0
 16 19  1  0
 19 20  1  0
 20 21  1  0
 21 22  1  0
 22 23  1  0
 23 24  1  0
 15 25  1  0
 25 26  2  0
 11  7  1  0
 26 12  1  0
 24 19  1  0
  3 27  1  0
  4 28  1  0
  8 29  1  0
  9 30  1  0
 10 31  1  0
 13 32  1  0
 14 33  1  0
 20 34  1  0
 20 35  1  0
 21 36  1  0
 21 37  1  0
 22 38  1  0
 22 39  1  0
 23 40  1  0
 23 41  1  0
 24 42  1  0
 24 43  1  0
 25 44  1  0
 26 45  1  0
M  END
$$$$
