
     RDKit          3D

 43 46  0  0  0  0  0  0  0  0999 V2000
    2.0218    1.7405   -0.0085 O   0  0  0  0  0  0  0  0  0  0  0  0
    2.6272    0.6948   -0.2378 C   0  0  0  0  0  0  0  0  0  0  0  0
    4.0952    0.6803   -0.1113 C   0  0  0  0  0  0  0  0  0  0  0  0
    4.8056    1.8397    0.2180 C   0  0  0  0  0  0  0  0  0  0  0  0
    6.1955    1.7897    0.3340 C   0  0  0  0  0  0  0  0  0  0  0  0
    6.8698    0.5859    0.1228 C   0  0  0  0  0  0  0  0  0  0  0  0
    6.1573   -0.5702   -0.2043 C   0  0  0  0  0  0  0  0  0  0  0  0
    4.7679   -0.5150   -0.3203 C   0  0  0  0  0  0  0  0  0  0  0  0
    4.0502   -1.6639   -0.6417 N   0  0  0  0  0  0  0  0  0  0  0  0
    2.6897   -1.7051   -0.7849 C   0  0  0  0  0  0  0  0  0  0  0  0
    2.0335   -3.2031   -1.1625 S   0  0  0  0  0  0  0  0  0  0  0  0
    2.0005   -0.5069   -0.6056 N   0  0  0  0  0  0  0  0  0  0  0  0
    0.5327   -0.4320   -0.7123 C   0  0  0  0  0  0  0  0  0  0  0  0
   -0.1498   -0.6451    0.6581 C   0  0  0  0  0  0  0  0  0  0  0  0
   -1.6193   -0.5999    0.7043 N   0  0  0  0  0  0  0  0  0  0  0  0
   -2.2604   -1.5961   -0.1599 C   0  0  0  0  0  0  0  0  0  0  0  0
   -3.7538   -1.7094    0.1772 C   0  0  0  0  0  0  0  0  0  0  0  0
   -4.4336   -0.3652    0.2541 C   0  0  0  0  0  0  0  0  0  0  0  0
   -5.8319   -0.2802    0.2220 C   0  0  0  0  0  0  0  0  0  0  0  0
   -6.4646    0.9578    0.3294 C   0  0  0  0  0  0  0  0  0  0  0  0
   -5.7070    2.1175    0.4763 C   0  0  0  0  0  0  0  0  0  0  0  0
   -4.3146    2.0411    0.5199 C   0  0  0  0  0  0  0  0  0  0  0  0
   -3.6656    0.8013    0.4222 C   0  0  0  0  0  0  0  0  0  0  0  0
   -2.1508    0.7443    0.4266 C   0  0  0  0  0  0  0  0  0  0  0  0
    4.2807    2.7779    0.3846 H   0  0  0  0  0  0  0  0  0  0  0  0
    6.7516    2.6888    0.5899 H   0  0  0  0  0  0  0  0  0  0  0  0
    7.9531    0.5488    0.2145 H   0  0  0  0  0  0  0  0  0  0  0  0
    6.6965   -1.4998   -0.3643 H   0  0  0  0  0  0  0  0  0  0  0  0
    4.5441   -2.5385   -0.7824 H   0  0  0  0  0  0  0  0  0  0  0  0
    0.2650    0.5502   -1.1176 H   0  0  0  0  0  0  0  0  0  0  0  0
    0.1762   -1.1649   -1.4409 H   0  0  0  0  0  0  0  0  0  0  0  0
    0.1675   -1.6141    1.0645 H   0  0  0  0  0  0  0  0  0  0  0  0
    0.2410    0.0894    1.3745 H   0  0  0  0  0  0  0  0  0  0  0  0
   -2.1405   -1.3334   -1.2192 H   0  0  0  0  0  0  0  0  0  0  0  0
   -1.8038   -2.5827   -0.0151 H   0  0  0  0  0  0  0  0  0  0  0  0
   -3.8738   -2.2089    1.1469 H   0  0  0  0  0  0  0  0  0  0  0  0
   -4.2416   -2.3304   -0.5835 H   0  0  0  0  0  0  0  0  0  0  0  0
   -6.4332   -1.1799    0.1165 H   0  0  0  0  0  0  0  0  0  0  0  0
   -7.5493    1.0171    0.3020 H   0  0  0  0  0  0  0  0  0  0  0  0
   -6.2006    3.0821    0.5590 H   0  0  0  0  0  0  0  0  0  0  0  0
   -3.7350    2.9545    0.6329 H   0  0  0  0  0  0  0  0  0  0  0  0
   -1.8120    1.1109   -0.5497 H   0  0  0  0  0  0  0  0  0  0  0  0
   -1.7812    1.4322    1.1969 H   0  0  0  0  0  0  0  0  0  0  0  0
  1  2  2  0
  2  3  1  0
  3  4  2  0
  4  5  1  0
  5  6  2  0
  6  7  1  0
  7  8  2  0
  8  9  1  0
  9 10  1  0
 10 11  2  0
 10 12  1  0
 12 13  1  0
 13 14  1  0
 14 15  1  0
 15 16  1  0
 16 17  1  0
 17 18  1  0
 18 19  2  0
 19 20  1  0
 20 21  2  0
 21 22  1  0
 22 23  2  0
 23 24  1  0
 12  2  1  0
 24 15  1  0
  8  3  1  0
 23 18  1  0
  4 25  1  0
  5 26  1  0
  6 27  1  0
  7 28  1  0
  9 29  1  0
 13 30  1  0
 13 31  1  0
 14 32  1  0
 14 33  1  0
 16 34  1  0
 16 35  1  0
 17 36  1  0
 17 37  1  0
 19 38  1  0
 20 39  1  0
 21 40  1  0
 22 41  1  0
 24 42  1  0
 24 43  1  0
M  END
$$$$
