
     RDKit          3D

 35 37  0  0  0  0  0  0  0  0999 V2000
   -3.1638   -2.3463    0.7229 C   0  0  0  0  0  0  0  0  0  0  0  0
   -3.8116   -1.0168    0.4457 C   0  0  0  0  0  0  0  0  0  0  0  0
   -5.1712   -0.8477    0.7571 C   0  0  0  0  0  0  0  0  0  0  0  0
   -5.8177    0.3638    0.5139 C   0  0  0  0  0  0  0  0  0  0  0  0
   -5.1153    1.4249   -0.0453 C   0  0  0  0  0  0  0  0  0  0  0  0
   -3.7669    1.2728   -0.3655 C   0  0  0  0  0  0  0  0  0  0  0  0
   -3.0987    0.0552   -0.1344 C   0  0  0  0  0  0  0  0  0  0  0  0
   -1.6314   -0.0435   -0.4971 C   0  0  0  0  0  0  0  0  0  0  0  0
   -0.5742    0.5051    0.8762 S   0  0  0  0  0  0  0  0  0  0  0  0
    1.0082    0.2797    0.1706 C   0  0  0  0  0  0  0  0  0  0  0  0
    1.1410   -0.1792   -1.0330 N   0  0  0  0  0  0  0  0  0  0  0  0
    2.4172   -0.3410   -1.5477 C   0  0  0  0  0  0  0  0  0  0  0  0
    2.6369   -0.7712   -2.6743 O   0  0  0  0  0  0  0  0  0  0  0  0
    3.5550    0.0281   -0.6790 C   0  0  0  0  0  0  0  0  0  0  0  0
    3.3142    0.4926    0.5453 C   0  0  0  0  0  0  0  0  0  0  0  0
    2.0421    0.6263    0.9949 N   0  0  0  0  0  0  0  0  0  0  0  0
    4.5637    0.8129    1.2808 C   0  0  0  0  0  0  0  0  0  0  0  0
    5.6138    0.7555    0.1580 C   0  0  0  0  0  0  0  0  0  0  0  0
    4.9973   -0.0507   -0.9975 C   0  0  0  0  0  0  0  0  0  0  0  0
   -2.8906   -2.8368   -0.2165 H   0  0  0  0  0  0  0  0  0  0  0  0
   -3.8402   -3.0175    1.2630 H   0  0  0  0  0  0  0  0  0  0  0  0
   -2.2724   -2.2200    1.3446 H   0  0  0  0  0  0  0  0  0  0  0  0
   -5.7394   -1.6651    1.1964 H   0  0  0  0  0  0  0  0  0  0  0  0
   -6.8691    0.4780    0.7633 H   0  0  0  0  0  0  0  0  0  0  0  0
   -5.6152    2.3714   -0.2324 H   0  0  0  0  0  0  0  0  0  0  0  0
   -3.2316    2.1154   -0.7992 H   0  0  0  0  0  0  0  0  0  0  0  0
   -1.4373    0.5809   -1.3775 H   0  0  0  0  0  0  0  0  0  0  0  0
   -1.3787   -1.0700   -0.7815 H   0  0  0  0  0  0  0  0  0  0  0  0
    1.8528    0.9792    1.9236 H   0  0  0  0  0  0  0  0  0  0  0  0
    4.7645    0.0603    2.0503 H   0  0  0  0  0  0  0  0  0  0  0  0
    4.5377    1.8035    1.7443 H   0  0  0  0  0  0  0  0  0  0  0  0
    5.8386    1.7742   -0.1852 H   0  0  0  0  0  0  0  0  0  0  0  0
    6.5568    0.3187    0.5031 H   0  0  0  0  0  0  0  0  0  0  0  0
    5.3421   -1.0896   -0.9832 H   0  0  0  0  0  0  0  0  0  0  0  0
    5.2432    0.3974   -1.9646 H   0  0  0  0  0  0  0  0  0  0  0  0
  1  2  1  0
  2  3  2  0
  3  4  1  0
  4  5  2  0
  5  6  1  0
  6  7  2  0
  7  8  1  0
  8  9  1  0
  9 10  1  0
 10 11  2  0
 11 12  1  0
 12 13  2  0
 12 14  1  0
 14 15  2  0
 15 16  1  0
 15 17  1  0
 17 18  1  0
 18 19  1  0
  7  2  1  0
 16 10  1  0
 19 14  1  0
  1 20  1  0
  1 21  1  0
  1 22  1  0
  3 23  1  0
  4 24  1  0
  5 25  1  0
  6 26  1  0
  8 27  1  0
  8 28  1  0
 16 29  1  0
 17 30  1  0
 17 31  1  0
 18 32  1  0
 18 33  1  0
 19 34  1  0
 19 35  1  0
M  END
$$$$
