
     RDKit          3D

 36 38  0  0  0  0  0  0  0  0999 V2000
    5.5661   -1.0837    0.2059 C   0  0  0  0  0  0  0  0  0  0  0  0
    4.5838   -0.3234    0.9519 N   0  0  0  0  0  0  0  0  0  0  0  0
    4.6558   -0.1187    2.3081 C   0  0  0  0  0  0  0  0  0  0  0  0
    3.5580    0.6155    2.6894 C   0  0  0  0  0  0  0  0  0  0  0  0
    2.7986    0.8657    1.5235 C   0  0  0  0  0  0  0  0  0  0  0  0
    3.4407    0.2716    0.4504 C   0  0  0  0  0  0  0  0  0  0  0  0
    3.1656    0.2291   -0.9405 C   0  0  0  0  0  0  0  0  0  0  0  0
    1.9594    0.0165   -1.4880 C   0  0  0  0  0  0  0  0  0  0  0  0
    1.7523    0.0457   -3.2198 S   0  0  0  0  0  0  0  0  0  0  0  0
    0.0182   -0.2368   -3.1355 C   0  0  0  0  0  0  0  0  0  0  0  0
   -0.9509   -0.3920   -4.4841 S   0  0  0  0  0  0  0  0  0  0  0  0
   -0.3382   -0.3436   -1.8102 N   0  0  0  0  0  0  0  0  0  0  0  0
   -1.6656   -0.5437   -1.3952 N   0  0  0  0  0  0  0  0  0  0  0  0
   -2.4054    0.5938   -1.1282 C   0  0  0  0  0  0  0  0  0  0  0  0
   -2.1006    1.7153   -1.5205 O   0  0  0  0  0  0  0  0  0  0  0  0
   -3.6445    0.3932   -0.3360 C   0  0  0  0  0  0  0  0  0  0  0  0
   -4.7709    1.1624   -0.6609 C   0  0  0  0  0  0  0  0  0  0  0  0
   -5.9547    1.0061    0.0618 C   0  0  0  0  0  0  0  0  0  0  0  0
   -6.0015    0.0937    1.1102 C   0  0  0  0  0  0  0  0  0  0  0  0
   -7.1363   -0.0546    1.8052 F   0  0  0  0  0  0  0  0  0  0  0  0
   -4.8844   -0.6609    1.4559 C   0  0  0  0  0  0  0  0  0  0  0  0
   -3.6969   -0.5105    0.7354 C   0  0  0  0  0  0  0  0  0  0  0  0
    0.6485   -0.2921   -0.8376 C   0  0  0  0  0  0  0  0  0  0  0  0
    0.4592   -0.5394    0.3458 O   0  0  0  0  0  0  0  0  0  0  0  0
    6.0969   -0.3991   -0.4603 H   0  0  0  0  0  0  0  0  0  0  0  0
    5.0500   -1.8624   -0.3615 H   0  0  0  0  0  0  0  0  0  0  0  0
    6.2733   -1.5474    0.8987 H   0  0  0  0  0  0  0  0  0  0  0  0
    5.4769   -0.5111    2.8938 H   0  0  0  0  0  0  0  0  0  0  0  0
    3.3280    0.9388    3.6961 H   0  0  0  0  0  0  0  0  0  0  0  0
    1.8744    1.4280    1.4761 H   0  0  0  0  0  0  0  0  0  0  0  0
    4.0096    0.4061   -1.6054 H   0  0  0  0  0  0  0  0  0  0  0  0
   -1.8398   -1.4123   -0.9041 H   0  0  0  0  0  0  0  0  0  0  0  0
   -4.7263    1.8816   -1.4771 H   0  0  0  0  0  0  0  0  0  0  0  0
   -6.8353    1.5922   -0.1824 H   0  0  0  0  0  0  0  0  0  0  0  0
   -4.9434   -1.3503    2.2930 H   0  0  0  0  0  0  0  0  0  0  0  0
   -2.8203   -1.0731    1.0462 H   0  0  0  0  0  0  0  0  0  0  0  0
  1  2  1  0
  2  3  1  0
  3  4  2  0
  4  5  1  0
  5  6  2  0
  6  7  1  0
  7  8  2  3
  8  9  1  0
  9 10  1  0
 10 11  2  0
 10 12  1  0
 12 13  1  0
 13 14  1  0
 14 15  2  0
 14 16  1  0
 16 17  2  0
 17 18  1  0
 18 19  2  0
 19 20  1  0
 19 21  1  0
 21 22  2  0
 12 23  1  0
 23 24  2  0
  6  2  1  0
 23  8  1  0
 22 16  1  0
  1 25  1  0
  1 26  1  0
  1 27  1  0
  3 28  1  0
  4 29  1  0
  5 30  1  0
  7 31  1  0
 13 32  1  0
 17 33  1  0
 18 34  1  0
 21 35  1  0
 22 36  1  0
M  END
$$$$
