
     RDKit          3D

 50 52  0  0  0  0  0  0  0  0999 V2000
   -8.7606    1.5342   -0.3207 C   0  0  0  0  0  0  0  0  0  0  0  0
   -7.9986    0.4094   -0.7342 O   0  0  0  0  0  0  0  0  0  0  0  0
   -6.6439    0.4369   -0.5160 C   0  0  0  0  0  0  0  0  0  0  0  0
   -5.9616    1.5030    0.0809 C   0  0  0  0  0  0  0  0  0  0  0  0
   -4.5772    1.4437    0.2664 C   0  0  0  0  0  0  0  0  0  0  0  0
   -3.8670    0.3093   -0.1376 C   0  0  0  0  0  0  0  0  0  0  0  0
   -2.3940    0.1994    0.0383 C   0  0  0  0  0  0  0  0  0  0  0  0
   -1.7260   -0.4582   -0.7549 O   0  0  0  0  0  0  0  0  0  0  0  0
   -1.8600    0.8338    1.1524 N   0  0  0  0  0  0  0  0  0  0  0  0
   -0.5313    0.9564    1.5415 C   0  0  0  0  0  0  0  0  0  0  0  0
   -0.2860    1.7821    2.9717 S   0  0  0  0  0  0  0  0  0  0  0  0
    0.3695    0.3752    0.6823 N   0  0  0  0  0  0  0  0  0  0  0  0
    1.7778    0.2849    0.6531 C   0  0  0  0  0  0  0  0  0  0  0  0
    2.6576    0.8787    1.5469 C   0  0  0  0  0  0  0  0  0  0  0  0
    4.0478    0.7129    1.4048 C   0  0  0  0  0  0  0  0  0  0  0  0
    4.6169   -0.0434    0.3717 C   0  0  0  0  0  0  0  0  0  0  0  0
    5.9755   -0.1983    0.2434 N   0  0  0  0  0  0  0  0  0  0  0  0
    6.9523    0.2701    1.2237 C   0  0  0  0  0  0  0  0  0  0  0  0
    8.2539   -0.4039    0.7966 C   0  0  0  0  0  0  0  0  0  0  0  0
    8.1026   -0.5182   -0.7099 C   0  0  0  0  0  0  0  0  0  0  0  0
    6.6258   -0.8646   -0.8821 C   0  0  0  0  0  0  0  0  0  0  0  0
    3.7136   -0.6286   -0.5223 C   0  0  0  0  0  0  0  0  0  0  0  0
    2.3255   -0.4696   -0.3885 C   0  0  0  0  0  0  0  0  0  0  0  0
   -4.5402   -0.7535   -0.7542 C   0  0  0  0  0  0  0  0  0  0  0  0
   -5.9252   -0.6990   -0.9433 C   0  0  0  0  0  0  0  0  0  0  0  0
   -6.6668   -1.6970   -1.5258 O   0  0  0  0  0  0  0  0  0  0  0  0
   -5.9705   -2.8215   -2.0451 C   0  0  0  0  0  0  0  0  0  0  0  0
   -8.6943    1.6797    0.7625 H   0  0  0  0  0  0  0  0  0  0  0  0
   -8.4573    2.4367   -0.8613 H   0  0  0  0  0  0  0  0  0  0  0  0
   -9.8086    1.3368   -0.5657 H   0  0  0  0  0  0  0  0  0  0  0  0
   -6.4795    2.4003    0.4044 H   0  0  0  0  0  0  0  0  0  0  0  0
   -4.0752    2.3048    0.6996 H   0  0  0  0  0  0  0  0  0  0  0  0
   -2.4963    1.2512    1.8175 H   0  0  0  0  0  0  0  0  0  0  0  0
   -0.0872   -0.1160   -0.0887 H   0  0  0  0  0  0  0  0  0  0  0  0
    2.3259    1.4926    2.3724 H   0  0  0  0  0  0  0  0  0  0  0  0
    4.6813    1.2115    2.1334 H   0  0  0  0  0  0  0  0  0  0  0  0
    6.6967   -0.0207    2.2483 H   0  0  0  0  0  0  0  0  0  0  0  0
    7.0480    1.3605    1.1680 H   0  0  0  0  0  0  0  0  0  0  0  0
    8.3233   -1.4039    1.2417 H   0  0  0  0  0  0  0  0  0  0  0  0
    9.1381    0.1661    1.0950 H   0  0  0  0  0  0  0  0  0  0  0  0
    8.7632   -1.2706   -1.1495 H   0  0  0  0  0  0  0  0  0  0  0  0
    8.3200    0.4479   -1.1813 H   0  0  0  0  0  0  0  0  0  0  0  0
    6.2652   -0.5056   -1.8519 H   0  0  0  0  0  0  0  0  0  0  0  0
    6.4753   -1.9482   -0.8163 H   0  0  0  0  0  0  0  0  0  0  0  0
    4.0697   -1.2365   -1.3487 H   0  0  0  0  0  0  0  0  0  0  0  0
    1.6819   -0.9552   -1.1189 H   0  0  0  0  0  0  0  0  0  0  0  0
   -3.9607   -1.6152   -1.0721 H   0  0  0  0  0  0  0  0  0  0  0  0
   -5.4707   -3.3783   -1.2458 H   0  0  0  0  0  0  0  0  0  0  0  0
   -5.2618   -2.5235   -2.8248 H   0  0  0  0  0  0  0  0  0  0  0  0
   -6.7073   -3.4884   -2.5033 H   0  0  0  0  0  0  0  0  0  0  0  0
  1  2  1  0
  2  3  1  0
  3  4  2  0
  4  5  1  0
  5  6  2  0
  6  7  1  0
  7  8  2  0
  7  9  1  0
  9 10  1  0
 10 11  2  0
 10 12  1  0
 12 13  1  0
 13 14  2  0
 14 15  1  0
 15 16  2  0
 16 17  1  0
 17 18  1  0
 18 19  1  0
 19 20  1  0
 20 21  1  0
 16 22  1  0
 22 23  2  0
  6 24  1  0
 24 25  2  0
 25 26  1  0
 26 27  1  0
 25  3  1  0
 23 13  1  0
 21 17  1  0
  1 28  1  0
  1 29  1  0
  1 30  1  0
  4 31  1  0
  5 32  1  0
  9 33  1  0
 12 34  1  0
 14 35  1  0
 15 36  1  0
 18 37  1  0
 18 38  1  0
 19 39  1  0
 19 40  1  0
 20 41  1  0
 20 42  1  0
 21 43  1  0
 21 44  1  0
 22 45  1  0
 23 46  1  0
 24 47  1  0
 27 48  1  0
 27 49  1  0
 27 50  1  0
M  END
$$$$
