
     RDKit          3D

 47 48  0  0  0  0  0  0  0  0999 V2000
    6.5634    1.9924    1.7925 C   0  0  0  0  0  0  0  0  0  0  0  0
    5.9599    1.4646    0.5246 C   0  0  0  0  0  0  0  0  0  0  0  0
    6.6833    0.5915   -0.2945 C   0  0  0  0  0  0  0  0  0  0  0  0
    6.1334    0.1204   -1.4893 C   0  0  0  0  0  0  0  0  0  0  0  0
    4.8498    0.5173   -1.8912 C   0  0  0  0  0  0  0  0  0  0  0  0
    4.2518    0.0102   -3.1811 C   0  0  0  0  0  0  0  0  0  0  0  0
    3.9264   -1.7719   -3.1858 S   0  0  0  0  0  0  0  0  0  0  0  0
    2.6025   -1.8853   -2.0709 C   0  0  0  0  0  0  0  0  0  0  0  0
    2.2376   -3.0066   -1.4830 N   0  0  0  0  0  0  0  0  0  0  0  0
    1.1523   -2.7078   -0.6856 N   0  0  0  0  0  0  0  0  0  0  0  0
    0.9189   -1.4256   -0.8527 C   0  0  0  0  0  0  0  0  0  0  0  0
   -0.1190   -0.5667   -0.2429 C   0  0  0  0  0  0  0  0  0  0  0  0
   -1.5029   -1.1949   -0.3686 C   0  0  0  0  0  0  0  0  0  0  0  0
   -2.5394   -0.3189    0.1429 N   0  0  0  0  0  0  0  0  0  0  0  0
   -3.7247   -0.8043    0.6113 C   0  0  0  0  0  0  0  0  0  0  0  0
   -3.9717   -1.9806    0.8157 O   0  0  0  0  0  0  0  0  0  0  0  0
   -4.5706    0.2354    0.7892 O   0  0  0  0  0  0  0  0  0  0  0  0
   -5.9177    0.0153    1.2828 C   0  0  0  0  0  0  0  0  0  0  0  0
   -5.9036   -0.5762    2.6968 C   0  0  0  0  0  0  0  0  0  0  0  0
   -6.7351   -0.8427    0.3106 C   0  0  0  0  0  0  0  0  0  0  0  0
   -6.5436    1.4172    1.3440 C   0  0  0  0  0  0  0  0  0  0  0  0
    1.7896   -0.8345   -1.7264 O   0  0  0  0  0  0  0  0  0  0  0  0
    4.1372    1.4099   -1.0784 C   0  0  0  0  0  0  0  0  0  0  0  0
    4.6886    1.8814    0.1159 C   0  0  0  0  0  0  0  0  0  0  0  0
    7.2485    1.2606    2.2328 H   0  0  0  0  0  0  0  0  0  0  0  0
    5.7875    2.2002    2.5373 H   0  0  0  0  0  0  0  0  0  0  0  0
    7.1148    2.9156    1.5886 H   0  0  0  0  0  0  0  0  0  0  0  0
    7.6811    0.2675   -0.0054 H   0  0  0  0  0  0  0  0  0  0  0  0
    6.7161   -0.5637   -2.1036 H   0  0  0  0  0  0  0  0  0  0  0  0
    4.9543    0.2276   -3.9945 H   0  0  0  0  0  0  0  0  0  0  0  0
    3.3308    0.5510   -3.4282 H   0  0  0  0  0  0  0  0  0  0  0  0
   -0.1163    0.4210   -0.7213 H   0  0  0  0  0  0  0  0  0  0  0  0
    0.1220   -0.4026    0.8143 H   0  0  0  0  0  0  0  0  0  0  0  0
   -1.7463   -1.3953   -1.4192 H   0  0  0  0  0  0  0  0  0  0  0  0
   -1.5437   -2.1538    0.1622 H   0  0  0  0  0  0  0  0  0  0  0  0
   -2.5850    0.6471   -0.1516 H   0  0  0  0  0  0  0  0  0  0  0  0
   -5.2468    0.0043    3.3543 H   0  0  0  0  0  0  0  0  0  0  0  0
   -5.5282   -1.6039    2.7067 H   0  0  0  0  0  0  0  0  0  0  0  0
   -6.9082   -0.5906    3.1325 H   0  0  0  0  0  0  0  0  0  0  0  0
   -6.6526   -0.4571   -0.7117 H   0  0  0  0  0  0  0  0  0  0  0  0
   -7.7938   -0.8637    0.5908 H   0  0  0  0  0  0  0  0  0  0  0  0
   -6.3841   -1.8785    0.2854 H   0  0  0  0  0  0  0  0  0  0  0  0
   -5.9641    2.0741    2.0026 H   0  0  0  0  0  0  0  0  0  0  0  0
   -6.5387    1.8894    0.3549 H   0  0  0  0  0  0  0  0  0  0  0  0
   -7.5760    1.3869    1.7073 H   0  0  0  0  0  0  0  0  0  0  0  0
    3.1445    1.7476   -1.3678 H   0  0  0  0  0  0  0  0  0  0  0  0
    4.1180    2.5764    0.7281 H   0  0  0  0  0  0  0  0  0  0  0  0
  1  2  1  0
  2  3  2  0
  3  4  1  0
  4  5  2  0
  5  6  1  0
  6  7  1  0
  7  8  1  0
  8  9  2  0
  9 10  1  0
 10 11  2  0
 11 12  1  0
 12 13  1  0
 13 14  1  0
 14 15  1  0
 15 16  2  0
 15 17  1  0
 17 18  1  0
 18 19  1  0
 18 20  1  0
 18 21  1  0
 11 22  1  0
  5 23  1  0
 23 24  2  0
 24  2  1  0
 22  8  1  0
  1 25  1  0
  1 26  1  0
  1 27  1  0
  3 28  1  0
  4 29  1  0
  6 30  1  0
  6 31  1  0
 12 32  1  0
 12 33  1  0
 13 34  1  0
 13 35  1  0
 14 36  1  0
 19 37  1  0
 19 38  1  0
 19 39  1  0
 20 40  1  0
 20 41  1  0
 20 42  1  0
 21 43  1  0
 21 44  1  0
 21 45  1  0
 23 46  1  0
 24 47  1  0
M  END
$$$$
