
     RDKit          3D

 42 44  0  0  0  0  0  0  0  0999 V2000
    1.8199    2.1913    2.3531 C   0  0  0  0  0  0  0  0  0  0  0  0
    2.1020    1.7928    1.0183 O   0  0  0  0  0  0  0  0  0  0  0  0
    1.1079    1.1664    0.3148 C   0  0  0  0  0  0  0  0  0  0  0  0
   -0.1947    0.9422    0.7891 C   0  0  0  0  0  0  0  0  0  0  0  0
   -1.1909    0.2816    0.0340 C   0  0  0  0  0  0  0  0  0  0  0  0
   -2.4582    0.1090    0.5684 N   0  0  0  0  0  0  0  0  0  0  0  0
   -2.9726    0.9319    1.6676 C   0  0  0  0  0  0  0  0  0  0  0  0
   -4.4916    0.8357    1.5450 C   0  0  0  0  0  0  0  0  0  0  0  0
   -4.7009   -0.5174    0.8939 C   0  0  0  0  0  0  0  0  0  0  0  0
   -3.5525   -0.5850   -0.1093 C   0  0  0  0  0  0  0  0  0  0  0  0
   -0.7794   -0.1950   -1.2295 C   0  0  0  0  0  0  0  0  0  0  0  0
   -1.6542   -0.8708   -2.0508 O   0  0  0  0  0  0  0  0  0  0  0  0
   -1.2296   -2.2209   -2.2513 C   0  0  0  0  0  0  0  0  0  0  0  0
    0.5072    0.0587   -1.7328 C   0  0  0  0  0  0  0  0  0  0  0  0
    1.4609    0.7369   -0.9686 C   0  0  0  0  0  0  0  0  0  0  0  0
    2.8490    0.9518   -1.5224 C   0  0  0  0  0  0  0  0  0  0  0  0
    3.8481    0.0203   -0.9310 C   0  0  0  0  0  0  0  0  0  0  0  0
    4.8451    0.3067   -0.1484 N   0  0  0  0  0  0  0  0  0  0  0  0
    5.4551   -0.8959    0.1433 C   0  0  0  0  0  0  0  0  0  0  0  0
    6.7956   -1.1370    1.0967 S   0  0  0  0  0  0  0  0  0  0  0  0
    4.8206   -1.9304   -0.4648 N   0  0  0  0  0  0  0  0  0  0  0  0
    3.8059   -1.4601   -1.2111 C   0  0  0  0  0  0  0  0  0  0  0  0
    3.0589   -2.0277   -1.9721 O   0  0  0  0  0  0  0  0  0  0  0  0
    1.0318    2.9509    2.3790 H   0  0  0  0  0  0  0  0  0  0  0  0
    1.5622    1.3293    2.9772 H   0  0  0  0  0  0  0  0  0  0  0  0
    2.7281    2.6406    2.7662 H   0  0  0  0  0  0  0  0  0  0  0  0
   -0.4519    1.2770    1.7871 H   0  0  0  0  0  0  0  0  0  0  0  0
   -2.6385    0.5192    2.6263 H   0  0  0  0  0  0  0  0  0  0  0  0
   -2.6646    1.9812    1.5977 H   0  0  0  0  0  0  0  0  0  0  0  0
   -4.9960    0.9282    2.5108 H   0  0  0  0  0  0  0  0  0  0  0  0
   -4.8656    1.6291    0.8865 H   0  0  0  0  0  0  0  0  0  0  0  0
   -4.5991   -1.3137    1.6411 H   0  0  0  0  0  0  0  0  0  0  0  0
   -5.6801   -0.6150    0.4171 H   0  0  0  0  0  0  0  0  0  0  0  0
   -3.8348   -0.0605   -1.0295 H   0  0  0  0  0  0  0  0  0  0  0  0
   -3.3161   -1.6310   -0.3260 H   0  0  0  0  0  0  0  0  0  0  0  0
   -2.0866   -2.7854   -2.6311 H   0  0  0  0  0  0  0  0  0  0  0  0
   -0.4356   -2.2725   -3.0029 H   0  0  0  0  0  0  0  0  0  0  0  0
   -0.9048   -2.6904   -1.3154 H   0  0  0  0  0  0  0  0  0  0  0  0
    0.7614   -0.2835   -2.7335 H   0  0  0  0  0  0  0  0  0  0  0  0
    3.1655    1.9864   -1.3450 H   0  0  0  0  0  0  0  0  0  0  0  0
    2.8556    0.8153   -2.6104 H   0  0  0  0  0  0  0  0  0  0  0  0
    5.1175   -2.8905   -0.4274 H   0  0  0  0  0  0  0  0  0  0  0  0
  1  2  1  0
  2  3  1  0
  3  4  2  0
  4  5  1  0
  5  6  1  0
  6  7  1  0
  7  8  1  0
  8  9  1  0
  9 10  1  0
  5 11  2  0
 11 12  1  0
 12 13  1  0
 11 14  1  0
 14 15  2  0
 15 16  1  0
 16 17  1  0
 17 18  2  0
 18 19  1  0
 19 20  2  0
 19 21  1  0
 21 22  1  0
 22 23  2  0
 15  3  1  0
 22 17  1  0
 10  6  1  0
  1 24  1  0
  1 25  1  0
  1 26  1  0
  4 27  1  0
  7 28  1  0
  7 29  1  0
  8 30  1  0
  8 31  1  0
  9 32  1  0
  9 33  1  0
 10 34  1  0
 10 35  1  0
 13 36  1  0
 13 37  1  0
 13 38  1  0
 14 39  1  0
 16 40  1  0
 16 41  1  0
 21 42  1  0
M  END
$$$$
