
     RDKit          3D

 50 52  0  0  0  0  0  0  0  0999 V2000
    7.7495    0.2012   -1.0455 C   0  0  0  0  0  0  0  0  0  0  0  0
    6.2546    0.3506   -1.0341 C   0  0  0  0  0  0  0  0  0  0  0  0
    5.5729    0.6808   -2.2142 C   0  0  0  0  0  0  0  0  0  0  0  0
    4.1792    0.7957   -2.2372 C   0  0  0  0  0  0  0  0  0  0  0  0
    3.3570    1.2080   -3.6859 Cl  0  0  0  0  0  0  0  0  0  0  0  0
    3.4979    0.5583   -1.0442 C   0  0  0  0  0  0  0  0  0  0  0  0
    2.1503    0.6180   -0.8600 O   0  0  0  0  0  0  0  0  0  0  0  0
    1.8971    0.3131    0.4512 C   0  0  0  0  0  0  0  0  0  0  0  0
    0.5191    0.3039    0.9059 C   0  0  0  0  0  0  0  0  0  0  0  0
    0.1804    0.0294    2.0535 O   0  0  0  0  0  0  0  0  0  0  0  0
   -0.3900    0.6267   -0.0789 N   0  0  0  0  0  0  0  0  0  0  0  0
   -1.8255    0.6365    0.1310 C   0  0  0  0  0  0  0  0  0  0  0  0
   -2.5630   -0.6589   -0.3493 C   0  0  0  0  0  0  0  0  0  0  0  0
   -2.2675   -0.9044   -1.8515 C   0  0  0  0  0  0  0  0  0  0  0  0
   -2.0061   -1.8937    0.4035 C   0  0  0  0  0  0  0  0  0  0  0  0
   -4.0430   -0.5839   -0.1734 N   0  0  0  0  0  0  0  0  0  0  0  0
   -4.5272   -0.7394    1.2149 C   0  0  0  0  0  0  0  0  0  0  0  0
   -6.0131   -0.3657    1.3449 C   0  0  0  0  0  0  0  0  0  0  0  0
   -6.2733    1.0105    1.0436 O   0  0  0  0  0  0  0  0  0  0  0  0
   -5.3326    1.5693    0.1210 C   0  0  0  0  0  0  0  0  0  0  0  0
   -4.7358    0.5339   -0.8484 C   0  0  0  0  0  0  0  0  0  0  0  0
    3.0889    0.0544    1.1160 C   0  0  0  0  0  0  0  0  0  0  0  0
    3.2356   -0.3145    2.5476 C   0  0  0  0  0  0  0  0  0  0  0  0
    4.1274    0.2152    0.1464 C   0  0  0  0  0  0  0  0  0  0  0  0
    5.5329    0.1031    0.1498 C   0  0  0  0  0  0  0  0  0  0  0  0
    8.0201   -0.8246   -1.3135 H   0  0  0  0  0  0  0  0  0  0  0  0
    8.1732    0.4343   -0.0630 H   0  0  0  0  0  0  0  0  0  0  0  0
    8.2045    0.8887   -1.7663 H   0  0  0  0  0  0  0  0  0  0  0  0
    6.1336    0.8526   -3.1314 H   0  0  0  0  0  0  0  0  0  0  0  0
   -0.0166    0.8157   -1.0033 H   0  0  0  0  0  0  0  0  0  0  0  0
   -2.1910    1.5123   -0.4156 H   0  0  0  0  0  0  0  0  0  0  0  0
   -2.0206    0.8149    1.1939 H   0  0  0  0  0  0  0  0  0  0  0  0
   -2.8520   -1.7493   -2.2356 H   0  0  0  0  0  0  0  0  0  0  0  0
   -2.4920   -0.0312   -2.4718 H   0  0  0  0  0  0  0  0  0  0  0  0
   -1.2110   -1.1462   -2.0173 H   0  0  0  0  0  0  0  0  0  0  0  0
   -2.0459   -1.7635    1.4904 H   0  0  0  0  0  0  0  0  0  0  0  0
   -0.9602   -2.0892    0.1406 H   0  0  0  0  0  0  0  0  0  0  0  0
   -2.5688   -2.7999    0.1482 H   0  0  0  0  0  0  0  0  0  0  0  0
   -4.4107   -1.7801    1.5349 H   0  0  0  0  0  0  0  0  0  0  0  0
   -3.9535   -0.1019    1.8972 H   0  0  0  0  0  0  0  0  0  0  0  0
   -6.3577   -0.5470    2.3682 H   0  0  0  0  0  0  0  0  0  0  0  0
   -6.6294   -0.9839    0.6813 H   0  0  0  0  0  0  0  0  0  0  0  0
   -4.5407    2.0604    0.6982 H   0  0  0  0  0  0  0  0  0  0  0  0
   -5.8530    2.3511   -0.4418 H   0  0  0  0  0  0  0  0  0  0  0  0
   -5.5590    0.0905   -1.4229 H   0  0  0  0  0  0  0  0  0  0  0  0
   -4.1054    1.0532   -1.5753 H   0  0  0  0  0  0  0  0  0  0  0  0
    2.7057   -1.2491    2.7583 H   0  0  0  0  0  0  0  0  0  0  0  0
    4.2852   -0.4559    2.8220 H   0  0  0  0  0  0  0  0  0  0  0  0
    2.8251    0.4713    3.1898 H   0  0  0  0  0  0  0  0  0  0  0  0
    6.0542   -0.1713    1.0636 H   0  0  0  0  0  0  0  0  0  0  0  0
  1  2  1  0
  2  3  2  0
  3  4  1  0
  4  5  1  0
  4  6  2  0
  6  7  1  0
  7  8  1  0
  8  9  1  0
  9 10  2  0
  9 11  1  0
 11 12  1  0
 12 13  1  0
 13 14  1  0
 13 15  1  0
 13 16  1  0
 16 17  1  0
 17 18  1  0
 18 19  1  0
 19 20  1  0
 20 21  1  0
  8 22  2  0
 22 23  1  0
 22 24  1  0
 24 25  2  0
 25  2  1  0
 24  6  1  0
 21 16  1  0
  1 26  1  0
  1 27  1  0
  1 28  1  0
  3 29  1  0
 11 30  1  0
 12 31  1  0
 12 32  1  0
 14 33  1  0
 14 34  1  0
 14 35  1  0
 15 36  1  0
 15 37  1  0
 15 38  1  0
 17 39  1  0
 17 40  1  0
 18 41  1  0
 18 42  1  0
 20 43  1  0
 20 44  1  0
 21 45  1  0
 21 46  1  0
 23 47  1  0
 23 48  1  0
 23 49  1  0
 25 50  1  0
M  END
$$$$
