
     RDKit          3D

 53 57  0  0  0  0  0  0  0  0999 V2000
    4.5387   -1.2784    0.1779 C   0  0  0  0  0  0  0  0  0  0  0  0
    4.2090   -0.5839    1.4698 C   0  0  0  0  0  0  0  0  0  0  0  0
    5.2523    0.0388    2.1768 C   0  0  0  0  0  0  0  0  0  0  0  0
    5.0153    0.6840    3.3919 C   0  0  0  0  0  0  0  0  0  0  0  0
    3.7323    0.7143    3.9296 C   0  0  0  0  0  0  0  0  0  0  0  0
    2.6818    0.0976    3.2521 C   0  0  0  0  0  0  0  0  0  0  0  0
    2.9138   -0.5476    2.0260 C   0  0  0  0  0  0  0  0  0  0  0  0
    1.5228   -1.3556    1.2460 S   0  0  0  0  0  6  0  0  0  0  0  0
    1.9780   -2.6520    0.7837 O   0  0  0  0  0  0  0  0  0  0  0  0
    0.3666   -1.2714    2.1192 O   0  0  0  0  0  0  0  0  0  0  0  0
    1.2439   -0.4317   -0.1298 N   0  0  0  0  0  0  0  0  0  0  0  0
    0.4251    0.7061    0.0890 C   0  0  0  0  0  0  0  0  0  0  0  0
    0.9499    1.6918    0.8325 N   0  0  0  0  0  0  0  0  0  0  0  0
    0.1428    2.7473    1.0388 C   0  0  0  0  0  0  0  0  0  0  0  0
    0.6055    3.8097    1.8023 C   0  0  0  0  0  0  0  0  0  0  0  0
   -0.1910    4.9286    2.0501 C   0  0  0  0  0  0  0  0  0  0  0  0
   -1.4763    4.9850    1.5272 C   0  0  0  0  0  0  0  0  0  0  0  0
   -1.9538    3.9233    0.7572 C   0  0  0  0  0  0  0  0  0  0  0  0
   -1.1705    2.8055    0.4982 C   0  0  0  0  0  0  0  0  0  0  0  0
   -1.6712    1.8096   -0.2618 N   0  0  0  0  0  0  0  0  0  0  0  0
   -0.8692    0.7450   -0.4678 C   0  0  0  0  0  0  0  0  0  0  0  0
   -1.2835   -0.3435   -1.2869 N   0  0  0  0  0  0  0  0  0  0  0  0
   -1.4967    0.1347   -2.6665 C   0  0  0  0  0  0  0  0  0  0  0  0
   -1.6785   -1.0860   -3.5753 C   0  0  0  0  0  0  0  0  0  0  0  0
   -2.6962   -2.0616   -3.0136 C   0  0  0  0  0  0  0  0  0  0  0  0
   -3.2302   -3.0607   -3.8399 C   0  0  0  0  0  0  0  0  0  0  0  0
   -4.1515   -3.9821   -3.3304 C   0  0  0  0  0  0  0  0  0  0  0  0
   -4.5448   -3.9140   -1.9928 C   0  0  0  0  0  0  0  0  0  0  0  0
   -4.0060   -2.9347   -1.1575 C   0  0  0  0  0  0  0  0  0  0  0  0
   -3.0660   -2.0080   -1.6507 C   0  0  0  0  0  0  0  0  0  0  0  0
   -2.5205   -0.9313   -0.7281 C   0  0  0  0  0  0  0  0  0  0  0  0
    5.5485   -1.0125   -0.1676 H   0  0  0  0  0  0  0  0  0  0  0  0
    3.8496   -0.9815   -0.6236 H   0  0  0  0  0  0  0  0  0  0  0  0
    4.5120   -2.3672    0.3172 H   0  0  0  0  0  0  0  0  0  0  0  0
    6.2663    0.0234    1.7822 H   0  0  0  0  0  0  0  0  0  0  0  0
    5.8383    1.1577    3.9218 H   0  0  0  0  0  0  0  0  0  0  0  0
    3.5477    1.2136    4.8776 H   0  0  0  0  0  0  0  0  0  0  0  0
    1.6823    0.1260    3.6844 H   0  0  0  0  0  0  0  0  0  0  0  0
    0.8547   -1.0343   -0.8592 H   0  0  0  0  0  0  0  0  0  0  0  0
    1.6118    3.7646    2.2135 H   0  0  0  0  0  0  0  0  0  0  0  0
    0.1938    5.7495    2.6496 H   0  0  0  0  0  0  0  0  0  0  0  0
   -2.1072    5.8513    1.7129 H   0  0  0  0  0  0  0  0  0  0  0  0
   -2.9612    3.9677    0.3498 H   0  0  0  0  0  0  0  0  0  0  0  0
   -0.6331    0.7108   -3.0240 H   0  0  0  0  0  0  0  0  0  0  0  0
   -2.3845    0.7824   -2.7289 H   0  0  0  0  0  0  0  0  0  0  0  0
   -1.9866   -0.7434   -4.5755 H   0  0  0  0  0  0  0  0  0  0  0  0
   -0.7180   -1.6185   -3.6709 H   0  0  0  0  0  0  0  0  0  0  0  0
   -2.9277   -3.1301   -4.8854 H   0  0  0  0  0  0  0  0  0  0  0  0
   -4.5657   -4.7508   -3.9773 H   0  0  0  0  0  0  0  0  0  0  0  0
   -5.2662   -4.6319   -1.6001 H   0  0  0  0  0  0  0  0  0  0  0  0
   -4.3226   -2.8973   -0.1151 H   0  0  0  0  0  0  0  0  0  0  0  0
   -2.2949   -1.3807    0.2492 H   0  0  0  0  0  0  0  0  0  0  0  0
   -3.3094   -0.1777   -0.5980 H   0  0  0  0  0  0  0  0  0  0  0  0
  1  2  1  0
  2  3  2  0
  3  4  1  0
  4  5  2  0
  5  6  1  0
  6  7  2  0
  7  8  1  0
  8  9  2  0
  8 10  2  0
  8 11  1  0
 11 12  1  0
 12 13  2  0
 13 14  1  0
 14 15  2  0
 15 16  1  0
 16 17  2  0
 17 18  1  0
 18 19  2  0
 19 20  1  0
 20 21  2  0
 21 22  1  0
 22 23  1  0
 23 24  1  0
 24 25  1  0
 25 26  2  0
 26 27  1  0
 27 28  2  0
 28 29  1  0
 29 30  2  0
 30 31  1  0
  7  2  1  0
 21 12  1  0
 31 22  1  0
 19 14  1  0
 30 25  1  0
  1 32  1  0
  1 33  1  0
  1 34  1  0
  3 35  1  0
  4 36  1  0
  5 37  1  0
  6 38  1  0
 11 39  1  0
 15 40  1  0
 16 41  1  0
 17 42  1  0
 18 43  1  0
 23 44  1  0
 23 45  1  0
 24 46  1  0
 24 47  1  0
 26 48  1  0
 27 49  1  0
 28 50  1  0
 29 51  1  0
 31 52  1  0
 31 53  1  0
M  END
$$$$
