
     RDKit          3D

 57 60  0  0  0  0  0  0  0  0999 V2000
    3.8482    0.8759   -3.1887 O   0  0  0  0  0  0  0  0  0  0  0  0
    4.1015    0.0806   -2.0080 S   0  0  0  0  0  6  0  0  0  0  0  0
    4.4985   -1.3066   -2.0915 O   0  0  0  0  0  0  0  0  0  0  0  0
    5.2477    0.9101   -1.1134 N   0  0  0  0  0  0  0  0  0  0  0  0
    5.9368    0.2412   -0.0054 C   0  0  0  0  0  0  0  0  0  0  0  0
    7.2636   -0.3464   -0.4695 C   0  0  0  0  0  0  0  0  0  0  0  0
    8.2356    0.8309   -0.4854 C   0  0  0  0  0  0  0  0  0  0  0  0
    7.6648    1.8698    0.4786 C   0  0  0  0  0  0  0  0  0  0  0  0
    6.3696    1.2764    1.0273 C   0  0  0  0  0  0  0  0  0  0  0  0
    2.6677    0.2050   -0.9667 C   0  0  0  0  0  0  0  0  0  0  0  0
    2.2109   -0.9197   -0.2708 C   0  0  0  0  0  0  0  0  0  0  0  0
    1.0771   -0.8134    0.5349 C   0  0  0  0  0  0  0  0  0  0  0  0
    0.4075    0.4130    0.6262 C   0  0  0  0  0  0  0  0  0  0  0  0
   -1.0356    0.5253    1.6574 S   0  0  0  0  0  6  0  0  0  0  0  0
   -0.6623    0.0242    2.9621 O   0  0  0  0  0  0  0  0  0  0  0  0
   -1.6211    1.8386    1.4883 O   0  0  0  0  0  0  0  0  0  0  0  0
   -2.0947   -0.5971    0.9353 N   0  0  0  0  0  0  0  0  0  0  0  0
   -2.5854   -0.2307   -0.4367 C   0  0  0  0  0  0  0  0  0  0  0  0
   -4.0395    0.2765   -0.4356 C   0  0  0  0  0  0  0  0  0  0  0  0
   -4.9486   -0.7452    0.1076 N   0  0  0  0  0  0  0  0  0  0  0  0
   -6.2882   -0.7893   -0.2408 C   0  0  0  0  0  0  0  0  0  0  0  0
   -6.9508    0.3215   -0.7886 C   0  0  0  0  0  0  0  0  0  0  0  0
   -8.3053    0.2790   -1.1436 C   0  0  0  0  0  0  0  0  0  0  0  0
   -9.0374   -0.8872   -0.9611 C   0  0  0  0  0  0  0  0  0  0  0  0
   -8.4127   -2.0056   -0.4244 C   0  0  0  0  0  0  0  0  0  0  0  0
   -7.0584   -1.9520   -0.0709 C   0  0  0  0  0  0  0  0  0  0  0  0
   -4.3817   -1.6683    1.1048 C   0  0  0  0  0  0  0  0  0  0  0  0
   -3.2044   -1.0202    1.8560 C   0  0  0  0  0  0  0  0  0  0  0  0
    0.8608    1.5370   -0.0724 C   0  0  0  0  0  0  0  0  0  0  0  0
    1.9949    1.4301   -0.8783 C   0  0  0  0  0  0  0  0  0  0  0  0
    5.7207    1.6494   -1.6307 H   0  0  0  0  0  0  0  0  0  0  0  0
    5.2889   -0.5118    0.4532 H   0  0  0  0  0  0  0  0  0  0  0  0
    7.2099   -0.8381   -1.4457 H   0  0  0  0  0  0  0  0  0  0  0  0
    7.6106   -1.0885    0.2600 H   0  0  0  0  0  0  0  0  0  0  0  0
    8.3033    1.2569   -1.4932 H   0  0  0  0  0  0  0  0  0  0  0  0
    9.2438    0.5176   -0.1957 H   0  0  0  0  0  0  0  0  0  0  0  0
    8.3665    2.1045    1.2855 H   0  0  0  0  0  0  0  0  0  0  0  0
    7.4610    2.8034   -0.0583 H   0  0  0  0  0  0  0  0  0  0  0  0
    5.6145    2.0473    1.2120 H   0  0  0  0  0  0  0  0  0  0  0  0
    6.5796    0.7774    1.9815 H   0  0  0  0  0  0  0  0  0  0  0  0
    2.7296   -1.8731   -0.3495 H   0  0  0  0  0  0  0  0  0  0  0  0
    0.7170   -1.6798    1.0866 H   0  0  0  0  0  0  0  0  0  0  0  0
   -1.9402    0.5211   -0.9016 H   0  0  0  0  0  0  0  0  0  0  0  0
   -2.5035   -1.1317   -1.0577 H   0  0  0  0  0  0  0  0  0  0  0  0
   -4.1217    1.1927    0.1607 H   0  0  0  0  0  0  0  0  0  0  0  0
   -4.3015    0.5166   -1.4730 H   0  0  0  0  0  0  0  0  0  0  0  0
   -6.4280    1.2633   -0.9289 H   0  0  0  0  0  0  0  0  0  0  0  0
   -8.7830    1.1629   -1.5574 H   0  0  0  0  0  0  0  0  0  0  0  0
  -10.0877   -0.9240   -1.2357 H   0  0  0  0  0  0  0  0  0  0  0  0
   -8.9721   -2.9263   -0.2824 H   0  0  0  0  0  0  0  0  0  0  0  0
   -6.6080   -2.8594    0.3212 H   0  0  0  0  0  0  0  0  0  0  0  0
   -5.1318   -1.9486    1.8539 H   0  0  0  0  0  0  0  0  0  0  0  0
   -4.0459   -2.5813    0.5986 H   0  0  0  0  0  0  0  0  0  0  0  0
   -2.7992   -1.7415    2.5741 H   0  0  0  0  0  0  0  0  0  0  0  0
   -3.5751   -0.1496    2.4116 H   0  0  0  0  0  0  0  0  0  0  0  0
    0.3413    2.4899    0.0048 H   0  0  0  0  0  0  0  0  0  0  0  0
    2.3517    2.2970   -1.4311 H   0  0  0  0  0  0  0  0  0  0  0  0
  1  2  2  0
  2  3  2  0
  2  4  1  0
  4  5  1  0
  5  6  1  0
  6  7  1  0
  7  8  1  0
  8  9  1  0
  2 10  1  0
 10 11  2  0
 11 12  1  0
 12 13  2  0
 13 14  1  0
 14 15  2  0
 14 16  2  0
 14 17  1  0
 17 18  1  0
 18 19  1  0
 19 20  1  0
 20 21  1  0
 21 22  2  0
 22 23  1  0
 23 24  2  0
 24 25  1  0
 25 26  2  0
 20 27  1  0
 27 28  1  0
 13 29  1  0
 29 30  2  0
  9  5  1  0
 30 10  1  0
 28 17  1  0
 26 21  1  0
  4 31  1  0
  5 32  1  0
  6 33  1  0
  6 34  1  0
  7 35  1  0
  7 36  1  0
  8 37  1  0
  8 38  1  0
  9 39  1  0
  9 40  1  0
 11 41  1  0
 12 42  1  0
 18 43  1  0
 18 44  1  0
 19 45  1  0
 19 46  1  0
 22 47  1  0
 23 48  1  0
 24 49  1  0
 25 50  1  0
 26 51  1  0
 27 52  1  0
 27 53  1  0
 28 54  1  0
 28 55  1  0
 29 56  1  0
 30 57  1  0
M  END
$$$$
