
     RDKit          3D

 59 62  0  0  0  0  0  0  0  0999 V2000
   -6.7003    2.0609   -0.4312 C   0  0  0  0  0  0  0  0  0  0  0  0
   -5.6806    1.9169    0.6852 C   0  0  0  0  0  0  0  0  0  0  0  0
   -5.5411    0.5456    1.1364 N   0  0  0  0  0  0  0  0  0  0  0  0
   -4.5971   -0.3845    0.7425 C   0  0  0  0  0  0  0  0  0  0  0  0
   -3.5825   -0.1445   -0.2750 C   0  0  0  0  0  0  0  0  0  0  0  0
   -3.8328    0.5156   -1.2829 O   0  0  0  0  0  0  0  0  0  0  0  0
   -2.3120   -0.6968   -0.0676 N   0  0  0  0  0  0  0  0  0  0  0  0
   -1.7083   -0.7840    1.2575 C   0  0  0  0  0  0  0  0  0  0  0  0
   -1.0001    0.5310    1.6000 C   0  0  0  0  0  0  0  0  0  0  0  0
   -0.6387    1.3712    0.3659 C   0  0  0  0  0  0  0  0  0  0  0  0
   -0.2741    0.5161   -0.8593 C   0  0  0  0  0  0  0  0  0  0  0  0
    1.1267   -0.0668   -0.6850 C   0  0  0  0  0  0  0  0  0  0  0  0
    1.3470   -1.2495   -0.4472 O   0  0  0  0  0  0  0  0  0  0  0  0
    2.1334    0.8721   -0.7846 N   0  0  0  0  0  0  0  0  0  0  0  0
    3.5329    0.5051   -0.6618 C   0  0  0  0  0  0  0  0  0  0  0  0
    4.0832   -0.1175   -1.9468 C   0  0  0  0  0  0  0  0  0  0  0  0
    5.5483   -0.4502   -1.8204 C   0  0  0  0  0  0  0  0  0  0  0  0
    6.5266    0.4549   -2.2484 C   0  0  0  0  0  0  0  0  0  0  0  0
    7.8827    0.1498   -2.1086 C   0  0  0  0  0  0  0  0  0  0  0  0
    8.2831   -1.0670   -1.5452 C   0  0  0  0  0  0  0  0  0  0  0  0
    9.7391   -1.3788   -1.3655 C   0  0  0  0  0  0  0  0  0  0  0  0
    7.3055   -1.9634   -1.1003 C   0  0  0  0  0  0  0  0  0  0  0  0
    5.9495   -1.6596   -1.2398 C   0  0  0  0  0  0  0  0  0  0  0  0
   -1.3217   -0.5803   -1.1396 C   0  0  0  0  0  0  0  0  0  0  0  0
   -4.8598   -1.5697    1.4203 C   0  0  0  0  0  0  0  0  0  0  0  0
   -5.9607   -1.3126    2.2800 C   0  0  0  0  0  0  0  0  0  0  0  0
   -6.9254   -2.1366    3.4577 S   0  0  0  0  0  0  0  0  0  0  0  0
   -7.8594   -0.7102    3.6841 C   0  0  0  0  0  0  0  0  0  0  0  0
   -7.4658    0.3536    2.9003 C   0  0  0  0  0  0  0  0  0  0  0  0
   -6.3570   -0.0235    2.0920 C   0  0  0  0  0  0  0  0  0  0  0  0
   -6.7641    3.1047   -0.7537 H   0  0  0  0  0  0  0  0  0  0  0  0
   -7.6958    1.7462   -0.1009 H   0  0  0  0  0  0  0  0  0  0  0  0
   -6.4311    1.4508   -1.2993 H   0  0  0  0  0  0  0  0  0  0  0  0
   -5.9729    2.5246    1.5491 H   0  0  0  0  0  0  0  0  0  0  0  0
   -4.6984    2.2788    0.3658 H   0  0  0  0  0  0  0  0  0  0  0  0
   -0.9883   -1.6107    1.2387 H   0  0  0  0  0  0  0  0  0  0  0  0
   -2.4318   -1.0147    2.0406 H   0  0  0  0  0  0  0  0  0  0  0  0
   -1.6426    1.1360    2.2518 H   0  0  0  0  0  0  0  0  0  0  0  0
   -0.0991    0.3076    2.1837 H   0  0  0  0  0  0  0  0  0  0  0  0
   -1.5043    1.9945    0.1046 H   0  0  0  0  0  0  0  0  0  0  0  0
    0.1638    2.0699    0.6288 H   0  0  0  0  0  0  0  0  0  0  0  0
   -0.2263    1.1663   -1.7437 H   0  0  0  0  0  0  0  0  0  0  0  0
    1.9085    1.8126   -1.0827 H   0  0  0  0  0  0  0  0  0  0  0  0
    3.6378   -0.1898    0.1797 H   0  0  0  0  0  0  0  0  0  0  0  0
    4.0805    1.4197   -0.4081 H   0  0  0  0  0  0  0  0  0  0  0  0
    3.9304    0.5686   -2.7900 H   0  0  0  0  0  0  0  0  0  0  0  0
    3.5251   -1.0263   -2.2056 H   0  0  0  0  0  0  0  0  0  0  0  0
    6.2417    1.4052   -2.6937 H   0  0  0  0  0  0  0  0  0  0  0  0
    8.6265    0.8689   -2.4443 H   0  0  0  0  0  0  0  0  0  0  0  0
    9.9148   -2.4592   -1.3981 H   0  0  0  0  0  0  0  0  0  0  0  0
   10.3359   -0.9290   -2.1659 H   0  0  0  0  0  0  0  0  0  0  0  0
   10.0884   -0.9927   -0.4030 H   0  0  0  0  0  0  0  0  0  0  0  0
    7.5927   -2.9071   -0.6418 H   0  0  0  0  0  0  0  0  0  0  0  0
    5.2058   -2.3734   -0.8898 H   0  0  0  0  0  0  0  0  0  0  0  0
   -0.8725   -1.5718   -1.2631 H   0  0  0  0  0  0  0  0  0  0  0  0
   -1.8237   -0.3668   -2.0903 H   0  0  0  0  0  0  0  0  0  0  0  0
   -4.3270   -2.5046    1.3073 H   0  0  0  0  0  0  0  0  0  0  0  0
   -8.6719   -0.7302    4.3976 H   0  0  0  0  0  0  0  0  0  0  0  0
   -7.9427    1.3248    2.9085 H   0  0  0  0  0  0  0  0  0  0  0  0
  1  2  1  0
  2  3  1  0
  3  4  1  0
  4  5  1  0
  5  6  2  0
  5  7  1  0
  7  8  1  0
  8  9  1  0
  9 10  1  0
 10 11  1  0
 11 12  1  0
 12 13  2  0
 12 14  1  0
 14 15  1  0
 15 16  1  0
 16 17  1  0
 17 18  2  0
 18 19  1  0
 19 20  2  0
 20 21  1  0
 20 22  1  0
 22 23  2  0
 11 24  1  0
  4 25  2  0
 25 26  1  0
 26 27  1  0
 27 28  1  0
 28 29  2  0
 29 30  1  0
 30  3  1  0
 24  7  1  0
 30 26  2  0
 23 17  1  0
  1 31  1  0
  1 32  1  0
  1 33  1  0
  2 34  1  0
  2 35  1  0
  8 36  1  0
  8 37  1  0
  9 38  1  0
  9 39  1  0
 10 40  1  0
 10 41  1  0
 11 42  1  0
 14 43  1  0
 15 44  1  0
 15 45  1  0
 16 46  1  0
 16 47  1  0
 18 48  1  0
 19 49  1  0
 21 50  1  0
 21 51  1  0
 21 52  1  0
 22 53  1  0
 23 54  1  0
 24 55  1  0
 24 56  1  0
 25 57  1  0
 28 58  1  0
 29 59  1  0
M  END
$$$$
