
     RDKit          3D

 39 40  0  0  0  0  0  0  0  0999 V2000
   -4.0452   -0.9412   -0.3528 C   0  0  0  0  0  0  0  0  0  0  0  0
   -2.5364   -0.9220   -0.5377 C   0  0  0  0  0  0  0  0  0  0  0  0
   -1.9181    0.3156   -0.0503 N   0  0  0  0  0  0  0  0  0  0  0  0
   -1.6486    1.3639   -1.0390 C   0  0  0  0  0  0  0  0  0  0  0  0
   -2.7737    2.3821   -1.1348 C   0  0  0  0  0  0  0  0  0  0  0  0
   -1.6280    0.5901    1.2832 C   0  0  0  0  0  0  0  0  0  0  0  0
   -1.0944    1.6577    1.6121 O   0  0  0  0  0  0  0  0  0  0  0  0
   -1.9233   -0.4643    2.3494 C   0  0  0  0  0  0  0  0  0  0  0  0
   -0.3970   -0.8952    3.2521 S   0  0  0  0  0  0  0  0  0  0  0  0
    0.6052   -1.3150    1.9053 C   0  0  0  0  0  0  0  0  0  0  0  0
    0.5005   -2.3933    1.1707 N   0  0  0  0  0  0  0  0  0  0  0  0
    1.4179   -2.2764    0.1521 N   0  0  0  0  0  0  0  0  0  0  0  0
    2.0701   -1.1256    0.2795 C   0  0  0  0  0  0  0  0  0  0  0  0
    3.1066   -0.6489   -0.6443 C   0  0  0  0  0  0  0  0  0  0  0  0
    4.0631    0.3077   -0.2995 C   0  0  0  0  0  0  0  0  0  0  0  0
    5.0045    0.6853   -1.2454 C   0  0  0  0  0  0  0  0  0  0  0  0
    5.0637    0.1775   -2.4933 N   0  0  0  0  0  0  0  0  0  0  0  0
    4.1451   -0.7574   -2.8073 C   0  0  0  0  0  0  0  0  0  0  0  0
    3.1655   -1.1960   -1.9317 C   0  0  0  0  0  0  0  0  0  0  0  0
    1.5602   -0.4730    1.3892 N   0  0  0  0  0  0  0  0  0  0  0  0
    1.8506    0.8666    1.8488 N   0  0  0  0  0  0  0  0  0  0  0  0
   -4.4521   -1.9027   -0.6807 H   0  0  0  0  0  0  0  0  0  0  0  0
   -4.3275   -0.7893    0.6932 H   0  0  0  0  0  0  0  0  0  0  0  0
   -4.5262   -0.1564   -0.9428 H   0  0  0  0  0  0  0  0  0  0  0  0
   -2.0867   -1.7742   -0.0209 H   0  0  0  0  0  0  0  0  0  0  0  0
   -2.2917   -1.0517   -1.5977 H   0  0  0  0  0  0  0  0  0  0  0  0
   -1.4647    0.9044   -2.0163 H   0  0  0  0  0  0  0  0  0  0  0  0
   -0.7232    1.8822   -0.7612 H   0  0  0  0  0  0  0  0  0  0  0  0
   -2.5098    3.1702   -1.8469 H   0  0  0  0  0  0  0  0  0  0  0  0
   -3.7024    1.9172   -1.4775 H   0  0  0  0  0  0  0  0  0  0  0  0
   -2.9719    2.8498   -0.1653 H   0  0  0  0  0  0  0  0  0  0  0  0
   -2.6385   -0.0302    3.0555 H   0  0  0  0  0  0  0  0  0  0  0  0
   -2.3690   -1.3791    1.9647 H   0  0  0  0  0  0  0  0  0  0  0  0
    4.1043    0.7584    0.6850 H   0  0  0  0  0  0  0  0  0  0  0  0
    5.7626    1.4279   -1.0113 H   0  0  0  0  0  0  0  0  0  0  0  0
    4.2177   -1.1613   -3.8128 H   0  0  0  0  0  0  0  0  0  0  0  0
    2.4593   -1.9569   -2.2522 H   0  0  0  0  0  0  0  0  0  0  0  0
    1.0483    1.4737    1.6319 H   0  0  0  0  0  0  0  0  0  0  0  0
    1.8832    0.8798    2.8694 H   0  0  0  0  0  0  0  0  0  0  0  0
  1  2  1  0
  2  3  1  0
  3  4  1  0
  4  5  1  0
  3  6  1  0
  6  7  2  0
  6  8  1  0
  8  9  1  0
  9 10  1  0
 10 11  2  0
 11 12  1  0
 12 13  2  0
 13 14  1  0
 14 15  2  0
 15 16  1  0
 16 17  2  0
 17 18  1  0
 18 19  2  0
 13 20  1  0
 20 21  1  0
 20 10  1  0
 19 14  1  0
  1 22  1  0
  1 23  1  0
  1 24  1  0
  2 25  1  0
  2 26  1  0
  4 27  1  0
  4 28  1  0
  5 29  1  0
  5 30  1  0
  5 31  1  0
  8 32  1  0
  8 33  1  0
 15 34  1  0
 16 35  1  0
 18 36  1  0
 19 37  1  0
 21 38  1  0
 21 39  1  0
M  END
$$$$
