
     RDKit          3D

 41 44  0  0  0  0  0  0  0  0999 V2000
    2.9989    1.7798   -1.0698 C   0  0  0  0  0  0  0  0  0  0  0  0
    3.4018    0.6033   -0.2262 C   0  0  0  0  0  0  0  0  0  0  0  0
    4.7178    0.1208   -0.3389 C   0  0  0  0  0  0  0  0  0  0  0  0
    5.1617   -0.9548    0.4334 C   0  0  0  0  0  0  0  0  0  0  0  0
    4.3018   -1.5650    1.3407 C   0  0  0  0  0  0  0  0  0  0  0  0
    2.9958   -1.0988    1.4779 C   0  0  0  0  0  0  0  0  0  0  0  0
    2.5419   -0.0223    0.6979 C   0  0  0  0  0  0  0  0  0  0  0  0
    0.8671    0.5351    0.9622 S   0  0  0  0  0  6  0  0  0  0  0  0
    0.2748   -0.2249    2.0455 O   0  0  0  0  0  0  0  0  0  0  0  0
    0.8915    1.9820    1.0295 O   0  0  0  0  0  0  0  0  0  0  0  0
    0.0735    0.1401   -0.4655 N   0  0  0  0  0  0  0  0  0  0  0  0
   -0.3523   -1.1999   -0.5763 C   0  0  0  0  0  0  0  0  0  0  0  0
    0.6292   -2.0930   -0.7667 N   0  0  0  0  0  0  0  0  0  0  0  0
    0.2855   -3.3847   -0.8477 C   0  0  0  0  0  0  0  0  0  0  0  0
   -0.9407   -3.9060   -0.7575 N   0  0  0  0  0  0  0  0  0  0  0  0
   -1.8857   -2.9727   -0.5516 C   0  0  0  0  0  0  0  0  0  0  0  0
   -3.5221   -3.4200   -0.3975 S   0  0  0  0  0  0  0  0  0  0  0  0
   -4.0066   -1.7953   -0.1811 C   0  0  0  0  0  0  0  0  0  0  0  0
   -2.9365   -0.9227   -0.2260 C   0  0  0  0  0  0  0  0  0  0  0  0
   -3.1475    0.5045   -0.0649 C   0  0  0  0  0  0  0  0  0  0  0  0
   -2.8331    1.1251    1.1483 C   0  0  0  0  0  0  0  0  0  0  0  0
   -2.9806    2.5057    1.2836 C   0  0  0  0  0  0  0  0  0  0  0  0
   -3.4498    3.2662    0.2130 C   0  0  0  0  0  0  0  0  0  0  0  0
   -3.7731    2.6490   -0.9952 C   0  0  0  0  0  0  0  0  0  0  0  0
   -3.6213    1.2690   -1.1369 C   0  0  0  0  0  0  0  0  0  0  0  0
   -1.6854   -1.6047   -0.4450 C   0  0  0  0  0  0  0  0  0  0  0  0
    3.7330    1.9691   -1.8611 H   0  0  0  0  0  0  0  0  0  0  0  0
    2.9364    2.6838   -0.4571 H   0  0  0  0  0  0  0  0  0  0  0  0
    2.0445    1.6024   -1.5720 H   0  0  0  0  0  0  0  0  0  0  0  0
    5.4144    0.5849   -1.0351 H   0  0  0  0  0  0  0  0  0  0  0  0
    6.1830   -1.3125    0.3277 H   0  0  0  0  0  0  0  0  0  0  0  0
    4.6481   -2.3999    1.9444 H   0  0  0  0  0  0  0  0  0  0  0  0
    2.3357   -1.5832    2.1945 H   0  0  0  0  0  0  0  0  0  0  0  0
   -0.5911    0.8682   -0.7173 H   0  0  0  0  0  0  0  0  0  0  0  0
    1.0977   -4.0881   -1.0052 H   0  0  0  0  0  0  0  0  0  0  0  0
   -5.0523   -1.5617   -0.0271 H   0  0  0  0  0  0  0  0  0  0  0  0
   -2.4607    0.5451    1.9915 H   0  0  0  0  0  0  0  0  0  0  0  0
   -2.7229    2.9884    2.2236 H   0  0  0  0  0  0  0  0  0  0  0  0
   -3.5625    4.3423    0.3220 H   0  0  0  0  0  0  0  0  0  0  0  0
   -4.1407    3.2450   -1.8270 H   0  0  0  0  0  0  0  0  0  0  0  0
   -3.8691    0.8004   -2.0868 H   0  0  0  0  0  0  0  0  0  0  0  0
  1  2  1  0
  2  3  2  0
  3  4  1  0
  4  5  2  0
  5  6  1  0
  6  7  2  0
  7  8  1  0
  8  9  2  0
  8 10  2  0
  8 11  1  0
 11 12  1  0
 12 13  2  0
 13 14  1  0
 14 15  2  0
 15 16  1  0
 16 17  1  0
 17 18  1  0
 18 19  2  0
 19 20  1  0
 20 21  2  0
 21 22  1  0
 22 23  2  0
 23 24  1  0
 24 25  2  0
 19 26  1  0
  7  2  1  0
 26 12  1  0
 26 16  2  0
 25 20  1  0
  1 27  1  0
  1 28  1  0
  1 29  1  0
  3 30  1  0
  4 31  1  0
  5 32  1  0
  6 33  1  0
 11 34  1  0
 14 35  1  0
 18 36  1  0
 21 37  1  0
 22 38  1  0
 23 39  1  0
 24 40  1  0
 25 41  1  0
M  END
$$$$
