
     RDKit          3D

 57 60  0  0  0  0  0  0  0  0999 V2000
   -0.7748    1.8093    2.7665 O   0  0  0  0  0  0  0  0  0  0  0  0
   -0.2823    1.8001    1.6440 C   0  0  0  0  0  0  0  0  0  0  0  0
    1.0947    2.3516    1.3300 C   0  0  0  0  0  0  0  0  0  0  0  0
    2.0445    2.3447    2.5274 C   0  0  0  0  0  0  0  0  0  0  0  0
    2.3675    0.9578    3.1010 C   0  0  0  0  0  0  0  0  0  0  0  0
    2.8018   -0.1050    2.0890 C   0  0  0  0  0  0  0  0  0  0  0  0
    4.0537    0.2766    1.2936 C   0  0  0  0  0  0  0  0  0  0  0  0
    4.3898   -0.7501    0.3123 N   0  0  0  0  0  0  0  0  0  0  0  0
    5.2594   -1.7584    0.6972 C   0  0  0  0  0  0  0  0  0  0  0  0
    5.7819   -1.8362    1.8079 O   0  0  0  0  0  0  0  0  0  0  0  0
    5.5368   -2.7188   -0.2333 N   0  0  0  0  0  0  0  0  0  0  0  0
    4.9857   -2.7464   -1.5103 C   0  0  0  0  0  0  0  0  0  0  0  0
    5.3338   -3.7637   -2.3987 C   0  0  0  0  0  0  0  0  0  0  0  0
    4.7718   -3.7857   -3.6774 C   0  0  0  0  0  0  0  0  0  0  0  0
    3.8657   -2.7963   -4.0641 C   0  0  0  0  0  0  0  0  0  0  0  0
    3.5183   -1.7811   -3.1717 C   0  0  0  0  0  0  0  0  0  0  0  0
    4.0832   -1.7608   -1.8924 C   0  0  0  0  0  0  0  0  0  0  0  0
    3.7357   -0.7072   -0.9197 C   0  0  0  0  0  0  0  0  0  0  0  0
    2.8952    0.1378   -1.2254 O   0  0  0  0  0  0  0  0  0  0  0  0
   -0.9421    1.3332    0.5281 N   0  0  0  0  0  0  0  0  0  0  0  0
   -2.2754    0.7652    0.6066 C   0  0  0  0  0  0  0  0  0  0  0  0
   -3.3631    1.8381    0.6971 C   0  0  0  0  0  0  0  0  0  0  0  0
   -4.7383    1.2488    0.6868 C   0  0  0  0  0  0  0  0  0  0  0  0
   -5.4964    0.9289    1.7962 C   0  0  0  0  0  0  0  0  0  0  0  0
   -6.6883    0.4109    1.3692 N   0  0  0  0  0  0  0  0  0  0  0  0
   -6.7289    0.3801   -0.0050 C   0  0  0  0  0  0  0  0  0  0  0  0
   -7.7372   -0.0665   -0.8677 C   0  0  0  0  0  0  0  0  0  0  0  0
   -7.5013    0.0248   -2.2426 C   0  0  0  0  0  0  0  0  0  0  0  0
   -6.3049    0.5431   -2.7319 C   0  0  0  0  0  0  0  0  0  0  0  0
   -5.3072    0.9847   -1.8549 C   0  0  0  0  0  0  0  0  0  0  0  0
   -5.5192    0.9033   -0.4631 C   0  0  0  0  0  0  0  0  0  0  0  0
    0.9539    3.3868    0.9953 H   0  0  0  0  0  0  0  0  0  0  0  0
    1.5334    1.8041    0.4905 H   0  0  0  0  0  0  0  0  0  0  0  0
    1.6233    2.9594    3.3329 H   0  0  0  0  0  0  0  0  0  0  0  0
    2.9794    2.8355    2.2307 H   0  0  0  0  0  0  0  0  0  0  0  0
    1.4885    0.5785    3.6362 H   0  0  0  0  0  0  0  0  0  0  0  0
    3.1536    1.0729    3.8581 H   0  0  0  0  0  0  0  0  0  0  0  0
    2.9947   -1.0397    2.6314 H   0  0  0  0  0  0  0  0  0  0  0  0
    1.9723   -0.3282    1.4076 H   0  0  0  0  0  0  0  0  0  0  0  0
    3.9024    1.2223    0.7627 H   0  0  0  0  0  0  0  0  0  0  0  0
    4.8967    0.4256    1.9783 H   0  0  0  0  0  0  0  0  0  0  0  0
    6.1809   -3.4388    0.0675 H   0  0  0  0  0  0  0  0  0  0  0  0
    6.0363   -4.5416   -2.1124 H   0  0  0  0  0  0  0  0  0  0  0  0
    5.0399   -4.5764   -4.3748 H   0  0  0  0  0  0  0  0  0  0  0  0
    3.4296   -2.8165   -5.0604 H   0  0  0  0  0  0  0  0  0  0  0  0
    2.8112   -1.0118   -3.4740 H   0  0  0  0  0  0  0  0  0  0  0  0
   -0.4615    1.3224   -0.3638 H   0  0  0  0  0  0  0  0  0  0  0  0
   -2.3212    0.0994    1.4766 H   0  0  0  0  0  0  0  0  0  0  0  0
   -2.4110    0.1497   -0.2896 H   0  0  0  0  0  0  0  0  0  0  0  0
   -3.2593    2.5408   -0.1392 H   0  0  0  0  0  0  0  0  0  0  0  0
   -3.2270    2.4344    1.6080 H   0  0  0  0  0  0  0  0  0  0  0  0
   -5.2840    1.0276    2.8532 H   0  0  0  0  0  0  0  0  0  0  0  0
   -7.4344    0.0934    1.9723 H   0  0  0  0  0  0  0  0  0  0  0  0
   -8.6708   -0.4696   -0.4893 H   0  0  0  0  0  0  0  0  0  0  0  0
   -8.2650   -0.3133   -2.9393 H   0  0  0  0  0  0  0  0  0  0  0  0
   -6.1426    0.6073   -3.8051 H   0  0  0  0  0  0  0  0  0  0  0  0
   -4.3794    1.3889   -2.2482 H   0  0  0  0  0  0  0  0  0  0  0  0
  1  2  2  0
  2  3  1  0
  3  4  1  0
  4  5  1  0
  5  6  1  0
  6  7  1  0
  7  8  1  0
  8  9  1  0
  9 10  2  0
  9 11  1  0
 11 12  1  0
 12 13  2  0
 13 14  1  0
 14 15  2  0
 15 16  1  0
 16 17  2  0
 17 18  1  0
 18 19  2  0
  2 20  1  0
 20 21  1  0
 21 22  1  0
 22 23  1  0
 23 24  2  0
 24 25  1  0
 25 26  1  0
 26 27  2  0
 27 28  1  0
 28 29  2  0
 29 30  1  0
 30 31  2  0
 18  8  1  0
 31 23  1  0
 17 12  1  0
 31 26  1  0
  3 32  1  0
  3 33  1  0
  4 34  1  0
  4 35  1  0
  5 36  1  0
  5 37  1  0
  6 38  1  0
  6 39  1  0
  7 40  1  0
  7 41  1  0
 11 42  1  0
 13 43  1  0
 14 44  1  0
 15 45  1  0
 16 46  1  0
 20 47  1  0
 21 48  1  0
 21 49  1  0
 22 50  1  0
 22 51  1  0
 24 52  1  0
 25 53  1  0
 27 54  1  0
 28 55  1  0
 29 56  1  0
 30 57  1  0
M  END
$$$$
