
     RDKit          3D

 53 55  0  0  0  0  0  0  0  0999 V2000
    4.6172   -4.4959    3.0262 C   0  0  0  0  0  0  0  0  0  0  0  0
    3.8357   -4.5152    1.8383 O   0  0  0  0  0  0  0  0  0  0  0  0
    3.6346   -3.3170    1.2102 C   0  0  0  0  0  0  0  0  0  0  0  0
    4.1038   -2.0779    1.6388 C   0  0  0  0  0  0  0  0  0  0  0  0
    3.8209   -0.9252    0.8975 C   0  0  0  0  0  0  0  0  0  0  0  0
    3.0635   -0.9917   -0.2825 C   0  0  0  0  0  0  0  0  0  0  0  0
    2.7673    0.1616   -1.0331 C   0  0  0  0  0  0  0  0  0  0  0  0
    2.0016    0.0938   -2.2084 C   0  0  0  0  0  0  0  0  0  0  0  0
    1.6141    1.3205   -3.0287 C   0  0  0  0  0  0  0  0  0  0  0  0
    2.3588    2.6142   -2.6882 C   0  0  0  0  0  0  0  0  0  0  0  0
    0.1010    1.5897   -2.9750 C   0  0  0  0  0  0  0  0  0  0  0  0
   -0.5440    1.7110   -4.0135 O   0  0  0  0  0  0  0  0  0  0  0  0
   -0.3987    1.7032   -1.6872 N   0  0  0  0  0  0  0  0  0  0  0  0
   -1.7233    1.9771   -1.2951 C   0  0  0  0  0  0  0  0  0  0  0  0
   -2.7530    2.3000   -2.1824 C   0  0  0  0  0  0  0  0  0  0  0  0
   -4.0427    2.5749   -1.7117 C   0  0  0  0  0  0  0  0  0  0  0  0
   -4.3193    2.5191   -0.3484 C   0  0  0  0  0  0  0  0  0  0  0  0
   -3.2987    2.1735    0.5377 C   0  0  0  0  0  0  0  0  0  0  0  0
   -3.6263    2.1164    2.2864 S   0  0  0  0  0  6  0  0  0  0  0  0
   -2.3654    2.3321    2.9656 O   0  0  0  0  0  0  0  0  0  0  0  0
   -4.7662    2.9713    2.5420 O   0  0  0  0  0  0  0  0  0  0  0  0
   -4.0981    0.5012    2.5386 N   0  0  0  0  0  0  0  0  0  0  0  0
   -3.0577   -0.5311    2.3903 C   0  0  0  0  0  0  0  0  0  0  0  0
   -5.4017    0.0931    1.9868 C   0  0  0  0  0  0  0  0  0  0  0  0
   -2.0010    1.9258    0.0746 C   0  0  0  0  0  0  0  0  0  0  0  0
    1.5448   -1.1639   -2.6310 C   0  0  0  0  0  0  0  0  0  0  0  0
    1.8337   -2.3168   -1.8977 C   0  0  0  0  0  0  0  0  0  0  0  0
    2.5885   -2.2452   -0.7194 C   0  0  0  0  0  0  0  0  0  0  0  0
    2.8816   -3.3933    0.0350 C   0  0  0  0  0  0  0  0  0  0  0  0
    4.6921   -5.5238    3.3938 H   0  0  0  0  0  0  0  0  0  0  0  0
    5.6328   -4.1392    2.8250 H   0  0  0  0  0  0  0  0  0  0  0  0
    4.1347   -3.8977    3.8059 H   0  0  0  0  0  0  0  0  0  0  0  0
    4.6921   -1.9698    2.5437 H   0  0  0  0  0  0  0  0  0  0  0  0
    4.2007    0.0301    1.2539 H   0  0  0  0  0  0  0  0  0  0  0  0
    3.1469    1.1171   -0.6784 H   0  0  0  0  0  0  0  0  0  0  0  0
    1.8584    1.0837   -4.0741 H   0  0  0  0  0  0  0  0  0  0  0  0
    2.0587    3.4185   -3.3694 H   0  0  0  0  0  0  0  0  0  0  0  0
    2.1435    2.9612   -1.6716 H   0  0  0  0  0  0  0  0  0  0  0  0
    3.4420    2.4825   -2.7829 H   0  0  0  0  0  0  0  0  0  0  0  0
    0.2502    1.4929   -0.9376 H   0  0  0  0  0  0  0  0  0  0  0  0
   -2.5829    2.3621   -3.2532 H   0  0  0  0  0  0  0  0  0  0  0  0
   -4.8266    2.8411   -2.4175 H   0  0  0  0  0  0  0  0  0  0  0  0
   -5.3196    2.7487    0.0117 H   0  0  0  0  0  0  0  0  0  0  0  0
   -3.3920   -1.4598    2.8646 H   0  0  0  0  0  0  0  0  0  0  0  0
   -2.1320   -0.2357    2.8911 H   0  0  0  0  0  0  0  0  0  0  0  0
   -2.8532   -0.7360    1.3358 H   0  0  0  0  0  0  0  0  0  0  0  0
   -6.1728    0.8389    2.1968 H   0  0  0  0  0  0  0  0  0  0  0  0
   -5.3379   -0.0734    0.9082 H   0  0  0  0  0  0  0  0  0  0  0  0
   -5.7251   -0.8387    2.4622 H   0  0  0  0  0  0  0  0  0  0  0  0
   -1.2147    1.6908    0.7885 H   0  0  0  0  0  0  0  0  0  0  0  0
    0.9503   -1.2570   -3.5397 H   0  0  0  0  0  0  0  0  0  0  0  0
    1.4613   -3.2746   -2.2552 H   0  0  0  0  0  0  0  0  0  0  0  0
    2.5220   -4.3672   -0.2912 H   0  0  0  0  0  0  0  0  0  0  0  0
  1  2  1  0
  2  3  1  0
  3  4  2  0
  4  5  1  0
  5  6  2  0
  6  7  1  0
  7  8  2  0
  8  9  1  0
  9 10  1  0
  9 11  1  0
 11 12  2  0
 11 13  1  0
 13 14  1  0
 14 15  2  0
 15 16  1  0
 16 17  2  0
 17 18  1  0
 18 19  1  0
 19 20  2  0
 19 21  2  0
 19 22  1  0
 22 23  1  0
 22 24  1  0
 18 25  2  0
  8 26  1  0
 26 27  2  0
 27 28  1  0
 28 29  2  0
 29  3  1  0
 28  6  1  0
 25 14  1  0
  1 30  1  0
  1 31  1  0
  1 32  1  0
  4 33  1  0
  5 34  1  0
  7 35  1  0
  9 36  1  0
 10 37  1  0
 10 38  1  0
 10 39  1  0
 13 40  1  0
 15 41  1  0
 16 42  1  0
 17 43  1  0
 23 44  1  0
 23 45  1  0
 23 46  1  0
 24 47  1  0
 24 48  1  0
 24 49  1  0
 25 50  1  0
 26 51  1  0
 27 52  1  0
 29 53  1  0
M  END
$$$$
