
     RDKit          3D

 44 46  0  0  0  0  0  0  0  0999 V2000
    4.0889    1.0894   -3.0460 C   0  0  0  0  0  0  0  0  0  0  0  0
    2.8580    1.5382   -2.4019 N   0  0  0  0  0  0  0  0  0  0  0  0
    1.6839    1.2313   -3.2471 C   0  0  0  0  0  0  0  0  0  0  0  0
    0.3661    1.1290   -2.4606 C   0  0  0  0  0  0  0  0  0  0  0  0
    0.4322    0.0906   -1.4313 N   0  0  0  0  0  0  0  0  0  0  0  0
   -0.7486   -0.5088   -1.0136 C   0  0  0  0  0  0  0  0  0  0  0  0
   -1.8567   -0.2206   -1.4563 O   0  0  0  0  0  0  0  0  0  0  0  0
   -0.6592   -1.5735    0.0073 C   0  0  0  0  0  0  0  0  0  0  0  0
   -0.2789   -2.8539   -0.4187 C   0  0  0  0  0  0  0  0  0  0  0  0
   -0.1672   -3.8861    0.5098 C   0  0  0  0  0  0  0  0  0  0  0  0
   -0.4382   -3.6408    1.8549 C   0  0  0  0  0  0  0  0  0  0  0  0
   -0.8262   -2.3644    2.2753 C   0  0  0  0  0  0  0  0  0  0  0  0
   -0.9518   -1.3058    1.3588 C   0  0  0  0  0  0  0  0  0  0  0  0
   -1.3469    0.0308    1.8349 C   0  0  0  0  0  0  0  0  0  0  0  0
   -0.3596    0.8527    2.4161 C   0  0  0  0  0  0  0  0  0  0  0  0
   -0.6543    2.1464    2.8510 C   0  0  0  0  0  0  0  0  0  0  0  0
   -1.9441    2.6474    2.7155 C   0  0  0  0  0  0  0  0  0  0  0  0
   -2.9413    1.8521    2.1516 C   0  0  0  0  0  0  0  0  0  0  0  0
   -2.6553    0.5465    1.7129 C   0  0  0  0  0  0  0  0  0  0  0  0
   -3.7606   -0.2787    1.1567 C   0  0  0  0  0  0  0  0  0  0  0  0
   -3.8759   -1.4882    1.2115 O   0  0  0  0  0  0  0  0  0  0  0  0
   -4.6959    0.4792    0.5516 O   0  0  0  0  0  0  0  0  0  0  0  0
    1.7638   -0.1925   -0.8836 C   0  0  0  0  0  0  0  0  0  0  0  0
    2.7211    1.0053   -1.0324 C   0  0  0  0  0  0  0  0  0  0  0  0
    4.1819    1.5258   -4.0467 H   0  0  0  0  0  0  0  0  0  0  0  0
    4.9638    1.4223   -2.4767 H   0  0  0  0  0  0  0  0  0  0  0  0
    4.1321   -0.0018   -3.1380 H   0  0  0  0  0  0  0  0  0  0  0  0
    1.5889    2.0087   -4.0137 H   0  0  0  0  0  0  0  0  0  0  0  0
    1.8321    0.2759   -3.7692 H   0  0  0  0  0  0  0  0  0  0  0  0
   -0.4618    0.9187   -3.1467 H   0  0  0  0  0  0  0  0  0  0  0  0
    0.1438    2.0768   -1.9557 H   0  0  0  0  0  0  0  0  0  0  0  0
   -0.0823   -3.0435   -1.4707 H   0  0  0  0  0  0  0  0  0  0  0  0
    0.1177   -4.8835    0.1850 H   0  0  0  0  0  0  0  0  0  0  0  0
   -0.3643   -4.4482    2.5797 H   0  0  0  0  0  0  0  0  0  0  0  0
   -1.0515   -2.2017    3.3279 H   0  0  0  0  0  0  0  0  0  0  0  0
    0.6591    0.4841    2.5244 H   0  0  0  0  0  0  0  0  0  0  0  0
    0.1257    2.7635    3.2901 H   0  0  0  0  0  0  0  0  0  0  0  0
   -2.1770    3.6557    3.0484 H   0  0  0  0  0  0  0  0  0  0  0  0
   -3.9479    2.2543    2.0584 H   0  0  0  0  0  0  0  0  0  0  0  0
   -5.2869   -0.1839    0.1385 H   0  0  0  0  0  0  0  0  0  0  0  0
    2.1582   -1.0594   -1.4267 H   0  0  0  0  0  0  0  0  0  0  0  0
    1.6874   -0.4662    0.1724 H   0  0  0  0  0  0  0  0  0  0  0  0
    3.6975    0.7525   -0.6010 H   0  0  0  0  0  0  0  0  0  0  0  0
    2.3301    1.8242   -0.4141 H   0  0  0  0  0  0  0  0  0  0  0  0
  1  2  1  0
  2  3  1  0
  3  4  1  0
  4  5  1  0
  5  6  1  0
  6  7  2  0
  6  8  1  0
  8  9  2  0
  9 10  1  0
 10 11  2  0
 11 12  1  0
 12 13  2  0
 13 14  1  0
 14 15  2  0
 15 16  1  0
 16 17  2  0
 17 18  1  0
 18 19  2  0
 19 20  1  0
 20 21  2  0
 20 22  1  0
  5 23  1  0
 23 24  1  0
 24  2  1  0
 13  8  1  0
 19 14  1  0
  1 25  1  0
  1 26  1  0
  1 27  1  0
  3 28  1  0
  3 29  1  0
  4 30  1  0
  4 31  1  0
  9 32  1  0
 10 33  1  0
 11 34  1  0
 12 35  1  0
 15 36  1  0
 16 37  1  0
 17 38  1  0
 18 39  1  0
 22 40  1  0
 23 41  1  0
 23 42  1  0
 24 43  1  0
 24 44  1  0
M  END
$$$$
