
     RDKit          3D

 42 43  0  0  0  0  0  0  0  0999 V2000
   -3.3027    2.4392    0.6218 C   0  0  0  0  0  0  0  0  0  0  0  0
   -2.7906    1.0903    0.0758 C   0  0  0  0  0  0  0  0  0  0  0  0
   -3.8720    0.5039   -0.8455 C   0  0  0  0  0  0  0  0  0  0  0  0
   -2.5805    0.1392    1.2662 C   0  0  0  0  0  0  0  0  0  0  0  0
   -1.4616    1.3572   -0.6846 C   0  0  0  0  0  0  0  0  0  0  0  0
   -0.8530    0.1559   -1.2264 N   0  0  0  0  0  0  0  0  0  0  0  0
   -0.8683   -0.2985   -2.5067 C   0  0  0  0  0  0  0  0  0  0  0  0
   -1.5631    0.3679   -3.4445 N   0  0  0  0  0  0  0  0  0  0  0  0
   -0.1590   -1.3558   -2.7859 N   0  0  0  0  0  0  0  0  0  0  0  0
    0.4038   -1.7550   -1.4604 C   0  0  0  0  0  0  0  0  0  0  0  0
    0.2458   -0.5245   -0.5380 C   0  0  0  0  0  0  0  0  0  0  0  0
    1.5287    0.3317   -0.5180 C   0  0  0  0  0  0  0  0  0  0  0  0
    2.6307   -0.2739    0.3228 C   0  0  0  0  0  0  0  0  0  0  0  0
    3.7558   -0.8476   -0.2852 C   0  0  0  0  0  0  0  0  0  0  0  0
    4.7678   -1.4124    0.4922 C   0  0  0  0  0  0  0  0  0  0  0  0
    4.6604   -1.4021    1.8770 C   0  0  0  0  0  0  0  0  0  0  0  0
    5.6724   -1.9644    2.5971 O   0  0  0  0  0  0  0  0  0  0  0  0
    3.5551   -0.8341    2.5013 C   0  0  0  0  0  0  0  0  0  0  0  0
    2.5414   -0.2697    1.7233 C   0  0  0  0  0  0  0  0  0  0  0  0
   -2.5782    2.8883    1.3106 H   0  0  0  0  0  0  0  0  0  0  0  0
   -4.2459    2.3165    1.1663 H   0  0  0  0  0  0  0  0  0  0  0  0
   -3.4792    3.1534   -0.1905 H   0  0  0  0  0  0  0  0  0  0  0  0
   -4.0752    1.1695   -1.6912 H   0  0  0  0  0  0  0  0  0  0  0  0
   -4.8159    0.3656   -0.3052 H   0  0  0  0  0  0  0  0  0  0  0  0
   -3.5801   -0.4746   -1.2409 H   0  0  0  0  0  0  0  0  0  0  0  0
   -1.7744    0.4928    1.9185 H   0  0  0  0  0  0  0  0  0  0  0  0
   -3.4890    0.0624    1.8749 H   0  0  0  0  0  0  0  0  0  0  0  0
   -2.3320   -0.8739    0.9336 H   0  0  0  0  0  0  0  0  0  0  0  0
   -0.7651    1.8502    0.0036 H   0  0  0  0  0  0  0  0  0  0  0  0
   -1.6355    2.0860   -1.4863 H   0  0  0  0  0  0  0  0  0  0  0  0
   -2.5013    0.6058   -3.1609 H   0  0  0  0  0  0  0  0  0  0  0  0
   -1.5732   -0.1656   -4.3079 H   0  0  0  0  0  0  0  0  0  0  0  0
    1.4394   -2.0849   -1.5758 H   0  0  0  0  0  0  0  0  0  0  0  0
   -0.1836   -2.5996   -1.0806 H   0  0  0  0  0  0  0  0  0  0  0  0
   -0.0372   -0.8380    0.4714 H   0  0  0  0  0  0  0  0  0  0  0  0
    1.3252    1.3296   -0.1118 H   0  0  0  0  0  0  0  0  0  0  0  0
    1.8885    0.5091   -1.5402 H   0  0  0  0  0  0  0  0  0  0  0  0
    3.8515   -0.8620   -1.3693 H   0  0  0  0  0  0  0  0  0  0  0  0
    5.6373   -1.8581    0.0174 H   0  0  0  0  0  0  0  0  0  0  0  0
    5.4651   -1.8790    3.5418 H   0  0  0  0  0  0  0  0  0  0  0  0
    3.4657   -0.8193    3.5827 H   0  0  0  0  0  0  0  0  0  0  0  0
    1.6823    0.1784    2.2179 H   0  0  0  0  0  0  0  0  0  0  0  0
  1  2  1  0
  2  3  1  0
  2  4  1  0
  2  5  1  0
  5  6  1  0
  6  7  1  0
  7  8  1  0
  7  9  2  0
  9 10  1  0
 10 11  1  0
 11 12  1  0
 12 13  1  0
 13 14  2  0
 14 15  1  0
 15 16  2  0
 16 17  1  0
 16 18  1  0
 18 19  2  0
 11  6  1  0
 19 13  1  0
  1 20  1  0
  1 21  1  0
  1 22  1  0
  3 23  1  0
  3 24  1  0
  3 25  1  0
  4 26  1  0
  4 27  1  0
  4 28  1  0
  5 29  1  0
  5 30  1  0
  8 31  1  0
  8 32  1  0
 10 33  1  0
 10 34  1  0
 11 35  1  0
 12 36  1  0
 12 37  1  0
 14 38  1  0
 15 39  1  0
 17 40  1  0
 18 41  1  0
 19 42  1  0
M  END
$$$$
