
     RDKit          3D

 49 52  0  0  0  0  0  0  0  0999 V2000
   -5.3316    3.7423   -0.2110 C   0  0  0  0  0  0  0  0  0  0  0  0
   -5.9365    2.4593    0.3322 C   0  0  0  0  0  0  0  0  0  0  0  0
   -5.1003    1.8883    1.3367 O   0  0  0  0  0  0  0  0  0  0  0  0
   -4.1066    1.0293    0.9610 C   0  0  0  0  0  0  0  0  0  0  0  0
   -3.7534    0.6885   -0.3443 C   0  0  0  0  0  0  0  0  0  0  0  0
   -2.7055   -0.2102   -0.5804 C   0  0  0  0  0  0  0  0  0  0  0  0
   -2.0037   -0.7786    0.4878 C   0  0  0  0  0  0  0  0  0  0  0  0
   -0.9145   -1.7134    0.2393 C   0  0  0  0  0  0  0  0  0  0  0  0
    0.4372   -1.4734    0.0313 C   0  0  0  0  0  0  0  0  0  0  0  0
    1.1467   -0.1964   -0.0039 C   0  0  0  0  0  0  0  0  0  0  0  0
    0.5848    0.8838    0.1447 O   0  0  0  0  0  0  0  0  0  0  0  0
    2.5077   -0.3638   -0.2263 N   0  0  0  0  0  0  0  0  0  0  0  0
    3.3412    0.7120   -0.2999 N   0  0  0  0  0  0  0  0  0  0  0  0
    4.5880    0.4366   -0.5147 C   0  0  0  0  0  0  0  0  0  0  0  0
    5.6106    1.4960   -0.6211 C   0  0  0  0  0  0  0  0  0  0  0  0
    5.2604    2.8438   -0.5022 C   0  0  0  0  0  0  0  0  0  0  0  0
    6.2444    3.8277   -0.6064 C   0  0  0  0  0  0  0  0  0  0  0  0
    7.5729    3.4651   -0.8310 C   0  0  0  0  0  0  0  0  0  0  0  0
    7.9215    2.1189   -0.9514 C   0  0  0  0  0  0  0  0  0  0  0  0
    6.9411    1.1304   -0.8465 C   0  0  0  0  0  0  0  0  0  0  0  0
    1.0871   -2.6676   -0.1523 N   0  0  0  0  0  0  0  0  0  0  0  0
    0.1989   -3.6408   -0.0734 N   0  0  0  0  0  0  0  0  0  0  0  0
   -1.0382   -3.1028    0.1548 N   0  0  0  0  0  0  0  0  0  0  0  0
   -2.1880   -3.9248    0.2781 C   0  0  0  0  0  0  0  0  0  0  0  0
   -3.3885   -3.4062    0.5360 N   0  0  0  0  0  0  0  0  0  0  0  0
   -4.2335   -4.5119    0.5942 O   0  0  0  0  0  0  0  0  0  0  0  0
   -3.5342   -5.6935    0.3710 N   0  0  0  0  0  0  0  0  0  0  0  0
   -2.2699   -5.3260    0.1680 C   0  0  0  0  0  0  0  0  0  0  0  0
   -1.2660   -6.1832   -0.0976 N   0  0  0  0  0  0  0  0  0  0  0  0
   -2.3476   -0.4263    1.7956 C   0  0  0  0  0  0  0  0  0  0  0  0
   -3.3943    0.4703    2.0257 C   0  0  0  0  0  0  0  0  0  0  0  0
   -5.1291    4.4457    0.6039 H   0  0  0  0  0  0  0  0  0  0  0  0
   -4.3768    3.5551   -0.7115 H   0  0  0  0  0  0  0  0  0  0  0  0
   -6.0106    4.2182   -0.9243 H   0  0  0  0  0  0  0  0  0  0  0  0
   -6.8841    2.7072    0.8246 H   0  0  0  0  0  0  0  0  0  0  0  0
   -6.1901    1.7461   -0.4599 H   0  0  0  0  0  0  0  0  0  0  0  0
   -4.2606    1.1090   -1.2053 H   0  0  0  0  0  0  0  0  0  0  0  0
   -2.4422   -0.4529   -1.6072 H   0  0  0  0  0  0  0  0  0  0  0  0
    2.8735   -1.3043   -0.3408 H   0  0  0  0  0  0  0  0  0  0  0  0
    4.9406   -0.6047   -0.6281 H   0  0  0  0  0  0  0  0  0  0  0  0
    4.2259    3.1329   -0.3267 H   0  0  0  0  0  0  0  0  0  0  0  0
    5.9734    4.8765   -0.5126 H   0  0  0  0  0  0  0  0  0  0  0  0
    8.3375    4.2341   -0.9121 H   0  0  0  0  0  0  0  0  0  0  0  0
    8.9583    1.8421   -1.1263 H   0  0  0  0  0  0  0  0  0  0  0  0
    7.2266    0.0866   -0.9413 H   0  0  0  0  0  0  0  0  0  0  0  0
   -0.2919   -5.8891   -0.0587 H   0  0  0  0  0  0  0  0  0  0  0  0
   -1.4159   -7.1769    0.0407 H   0  0  0  0  0  0  0  0  0  0  0  0
   -1.8094   -0.8383    2.6453 H   0  0  0  0  0  0  0  0  0  0  0  0
   -3.6557    0.7393    3.0463 H   0  0  0  0  0  0  0  0  0  0  0  0
  1  2  1  0
  2  3  1  0
  3  4  1  0
  4  5  2  0
  5  6  1  0
  6  7  2  0
  7  8  1  0
  8  9  2  0
  9 10  1  0
 10 11  2  0
 10 12  1  0
 12 13  1  0
 13 14  2  3
 14 15  1  0
 15 16  2  0
 16 17  1  0
 17 18  2  0
 18 19  1  0
 19 20  2  0
  9 21  1  0
 21 22  2  0
 22 23  1  0
 23 24  1  0
 24 25  2  0
 25 26  1  0
 26 27  1  0
 27 28  2  0
 28 29  1  0
  7 30  1  0
 30 31  2  0
 31  4  1  0
 23  8  1  0
 28 24  1  0
 20 15  1  0
  1 32  1  0
  1 33  1  0
  1 34  1  0
  2 35  1  0
  2 36  1  0
  5 37  1  0
  6 38  1  0
 12 39  1  0
 14 40  1  0
 16 41  1  0
 17 42  1  0
 18 43  1  0
 19 44  1  0
 20 45  1  0
 29 46  1  0
 29 47  1  0
 30 48  1  0
 31 49  1  0
M  END
$$$$
