
     RDKit          3D

 40 40  0  0  0  0  0  0  0  0999 V2000
   -0.7626    2.9638    2.9744 C   0  0  0  0  0  0  0  0  0  0  0  0
   -1.7340    1.8231    3.2365 C   0  0  0  0  0  0  0  0  0  0  0  0
   -2.0188    0.9673    2.0010 C   0  0  0  0  0  0  0  0  0  0  0  0
   -0.7888    0.2170    1.4862 C   0  0  0  0  0  0  0  0  0  0  0  0
   -1.2096   -0.6360    0.3883 N   0  0  0  0  0  0  0  0  0  0  0  0
   -0.3975   -1.4908   -0.1317 C   0  0  0  0  0  0  0  0  0  0  0  0
    0.9404   -1.7903    0.1364 N   0  0  0  0  0  0  0  0  0  0  0  0
    1.8529   -0.9436    0.7066 N   0  0  0  0  0  0  0  0  0  0  0  0
    2.5331    0.0702   -0.0015 C   0  0  0  0  0  0  0  0  0  0  0  0
    2.5187    0.1476   -1.4007 C   0  0  0  0  0  0  0  0  0  0  0  0
    3.2476    1.1344   -2.0728 C   0  0  0  0  0  0  0  0  0  0  0  0
    4.0157    2.0406   -1.3477 C   0  0  0  0  0  0  0  0  0  0  0  0
    5.0029    3.3734   -2.2532 Br  0  0  0  0  0  0  0  0  0  0  0  0
    4.0673    1.9640    0.0410 C   0  0  0  0  0  0  0  0  0  0  0  0
    3.3359    0.9759    0.7073 C   0  0  0  0  0  0  0  0  0  0  0  0
   -0.9880   -2.3646   -1.2777 C   0  0  0  0  0  0  0  0  0  0  0  0
   -0.2356   -2.9238   -2.0633 O   0  0  0  0  0  0  0  0  0  0  0  0
   -2.3303   -2.4281   -1.2384 O   0  0  0  0  0  0  0  0  0  0  0  0
   -2.9504   -3.2190   -2.2588 C   0  0  0  0  0  0  0  0  0  0  0  0
   -3.1754   -2.3831   -3.5049 C   0  0  0  0  0  0  0  0  0  0  0  0
    0.2383    2.5919    2.7361 H   0  0  0  0  0  0  0  0  0  0  0  0
   -1.1065    3.5906    2.1456 H   0  0  0  0  0  0  0  0  0  0  0  0
   -0.6770    3.5957    3.8643 H   0  0  0  0  0  0  0  0  0  0  0  0
   -1.3458    1.1929    4.0450 H   0  0  0  0  0  0  0  0  0  0  0  0
   -2.6812    2.2461    3.5917 H   0  0  0  0  0  0  0  0  0  0  0  0
   -2.8022    0.2415    2.2547 H   0  0  0  0  0  0  0  0  0  0  0  0
   -2.4299    1.5956    1.2009 H   0  0  0  0  0  0  0  0  0  0  0  0
   -0.0475    0.9409    1.1364 H   0  0  0  0  0  0  0  0  0  0  0  0
   -0.3681   -0.3775    2.3045 H   0  0  0  0  0  0  0  0  0  0  0  0
    1.3422   -2.4387   -0.5497 H   0  0  0  0  0  0  0  0  0  0  0  0
    1.7025   -0.7251    1.6907 H   0  0  0  0  0  0  0  0  0  0  0  0
    1.9339   -0.5533   -1.9900 H   0  0  0  0  0  0  0  0  0  0  0  0
    3.2095    1.1810   -3.1579 H   0  0  0  0  0  0  0  0  0  0  0  0
    4.6743    2.6602    0.6133 H   0  0  0  0  0  0  0  0  0  0  0  0
    3.3998    0.9207    1.7913 H   0  0  0  0  0  0  0  0  0  0  0  0
   -2.3612   -4.1163   -2.4808 H   0  0  0  0  0  0  0  0  0  0  0  0
   -3.9139   -3.5565   -1.8630 H   0  0  0  0  0  0  0  0  0  0  0  0
   -3.7649   -1.4912   -3.2684 H   0  0  0  0  0  0  0  0  0  0  0  0
   -2.2246   -2.0353   -3.9212 H   0  0  0  0  0  0  0  0  0  0  0  0
   -3.7011   -2.9612   -4.2701 H   0  0  0  0  0  0  0  0  0  0  0  0
  1  2  1  0
  2  3  1  0
  3  4  1  0
  4  5  1  0
  5  6  2  3
  6  7  1  0
  7  8  1  0
  8  9  1  0
  9 10  2  0
 10 11  1  0
 11 12  2  0
 12 13  1  0
 12 14  1  0
 14 15  2  0
  6 16  1  0
 16 17  2  0
 16 18  1  0
 18 19  1  0
 19 20  1  0
 15  9  1  0
  1 21  1  0
  1 22  1  0
  1 23  1  0
  2 24  1  0
  2 25  1  0
  3 26  1  0
  3 27  1  0
  4 28  1  0
  4 29  1  0
  7 30  1  0
  8 31  1  0
 10 32  1  0
 11 33  1  0
 14 34  1  0
 15 35  1  0
 19 36  1  0
 19 37  1  0
 20 38  1  0
 20 39  1  0
 20 40  1  0
M  END
$$$$
