
     RDKit          3D

 47 49  0  0  0  0  0  0  0  0999 V2000
    6.9303   -0.4491   -0.5884 C   0  0  0  0  0  0  0  0  0  0  0  0
    6.1927    0.1617    0.6007 C   0  0  0  0  0  0  0  0  0  0  0  0
    6.8538   -0.2412    1.9143 C   0  0  0  0  0  0  0  0  0  0  0  0
    4.7986   -0.2429    0.5984 N   0  0  0  0  0  0  0  0  0  0  0  0
    3.8484    0.3831   -0.1793 C   0  0  0  0  0  0  0  0  0  0  0  0
    4.0112    1.3953   -0.8443 O   0  0  0  0  0  0  0  0  0  0  0  0
    2.4780   -0.3218   -0.1637 C   0  0  0  0  0  0  0  0  0  0  0  0
    2.3100   -1.3517    0.4796 O   0  0  0  0  0  0  0  0  0  0  0  0
    1.5166    0.3189   -0.9150 N   0  0  0  0  0  0  0  0  0  0  0  0
    0.1779   -0.0713   -0.7519 N   0  0  0  0  0  0  0  0  0  0  0  0
   -0.7682    0.9329   -0.6610 C   0  0  0  0  0  0  0  0  0  0  0  0
   -0.4853    2.1075   -0.8957 O   0  0  0  0  0  0  0  0  0  0  0  0
   -2.1730    0.4711   -0.2466 C   0  0  0  0  0  0  0  0  0  0  0  0
   -3.1493    1.6760   -0.2587 C   0  0  0  0  0  0  0  0  0  0  0  0
   -4.5635    1.2380    0.1554 C   0  0  0  0  0  0  0  0  0  0  0  0
   -4.5123    0.6453    1.5725 C   0  0  0  0  0  0  0  0  0  0  0  0
   -3.5670   -0.5663    1.6014 C   0  0  0  0  0  0  0  0  0  0  0  0
   -4.0751   -1.6289    0.6118 C   0  0  0  0  0  0  0  0  0  0  0  0
   -4.1263   -1.0457   -0.8107 C   0  0  0  0  0  0  0  0  0  0  0  0
   -5.0681    0.1687   -0.8265 C   0  0  0  0  0  0  0  0  0  0  0  0
   -2.7130   -0.5995   -1.2253 C   0  0  0  0  0  0  0  0  0  0  0  0
   -2.1543   -0.1209    1.1836 C   0  0  0  0  0  0  0  0  0  0  0  0
    7.9800   -0.1380   -0.5987 H   0  0  0  0  0  0  0  0  0  0  0  0
    6.8978   -1.5439   -0.5548 H   0  0  0  0  0  0  0  0  0  0  0  0
    6.4767   -0.1359   -1.5349 H   0  0  0  0  0  0  0  0  0  0  0  0
    6.2282    1.2537    0.5070 H   0  0  0  0  0  0  0  0  0  0  0  0
    6.3322    0.2112    2.7648 H   0  0  0  0  0  0  0  0  0  0  0  0
    7.8981    0.0865    1.9438 H   0  0  0  0  0  0  0  0  0  0  0  0
    6.8319   -1.3277    2.0546 H   0  0  0  0  0  0  0  0  0  0  0  0
    4.5294   -1.1401    0.9951 H   0  0  0  0  0  0  0  0  0  0  0  0
    1.6878    1.2778   -1.2305 H   0  0  0  0  0  0  0  0  0  0  0  0
    0.0345   -0.9800   -0.3153 H   0  0  0  0  0  0  0  0  0  0  0  0
   -3.1817    2.1280   -1.2589 H   0  0  0  0  0  0  0  0  0  0  0  0
   -2.7939    2.4607    0.4224 H   0  0  0  0  0  0  0  0  0  0  0  0
   -5.2377    2.1016    0.1400 H   0  0  0  0  0  0  0  0  0  0  0  0
   -5.5182    0.3434    1.8889 H   0  0  0  0  0  0  0  0  0  0  0  0
   -4.1692    1.4055    2.2849 H   0  0  0  0  0  0  0  0  0  0  0  0
   -3.5371   -0.9872    2.6126 H   0  0  0  0  0  0  0  0  0  0  0  0
   -5.0730   -1.9720    0.9114 H   0  0  0  0  0  0  0  0  0  0  0  0
   -3.4171   -2.5063    0.6337 H   0  0  0  0  0  0  0  0  0  0  0  0
   -4.4927   -1.8063   -1.5091 H   0  0  0  0  0  0  0  0  0  0  0  0
   -5.1246    0.5862   -1.8393 H   0  0  0  0  0  0  0  0  0  0  0  0
   -6.0841   -0.1415   -0.5529 H   0  0  0  0  0  0  0  0  0  0  0  0
   -2.0530   -1.4758   -1.2499 H   0  0  0  0  0  0  0  0  0  0  0  0
   -2.7306   -0.2008   -2.2481 H   0  0  0  0  0  0  0  0  0  0  0  0
   -1.7700    0.6225    1.8941 H   0  0  0  0  0  0  0  0  0  0  0  0
   -1.4756   -0.9805    1.2449 H   0  0  0  0  0  0  0  0  0  0  0  0
  1  2  1  0
  2  3  1  0
  2  4  1  0
  4  5  1  0
  5  6  2  0
  5  7  1  0
  7  8  2  0
  7  9  1  0
  9 10  1  0
 10 11  1  0
 11 12  2  0
 11 13  1  0
 13 14  1  0
 14 15  1  0
 15 16  1  0
 16 17  1  0
 17 18  1  0
 18 19  1  0
 19 20  1  0
 19 21  1  0
 17 22  1  0
 21 13  1  0
 22 13  1  0
 20 15  1  0
  1 23  1  0
  1 24  1  0
  1 25  1  0
  2 26  1  0
  3 27  1  0
  3 28  1  0
  3 29  1  0
  4 30  1  0
  9 31  1  0
 10 32  1  0
 14 33  1  0
 14 34  1  0
 15 35  1  0
 16 36  1  0
 16 37  1  0
 17 38  1  0
 18 39  1  0
 18 40  1  0
 19 41  1  0
 20 42  1  0
 20 43  1  0
 21 44  1  0
 21 45  1  0
 22 46  1  0
 22 47  1  0
M  END
$$$$
