
     RDKit          3D

 52 53  0  0  0  0  0  0  0  0999 V2000
    5.5494    0.3252   -1.3065 C   0  0  0  0  0  0  0  0  0  0  0  0
    4.9738   -0.1099    0.0596 C   0  0  0  0  0  0  0  0  0  0  0  0
    5.8007   -1.3255    0.5343 C   0  0  0  0  0  0  0  0  0  0  0  0
    5.1948    1.0399    1.0605 C   0  0  0  0  0  0  0  0  0  0  0  0
    3.4561   -0.5054   -0.0879 C   0  0  0  0  0  0  0  0  0  0  0  0
    2.8270   -1.0456    1.2167 C   0  0  0  0  0  0  0  0  0  0  0  0
    1.3734   -1.4707    1.0212 C   0  0  0  0  0  0  0  0  0  0  0  0
    0.5186   -0.3337    0.4669 C   0  0  0  0  0  0  0  0  0  0  0  0
   -0.7998   -0.8652    0.2170 O   0  0  0  0  0  0  0  0  0  0  0  0
   -1.8205    0.0327    0.1961 C   0  0  0  0  0  0  0  0  0  0  0  0
   -1.7171    1.2392    0.3701 O   0  0  0  0  0  0  0  0  0  0  0  0
   -3.1344   -0.6902   -0.1001 C   0  0  0  0  0  0  0  0  0  0  0  0
   -4.4349    0.1755   -0.0096 N   0  0  0  0  0  4  0  0  0  0  0  0
   -4.5921    0.7369    1.4019 C   0  0  0  0  0  0  0  0  0  0  0  0
   -4.4155    1.3277   -1.0421 C   0  0  0  0  0  0  0  0  0  0  0  0
   -5.5322    1.0010   -2.0189 C   0  0  0  0  0  0  0  0  0  0  0  0
   -6.5387    0.2422   -1.1837 C   0  0  0  0  0  0  0  0  0  0  0  0
   -5.6605   -0.6824   -0.3671 C   0  0  0  0  0  0  0  0  0  0  0  0
    1.1191    0.1947   -0.8345 C   0  0  0  0  0  0  0  0  0  0  0  0
    2.5718    0.6302   -0.6519 C   0  0  0  0  0  0  0  0  0  0  0  0
    5.1199    1.2722   -1.6486 H   0  0  0  0  0  0  0  0  0  0  0  0
    5.3603   -0.4332   -2.0742 H   0  0  0  0  0  0  0  0  0  0  0  0
    6.6342    0.4745   -1.2498 H   0  0  0  0  0  0  0  0  0  0  0  0
    6.8748   -1.1064    0.5132 H   0  0  0  0  0  0  0  0  0  0  0  0
    5.5583   -1.6084    1.5636 H   0  0  0  0  0  0  0  0  0  0  0  0
    5.6286   -2.1955   -0.1090 H   0  0  0  0  0  0  0  0  0  0  0  0
    6.2599    1.2890    1.1385 H   0  0  0  0  0  0  0  0  0  0  0  0
    4.8536    0.7758    2.0661 H   0  0  0  0  0  0  0  0  0  0  0  0
    4.6745    1.9525    0.7539 H   0  0  0  0  0  0  0  0  0  0  0  0
    3.4153   -1.3269   -0.8192 H   0  0  0  0  0  0  0  0  0  0  0  0
    2.8660   -0.2824    2.0022 H   0  0  0  0  0  0  0  0  0  0  0  0
    3.3825   -1.9146    1.5829 H   0  0  0  0  0  0  0  0  0  0  0  0
    1.3253   -2.3367    0.3479 H   0  0  0  0  0  0  0  0  0  0  0  0
    0.9536   -1.8149    1.9744 H   0  0  0  0  0  0  0  0  0  0  0  0
    0.4651    0.4647    1.2186 H   0  0  0  0  0  0  0  0  0  0  0  0
   -3.0937   -1.0790   -1.1234 H   0  0  0  0  0  0  0  0  0  0  0  0
   -3.2677   -1.5081    0.6158 H   0  0  0  0  0  0  0  0  0  0  0  0
   -5.5646    1.2341    1.4684 H   0  0  0  0  0  0  0  0  0  0  0  0
   -4.5439   -0.0964    2.1087 H   0  0  0  0  0  0  0  0  0  0  0  0
   -3.7959    1.4568    1.5990 H   0  0  0  0  0  0  0  0  0  0  0  0
   -4.6109    2.2660   -0.5122 H   0  0  0  0  0  0  0  0  0  0  0  0
   -3.4424    1.3740   -1.5380 H   0  0  0  0  0  0  0  0  0  0  0  0
   -5.1509    0.3641   -2.8262 H   0  0  0  0  0  0  0  0  0  0  0  0
   -5.9571    1.9006   -2.4734 H   0  0  0  0  0  0  0  0  0  0  0  0
   -7.0941    0.9264   -0.5319 H   0  0  0  0  0  0  0  0  0  0  0  0
   -7.2597   -0.3072   -1.7956 H   0  0  0  0  0  0  0  0  0  0  0  0
   -6.1343   -1.0512    0.5477 H   0  0  0  0  0  0  0  0  0  0  0  0
   -5.3175   -1.5292   -0.9721 H   0  0  0  0  0  0  0  0  0  0  0  0
    1.0551   -0.5767   -1.6130 H   0  0  0  0  0  0  0  0  0  0  0  0
    0.5269    1.0385   -1.2076 H   0  0  0  0  0  0  0  0  0  0  0  0
    2.5950    1.4980    0.0170 H   0  0  0  0  0  0  0  0  0  0  0  0
    2.9449    0.9629   -1.6256 H   0  0  0  0  0  0  0  0  0  0  0  0
  1  2  1  0
  2  3  1  0
  2  4  1  0
  2  5  1  0
  5  6  1  0
  6  7  1  0
  7  8  1  0
  8  9  1  0
  9 10  1  0
 10 11  2  0
 10 12  1  0
 12 13  1  0
 13 14  1  0
 13 15  1  0
 15 16  1  0
 16 17  1  0
 17 18  1  0
  8 19  1  0
 19 20  1  0
 20  5  1  0
 18 13  1  0
  1 21  1  0
  1 22  1  0
  1 23  1  0
  3 24  1  0
  3 25  1  0
  3 26  1  0
  4 27  1  0
  4 28  1  0
  4 29  1  0
  5 30  1  0
  6 31  1  0
  6 32  1  0
  7 33  1  0
  7 34  1  0
  8 35  1  0
 12 36  1  0
 12 37  1  0
 14 38  1  0
 14 39  1  0
 14 40  1  0
 15 41  1  0
 15 42  1  0
 16 43  1  0
 16 44  1  0
 17 45  1  0
 17 46  1  0
 18 47  1  0
 18 48  1  0
 19 49  1  0
 19 50  1  0
 20 51  1  0
 20 52  1  0
M  CHG  1  13   1
M  END
$$$$
