
     RDKit          3D

 61 63  0  0  0  0  0  0  0  0999 V2000
    5.7802    3.2226    1.0323 C   0  0  0  0  0  0  0  0  0  0  0  0
    5.5078    1.9413    0.4068 N   0  0  0  0  0  0  0  0  0  0  0  0
    4.4175    1.8457   -0.4424 C   0  0  0  0  0  0  0  0  0  0  0  0
    3.6641    2.7786   -0.7098 O   0  0  0  0  0  0  0  0  0  0  0  0
    4.1684    0.5313   -1.0546 C   0  0  0  0  0  0  0  0  0  0  0  0
    3.0624    0.3652   -1.9022 C   0  0  0  0  0  0  0  0  0  0  0  0
    2.8217   -0.8815   -2.4782 C   0  0  0  0  0  0  0  0  0  0  0  0
    1.4237   -1.0862   -3.5554 S   0  0  0  0  0  6  0  0  0  0  0  0
    1.4925   -2.4122   -4.1289 O   0  0  0  0  0  0  0  0  0  0  0  0
    1.3352    0.0995   -4.3757 O   0  0  0  0  0  0  0  0  0  0  0  0
    0.1278   -1.0513   -2.4798 N   0  0  0  0  0  0  0  0  0  0  0  0
    0.0282   -2.1265   -1.4757 C   0  0  0  0  0  0  0  0  0  0  0  0
   -1.3289   -2.0659   -0.7826 C   0  0  0  0  0  0  0  0  0  0  0  0
   -1.4379   -0.8591    0.1251 C   0  0  0  0  0  0  0  0  0  0  0  0
   -0.5670    0.0020    0.1977 O   0  0  0  0  0  0  0  0  0  0  0  0
   -2.6141   -0.8275    0.8454 N   0  0  0  0  0  0  0  0  0  0  0  0
   -2.9690    0.3029    1.6999 C   0  0  0  0  0  0  0  0  0  0  0  0
   -3.4135    1.5363    0.8925 C   0  0  0  0  0  0  0  0  0  0  0  0
   -4.4334    1.3241   -0.2384 C   0  0  0  0  0  0  0  0  0  0  0  0
   -5.8883    1.5769    0.1543 C   0  0  0  0  0  0  0  0  0  0  0  0
   -6.6867    0.3372    0.5552 C   0  0  0  0  0  0  0  0  0  0  0  0
   -6.0224   -0.6211    1.5396 C   0  0  0  0  0  0  0  0  0  0  0  0
   -5.3896    0.0649    2.7442 C   0  0  0  0  0  0  0  0  0  0  0  0
   -3.8778   -0.1261    2.8673 C   0  0  0  0  0  0  0  0  0  0  0  0
    3.6836   -1.9493   -2.2335 C   0  0  0  0  0  0  0  0  0  0  0  0
    4.7837   -1.7694   -1.3873 C   0  0  0  0  0  0  0  0  0  0  0  0
    5.0383   -0.5254   -0.7832 C   0  0  0  0  0  0  0  0  0  0  0  0
    6.1463   -0.3174    0.0806 N   0  0  0  0  0  0  0  0  0  0  0  0
    7.0644   -1.4163    0.3536 C   0  0  0  0  0  0  0  0  0  0  0  0
    6.4002    0.9120    0.6824 C   0  0  0  0  0  0  0  0  0  0  0  0
    7.3698    1.0871    1.4246 O   0  0  0  0  0  0  0  0  0  0  0  0
    6.7323    3.6046    0.6496 H   0  0  0  0  0  0  0  0  0  0  0  0
    5.8732    3.0839    2.1144 H   0  0  0  0  0  0  0  0  0  0  0  0
    4.9975    3.9601    0.8378 H   0  0  0  0  0  0  0  0  0  0  0  0
    2.3998    1.2048   -2.1089 H   0  0  0  0  0  0  0  0  0  0  0  0
   -0.0190   -0.1079   -2.1034 H   0  0  0  0  0  0  0  0  0  0  0  0
    0.8334   -2.0262   -0.7407 H   0  0  0  0  0  0  0  0  0  0  0  0
    0.1230   -3.0987   -1.9701 H   0  0  0  0  0  0  0  0  0  0  0  0
   -2.1392   -2.0241   -1.5196 H   0  0  0  0  0  0  0  0  0  0  0  0
   -1.4606   -2.9649   -0.1693 H   0  0  0  0  0  0  0  0  0  0  0  0
   -3.3405   -1.4811    0.5864 H   0  0  0  0  0  0  0  0  0  0  0  0
   -2.0226    0.5935    2.1795 H   0  0  0  0  0  0  0  0  0  0  0  0
   -2.5092    1.9336    0.4090 H   0  0  0  0  0  0  0  0  0  0  0  0
   -3.7424    2.3307    1.5730 H   0  0  0  0  0  0  0  0  0  0  0  0
   -4.1917    2.0705   -1.0083 H   0  0  0  0  0  0  0  0  0  0  0  0
   -4.3175    0.3533   -0.7303 H   0  0  0  0  0  0  0  0  0  0  0  0
   -5.9477    2.3399    0.9386 H   0  0  0  0  0  0  0  0  0  0  0  0
   -6.4032    2.0170   -0.7104 H   0  0  0  0  0  0  0  0  0  0  0  0
   -7.6433    0.6725    0.9766 H   0  0  0  0  0  0  0  0  0  0  0  0
   -6.9417   -0.2287   -0.3498 H   0  0  0  0  0  0  0  0  0  0  0  0
   -6.7971   -1.3121    1.8976 H   0  0  0  0  0  0  0  0  0  0  0  0
   -5.3071   -1.2535    1.0099 H   0  0  0  0  0  0  0  0  0  0  0  0
   -5.6338    1.1313    2.7866 H   0  0  0  0  0  0  0  0  0  0  0  0
   -5.8408   -0.3603    3.6509 H   0  0  0  0  0  0  0  0  0  0  0  0
   -3.5702    0.4530    3.7494 H   0  0  0  0  0  0  0  0  0  0  0  0
   -3.6724   -1.1744    3.1233 H   0  0  0  0  0  0  0  0  0  0  0  0
    3.5131   -2.9203   -2.6953 H   0  0  0  0  0  0  0  0  0  0  0  0
    5.4306   -2.6269   -1.2222 H   0  0  0  0  0  0  0  0  0  0  0  0
    7.8705   -1.1260    1.0334 H   0  0  0  0  0  0  0  0  0  0  0  0
    7.5231   -1.7473   -0.5838 H   0  0  0  0  0  0  0  0  0  0  0  0
    6.5161   -2.2398    0.8225 H   0  0  0  0  0  0  0  0  0  0  0  0
  1  2  1  0
  2  3  1  0
  3  4  2  0
  3  5  1  0
  5  6  2  0
  6  7  1  0
  7  8  1  0
  8  9  2  0
  8 10  2  0
  8 11  1  0
 11 12  1  0
 12 13  1  0
 13 14  1  0
 14 15  2  0
 14 16  1  0
 16 17  1  0
 17 18  1  0
 18 19  1  0
 19 20  1  0
 20 21  1  0
 21 22  1  0
 22 23  1  0
 23 24  1  0
  7 25  2  0
 25 26  1  0
 26 27  2  0
 27 28  1  0
 28 29  1  0
 28 30  1  0
 30 31  2  0
 30  2  1  0
 27  5  1  0
 24 17  1  0
  1 32  1  0
  1 33  1  0
  1 34  1  0
  6 35  1  0
 11 36  1  0
 12 37  1  0
 12 38  1  0
 13 39  1  0
 13 40  1  0
 16 41  1  0
 17 42  1  0
 18 43  1  0
 18 44  1  0
 19 45  1  0
 19 46  1  0
 20 47  1  0
 20 48  1  0
 21 49  1  0
 21 50  1  0
 22 51  1  0
 22 52  1  0
 23 53  1  0
 23 54  1  0
 24 55  1  0
 24 56  1  0
 25 57  1  0
 26 58  1  0
 29 59  1  0
 29 60  1  0
 29 61  1  0
M  END
$$$$
