
     RDKit          3D

 43 45  0  0  0  0  0  0  0  0999 V2000
   -0.2777   -3.6188   -1.5636 C   0  0  0  0  0  0  0  0  0  0  0  0
   -0.2851   -3.1436   -0.1344 C   0  0  0  0  0  0  0  0  0  0  0  0
   -1.0140   -3.6546    0.7155 O   0  0  0  0  0  0  0  0  0  0  0  0
    0.6162   -2.0181    0.2101 C   0  0  0  0  0  0  0  0  0  0  0  0
    0.1900   -0.7468    0.0157 C   0  0  0  0  0  0  0  0  0  0  0  0
   -1.0914   -0.3888   -0.4202 N   0  0  0  0  0  0  0  0  0  0  0  0
   -1.3220    0.7599   -1.3259 C   0  0  0  0  0  0  0  0  0  0  0  0
   -2.7343    0.7042   -1.9434 C   0  0  0  0  0  0  0  0  0  0  0  0
   -3.8102    0.8102   -0.9358 N   0  0  0  0  0  0  0  0  0  0  0  0
   -5.0548    0.2469   -1.4540 C   0  0  0  0  0  0  0  0  0  0  0  0
   -3.4157    0.1827    0.3443 C   0  0  0  0  0  0  0  0  0  0  0  0
   -2.3223   -0.9047    0.2387 C   0  0  0  0  0  0  0  0  0  0  0  0
    1.0996    0.2591    0.2574 N   0  0  0  0  0  0  0  0  0  0  0  0
    2.3318    0.0331    0.8124 C   0  0  0  0  0  0  0  0  0  0  0  0
    3.1863    1.1963    1.2107 C   0  0  0  0  0  0  0  0  0  0  0  0
    3.0164    2.4539    0.6169 C   0  0  0  0  0  0  0  0  0  0  0  0
    3.8204    3.5271    1.0098 C   0  0  0  0  0  0  0  0  0  0  0  0
    4.7962    3.3488    1.9899 C   0  0  0  0  0  0  0  0  0  0  0  0
    4.9771    2.0967    2.5755 C   0  0  0  0  0  0  0  0  0  0  0  0
    4.1768    1.0213    2.1854 C   0  0  0  0  0  0  0  0  0  0  0  0
    2.7894   -1.1641    1.0186 N   0  0  0  0  0  0  0  0  0  0  0  0
    2.0315   -2.2632    0.6575 C   0  0  0  0  0  0  0  0  0  0  0  0
    2.7273   -3.8077    0.7335 S   0  0  0  0  0  0  0  0  0  0  0  0
   -1.2585   -3.4331   -2.0089 H   0  0  0  0  0  0  0  0  0  0  0  0
   -0.0511   -4.6880   -1.5866 H   0  0  0  0  0  0  0  0  0  0  0  0
    0.4788   -3.0916   -2.1518 H   0  0  0  0  0  0  0  0  0  0  0  0
   -0.5826    0.7388   -2.1354 H   0  0  0  0  0  0  0  0  0  0  0  0
   -1.1918    1.7010   -0.7775 H   0  0  0  0  0  0  0  0  0  0  0  0
   -2.8453    1.5236   -2.6627 H   0  0  0  0  0  0  0  0  0  0  0  0
   -2.8208   -0.2365   -2.5047 H   0  0  0  0  0  0  0  0  0  0  0  0
   -5.8759    0.4182   -0.7492 H   0  0  0  0  0  0  0  0  0  0  0  0
   -4.9766   -0.8308   -1.6374 H   0  0  0  0  0  0  0  0  0  0  0  0
   -5.3386    0.7383   -2.3913 H   0  0  0  0  0  0  0  0  0  0  0  0
   -3.0295    0.9868    0.9847 H   0  0  0  0  0  0  0  0  0  0  0  0
   -4.2866   -0.2218    0.8749 H   0  0  0  0  0  0  0  0  0  0  0  0
   -2.0917   -1.2521    1.2526 H   0  0  0  0  0  0  0  0  0  0  0  0
   -2.7096   -1.7531   -0.3370 H   0  0  0  0  0  0  0  0  0  0  0  0
    0.6739    1.1690    0.3674 H   0  0  0  0  0  0  0  0  0  0  0  0
    2.2865    2.6130   -0.1705 H   0  0  0  0  0  0  0  0  0  0  0  0
    3.6931    4.5020    0.5452 H   0  0  0  0  0  0  0  0  0  0  0  0
    5.4232    4.1842    2.2924 H   0  0  0  0  0  0  0  0  0  0  0  0
    5.7430    1.9543    3.3339 H   0  0  0  0  0  0  0  0  0  0  0  0
    4.3288    0.0480    2.6478 H   0  0  0  0  0  0  0  0  0  0  0  0
  1  2  1  0
  2  3  2  0
  2  4  1  0
  4  5  2  0
  5  6  1  0
  6  7  1  0
  7  8  1  0
  8  9  1  0
  9 10  1  0
  9 11  1  0
 11 12  1  0
  5 13  1  0
 13 14  1  0
 14 15  1  0
 15 16  2  0
 16 17  1  0
 17 18  2  0
 18 19  1  0
 19 20  2  0
 14 21  2  0
 21 22  1  0
 22 23  2  0
 22  4  1  0
 12  6  1  0
 20 15  1  0
  1 24  1  0
  1 25  1  0
  1 26  1  0
  7 27  1  0
  7 28  1  0
  8 29  1  0
  8 30  1  0
 10 31  1  0
 10 32  1  0
 10 33  1  0
 11 34  1  0
 11 35  1  0
 12 36  1  0
 12 37  1  0
 13 38  1  0
 16 39  1  0
 17 40  1  0
 18 41  1  0
 19 42  1  0
 20 43  1  0
M  END
$$$$
