
     RDKit          3D

 51 54  0  0  0  0  0  0  0  0999 V2000
   -2.5492   -3.1623   -4.4345 C   0  0  0  0  0  0  0  0  0  0  0  0
   -1.2993   -2.7446   -3.8997 O   0  0  0  0  0  0  0  0  0  0  0  0
   -1.3028   -1.6185   -3.1233 C   0  0  0  0  0  0  0  0  0  0  0  0
   -2.4267   -0.8618   -2.7791 C   0  0  0  0  0  0  0  0  0  0  0  0
   -2.2898    0.2704   -1.9699 C   0  0  0  0  0  0  0  0  0  0  0  0
   -1.0264    0.6345   -1.4994 C   0  0  0  0  0  0  0  0  0  0  0  0
   -0.8974    1.8283   -0.6383 C   0  0  0  0  0  0  0  0  0  0  0  0
   -0.9193    2.9859   -1.2185 N   0  0  0  0  0  0  0  0  0  0  0  0
   -0.7993    4.1352   -0.4312 C   0  0  0  0  0  0  0  0  0  0  0  0
   -0.8351    5.3854   -1.0536 C   0  0  0  0  0  0  0  0  0  0  0  0
   -0.7144    6.5590   -0.3038 C   0  0  0  0  0  0  0  0  0  0  0  0
   -0.5552    6.4906    1.0800 C   0  0  0  0  0  0  0  0  0  0  0  0
   -0.5173    5.2485    1.7124 C   0  0  0  0  0  0  0  0  0  0  0  0
   -0.6403    4.0802    0.9501 C   0  0  0  0  0  0  0  0  0  0  0  0
   -0.6060    2.7515    1.5825 C   0  0  0  0  0  0  0  0  0  0  0  0
   -0.4263    2.6606    2.7949 O   0  0  0  0  0  0  0  0  0  0  0  0
   -0.7710    1.6545    0.7379 N   0  0  0  0  0  0  0  0  0  0  0  0
   -0.7737    0.3367    1.3852 C   0  0  0  0  0  0  0  0  0  0  0  0
    0.6358   -0.1426    1.7465 C   0  0  0  0  0  0  0  0  0  0  0  0
    0.5728   -1.5491    1.9902 O   0  0  0  0  0  0  0  0  0  0  0  0
    1.7663   -2.2138    2.0998 C   0  0  0  0  0  0  0  0  0  0  0  0
    2.9947   -1.5978    2.3597 C   0  0  0  0  0  0  0  0  0  0  0  0
    4.1589   -2.3628    2.4652 C   0  0  0  0  0  0  0  0  0  0  0  0
    4.1025   -3.7466    2.3187 C   0  0  0  0  0  0  0  0  0  0  0  0
    2.8807   -4.3698    2.0690 C   0  0  0  0  0  0  0  0  0  0  0  0
    1.7041   -3.6128    1.9610 C   0  0  0  0  0  0  0  0  0  0  0  0
    0.3954   -4.3013    1.6884 C   0  0  0  0  0  0  0  0  0  0  0  0
    0.1058   -0.0993   -1.8542 C   0  0  0  0  0  0  0  0  0  0  0  0
   -0.0407   -1.2301   -2.6590 C   0  0  0  0  0  0  0  0  0  0  0  0
   -2.9775   -2.3945   -5.0882 H   0  0  0  0  0  0  0  0  0  0  0  0
   -3.2472   -3.4367   -3.6357 H   0  0  0  0  0  0  0  0  0  0  0  0
   -2.3709   -4.0554   -5.0422 H   0  0  0  0  0  0  0  0  0  0  0  0
   -3.4210   -1.1247   -3.1241 H   0  0  0  0  0  0  0  0  0  0  0  0
   -3.1635    0.8630   -1.7099 H   0  0  0  0  0  0  0  0  0  0  0  0
   -0.9573    5.4409   -2.1326 H   0  0  0  0  0  0  0  0  0  0  0  0
   -0.7443    7.5250   -0.8021 H   0  0  0  0  0  0  0  0  0  0  0  0
   -0.4610    7.4026    1.6645 H   0  0  0  0  0  0  0  0  0  0  0  0
   -0.3942    5.1907    2.7913 H   0  0  0  0  0  0  0  0  0  0  0  0
   -1.2765   -0.4054    0.7578 H   0  0  0  0  0  0  0  0  0  0  0  0
   -1.3757    0.3916    2.3016 H   0  0  0  0  0  0  0  0  0  0  0  0
    0.9855    0.3786    2.6448 H   0  0  0  0  0  0  0  0  0  0  0  0
    1.3224    0.0659    0.9177 H   0  0  0  0  0  0  0  0  0  0  0  0
    3.0779   -0.5247    2.5000 H   0  0  0  0  0  0  0  0  0  0  0  0
    5.1095   -1.8769    2.6696 H   0  0  0  0  0  0  0  0  0  0  0  0
    5.0084   -4.3415    2.4039 H   0  0  0  0  0  0  0  0  0  0  0  0
    2.8503   -5.4521    1.9605 H   0  0  0  0  0  0  0  0  0  0  0  0
   -0.0247   -3.9508    0.7396 H   0  0  0  0  0  0  0  0  0  0  0  0
   -0.3147   -4.1008    2.4982 H   0  0  0  0  0  0  0  0  0  0  0  0
    0.5186   -5.3883    1.6164 H   0  0  0  0  0  0  0  0  0  0  0  0
    1.0937    0.2005   -1.5174 H   0  0  0  0  0  0  0  0  0  0  0  0
    0.8356   -1.8152   -2.9322 H   0  0  0  0  0  0  0  0  0  0  0  0
  1  2  1  0
  2  3  1  0
  3  4  2  0
  4  5  1  0
  5  6  2  0
  6  7  1  0
  7  8  2  0
  8  9  1  0
  9 10  2  0
 10 11  1  0
 11 12  2  0
 12 13  1  0
 13 14  2  0
 14 15  1  0
 15 16  2  0
 15 17  1  0
 17 18  1  0
 18 19  1  0
 19 20  1  0
 20 21  1  0
 21 22  2  0
 22 23  1  0
 23 24  2  0
 24 25  1  0
 25 26  2  0
 26 27  1  0
  6 28  1  0
 28 29  2  0
 29  3  1  0
 17  7  1  0
 26 21  1  0
 14  9  1  0
  1 30  1  0
  1 31  1  0
  1 32  1  0
  4 33  1  0
  5 34  1  0
 10 35  1  0
 11 36  1  0
 12 37  1  0
 13 38  1  0
 18 39  1  0
 18 40  1  0
 19 41  1  0
 19 42  1  0
 22 43  1  0
 23 44  1  0
 24 45  1  0
 25 46  1  0
 27 47  1  0
 27 48  1  0
 27 49  1  0
 28 50  1  0
 29 51  1  0
M  END
$$$$
