
     RDKit          3D

 57 60  0  0  0  0  0  0  0  0999 V2000
    3.5504   -3.4101    0.3506 C   0  0  0  0  0  0  0  0  0  0  0  0
    3.8991   -2.8650   -1.0268 C   0  0  0  0  0  0  0  0  0  0  0  0
    4.9797   -1.8048   -0.9614 C   0  0  0  0  0  0  0  0  0  0  0  0
    6.3044   -2.2298   -1.1729 C   0  0  0  0  0  0  0  0  0  0  0  0
    7.3554   -1.3227   -1.1549 C   0  0  0  0  0  0  0  0  0  0  0  0
    7.1008    0.0173   -0.8894 C   0  0  0  0  0  0  0  0  0  0  0  0
    5.7936    0.4765   -0.6374 C   0  0  0  0  0  0  0  0  0  0  0  0
    5.6611    1.9236   -0.2421 C   0  0  0  0  0  0  0  0  0  0  0  0
    4.7139   -0.4310   -0.7231 C   0  0  0  0  0  0  0  0  0  0  0  0
    3.3653   -0.0487   -0.5140 N   0  0  0  0  0  0  0  0  0  0  0  0
    2.7579    1.1016   -0.9870 C   0  0  0  0  0  0  0  0  0  0  0  0
    3.2539    1.9375   -1.7317 O   0  0  0  0  0  0  0  0  0  0  0  0
    1.3259    1.2501   -0.5957 C   0  0  0  0  0  0  0  0  0  0  0  0
    0.8491    0.7771    0.6340 C   0  0  0  0  0  0  0  0  0  0  0  0
   -0.4993    0.9323    0.9687 C   0  0  0  0  0  0  0  0  0  0  0  0
   -1.3847    1.5646    0.0838 C   0  0  0  0  0  0  0  0  0  0  0  0
   -2.8449    1.7468    0.4508 C   0  0  0  0  0  0  0  0  0  0  0  0
   -3.7670    1.1279   -0.5148 N   0  0  0  0  0  0  0  0  0  0  0  0
   -3.6738   -0.3411   -0.5691 C   0  0  0  0  0  0  0  0  0  0  0  0
   -4.0805   -1.0559    0.7284 C   0  0  0  0  0  0  0  0  0  0  0  0
   -5.3153   -0.4632    1.3608 C   0  0  0  0  0  0  0  0  0  0  0  0
   -5.9472   -1.1299    2.4190 C   0  0  0  0  0  0  0  0  0  0  0  0
   -7.0677   -0.5726    3.0338 C   0  0  0  0  0  0  0  0  0  0  0  0
   -7.5629    0.6547    2.5997 C   0  0  0  0  0  0  0  0  0  0  0  0
   -6.9366    1.3293    1.5514 C   0  0  0  0  0  0  0  0  0  0  0  0
   -5.8022    0.7854    0.9317 C   0  0  0  0  0  0  0  0  0  0  0  0
   -5.1635    1.5098   -0.2350 C   0  0  0  0  0  0  0  0  0  0  0  0
   -0.8942    2.0512   -1.1376 C   0  0  0  0  0  0  0  0  0  0  0  0
    0.4525    1.8994   -1.4740 C   0  0  0  0  0  0  0  0  0  0  0  0
    3.1806   -2.6237    1.0163 H   0  0  0  0  0  0  0  0  0  0  0  0
    4.4247   -3.8665    0.8271 H   0  0  0  0  0  0  0  0  0  0  0  0
    2.7725   -4.1758    0.2673 H   0  0  0  0  0  0  0  0  0  0  0  0
    4.2337   -3.6938   -1.6641 H   0  0  0  0  0  0  0  0  0  0  0  0
    3.0049   -2.4726   -1.5245 H   0  0  0  0  0  0  0  0  0  0  0  0
    6.5213   -3.2782   -1.3672 H   0  0  0  0  0  0  0  0  0  0  0  0
    8.3727   -1.6593   -1.3339 H   0  0  0  0  0  0  0  0  0  0  0  0
    7.9376    0.7126   -0.8539 H   0  0  0  0  0  0  0  0  0  0  0  0
    6.5472    2.2508    0.3151 H   0  0  0  0  0  0  0  0  0  0  0  0
    4.8146    2.0872    0.4308 H   0  0  0  0  0  0  0  0  0  0  0  0
    5.5717    2.5579   -1.1283 H   0  0  0  0  0  0  0  0  0  0  0  0
    2.7217   -0.7960   -0.2979 H   0  0  0  0  0  0  0  0  0  0  0  0
    1.5191    0.3127    1.3529 H   0  0  0  0  0  0  0  0  0  0  0  0
   -0.8537    0.5655    1.9299 H   0  0  0  0  0  0  0  0  0  0  0  0
   -3.0219    1.3936    1.4739 H   0  0  0  0  0  0  0  0  0  0  0  0
   -3.0168    2.8317    0.4775 H   0  0  0  0  0  0  0  0  0  0  0  0
   -4.3251   -0.6905   -1.3826 H   0  0  0  0  0  0  0  0  0  0  0  0
   -2.6672   -0.6607   -0.8634 H   0  0  0  0  0  0  0  0  0  0  0  0
   -4.2538   -2.1158    0.5073 H   0  0  0  0  0  0  0  0  0  0  0  0
   -3.2606   -0.9980    1.4545 H   0  0  0  0  0  0  0  0  0  0  0  0
   -5.5679   -2.0870    2.7692 H   0  0  0  0  0  0  0  0  0  0  0  0
   -7.5554   -1.0965    3.8516 H   0  0  0  0  0  0  0  0  0  0  0  0
   -8.4395    1.0858    3.0761 H   0  0  0  0  0  0  0  0  0  0  0  0
   -7.3400    2.2829    1.2180 H   0  0  0  0  0  0  0  0  0  0  0  0
   -5.7655    1.2943   -1.1278 H   0  0  0  0  0  0  0  0  0  0  0  0
   -5.2277    2.5951   -0.0846 H   0  0  0  0  0  0  0  0  0  0  0  0
   -1.5675    2.5488   -1.8335 H   0  0  0  0  0  0  0  0  0  0  0  0
    0.8172    2.2852   -2.4240 H   0  0  0  0  0  0  0  0  0  0  0  0
  1  2  1  0
  2  3  1  0
  3  4  2  0
  4  5  1  0
  5  6  2  0
  6  7  1  0
  7  8  1  0
  7  9  2  0
  9 10  1  0
 10 11  1  0
 11 12  2  0
 11 13  1  0
 13 14  2  0
 14 15  1  0
 15 16  2  0
 16 17  1  0
 17 18  1  0
 18 19  1  0
 19 20  1  0
 20 21  1  0
 21 22  2  0
 22 23  1  0
 23 24  2  0
 24 25  1  0
 25 26  2  0
 26 27  1  0
 16 28  1  0
 28 29  2  0
  9  3  1  0
 29 13  1  0
 27 18  1  0
 26 21  1  0
  1 30  1  0
  1 31  1  0
  1 32  1  0
  2 33  1  0
  2 34  1  0
  4 35  1  0
  5 36  1  0
  6 37  1  0
  8 38  1  0
  8 39  1  0
  8 40  1  0
 10 41  1  0
 14 42  1  0
 15 43  1  0
 17 44  1  0
 17 45  1  0
 19 46  1  0
 19 47  1  0
 20 48  1  0
 20 49  1  0
 22 50  1  0
 23 51  1  0
 24 52  1  0
 25 53  1  0
 27 54  1  0
 27 55  1  0
 28 56  1  0
 29 57  1  0
M  END
$$$$
