
     RDKit          3D

 57 60  0  0  0  0  0  0  0  0999 V2000
   -1.0644    2.8955   -0.5066 O   0  0  0  0  0  0  0  0  0  0  0  0
   -1.7676    2.1914   -1.2215 C   0  0  0  0  0  0  0  0  0  0  0  0
   -1.2261    1.2784   -2.3064 C   0  0  0  0  0  0  0  0  0  0  0  0
    0.2868    1.0754   -2.2345 C   0  0  0  0  0  0  0  0  0  0  0  0
    0.7002    0.1915   -1.0533 C   0  0  0  0  0  0  0  0  0  0  0  0
    2.2071   -0.0699   -1.0570 C   0  0  0  0  0  0  0  0  0  0  0  0
    2.6226   -0.9478    0.1272 C   0  0  0  0  0  0  0  0  0  0  0  0
    4.0429   -1.2781    0.0775 N   0  0  0  0  0  0  0  0  0  0  0  0
    4.4222   -2.3956   -0.6497 C   0  0  0  0  0  0  0  0  0  0  0  0
    3.6373   -3.1343   -1.2435 O   0  0  0  0  0  0  0  0  0  0  0  0
    5.7586   -2.6729   -0.6998 N   0  0  0  0  0  0  0  0  0  0  0  0
    6.7369   -1.8938   -0.0903 C   0  0  0  0  0  0  0  0  0  0  0  0
    8.0806   -2.2544   -0.1921 C   0  0  0  0  0  0  0  0  0  0  0  0
    9.0560   -1.4627    0.4188 C   0  0  0  0  0  0  0  0  0  0  0  0
    8.6889   -0.3162    1.1260 C   0  0  0  0  0  0  0  0  0  0  0  0
    7.3437    0.0418    1.2247 C   0  0  0  0  0  0  0  0  0  0  0  0
    6.3689   -0.7533    0.6134 C   0  0  0  0  0  0  0  0  0  0  0  0
    4.9375   -0.4045    0.6941 C   0  0  0  0  0  0  0  0  0  0  0  0
    4.6050    0.6203    1.2847 O   0  0  0  0  0  0  0  0  0  0  0  0
   -3.1441    2.1691   -1.1441 N   0  0  0  0  0  0  0  0  0  0  0  0
   -3.8470    2.8489   -0.0701 C   0  0  0  0  0  0  0  0  0  0  0  0
   -3.7958    2.0824    1.2569 C   0  0  0  0  0  0  0  0  0  0  0  0
   -4.4209    0.7209    1.1715 C   0  0  0  0  0  0  0  0  0  0  0  0
   -3.7456   -0.4835    1.1145 C   0  0  0  0  0  0  0  0  0  0  0  0
   -4.6673   -1.4920    1.0441 N   0  0  0  0  0  0  0  0  0  0  0  0
   -5.9406   -0.9731    1.0447 C   0  0  0  0  0  0  0  0  0  0  0  0
   -7.1787   -1.6237    0.9812 C   0  0  0  0  0  0  0  0  0  0  0  0
   -8.3296   -0.8310    1.0081 C   0  0  0  0  0  0  0  0  0  0  0  0
   -8.2428    0.5559    1.0975 C   0  0  0  0  0  0  0  0  0  0  0  0
   -6.9966    1.1901    1.1611 C   0  0  0  0  0  0  0  0  0  0  0  0
   -5.8193    0.4142    1.1321 C   0  0  0  0  0  0  0  0  0  0  0  0
   -1.7372    0.3099   -2.2560 H   0  0  0  0  0  0  0  0  0  0  0  0
   -1.4772    1.7403   -3.2689 H   0  0  0  0  0  0  0  0  0  0  0  0
    0.6153    0.5997   -3.1668 H   0  0  0  0  0  0  0  0  0  0  0  0
    0.7992    2.0429   -2.1721 H   0  0  0  0  0  0  0  0  0  0  0  0
    0.4151    0.6672   -0.1080 H   0  0  0  0  0  0  0  0  0  0  0  0
    0.1650   -0.7645   -1.1067 H   0  0  0  0  0  0  0  0  0  0  0  0
    2.7507    0.8820   -1.0193 H   0  0  0  0  0  0  0  0  0  0  0  0
    2.4917   -0.5565   -1.9981 H   0  0  0  0  0  0  0  0  0  0  0  0
    2.0387   -1.8759    0.1258 H   0  0  0  0  0  0  0  0  0  0  0  0
    2.4000   -0.4315    1.0684 H   0  0  0  0  0  0  0  0  0  0  0  0
    6.0105   -3.4968   -1.2298 H   0  0  0  0  0  0  0  0  0  0  0  0
    8.3826   -3.1426   -0.7401 H   0  0  0  0  0  0  0  0  0  0  0  0
   10.1055   -1.7386    0.3429 H   0  0  0  0  0  0  0  0  0  0  0  0
    9.4501    0.2995    1.5997 H   0  0  0  0  0  0  0  0  0  0  0  0
    7.0581    0.9361    1.7745 H   0  0  0  0  0  0  0  0  0  0  0  0
   -3.6354    1.4065   -1.5940 H   0  0  0  0  0  0  0  0  0  0  0  0
   -3.4028    3.8416    0.0647 H   0  0  0  0  0  0  0  0  0  0  0  0
   -4.8808    2.9850   -0.4050 H   0  0  0  0  0  0  0  0  0  0  0  0
   -4.3146    2.6658    2.0274 H   0  0  0  0  0  0  0  0  0  0  0  0
   -2.7550    1.9833    1.5899 H   0  0  0  0  0  0  0  0  0  0  0  0
   -2.6860   -0.7038    1.1253 H   0  0  0  0  0  0  0  0  0  0  0  0
   -4.4510   -2.4782    1.0024 H   0  0  0  0  0  0  0  0  0  0  0  0
   -7.2500   -2.7044    0.9162 H   0  0  0  0  0  0  0  0  0  0  0  0
   -9.3070   -1.3058    0.9621 H   0  0  0  0  0  0  0  0  0  0  0  0
   -9.1507    1.1535    1.1211 H   0  0  0  0  0  0  0  0  0  0  0  0
   -6.9433    2.2719    1.2354 H   0  0  0  0  0  0  0  0  0  0  0  0
  1  2  2  0
  2  3  1  0
  3  4  1  0
  4  5  1  0
  5  6  1  0
  6  7  1  0
  7  8  1  0
  8  9  1  0
  9 10  2  0
  9 11  1  0
 11 12  1  0
 12 13  2  0
 13 14  1  0
 14 15  2  0
 15 16  1  0
 16 17  2  0
 17 18  1  0
 18 19  2  0
  2 20  1  0
 20 21  1  0
 21 22  1  0
 22 23  1  0
 23 24  2  0
 24 25  1  0
 25 26  1  0
 26 27  2  0
 27 28  1  0
 28 29  2  0
 29 30  1  0
 30 31  2  0
 18  8  1  0
 31 23  1  0
 17 12  1  0
 31 26  1  0
  3 32  1  0
  3 33  1  0
  4 34  1  0
  4 35  1  0
  5 36  1  0
  5 37  1  0
  6 38  1  0
  6 39  1  0
  7 40  1  0
  7 41  1  0
 11 42  1  0
 13 43  1  0
 14 44  1  0
 15 45  1  0
 16 46  1  0
 20 47  1  0
 21 48  1  0
 21 49  1  0
 22 50  1  0
 22 51  1  0
 24 52  1  0
 25 53  1  0
 27 54  1  0
 28 55  1  0
 29 56  1  0
 30 57  1  0
M  END
$$$$
