
     RDKit          3D

 58 61  0  0  0  0  0  0  0  0999 V2000
    1.8573    1.9511   -0.0305 O   0  0  0  0  0  0  0  0  0  0  0  0
    1.8906    0.7972   -0.4513 C   0  0  0  0  0  0  0  0  0  0  0  0
    3.0545   -0.1553   -0.2622 C   0  0  0  0  0  0  0  0  0  0  0  0
    4.2206    0.4993    0.4805 C   0  0  0  0  0  0  0  0  0  0  0  0
    5.3693   -0.4806    0.7959 C   0  0  0  0  0  0  0  0  0  0  0  0
    5.9477   -1.1127   -0.4862 C   0  0  0  0  0  0  0  0  0  0  0  0
    7.3803   -1.5917   -0.2847 C   0  0  0  0  0  0  0  0  0  0  0  0
    8.3179   -0.4331    0.0584 C   0  0  0  0  0  0  0  0  0  0  0  0
    7.6245    0.7079    0.8043 C   0  0  0  0  0  0  0  0  0  0  0  0
    6.4584    0.2059    1.6487 C   0  0  0  0  0  0  0  0  0  0  0  0
    0.8453    0.2333   -1.1623 N   0  0  0  0  0  0  0  0  0  0  0  0
   -0.3810    0.9443   -1.1413 N   0  0  0  0  0  0  0  0  0  0  0  0
   -1.4896    0.2066   -0.7654 C   0  0  0  0  0  0  0  0  0  0  0  0
   -1.4572   -1.0115   -0.6328 O   0  0  0  0  0  0  0  0  0  0  0  0
   -2.5875    1.0092   -0.5807 N   0  0  0  0  0  0  0  0  0  0  0  0
   -3.9281    0.5063   -0.2598 C   0  0  0  0  0  0  0  0  0  0  0  0
   -4.8714    1.7261   -0.0768 C   0  0  0  0  0  0  0  0  0  0  0  0
   -6.3026    1.2728    0.2532 C   0  0  0  0  0  0  0  0  0  0  0  0
   -6.8291    0.3930   -0.8917 C   0  0  0  0  0  0  0  0  0  0  0  0
   -5.9239   -0.8367   -1.0685 C   0  0  0  0  0  0  0  0  0  0  0  0
   -5.9023   -1.6433    0.2413 C   0  0  0  0  0  0  0  0  0  0  0  0
   -5.3759   -0.7697    1.3928 C   0  0  0  0  0  0  0  0  0  0  0  0
   -6.2855    0.4577    1.5554 C   0  0  0  0  0  0  0  0  0  0  0  0
   -3.9465   -0.3041    1.0621 C   0  0  0  0  0  0  0  0  0  0  0  0
   -4.4946   -0.3728   -1.4017 C   0  0  0  0  0  0  0  0  0  0  0  0
    2.6943   -1.0235    0.3023 H   0  0  0  0  0  0  0  0  0  0  0  0
    3.3735   -0.4960   -1.2532 H   0  0  0  0  0  0  0  0  0  0  0  0
    4.6009    1.3447   -0.1074 H   0  0  0  0  0  0  0  0  0  0  0  0
    3.8471    0.9235    1.4219 H   0  0  0  0  0  0  0  0  0  0  0  0
    4.9477   -1.2867    1.4126 H   0  0  0  0  0  0  0  0  0  0  0  0
    5.9302   -0.3901   -1.3119 H   0  0  0  0  0  0  0  0  0  0  0  0
    5.3198   -1.9571   -0.7936 H   0  0  0  0  0  0  0  0  0  0  0  0
    7.4031   -2.3329    0.5245 H   0  0  0  0  0  0  0  0  0  0  0  0
    7.7411   -2.1014   -1.1853 H   0  0  0  0  0  0  0  0  0  0  0  0
    9.1488   -0.8206    0.6595 H   0  0  0  0  0  0  0  0  0  0  0  0
    8.7658   -0.0319   -0.8588 H   0  0  0  0  0  0  0  0  0  0  0  0
    7.2553    1.4463    0.0811 H   0  0  0  0  0  0  0  0  0  0  0  0
    8.3541    1.2281    1.4358 H   0  0  0  0  0  0  0  0  0  0  0  0
    6.8449   -0.5179    2.3792 H   0  0  0  0  0  0  0  0  0  0  0  0
    6.0371    1.0313    2.2342 H   0  0  0  0  0  0  0  0  0  0  0  0
    0.7331   -0.7820   -1.1632 H   0  0  0  0  0  0  0  0  0  0  0  0
   -0.2963    1.8657   -0.7119 H   0  0  0  0  0  0  0  0  0  0  0  0
   -2.5534    1.8583   -1.1280 H   0  0  0  0  0  0  0  0  0  0  0  0
   -4.8810    2.3369   -0.9898 H   0  0  0  0  0  0  0  0  0  0  0  0
   -4.4945    2.3779    0.7229 H   0  0  0  0  0  0  0  0  0  0  0  0
   -6.9496    2.1487    0.3739 H   0  0  0  0  0  0  0  0  0  0  0  0
   -7.8567    0.0745   -0.6772 H   0  0  0  0  0  0  0  0  0  0  0  0
   -6.8627    0.9706   -1.8237 H   0  0  0  0  0  0  0  0  0  0  0  0
   -6.3073   -1.4629   -1.8820 H   0  0  0  0  0  0  0  0  0  0  0  0
   -6.9122   -2.0022    0.4759 H   0  0  0  0  0  0  0  0  0  0  0  0
   -5.2683   -2.5310    0.1243 H   0  0  0  0  0  0  0  0  0  0  0  0
   -5.3688   -1.3494    2.3227 H   0  0  0  0  0  0  0  0  0  0  0  0
   -7.3032    0.1388    1.8116 H   0  0  0  0  0  0  0  0  0  0  0  0
   -5.9290    1.0815    2.3842 H   0  0  0  0  0  0  0  0  0  0  0  0
   -3.2977   -1.1845    0.9959 H   0  0  0  0  0  0  0  0  0  0  0  0
   -3.5520    0.3069    1.8845 H   0  0  0  0  0  0  0  0  0  0  0  0
   -4.4954    0.1883   -2.3455 H   0  0  0  0  0  0  0  0  0  0  0  0
   -3.8600   -1.2516   -1.5681 H   0  0  0  0  0  0  0  0  0  0  0  0
  1  2  2  0
  2  3  1  0
  3  4  1  0
  4  5  1  0
  5  6  1  0
  6  7  1  0
  7  8  1  0
  8  9  1  0
  9 10  1  0
  2 11  1  0
 11 12  1  0
 12 13  1  0
 13 14  2  0
 13 15  1  0
 15 16  1  0
 16 17  1  0
 17 18  1  0
 18 19  1  0
 19 20  1  0
 20 21  1  0
 21 22  1  0
 22 23  1  0
 22 24  1  0
 20 25  1  0
 10  5  1  0
 24 16  1  0
 25 16  1  0
 23 18  1  0
  3 26  1  0
  3 27  1  0
  4 28  1  0
  4 29  1  0
  5 30  1  0
  6 31  1  0
  6 32  1  0
  7 33  1  0
  7 34  1  0
  8 35  1  0
  8 36  1  0
  9 37  1  0
  9 38  1  0
 10 39  1  0
 10 40  1  0
 11 41  1  0
 12 42  1  0
 15 43  1  0
 17 44  1  0
 17 45  1  0
 18 46  1  0
 19 47  1  0
 19 48  1  0
 20 49  1  0
 21 50  1  0
 21 51  1  0
 22 52  1  0
 23 53  1  0
 23 54  1  0
 24 55  1  0
 24 56  1  0
 25 57  1  0
 25 58  1  0
M  END
$$$$
