
     RDKit          3D

 47 48  0  0  0  0  0  0  0  0999 V2000
    4.3556    1.4560    3.1324 C   0  0  0  0  0  0  0  0  0  0  0  0
    4.3837    1.2572    1.6452 C   0  0  0  0  0  0  0  0  0  0  0  0
    3.2659    1.5861    0.8708 C   0  0  0  0  0  0  0  0  0  0  0  0
    3.2916    1.4246   -0.5164 C   0  0  0  0  0  0  0  0  0  0  0  0
    4.4372    0.9339   -1.1582 C   0  0  0  0  0  0  0  0  0  0  0  0
    4.4589    0.7547   -2.6565 C   0  0  0  0  0  0  0  0  0  0  0  0
    4.5194   -0.9776   -3.1846 S   0  0  0  0  0  0  0  0  0  0  0  0
    2.9154   -1.5176   -2.8005 C   0  0  0  0  0  0  0  0  0  0  0  0
    2.5592   -2.7874   -2.7712 N   0  0  0  0  0  0  0  0  0  0  0  0
    1.2207   -2.8217   -2.4391 N   0  0  0  0  0  0  0  0  0  0  0  0
    0.8487   -1.5682   -2.2917 C   0  0  0  0  0  0  0  0  0  0  0  0
   -0.4690   -0.9980   -1.9330 C   0  0  0  0  0  0  0  0  0  0  0  0
   -1.4375   -2.0756   -1.4479 C   0  0  0  0  0  0  0  0  0  0  0  0
   -2.7528   -1.5517   -1.1380 N   0  0  0  0  0  0  0  0  0  0  0  0
   -3.0041   -0.8146   -0.0198 C   0  0  0  0  0  0  0  0  0  0  0  0
   -2.1513   -0.4086    0.7531 O   0  0  0  0  0  0  0  0  0  0  0  0
   -4.3388   -0.6276    0.0822 O   0  0  0  0  0  0  0  0  0  0  0  0
   -4.9026    0.0926    1.2095 C   0  0  0  0  0  0  0  0  0  0  0  0
   -4.4290    1.5508    1.2333 C   0  0  0  0  0  0  0  0  0  0  0  0
   -6.4203    0.0722    0.9647 C   0  0  0  0  0  0  0  0  0  0  0  0
   -4.6109   -0.6278    2.5322 C   0  0  0  0  0  0  0  0  0  0  0  0
    1.8635   -0.6808   -2.5254 O   0  0  0  0  0  0  0  0  0  0  0  0
    5.5619    0.6221   -0.3799 C   0  0  0  0  0  0  0  0  0  0  0  0
    5.5354    0.7854    1.0079 C   0  0  0  0  0  0  0  0  0  0  0  0
    3.3907    1.1396    3.5443 H   0  0  0  0  0  0  0  0  0  0  0  0
    4.5190    2.5118    3.3716 H   0  0  0  0  0  0  0  0  0  0  0  0
    5.1318    0.8641    3.6289 H   0  0  0  0  0  0  0  0  0  0  0  0
    2.3640    1.9657    1.3473 H   0  0  0  0  0  0  0  0  0  0  0  0
    2.4035    1.6825   -1.0892 H   0  0  0  0  0  0  0  0  0  0  0  0
    3.6026    1.2535   -3.1270 H   0  0  0  0  0  0  0  0  0  0  0  0
    5.3504    1.2579   -3.0502 H   0  0  0  0  0  0  0  0  0  0  0  0
   -0.3315   -0.2306   -1.1611 H   0  0  0  0  0  0  0  0  0  0  0  0
   -0.8904   -0.4919   -2.8102 H   0  0  0  0  0  0  0  0  0  0  0  0
   -1.5779   -2.8421   -2.2185 H   0  0  0  0  0  0  0  0  0  0  0  0
   -1.0482   -2.5718   -0.5503 H   0  0  0  0  0  0  0  0  0  0  0  0
   -3.5696   -1.9047   -1.6196 H   0  0  0  0  0  0  0  0  0  0  0  0
   -4.5740    2.0231    0.2554 H   0  0  0  0  0  0  0  0  0  0  0  0
   -4.9719    2.1342    1.9851 H   0  0  0  0  0  0  0  0  0  0  0  0
   -3.3632    1.6305    1.4642 H   0  0  0  0  0  0  0  0  0  0  0  0
   -6.9684    0.5931    1.7568 H   0  0  0  0  0  0  0  0  0  0  0  0
   -6.6671    0.5433    0.0048 H   0  0  0  0  0  0  0  0  0  0  0  0
   -6.7925   -0.9587    0.9081 H   0  0  0  0  0  0  0  0  0  0  0  0
   -5.1788   -0.1877    3.3605 H   0  0  0  0  0  0  0  0  0  0  0  0
   -4.8672   -1.6909    2.4593 H   0  0  0  0  0  0  0  0  0  0  0  0
   -3.5500   -0.5774    2.7992 H   0  0  0  0  0  0  0  0  0  0  0  0
    6.4690    0.2432   -0.8483 H   0  0  0  0  0  0  0  0  0  0  0  0
    6.4188    0.5348    1.5902 H   0  0  0  0  0  0  0  0  0  0  0  0
  1  2  1  0
  2  3  2  0
  3  4  1  0
  4  5  2  0
  5  6  1  0
  6  7  1  0
  7  8  1  0
  8  9  2  0
  9 10  1  0
 10 11  2  0
 11 12  1  0
 12 13  1  0
 13 14  1  0
 14 15  1  0
 15 16  2  0
 15 17  1  0
 17 18  1  0
 18 19  1  0
 18 20  1  0
 18 21  1  0
 11 22  1  0
  5 23  1  0
 23 24  2  0
 24  2  1  0
 22  8  1  0
  1 25  1  0
  1 26  1  0
  1 27  1  0
  3 28  1  0
  4 29  1  0
  6 30  1  0
  6 31  1  0
 12 32  1  0
 12 33  1  0
 13 34  1  0
 13 35  1  0
 14 36  1  0
 19 37  1  0
 19 38  1  0
 19 39  1  0
 20 40  1  0
 20 41  1  0
 20 42  1  0
 21 43  1  0
 21 44  1  0
 21 45  1  0
 23 46  1  0
 24 47  1  0
M  END
$$$$
