
     RDKit          3D

 44 46  0  0  0  0  0  0  0  0999 V2000
    8.8827   -0.1653    0.1515 C   0  0  0  0  0  0  0  0  0  0  0  0
    7.8977   -1.1625    0.3930 O   0  0  0  0  0  0  0  0  0  0  0  0
    6.5898   -0.7946    0.2444 C   0  0  0  0  0  0  0  0  0  0  0  0
    6.1294    0.4671   -0.1294 C   0  0  0  0  0  0  0  0  0  0  0  0
    4.7543    0.7167   -0.2470 C   0  0  0  0  0  0  0  0  0  0  0  0
    3.8232   -0.2941    0.0089 C   0  0  0  0  0  0  0  0  0  0  0  0
    2.4648   -0.1453   -0.0806 O   0  0  0  0  0  0  0  0  0  0  0  0
    1.9531    1.1397   -0.4232 C   0  0  0  0  0  0  0  0  0  0  0  0
    0.4760    1.0347   -0.4133 C   0  0  0  0  0  0  0  0  0  0  0  0
   -0.4357    0.2416    0.2384 C   0  0  0  0  0  0  0  0  0  0  0  0
   -1.7052    0.6882   -0.2177 C   0  0  0  0  0  0  0  0  0  0  0  0
   -3.0125    0.1761    0.2288 C   0  0  0  0  0  0  0  0  0  0  0  0
   -3.0913   -0.3916    1.3187 O   0  0  0  0  0  0  0  0  0  0  0  0
   -4.1459    0.3581   -0.5814 N   0  0  0  0  0  0  0  0  0  0  0  0
   -4.0651    0.6607   -2.0058 C   0  0  0  0  0  0  0  0  0  0  0  0
   -5.4906    0.1293   -0.0480 C   0  0  0  0  0  0  0  0  0  0  0  0
   -5.8374   -1.3135    0.2550 C   0  0  0  0  0  0  0  0  0  0  0  0
   -7.0733   -1.1614    1.1196 C   0  0  0  0  0  0  0  0  0  0  0  0
   -6.9866    0.1054    1.7903 O   0  0  0  0  0  0  0  0  0  0  0  0
   -5.8545    0.8215    1.2634 C   0  0  0  0  0  0  0  0  0  0  0  0
   -1.5534    1.7227   -1.0645 N   0  0  0  0  0  0  0  0  0  0  0  0
   -0.1936    1.9220   -1.1949 O   0  0  0  0  0  0  0  0  0  0  0  0
    4.2956   -1.5613    0.3836 C   0  0  0  0  0  0  0  0  0  0  0  0
    3.2058   -2.8635    0.7165 Cl  0  0  0  0  0  0  0  0  0  0  0  0
    5.6658   -1.8075    0.4999 C   0  0  0  0  0  0  0  0  0  0  0  0
    8.7792    0.6693    0.8527 H   0  0  0  0  0  0  0  0  0  0  0  0
    9.8649   -0.6188    0.3157 H   0  0  0  0  0  0  0  0  0  0  0  0
    8.8453    0.1824   -0.8862 H   0  0  0  0  0  0  0  0  0  0  0  0
    6.8137    1.2836   -0.3387 H   0  0  0  0  0  0  0  0  0  0  0  0
    4.4518    1.7161   -0.5433 H   0  0  0  0  0  0  0  0  0  0  0  0
    2.2621    1.8871    0.3166 H   0  0  0  0  0  0  0  0  0  0  0  0
    2.2959    1.4280   -1.4237 H   0  0  0  0  0  0  0  0  0  0  0  0
   -0.2287   -0.5512    0.9435 H   0  0  0  0  0  0  0  0  0  0  0  0
   -4.2252    1.7332   -2.1463 H   0  0  0  0  0  0  0  0  0  0  0  0
   -4.8435    0.1061   -2.5402 H   0  0  0  0  0  0  0  0  0  0  0  0
   -3.1081    0.3554   -2.4339 H   0  0  0  0  0  0  0  0  0  0  0  0
   -6.2075    0.4938   -0.7982 H   0  0  0  0  0  0  0  0  0  0  0  0
   -5.0491   -1.8138    0.8265 H   0  0  0  0  0  0  0  0  0  0  0  0
   -6.0214   -1.9136   -0.6412 H   0  0  0  0  0  0  0  0  0  0  0  0
   -7.9818   -1.1498    0.5082 H   0  0  0  0  0  0  0  0  0  0  0  0
   -7.1655   -1.9619    1.8593 H   0  0  0  0  0  0  0  0  0  0  0  0
   -6.1287    1.8700    1.1114 H   0  0  0  0  0  0  0  0  0  0  0  0
   -5.0667    0.7885    2.0198 H   0  0  0  0  0  0  0  0  0  0  0  0
    6.0205   -2.7930    0.7914 H   0  0  0  0  0  0  0  0  0  0  0  0
  1  2  1  0
  2  3  1  0
  3  4  2  0
  4  5  1  0
  5  6  2  0
  6  7  1  0
  7  8  1  0
  8  9  1  0
  9 10  2  0
 10 11  1  0
 11 12  1  0
 12 13  2  0
 12 14  1  0
 14 15  1  0
 14 16  1  0
 16 17  1  0
 17 18  1  0
 18 19  1  0
 19 20  1  0
 11 21  2  0
 21 22  1  0
  6 23  1  0
 23 24  1  0
 23 25  2  0
 25  3  1  0
 22  9  1  0
 20 16  1  0
  1 26  1  0
  1 27  1  0
  1 28  1  0
  4 29  1  0
  5 30  1  0
  8 31  1  0
  8 32  1  0
 10 33  1  0
 15 34  1  0
 15 35  1  0
 15 36  1  0
 16 37  1  0
 17 38  1  0
 17 39  1  0
 18 40  1  0
 18 41  1  0
 20 42  1  0
 20 43  1  0
 25 44  1  0
M  END
$$$$
