
     RDKit          3D

 41 44  0  0  0  0  0  0  0  0999 V2000
    1.5368    1.0848   -3.2944 O   0  0  0  0  0  0  0  0  0  0  0  0
    1.4427    0.6758   -2.1381 C   0  0  0  0  0  0  0  0  0  0  0  0
    2.6081    0.2680   -1.3864 C   0  0  0  0  0  0  0  0  0  0  0  0
    3.2633    1.3203   -0.2185 S   0  0  0  0  0  0  0  0  0  0  0  0
    4.5357    0.2251    0.1640 C   0  0  0  0  0  0  0  0  0  0  0  0
    5.5483    0.4140    1.1256 C   0  0  0  0  0  0  0  0  0  0  0  0
    6.5090   -0.5829    1.3039 C   0  0  0  0  0  0  0  0  0  0  0  0
    6.4691   -1.7427    0.5446 C   0  0  0  0  0  0  0  0  0  0  0  0
    5.4635   -1.9260   -0.4093 C   0  0  0  0  0  0  0  0  0  0  0  0
    4.4689   -0.9341   -0.6163 C   0  0  0  0  0  0  0  0  0  0  0  0
    3.3480   -0.8839   -1.5186 C   0  0  0  0  0  0  0  0  0  0  0  0
    2.9798   -2.1593   -2.6093 Cl  0  0  0  0  0  0  0  0  0  0  0  0
    0.2043    0.5814   -1.5038 N   0  0  0  0  0  0  0  0  0  0  0  0
   -0.0268   -0.0298   -0.1894 C   0  0  0  0  0  0  0  0  0  0  0  0
   -1.4375   -0.6329   -0.0415 C   0  0  0  0  0  0  0  0  0  0  0  0
   -2.4870    0.3482   -0.3564 N   0  0  0  0  0  0  0  0  0  0  0  0
   -3.7428    0.2873    0.2389 C   0  0  0  0  0  0  0  0  0  0  0  0
   -4.2414   -0.9223    0.7577 C   0  0  0  0  0  0  0  0  0  0  0  0
   -5.5058   -1.0143    1.3573 C   0  0  0  0  0  0  0  0  0  0  0  0
   -6.3175    0.1094    1.4571 C   0  0  0  0  0  0  0  0  0  0  0  0
   -5.8622    1.3215    0.9548 C   0  0  0  0  0  0  0  0  0  0  0  0
   -4.6009    1.4017    0.3581 C   0  0  0  0  0  0  0  0  0  0  0  0
   -4.2164    2.6124   -0.0799 F   0  0  0  0  0  0  0  0  0  0  0  0
   -2.1340    1.4530   -1.2660 C   0  0  0  0  0  0  0  0  0  0  0  0
   -0.9840    1.0619   -2.2112 C   0  0  0  0  0  0  0  0  0  0  0  0
    5.5853    1.3234    1.7196 H   0  0  0  0  0  0  0  0  0  0  0  0
    7.2958   -0.4453    2.0422 H   0  0  0  0  0  0  0  0  0  0  0  0
    7.2235   -2.5129    0.6875 H   0  0  0  0  0  0  0  0  0  0  0  0
    5.4505   -2.8408   -0.9982 H   0  0  0  0  0  0  0  0  0  0  0  0
    0.7183   -0.8067    0.0056 H   0  0  0  0  0  0  0  0  0  0  0  0
    0.1116    0.7647    0.5537 H   0  0  0  0  0  0  0  0  0  0  0  0
   -1.5301   -0.9953    0.9892 H   0  0  0  0  0  0  0  0  0  0  0  0
   -1.5416   -1.4910   -0.7165 H   0  0  0  0  0  0  0  0  0  0  0  0
   -3.6597   -1.8370    0.6801 H   0  0  0  0  0  0  0  0  0  0  0  0
   -5.8531   -1.9715    1.7388 H   0  0  0  0  0  0  0  0  0  0  0  0
   -7.2975    0.0406    1.9209 H   0  0  0  0  0  0  0  0  0  0  0  0
   -6.4744    2.2151    1.0232 H   0  0  0  0  0  0  0  0  0  0  0  0
   -1.8343    2.3246   -0.6717 H   0  0  0  0  0  0  0  0  0  0  0  0
   -2.9900    1.7321   -1.8916 H   0  0  0  0  0  0  0  0  0  0  0  0
   -0.7200    1.9160   -2.8446 H   0  0  0  0  0  0  0  0  0  0  0  0
   -1.3054    0.2477   -2.8725 H   0  0  0  0  0  0  0  0  0  0  0  0
  1  2  2  0
  2  3  1  0
  3  4  1  0
  4  5  1  0
  5  6  2  0
  6  7  1  0
  7  8  2  0
  8  9  1  0
  9 10  2  0
 10 11  1  0
 11 12  1  0
  2 13  1  0
 13 14  1  0
 14 15  1  0
 15 16  1  0
 16 17  1  0
 17 18  2  0
 18 19  1  0
 19 20  2  0
 20 21  1  0
 21 22  2  0
 22 23  1  0
 16 24  1  0
 24 25  1  0
 11  3  2  0
 25 13  1  0
 10  5  1  0
 22 17  1  0
  6 26  1  0
  7 27  1  0
  8 28  1  0
  9 29  1  0
 14 30  1  0
 14 31  1  0
 15 32  1  0
 15 33  1  0
 18 34  1  0
 19 35  1  0
 20 36  1  0
 21 37  1  0
 24 38  1  0
 24 39  1  0
 25 40  1  0
 25 41  1  0
M  END
$$$$
