
     RDKit          3D

 39 41  0  0  0  0  0  0  0  0999 V2000
    2.4447    2.4919   -1.8121 C   0  0  0  0  0  0  0  0  0  0  0  0
    1.8092    2.4081   -0.4486 C   0  0  0  0  0  0  0  0  0  0  0  0
    2.3513    2.8971    0.5423 O   0  0  0  0  0  0  0  0  0  0  0  0
    0.5085    1.7002   -0.3454 C   0  0  0  0  0  0  0  0  0  0  0  0
    0.4742    0.4540    0.1788 C   0  0  0  0  0  0  0  0  0  0  0  0
    1.5626   -0.2633    0.6644 N   0  0  0  0  0  0  0  0  0  0  0  0
    2.2319    0.1170    1.9343 C   0  0  0  0  0  0  0  0  0  0  0  0
    3.7587    0.1286    1.7692 C   0  0  0  0  0  0  0  0  0  0  0  0
    4.2986   -1.1423    1.3679 O   0  0  0  0  0  0  0  0  0  0  0  0
    3.3963   -1.9205    0.5693 C   0  0  0  0  0  0  0  0  0  0  0  0
    2.4052   -1.0733   -0.2407 C   0  0  0  0  0  0  0  0  0  0  0  0
   -0.7357   -0.1874    0.2167 N   0  0  0  0  0  0  0  0  0  0  0  0
   -1.8832    0.3382   -0.3071 C   0  0  0  0  0  0  0  0  0  0  0  0
   -3.1474   -0.4634   -0.2881 C   0  0  0  0  0  0  0  0  0  0  0  0
   -3.3407   -1.4921    0.6429 C   0  0  0  0  0  0  0  0  0  0  0  0
   -4.5276   -2.2300    0.6344 C   0  0  0  0  0  0  0  0  0  0  0  0
   -5.5247   -1.9422   -0.2970 C   0  0  0  0  0  0  0  0  0  0  0  0
   -5.3429   -0.9118   -1.2178 C   0  0  0  0  0  0  0  0  0  0  0  0
   -4.1592   -0.1715   -1.2123 C   0  0  0  0  0  0  0  0  0  0  0  0
   -1.9122    1.5226   -0.8411 N   0  0  0  0  0  0  0  0  0  0  0  0
   -0.7721    2.3080   -0.8552 C   0  0  0  0  0  0  0  0  0  0  0  0
   -0.8722    3.8914   -1.4544 S   0  0  0  0  0  0  0  0  0  0  0  0
    1.8636    1.9378   -2.5546 H   0  0  0  0  0  0  0  0  0  0  0  0
    2.5102    3.5384   -2.1200 H   0  0  0  0  0  0  0  0  0  0  0  0
    3.4455    2.0540   -1.7657 H   0  0  0  0  0  0  0  0  0  0  0  0
    1.8811    1.0884    2.2982 H   0  0  0  0  0  0  0  0  0  0  0  0
    1.9536   -0.6303    2.6870 H   0  0  0  0  0  0  0  0  0  0  0  0
    4.0656    0.8661    1.0200 H   0  0  0  0  0  0  0  0  0  0  0  0
    4.2379    0.4031    2.7142 H   0  0  0  0  0  0  0  0  0  0  0  0
    2.8580   -2.5985    1.2421 H   0  0  0  0  0  0  0  0  0  0  0  0
    4.0013   -2.5382   -0.1018 H   0  0  0  0  0  0  0  0  0  0  0  0
    2.9547   -0.4077   -0.9160 H   0  0  0  0  0  0  0  0  0  0  0  0
    1.7714   -1.7311   -0.8460 H   0  0  0  0  0  0  0  0  0  0  0  0
   -0.6846   -1.1392    0.5505 H   0  0  0  0  0  0  0  0  0  0  0  0
   -2.5975   -1.7172    1.4011 H   0  0  0  0  0  0  0  0  0  0  0  0
   -4.6804   -3.0237    1.3618 H   0  0  0  0  0  0  0  0  0  0  0  0
   -6.4492   -2.5146   -0.2992 H   0  0  0  0  0  0  0  0  0  0  0  0
   -6.1234   -0.6798   -1.9383 H   0  0  0  0  0  0  0  0  0  0  0  0
   -4.0311    0.6332   -1.9335 H   0  0  0  0  0  0  0  0  0  0  0  0
  1  2  1  0
  2  3  2  0
  2  4  1  0
  4  5  2  0
  5  6  1  0
  6  7  1  0
  7  8  1  0
  8  9  1  0
  9 10  1  0
 10 11  1  0
  5 12  1  0
 12 13  1  0
 13 14  1  0
 14 15  2  0
 15 16  1  0
 16 17  2  0
 17 18  1  0
 18 19  2  0
 13 20  2  0
 20 21  1  0
 21 22  2  0
 21  4  1  0
 11  6  1  0
 19 14  1  0
  1 23  1  0
  1 24  1  0
  1 25  1  0
  7 26  1  0
  7 27  1  0
  8 28  1  0
  8 29  1  0
 10 30  1  0
 10 31  1  0
 11 32  1  0
 11 33  1  0
 12 34  1  0
 15 35  1  0
 16 36  1  0
 17 37  1  0
 18 38  1  0
 19 39  1  0
M  END
$$$$
