
     RDKit          3D

 61 65  0  0  0  0  0  0  0  0999 V2000
    6.4122    3.0533    2.8040 C   0  0  0  0  0  0  0  0  0  0  0  0
    5.3190    2.1878    3.0842 O   0  0  0  0  0  0  0  0  0  0  0  0
    4.3782    2.0475    2.1016 C   0  0  0  0  0  0  0  0  0  0  0  0
    3.3098    1.2114    2.4309 C   0  0  0  0  0  0  0  0  0  0  0  0
    2.2761    0.9806    1.5195 C   0  0  0  0  0  0  0  0  0  0  0  0
    2.2940    1.5858    0.2575 C   0  0  0  0  0  0  0  0  0  0  0  0
    1.1859    1.3258   -0.7448 C   0  0  0  0  0  0  0  0  0  0  0  0
    1.4828    0.1982   -1.6282 N   0  0  0  0  0  0  0  0  0  0  0  0
    2.2529    0.4699   -2.7664 C   0  0  0  0  0  0  0  0  0  0  0  0
    2.4627    1.6124   -3.1841 O   0  0  0  0  0  0  0  0  0  0  0  0
    2.7674   -0.7476   -3.5528 C   0  0  0  0  0  0  0  0  0  0  0  0
    1.7478   -1.1899   -4.5971 C   0  0  0  0  0  0  0  0  0  0  0  0
    3.1285   -1.8438   -2.6604 N   0  0  0  0  0  0  0  0  0  0  0  0
    2.1726   -2.1495   -1.6950 C   0  0  0  0  0  0  0  0  0  0  0  0
    2.1628   -3.4291   -1.2988 N   0  0  0  0  0  0  0  0  0  0  0  0
    1.2812   -3.7324   -0.3463 C   0  0  0  0  0  0  0  0  0  0  0  0
    0.3769   -2.9020    0.1835 N   0  0  0  0  0  0  0  0  0  0  0  0
    0.3662   -1.6266   -0.2597 C   0  0  0  0  0  0  0  0  0  0  0  0
   -0.7253   -0.8313    0.1374 N   0  0  0  0  0  0  0  0  0  0  0  0
   -1.3448   -1.2312    1.4184 C   0  0  0  0  0  0  0  0  0  0  0  0
   -2.5501   -0.3204    1.7445 C   0  0  0  0  0  0  0  0  0  0  0  0
   -3.5654   -0.3456    0.6688 N   0  0  0  0  0  0  0  0  0  0  0  0
   -4.9012   -0.1410    0.9883 C   0  0  0  0  0  0  0  0  0  0  0  0
   -5.2736    0.7066    2.0464 C   0  0  0  0  0  0  0  0  0  0  0  0
   -6.6143    0.9387    2.3779 C   0  0  0  0  0  0  0  0  0  0  0  0
   -7.6266    0.3258    1.6508 C   0  0  0  0  0  0  0  0  0  0  0  0
   -7.2938   -0.5127    0.5939 C   0  0  0  0  0  0  0  0  0  0  0  0
   -5.9495   -0.7374    0.2693 C   0  0  0  0  0  0  0  0  0  0  0  0
   -3.1575   -0.9906   -0.5903 C   0  0  0  0  0  0  0  0  0  0  0  0
   -1.7010   -0.6255   -0.9696 C   0  0  0  0  0  0  0  0  0  0  0  0
    1.3250   -1.1631   -1.1756 C   0  0  0  0  0  0  0  0  0  0  0  0
    3.3727    2.4191   -0.0701 C   0  0  0  0  0  0  0  0  0  0  0  0
    4.4065    2.6503    0.8449 C   0  0  0  0  0  0  0  0  0  0  0  0
    6.0692    4.0774    2.6264 H   0  0  0  0  0  0  0  0  0  0  0  0
    7.0037    2.6811    1.9609 H   0  0  0  0  0  0  0  0  0  0  0  0
    7.0615    3.0686    3.6848 H   0  0  0  0  0  0  0  0  0  0  0  0
    3.2831    0.7325    3.4064 H   0  0  0  0  0  0  0  0  0  0  0  0
    1.4597    0.3221    1.8037 H   0  0  0  0  0  0  0  0  0  0  0  0
    0.2367    1.2246   -0.2226 H   0  0  0  0  0  0  0  0  0  0  0  0
    1.0526    2.2299   -1.3538 H   0  0  0  0  0  0  0  0  0  0  0  0
    3.6852   -0.4317   -4.0629 H   0  0  0  0  0  0  0  0  0  0  0  0
    2.1285   -2.0360   -5.1789 H   0  0  0  0  0  0  0  0  0  0  0  0
    1.5273   -0.3707   -5.2899 H   0  0  0  0  0  0  0  0  0  0  0  0
    0.7981   -1.4966   -4.1456 H   0  0  0  0  0  0  0  0  0  0  0  0
    3.5012   -2.6935   -3.0689 H   0  0  0  0  0  0  0  0  0  0  0  0
    1.2842   -4.7532    0.0203 H   0  0  0  0  0  0  0  0  0  0  0  0
   -1.6935   -2.2721    1.3859 H   0  0  0  0  0  0  0  0  0  0  0  0
   -0.6097   -1.1459    2.2277 H   0  0  0  0  0  0  0  0  0  0  0  0
   -2.9762   -0.6639    2.6952 H   0  0  0  0  0  0  0  0  0  0  0  0
   -2.2024    0.7115    1.8754 H   0  0  0  0  0  0  0  0  0  0  0  0
   -4.5150    1.2295    2.6230 H   0  0  0  0  0  0  0  0  0  0  0  0
   -6.8597    1.6055    3.1999 H   0  0  0  0  0  0  0  0  0  0  0  0
   -8.6679    0.5033    1.9036 H   0  0  0  0  0  0  0  0  0  0  0  0
   -8.0770   -0.9987    0.0176 H   0  0  0  0  0  0  0  0  0  0  0  0
   -5.7442   -1.4144   -0.5545 H   0  0  0  0  0  0  0  0  0  0  0  0
   -3.2559   -2.0791   -0.4933 H   0  0  0  0  0  0  0  0  0  0  0  0
   -3.7957   -0.6664   -1.4209 H   0  0  0  0  0  0  0  0  0  0  0  0
   -1.6745    0.4368   -1.2410 H   0  0  0  0  0  0  0  0  0  0  0  0
   -1.4323   -1.1911   -1.8716 H   0  0  0  0  0  0  0  0  0  0  0  0
    3.4177    2.8949   -1.0487 H   0  0  0  0  0  0  0  0  0  0  0  0
    5.2175    3.3023    0.5396 H   0  0  0  0  0  0  0  0  0  0  0  0
  1  2  1  0
  2  3  1  0
  3  4  2  0
  4  5  1  0
  5  6  2  0
  6  7  1  0
  7  8  1  0
  8  9  1  0
  9 10  2  0
  9 11  1  0
 11 12  1  0
 11 13  1  0
 13 14  1  0
 14 15  2  0
 15 16  1  0
 16 17  2  0
 17 18  1  0
 18 19  1  0
 19 20  1  0
 20 21  1  0
 21 22  1  0
 22 23  1  0
 23 24  2  0
 24 25  1  0
 25 26  2  0
 26 27  1  0
 27 28  2  0
 22 29  1  0
 29 30  1  0
 18 31  2  0
  6 32  1  0
 32 33  2  0
 33  3  1  0
 31  8  1  0
 31 14  1  0
 30 19  1  0
 28 23  1  0
  1 34  1  0
  1 35  1  0
  1 36  1  0
  4 37  1  0
  5 38  1  0
  7 39  1  0
  7 40  1  0
 11 41  1  0
 12 42  1  0
 12 43  1  0
 12 44  1  0
 13 45  1  0
 16 46  1  0
 20 47  1  0
 20 48  1  0
 21 49  1  0
 21 50  1  0
 24 51  1  0
 25 52  1  0
 26 53  1  0
 27 54  1  0
 28 55  1  0
 29 56  1  0
 29 57  1  0
 30 58  1  0
 30 59  1  0
 32 60  1  0
 33 61  1  0
M  END
$$$$
