
     RDKit          3D

 62 65  0  0  0  0  0  0  0  0999 V2000
   -2.0668   -1.2612    3.3656 C   0  0  0  0  0  0  0  0  0  0  0  0
   -2.2782   -0.4809    2.0966 C   0  0  0  0  0  0  0  0  0  0  0  0
   -3.5778    0.0034    1.8577 C   0  0  0  0  0  0  0  0  0  0  0  0
   -3.8968    0.7338    0.7130 C   0  0  0  0  0  0  0  0  0  0  0  0
   -5.1975    1.1387    0.6401 O   0  0  0  0  0  0  0  0  0  0  0  0
   -2.9321    1.0014   -0.2557 C   0  0  0  0  0  0  0  0  0  0  0  0
   -3.1624    1.7636   -1.5517 C   0  0  0  0  0  0  0  0  0  0  0  0
   -3.4590    3.2467   -1.3146 C   0  0  0  0  0  0  0  0  0  0  0  0
   -4.2054    1.1048   -2.4583 C   0  0  0  0  0  0  0  0  0  0  0  0
   -1.6281    0.5199   -0.0090 C   0  0  0  0  0  0  0  0  0  0  0  0
   -1.2586   -0.2021    1.1589 C   0  0  0  0  0  0  0  0  0  0  0  0
    0.2109   -0.6836    1.2873 C   0  0  0  0  0  0  0  0  0  0  0  0
    1.2458    0.3299    0.7099 C   0  0  0  0  0  0  0  0  0  0  0  0
    1.9774    0.0277   -0.4675 C   0  0  0  0  0  0  0  0  0  0  0  0
    2.9075    0.9134   -1.0497 C   0  0  0  0  0  0  0  0  0  0  0  0
    3.6238    0.5380   -2.3384 C   0  0  0  0  0  0  0  0  0  0  0  0
    4.7527   -0.4546   -2.0543 C   0  0  0  0  0  0  0  0  0  0  0  0
    2.6797   -0.0077   -3.4175 C   0  0  0  0  0  0  0  0  0  0  0  0
    3.1379    2.1216   -0.3923 C   0  0  0  0  0  0  0  0  0  0  0  0
    4.0619    3.0351   -0.8128 O   0  0  0  0  0  0  0  0  0  0  0  0
    2.4314    2.4616    0.7571 C   0  0  0  0  0  0  0  0  0  0  0  0
    1.4789    1.5916    1.3163 C   0  0  0  0  0  0  0  0  0  0  0  0
    0.8051    2.0423    2.5882 C   0  0  0  0  0  0  0  0  0  0  0  0
    0.6274   -0.8420    2.6752 O   0  0  0  0  0  0  0  0  0  0  0  0
    1.2198   -2.0424    2.9222 C   0  0  0  0  0  0  0  0  0  0  0  0
    1.7667   -2.3866    3.9498 O   0  0  0  0  0  0  0  0  0  0  0  0
    0.9961   -2.8598    1.7444 C   0  0  0  0  0  0  0  0  0  0  0  0
    1.2905   -4.2018    1.5698 C   0  0  0  0  0  0  0  0  0  0  0  0
    0.8976   -4.7990    0.3722 C   0  0  0  0  0  0  0  0  0  0  0  0
    0.2171   -4.0515   -0.6024 C   0  0  0  0  0  0  0  0  0  0  0  0
   -0.0661   -2.6969   -0.3954 C   0  0  0  0  0  0  0  0  0  0  0  0
    0.3489   -2.1000    0.7910 C   0  0  0  0  0  0  0  0  0  0  0  0
   -1.6293   -2.2390    3.1506 H   0  0  0  0  0  0  0  0  0  0  0  0
   -3.0144   -1.4563    3.8799 H   0  0  0  0  0  0  0  0  0  0  0  0
   -1.4369   -0.6999    4.0617 H   0  0  0  0  0  0  0  0  0  0  0  0
   -4.3710   -0.1876    2.5795 H   0  0  0  0  0  0  0  0  0  0  0  0
   -5.3073    1.7541   -0.0972 H   0  0  0  0  0  0  0  0  0  0  0  0
   -2.2253    1.7393   -2.1259 H   0  0  0  0  0  0  0  0  0  0  0  0
   -4.4188    3.4145   -0.8186 H   0  0  0  0  0  0  0  0  0  0  0  0
   -2.6822    3.7042   -0.6921 H   0  0  0  0  0  0  0  0  0  0  0  0
   -3.4847    3.7877   -2.2667 H   0  0  0  0  0  0  0  0  0  0  0  0
   -3.9579    0.0522   -2.6347 H   0  0  0  0  0  0  0  0  0  0  0  0
   -5.2165    1.1433   -2.0446 H   0  0  0  0  0  0  0  0  0  0  0  0
   -4.2338    1.6066   -3.4319 H   0  0  0  0  0  0  0  0  0  0  0  0
   -0.8663    0.7217   -0.7627 H   0  0  0  0  0  0  0  0  0  0  0  0
    1.8315   -0.9305   -0.9589 H   0  0  0  0  0  0  0  0  0  0  0  0
    4.0705    1.4386   -2.7758 H   0  0  0  0  0  0  0  0  0  0  0  0
    4.3703   -1.3964   -1.6440 H   0  0  0  0  0  0  0  0  0  0  0  0
    5.4647   -0.0422   -1.3304 H   0  0  0  0  0  0  0  0  0  0  0  0
    5.3041   -0.6870   -2.9719 H   0  0  0  0  0  0  0  0  0  0  0  0
    1.8398    0.6756   -3.5862 H   0  0  0  0  0  0  0  0  0  0  0  0
    2.2702   -0.9892   -3.1562 H   0  0  0  0  0  0  0  0  0  0  0  0
    3.2142   -0.1221   -4.3674 H   0  0  0  0  0  0  0  0  0  0  0  0
    4.7825    2.5582   -1.2538 H   0  0  0  0  0  0  0  0  0  0  0  0
    2.6426    3.4187    1.2309 H   0  0  0  0  0  0  0  0  0  0  0  0
   -0.2671    1.8399    2.5769 H   0  0  0  0  0  0  0  0  0  0  0  0
    1.2649    1.5546    3.4526 H   0  0  0  0  0  0  0  0  0  0  0  0
    0.9068    3.1244    2.7262 H   0  0  0  0  0  0  0  0  0  0  0  0
    1.7936   -4.7687    2.3474 H   0  0  0  0  0  0  0  0  0  0  0  0
    1.1047   -5.8527    0.1979 H   0  0  0  0  0  0  0  0  0  0  0  0
   -0.0982   -4.5341   -1.5261 H   0  0  0  0  0  0  0  0  0  0  0  0
   -0.5995   -2.1310   -1.1542 H   0  0  0  0  0  0  0  0  0  0  0  0
  1  2  1  0
  2  3  2  0
  3  4  1  0
  4  5  1  0
  4  6  2  0
  6  7  1  0
  7  8  1  0
  7  9  1  0
  6 10  1  0
 10 11  2  0
 11 12  1  0
 12 13  1  0
 13 14  2  0
 14 15  1  0
 15 16  1  0
 16 17  1  0
 16 18  1  0
 15 19  2  0
 19 20  1  0
 19 21  1  0
 21 22  2  0
 22 23  1  0
 12 24  1  0
 24 25  1  0
 25 26  2  0
 25 27  1  0
 27 28  2  0
 28 29  1  0
 29 30  2  0
 30 31  1  0
 31 32  2  0
 11  2  1  0
 32 12  1  0
 22 13  1  0
 32 27  1  0
  1 33  1  0
  1 34  1  0
  1 35  1  0
  3 36  1  0
  5 37  1  0
  7 38  1  0
  8 39  1  0
  8 40  1  0
  8 41  1  0
  9 42  1  0
  9 43  1  0
  9 44  1  0
 10 45  1  0
 14 46  1  0
 16 47  1  0
 17 48  1  0
 17 49  1  0
 17 50  1  0
 18 51  1  0
 18 52  1  0
 18 53  1  0
 20 54  1  0
 21 55  1  0
 23 56  1  0
 23 57  1  0
 23 58  1  0
 28 59  1  0
 29 60  1  0
 30 61  1  0
 31 62  1  0
M  END
$$$$
