
     RDKit          3D

 43 45  0  0  0  0  0  0  0  0999 V2000
    4.7958   -0.6724    2.0372 N   0  0  0  0  0  0  0  0  0  0  0  0
    4.1331   -0.4644    1.1067 C   0  0  0  0  0  0  0  0  0  0  0  0
    3.2855   -0.1930    0.0026 C   0  0  0  0  0  0  0  0  0  0  0  0
    1.9697   -0.4578   -0.0786 C   0  0  0  0  0  0  0  0  0  0  0  0
    1.1475   -1.0239    0.9373 C   0  0  0  0  0  0  0  0  0  0  0  0
    1.4207   -1.7370    2.0983 C   0  0  0  0  0  0  0  0  0  0  0  0
    0.1876   -2.0516    2.7237 C   0  0  0  0  0  0  0  0  0  0  0  0
   -0.8018   -1.5351    1.9199 C   0  0  0  0  0  0  0  0  0  0  0  0
   -2.2621   -1.5117    1.9748 C   0  0  0  0  0  0  0  0  0  0  0  0
   -2.9455   -2.1136    3.0448 C   0  0  0  0  0  0  0  0  0  0  0  0
   -4.3432   -2.0973    3.1091 C   0  0  0  0  0  0  0  0  0  0  0  0
   -5.0702   -1.4792    2.0914 C   0  0  0  0  0  0  0  0  0  0  0  0
   -6.8414   -1.4396    2.1604 S   0  0  0  0  0  6  0  0  0  0  0  0
   -7.2469   -2.7180    1.1424 N   0  0  0  0  0  0  0  0  0  0  0  0
   -7.2587   -1.8491    3.4815 O   0  0  0  0  0  0  0  0  0  0  0  0
   -7.2929   -0.2149    1.5453 O   0  0  0  0  0  0  0  0  0  0  0  0
   -4.4153   -0.8633    1.0243 C   0  0  0  0  0  0  0  0  0  0  0  0
   -3.0184   -0.8863    0.9689 C   0  0  0  0  0  0  0  0  0  0  0  0
   -0.2254   -0.9243    0.8465 O   0  0  0  0  0  0  0  0  0  0  0  0
    3.9280    0.4029   -1.2029 C   0  0  0  0  0  0  0  0  0  0  0  0
    4.8583   -0.1848   -1.7394 O   0  0  0  0  0  0  0  0  0  0  0  0
    3.3770    1.6180   -1.5702 N   0  0  0  0  0  0  0  0  0  0  0  0
    3.7416    2.4229   -2.6711 C   0  0  0  0  0  0  0  0  0  0  0  0
    3.0639    3.6403   -2.8237 C   0  0  0  0  0  0  0  0  0  0  0  0
    3.3610    4.4944   -3.8890 C   0  0  0  0  0  0  0  0  0  0  0  0
    4.3396    4.1395   -4.8127 C   0  0  0  0  0  0  0  0  0  0  0  0
    5.0180    2.9315   -4.6702 C   0  0  0  0  0  0  0  0  0  0  0  0
    4.7196    2.0757   -3.6045 C   0  0  0  0  0  0  0  0  0  0  0  0
    1.4382   -0.2164   -0.9982 H   0  0  0  0  0  0  0  0  0  0  0  0
    2.3951   -2.0224    2.4715 H   0  0  0  0  0  0  0  0  0  0  0  0
    0.0520   -2.5992    3.6458 H   0  0  0  0  0  0  0  0  0  0  0  0
   -2.3975   -2.5987    3.8497 H   0  0  0  0  0  0  0  0  0  0  0  0
   -4.8473   -2.5609    3.9547 H   0  0  0  0  0  0  0  0  0  0  0  0
   -7.7258   -3.4356    1.6894 H   0  0  0  0  0  0  0  0  0  0  0  0
   -6.4512   -3.0970    0.6310 H   0  0  0  0  0  0  0  0  0  0  0  0
   -4.9790   -0.3601    0.2407 H   0  0  0  0  0  0  0  0  0  0  0  0
   -2.5227   -0.4009    0.1300 H   0  0  0  0  0  0  0  0  0  0  0  0
    2.6525    2.0041   -0.9763 H   0  0  0  0  0  0  0  0  0  0  0  0
    2.2970    3.9461   -2.1173 H   0  0  0  0  0  0  0  0  0  0  0  0
    2.8302    5.4369   -3.9959 H   0  0  0  0  0  0  0  0  0  0  0  0
    4.5754    4.8017   -5.6418 H   0  0  0  0  0  0  0  0  0  0  0  0
    5.7840    2.6494   -5.3887 H   0  0  0  0  0  0  0  0  0  0  0  0
    5.2740    1.1450   -3.5369 H   0  0  0  0  0  0  0  0  0  0  0  0
  1  2  3  0
  2  3  1  0
  3  4  2  3
  4  5  1  0
  5  6  2  0
  6  7  1  0
  7  8  2  0
  8  9  1  0
  9 10  2  0
 10 11  1  0
 11 12  2  0
 12 13  1  0
 13 14  1  0
 13 15  2  0
 13 16  2  0
 12 17  1  0
 17 18  2  0
  8 19  1  0
  3 20  1  0
 20 21  2  0
 20 22  1  0
 22 23  1  0
 23 24  2  0
 24 25  1  0
 25 26  2  0
 26 27  1  0
 27 28  2  0
 19  5  1  0
 28 23  1  0
 18  9  1  0
  4 29  1  0
  6 30  1  0
  7 31  1  0
 10 32  1  0
 11 33  1  0
 14 34  1  0
 14 35  1  0
 17 36  1  0
 18 37  1  0
 22 38  1  0
 24 39  1  0
 25 40  1  0
 26 41  1  0
 27 42  1  0
 28 43  1  0
M  END
$$$$
