
     RDKit          3D

 52 55  0  0  0  0  0  0  0  0999 V2000
   -2.3961    4.8775    0.4539 C   0  0  0  0  0  0  0  0  0  0  0  0
   -2.8722    3.6683   -0.2924 C   0  0  0  0  0  0  0  0  0  0  0  0
   -2.9411    2.4161    0.3320 C   0  0  0  0  0  0  0  0  0  0  0  0
   -3.3576    1.2959   -0.3986 C   0  0  0  0  0  0  0  0  0  0  0  0
   -3.4520   -0.2885    0.3966 S   0  0  0  0  0  6  0  0  0  0  0  0
   -3.4376   -0.0996    1.8291 O   0  0  0  0  0  0  0  0  0  0  0  0
   -4.4879   -1.0504   -0.2647 O   0  0  0  0  0  0  0  0  0  0  0  0
   -1.9958   -0.9965   -0.0646 N   0  0  0  0  0  0  0  0  0  0  0  0
   -0.8123   -0.7450    0.7924 C   0  0  0  0  0  0  0  0  0  0  0  0
    0.5127   -1.1845    0.0818 C   0  0  0  0  0  0  0  0  0  0  0  0
    1.4633   -1.6890    1.1756 C   0  0  0  0  0  0  0  0  0  0  0  0
    2.0401   -0.7879    2.1065 C   0  0  0  0  0  0  0  0  0  0  0  0
    2.9005   -1.2397    3.1118 C   0  0  0  0  0  0  0  0  0  0  0  0
    3.1683   -2.5891    3.1656 C   0  0  0  0  0  0  0  0  0  0  0  0
    2.6161   -3.4731    2.2694 C   0  0  0  0  0  0  0  0  0  0  0  0
    1.7631   -3.0597    1.2674 C   0  0  0  0  0  0  0  0  0  0  0  0
    3.0090   -4.7554    2.4960 O   0  0  0  0  0  0  0  0  0  0  0  0
    3.8754   -4.5757    3.6361 C   0  0  0  0  0  0  0  0  0  0  0  0
    3.9783   -3.2034    4.0688 O   0  0  0  0  0  0  0  0  0  0  0  0
    1.1796   -0.1403   -0.7476 N   0  0  0  0  0  0  0  0  0  0  0  0
    2.3845   -0.6946   -1.4282 C   0  0  0  0  0  0  0  0  0  0  0  0
    2.7203    0.0269   -2.7427 C   0  0  0  0  0  0  0  0  0  0  0  0
    1.6747   -0.1103   -3.7150 O   0  0  0  0  0  0  0  0  0  0  0  0
    0.3646   -0.1274   -3.1311 C   0  0  0  0  0  0  0  0  0  0  0  0
    0.3139    0.5244   -1.7420 C   0  0  0  0  0  0  0  0  0  0  0  0
   -3.7242    1.4112   -1.7441 C   0  0  0  0  0  0  0  0  0  0  0  0
   -3.6441    2.6547   -2.3689 C   0  0  0  0  0  0  0  0  0  0  0  0
   -3.2149    3.7654   -1.6452 C   0  0  0  0  0  0  0  0  0  0  0  0
   -3.1345    4.9493   -2.2687 F   0  0  0  0  0  0  0  0  0  0  0  0
   -2.4739    4.7314    1.5364 H   0  0  0  0  0  0  0  0  0  0  0  0
   -1.3499    5.0831    0.2061 H   0  0  0  0  0  0  0  0  0  0  0  0
   -3.0036    5.7528    0.2004 H   0  0  0  0  0  0  0  0  0  0  0  0
   -2.6712    2.3148    1.3820 H   0  0  0  0  0  0  0  0  0  0  0  0
   -2.1436   -1.9526   -0.3882 H   0  0  0  0  0  0  0  0  0  0  0  0
   -0.7525    0.3128    1.0726 H   0  0  0  0  0  0  0  0  0  0  0  0
   -0.9589   -1.3274    1.7112 H   0  0  0  0  0  0  0  0  0  0  0  0
    0.2650   -2.0319   -0.5737 H   0  0  0  0  0  0  0  0  0  0  0  0
    1.8235    0.2769    2.0353 H   0  0  0  0  0  0  0  0  0  0  0  0
    3.3457   -0.5525    3.8224 H   0  0  0  0  0  0  0  0  0  0  0  0
    1.3471   -3.7849    0.5761 H   0  0  0  0  0  0  0  0  0  0  0  0
    3.4905   -5.1779    4.4671 H   0  0  0  0  0  0  0  0  0  0  0  0
    4.8768   -4.9370    3.3749 H   0  0  0  0  0  0  0  0  0  0  0  0
    2.2282   -1.7532   -1.6748 H   0  0  0  0  0  0  0  0  0  0  0  0
    3.2443   -0.6250   -0.7535 H   0  0  0  0  0  0  0  0  0  0  0  0
    2.9065    1.0942   -2.5740 H   0  0  0  0  0  0  0  0  0  0  0  0
    3.6306   -0.3950   -3.1809 H   0  0  0  0  0  0  0  0  0  0  0  0
    0.0263   -1.1690   -3.0837 H   0  0  0  0  0  0  0  0  0  0  0  0
   -0.3046    0.4008   -3.8179 H   0  0  0  0  0  0  0  0  0  0  0  0
   -0.7176    0.6249   -1.4114 H   0  0  0  0  0  0  0  0  0  0  0  0
    0.6775    1.5565   -1.8361 H   0  0  0  0  0  0  0  0  0  0  0  0
   -4.0652    0.5438   -2.3049 H   0  0  0  0  0  0  0  0  0  0  0  0
   -3.9148    2.7698   -3.4144 H   0  0  0  0  0  0  0  0  0  0  0  0
  1  2  1  0
  2  3  2  0
  3  4  1  0
  4  5  1  0
  5  6  2  0
  5  7  2  0
  5  8  1  0
  8  9  1  0
  9 10  1  0
 10 11  1  0
 11 12  2  0
 12 13  1  0
 13 14  2  0
 14 15  1  0
 15 16  2  0
 15 17  1  0
 17 18  1  0
 18 19  1  0
 10 20  1  0
 20 21  1  0
 21 22  1  0
 22 23  1  0
 23 24  1  0
 24 25  1  0
  4 26  2  0
 26 27  1  0
 27 28  2  0
 28 29  1  0
 28  2  1  0
 16 11  1  0
 25 20  1  0
 19 14  1  0
  1 30  1  0
  1 31  1  0
  1 32  1  0
  3 33  1  0
  8 34  1  0
  9 35  1  0
  9 36  1  0
 10 37  1  0
 12 38  1  0
 13 39  1  0
 16 40  1  0
 18 41  1  0
 18 42  1  0
 21 43  1  0
 21 44  1  0
 22 45  1  0
 22 46  1  0
 24 47  1  0
 24 48  1  0
 25 49  1  0
 25 50  1  0
 26 51  1  0
 27 52  1  0
M  END
$$$$
