
     RDKit          3D

 67 72  0  0  0  0  0  0  0  0999 V2000
   -1.8701    2.1229    2.0188 O   0  0  0  0  0  0  0  0  0  0  0  0
   -2.0298    1.2402    1.1726 C   0  0  0  0  0  0  0  0  0  0  0  0
   -0.8322    0.5729    0.4976 C   0  0  0  0  0  0  0  0  0  0  0  0
   -0.6938    1.0400   -0.9642 C   0  0  0  0  0  0  0  0  0  0  0  0
    0.6353    1.7392   -1.2390 C   0  0  0  0  0  0  0  0  0  0  0  0
    1.8312    0.9071   -0.7691 C   0  0  0  0  0  0  0  0  0  0  0  0
    1.5926    0.3311    0.5548 N   0  0  0  0  0  0  0  0  0  0  0  0
    2.6857   -0.1776    1.2566 C   0  0  0  0  0  0  0  0  0  0  0  0
    2.5571   -0.4211    2.5970 N   0  0  0  0  0  0  0  0  0  0  0  0
    3.5916   -0.9365    3.2915 C   0  0  0  0  0  0  0  0  0  0  0  0
    4.8115   -1.2729    2.8398 N   0  0  0  0  0  0  0  0  0  0  0  0
    4.9111   -1.0383    1.5227 C   0  0  0  0  0  0  0  0  0  0  0  0
    3.9419   -0.5133    0.6807 C   0  0  0  0  0  0  0  0  0  0  0  0
    4.4382   -0.4276   -0.6107 N   0  0  0  0  0  0  0  0  0  0  0  0
    5.6775   -0.8768   -0.5528 C   0  0  0  0  0  0  0  0  0  0  0  0
    5.9931   -1.2781    0.7229 N   0  0  0  0  0  0  0  0  0  0  0  0
    7.2559   -1.8415    1.1452 C   0  0  0  0  0  0  0  0  0  0  0  0
    8.4275   -0.8806    0.9618 C   0  0  0  0  0  0  0  0  0  0  0  0
    8.8974   -0.7456   -0.4888 C   0  0  0  0  0  0  0  0  0  0  0  0
    7.8897   -0.0947   -1.4395 C   0  0  0  0  0  0  0  0  0  0  0  0
    6.6391   -0.9369   -1.6904 C   0  0  0  0  0  0  0  0  0  0  0  0
    0.4452    0.8294    1.3155 C   0  0  0  0  0  0  0  0  0  0  0  0
   -3.3018    0.8598    0.7638 N   0  0  0  0  0  0  0  0  0  0  0  0
   -3.6097   -0.2640   -0.1301 C   0  0  0  0  0  0  0  0  0  0  0  0
   -5.0442   -0.8047    0.0367 C   0  0  0  0  0  0  0  0  0  0  0  0
   -6.0427    0.2639   -0.1137 N   0  0  0  0  0  0  0  0  0  0  0  0
   -7.3517   -0.0078   -0.4818 C   0  0  0  0  0  0  0  0  0  0  0  0
   -8.1946    0.9978   -0.9890 C   0  0  0  0  0  0  0  0  0  0  0  0
   -9.5158    0.7390   -1.3739 C   0  0  0  0  0  0  0  0  0  0  0  0
  -10.0345   -0.5454   -1.2583 C   0  0  0  0  0  0  0  0  0  0  0  0
   -9.2231   -1.5585   -0.7629 C   0  0  0  0  0  0  0  0  0  0  0  0
   -9.8516   -3.1551   -0.6107 Cl  0  0  0  0  0  0  0  0  0  0  0  0
   -7.9022   -1.2957   -0.3839 C   0  0  0  0  0  0  0  0  0  0  0  0
   -5.6525    1.6167    0.3282 C   0  0  0  0  0  0  0  0  0  0  0  0
   -4.4577    1.5861    1.2993 C   0  0  0  0  0  0  0  0  0  0  0  0
   -0.9893   -0.5115    0.5066 H   0  0  0  0  0  0  0  0  0  0  0  0
   -1.5097    1.7122   -1.2540 H   0  0  0  0  0  0  0  0  0  0  0  0
   -0.7699    0.1647   -1.6214 H   0  0  0  0  0  0  0  0  0  0  0  0
    0.7331    1.9549   -2.3091 H   0  0  0  0  0  0  0  0  0  0  0  0
    0.6412    2.7108   -0.7272 H   0  0  0  0  0  0  0  0  0  0  0  0
    2.0006    0.0975   -1.4899 H   0  0  0  0  0  0  0  0  0  0  0  0
    2.7112    1.5626   -0.7673 H   0  0  0  0  0  0  0  0  0  0  0  0
    3.4098   -1.1071    4.3494 H   0  0  0  0  0  0  0  0  0  0  0  0
    7.1722   -2.1084    2.2044 H   0  0  0  0  0  0  0  0  0  0  0  0
    7.4050   -2.7721    0.5860 H   0  0  0  0  0  0  0  0  0  0  0  0
    8.1808    0.1089    1.3656 H   0  0  0  0  0  0  0  0  0  0  0  0
    9.2728   -1.2596    1.5493 H   0  0  0  0  0  0  0  0  0  0  0  0
    9.8082   -0.1325   -0.4900 H   0  0  0  0  0  0  0  0  0  0  0  0
    9.1871   -1.7302   -0.8765 H   0  0  0  0  0  0  0  0  0  0  0  0
    7.6165    0.9010   -1.0673 H   0  0  0  0  0  0  0  0  0  0  0  0
    8.3944    0.0575   -2.4024 H   0  0  0  0  0  0  0  0  0  0  0  0
    6.1350   -0.5489   -2.5848 H   0  0  0  0  0  0  0  0  0  0  0  0
    6.9060   -1.9777   -1.9079 H   0  0  0  0  0  0  0  0  0  0  0  0
    0.3236    0.3234    2.2818 H   0  0  0  0  0  0  0  0  0  0  0  0
    0.5895    1.8951    1.5383 H   0  0  0  0  0  0  0  0  0  0  0  0
   -2.9032   -1.0811    0.0344 H   0  0  0  0  0  0  0  0  0  0  0  0
   -3.4728    0.1013   -1.1544 H   0  0  0  0  0  0  0  0  0  0  0  0
   -5.1526   -1.2625    1.0274 H   0  0  0  0  0  0  0  0  0  0  0  0
   -5.1895   -1.5848   -0.7197 H   0  0  0  0  0  0  0  0  0  0  0  0
   -7.8213    2.0106   -1.1258 H   0  0  0  0  0  0  0  0  0  0  0  0
  -10.1318    1.5428   -1.7690 H   0  0  0  0  0  0  0  0  0  0  0  0
  -11.0592   -0.7481   -1.5554 H   0  0  0  0  0  0  0  0  0  0  0  0
   -7.3154   -2.1160    0.0182 H   0  0  0  0  0  0  0  0  0  0  0  0
   -6.4823    2.1167    0.8421 H   0  0  0  0  0  0  0  0  0  0  0  0
   -5.3872    2.2115   -0.5544 H   0  0  0  0  0  0  0  0  0  0  0  0
   -4.7441    1.0824    2.2319 H   0  0  0  0  0  0  0  0  0  0  0  0
   -4.1723    2.6135    1.5539 H   0  0  0  0  0  0  0  0  0  0  0  0
  1  2  2  0
  2  3  1  0
  3  4  1  0
  4  5  1  0
  5  6  1  0
  6  7  1  0
  7  8  1  0
  8  9  2  0
  9 10  1  0
 10 11  2  0
 11 12  1  0
 12 13  2  0
 13 14  1  0
 14 15  2  0
 15 16  1  0
 16 17  1  0
 17 18  1  0
 18 19  1  0
 19 20  1  0
 20 21  1  0
  7 22  1  0
  2 23  1  0
 23 24  1  0
 24 25  1  0
 25 26  1  0
 26 27  1  0
 27 28  2  0
 28 29  1  0
 29 30  2  0
 30 31  1  0
 31 32  1  0
 31 33  2  0
 26 34  1  0
 34 35  1  0
 22  3  1  0
 35 23  1  0
 13  8  1  0
 21 15  1  0
 33 27  1  0
 16 12  1  0
  3 36  1  0
  4 37  1  0
  4 38  1  0
  5 39  1  0
  5 40  1  0
  6 41  1  0
  6 42  1  0
 10 43  1  0
 17 44  1  0
 17 45  1  0
 18 46  1  0
 18 47  1  0
 19 48  1  0
 19 49  1  0
 20 50  1  0
 20 51  1  0
 21 52  1  0
 21 53  1  0
 22 54  1  0
 22 55  1  0
 24 56  1  0
 24 57  1  0
 25 58  1  0
 25 59  1  0
 28 60  1  0
 29 61  1  0
 30 62  1  0
 33 63  1  0
 34 64  1  0
 34 65  1  0
 35 66  1  0
 35 67  1  0
M  END
$$$$
