
     RDKit          3D

 45 47  0  0  0  0  0  0  0  0999 V2000
   -1.8030    3.8185   -0.8788 C   0  0  0  0  0  0  0  0  0  0  0  0
   -0.7200    2.8256   -0.6418 C   0  0  0  0  0  0  0  0  0  0  0  0
    0.9208    3.3309   -0.6414 S   0  0  0  0  0  0  0  0  0  0  0  0
    1.4246    1.7547   -0.2686 C   0  0  0  0  0  0  0  0  0  0  0  0
    2.7311    1.3727   -0.0838 N   0  0  0  0  0  0  0  0  0  0  0  0
    3.9265    2.0407   -0.1473 C   0  0  0  0  0  0  0  0  0  0  0  0
    4.2697    3.6386   -0.5015 S   0  0  0  0  0  0  0  0  0  0  0  0
    5.0419    1.2595    0.1281 N   0  0  0  0  0  0  0  0  0  0  0  0
    5.1325   -0.0886    0.4582 C   0  0  0  0  0  0  0  0  0  0  0  0
    4.1294   -0.7971    0.5421 O   0  0  0  0  0  0  0  0  0  0  0  0
    6.4780   -0.5969    0.6929 C   0  0  0  0  0  0  0  0  0  0  0  0
    6.8235   -1.8944    1.0269 C   0  0  0  0  0  0  0  0  0  0  0  0
    8.2287   -2.0655    1.1884 C   0  0  0  0  0  0  0  0  0  0  0  0
    8.9161   -0.8929    0.9730 C   0  0  0  0  0  0  0  0  0  0  0  0
    7.8696    0.3997    0.5796 S   0  0  0  0  0  0  0  0  0  0  0  0
    0.4615    0.8721   -0.1507 N   0  0  0  0  0  0  0  0  0  0  0  0
   -0.7690    1.4640   -0.3921 C   0  0  0  0  0  0  0  0  0  0  0  0
   -1.9858    0.6668   -0.3278 C   0  0  0  0  0  0  0  0  0  0  0  0
   -2.1654   -0.2265    0.7337 C   0  0  0  0  0  0  0  0  0  0  0  0
   -3.3217   -1.0079    0.8193 C   0  0  0  0  0  0  0  0  0  0  0  0
   -4.3198   -0.9197   -0.1616 C   0  0  0  0  0  0  0  0  0  0  0  0
   -5.5820   -1.7610   -0.0935 C   0  0  0  0  0  0  0  0  0  0  0  0
   -5.2657   -3.2550   -0.1973 C   0  0  0  0  0  0  0  0  0  0  0  0
   -6.3933   -1.4616    1.1697 C   0  0  0  0  0  0  0  0  0  0  0  0
   -4.1266   -0.0372   -1.2341 C   0  0  0  0  0  0  0  0  0  0  0  0
   -2.9695    0.7446   -1.3193 C   0  0  0  0  0  0  0  0  0  0  0  0
   -2.0829    3.8304   -1.9370 H   0  0  0  0  0  0  0  0  0  0  0  0
   -2.6924    3.5782   -0.2876 H   0  0  0  0  0  0  0  0  0  0  0  0
   -1.4952    4.8315   -0.5982 H   0  0  0  0  0  0  0  0  0  0  0  0
    2.7832    0.3793    0.1408 H   0  0  0  0  0  0  0  0  0  0  0  0
    5.9170    1.7664    0.0794 H   0  0  0  0  0  0  0  0  0  0  0  0
    6.0918   -2.6861    1.1490 H   0  0  0  0  0  0  0  0  0  0  0  0
    8.7093   -3.0010    1.4493 H   0  0  0  0  0  0  0  0  0  0  0  0
    9.9847   -0.7328    1.0277 H   0  0  0  0  0  0  0  0  0  0  0  0
   -1.4000   -0.3195    1.5019 H   0  0  0  0  0  0  0  0  0  0  0  0
   -3.4289   -1.6906    1.6590 H   0  0  0  0  0  0  0  0  0  0  0  0
   -6.2184   -1.5053   -0.9512 H   0  0  0  0  0  0  0  0  0  0  0  0
   -4.6749   -3.6088    0.6547 H   0  0  0  0  0  0  0  0  0  0  0  0
   -6.1895   -3.8429   -0.2282 H   0  0  0  0  0  0  0  0  0  0  0  0
   -4.6991   -3.4728   -1.1095 H   0  0  0  0  0  0  0  0  0  0  0  0
   -6.6265   -0.3933    1.2413 H   0  0  0  0  0  0  0  0  0  0  0  0
   -5.8555   -1.7477    2.0802 H   0  0  0  0  0  0  0  0  0  0  0  0
   -7.3406   -2.0114    1.1575 H   0  0  0  0  0  0  0  0  0  0  0  0
   -4.8735    0.0441   -2.0210 H   0  0  0  0  0  0  0  0  0  0  0  0
   -2.8409    1.3979   -2.1782 H   0  0  0  0  0  0  0  0  0  0  0  0
  1  2  1  0
  2  3  1  0
  3  4  1  0
  4  5  1  0
  5  6  1  0
  6  7  2  0
  6  8  1  0
  8  9  1  0
  9 10  2  0
  9 11  1  0
 11 12  2  0
 12 13  1  0
 13 14  2  0
 14 15  1  0
  4 16  2  0
 16 17  1  0
 17 18  1  0
 18 19  2  0
 19 20  1  0
 20 21  2  0
 21 22  1  0
 22 23  1  0
 22 24  1  0
 21 25  1  0
 25 26  2  0
 17  2  2  0
 26 18  1  0
 15 11  1  0
  1 27  1  0
  1 28  1  0
  1 29  1  0
  5 30  1  0
  8 31  1  0
 12 32  1  0
 13 33  1  0
 14 34  1  0
 19 35  1  0
 20 36  1  0
 22 37  1  0
 23 38  1  0
 23 39  1  0
 23 40  1  0
 24 41  1  0
 24 42  1  0
 24 43  1  0
 25 44  1  0
 26 45  1  0
M  END
$$$$
