
     RDKit          3D

 50 53  0  0  0  0  0  0  0  0999 V2000
    7.5306    0.8817   -0.6737 C   0  0  0  0  0  0  0  0  0  0  0  0
    6.7581    1.6758    0.2174 O   0  0  0  0  0  0  0  0  0  0  0  0
    5.4208    1.4037    0.2895 C   0  0  0  0  0  0  0  0  0  0  0  0
    4.7368    0.4370   -0.4451 C   0  0  0  0  0  0  0  0  0  0  0  0
    3.3542    0.2561   -0.2764 C   0  0  0  0  0  0  0  0  0  0  0  0
    2.6382    1.0366    0.6367 C   0  0  0  0  0  0  0  0  0  0  0  0
    1.2305    0.8945    0.8465 N   0  0  0  0  0  0  0  0  0  0  0  0
    0.5721    1.8542    1.5623 N   0  0  0  0  0  0  0  0  0  0  0  0
   -0.7119    1.5107    1.5283 C   0  0  0  0  0  0  0  0  0  0  0  0
   -0.9272    0.3272    0.8153 C   0  0  0  0  0  0  0  0  0  0  0  0
    0.3372   -0.0881    0.4349 C   0  0  0  0  0  0  0  0  0  0  0  0
    0.6251   -1.3860   -0.2457 C   0  0  0  0  0  0  0  0  0  0  0  0
   -0.5837   -2.3686   -0.1331 C   0  0  0  0  0  0  0  0  0  0  0  0
   -0.6066   -3.0373    1.2567 C   0  0  0  0  0  0  0  0  0  0  0  0
   -0.4183   -3.4772   -1.1901 C   0  0  0  0  0  0  0  0  0  0  0  0
   -1.9206   -1.6166   -0.4007 C   0  0  0  0  0  0  0  0  0  0  0  0
   -2.1816   -0.4385    0.5686 C   0  0  0  0  0  0  0  0  0  0  0  0
   -3.1622    0.4723    0.0170 N   0  0  0  0  0  0  0  0  0  0  0  0
   -4.5064    0.1823    0.0556 C   0  0  0  0  0  0  0  0  0  0  0  0
   -4.9567   -0.8064    0.6241 O   0  0  0  0  0  0  0  0  0  0  0  0
   -5.3636    1.1252   -0.6411 C   0  0  0  0  0  0  0  0  0  0  0  0
   -6.7625    1.0144   -0.8231 C   0  0  0  0  0  0  0  0  0  0  0  0
   -7.2815    2.0381   -1.5059 N   0  0  0  0  0  0  0  0  0  0  0  0
   -6.2217    2.8198   -1.7557 N   0  0  0  0  0  0  0  0  0  0  0  0
   -5.0490    2.3195   -1.2637 C   0  0  0  0  0  0  0  0  0  0  0  0
    3.3327    2.0208    1.3597 C   0  0  0  0  0  0  0  0  0  0  0  0
    4.7096    2.1959    1.1886 C   0  0  0  0  0  0  0  0  0  0  0  0
    8.5704    1.2149   -0.6028 H   0  0  0  0  0  0  0  0  0  0  0  0
    7.4994   -0.1753   -0.3893 H   0  0  0  0  0  0  0  0  0  0  0  0
    7.2057    1.0225   -1.7098 H   0  0  0  0  0  0  0  0  0  0  0  0
    5.2459   -0.1914   -1.1688 H   0  0  0  0  0  0  0  0  0  0  0  0
    2.8819   -0.4833   -0.9086 H   0  0  0  0  0  0  0  0  0  0  0  0
   -1.4361    2.1367    2.0348 H   0  0  0  0  0  0  0  0  0  0  0  0
    0.8182   -1.1782   -1.3057 H   0  0  0  0  0  0  0  0  0  0  0  0
    1.5143   -1.8632    0.1810 H   0  0  0  0  0  0  0  0  0  0  0  0
   -0.6672   -2.3081    2.0704 H   0  0  0  0  0  0  0  0  0  0  0  0
    0.3001   -3.6309    1.4207 H   0  0  0  0  0  0  0  0  0  0  0  0
   -1.4651   -3.7117    1.3521 H   0  0  0  0  0  0  0  0  0  0  0  0
   -0.4124   -3.0617   -2.2040 H   0  0  0  0  0  0  0  0  0  0  0  0
   -1.2373   -4.2030   -1.1337 H   0  0  0  0  0  0  0  0  0  0  0  0
    0.5222   -4.0213   -1.0481 H   0  0  0  0  0  0  0  0  0  0  0  0
   -2.7664   -2.3153   -0.3578 H   0  0  0  0  0  0  0  0  0  0  0  0
   -1.9023   -1.2355   -1.4327 H   0  0  0  0  0  0  0  0  0  0  0  0
   -2.5594   -0.8282    1.5220 H   0  0  0  0  0  0  0  0  0  0  0  0
   -2.8372    1.2015   -0.5999 H   0  0  0  0  0  0  0  0  0  0  0  0
   -7.4161    0.2204   -0.4815 H   0  0  0  0  0  0  0  0  0  0  0  0
   -6.3728    3.6838   -2.2672 H   0  0  0  0  0  0  0  0  0  0  0  0
   -4.1243    2.8616   -1.3948 H   0  0  0  0  0  0  0  0  0  0  0  0
    2.8179    2.6604    2.0752 H   0  0  0  0  0  0  0  0  0  0  0  0
    5.2282    2.9587    1.7645 H   0  0  0  0  0  0  0  0  0  0  0  0
  1  2  1  0
  2  3  1  0
  3  4  2  0
  4  5  1  0
  5  6  2  0
  6  7  1  0
  7  8  1  0
  8  9  2  0
  9 10  1  0
 10 11  2  0
 11 12  1  0
 12 13  1  0
 13 14  1  0
 13 15  1  0
 13 16  1  0
 16 17  1  0
 17 18  1  0
 18 19  1  0
 19 20  2  0
 19 21  1  0
 21 22  1  0
 22 23  2  0
 23 24  1  0
 24 25  1  0
  6 26  1  0
 26 27  2  0
 27  3  1  0
 11  7  1  0
 25 21  2  0
 17 10  1  0
  1 28  1  0
  1 29  1  0
  1 30  1  0
  4 31  1  0
  5 32  1  0
  9 33  1  0
 12 34  1  0
 12 35  1  0
 14 36  1  0
 14 37  1  0
 14 38  1  0
 15 39  1  0
 15 40  1  0
 15 41  1  0
 16 42  1  0
 16 43  1  0
 17 44  1  0
 18 45  1  0
 22 46  1  0
 24 47  1  0
 25 48  1  0
 26 49  1  0
 27 50  1  0
M  END
$$$$
