
     RDKit          3D

 52 54  0  0  0  0  0  0  0  0999 V2000
   -3.4640   -0.8583    3.5861 C   0  0  0  0  0  0  0  0  0  0  0  0
   -4.3642   -0.2019    2.5504 C   0  0  0  0  0  0  0  0  0  0  0  0
   -3.7134   -0.0636    1.1720 C   0  0  0  0  0  0  0  0  0  0  0  0
   -3.4008   -1.4118    0.5097 C   0  0  0  0  0  0  0  0  0  0  0  0
   -2.8524   -1.2455   -0.9275 C   0  0  0  0  0  0  0  0  0  0  0  0
   -3.9368   -1.4998   -1.9996 C   0  0  0  0  0  0  0  0  0  0  0  0
   -5.1136   -0.5378   -1.9444 C   0  0  0  0  0  0  0  0  0  0  0  0
   -1.6671   -2.2092   -1.2020 C   0  0  0  0  0  0  0  0  0  0  0  0
   -0.4859   -1.9372   -0.3727 N   0  0  0  0  0  0  0  0  0  0  0  0
    0.2393   -0.7787   -0.6201 C   0  0  0  0  0  0  0  0  0  0  0  0
   -0.0011    0.0125   -1.5209 O   0  0  0  0  0  0  0  0  0  0  0  0
    1.3783   -0.6599    0.3349 C   0  0  0  0  0  0  0  0  0  0  0  0
    2.2592    0.3415    0.4850 C   0  0  0  0  0  0  0  0  0  0  0  0
    2.3269    1.5990   -0.1845 C   0  0  0  0  0  0  0  0  0  0  0  0
    1.2702    2.4318   -0.4647 C   0  0  0  0  0  0  0  0  0  0  0  0
    1.8088    3.5360   -1.0502 N   0  0  0  0  0  0  0  0  0  0  0  0
    3.1473    3.5170   -1.1086 N   0  0  0  0  0  0  0  0  0  0  0  0
    3.4909    2.3187   -0.6046 C   0  0  0  0  0  0  0  0  0  0  0  0
    4.8968    1.9178   -0.5317 C   0  0  0  0  0  0  0  0  0  0  0  0
    5.8657    2.8334   -0.0983 C   0  0  0  0  0  0  0  0  0  0  0  0
    7.2089    2.4597   -0.0148 C   0  0  0  0  0  0  0  0  0  0  0  0
    7.5964    1.1693   -0.3714 C   0  0  0  0  0  0  0  0  0  0  0  0
    6.6440    0.2541   -0.8174 C   0  0  0  0  0  0  0  0  0  0  0  0
    5.2999    0.6270   -0.9006 C   0  0  0  0  0  0  0  0  0  0  0  0
    1.4664   -2.0934    1.2977 S   0  0  0  0  0  0  0  0  0  0  0  0
    0.0332   -2.8006    0.5689 C   0  0  0  0  0  0  0  0  0  0  0  0
   -0.5250   -4.3054    1.0257 S   0  0  0  0  0  0  0  0  0  0  0  0
   -2.4992   -0.3455    3.6517 H   0  0  0  0  0  0  0  0  0  0  0  0
   -3.2819   -1.9110    3.3507 H   0  0  0  0  0  0  0  0  0  0  0  0
   -3.9359   -0.8187    4.5730 H   0  0  0  0  0  0  0  0  0  0  0  0
   -5.2983   -0.7696    2.4668 H   0  0  0  0  0  0  0  0  0  0  0  0
   -4.6329    0.7994    2.9081 H   0  0  0  0  0  0  0  0  0  0  0  0
   -2.7884    0.5193    1.2634 H   0  0  0  0  0  0  0  0  0  0  0  0
   -4.3870    0.5198    0.5357 H   0  0  0  0  0  0  0  0  0  0  0  0
   -2.6689   -1.9263    1.1365 H   0  0  0  0  0  0  0  0  0  0  0  0
   -4.2960   -2.0451    0.5071 H   0  0  0  0  0  0  0  0  0  0  0  0
   -2.4951   -0.2161   -1.0543 H   0  0  0  0  0  0  0  0  0  0  0  0
   -3.4807   -1.4149   -2.9940 H   0  0  0  0  0  0  0  0  0  0  0  0
   -4.3119   -2.5273   -1.9155 H   0  0  0  0  0  0  0  0  0  0  0  0
   -4.7745    0.5019   -1.9868 H   0  0  0  0  0  0  0  0  0  0  0  0
   -5.7053   -0.6786   -1.0354 H   0  0  0  0  0  0  0  0  0  0  0  0
   -5.7780   -0.7107   -2.7975 H   0  0  0  0  0  0  0  0  0  0  0  0
   -1.3487   -2.0976   -2.2467 H   0  0  0  0  0  0  0  0  0  0  0  0
   -1.9995   -3.2447   -1.0859 H   0  0  0  0  0  0  0  0  0  0  0  0
    3.0546    0.1930    1.2167 H   0  0  0  0  0  0  0  0  0  0  0  0
    0.2035    2.3433   -0.3168 H   0  0  0  0  0  0  0  0  0  0  0  0
    1.3244    4.3502   -1.4131 H   0  0  0  0  0  0  0  0  0  0  0  0
    5.5732    3.8453    0.1745 H   0  0  0  0  0  0  0  0  0  0  0  0
    7.9505    3.1786    0.3227 H   0  0  0  0  0  0  0  0  0  0  0  0
    8.6424    0.8803   -0.3111 H   0  0  0  0  0  0  0  0  0  0  0  0
    6.9487   -0.7473   -1.1100 H   0  0  0  0  0  0  0  0  0  0  0  0
    4.5769   -0.0925   -1.2756 H   0  0  0  0  0  0  0  0  0  0  0  0
  1  2  1  0
  2  3  1  0
  3  4  1  0
  4  5  1  0
  5  6  1  0
  6  7  1  0
  5  8  1  0
  8  9  1  0
  9 10  1  0
 10 11  2  0
 10 12  1  0
 12 13  2  3
 13 14  1  0
 14 15  2  0
 15 16  1  0
 16 17  1  0
 17 18  2  0
 18 19  1  0
 19 20  2  0
 20 21  1  0
 21 22  2  0
 22 23  1  0
 23 24  2  0
 12 25  1  0
 25 26  1  0
 26 27  2  0
 26  9  1  0
 18 14  1  0
 24 19  1  0
  1 28  1  0
  1 29  1  0
  1 30  1  0
  2 31  1  0
  2 32  1  0
  3 33  1  0
  3 34  1  0
  4 35  1  0
  4 36  1  0
  5 37  1  0
  6 38  1  0
  6 39  1  0
  7 40  1  0
  7 41  1  0
  7 42  1  0
  8 43  1  0
  8 44  1  0
 13 45  1  0
 15 46  1  0
 16 47  1  0
 20 48  1  0
 21 49  1  0
 22 50  1  0
 23 51  1  0
 24 52  1  0
M  END
$$$$
