
     RDKit          3D

 80 85  0  0  0  0  0  0  0  0999 V2000
    6.1388    1.6997    0.4529 C   0  0  0  0  0  0  0  0  0  0  0  0
    5.5831    0.3514    0.9278 C   0  0  0  0  0  0  0  0  0  0  0  0
    5.9942   -0.7450   -0.0643 C   0  0  0  0  0  0  0  0  0  0  0  0
    5.0709   -1.9523    0.0122 C   0  0  0  0  0  0  0  0  0  0  0  0
    3.6326   -1.6028   -0.4492 C   0  0  0  0  0  0  0  0  0  0  0  0
    3.6517   -1.6856   -1.9907 C   0  0  0  0  0  0  0  0  0  0  0  0
    3.7341   -0.7597   -2.7835 O   0  0  0  0  0  0  0  0  0  0  0  0
    3.6430   -2.9476   -2.4680 O   0  0  0  0  0  0  0  0  0  0  0  0
    2.6613   -2.6601    0.1112 C   0  0  0  0  0  0  0  0  0  0  0  0
    1.2119   -2.3610   -0.2701 C   0  0  0  0  0  0  0  0  0  0  0  0
    0.6816   -1.0057    0.2732 C   0  0  0  0  0  0  0  0  0  0  0  0
    0.5062   -1.1807    1.8111 C   0  0  0  0  0  0  0  0  0  0  0  0
    1.7093    0.1264    0.0502 C   0  0  0  0  0  0  0  0  0  0  0  0
    1.2974    1.3905   -0.1885 C   0  0  0  0  0  0  0  0  0  0  0  0
   -0.1220    1.8629   -0.2868 C   0  0  0  0  0  0  0  0  0  0  0  0
   -1.1784    0.8017    0.0789 C   0  0  0  0  0  0  0  0  0  0  0  0
   -2.6644    1.2612   -0.1829 C   0  0  0  0  0  0  0  0  0  0  0  0
   -3.0345    2.3718    0.8559 C   0  0  0  0  0  0  0  0  0  0  0  0
   -4.4687    2.8498    0.6479 C   0  0  0  0  0  0  0  0  0  0  0  0
   -5.0939    2.0974   -0.5256 C   0  0  0  0  0  0  0  0  0  0  0  0
   -6.3800    2.6332   -0.7621 O   0  0  0  0  0  0  0  0  0  0  0  0
   -4.3029    2.3822   -1.6803 O   0  0  0  0  0  0  0  0  0  0  0  0
   -2.9546    1.8943   -1.5661 C   0  0  0  0  0  0  0  0  0  0  0  0
   -5.1410    0.5537   -0.3066 C   0  0  0  0  0  0  0  0  0  0  0  0
   -5.7135   -0.1285   -1.5750 C   0  0  0  0  0  0  0  0  0  0  0  0
   -6.0911    0.1758    0.8528 C   0  0  0  0  0  0  0  0  0  0  0  0
   -3.6781    0.0925    0.0541 C   0  0  0  0  0  0  0  0  0  0  0  0
   -3.2349   -1.2207   -0.6039 C   0  0  0  0  0  0  0  0  0  0  0  0
   -1.8510   -1.6437   -0.1150 C   0  0  0  0  0  0  0  0  0  0  0  0
   -0.7360   -0.6156   -0.4435 C   0  0  0  0  0  0  0  0  0  0  0  0
   -0.5489   -0.6125   -1.9931 C   0  0  0  0  0  0  0  0  0  0  0  0
    3.2237   -0.1535   -0.0169 C   0  0  0  0  0  0  0  0  0  0  0  0
    4.0470    0.4379    1.1762 C   0  0  0  0  0  0  0  0  0  0  0  0
    3.7011   -0.1327    2.5535 C   0  0  0  0  0  0  0  0  0  0  0  0
    5.6778    2.0104   -0.4914 H   0  0  0  0  0  0  0  0  0  0  0  0
    7.2222    1.6412    0.3007 H   0  0  0  0  0  0  0  0  0  0  0  0
    5.9494    2.4816    1.1968 H   0  0  0  0  0  0  0  0  0  0  0  0
    6.0832    0.1318    1.8804 H   0  0  0  0  0  0  0  0  0  0  0  0
    7.0230   -1.0568    0.1548 H   0  0  0  0  0  0  0  0  0  0  0  0
    6.0086   -0.3578   -1.0904 H   0  0  0  0  0  0  0  0  0  0  0  0
    5.0708   -2.3338    1.0404 H   0  0  0  0  0  0  0  0  0  0  0  0
    5.4915   -2.7578   -0.6030 H   0  0  0  0  0  0  0  0  0  0  0  0
    3.6983   -2.8261   -3.4396 H   0  0  0  0  0  0  0  0  0  0  0  0
    2.7610   -2.7348    1.1975 H   0  0  0  0  0  0  0  0  0  0  0  0
    2.9173   -3.6600   -0.2612 H   0  0  0  0  0  0  0  0  0  0  0  0
    0.5840   -3.1814    0.1003 H   0  0  0  0  0  0  0  0  0  0  0  0
    1.1450   -2.4081   -1.3593 H   0  0  0  0  0  0  0  0  0  0  0  0
   -0.2478   -1.9308    2.0616 H   0  0  0  0  0  0  0  0  0  0  0  0
    1.4181   -1.5386    2.2922 H   0  0  0  0  0  0  0  0  0  0  0  0
    0.2423   -0.2489    2.3194 H   0  0  0  0  0  0  0  0  0  0  0  0
    2.0393    2.1656   -0.3817 H   0  0  0  0  0  0  0  0  0  0  0  0
   -0.2319    2.7363    0.3653 H   0  0  0  0  0  0  0  0  0  0  0  0
   -0.2652    2.2118   -1.3148 H   0  0  0  0  0  0  0  0  0  0  0  0
   -1.1437    0.7223    1.1728 H   0  0  0  0  0  0  0  0  0  0  0  0
   -2.9200    1.9996    1.8818 H   0  0  0  0  0  0  0  0  0  0  0  0
   -2.3617    3.2321    0.7637 H   0  0  0  0  0  0  0  0  0  0  0  0
   -4.4582    3.9267    0.4330 H   0  0  0  0  0  0  0  0  0  0  0  0
   -5.0588    2.7437    1.5646 H   0  0  0  0  0  0  0  0  0  0  0  0
   -6.4788    2.5637   -1.7271 H   0  0  0  0  0  0  0  0  0  0  0  0
   -2.3056    2.7521   -1.7632 H   0  0  0  0  0  0  0  0  0  0  0  0
   -2.8217    1.1917   -2.3873 H   0  0  0  0  0  0  0  0  0  0  0  0
   -5.0892    0.0467   -2.4564 H   0  0  0  0  0  0  0  0  0  0  0  0
   -6.7164    0.2466   -1.8078 H   0  0  0  0  0  0  0  0  0  0  0  0
   -5.8114   -1.2116   -1.4427 H   0  0  0  0  0  0  0  0  0  0  0  0
   -6.1218   -0.9112    0.9918 H   0  0  0  0  0  0  0  0  0  0  0  0
   -7.1152    0.5128    0.6588 H   0  0  0  0  0  0  0  0  0  0  0  0
   -5.7727    0.6128    1.8044 H   0  0  0  0  0  0  0  0  0  0  0  0
   -3.6566   -0.1092    1.1367 H   0  0  0  0  0  0  0  0  0  0  0  0
   -3.9424   -2.0163   -0.3376 H   0  0  0  0  0  0  0  0  0  0  0  0
   -3.2391   -1.1475   -1.6952 H   0  0  0  0  0  0  0  0  0  0  0  0
   -1.6103   -2.6214   -0.5490 H   0  0  0  0  0  0  0  0  0  0  0  0
   -1.9351   -1.7989    0.9639 H   0  0  0  0  0  0  0  0  0  0  0  0
   -1.3856   -0.1584   -2.5182 H   0  0  0  0  0  0  0  0  0  0  0  0
   -0.4798   -1.6311   -2.3908 H   0  0  0  0  0  0  0  0  0  0  0  0
    0.3503   -0.0786   -2.3138 H   0  0  0  0  0  0  0  0  0  0  0  0
    3.5583    0.4930   -0.8447 H   0  0  0  0  0  0  0  0  0  0  0  0
    3.7902    1.5044    1.2520 H   0  0  0  0  0  0  0  0  0  0  0  0
    4.3570    0.2910    3.3230 H   0  0  0  0  0  0  0  0  0  0  0  0
    2.6850    0.1453    2.8426 H   0  0  0  0  0  0  0  0  0  0  0  0
    3.8027   -1.2188    2.5970 H   0  0  0  0  0  0  0  0  0  0  0  0
  1  2  1  0
  2  3  1  0
  3  4  1  0
  4  5  1  0
  5  6  1  0
  6  7  2  0
  6  8  1  0
  5  9  1  0
  9 10  1  0
 10 11  1  0
 11 12  1  0
 11 13  1  0
 13 14  2  0
 14 15  1  0
 15 16  1  0
 16 17  1  0
 17 18  1  0
 18 19  1  0
 19 20  1  0
 20 21  1  0
 20 22  1  0
 22 23  1  0
 20 24  1  0
 24 25  1  0
 24 26  1  0
 24 27  1  0
 27 28  1  0
 28 29  1  0
 29 30  1  0
 30 31  1  0
 13 32  1  0
 32 33  1  0
 33 34  1  0
 33  2  1  0
 32  5  1  0
 30 11  1  0
 30 16  1  0
 23 17  1  0
 27 17  1  0
  1 35  1  0
  1 36  1  0
  1 37  1  0
  2 38  1  0
  3 39  1  0
  3 40  1  0
  4 41  1  0
  4 42  1  0
  8 43  1  0
  9 44  1  0
  9 45  1  0
 10 46  1  0
 10 47  1  0
 12 48  1  0
 12 49  1  0
 12 50  1  0
 14 51  1  0
 15 52  1  0
 15 53  1  0
 16 54  1  0
 18 55  1  0
 18 56  1  0
 19 57  1  0
 19 58  1  0
 21 59  1  0
 23 60  1  0
 23 61  1  0
 25 62  1  0
 25 63  1  0
 25 64  1  0
 26 65  1  0
 26 66  1  0
 26 67  1  0
 27 68  1  0
 28 69  1  0
 28 70  1  0
 29 71  1  0
 29 72  1  0
 31 73  1  0
 31 74  1  0
 31 75  1  0
 32 76  1  0
 33 77  1  0
 34 78  1  0
 34 79  1  0
 34 80  1  0
M  END
$$$$
