
     RDKit          3D

 38 39  0  0  0  0  0  0  0  0999 V2000
   -3.1512    2.2304    2.1963 C   0  0  0  0  0  0  0  0  0  0  0  0
   -3.6838    1.5177    1.0847 O   0  0  0  0  0  0  0  0  0  0  0  0
   -2.7987    1.0397    0.1543 C   0  0  0  0  0  0  0  0  0  0  0  0
   -1.4204    0.9159    0.3990 C   0  0  0  0  0  0  0  0  0  0  0  0
   -0.5382    0.4605   -0.5942 C   0  0  0  0  0  0  0  0  0  0  0  0
    0.9043    0.2962   -0.3558 C   0  0  0  0  0  0  0  0  0  0  0  0
    1.6316    1.1146    0.4202 C   0  0  0  0  0  0  0  0  0  0  0  0
    3.0985    0.9954    0.6367 C   0  0  0  0  0  0  0  0  0  0  0  0
    3.7451    1.9990    0.9228 O   0  0  0  0  0  0  0  0  0  0  0  0
    3.7816   -0.3143    0.5166 C   0  0  0  0  0  0  0  0  0  0  0  0
    3.2218   -1.4890    1.0377 C   0  0  0  0  0  0  0  0  0  0  0  0
    3.9068   -2.7015    0.9192 C   0  0  0  0  0  0  0  0  0  0  0  0
    5.1508   -2.7270    0.2944 C   0  0  0  0  0  0  0  0  0  0  0  0
    5.8527   -3.8873    0.1576 O   0  0  0  0  0  0  0  0  0  0  0  0
    5.7249   -1.5630   -0.2055 C   0  0  0  0  0  0  0  0  0  0  0  0
    5.0439   -0.3508   -0.0877 C   0  0  0  0  0  0  0  0  0  0  0  0
   -1.0563    0.0991   -1.8391 C   0  0  0  0  0  0  0  0  0  0  0  0
   -2.4249    0.2022   -2.0881 C   0  0  0  0  0  0  0  0  0  0  0  0
   -3.3052    0.6512   -1.0970 C   0  0  0  0  0  0  0  0  0  0  0  0
   -4.6085    0.6877   -1.5197 O   0  0  0  0  0  0  0  0  0  0  0  0
   -5.6298    0.5848   -0.5248 C   0  0  0  0  0  0  0  0  0  0  0  0
   -6.8930    0.1620   -1.1555 C   0  0  0  0  0  0  0  0  0  0  0  0
   -7.8990   -0.1747   -1.6296 N   0  0  0  0  0  0  0  0  0  0  0  0
   -3.9898    2.6876    2.7304 H   0  0  0  0  0  0  0  0  0  0  0  0
   -2.4828    3.0361    1.8747 H   0  0  0  0  0  0  0  0  0  0  0  0
   -2.6487    1.5490    2.8899 H   0  0  0  0  0  0  0  0  0  0  0  0
   -1.0149    1.1610    1.3753 H   0  0  0  0  0  0  0  0  0  0  0  0
    1.3708   -0.5261   -0.8935 H   0  0  0  0  0  0  0  0  0  0  0  0
    1.2006    1.9959    0.8857 H   0  0  0  0  0  0  0  0  0  0  0  0
    2.2638   -1.4707    1.5507 H   0  0  0  0  0  0  0  0  0  0  0  0
    3.4629   -3.6058    1.3241 H   0  0  0  0  0  0  0  0  0  0  0  0
    5.3509   -4.6109    0.5673 H   0  0  0  0  0  0  0  0  0  0  0  0
    6.7024   -1.5976   -0.6789 H   0  0  0  0  0  0  0  0  0  0  0  0
    5.4982    0.5627   -0.4661 H   0  0  0  0  0  0  0  0  0  0  0  0
   -0.4041   -0.2607   -2.6323 H   0  0  0  0  0  0  0  0  0  0  0  0
   -2.8125   -0.0784   -3.0656 H   0  0  0  0  0  0  0  0  0  0  0  0
   -5.3624   -0.1565    0.2378 H   0  0  0  0  0  0  0  0  0  0  0  0
   -5.7879    1.5657   -0.0644 H   0  0  0  0  0  0  0  0  0  0  0  0
  1  2  1  0
  2  3  1  0
  3  4  2  0
  4  5  1  0
  5  6  1  0
  6  7  2  3
  7  8  1  0
  8  9  2  0
  8 10  1  0
 10 11  2  0
 11 12  1  0
 12 13  2  0
 13 14  1  0
 13 15  1  0
 15 16  2  0
  5 17  2  0
 17 18  1  0
 18 19  2  0
 19 20  1  0
 20 21  1  0
 21 22  1  0
 22 23  3  0
 19  3  1  0
 16 10  1  0
  1 24  1  0
  1 25  1  0
  1 26  1  0
  4 27  1  0
  6 28  1  0
  7 29  1  0
 11 30  1  0
 12 31  1  0
 14 32  1  0
 15 33  1  0
 16 34  1  0
 17 35  1  0
 18 36  1  0
 21 37  1  0
 21 38  1  0
M  END
$$$$
