
     RDKit          3D

 36 38  0  0  0  0  0  0  0  0999 V2000
   -3.5784    3.9032   -1.0958 N   0  0  0  0  0  0  0  0  0  0  0  0
   -2.7173    3.1249   -1.1554 C   0  0  0  0  0  0  0  0  0  0  0  0
   -1.6829    2.1452   -1.2055 C   0  0  0  0  0  0  0  0  0  0  0  0
   -0.7217    2.1975   -2.1936 N   0  0  0  0  0  0  0  0  0  0  0  0
    0.0547    1.1704   -1.9167 C   0  0  0  0  0  0  0  0  0  0  0  0
    1.2829    0.6998   -2.6137 C   0  0  0  0  0  0  0  0  0  0  0  0
    2.4109    1.0947   -1.8167 O   0  0  0  0  0  0  0  0  0  0  0  0
    3.0940    0.0147   -1.3243 C   0  0  0  0  0  0  0  0  0  0  0  0
    2.9390   -0.2656    0.0348 C   0  0  0  0  0  0  0  0  0  0  0  0
    3.6321   -1.3331    0.6063 C   0  0  0  0  0  0  0  0  0  0  0  0
    4.4890   -2.1030   -0.1807 C   0  0  0  0  0  0  0  0  0  0  0  0
    5.3406   -3.4194    0.5279 Cl  0  0  0  0  0  0  0  0  0  0  0  0
    4.6672   -1.8132   -1.5329 C   0  0  0  0  0  0  0  0  0  0  0  0
    3.9740   -0.7456   -2.1047 C   0  0  0  0  0  0  0  0  0  0  0  0
    4.2397   -0.3913   -3.7725 Cl  0  0  0  0  0  0  0  0  0  0  0  0
   -0.3484    0.4346   -0.8371 O   0  0  0  0  0  0  0  0  0  0  0  0
   -1.4763    1.0620   -0.3656 C   0  0  0  0  0  0  0  0  0  0  0  0
   -2.0597    0.5175    0.7456 N   0  0  0  0  0  0  0  0  0  0  0  0
   -1.7729   -0.9079    1.0340 C   0  0  0  0  0  0  0  0  0  0  0  0
   -2.2097   -1.2809    2.4569 C   0  0  0  0  0  0  0  0  0  0  0  0
   -3.5912   -0.9693    2.6782 O   0  0  0  0  0  0  0  0  0  0  0  0
   -3.7994    0.4402    2.5215 C   0  0  0  0  0  0  0  0  0  0  0  0
   -3.4382    0.9130    1.1046 C   0  0  0  0  0  0  0  0  0  0  0  0
    1.2244   -0.3825   -2.7870 H   0  0  0  0  0  0  0  0  0  0  0  0
    1.3700    1.1962   -3.5858 H   0  0  0  0  0  0  0  0  0  0  0  0
    2.2789    0.3457    0.6460 H   0  0  0  0  0  0  0  0  0  0  0  0
    3.5061   -1.5540    1.6634 H   0  0  0  0  0  0  0  0  0  0  0  0
    5.3482   -2.4099   -2.1337 H   0  0  0  0  0  0  0  0  0  0  0  0
   -0.7030   -1.1282    0.9423 H   0  0  0  0  0  0  0  0  0  0  0  0
   -2.3174   -1.5278    0.3107 H   0  0  0  0  0  0  0  0  0  0  0  0
   -2.0821   -2.3568    2.6135 H   0  0  0  0  0  0  0  0  0  0  0  0
   -1.5993   -0.7610    3.2053 H   0  0  0  0  0  0  0  0  0  0  0  0
   -3.2088    0.9750    3.2753 H   0  0  0  0  0  0  0  0  0  0  0  0
   -4.8558    0.6454    2.7220 H   0  0  0  0  0  0  0  0  0  0  0  0
   -4.1339    0.4695    0.3817 H   0  0  0  0  0  0  0  0  0  0  0  0
   -3.5552    2.0000    1.0862 H   0  0  0  0  0  0  0  0  0  0  0  0
  1  2  3  0
  2  3  1  0
  3  4  1  0
  4  5  2  0
  5  6  1  0
  6  7  1  0
  7  8  1  0
  8  9  2  0
  9 10  1  0
 10 11  2  0
 11 12  1  0
 11 13  1  0
 13 14  2  0
 14 15  1  0
  5 16  1  0
 16 17  1  0
 17 18  1  0
 18 19  1  0
 19 20  1  0
 20 21  1  0
 21 22  1  0
 22 23  1  0
 17  3  2  0
 23 18  1  0
 14  8  1  0
  6 24  1  0
  6 25  1  0
  9 26  1  0
 10 27  1  0
 13 28  1  0
 19 29  1  0
 19 30  1  0
 20 31  1  0
 20 32  1  0
 22 33  1  0
 22 34  1  0
 23 35  1  0
 23 36  1  0
M  END
$$$$
