
     RDKit          3D

 39 41  0  0  0  0  0  0  0  0999 V2000
   -3.1115    2.2760    0.1307 O   0  0  0  0  0  0  0  0  0  0  0  0
   -4.1385    1.6363   -0.0087 C   0  0  0  0  0  0  0  0  0  0  0  0
   -5.3504    2.2026    0.1578 O   0  0  0  0  0  0  0  0  0  0  0  0
   -4.2337    0.2140   -0.4094 C   0  0  0  0  0  0  0  0  0  0  0  0
   -5.2242   -0.1180   -1.2961 N   0  0  0  0  0  0  0  0  0  0  0  0
   -5.2241   -1.4028   -1.7170 C   0  0  0  0  0  0  0  0  0  0  0  0
   -4.2743   -2.3219   -1.3003 C   0  0  0  0  0  0  0  0  0  0  0  0
   -3.2858   -2.0046   -0.4326 N   0  0  0  0  0  0  0  0  0  0  0  0
   -3.2888   -0.7092    0.0122 C   0  0  0  0  0  0  0  0  0  0  0  0
   -2.3227   -0.3678    1.0835 C   0  0  0  0  0  0  0  0  0  0  0  0
   -2.7837    0.0730    2.1362 O   0  0  0  0  0  0  0  0  0  0  0  0
   -0.9605   -0.5614    0.8637 N   0  0  0  0  0  0  0  0  0  0  0  0
   -0.3809   -0.9799   -0.4191 C   0  0  0  0  0  0  0  0  0  0  0  0
    1.1521   -1.1441   -0.3852 C   0  0  0  0  0  0  0  0  0  0  0  0
    1.8074    0.0579    0.1518 N   0  0  0  0  0  0  0  0  0  0  0  0
    3.1424    0.3379   -0.1096 C   0  0  0  0  0  0  0  0  0  0  0  0
    3.6850    1.6097    0.1441 C   0  0  0  0  0  0  0  0  0  0  0  0
    5.0261    1.9136   -0.1208 C   0  0  0  0  0  0  0  0  0  0  0  0
    5.8666    0.9452   -0.6542 C   0  0  0  0  0  0  0  0  0  0  0  0
    5.3617   -0.3207   -0.9236 C   0  0  0  0  0  0  0  0  0  0  0  0
    4.0179   -0.6142   -0.6567 C   0  0  0  0  0  0  0  0  0  0  0  0
    1.1130    0.7659    1.2489 C   0  0  0  0  0  0  0  0  0  0  0  0
   -0.0069   -0.0902    1.8695 C   0  0  0  0  0  0  0  0  0  0  0  0
   -5.1582    3.1289    0.4094 H   0  0  0  0  0  0  0  0  0  0  0  0
   -6.0132   -1.6765   -2.4094 H   0  0  0  0  0  0  0  0  0  0  0  0
   -4.2888   -3.3484   -1.6516 H   0  0  0  0  0  0  0  0  0  0  0  0
   -0.8312   -1.9275   -0.7262 H   0  0  0  0  0  0  0  0  0  0  0  0
   -0.6562   -0.2185   -1.1591 H   0  0  0  0  0  0  0  0  0  0  0  0
    1.4809   -1.3465   -1.4114 H   0  0  0  0  0  0  0  0  0  0  0  0
    1.4175   -2.0088    0.2355 H   0  0  0  0  0  0  0  0  0  0  0  0
    3.0570    2.4061    0.5347 H   0  0  0  0  0  0  0  0  0  0  0  0
    5.4046    2.9109    0.0858 H   0  0  0  0  0  0  0  0  0  0  0  0
    6.9075    1.1763   -0.8614 H   0  0  0  0  0  0  0  0  0  0  0  0
    6.0094   -1.0875   -1.3398 H   0  0  0  0  0  0  0  0  0  0  0  0
    3.6783   -1.6234   -0.8689 H   0  0  0  0  0  0  0  0  0  0  0  0
    0.6837    1.6929    0.8498 H   0  0  0  0  0  0  0  0  0  0  0  0
    1.8116    1.0278    2.0529 H   0  0  0  0  0  0  0  0  0  0  0  0
    0.4222   -0.9837    2.3391 H   0  0  0  0  0  0  0  0  0  0  0  0
   -0.5112    0.4809    2.6554 H   0  0  0  0  0  0  0  0  0  0  0  0
  1  2  2  0
  2  3  1  0
  2  4  1  0
  4  5  2  0
  5  6  1  0
  6  7  2  0
  7  8  1  0
  8  9  2  0
  9 10  1  0
 10 11  2  0
 10 12  1  0
 12 13  1  0
 13 14  1  0
 14 15  1  0
 15 16  1  0
 16 17  2  0
 17 18  1  0
 18 19  2  0
 19 20  1  0
 20 21  2  0
 15 22  1  0
 22 23  1  0
  9  4  1  0
 23 12  1  0
 21 16  1  0
  3 24  1  0
  6 25  1  0
  7 26  1  0
 13 27  1  0
 13 28  1  0
 14 29  1  0
 14 30  1  0
 17 31  1  0
 18 32  1  0
 19 33  1  0
 20 34  1  0
 21 35  1  0
 22 36  1  0
 22 37  1  0
 23 38  1  0
 23 39  1  0
M  END
$$$$
