
     RDKit          3D

 47 49  0  0  0  0  0  0  0  0999 V2000
   -6.0382   -3.1884   -1.4565 C   0  0  0  0  0  0  0  0  0  0  0  0
   -5.2440   -2.3569   -0.4652 C   0  0  0  0  0  0  0  0  0  0  0  0
   -4.6309   -1.2858   -1.1810 O   0  0  0  0  0  0  0  0  0  0  0  0
   -3.8625   -0.4127   -0.4625 C   0  0  0  0  0  0  0  0  0  0  0  0
   -3.6167   -0.4725    0.9108 C   0  0  0  0  0  0  0  0  0  0  0  0
   -2.8050    0.4887    1.5227 C   0  0  0  0  0  0  0  0  0  0  0  0
   -2.2243    1.5005    0.7528 C   0  0  0  0  0  0  0  0  0  0  0  0
   -1.2079    2.7372    1.5351 S   0  0  0  0  0  6  0  0  0  0  0  0
   -1.5792    2.7850    2.9334 O   0  0  0  0  0  0  0  0  0  0  0  0
   -1.2498    3.9230    0.7059 O   0  0  0  0  0  0  0  0  0  0  0  0
    0.3517    2.0846    1.4300 N   0  0  0  0  0  0  0  0  0  0  0  0
    1.0028    2.0950    0.0922 C   0  0  0  0  0  0  0  0  0  0  0  0
    2.3895    1.4357    0.1427 C   0  0  0  0  0  0  0  0  0  0  0  0
    2.3284    0.0509    0.6338 N   0  0  0  0  0  0  0  0  0  0  0  0
    3.1230   -0.9928    0.1728 C   0  0  0  0  0  0  0  0  0  0  0  0
    2.8567   -2.1754    0.3716 O   0  0  0  0  0  0  0  0  0  0  0  0
    4.3485   -0.6815   -0.5929 C   0  0  0  0  0  0  0  0  0  0  0  0
    4.5600   -1.3311   -1.8067 C   0  0  0  0  0  0  0  0  0  0  0  0
    5.7213   -1.0383   -2.4948 C   0  0  0  0  0  0  0  0  0  0  0  0
    6.6560   -0.1696   -2.0496 N   0  0  0  0  0  0  0  0  0  0  0  0
    6.4363    0.4160   -0.8522 C   0  0  0  0  0  0  0  0  0  0  0  0
    5.3082    0.1926   -0.0860 C   0  0  0  0  0  0  0  0  0  0  0  0
    1.1800   -0.2846    1.4781 C   0  0  0  0  0  0  0  0  0  0  0  0
    0.6796    0.9131    2.2923 C   0  0  0  0  0  0  0  0  0  0  0  0
   -2.4898    1.5863   -0.6151 C   0  0  0  0  0  0  0  0  0  0  0  0
   -3.3003    0.6223   -1.2172 C   0  0  0  0  0  0  0  0  0  0  0  0
   -6.7988   -2.5755   -1.9515 H   0  0  0  0  0  0  0  0  0  0  0  0
   -5.3839   -3.5805   -2.2422 H   0  0  0  0  0  0  0  0  0  0  0  0
   -6.5307   -4.0267   -0.9559 H   0  0  0  0  0  0  0  0  0  0  0  0
   -5.9249   -1.9634    0.2983 H   0  0  0  0  0  0  0  0  0  0  0  0
   -4.4797   -2.9894    0.0009 H   0  0  0  0  0  0  0  0  0  0  0  0
   -4.0488   -1.2479    1.5354 H   0  0  0  0  0  0  0  0  0  0  0  0
   -2.6412    0.4438    2.5973 H   0  0  0  0  0  0  0  0  0  0  0  0
    1.1179    3.1300   -0.2460 H   0  0  0  0  0  0  0  0  0  0  0  0
    0.3806    1.5568   -0.6299 H   0  0  0  0  0  0  0  0  0  0  0  0
    2.8405    1.4633   -0.8538 H   0  0  0  0  0  0  0  0  0  0  0  0
    3.0379    1.9888    0.8320 H   0  0  0  0  0  0  0  0  0  0  0  0
    3.8437   -2.0452   -2.1978 H   0  0  0  0  0  0  0  0  0  0  0  0
    5.9427   -1.5089   -3.4487 H   0  0  0  0  0  0  0  0  0  0  0  0
    7.2222    1.0860   -0.5146 H   0  0  0  0  0  0  0  0  0  0  0  0
    5.1927    0.6699    0.8797 H   0  0  0  0  0  0  0  0  0  0  0  0
    0.3877   -0.6499    0.8130 H   0  0  0  0  0  0  0  0  0  0  0  0
    1.4506   -1.1066    2.1502 H   0  0  0  0  0  0  0  0  0  0  0  0
   -0.1767    0.6031    2.8973 H   0  0  0  0  0  0  0  0  0  0  0  0
    1.4600    1.2367    2.9919 H   0  0  0  0  0  0  0  0  0  0  0  0
   -2.0792    2.3942   -1.2162 H   0  0  0  0  0  0  0  0  0  0  0  0
   -3.5057    0.6804   -2.2841 H   0  0  0  0  0  0  0  0  0  0  0  0
  1  2  1  0
  2  3  1  0
  3  4  1  0
  4  5  2  0
  5  6  1  0
  6  7  2  0
  7  8  1  0
  8  9  2  0
  8 10  2  0
  8 11  1  0
 11 12  1  0
 12 13  1  0
 13 14  1  0
 14 15  1  0
 15 16  2  0
 15 17  1  0
 17 18  2  0
 18 19  1  0
 19 20  2  0
 20 21  1  0
 21 22  2  0
 14 23  1  0
 23 24  1  0
  7 25  1  0
 25 26  2  0
 26  4  1  0
 24 11  1  0
 22 17  1  0
  1 27  1  0
  1 28  1  0
  1 29  1  0
  2 30  1  0
  2 31  1  0
  5 32  1  0
  6 33  1  0
 12 34  1  0
 12 35  1  0
 13 36  1  0
 13 37  1  0
 18 38  1  0
 19 39  1  0
 21 40  1  0
 22 41  1  0
 23 42  1  0
 23 43  1  0
 24 44  1  0
 24 45  1  0
 25 46  1  0
 26 47  1  0
M  END
$$$$
