
     RDKit          3D

 68 69  0  0  0  0  0  0  0  0999 V2000
    9.2901    1.5400    0.3305 C   0  0  0  0  0  0  0  0  0  0  0  0
    8.3160    0.4749    0.8071 C   0  0  0  0  0  0  0  0  0  0  0  0
    7.2883    0.1346   -0.2730 C   0  0  0  0  0  0  0  0  0  0  0  0
    6.3303   -0.9617    0.1991 C   0  0  0  0  0  0  0  0  0  0  0  0
    5.4371   -1.4985   -0.9241 C   0  0  0  0  0  0  0  0  0  0  0  0
    4.3977   -0.5054   -1.4388 C   0  0  0  0  0  0  0  0  0  0  0  0
    3.4720   -0.2098   -0.3768 O   0  0  0  0  0  0  0  0  0  0  0  0
    2.2495    0.2238   -0.7809 C   0  0  0  0  0  0  0  0  0  0  0  0
    1.8806    0.3546   -1.9410 O   0  0  0  0  0  0  0  0  0  0  0  0
    1.3251    0.4142    0.4144 C   0  0  0  0  0  0  0  0  0  0  0  0
    0.4021   -0.7985    0.7395 N   0  0  0  0  0  4  0  0  0  0  0  0
    1.2602   -1.9592    1.2453 C   0  0  0  0  0  0  0  0  0  0  0  0
   -0.5575   -0.3926    1.8556 C   0  0  0  0  0  0  0  0  0  0  0  0
   -0.3781   -1.2989   -0.5102 C   0  0  0  0  0  0  0  0  0  0  0  0
   -1.3224   -0.2725   -1.1565 C   0  0  0  0  0  0  0  0  0  0  0  0
   -2.4279   -0.0163   -0.2883 O   0  0  0  0  0  0  0  0  0  0  0  0
   -3.5251    0.6030   -0.9651 C   0  0  0  0  0  0  0  0  0  0  0  0
   -4.3582   -0.4345   -1.7553 C   0  0  0  0  0  0  0  0  0  0  0  0
   -5.7794   -0.2558   -1.1760 C   0  0  0  0  0  0  0  0  0  0  0  0
   -6.2932    1.1142   -1.6728 C   0  0  0  0  0  0  0  0  0  0  0  0
   -5.4865    2.1123   -0.8233 C   0  0  0  0  0  0  0  0  0  0  0  0
   -4.5786    1.1833    0.0340 C   0  0  0  0  0  0  0  0  0  0  0  0
   -3.9804    1.8901    1.2353 C   0  0  0  0  0  0  0  0  0  0  0  0
   -5.5248   -0.0231    0.3340 C   0  0  0  0  0  0  0  0  0  0  0  0
   -6.7953    0.3242    1.1401 C   0  0  0  0  0  0  0  0  0  0  0  0
   -4.8852   -1.2252    1.0590 C   0  0  0  0  0  0  0  0  0  0  0  0
   10.0453    1.7281    1.0990 H   0  0  0  0  0  0  0  0  0  0  0  0
    8.7675    2.4791    0.1233 H   0  0  0  0  0  0  0  0  0  0  0  0
    9.7984    1.2199   -0.5818 H   0  0  0  0  0  0  0  0  0  0  0  0
    7.8124    0.8288    1.7120 H   0  0  0  0  0  0  0  0  0  0  0  0
    8.8801   -0.4254    1.0803 H   0  0  0  0  0  0  0  0  0  0  0  0
    6.7245    1.0373   -0.5369 H   0  0  0  0  0  0  0  0  0  0  0  0
    7.8120   -0.1988   -1.1772 H   0  0  0  0  0  0  0  0  0  0  0  0
    6.9169   -1.8007    0.5929 H   0  0  0  0  0  0  0  0  0  0  0  0
    5.7197   -0.5907    1.0289 H   0  0  0  0  0  0  0  0  0  0  0  0
    4.9117   -2.3801   -0.5366 H   0  0  0  0  0  0  0  0  0  0  0  0
    6.0631   -1.8346   -1.7586 H   0  0  0  0  0  0  0  0  0  0  0  0
    3.8760   -0.9632   -2.2875 H   0  0  0  0  0  0  0  0  0  0  0  0
    4.8611    0.4272   -1.7746 H   0  0  0  0  0  0  0  0  0  0  0  0
    1.9111    0.6252    1.3160 H   0  0  0  0  0  0  0  0  0  0  0  0
    0.6882    1.2850    0.2304 H   0  0  0  0  0  0  0  0  0  0  0  0
    1.8589   -1.6092    2.0915 H   0  0  0  0  0  0  0  0  0  0  0  0
    1.9080   -2.2998    0.4323 H   0  0  0  0  0  0  0  0  0  0  0  0
    0.5917   -2.7672    1.5589 H   0  0  0  0  0  0  0  0  0  0  0  0
   -1.0363    0.5523    1.5892 H   0  0  0  0  0  0  0  0  0  0  0  0
    0.0251   -0.2478    2.7722 H   0  0  0  0  0  0  0  0  0  0  0  0
   -1.2898   -1.1936    1.9965 H   0  0  0  0  0  0  0  0  0  0  0  0
    0.3682   -1.6399   -1.2368 H   0  0  0  0  0  0  0  0  0  0  0  0
   -0.9537   -2.1702   -0.1726 H   0  0  0  0  0  0  0  0  0  0  0  0
   -0.8152    0.6702   -1.3777 H   0  0  0  0  0  0  0  0  0  0  0  0
   -1.6804   -0.6952   -2.1024 H   0  0  0  0  0  0  0  0  0  0  0  0
   -3.1376    1.3916   -1.6237 H   0  0  0  0  0  0  0  0  0  0  0  0
   -4.3332   -0.2300   -2.8326 H   0  0  0  0  0  0  0  0  0  0  0  0
   -3.9933   -1.4575   -1.6081 H   0  0  0  0  0  0  0  0  0  0  0  0
   -6.4493   -1.0805   -1.4257 H   0  0  0  0  0  0  0  0  0  0  0  0
   -7.3669    1.2304   -1.4947 H   0  0  0  0  0  0  0  0  0  0  0  0
   -6.1216    1.2639   -2.7424 H   0  0  0  0  0  0  0  0  0  0  0  0
   -4.9107    2.7989   -1.4583 H   0  0  0  0  0  0  0  0  0  0  0  0
   -6.1512    2.7283   -0.2081 H   0  0  0  0  0  0  0  0  0  0  0  0
   -4.7585    2.3552    1.8494 H   0  0  0  0  0  0  0  0  0  0  0  0
   -3.2931    2.6814    0.9141 H   0  0  0  0  0  0  0  0  0  0  0  0
   -3.4228    1.1999    1.8750 H   0  0  0  0  0  0  0  0  0  0  0  0
   -6.5346    0.5965    2.1695 H   0  0  0  0  0  0  0  0  0  0  0  0
   -7.3848    1.1509    0.7348 H   0  0  0  0  0  0  0  0  0  0  0  0
   -7.4658   -0.5436    1.1854 H   0  0  0  0  0  0  0  0  0  0  0  0
   -3.9811   -1.6190    0.5943 H   0  0  0  0  0  0  0  0  0  0  0  0
   -4.6235   -0.9597    2.0888 H   0  0  0  0  0  0  0  0  0  0  0  0
   -5.5929   -2.0605    1.0996 H   0  0  0  0  0  0  0  0  0  0  0  0
  1  2  1  0
  2  3  1  0
  3  4  1  0
  4  5  1  0
  5  6  1  0
  6  7  1  0
  7  8  1  0
  8  9  2  0
  8 10  1  0
 10 11  1  0
 11 12  1  0
 11 13  1  0
 11 14  1  0
 14 15  1  0
 15 16  1  0
 16 17  1  0
 17 18  1  0
 18 19  1  0
 19 20  1  0
 20 21  1  0
 21 22  1  0
 22 23  1  0
 22 24  1  0
 24 25  1  0
 24 26  1  0
 22 17  1  0
 24 19  1  0
  1 27  1  0
  1 28  1  0
  1 29  1  0
  2 30  1  0
  2 31  1  0
  3 32  1  0
  3 33  1  0
  4 34  1  0
  4 35  1  0
  5 36  1  0
  5 37  1  0
  6 38  1  0
  6 39  1  0
 10 40  1  0
 10 41  1  0
 12 42  1  0
 12 43  1  0
 12 44  1  0
 13 45  1  0
 13 46  1  0
 13 47  1  0
 14 48  1  0
 14 49  1  0
 15 50  1  0
 15 51  1  0
 17 52  1  0
 18 53  1  0
 18 54  1  0
 19 55  1  0
 20 56  1  0
 20 57  1  0
 21 58  1  0
 21 59  1  0
 23 60  1  0
 23 61  1  0
 23 62  1  0
 25 63  1  0
 25 64  1  0
 25 65  1  0
 26 66  1  0
 26 67  1  0
 26 68  1  0
M  CHG  1  11   1
M  END
$$$$
