
     RDKit          3D

 55 58  0  0  0  0  0  0  0  0999 V2000
    3.6163   -3.5916   -4.4350 C   0  0  0  0  0  0  0  0  0  0  0  0
    2.6654   -2.6777   -3.9014 O   0  0  0  0  0  0  0  0  0  0  0  0
    2.7378   -2.4034   -2.5604 C   0  0  0  0  0  0  0  0  0  0  0  0
    3.8447   -2.7210   -1.7664 C   0  0  0  0  0  0  0  0  0  0  0  0
    3.8370   -2.4521   -0.3980 C   0  0  0  0  0  0  0  0  0  0  0  0
    2.7193   -1.8728    0.1969 C   0  0  0  0  0  0  0  0  0  0  0  0
    1.5937   -1.5359   -0.5705 C   0  0  0  0  0  0  0  0  0  0  0  0
    0.3565   -0.9153    0.0637 C   0  0  0  0  0  0  0  0  0  0  0  0
    0.2581    0.5848   -0.2455 C   0  0  0  0  0  0  0  0  0  0  0  0
    0.5586    1.2282    1.0834 C   0  0  0  0  0  0  0  0  0  0  0  0
    0.7586    2.6908    1.2121 C   0  0  0  0  0  0  0  0  0  0  0  0
    1.1387    3.2172    2.4533 C   0  0  0  0  0  0  0  0  0  0  0  0
    1.3297    4.5917    2.6062 C   0  0  0  0  0  0  0  0  0  0  0  0
    1.1404    5.4463    1.5219 C   0  0  0  0  0  0  0  0  0  0  0  0
    0.7597    4.9289    0.2844 C   0  0  0  0  0  0  0  0  0  0  0  0
    0.5678    3.5536    0.1268 C   0  0  0  0  0  0  0  0  0  0  0  0
    0.5836    0.4227    2.0998 N   0  0  0  0  0  0  0  0  0  0  0  0
    0.3566   -0.9532    1.5517 N   0  0  0  0  0  0  0  0  0  0  0  0
   -0.8181   -1.9480    2.3079 S   0  0  0  0  0  6  0  0  0  0  0  0
   -0.6269   -1.9175    3.7443 O   0  0  0  0  0  0  0  0  0  0  0  0
   -0.8755   -3.2102    1.5960 O   0  0  0  0  0  0  0  0  0  0  0  0
   -2.3294   -1.0673    1.9607 C   0  0  0  0  0  0  0  0  0  0  0  0
   -3.1986   -1.5297    0.9696 C   0  0  0  0  0  0  0  0  0  0  0  0
   -4.3789   -0.8302    0.7112 C   0  0  0  0  0  0  0  0  0  0  0  0
   -4.6938    0.3270    1.4375 C   0  0  0  0  0  0  0  0  0  0  0  0
   -5.9820    1.0543    1.1834 C   0  0  0  0  0  0  0  0  0  0  0  0
   -3.8268    0.7605    2.4500 C   0  0  0  0  0  0  0  0  0  0  0  0
   -2.6462    0.0656    2.7144 C   0  0  0  0  0  0  0  0  0  0  0  0
    1.6269   -1.7719   -1.9637 C   0  0  0  0  0  0  0  0  0  0  0  0
    0.4893   -1.4023   -2.6472 O   0  0  0  0  0  0  0  0  0  0  0  0
    0.7221   -0.7295   -3.8828 C   0  0  0  0  0  0  0  0  0  0  0  0
    3.6224   -4.5355   -3.8788 H   0  0  0  0  0  0  0  0  0  0  0  0
    3.3218   -3.8151   -5.4647 H   0  0  0  0  0  0  0  0  0  0  0  0
    4.6144   -3.1420   -4.4662 H   0  0  0  0  0  0  0  0  0  0  0  0
    4.7337   -3.1832   -2.1823 H   0  0  0  0  0  0  0  0  0  0  0  0
    4.7000   -2.7081    0.2121 H   0  0  0  0  0  0  0  0  0  0  0  0
    2.7364   -1.6906    1.2706 H   0  0  0  0  0  0  0  0  0  0  0  0
   -0.5237   -1.4308   -0.3358 H   0  0  0  0  0  0  0  0  0  0  0  0
   -0.7668    0.8494   -0.5298 H   0  0  0  0  0  0  0  0  0  0  0  0
    0.9519    0.9255   -1.0194 H   0  0  0  0  0  0  0  0  0  0  0  0
    1.2919    2.5627    3.3094 H   0  0  0  0  0  0  0  0  0  0  0  0
    1.6267    4.9934    3.5720 H   0  0  0  0  0  0  0  0  0  0  0  0
    1.2893    6.5168    1.6421 H   0  0  0  0  0  0  0  0  0  0  0  0
    0.6114    5.5990   -0.5592 H   0  0  0  0  0  0  0  0  0  0  0  0
    0.2647    3.1841   -0.8481 H   0  0  0  0  0  0  0  0  0  0  0  0
   -2.9714   -2.4292    0.4015 H   0  0  0  0  0  0  0  0  0  0  0  0
   -5.0570   -1.1976   -0.0568 H   0  0  0  0  0  0  0  0  0  0  0  0
   -6.2910    0.9488    0.1381 H   0  0  0  0  0  0  0  0  0  0  0  0
   -6.7708    0.6543    1.8278 H   0  0  0  0  0  0  0  0  0  0  0  0
   -5.8702    2.1255    1.3819 H   0  0  0  0  0  0  0  0  0  0  0  0
   -4.0693    1.6400    3.0429 H   0  0  0  0  0  0  0  0  0  0  0  0
   -1.9785    0.4074    3.5033 H   0  0  0  0  0  0  0  0  0  0  0  0
   -0.1029   -0.0261   -4.0342 H   0  0  0  0  0  0  0  0  0  0  0  0
    0.7004   -1.4417   -4.7124 H   0  0  0  0  0  0  0  0  0  0  0  0
    1.6521   -0.1494   -3.8817 H   0  0  0  0  0  0  0  0  0  0  0  0
  1  2  1  0
  2  3  1  0
  3  4  2  0
  4  5  1  0
  5  6  2  0
  6  7  1  0
  7  8  1  0
  8  9  1  0
  9 10  1  0
 10 11  1  0
 11 12  2  0
 12 13  1  0
 13 14  2  0
 14 15  1  0
 15 16  2  0
 10 17  2  0
 17 18  1  0
 18 19  1  0
 19 20  2  0
 19 21  2  0
 19 22  1  0
 22 23  2  0
 23 24  1  0
 24 25  2  0
 25 26  1  0
 25 27  1  0
 27 28  2  0
  7 29  2  0
 29 30  1  0
 30 31  1  0
 29  3  1  0
 18  8  1  0
 28 22  1  0
 16 11  1  0
  1 32  1  0
  1 33  1  0
  1 34  1  0
  4 35  1  0
  5 36  1  0
  6 37  1  0
  8 38  1  0
  9 39  1  0
  9 40  1  0
 12 41  1  0
 13 42  1  0
 14 43  1  0
 15 44  1  0
 16 45  1  0
 23 46  1  0
 24 47  1  0
 26 48  1  0
 26 49  1  0
 26 50  1  0
 27 51  1  0
 28 52  1  0
 31 53  1  0
 31 54  1  0
 31 55  1  0
M  END
$$$$
