
     RDKit          3D

 45 46  0  0  0  0  0  0  0  0999 V2000
   -1.8283    1.9533    3.3276 C   0  0  0  0  0  0  0  0  0  0  0  0
   -1.5297    1.3648    2.0612 O   0  0  0  0  0  0  0  0  0  0  0  0
   -2.5377    0.5885    1.5571 C   0  0  0  0  0  0  0  0  0  0  0  0
   -3.6379    0.4759    2.0831 O   0  0  0  0  0  0  0  0  0  0  0  0
   -2.1372   -0.0676    0.2203 C   0  0  0  0  0  0  0  0  0  0  0  0
   -3.0242    0.4888   -0.9076 C   0  0  0  0  0  0  0  0  0  0  0  0
   -4.2617   -0.3415   -1.1548 C   0  0  0  0  0  0  0  0  0  0  0  0
   -5.4911    0.0159   -0.5898 C   0  0  0  0  0  0  0  0  0  0  0  0
   -6.6267   -0.7633   -0.8192 C   0  0  0  0  0  0  0  0  0  0  0  0
   -6.5443   -1.9061   -1.6124 C   0  0  0  0  0  0  0  0  0  0  0  0
   -5.3249   -2.2743   -2.1739 C   0  0  0  0  0  0  0  0  0  0  0  0
   -4.1881   -1.4975   -1.9455 C   0  0  0  0  0  0  0  0  0  0  0  0
   -0.7195    0.1750   -0.1037 N   0  0  0  0  0  0  0  0  0  0  0  0
    0.2650   -0.6365    0.4285 C   0  0  0  0  0  0  0  0  0  0  0  0
    0.0253   -1.6510    1.0716 O   0  0  0  0  0  0  0  0  0  0  0  0
    1.6625   -0.1442    0.1282 C   0  0  0  0  0  0  0  0  0  0  0  0
    2.7132   -1.0096    0.8107 C   0  0  0  0  0  0  0  0  0  0  0  0
    4.0532   -0.4983    0.6001 N   0  0  0  0  0  0  0  0  0  0  0  0
    4.7491   -0.6922   -0.5758 C   0  0  0  0  0  0  0  0  0  0  0  0
    4.2665   -1.2849   -1.5358 O   0  0  0  0  0  0  0  0  0  0  0  0
    6.0836   -0.1286   -0.5689 C   0  0  0  0  0  0  0  0  0  0  0  0
    7.0822   -0.1484   -1.5246 C   0  0  0  0  0  0  0  0  0  0  0  0
    8.1788    0.5678   -0.9862 C   0  0  0  0  0  0  0  0  0  0  0  0
    7.7826    0.9916    0.2613 C   0  0  0  0  0  0  0  0  0  0  0  0
    6.5183    0.5728    0.5275 O   0  0  0  0  0  0  0  0  0  0  0  0
   -2.6591    2.6614    3.2357 H   0  0  0  0  0  0  0  0  0  0  0  0
   -2.0565    1.1784    4.0683 H   0  0  0  0  0  0  0  0  0  0  0  0
   -0.9415    2.4986    3.6621 H   0  0  0  0  0  0  0  0  0  0  0  0
   -2.2658   -1.1500    0.3450 H   0  0  0  0  0  0  0  0  0  0  0  0
   -2.4633    0.5267   -1.8541 H   0  0  0  0  0  0  0  0  0  0  0  0
   -3.3124    1.5311   -0.7033 H   0  0  0  0  0  0  0  0  0  0  0  0
   -5.5738    0.8969    0.0431 H   0  0  0  0  0  0  0  0  0  0  0  0
   -7.5751   -0.4805   -0.3723 H   0  0  0  0  0  0  0  0  0  0  0  0
   -7.4291   -2.5126   -1.7875 H   0  0  0  0  0  0  0  0  0  0  0  0
   -5.2584   -3.1690   -2.7871 H   0  0  0  0  0  0  0  0  0  0  0  0
   -3.2426   -1.8027   -2.3872 H   0  0  0  0  0  0  0  0  0  0  0  0
   -0.4572    1.1313   -0.3100 H   0  0  0  0  0  0  0  0  0  0  0  0
    1.7519    0.8958    0.4648 H   0  0  0  0  0  0  0  0  0  0  0  0
    1.8053   -0.1580   -0.9578 H   0  0  0  0  0  0  0  0  0  0  0  0
    2.6679   -2.0356    0.4328 H   0  0  0  0  0  0  0  0  0  0  0  0
    2.5474   -1.0422    1.8940 H   0  0  0  0  0  0  0  0  0  0  0  0
    4.5308   -0.0017    1.3456 H   0  0  0  0  0  0  0  0  0  0  0  0
    7.0090   -0.6220   -2.4961 H   0  0  0  0  0  0  0  0  0  0  0  0
    9.1344    0.7612   -1.4550 H   0  0  0  0  0  0  0  0  0  0  0  0
    8.2591    1.5734    1.0400 H   0  0  0  0  0  0  0  0  0  0  0  0
  1  2  1  0
  2  3  1  0
  3  4  2  0
  3  5  1  0
  5  6  1  0
  6  7  1  0
  7  8  2  0
  8  9  1  0
  9 10  2  0
 10 11  1  0
 11 12  2  0
  5 13  1  0
 13 14  1  0
 14 15  2  0
 14 16  1  0
 16 17  1  0
 17 18  1  0
 18 19  1  0
 19 20  2  0
 19 21  1  0
 21 22  2  0
 22 23  1  0
 23 24  2  0
 24 25  1  0
 12  7  1  0
 25 21  1  0
  1 26  1  0
  1 27  1  0
  1 28  1  0
  5 29  1  0
  6 30  1  0
  6 31  1  0
  8 32  1  0
  9 33  1  0
 10 34  1  0
 11 35  1  0
 12 36  1  0
 13 37  1  0
 16 38  1  0
 16 39  1  0
 17 40  1  0
 17 41  1  0
 18 42  1  0
 22 43  1  0
 23 44  1  0
 24 45  1  0
M  END
$$$$
