
     RDKit          3D

 58 61  0  0  0  0  0  0  0  0999 V2000
    4.8329    2.3467   -6.4964 C   0  0  0  0  0  0  0  0  0  0  0  0
    4.9570    1.1574   -5.7292 O   0  0  0  0  0  0  0  0  0  0  0  0
    4.4341    1.1804   -4.4657 C   0  0  0  0  0  0  0  0  0  0  0  0
    4.4651   -0.0456   -3.7983 C   0  0  0  0  0  0  0  0  0  0  0  0
    3.9580   -0.1649   -2.5030 C   0  0  0  0  0  0  0  0  0  0  0  0
    3.4175    0.9492   -1.8485 C   0  0  0  0  0  0  0  0  0  0  0  0
    2.8329    0.8087   -0.4678 C   0  0  0  0  0  0  0  0  0  0  0  0
    1.4828    0.3001   -0.5416 N   0  0  0  0  0  0  0  0  0  0  0  0
    1.1800   -1.0308   -0.3355 C   0  0  0  0  0  0  0  0  0  0  0  0
    2.0180   -1.8404    0.0642 O   0  0  0  0  0  0  0  0  0  0  0  0
   -0.2472   -1.4566   -0.6500 C   0  0  0  0  0  0  0  0  0  0  0  0
   -0.3981   -1.6299   -2.1029 C   0  0  0  0  0  0  0  0  0  0  0  0
   -0.5277   -1.7841   -3.2482 N   0  0  0  0  0  0  0  0  0  0  0  0
   -1.2537   -0.4856   -0.0711 C   0  0  0  0  0  0  0  0  0  0  0  0
   -1.4613    0.6850   -0.7474 N   0  0  0  0  0  0  0  0  0  0  0  0
   -2.3523    1.5451   -0.2245 C   0  0  0  0  0  0  0  0  0  0  0  0
   -2.6271    2.7379   -0.8829 C   0  0  0  0  0  0  0  0  0  0  0  0
   -3.5413    3.6571   -0.3656 C   0  0  0  0  0  0  0  0  0  0  0  0
   -4.1945    3.3764    0.8280 C   0  0  0  0  0  0  0  0  0  0  0  0
   -3.9262    2.1793    1.4933 C   0  0  0  0  0  0  0  0  0  0  0  0
   -3.0156    1.2584    0.9880 C   0  0  0  0  0  0  0  0  0  0  0  0
   -2.7789    0.1187    1.6650 N   0  0  0  0  0  0  0  0  0  0  0  0
   -1.8958   -0.7621    1.1448 C   0  0  0  0  0  0  0  0  0  0  0  0
   -1.5816   -1.9279    1.8669 N   0  0  0  0  0  0  0  0  0  0  0  0
   -0.4956   -1.6665    2.8538 C   0  0  0  0  0  0  0  0  0  0  0  0
   -1.0232   -1.6433    4.3075 C   0  0  0  0  0  0  0  0  0  0  0  0
   -1.6604   -2.9160    4.7186 N   0  0  0  0  0  0  0  0  0  0  0  0
   -2.5506   -2.6971    5.8585 C   0  0  0  0  0  0  0  0  0  0  0  0
   -2.3705   -3.5518    3.5825 C   0  0  0  0  0  0  0  0  0  0  0  0
   -2.7814   -2.5700    2.4617 C   0  0  0  0  0  0  0  0  0  0  0  0
    3.3876    2.1782   -2.5210 C   0  0  0  0  0  0  0  0  0  0  0  0
    3.8959    2.2942   -3.8200 C   0  0  0  0  0  0  0  0  0  0  0  0
    3.7821    2.6302   -6.6229 H   0  0  0  0  0  0  0  0  0  0  0  0
    5.4127    3.1628   -6.0523 H   0  0  0  0  0  0  0  0  0  0  0  0
    5.2459    2.1479   -7.4910 H   0  0  0  0  0  0  0  0  0  0  0  0
    4.8775   -0.9208   -4.2951 H   0  0  0  0  0  0  0  0  0  0  0  0
    3.9763   -1.1365   -2.0100 H   0  0  0  0  0  0  0  0  0  0  0  0
    3.4629    0.1582    0.1486 H   0  0  0  0  0  0  0  0  0  0  0  0
    2.7866    1.7837    0.0299 H   0  0  0  0  0  0  0  0  0  0  0  0
    0.7820    0.8909   -0.9843 H   0  0  0  0  0  0  0  0  0  0  0  0
   -0.3871   -2.4489   -0.2043 H   0  0  0  0  0  0  0  0  0  0  0  0
   -2.1223    2.9524   -1.8225 H   0  0  0  0  0  0  0  0  0  0  0  0
   -3.7419    4.5833   -0.8976 H   0  0  0  0  0  0  0  0  0  0  0  0
   -4.9125    4.0811    1.2420 H   0  0  0  0  0  0  0  0  0  0  0  0
   -4.4406    1.9560    2.4264 H   0  0  0  0  0  0  0  0  0  0  0  0
    0.0371   -0.7288    2.6454 H   0  0  0  0  0  0  0  0  0  0  0  0
    0.2462   -2.4693    2.7520 H   0  0  0  0  0  0  0  0  0  0  0  0
   -1.7311   -0.8074    4.4028 H   0  0  0  0  0  0  0  0  0  0  0  0
   -0.1862   -1.4367    4.9870 H   0  0  0  0  0  0  0  0  0  0  0  0
   -2.0077   -2.2307    6.6900 H   0  0  0  0  0  0  0  0  0  0  0  0
   -2.9357   -3.6527    6.2324 H   0  0  0  0  0  0  0  0  0  0  0  0
   -3.4052   -2.0589    5.6008 H   0  0  0  0  0  0  0  0  0  0  0  0
   -3.2504   -4.1121    3.9239 H   0  0  0  0  0  0  0  0  0  0  0  0
   -1.6880   -4.2991    3.1538 H   0  0  0  0  0  0  0  0  0  0  0  0
   -3.4900   -1.8450    2.8849 H   0  0  0  0  0  0  0  0  0  0  0  0
   -3.3076   -3.1238    1.6733 H   0  0  0  0  0  0  0  0  0  0  0  0
    2.9638    3.0574   -2.0407 H   0  0  0  0  0  0  0  0  0  0  0  0
    3.8542    3.2664   -4.2987 H   0  0  0  0  0  0  0  0  0  0  0  0
  1  2  1  0
  2  3  1  0
  3  4  2  0
  4  5  1  0
  5  6  2  0
  6  7  1  0
  7  8  1  0
  8  9  1  0
  9 10  2  0
  9 11  1  0
 11 12  1  0
 12 13  3  0
 11 14  1  0
 14 15  2  0
 15 16  1  0
 16 17  2  0
 17 18  1  0
 18 19  2  0
 19 20  1  0
 20 21  2  0
 21 22  1  0
 22 23  2  0
 23 24  1  0
 24 25  1  0
 25 26  1  0
 26 27  1  0
 27 28  1  0
 27 29  1  0
 29 30  1  0
  6 31  1  0
 31 32  2  0
 32  3  1  0
 23 14  1  0
 30 24  1  0
 21 16  1  0
  1 33  1  0
  1 34  1  0
  1 35  1  0
  4 36  1  0
  5 37  1  0
  7 38  1  0
  7 39  1  0
  8 40  1  0
 11 41  1  0
 17 42  1  0
 18 43  1  0
 19 44  1  0
 20 45  1  0
 25 46  1  0
 25 47  1  0
 26 48  1  0
 26 49  1  0
 28 50  1  0
 28 51  1  0
 28 52  1  0
 29 53  1  0
 29 54  1  0
 30 55  1  0
 30 56  1  0
 31 57  1  0
 32 58  1  0
M  END
$$$$
