
     RDKit          3D

 58 62  0  0  0  0  0  0  0  0999 V2000
   -5.7320    0.3162   -2.6019 C   0  0  0  0  0  0  0  0  0  0  0  0
   -5.0232   -0.9167   -2.6021 O   0  0  0  0  0  0  0  0  0  0  0  0
   -3.8656   -0.9659   -1.8760 C   0  0  0  0  0  0  0  0  0  0  0  0
   -3.1794   -2.1815   -1.9540 C   0  0  0  0  0  0  0  0  0  0  0  0
   -1.9835   -2.3722   -1.2573 C   0  0  0  0  0  0  0  0  0  0  0  0
   -1.4716   -1.3460   -0.4579 C   0  0  0  0  0  0  0  0  0  0  0  0
   -0.1966   -1.5673    0.2838 C   0  0  0  0  0  0  0  0  0  0  0  0
    0.7219   -2.2871   -0.2668 N   0  0  0  0  0  0  0  0  0  0  0  0
    1.9959   -2.4337    0.4318 C   0  0  0  0  0  0  0  0  0  0  0  0
    2.7541   -1.1080    0.3953 C   0  0  0  0  0  0  0  0  0  0  0  0
    3.7118   -0.9513   -0.3723 O   0  0  0  0  0  0  0  0  0  0  0  0
    2.3535   -0.1068    1.2880 N   0  0  0  0  0  0  0  0  0  0  0  0
    3.2249    1.0709    1.3666 C   0  0  0  0  0  0  0  0  0  0  0  0
    2.8437    2.0420    0.2487 C   0  0  0  0  0  0  0  0  0  0  0  0
    1.9995    2.9236    0.3917 O   0  0  0  0  0  0  0  0  0  0  0  0
    3.4812    1.7890   -0.9473 N   0  0  0  0  0  0  0  0  0  0  0  0
    3.0799    2.4797   -2.1494 C   0  0  0  0  0  0  0  0  0  0  0  0
    3.9916    2.0962   -3.2538 C   0  0  0  0  0  0  0  0  0  0  0  0
    4.2581    0.8992   -3.8897 C   0  0  0  0  0  0  0  0  0  0  0  0
    5.2415    1.1773   -4.8697 C   0  0  0  0  0  0  0  0  0  0  0  0
    5.5073    2.5227   -4.7748 C   0  0  0  0  0  0  0  0  0  0  0  0
    4.7523    3.0893   -3.7987 O   0  0  0  0  0  0  0  0  0  0  0  0
    1.1233   -0.2258    1.9471 C   0  0  0  0  0  0  0  0  0  0  0  0
    0.9342    0.6026    3.4305 S   0  0  0  0  0  0  0  0  0  0  0  0
   -0.5772   -0.0915    3.6993 C   0  0  0  0  0  0  0  0  0  0  0  0
   -0.9859   -0.9107    2.6701 C   0  0  0  0  0  0  0  0  0  0  0  0
   -0.0232   -0.9289    1.5913 C   0  0  0  0  0  0  0  0  0  0  0  0
   -2.2836   -1.6504    2.8084 C   0  0  0  0  0  0  0  0  0  0  0  0
   -3.3667   -0.8329    3.5383 C   0  0  0  0  0  0  0  0  0  0  0  0
   -2.8727    0.2922    4.4731 C   0  0  0  0  0  0  0  0  0  0  0  0
   -1.4086    0.1671    4.9115 C   0  0  0  0  0  0  0  0  0  0  0  0
   -2.1455   -0.1192   -0.3929 C   0  0  0  0  0  0  0  0  0  0  0  0
   -3.3416    0.0667   -1.0968 C   0  0  0  0  0  0  0  0  0  0  0  0
   -6.6163    0.1924   -3.2351 H   0  0  0  0  0  0  0  0  0  0  0  0
   -5.1247    1.1209   -3.0301 H   0  0  0  0  0  0  0  0  0  0  0  0
   -6.0770    0.5728   -1.5948 H   0  0  0  0  0  0  0  0  0  0  0  0
   -3.5779   -2.9861   -2.5679 H   0  0  0  0  0  0  0  0  0  0  0  0
   -1.4607   -3.3226   -1.3380 H   0  0  0  0  0  0  0  0  0  0  0  0
    1.8883   -2.8083    1.4562 H   0  0  0  0  0  0  0  0  0  0  0  0
    2.5998   -3.1785   -0.0989 H   0  0  0  0  0  0  0  0  0  0  0  0
    3.1609    1.5866    2.3276 H   0  0  0  0  0  0  0  0  0  0  0  0
    4.2734    0.7713    1.2485 H   0  0  0  0  0  0  0  0  0  0  0  0
    3.8791    0.8551   -1.0512 H   0  0  0  0  0  0  0  0  0  0  0  0
    3.0975    3.5587   -1.9627 H   0  0  0  0  0  0  0  0  0  0  0  0
    2.0495    2.1907   -2.3842 H   0  0  0  0  0  0  0  0  0  0  0  0
    3.8029   -0.0563   -3.6632 H   0  0  0  0  0  0  0  0  0  0  0  0
    5.7007    0.4831   -5.5593 H   0  0  0  0  0  0  0  0  0  0  0  0
    6.1710    3.1941   -5.3018 H   0  0  0  0  0  0  0  0  0  0  0  0
   -2.0801   -2.5571    3.3950 H   0  0  0  0  0  0  0  0  0  0  0  0
   -2.6777   -1.9986    1.8511 H   0  0  0  0  0  0  0  0  0  0  0  0
   -4.0331   -0.3817    2.7907 H   0  0  0  0  0  0  0  0  0  0  0  0
   -3.9975   -1.5270    4.1089 H   0  0  0  0  0  0  0  0  0  0  0  0
   -3.5237    0.3547    5.3531 H   0  0  0  0  0  0  0  0  0  0  0  0
   -2.9928    1.2463    3.9410 H   0  0  0  0  0  0  0  0  0  0  0  0
   -1.2988   -0.6681    5.6130 H   0  0  0  0  0  0  0  0  0  0  0  0
   -1.0999    1.0806    5.4308 H   0  0  0  0  0  0  0  0  0  0  0  0
   -1.7472    0.7073    0.1920 H   0  0  0  0  0  0  0  0  0  0  0  0
   -3.8336    1.0309   -1.0183 H   0  0  0  0  0  0  0  0  0  0  0  0
  1  2  1  0
  2  3  1  0
  3  4  2  0
  4  5  1  0
  5  6  2  0
  6  7  1  0
  7  8  2  0
  8  9  1  0
  9 10  1  0
 10 11  2  0
 10 12  1  0
 12 13  1  0
 13 14  1  0
 14 15  2  0
 14 16  1  0
 16 17  1  0
 17 18  1  0
 18 19  2  0
 19 20  1  0
 20 21  2  0
 21 22  1  0
 12 23  1  0
 23 24  1  0
 24 25  1  0
 25 26  2  0
 26 27  1  0
 26 28  1  0
 28 29  1  0
 29 30  1  0
 30 31  1  0
  6 32  1  0
 32 33  2  0
 33  3  1  0
 27  7  1  0
 22 18  1  0
 27 23  2  0
 31 25  1  0
  1 34  1  0
  1 35  1  0
  1 36  1  0
  4 37  1  0
  5 38  1  0
  9 39  1  0
  9 40  1  0
 13 41  1  0
 13 42  1  0
 16 43  1  0
 17 44  1  0
 17 45  1  0
 19 46  1  0
 20 47  1  0
 21 48  1  0
 28 49  1  0
 28 50  1  0
 29 51  1  0
 29 52  1  0
 30 53  1  0
 30 54  1  0
 31 55  1  0
 31 56  1  0
 32 57  1  0
 33 58  1  0
M  END
$$$$
