
     RDKit          3D

 44 46  0  0  0  0  0  0  0  0999 V2000
    7.8773   -1.2776   -1.1874 C   0  0  0  0  0  0  0  0  0  0  0  0
    6.7591   -0.9601   -2.0069 O   0  0  0  0  0  0  0  0  0  0  0  0
    5.6255   -0.5428   -1.3669 C   0  0  0  0  0  0  0  0  0  0  0  0
    4.5529   -0.2481   -2.2084 C   0  0  0  0  0  0  0  0  0  0  0  0
    3.3338    0.1896   -1.6821 C   0  0  0  0  0  0  0  0  0  0  0  0
    3.1690    0.3408   -0.3016 C   0  0  0  0  0  0  0  0  0  0  0  0
    1.9128    0.7853    0.1493 N   0  0  0  0  0  0  0  0  0  0  0  0
    1.5047    1.0236    1.4480 C   0  0  0  0  0  0  0  0  0  0  0  0
    2.1963    0.9204    2.4586 O   0  0  0  0  0  0  0  0  0  0  0  0
    0.0531    1.5104    1.5443 C   0  0  0  0  0  0  0  0  0  0  0  0
   -0.8932    0.6438    0.9334 O   0  0  0  0  0  0  0  0  0  0  0  0
   -1.3736    1.0691   -0.2637 C   0  0  0  0  0  0  0  0  0  0  0  0
   -0.5309    1.6967   -1.0895 N   0  0  0  0  0  0  0  0  0  0  0  0
   -1.4336    1.9484   -2.4742 S   0  0  0  0  0  0  0  0  0  0  0  0
   -2.8666    1.2215   -2.0406 N   0  0  0  0  0  0  0  0  0  0  0  0
   -2.7055    0.7775   -0.7865 C   0  0  0  0  0  0  0  0  0  0  0  0
   -3.6745    0.0872   -0.0865 N   0  0  0  0  0  0  0  0  0  0  0  0
   -4.8340   -0.3949   -0.8577 C   0  0  0  0  0  0  0  0  0  0  0  0
   -5.5477   -1.5106   -0.0956 C   0  0  0  0  0  0  0  0  0  0  0  0
   -5.9380   -1.0646    1.3090 C   0  0  0  0  0  0  0  0  0  0  0  0
   -4.7206   -0.5277    2.0537 C   0  0  0  0  0  0  0  0  0  0  0  0
   -4.0258    0.5751    1.2573 C   0  0  0  0  0  0  0  0  0  0  0  0
    4.2422    0.0443    0.5383 C   0  0  0  0  0  0  0  0  0  0  0  0
    5.4648   -0.3949    0.0094 C   0  0  0  0  0  0  0  0  0  0  0  0
    7.6500   -2.1112   -0.5147 H   0  0  0  0  0  0  0  0  0  0  0  0
    8.6937   -1.5934   -1.8441 H   0  0  0  0  0  0  0  0  0  0  0  0
    8.2197   -0.4000   -0.6293 H   0  0  0  0  0  0  0  0  0  0  0  0
    4.6659   -0.3609   -3.2838 H   0  0  0  0  0  0  0  0  0  0  0  0
    2.5197    0.4085   -2.3681 H   0  0  0  0  0  0  0  0  0  0  0  0
    1.2126    0.9638   -0.5684 H   0  0  0  0  0  0  0  0  0  0  0  0
   -0.0100    2.5514    1.2011 H   0  0  0  0  0  0  0  0  0  0  0  0
   -0.2011    1.5309    2.6112 H   0  0  0  0  0  0  0  0  0  0  0  0
   -5.5270    0.4334   -1.0536 H   0  0  0  0  0  0  0  0  0  0  0  0
   -4.5173   -0.8034   -1.8257 H   0  0  0  0  0  0  0  0  0  0  0  0
   -6.4407   -1.8245   -0.6475 H   0  0  0  0  0  0  0  0  0  0  0  0
   -4.8876   -2.3845   -0.0258 H   0  0  0  0  0  0  0  0  0  0  0  0
   -6.7067   -0.2846    1.2479 H   0  0  0  0  0  0  0  0  0  0  0  0
   -6.3732   -1.9050    1.8608 H   0  0  0  0  0  0  0  0  0  0  0  0
   -4.0149   -1.3483    2.2345 H   0  0  0  0  0  0  0  0  0  0  0  0
   -5.0259   -0.1422    3.0329 H   0  0  0  0  0  0  0  0  0  0  0  0
   -4.6864    1.4474    1.1689 H   0  0  0  0  0  0  0  0  0  0  0  0
   -3.1491    0.8985    1.8260 H   0  0  0  0  0  0  0  0  0  0  0  0
    4.1642    0.1419    1.6166 H   0  0  0  0  0  0  0  0  0  0  0  0
    6.2667   -0.6115    0.7074 H   0  0  0  0  0  0  0  0  0  0  0  0
  1  2  1  0
  2  3  1  0
  3  4  2  0
  4  5  1  0
  5  6  2  0
  6  7  1  0
  7  8  1  0
  8  9  2  0
  8 10  1  0
 10 11  1  0
 11 12  1  0
 12 13  2  0
 13 14  1  0
 14 15  1  0
 15 16  2  0
 16 17  1  0
 17 18  1  0
 18 19  1  0
 19 20  1  0
 20 21  1  0
 21 22  1  0
  6 23  1  0
 23 24  2  0
 24  3  1  0
 16 12  1  0
 22 17  1  0
  1 25  1  0
  1 26  1  0
  1 27  1  0
  4 28  1  0
  5 29  1  0
  7 30  1  0
 10 31  1  0
 10 32  1  0
 18 33  1  0
 18 34  1  0
 19 35  1  0
 19 36  1  0
 20 37  1  0
 20 38  1  0
 21 39  1  0
 21 40  1  0
 22 41  1  0
 22 42  1  0
 23 43  1  0
 24 44  1  0
M  END
$$$$
