
     RDKit          3D

 49 50  0  0  0  0  0  0  0  0999 V2000
   -5.2842    1.5733   -2.2792 C   0  0  0  0  0  0  0  0  0  0  0  0
   -5.5578    1.2420   -0.9211 O   0  0  0  0  0  0  0  0  0  0  0  0
   -4.5689    0.5876   -0.2334 C   0  0  0  0  0  0  0  0  0  0  0  0
   -3.4637   -0.0427   -0.8174 C   0  0  0  0  0  0  0  0  0  0  0  0
   -2.4978   -0.6995   -0.0291 C   0  0  0  0  0  0  0  0  0  0  0  0
   -1.3631   -1.3491   -0.7131 C   0  0  0  0  0  0  0  0  0  0  0  0
   -0.2492   -1.8100   -0.1232 C   0  0  0  0  0  0  0  0  0  0  0  0
    0.8183   -2.4203   -0.9443 C   0  0  0  0  0  0  0  0  0  0  0  0
    0.8366   -2.4588   -2.1622 O   0  0  0  0  0  0  0  0  0  0  0  0
    1.7597   -2.9122   -0.0999 O   0  0  0  0  0  0  0  0  0  0  0  0
    2.8681   -3.5391   -0.7498 C   0  0  0  0  0  0  0  0  0  0  0  0
    3.9698   -2.5700   -1.1889 C   0  0  0  0  0  0  0  0  0  0  0  0
    4.8847   -2.9135   -1.9354 O   0  0  0  0  0  0  0  0  0  0  0  0
    3.8797   -1.3107   -0.6374 N   0  0  0  0  0  0  0  0  0  0  0  0
    4.9406   -0.3344   -0.8068 C   0  0  0  0  0  0  0  0  0  0  0  0
    4.4698    1.0591   -0.3926 C   0  0  0  0  0  0  0  0  0  0  0  0
    5.5461    2.1222   -0.5254 C   0  0  0  0  0  0  0  0  0  0  0  0
    5.1088    3.1355    0.5014 C   0  0  0  0  0  0  0  0  0  0  0  0
    4.5592    2.2617    1.6078 C   0  0  0  0  0  0  0  0  0  0  0  0
    4.0791    1.0540    0.9982 O   0  0  0  0  0  0  0  0  0  0  0  0
   -2.6679   -0.7230    1.3639 C   0  0  0  0  0  0  0  0  0  0  0  0
   -3.7625   -0.0933    1.9586 C   0  0  0  0  0  0  0  0  0  0  0  0
   -4.7117    0.5401    1.1596 C   0  0  0  0  0  0  0  0  0  0  0  0
   -5.7453    1.1768    1.7951 O   0  0  0  0  0  0  0  0  0  0  0  0
   -6.9671    0.4206    1.6940 C   0  0  0  0  0  0  0  0  0  0  0  0
   -7.3745   -0.0473    3.0291 C   0  0  0  0  0  0  0  0  0  0  0  0
   -7.6872   -0.4125    4.0875 N   0  0  0  0  0  0  0  0  0  0  0  0
   -6.0913    2.2230   -2.6364 H   0  0  0  0  0  0  0  0  0  0  0  0
   -5.2810    0.6746   -2.9042 H   0  0  0  0  0  0  0  0  0  0  0  0
   -4.3433    2.1266   -2.3723 H   0  0  0  0  0  0  0  0  0  0  0  0
   -3.3331   -0.0315   -1.8953 H   0  0  0  0  0  0  0  0  0  0  0  0
   -1.4571   -1.4394   -1.7959 H   0  0  0  0  0  0  0  0  0  0  0  0
   -0.0659   -1.7477    0.9392 H   0  0  0  0  0  0  0  0  0  0  0  0
    3.3149   -4.2299   -0.0245 H   0  0  0  0  0  0  0  0  0  0  0  0
    2.5400   -4.1288   -1.6133 H   0  0  0  0  0  0  0  0  0  0  0  0
    3.2944   -1.2012    0.1854 H   0  0  0  0  0  0  0  0  0  0  0  0
    5.7713   -0.6664   -0.1738 H   0  0  0  0  0  0  0  0  0  0  0  0
    5.2729   -0.3435   -1.8512 H   0  0  0  0  0  0  0  0  0  0  0  0
    3.5832    1.3440   -0.9690 H   0  0  0  0  0  0  0  0  0  0  0  0
    6.5315    1.7254   -0.2581 H   0  0  0  0  0  0  0  0  0  0  0  0
    5.6097    2.5331   -1.5370 H   0  0  0  0  0  0  0  0  0  0  0  0
    4.3060    3.7581    0.0914 H   0  0  0  0  0  0  0  0  0  0  0  0
    5.9139    3.7966    0.8347 H   0  0  0  0  0  0  0  0  0  0  0  0
    3.7392    2.7445    2.1467 H   0  0  0  0  0  0  0  0  0  0  0  0
    5.3331    1.9876    2.3367 H   0  0  0  0  0  0  0  0  0  0  0  0
   -1.9590   -1.2274    2.0158 H   0  0  0  0  0  0  0  0  0  0  0  0
   -3.8726   -0.0982    3.0425 H   0  0  0  0  0  0  0  0  0  0  0  0
   -6.8914   -0.4318    1.0080 H   0  0  0  0  0  0  0  0  0  0  0  0
   -7.7352    1.0956    1.2927 H   0  0  0  0  0  0  0  0  0  0  0  0
  1  2  1  0
  2  3  1  0
  3  4  2  0
  4  5  1  0
  5  6  1  0
  6  7  2  3
  7  8  1  0
  8  9  2  0
  8 10  1  0
 10 11  1  0
 11 12  1  0
 12 13  2  0
 12 14  1  0
 14 15  1  0
 15 16  1  0
 16 17  1  0
 17 18  1  0
 18 19  1  0
 19 20  1  0
  5 21  2  0
 21 22  1  0
 22 23  2  0
 23 24  1  0
 24 25  1  0
 25 26  1  0
 26 27  3  0
 23  3  1  0
 20 16  1  0
  1 28  1  0
  1 29  1  0
  1 30  1  0
  4 31  1  0
  6 32  1  0
  7 33  1  0
 11 34  1  0
 11 35  1  0
 14 36  1  0
 15 37  1  0
 15 38  1  0
 16 39  1  0
 17 40  1  0
 17 41  1  0
 18 42  1  0
 18 43  1  0
 19 44  1  0
 19 45  1  0
 21 46  1  0
 22 47  1  0
 25 48  1  0
 25 49  1  0
M  END
$$$$
