
     RDKit          3D

 44 46  0  0  0  0  0  0  0  0999 V2000
    8.6501    0.0197    1.1166 C   0  0  0  0  0  0  0  0  0  0  0  0
    7.8796   -0.8614    0.3067 O   0  0  0  0  0  0  0  0  0  0  0  0
    6.5450   -0.5927    0.1910 C   0  0  0  0  0  0  0  0  0  0  0  0
    5.8788    0.5032    0.7380 C   0  0  0  0  0  0  0  0  0  0  0  0
    4.4982    0.6625    0.5500 C   0  0  0  0  0  0  0  0  0  0  0  0
    3.7670   -0.2738   -0.1860 C   0  0  0  0  0  0  0  0  0  0  0  0
    2.4173   -0.2103   -0.4095 O   0  0  0  0  0  0  0  0  0  0  0  0
    1.6956    0.8806    0.1536 C   0  0  0  0  0  0  0  0  0  0  0  0
    0.2625    0.6704   -0.1543 C   0  0  0  0  0  0  0  0  0  0  0  0
   -0.4491   -0.1653   -0.9794 C   0  0  0  0  0  0  0  0  0  0  0  0
   -1.8183    0.1762   -0.7711 C   0  0  0  0  0  0  0  0  0  0  0  0
   -2.9591   -0.4632   -1.4611 C   0  0  0  0  0  0  0  0  0  0  0  0
   -2.7088   -1.2744   -2.3575 O   0  0  0  0  0  0  0  0  0  0  0  0
   -4.3021   -0.1787   -1.1198 N   0  0  0  0  0  0  0  0  0  0  0  0
   -5.3356   -0.8930   -1.8667 C   0  0  0  0  0  0  0  0  0  0  0  0
   -4.7250    0.7761   -0.0649 C   0  0  0  0  0  0  0  0  0  0  0  0
   -4.5776    0.1736    1.3233 C   0  0  0  0  0  0  0  0  0  0  0  0
   -5.9165   -0.4974    1.5579 C   0  0  0  0  0  0  0  0  0  0  0  0
   -6.8925    0.1998    0.7720 O   0  0  0  0  0  0  0  0  0  0  0  0
   -6.2052    1.1717   -0.0314 C   0  0  0  0  0  0  0  0  0  0  0  0
   -1.8989    1.1686    0.1305 N   0  0  0  0  0  0  0  0  0  0  0  0
   -0.6099    1.4720    0.5087 O   0  0  0  0  0  0  0  0  0  0  0  0
    4.4478   -1.3688   -0.7421 C   0  0  0  0  0  0  0  0  0  0  0  0
    3.6152   -2.5638   -1.6771 Cl  0  0  0  0  0  0  0  0  0  0  0  0
    5.8235   -1.5242   -0.5553 C   0  0  0  0  0  0  0  0  0  0  0  0
    8.2758    0.0435    2.1449 H   0  0  0  0  0  0  0  0  0  0  0  0
    8.6806    1.0253    0.6852 H   0  0  0  0  0  0  0  0  0  0  0  0
    9.6744   -0.3623    1.1452 H   0  0  0  0  0  0  0  0  0  0  0  0
    6.4032    1.2562    1.3193 H   0  0  0  0  0  0  0  0  0  0  0  0
    4.0314    1.5340    0.9970 H   0  0  0  0  0  0  0  0  0  0  0  0
    1.8268    0.9093    1.2426 H   0  0  0  0  0  0  0  0  0  0  0  0
    2.0265    1.8242   -0.2936 H   0  0  0  0  0  0  0  0  0  0  0  0
   -0.0550   -0.9212   -1.6415 H   0  0  0  0  0  0  0  0  0  0  0  0
   -6.0250   -1.3809   -1.1752 H   0  0  0  0  0  0  0  0  0  0  0  0
   -5.8737   -0.1790   -2.4951 H   0  0  0  0  0  0  0  0  0  0  0  0
   -4.9261   -1.6668   -2.5199 H   0  0  0  0  0  0  0  0  0  0  0  0
   -4.1424    1.6899   -0.2026 H   0  0  0  0  0  0  0  0  0  0  0  0
   -3.7457   -0.5245    1.4490 H   0  0  0  0  0  0  0  0  0  0  0  0
   -4.4493    0.9826    2.0551 H   0  0  0  0  0  0  0  0  0  0  0  0
   -5.9021   -1.5434    1.2296 H   0  0  0  0  0  0  0  0  0  0  0  0
   -6.2138   -0.4746    2.6109 H   0  0  0  0  0  0  0  0  0  0  0  0
   -6.3226    2.1370    0.4755 H   0  0  0  0  0  0  0  0  0  0  0  0
   -6.6850    1.2548   -1.0097 H   0  0  0  0  0  0  0  0  0  0  0  0
    6.3400   -2.3767   -0.9888 H   0  0  0  0  0  0  0  0  0  0  0  0
  1  2  1  0
  2  3  1  0
  3  4  2  0
  4  5  1  0
  5  6  2  0
  6  7  1  0
  7  8  1  0
  8  9  1  0
  9 10  2  0
 10 11  1  0
 11 12  1  0
 12 13  2  0
 12 14  1  0
 14 15  1  0
 14 16  1  0
 16 17  1  0
 17 18  1  0
 18 19  1  0
 19 20  1  0
 11 21  2  0
 21 22  1  0
  6 23  1  0
 23 24  1  0
 23 25  2  0
 25  3  1  0
 22  9  1  0
 20 16  1  0
  1 26  1  0
  1 27  1  0
  1 28  1  0
  4 29  1  0
  5 30  1  0
  8 31  1  0
  8 32  1  0
 10 33  1  0
 15 34  1  0
 15 35  1  0
 15 36  1  0
 16 37  1  0
 17 38  1  0
 17 39  1  0
 18 40  1  0
 18 41  1  0
 20 42  1  0
 20 43  1  0
 25 44  1  0
M  END
$$$$
