
     RDKit          3D

 51 54  0  0  0  0  0  0  0  0999 V2000
   -0.6815    2.8512   -0.2304 O   0  0  0  0  0  0  0  0  0  0  0  0
   -0.9118    1.6483   -0.0873 C   0  0  0  0  0  0  0  0  0  0  0  0
    0.1945    0.6817   -0.1673 C   0  0  0  0  0  0  0  0  0  0  0  0
    1.5736    0.9757    0.0085 C   0  0  0  0  0  0  0  0  0  0  0  0
    2.2225   -0.2148   -0.2076 C   0  0  0  0  0  0  0  0  0  0  0  0
    3.6339   -0.6639   -0.1788 C   0  0  0  0  0  0  0  0  0  0  0  0
    4.4511    0.5052   -0.1814 O   0  0  0  0  0  0  0  0  0  0  0  0
    5.8060    0.3236   -0.1595 C   0  0  0  0  0  0  0  0  0  0  0  0
    6.5514    1.5028   -0.2442 C   0  0  0  0  0  0  0  0  0  0  0  0
    7.9457    1.4678   -0.2327 C   0  0  0  0  0  0  0  0  0  0  0  0
    8.6078    0.2459   -0.1299 C   0  0  0  0  0  0  0  0  0  0  0  0
    7.8787   -0.9487   -0.0313 C   0  0  0  0  0  0  0  0  0  0  0  0
    8.5882   -2.2776    0.0690 C   0  0  0  0  0  0  0  0  0  0  0  0
    7.9448   -3.1579    0.8871 F   0  0  0  0  0  0  0  0  0  0  0  0
    9.8565   -2.1784    0.5556 F   0  0  0  0  0  0  0  0  0  0  0  0
    8.6955   -2.9001   -1.1377 F   0  0  0  0  0  0  0  0  0  0  0  0
    6.4711   -0.8997   -0.0567 C   0  0  0  0  0  0  0  0  0  0  0  0
    1.3009   -1.1675   -0.5098 O   0  0  0  0  0  0  0  0  0  0  0  0
    0.0380   -0.6102   -0.5077 N   0  0  0  0  0  0  0  0  0  0  0  0
   -2.2235    1.1817    0.1216 N   0  0  0  0  0  0  0  0  0  0  0  0
   -2.5121    0.0698    1.0307 C   0  0  0  0  0  0  0  0  0  0  0  0
   -3.8061   -0.6411    0.6484 C   0  0  0  0  0  0  0  0  0  0  0  0
   -4.9706    0.3591    0.5666 C   0  0  0  0  0  0  0  0  0  0  0  0
   -6.2730   -0.3196    0.1882 C   0  0  0  0  0  0  0  0  0  0  0  0
   -6.4441   -0.9615   -1.0438 C   0  0  0  0  0  0  0  0  0  0  0  0
   -7.6637   -1.5600   -1.3255 C   0  0  0  0  0  0  0  0  0  0  0  0
   -8.7127   -1.5658   -0.4766 N   0  0  0  0  0  0  0  0  0  0  0  0
   -8.5313   -0.9457    0.7081 C   0  0  0  0  0  0  0  0  0  0  0  0
   -7.3506   -0.3191    1.0810 C   0  0  0  0  0  0  0  0  0  0  0  0
   -4.6176    1.5068   -0.3935 C   0  0  0  0  0  0  0  0  0  0  0  0
   -3.2961    2.1642   -0.0050 C   0  0  0  0  0  0  0  0  0  0  0  0
    2.0182    1.9298    0.2538 H   0  0  0  0  0  0  0  0  0  0  0  0
    3.8438   -1.2730   -1.0661 H   0  0  0  0  0  0  0  0  0  0  0  0
    3.8012   -1.2473    0.7340 H   0  0  0  0  0  0  0  0  0  0  0  0
    6.0399    2.4600   -0.3253 H   0  0  0  0  0  0  0  0  0  0  0  0
    8.5127    2.3939   -0.3042 H   0  0  0  0  0  0  0  0  0  0  0  0
    9.6972    0.2287   -0.1230 H   0  0  0  0  0  0  0  0  0  0  0  0
    5.9257   -1.8384    0.0116 H   0  0  0  0  0  0  0  0  0  0  0  0
   -1.6988   -0.6526    1.0870 H   0  0  0  0  0  0  0  0  0  0  0  0
   -2.5998    0.4982    2.0378 H   0  0  0  0  0  0  0  0  0  0  0  0
   -3.6629   -1.1456   -0.3160 H   0  0  0  0  0  0  0  0  0  0  0  0
   -4.0283   -1.4220    1.3863 H   0  0  0  0  0  0  0  0  0  0  0  0
   -5.0945    0.7992    1.5670 H   0  0  0  0  0  0  0  0  0  0  0  0
   -5.6479   -1.0018   -1.7803 H   0  0  0  0  0  0  0  0  0  0  0  0
   -7.8317   -2.0660   -2.2723 H   0  0  0  0  0  0  0  0  0  0  0  0
   -9.3884   -0.9644    1.3756 H   0  0  0  0  0  0  0  0  0  0  0  0
   -7.2830    0.1580    2.0539 H   0  0  0  0  0  0  0  0  0  0  0  0
   -4.5328    1.1314   -1.4218 H   0  0  0  0  0  0  0  0  0  0  0  0
   -5.4153    2.2598   -0.3974 H   0  0  0  0  0  0  0  0  0  0  0  0
   -3.0333    2.9120   -0.7627 H   0  0  0  0  0  0  0  0  0  0  0  0
   -3.3877    2.6879    0.9549 H   0  0  0  0  0  0  0  0  0  0  0  0
  1  2  2  0
  2  3  1  0
  3  4  1  0
  4  5  2  0
  5  6  1  0
  6  7  1  0
  7  8  1  0
  8  9  2  0
  9 10  1  0
 10 11  2  0
 11 12  1  0
 12 13  1  0
 13 14  1  0
 13 15  1  0
 13 16  1  0
 12 17  2  0
  5 18  1  0
 18 19  1  0
  2 20  1  0
 20 21  1  0
 21 22  1  0
 22 23  1  0
 23 24  1  0
 24 25  2  0
 25 26  1  0
 26 27  2  0
 27 28  1  0
 28 29  2  0
 23 30  1  0
 30 31  1  0
 19  3  2  0
 31 20  1  0
 17  8  1  0
 29 24  1  0
  4 32  1  0
  6 33  1  0
  6 34  1  0
  9 35  1  0
 10 36  1  0
 11 37  1  0
 17 38  1  0
 21 39  1  0
 21 40  1  0
 22 41  1  0
 22 42  1  0
 23 43  1  0
 25 44  1  0
 26 45  1  0
 28 46  1  0
 29 47  1  0
 30 48  1  0
 30 49  1  0
 31 50  1  0
 31 51  1  0
M  END
$$$$
