
     RDKit          3D

 55 57  0  0  0  0  0  0  0  0999 V2000
   -7.6798   -2.7973   -0.6559 C   0  0  0  0  0  0  0  0  0  0  0  0
   -7.6870   -1.4644   -0.1661 O   0  0  0  0  0  0  0  0  0  0  0  0
   -6.5223   -0.9809    0.3772 C   0  0  0  0  0  0  0  0  0  0  0  0
   -5.3690   -1.7451    0.5810 C   0  0  0  0  0  0  0  0  0  0  0  0
   -4.2290   -1.1683    1.1475 C   0  0  0  0  0  0  0  0  0  0  0  0
   -4.2267    0.1797    1.5104 C   0  0  0  0  0  0  0  0  0  0  0  0
   -3.0528    0.7928    2.1382 C   0  0  0  0  0  0  0  0  0  0  0  0
   -1.8693    1.0355    1.5565 C   0  0  0  0  0  0  0  0  0  0  0  0
   -0.5646    1.7739    2.4095 S   0  0  0  0  0  0  0  0  0  0  0  0
    0.4986    1.7564    1.0095 C   0  0  0  0  0  0  0  0  0  0  0  0
    2.0478    2.3688    1.0867 S   0  0  0  0  0  0  0  0  0  0  0  0
   -0.1463    1.1736   -0.0606 N   0  0  0  0  0  0  0  0  0  0  0  0
    0.4218    1.0074   -1.4039 C   0  0  0  0  0  0  0  0  0  0  0  0
    0.8160   -0.4449   -1.7163 C   0  0  0  0  0  0  0  0  0  0  0  0
    2.0547   -0.9354   -0.9658 C   0  0  0  0  0  0  0  0  0  0  0  0
    3.3405   -0.2710   -1.4392 C   0  0  0  0  0  0  0  0  0  0  0  0
    3.3670    0.4401   -2.4367 O   0  0  0  0  0  0  0  0  0  0  0  0
    4.4125   -0.5975   -0.6262 N   0  0  0  0  0  0  0  0  0  0  0  0
    5.7490   -0.1621   -0.7500 C   0  0  0  0  0  0  0  0  0  0  0  0
    6.2032    0.6890   -1.7598 C   0  0  0  0  0  0  0  0  0  0  0  0
    7.5456    1.0772   -1.8143 C   0  0  0  0  0  0  0  0  0  0  0  0
    8.4479    0.6170   -0.8579 C   0  0  0  0  0  0  0  0  0  0  0  0
    8.0079   -0.2350    0.1588 C   0  0  0  0  0  0  0  0  0  0  0  0
    8.9969   -0.7032    1.1587 C   0  0  0  0  0  0  0  0  0  0  0  0
   10.1784   -0.4132    1.1856 O   0  0  0  0  0  0  0  0  0  0  0  0
    8.4592   -1.5191    2.0833 O   0  0  0  0  0  0  0  0  0  0  0  0
    6.6607   -0.6217    0.2100 C   0  0  0  0  0  0  0  0  0  0  0  0
   -1.4563    0.7620    0.1503 C   0  0  0  0  0  0  0  0  0  0  0  0
   -2.1731    0.2443   -0.6937 O   0  0  0  0  0  0  0  0  0  0  0  0
   -5.3820    0.9474    1.3176 C   0  0  0  0  0  0  0  0  0  0  0  0
   -6.5290    0.3786    0.7491 C   0  0  0  0  0  0  0  0  0  0  0  0
   -7.7022    1.0581    0.5274 O   0  0  0  0  0  0  0  0  0  0  0  0
   -7.7050    2.4599    0.7533 C   0  0  0  0  0  0  0  0  0  0  0  0
   -6.9281   -2.9280   -1.4414 H   0  0  0  0  0  0  0  0  0  0  0  0
   -7.5320   -3.5147    0.1578 H   0  0  0  0  0  0  0  0  0  0  0  0
   -8.6604   -2.9961   -1.0988 H   0  0  0  0  0  0  0  0  0  0  0  0
   -5.3230   -2.7943    0.3104 H   0  0  0  0  0  0  0  0  0  0  0  0
   -3.3442   -1.7829    1.2939 H   0  0  0  0  0  0  0  0  0  0  0  0
   -3.2137    1.0762    3.1773 H   0  0  0  0  0  0  0  0  0  0  0  0
    1.2630    1.6880   -1.5547 H   0  0  0  0  0  0  0  0  0  0  0  0
   -0.3510    1.3099   -2.1219 H   0  0  0  0  0  0  0  0  0  0  0  0
   -0.0185   -1.1161   -1.4820 H   0  0  0  0  0  0  0  0  0  0  0  0
    0.9893   -0.5312   -2.7963 H   0  0  0  0  0  0  0  0  0  0  0  0
    2.1677   -2.0120   -1.1436 H   0  0  0  0  0  0  0  0  0  0  0  0
    1.9358   -0.7908    0.1127 H   0  0  0  0  0  0  0  0  0  0  0  0
    4.2178   -1.2033    0.1614 H   0  0  0  0  0  0  0  0  0  0  0  0
    5.5365    1.0747   -2.5251 H   0  0  0  0  0  0  0  0  0  0  0  0
    7.8827    1.7419   -2.6064 H   0  0  0  0  0  0  0  0  0  0  0  0
    9.4904    0.9254   -0.9081 H   0  0  0  0  0  0  0  0  0  0  0  0
    9.2182   -1.7385    2.6645 H   0  0  0  0  0  0  0  0  0  0  0  0
    6.3271   -1.2829    1.0053 H   0  0  0  0  0  0  0  0  0  0  0  0
   -5.3670    1.9895    1.6191 H   0  0  0  0  0  0  0  0  0  0  0  0
   -6.9533    2.9639    0.1368 H   0  0  0  0  0  0  0  0  0  0  0  0
   -8.6867    2.8441    0.4599 H   0  0  0  0  0  0  0  0  0  0  0  0
   -7.5641    2.6869    1.8150 H   0  0  0  0  0  0  0  0  0  0  0  0
  1  2  1  0
  2  3  1  0
  3  4  2  0
  4  5  1  0
  5  6  2  0
  6  7  1  0
  7  8  2  3
  8  9  1  0
  9 10  1  0
 10 11  2  0
 10 12  1  0
 12 13  1  0
 13 14  1  0
 14 15  1  0
 15 16  1  0
 16 17  2  0
 16 18  1  0
 18 19  1  0
 19 20  2  0
 20 21  1  0
 21 22  2  0
 22 23  1  0
 23 24  1  0
 24 25  2  0
 24 26  1  0
 23 27  2  0
 12 28  1  0
 28 29  2  0
  6 30  1  0
 30 31  2  0
 31 32  1  0
 32 33  1  0
 31  3  1  0
 28  8  1  0
 27 19  1  0
  1 34  1  0
  1 35  1  0
  1 36  1  0
  4 37  1  0
  5 38  1  0
  7 39  1  0
 13 40  1  0
 13 41  1  0
 14 42  1  0
 14 43  1  0
 15 44  1  0
 15 45  1  0
 18 46  1  0
 20 47  1  0
 21 48  1  0
 22 49  1  0
 26 50  1  0
 27 51  1  0
 30 52  1  0
 33 53  1  0
 33 54  1  0
 33 55  1  0
M  END
$$$$
