
     RDKit          3D

 34 36  0  0  0  0  0  0  0  0999 V2000
   -4.2056    2.5924    3.4898 Br  0  0  0  0  0  0  0  0  0  0  0  0
   -3.1817    1.6064    2.2628 C   0  0  0  0  0  0  0  0  0  0  0  0
   -1.7367    1.9843    2.1918 C   0  0  0  0  0  0  0  0  0  0  0  0
   -0.8244    1.2724    1.6148 N   0  0  0  0  0  0  0  0  0  0  0  0
    0.4384    1.7721    1.6371 N   0  0  0  0  0  0  0  0  0  0  0  0
    1.4494    1.1903    0.9610 C   0  0  0  0  0  0  0  0  0  0  0  0
    2.7066    1.5562    0.8784 N   0  0  0  0  0  0  0  0  0  0  0  0
    3.2939    0.6290    0.0473 C   0  0  0  0  0  0  0  0  0  0  0  0
    4.6220    0.5342   -0.3934 C   0  0  0  0  0  0  0  0  0  0  0  0
    4.9720   -0.5138   -1.2561 C   0  0  0  0  0  0  0  0  0  0  0  0
    4.0188   -1.4472   -1.6737 C   0  0  0  0  0  0  0  0  0  0  0  0
    2.6879   -1.3698   -1.2449 C   0  0  0  0  0  0  0  0  0  0  0  0
    2.3694   -0.3176   -0.3847 C   0  0  0  0  0  0  0  0  0  0  0  0
    1.2037    0.0648    0.2195 N   0  0  0  0  0  0  0  0  0  0  0  0
   -3.7590    0.6533    1.5083 C   0  0  0  0  0  0  0  0  0  0  0  0
   -3.1118   -0.1746    0.4854 C   0  0  0  0  0  0  0  0  0  0  0  0
   -2.8280   -1.5185    0.7539 C   0  0  0  0  0  0  0  0  0  0  0  0
   -2.2120   -2.3152   -0.2142 C   0  0  0  0  0  0  0  0  0  0  0  0
   -1.8790   -1.7749   -1.4560 C   0  0  0  0  0  0  0  0  0  0  0  0
   -2.1597   -0.4370   -1.7302 C   0  0  0  0  0  0  0  0  0  0  0  0
   -2.7794    0.3607   -0.7651 C   0  0  0  0  0  0  0  0  0  0  0  0
   -1.4799    2.9381    2.6875 H   0  0  0  0  0  0  0  0  0  0  0  0
    0.6687    2.6256    2.1432 H   0  0  0  0  0  0  0  0  0  0  0  0
    5.3558    1.2628   -0.0679 H   0  0  0  0  0  0  0  0  0  0  0  0
    5.9993   -0.5980   -1.6042 H   0  0  0  0  0  0  0  0  0  0  0  0
    4.3146   -2.2464   -2.3507 H   0  0  0  0  0  0  0  0  0  0  0  0
    1.9454   -2.0889   -1.5709 H   0  0  0  0  0  0  0  0  0  0  0  0
    0.2902   -0.3601    0.1521 H   0  0  0  0  0  0  0  0  0  0  0  0
   -4.8179    0.4357    1.6340 H   0  0  0  0  0  0  0  0  0  0  0  0
   -3.0769   -1.9522    1.7199 H   0  0  0  0  0  0  0  0  0  0  0  0
   -1.9947   -3.3585    0.0012 H   0  0  0  0  0  0  0  0  0  0  0  0
   -1.4024   -2.3963   -2.2100 H   0  0  0  0  0  0  0  0  0  0  0  0
   -1.8992   -0.0127   -2.6969 H   0  0  0  0  0  0  0  0  0  0  0  0
   -2.9880    1.4035   -0.9926 H   0  0  0  0  0  0  0  0  0  0  0  0
  1  2  1  0
  2  3  1  0
  3  4  2  3
  4  5  1  0
  5  6  1  0
  6  7  2  0
  7  8  1  0
  8  9  2  0
  9 10  1  0
 10 11  2  0
 11 12  1  0
 12 13  2  0
 13 14  1  0
  2 15  2  3
 15 16  1  0
 16 17  2  0
 17 18  1  0
 18 19  2  0
 19 20  1  0
 20 21  2  0
 14  6  1  0
 21 16  1  0
 13  8  1  0
  3 22  1  0
  5 23  1  0
  9 24  1  0
 10 25  1  0
 11 26  1  0
 12 27  1  0
 14 28  1  0
 15 29  1  0
 17 30  1  0
 18 31  1  0
 19 32  1  0
 20 33  1  0
 21 34  1  0
M  END
$$$$
