
     RDKit          3D

 53 56  0  0  0  0  0  0  0  0999 V2000
    5.3629    4.8915    3.1368 C   0  0  0  0  0  0  0  0  0  0  0  0
    4.6968    3.6510    2.9364 O   0  0  0  0  0  0  0  0  0  0  0  0
    4.6501    3.1715    1.6559 C   0  0  0  0  0  0  0  0  0  0  0  0
    5.1973    3.7881    0.5306 C   0  0  0  0  0  0  0  0  0  0  0  0
    5.0775    3.1874   -0.7255 C   0  0  0  0  0  0  0  0  0  0  0  0
    4.3985    1.9749   -0.8608 C   0  0  0  0  0  0  0  0  0  0  0  0
    4.3440    1.3809   -2.0957 O   0  0  0  0  0  0  0  0  0  0  0  0
    3.3287    1.9894   -2.8926 C   0  0  0  0  0  0  0  0  0  0  0  0
    3.8632    1.3345    0.2619 C   0  0  0  0  0  0  0  0  0  0  0  0
    3.1807    0.0597    0.1506 C   0  0  0  0  0  0  0  0  0  0  0  0
    3.6874   -1.1100    0.6804 C   0  0  0  0  0  0  0  0  0  0  0  0
    2.6171   -2.4016    0.3309 S   0  0  0  0  0  0  0  0  0  0  0  0
    1.5744   -1.3141   -0.4633 C   0  0  0  0  0  0  0  0  0  0  0  0
    0.4059   -1.7028   -1.0622 N   0  0  0  0  0  0  0  0  0  0  0  0
   -0.1686   -2.9540   -1.0419 C   0  0  0  0  0  0  0  0  0  0  0  0
    0.2188   -3.9526   -0.4398 O   0  0  0  0  0  0  0  0  0  0  0  0
   -1.4347   -3.0216   -1.8617 C   0  0  0  0  0  0  0  0  0  0  0  0
   -2.5572   -2.5383   -1.0851 N   0  0  0  0  0  0  0  0  0  0  0  0
   -3.0289   -1.2467   -1.1395 C   0  0  0  0  0  0  0  0  0  0  0  0
   -2.3853   -0.3195   -1.8405 O   0  0  0  0  0  0  0  0  0  0  0  0
   -4.1760   -1.1928   -0.3776 C   0  0  0  0  0  0  0  0  0  0  0  0
   -4.3608   -2.4858    0.1981 C   0  0  0  0  0  0  0  0  0  0  0  0
   -3.3130   -3.2826   -0.2090 C   0  0  0  0  0  0  0  0  0  0  0  0
   -3.0320   -4.5392    0.1209 O   0  0  0  0  0  0  0  0  0  0  0  0
   -5.5047   -2.8303    1.0917 C   0  0  0  0  0  0  0  0  0  0  0  0
   -6.2013   -1.5664    1.6203 C   0  0  0  0  0  0  0  0  0  0  0  0
   -6.4192   -0.5254    0.5109 C   0  0  0  0  0  0  0  0  0  0  0  0
   -5.0900   -0.0476   -0.0951 C   0  0  0  0  0  0  0  0  0  0  0  0
    1.9643   -0.0615   -0.4987 N   0  0  0  0  0  0  0  0  0  0  0  0
    3.9876    1.9470    1.5167 C   0  0  0  0  0  0  0  0  0  0  0  0
    4.8727    5.6979    2.5816 H   0  0  0  0  0  0  0  0  0  0  0  0
    6.4225    4.8158    2.8720 H   0  0  0  0  0  0  0  0  0  0  0  0
    5.3029    5.1353    4.2019 H   0  0  0  0  0  0  0  0  0  0  0  0
    5.7301    4.7307    0.5961 H   0  0  0  0  0  0  0  0  0  0  0  0
    5.5265    3.6586   -1.5950 H   0  0  0  0  0  0  0  0  0  0  0  0
    3.6926    2.9335   -3.3103 H   0  0  0  0  0  0  0  0  0  0  0  0
    3.1061    1.3140   -3.7245 H   0  0  0  0  0  0  0  0  0  0  0  0
    2.4013    2.1568   -2.3321 H   0  0  0  0  0  0  0  0  0  0  0  0
    4.6077   -1.2680    1.2244 H   0  0  0  0  0  0  0  0  0  0  0  0
   -0.1127   -0.9307   -1.4689 H   0  0  0  0  0  0  0  0  0  0  0  0
   -1.6323   -4.0566   -2.1609 H   0  0  0  0  0  0  0  0  0  0  0  0
   -1.3417   -2.4335   -2.7812 H   0  0  0  0  0  0  0  0  0  0  0  0
   -2.9065    0.5014   -1.7582 H   0  0  0  0  0  0  0  0  0  0  0  0
   -2.0736   -4.7019    0.0290 H   0  0  0  0  0  0  0  0  0  0  0  0
   -5.1653   -3.4414    1.9354 H   0  0  0  0  0  0  0  0  0  0  0  0
   -6.2255   -3.4290    0.5217 H   0  0  0  0  0  0  0  0  0  0  0  0
   -5.5921   -1.1182    2.4157 H   0  0  0  0  0  0  0  0  0  0  0  0
   -7.1627   -1.8401    2.0695 H   0  0  0  0  0  0  0  0  0  0  0  0
   -6.9696    0.3343    0.9085 H   0  0  0  0  0  0  0  0  0  0  0  0
   -7.0426   -0.9669   -0.2764 H   0  0  0  0  0  0  0  0  0  0  0  0
   -5.2887    0.5195   -1.0107 H   0  0  0  0  0  0  0  0  0  0  0  0
   -4.5935    0.6307    0.6097 H   0  0  0  0  0  0  0  0  0  0  0  0
    3.5610    1.4748    2.3999 H   0  0  0  0  0  0  0  0  0  0  0  0
  1  2  1  0
  2  3  1  0
  3  4  2  0
  4  5  1  0
  5  6  2  0
  6  7  1  0
  7  8  1  0
  6  9  1  0
  9 10  1  0
 10 11  2  0
 11 12  1  0
 12 13  1  0
 13 14  1  0
 14 15  1  0
 15 16  2  0
 15 17  1  0
 17 18  1  0
 18 19  1  0
 19 20  1  0
 19 21  2  0
 21 22  1  0
 22 23  2  0
 23 24  1  0
 22 25  1  0
 25 26  1  0
 26 27  1  0
 27 28  1  0
 13 29  2  0
  9 30  2  0
 30  3  1  0
 29 10  1  0
 23 18  1  0
 28 21  1  0
  1 31  1  0
  1 32  1  0
  1 33  1  0
  4 34  1  0
  5 35  1  0
  8 36  1  0
  8 37  1  0
  8 38  1  0
 11 39  1  0
 14 40  1  0
 17 41  1  0
 17 42  1  0
 20 43  1  0
 24 44  1  0
 25 45  1  0
 25 46  1  0
 26 47  1  0
 26 48  1  0
 27 49  1  0
 27 50  1  0
 28 51  1  0
 28 52  1  0
 30 53  1  0
M  END
$$$$
