
     RDKit          3D

 59 63  0  0  0  0  0  0  0  0999 V2000
    5.6327   -4.8830    2.3827 C   0  0  0  0  0  0  0  0  0  0  0  0
    4.8935   -3.7322    2.7711 O   0  0  0  0  0  0  0  0  0  0  0  0
    4.7060   -2.7680    1.8197 C   0  0  0  0  0  0  0  0  0  0  0  0
    5.1769   -2.8062    0.5076 C   0  0  0  0  0  0  0  0  0  0  0  0
    4.9105   -1.7452   -0.3669 C   0  0  0  0  0  0  0  0  0  0  0  0
    4.1725   -0.6326    0.0589 C   0  0  0  0  0  0  0  0  0  0  0  0
    3.8796    0.4737   -0.8613 C   0  0  0  0  0  0  0  0  0  0  0  0
    5.1899    1.3896   -1.4730 S   0  0  0  0  0  0  0  0  0  0  0  0
    4.1638    2.4308   -2.3731 C   0  0  0  0  0  0  0  0  0  0  0  0
    4.5625    3.5091   -3.1887 C   0  0  0  0  0  0  0  0  0  0  0  0
    3.5877    4.2511   -3.8581 C   0  0  0  0  0  0  0  0  0  0  0  0
    2.2454    3.9303   -3.7244 C   0  0  0  0  0  0  0  0  0  0  0  0
    1.8553    2.8604   -2.9135 C   0  0  0  0  0  0  0  0  0  0  0  0
    2.8199    2.0884   -2.2132 C   0  0  0  0  0  0  0  0  0  0  0  0
    2.6645    0.9533   -1.3279 C   0  0  0  0  0  0  0  0  0  0  0  0
    1.3952    0.3435   -0.9424 C   0  0  0  0  0  0  0  0  0  0  0  0
    1.0648   -0.9445   -1.3709 C   0  0  0  0  0  0  0  0  0  0  0  0
   -0.1544   -1.5135   -0.9947 C   0  0  0  0  0  0  0  0  0  0  0  0
   -1.0560   -0.8094   -0.1912 C   0  0  0  0  0  0  0  0  0  0  0  0
   -2.2081   -1.4878    0.0921 O   0  0  0  0  0  0  0  0  0  0  0  0
   -3.1351   -0.9106    1.0160 C   0  0  0  0  0  0  0  0  0  0  0  0
   -4.1491   -0.0156    0.2813 C   0  0  0  0  0  0  0  0  0  0  0  0
   -5.0892    0.6835    1.1751 N   0  0  0  0  0  0  0  0  0  0  0  0
   -5.9341   -0.2626    1.9398 C   0  0  0  0  0  0  0  0  0  0  0  0
   -7.2569    0.3775    2.3880 C   0  0  0  0  0  0  0  0  0  0  0  0
   -8.0877    0.7563    1.2821 O   0  0  0  0  0  0  0  0  0  0  0  0
   -7.3387    1.1098    0.1114 C   0  0  0  0  0  0  0  0  0  0  0  0
   -5.9343    1.6455    0.4311 C   0  0  0  0  0  0  0  0  0  0  0  0
   -0.7298    0.4806    0.2276 C   0  0  0  0  0  0  0  0  0  0  0  0
    0.4910    1.0548   -0.1463 C   0  0  0  0  0  0  0  0  0  0  0  0
    3.7027   -0.6013    1.3764 C   0  0  0  0  0  0  0  0  0  0  0  0
    3.9690   -1.6616    2.2472 C   0  0  0  0  0  0  0  0  0  0  0  0
    6.6564   -4.6176    2.0988 H   0  0  0  0  0  0  0  0  0  0  0  0
    5.1259   -5.4245    1.5770 H   0  0  0  0  0  0  0  0  0  0  0  0
    5.6899   -5.5511    3.2475 H   0  0  0  0  0  0  0  0  0  0  0  0
    5.7525   -3.6442    0.1297 H   0  0  0  0  0  0  0  0  0  0  0  0
    5.2806   -1.7981   -1.3887 H   0  0  0  0  0  0  0  0  0  0  0  0
    5.6140    3.7598   -3.2975 H   0  0  0  0  0  0  0  0  0  0  0  0
    3.8862    5.0841   -4.4902 H   0  0  0  0  0  0  0  0  0  0  0  0
    1.4917    4.5095   -4.2521 H   0  0  0  0  0  0  0  0  0  0  0  0
    0.7989    2.6176   -2.8241 H   0  0  0  0  0  0  0  0  0  0  0  0
    1.7491   -1.5137   -1.9950 H   0  0  0  0  0  0  0  0  0  0  0  0
   -0.4018   -2.5183   -1.3287 H   0  0  0  0  0  0  0  0  0  0  0  0
   -2.6312   -0.3925    1.8403 H   0  0  0  0  0  0  0  0  0  0  0  0
   -3.6629   -1.7552    1.4736 H   0  0  0  0  0  0  0  0  0  0  0  0
   -4.6864   -0.6157   -0.4654 H   0  0  0  0  0  0  0  0  0  0  0  0
   -3.5862    0.7294   -0.2941 H   0  0  0  0  0  0  0  0  0  0  0  0
   -6.1755   -1.1401    1.3254 H   0  0  0  0  0  0  0  0  0  0  0  0
   -5.3818   -0.6059    2.8212 H   0  0  0  0  0  0  0  0  0  0  0  0
   -7.0746    1.2663    3.0035 H   0  0  0  0  0  0  0  0  0  0  0  0
   -7.8284   -0.3285    2.9990 H   0  0  0  0  0  0  0  0  0  0  0  0
   -7.9158    1.8677   -0.4281 H   0  0  0  0  0  0  0  0  0  0  0  0
   -7.2788    0.2263   -0.5348 H   0  0  0  0  0  0  0  0  0  0  0  0
   -6.0420    2.5316    1.0695 H   0  0  0  0  0  0  0  0  0  0  0  0
   -5.4451    1.9904   -0.4874 H   0  0  0  0  0  0  0  0  0  0  0  0
   -1.3999    1.0746    0.8403 H   0  0  0  0  0  0  0  0  0  0  0  0
    0.7318    2.0601    0.1929 H   0  0  0  0  0  0  0  0  0  0  0  0
    3.1268    0.2477    1.7367 H   0  0  0  0  0  0  0  0  0  0  0  0
    3.5969   -1.6241    3.2681 H   0  0  0  0  0  0  0  0  0  0  0  0
  1  2  1  0
  2  3  1  0
  3  4  2  0
  4  5  1  0
  5  6  2  0
  6  7  1  0
  7  8  1  0
  8  9  1  0
  9 10  2  0
 10 11  1  0
 11 12  2  0
 12 13  1  0
 13 14  2  0
 14 15  1  0
 15 16  1  0
 16 17  2  0
 17 18  1  0
 18 19  2  0
 19 20  1  0
 20 21  1  0
 21 22  1  0
 22 23  1  0
 23 24  1  0
 24 25  1  0
 25 26  1  0
 26 27  1  0
 27 28  1  0
 19 29  1  0
 29 30  2  0
  6 31  1  0
 31 32  2  0
 32  3  1  0
 15  7  2  0
 30 16  1  0
 14  9  1  0
 28 23  1  0
  1 33  1  0
  1 34  1  0
  1 35  1  0
  4 36  1  0
  5 37  1  0
 10 38  1  0
 11 39  1  0
 12 40  1  0
 13 41  1  0
 17 42  1  0
 18 43  1  0
 21 44  1  0
 21 45  1  0
 22 46  1  0
 22 47  1  0
 24 48  1  0
 24 49  1  0
 25 50  1  0
 25 51  1  0
 27 52  1  0
 27 53  1  0
 28 54  1  0
 28 55  1  0
 29 56  1  0
 30 57  1  0
 31 58  1  0
 32 59  1  0
M  END
$$$$
