
     RDKit          3D

 44 46  0  0  0  0  0  0  0  0999 V2000
   -2.9833    1.2188   -0.9990 O   0  0  0  0  0  0  0  0  0  0  0  0
   -3.5146    0.3012   -0.3769 C   0  0  0  0  0  0  0  0  0  0  0  0
   -2.8682   -0.8741   -0.0087 N   0  0  0  0  0  0  0  0  0  0  0  0
   -1.6169   -1.2367   -0.4379 N   0  0  0  0  0  0  0  0  0  0  0  0
   -0.7034   -0.3108   -0.4344 C   0  0  0  0  0  0  0  0  0  0  0  0
    0.6692   -0.5505   -0.9413 C   0  0  0  0  0  0  0  0  0  0  0  0
    0.9720   -1.6650   -1.6207 C   0  0  0  0  0  0  0  0  0  0  0  0
    0.1068   -2.6900   -1.9054 O   0  0  0  0  0  0  0  0  0  0  0  0
    2.2170   -1.8759   -2.1102 N   0  0  0  0  0  0  0  0  0  0  0  0
    3.2660   -1.0142   -1.9680 C   0  0  0  0  0  0  0  0  0  0  0  0
    4.3563   -1.2915   -2.4635 O   0  0  0  0  0  0  0  0  0  0  0  0
    2.9958    0.1446   -1.2598 N   0  0  0  0  0  0  0  0  0  0  0  0
    4.0845    1.0855   -1.0438 C   0  0  0  0  0  0  0  0  0  0  0  0
    4.8240    0.8100    0.2484 C   0  0  0  0  0  0  0  0  0  0  0  0
    4.4267    1.4272    1.4435 C   0  0  0  0  0  0  0  0  0  0  0  0
    5.0969    1.1574    2.6378 C   0  0  0  0  0  0  0  0  0  0  0  0
    6.1670    0.2651    2.6516 C   0  0  0  0  0  0  0  0  0  0  0  0
    6.5665   -0.3604    1.4723 C   0  0  0  0  0  0  0  0  0  0  0  0
    5.8976   -0.0919    0.2770 C   0  0  0  0  0  0  0  0  0  0  0  0
    1.7448    0.4536   -0.7445 C   0  0  0  0  0  0  0  0  0  0  0  0
    1.4934    1.4989   -0.1450 O   0  0  0  0  0  0  0  0  0  0  0  0
   -4.9561    0.4181    0.0185 C   0  0  0  0  0  0  0  0  0  0  0  0
   -5.5754    1.6643   -0.1778 C   0  0  0  0  0  0  0  0  0  0  0  0
   -6.9147    1.8612    0.1657 C   0  0  0  0  0  0  0  0  0  0  0  0
   -7.6541    0.8138    0.7084 C   0  0  0  0  0  0  0  0  0  0  0  0
   -7.0587   -0.4320    0.9066 C   0  0  0  0  0  0  0  0  0  0  0  0
   -5.7173   -0.6292    0.5619 C   0  0  0  0  0  0  0  0  0  0  0  0
   -5.1654   -1.8698    0.7563 O   0  0  0  0  0  0  0  0  0  0  0  0
   -3.4713   -1.6490    0.2727 H   0  0  0  0  0  0  0  0  0  0  0  0
   -0.8823    0.7006   -0.0290 H   0  0  0  0  0  0  0  0  0  0  0  0
   -0.7610   -2.4671   -1.4992 H   0  0  0  0  0  0  0  0  0  0  0  0
    2.3917   -2.7315   -2.6219 H   0  0  0  0  0  0  0  0  0  0  0  0
    4.7901    1.0445   -1.8829 H   0  0  0  0  0  0  0  0  0  0  0  0
    3.6946    2.1109   -1.0307 H   0  0  0  0  0  0  0  0  0  0  0  0
    3.5877    2.1214    1.4514 H   0  0  0  0  0  0  0  0  0  0  0  0
    4.7810    1.6425    3.5577 H   0  0  0  0  0  0  0  0  0  0  0  0
    6.6878    0.0548    3.5820 H   0  0  0  0  0  0  0  0  0  0  0  0
    7.3978   -1.0606    1.4821 H   0  0  0  0  0  0  0  0  0  0  0  0
    6.2179   -0.5947   -0.6344 H   0  0  0  0  0  0  0  0  0  0  0  0
   -5.0120    2.4949   -0.6012 H   0  0  0  0  0  0  0  0  0  0  0  0
   -7.3769    2.8330    0.0078 H   0  0  0  0  0  0  0  0  0  0  0  0
   -8.6971    0.9686    0.9752 H   0  0  0  0  0  0  0  0  0  0  0  0
   -7.6577   -1.2344    1.3281 H   0  0  0  0  0  0  0  0  0  0  0  0
   -5.8469   -2.4616    1.1244 H   0  0  0  0  0  0  0  0  0  0  0  0
  1  2  2  0
  2  3  1  0
  3  4  1  0
  4  5  2  3
  5  6  1  0
  6  7  2  0
  7  8  1  0
  7  9  1  0
  9 10  1  0
 10 11  2  0
 10 12  1  0
 12 13  1  0
 13 14  1  0
 14 15  2  0
 15 16  1  0
 16 17  2  0
 17 18  1  0
 18 19  2  0
 12 20  1  0
 20 21  2  0
  2 22  1  0
 22 23  2  0
 23 24  1  0
 24 25  2  0
 25 26  1  0
 26 27  2  0
 27 28  1  0
 20  6  1  0
 27 22  1  0
 19 14  1  0
  3 29  1  0
  5 30  1  0
  8 31  1  0
  9 32  1  0
 13 33  1  0
 13 34  1  0
 15 35  1  0
 16 36  1  0
 17 37  1  0
 18 38  1  0
 19 39  1  0
 23 40  1  0
 24 41  1  0
 25 42  1  0
 26 43  1  0
 28 44  1  0
M  END
$$$$
