
     RDKit          3D

 39 40  0  0  0  0  0  0  0  0999 V2000
    1.7544   -1.2274    3.9761 C   0  0  0  0  0  0  0  0  0  0  0  0
    0.9472   -1.9291    2.8907 C   0  0  0  0  0  0  0  0  0  0  0  0
    0.6062   -1.0161    1.7002 C   0  0  0  0  0  0  0  0  0  0  0  0
    2.1093   -0.6751    0.6908 S   0  0  0  0  0  0  0  0  0  0  0  0
    2.1650    1.0512    0.7385 C   0  0  0  0  0  0  0  0  0  0  0  0
    1.2416    1.8657    1.1971 N   0  0  0  0  0  0  0  0  0  0  0  0
    1.7214    3.1543    1.0880 N   0  0  0  0  0  0  0  0  0  0  0  0
    2.9195    3.0838    0.5588 C   0  0  0  0  0  0  0  0  0  0  0  0
    3.2312    1.7792    0.2989 N   0  0  0  0  0  0  0  0  0  0  0  0
    4.4265    1.3212   -0.3496 C   0  0  0  0  0  0  0  0  0  0  0  0
   -0.4299   -1.6652    0.7720 C   0  0  0  0  0  0  0  0  0  0  0  0
   -0.6612   -2.8725    0.7994 O   0  0  0  0  0  0  0  0  0  0  0  0
   -1.0347   -0.7430   -0.0693 N   0  0  0  0  0  0  0  0  0  0  0  0
   -2.0499   -0.9621   -1.0278 C   0  0  0  0  0  0  0  0  0  0  0  0
   -2.7011   -2.1847   -1.1970 C   0  0  0  0  0  0  0  0  0  0  0  0
   -3.7017   -2.3234   -2.1635 C   0  0  0  0  0  0  0  0  0  0  0  0
   -4.0607   -1.2402   -2.9593 C   0  0  0  0  0  0  0  0  0  0  0  0
   -3.4216   -0.0086   -2.7966 C   0  0  0  0  0  0  0  0  0  0  0  0
   -2.4143    0.1375   -1.8370 C   0  0  0  0  0  0  0  0  0  0  0  0
   -1.7029    1.2920   -1.6096 O   0  0  0  0  0  0  0  0  0  0  0  0
   -2.0266    2.4216   -2.4076 C   0  0  0  0  0  0  0  0  0  0  0  0
    2.7475   -0.9417    3.6207 H   0  0  0  0  0  0  0  0  0  0  0  0
    1.2407   -0.3216    4.3206 H   0  0  0  0  0  0  0  0  0  0  0  0
    1.8839   -1.8869    4.8418 H   0  0  0  0  0  0  0  0  0  0  0  0
    1.4806   -2.8283    2.5587 H   0  0  0  0  0  0  0  0  0  0  0  0
    0.0147   -2.2850    3.3448 H   0  0  0  0  0  0  0  0  0  0  0  0
    0.1570   -0.0933    2.0927 H   0  0  0  0  0  0  0  0  0  0  0  0
    3.5729    3.9184    0.3451 H   0  0  0  0  0  0  0  0  0  0  0  0
    4.1517    0.8452   -1.2940 H   0  0  0  0  0  0  0  0  0  0  0  0
    4.9372    0.6134    0.3066 H   0  0  0  0  0  0  0  0  0  0  0  0
    5.0839    2.1730   -0.5453 H   0  0  0  0  0  0  0  0  0  0  0  0
   -0.6915    0.2171   -0.0508 H   0  0  0  0  0  0  0  0  0  0  0  0
   -2.4616   -3.0476   -0.5858 H   0  0  0  0  0  0  0  0  0  0  0  0
   -4.1999   -3.2812   -2.2871 H   0  0  0  0  0  0  0  0  0  0  0  0
   -4.8400   -1.3531   -3.7087 H   0  0  0  0  0  0  0  0  0  0  0  0
   -3.7261    0.8104   -3.4391 H   0  0  0  0  0  0  0  0  0  0  0  0
   -1.3507    3.2302   -2.1243 H   0  0  0  0  0  0  0  0  0  0  0  0
   -1.8677    2.2162   -3.4718 H   0  0  0  0  0  0  0  0  0  0  0  0
   -3.0502    2.7554   -2.2175 H   0  0  0  0  0  0  0  0  0  0  0  0
  1  2  1  0
  2  3  1  0
  3  4  1  0
  4  5  1  0
  5  6  2  0
  6  7  1  0
  7  8  2  0
  8  9  1  0
  9 10  1  0
  3 11  1  0
 11 12  2  0
 11 13  1  0
 13 14  1  0
 14 15  2  0
 15 16  1  0
 16 17  2  0
 17 18  1  0
 18 19  2  0
 19 20  1  0
 20 21  1  0
  9  5  1  0
 19 14  1  0
  1 22  1  0
  1 23  1  0
  1 24  1  0
  2 25  1  0
  2 26  1  0
  3 27  1  0
  8 28  1  0
 10 29  1  0
 10 30  1  0
 10 31  1  0
 13 32  1  0
 15 33  1  0
 16 34  1  0
 17 35  1  0
 18 36  1  0
 21 37  1  0
 21 38  1  0
 21 39  1  0
M  END
$$$$
