
     RDKit          3D

 45 47  0  0  0  0  0  0  0  0999 V2000
    2.2786   -1.7550   -4.0051 C   0  0  0  0  0  0  0  0  0  0  0  0
    3.6566   -1.3731   -3.5120 C   0  0  0  0  0  0  0  0  0  0  0  0
    4.5203   -0.9736   -4.3925 N   0  0  0  0  0  0  0  0  0  0  0  0
    3.9109   -1.4901   -2.0188 C   0  0  0  0  0  0  0  0  0  0  0  0
    5.3353   -1.5807   -1.6989 C   0  0  0  0  0  0  0  0  0  0  0  0
    6.4553   -1.6371   -1.4019 N   0  0  0  0  0  0  0  0  0  0  0  0
    3.2921   -0.3671   -1.2138 C   0  0  0  0  0  0  0  0  0  0  0  0
    2.7049    0.5810   -1.7404 O   0  0  0  0  0  0  0  0  0  0  0  0
    3.3739   -0.4899    0.3123 C   0  0  0  0  0  0  0  0  0  0  0  0
    2.1769   -0.0597    0.9592 O   0  0  0  0  0  0  0  0  0  0  0  0
    1.0975   -0.8166    0.6407 C   0  0  0  0  0  0  0  0  0  0  0  0
    1.1045   -1.8028   -0.0787 O   0  0  0  0  0  0  0  0  0  0  0  0
   -0.1195   -0.2039    1.1977 C   0  0  0  0  0  0  0  0  0  0  0  0
   -1.1080    0.1341    0.2717 C   0  0  0  0  0  0  0  0  0  0  0  0
   -2.2710    0.7239    0.7336 C   0  0  0  0  0  0  0  0  0  0  0  0
   -3.3779    1.1347   -0.1556 C   0  0  0  0  0  0  0  0  0  0  0  0
   -4.7113    1.1002    0.2981 C   0  0  0  0  0  0  0  0  0  0  0  0
   -5.7770    1.4788   -0.5243 C   0  0  0  0  0  0  0  0  0  0  0  0
   -5.5322    1.9077   -1.8249 C   0  0  0  0  0  0  0  0  0  0  0  0
   -4.2225    1.9586   -2.2918 C   0  0  0  0  0  0  0  0  0  0  0  0
   -3.8818    2.5497   -4.0561 Br  0  0  0  0  0  0  0  0  0  0  0  0
   -3.1553    1.5805   -1.4717 C   0  0  0  0  0  0  0  0  0  0  0  0
   -2.4648    0.9522    2.0560 N   0  0  0  0  0  0  0  0  0  0  0  0
   -1.5179    0.6131    2.9473 C   0  0  0  0  0  0  0  0  0  0  0  0
   -1.7637    0.8596    4.2914 C   0  0  0  0  0  0  0  0  0  0  0  0
   -0.8427    0.5251    5.2864 C   0  0  0  0  0  0  0  0  0  0  0  0
    0.3573   -0.0757    4.9367 C   0  0  0  0  0  0  0  0  0  0  0  0
    0.6293   -0.3325    3.5942 C   0  0  0  0  0  0  0  0  0  0  0  0
   -0.2995    0.0159    2.5792 C   0  0  0  0  0  0  0  0  0  0  0  0
    2.2020   -1.6125   -5.0865 H   0  0  0  0  0  0  0  0  0  0  0  0
    1.5235   -1.1385   -3.5114 H   0  0  0  0  0  0  0  0  0  0  0  0
    2.0912   -2.8064   -3.7710 H   0  0  0  0  0  0  0  0  0  0  0  0
    5.4334   -0.7141   -4.0024 H   0  0  0  0  0  0  0  0  0  0  0  0
    3.4174   -2.4164   -1.6973 H   0  0  0  0  0  0  0  0  0  0  0  0
    4.1947    0.1470    0.6569 H   0  0  0  0  0  0  0  0  0  0  0  0
    3.5977   -1.5195    0.6134 H   0  0  0  0  0  0  0  0  0  0  0  0
   -0.9586   -0.0709   -0.7837 H   0  0  0  0  0  0  0  0  0  0  0  0
   -4.9273    0.7702    1.3140 H   0  0  0  0  0  0  0  0  0  0  0  0
   -6.7947    1.4397   -0.1442 H   0  0  0  0  0  0  0  0  0  0  0  0
   -6.3627    2.2027   -2.4604 H   0  0  0  0  0  0  0  0  0  0  0  0
   -2.1433    1.6558   -1.8627 H   0  0  0  0  0  0  0  0  0  0  0  0
   -2.7051    1.3262    4.5745 H   0  0  0  0  0  0  0  0  0  0  0  0
   -1.0703    0.7333    6.3287 H   0  0  0  0  0  0  0  0  0  0  0  0
    1.0792   -0.3442    5.7040 H   0  0  0  0  0  0  0  0  0  0  0  0
    1.5749   -0.8097    3.3479 H   0  0  0  0  0  0  0  0  0  0  0  0
  1  2  1  0
  2  3  2  3
  2  4  1  0
  4  5  1  0
  5  6  3  0
  4  7  1  0
  7  8  2  0
  7  9  1  0
  9 10  1  0
 10 11  1  0
 11 12  2  0
 11 13  1  0
 13 14  2  0
 14 15  1  0
 15 16  1  0
 16 17  2  0
 17 18  1  0
 18 19  2  0
 19 20  1  0
 20 21  1  0
 20 22  2  0
 15 23  2  0
 23 24  1  0
 24 25  2  0
 25 26  1  0
 26 27  2  0
 27 28  1  0
 28 29  2  0
 29 13  1  0
 22 16  1  0
 29 24  1  0
  1 30  1  0
  1 31  1  0
  1 32  1  0
  3 33  1  0
  4 34  1  0
  9 35  1  0
  9 36  1  0
 14 37  1  0
 17 38  1  0
 18 39  1  0
 19 40  1  0
 22 41  1  0
 25 42  1  0
 26 43  1  0
 27 44  1  0
 28 45  1  0
M  END
$$$$
