
     RDKit          3D

 70 72  0  0  0  0  0  0  0  0999 V2000
   -4.0916    1.4901   -2.6290 C   0  0  0  0  0  0  0  0  0  0  0  0
   -3.6073    1.8120   -1.1967 C   0  0  0  0  0  0  0  0  0  0  0  0
   -3.0130    3.2443   -1.2651 C   0  0  0  0  0  0  0  0  0  0  0  0
   -4.8156    1.8934   -0.2396 C   0  0  0  0  0  0  0  0  0  0  0  0
   -2.5989    0.7450   -0.7053 C   0  0  0  0  0  0  0  0  0  0  0  0
   -1.3156    1.1199   -0.2723 C   0  0  0  0  0  0  0  0  0  0  0  0
   -0.3589    0.1804    0.1454 C   0  0  0  0  0  0  0  0  0  0  0  0
    1.0348    0.6091    0.6475 C   0  0  0  0  0  0  0  0  0  0  0  0
    0.9625    0.8455    2.1543 C   0  0  0  0  0  0  0  0  0  0  0  0
    1.5362   -0.0619    3.0544 C   0  0  0  0  0  0  0  0  0  0  0  0
    1.4440    0.1659    4.4244 C   0  0  0  0  0  0  0  0  0  0  0  0
    0.7748    1.2981    4.8577 C   0  0  0  0  0  0  0  0  0  0  0  0
    0.2084    2.1984    4.0284 N   0  0  0  0  0  0  0  0  0  0  0  0
    0.3087    1.9485    2.7008 C   0  0  0  0  0  0  0  0  0  0  0  0
    1.5994    1.7638   -0.1177 N   0  0  0  0  0  0  0  0  0  0  0  0
    2.8798    2.2565    0.4372 C   0  0  0  0  0  0  0  0  0  0  0  0
    4.0651    1.2571    0.3775 C   0  0  0  0  0  0  0  0  0  0  0  0
    3.9448    0.2388   -0.6846 N   0  0  0  0  0  0  0  0  0  0  0  0
    5.2352   -0.3603   -1.0487 C   0  0  0  0  0  0  0  0  0  0  0  0
    5.8992   -1.1507    0.0897 C   0  0  0  0  0  0  0  0  0  0  0  0
    7.1147   -1.7451   -0.3595 O   0  0  0  0  0  0  0  0  0  0  0  0
    3.2661    0.8098   -1.8587 C   0  0  0  0  0  0  0  0  0  0  0  0
    1.8579    1.3889   -1.5362 C   0  0  0  0  0  0  0  0  0  0  0  0
   -0.6998   -1.1817    0.1326 C   0  0  0  0  0  0  0  0  0  0  0  0
   -1.9644   -1.6346   -0.2818 C   0  0  0  0  0  0  0  0  0  0  0  0
   -2.2948   -3.1468   -0.3050 C   0  0  0  0  0  0  0  0  0  0  0  0
   -3.4115   -3.4717    0.7109 C   0  0  0  0  0  0  0  0  0  0  0  0
   -2.7281   -3.5895   -1.7211 C   0  0  0  0  0  0  0  0  0  0  0  0
   -1.0916   -4.0523    0.0716 C   0  0  0  0  0  0  0  0  0  0  0  0
   -2.8935   -0.6392   -0.6712 C   0  0  0  0  0  0  0  0  0  0  0  0
   -4.1570   -1.0399   -1.0104 O   0  0  0  0  0  0  0  0  0  0  0  0
   -3.2433    1.3743   -3.3139 H   0  0  0  0  0  0  0  0  0  0  0  0
   -4.6867    0.5747   -2.6841 H   0  0  0  0  0  0  0  0  0  0  0  0
   -4.7270    2.2935   -3.0205 H   0  0  0  0  0  0  0  0  0  0  0  0
   -2.7072    3.6048   -0.2760 H   0  0  0  0  0  0  0  0  0  0  0  0
   -2.1457    3.2898   -1.9343 H   0  0  0  0  0  0  0  0  0  0  0  0
   -3.7500    3.9619   -1.6466 H   0  0  0  0  0  0  0  0  0  0  0  0
   -4.4894    2.0556    0.7946 H   0  0  0  0  0  0  0  0  0  0  0  0
   -5.4301    0.9897   -0.2543 H   0  0  0  0  0  0  0  0  0  0  0  0
   -5.4793    2.7226   -0.5122 H   0  0  0  0  0  0  0  0  0  0  0  0
   -1.0173    2.1646   -0.2563 H   0  0  0  0  0  0  0  0  0  0  0  0
    1.6956   -0.2528    0.4882 H   0  0  0  0  0  0  0  0  0  0  0  0
    2.0519   -0.9480    2.6931 H   0  0  0  0  0  0  0  0  0  0  0  0
    1.8799   -0.5248    5.1375 H   0  0  0  0  0  0  0  0  0  0  0  0
    0.6742    1.5176    5.9166 H   0  0  0  0  0  0  0  0  0  0  0  0
   -0.1594    2.6951    2.0648 H   0  0  0  0  0  0  0  0  0  0  0  0
    2.7647    2.6313    1.4599 H   0  0  0  0  0  0  0  0  0  0  0  0
    3.1587    3.1479   -0.1433 H   0  0  0  0  0  0  0  0  0  0  0  0
    4.9870    1.8410    0.2594 H   0  0  0  0  0  0  0  0  0  0  0  0
    4.1279    0.7369    1.3400 H   0  0  0  0  0  0  0  0  0  0  0  0
    5.0921   -1.0586   -1.8846 H   0  0  0  0  0  0  0  0  0  0  0  0
    5.9335    0.4021   -1.4198 H   0  0  0  0  0  0  0  0  0  0  0  0
    6.1360   -0.5122    0.9464 H   0  0  0  0  0  0  0  0  0  0  0  0
    5.2407   -1.9550    0.4334 H   0  0  0  0  0  0  0  0  0  0  0  0
    7.7273   -1.0240   -0.5825 H   0  0  0  0  0  0  0  0  0  0  0  0
    3.8852    1.6074   -2.2917 H   0  0  0  0  0  0  0  0  0  0  0  0
    3.1451    0.0414   -2.6320 H   0  0  0  0  0  0  0  0  0  0  0  0
    1.0983    0.6955   -1.9145 H   0  0  0  0  0  0  0  0  0  0  0  0
    1.7306    2.2990   -2.1376 H   0  0  0  0  0  0  0  0  0  0  0  0
    0.0607   -1.8842    0.4618 H   0  0  0  0  0  0  0  0  0  0  0  0
   -4.3716   -3.0213    0.4461 H   0  0  0  0  0  0  0  0  0  0  0  0
   -3.1463   -3.1178    1.7141 H   0  0  0  0  0  0  0  0  0  0  0  0
   -3.5845   -4.5527    0.7746 H   0  0  0  0  0  0  0  0  0  0  0  0
   -2.8681   -4.6761   -1.7691 H   0  0  0  0  0  0  0  0  0  0  0  0
   -1.9708   -3.3186   -2.4659 H   0  0  0  0  0  0  0  0  0  0  0  0
   -3.6748   -3.1440   -2.0369 H   0  0  0  0  0  0  0  0  0  0  0  0
   -0.7476   -3.8649    1.0955 H   0  0  0  0  0  0  0  0  0  0  0  0
   -1.3629   -5.1139    0.0191 H   0  0  0  0  0  0  0  0  0  0  0  0
   -0.2458   -3.9044   -0.6101 H   0  0  0  0  0  0  0  0  0  0  0  0
   -4.6715   -0.9652   -0.1883 H   0  0  0  0  0  0  0  0  0  0  0  0
  1  2  1  0
  2  3  1  0
  2  4  1  0
  2  5  1  0
  5  6  2  0
  6  7  1  0
  7  8  1  0
  8  9  1  0
  9 10  2  0
 10 11  1  0
 11 12  2  0
 12 13  1  0
 13 14  2  0
  8 15  1  0
 15 16  1  0
 16 17  1  0
 17 18  1  0
 18 19  1  0
 19 20  1  0
 20 21  1  0
 18 22  1  0
 22 23  1  0
  7 24  2  0
 24 25  1  0
 25 26  1  0
 26 27  1  0
 26 28  1  0
 26 29  1  0
 25 30  2  0
 30 31  1  0
 30  5  1  0
 14  9  1  0
 23 15  1  0
  1 32  1  0
  1 33  1  0
  1 34  1  0
  3 35  1  0
  3 36  1  0
  3 37  1  0
  4 38  1  0
  4 39  1  0
  4 40  1  0
  6 41  1  0
  8 42  1  0
 10 43  1  0
 11 44  1  0
 12 45  1  0
 14 46  1  0
 16 47  1  0
 16 48  1  0
 17 49  1  0
 17 50  1  0
 19 51  1  0
 19 52  1  0
 20 53  1  0
 20 54  1  0
 21 55  1  0
 22 56  1  0
 22 57  1  0
 23 58  1  0
 23 59  1  0
 24 60  1  0
 27 61  1  0
 27 62  1  0
 27 63  1  0
 28 64  1  0
 28 65  1  0
 28 66  1  0
 29 67  1  0
 29 68  1  0
 29 69  1  0
 31 70  1  0
M  END
$$$$
