
     RDKit          3D

 53 56  0  0  0  0  0  0  0  0999 V2000
   -2.9459    5.3358    0.7841 C   0  0  0  0  0  0  0  0  0  0  0  0
   -2.6376    4.9665   -0.5543 O   0  0  0  0  0  0  0  0  0  0  0  0
   -2.0492    3.7454   -0.7353 C   0  0  0  0  0  0  0  0  0  0  0  0
   -1.7123    3.4491   -2.0569 C   0  0  0  0  0  0  0  0  0  0  0  0
   -1.1038    2.2344   -2.3846 C   0  0  0  0  0  0  0  0  0  0  0  0
   -0.8164    1.2881   -1.3892 C   0  0  0  0  0  0  0  0  0  0  0  0
   -0.1795   -0.0371   -1.7827 C   0  0  0  0  0  0  0  0  0  0  0  0
   -1.2481   -1.1073   -2.0182 C   0  0  0  0  0  0  0  0  0  0  0  0
   -1.0661   -1.9338   -0.7735 C   0  0  0  0  0  0  0  0  0  0  0  0
   -2.0419   -2.9736   -0.3784 C   0  0  0  0  0  0  0  0  0  0  0  0
   -2.7410   -3.6454   -1.3954 C   0  0  0  0  0  0  0  0  0  0  0  0
   -3.6486   -4.6581   -1.0842 C   0  0  0  0  0  0  0  0  0  0  0  0
   -3.8653   -5.0110    0.2421 C   0  0  0  0  0  0  0  0  0  0  0  0
   -3.1805   -4.3451    1.2588 C   0  0  0  0  0  0  0  0  0  0  0  0
   -2.2655   -3.3106    0.9703 C   0  0  0  0  0  0  0  0  0  0  0  0
   -1.5898   -2.5980    2.1207 C   0  0  0  0  0  0  0  0  0  0  0  0
   -0.2879   -2.9473    2.2955 F   0  0  0  0  0  0  0  0  0  0  0  0
   -1.6471   -1.2407    2.0311 F   0  0  0  0  0  0  0  0  0  0  0  0
   -2.1886   -2.8829    3.3200 F   0  0  0  0  0  0  0  0  0  0  0  0
    0.0179   -1.6883   -0.1087 N   0  0  0  0  0  0  0  0  0  0  0  0
    0.6400   -0.6424   -0.7295 N   0  0  0  0  0  0  0  0  0  0  0  0
    1.8770   -0.1821   -0.2825 C   0  0  0  0  0  0  0  0  0  0  0  0
    2.5272   -0.8075    0.7986 C   0  0  0  0  0  0  0  0  0  0  0  0
    3.7696   -0.3712    1.2713 C   0  0  0  0  0  0  0  0  0  0  0  0
    4.3949    0.7078    0.6522 C   0  0  0  0  0  0  0  0  0  0  0  0
    5.9489    1.2858    1.2599 S   0  0  0  0  0  6  0  0  0  0  0  0
    7.0330    0.3119    0.4253 N   0  0  0  0  0  0  0  0  0  0  0  0
    6.1824    2.6291    0.7817 O   0  0  0  0  0  0  0  0  0  0  0  0
    6.0847    0.9266    2.6522 O   0  0  0  0  0  0  0  0  0  0  0  0
    3.7780    1.3597   -0.4139 C   0  0  0  0  0  0  0  0  0  0  0  0
    2.5337    0.9102   -0.8746 C   0  0  0  0  0  0  0  0  0  0  0  0
   -1.1687    1.5913   -0.0651 C   0  0  0  0  0  0  0  0  0  0  0  0
   -1.7756    2.8099    0.2604 C   0  0  0  0  0  0  0  0  0  0  0  0
   -2.0417    5.3815    1.4002 H   0  0  0  0  0  0  0  0  0  0  0  0
   -3.6881    4.6582    1.2191 H   0  0  0  0  0  0  0  0  0  0  0  0
   -3.3841    6.3383    0.7615 H   0  0  0  0  0  0  0  0  0  0  0  0
   -1.9244    4.1743   -2.8389 H   0  0  0  0  0  0  0  0  0  0  0  0
   -0.8559    2.0379   -3.4253 H   0  0  0  0  0  0  0  0  0  0  0  0
    0.4123    0.0944   -2.6975 H   0  0  0  0  0  0  0  0  0  0  0  0
   -0.9893   -1.7207   -2.8880 H   0  0  0  0  0  0  0  0  0  0  0  0
   -2.2681   -0.7265   -2.1165 H   0  0  0  0  0  0  0  0  0  0  0  0
   -2.5765   -3.4104   -2.4437 H   0  0  0  0  0  0  0  0  0  0  0  0
   -4.1793   -5.1780   -1.8786 H   0  0  0  0  0  0  0  0  0  0  0  0
   -4.5682   -5.8039    0.4882 H   0  0  0  0  0  0  0  0  0  0  0  0
   -3.3712   -4.6344    2.2927 H   0  0  0  0  0  0  0  0  0  0  0  0
    2.0518   -1.6533    1.2935 H   0  0  0  0  0  0  0  0  0  0  0  0
    4.2292   -0.8778    2.1161 H   0  0  0  0  0  0  0  0  0  0  0  0
    7.5509   -0.2700    1.0840 H   0  0  0  0  0  0  0  0  0  0  0  0
    7.6237    0.8882   -0.1739 H   0  0  0  0  0  0  0  0  0  0  0  0
    4.2485    2.2161   -0.8912 H   0  0  0  0  0  0  0  0  0  0  0  0
    2.0836    1.4451   -1.7057 H   0  0  0  0  0  0  0  0  0  0  0  0
   -0.9631    0.8808    0.7353 H   0  0  0  0  0  0  0  0  0  0  0  0
   -2.0179    2.9911    1.3023 H   0  0  0  0  0  0  0  0  0  0  0  0
  1  2  1  0
  2  3  1  0
  3  4  2  0
  4  5  1  0
  5  6  2  0
  6  7  1  0
  7  8  1  0
  8  9  1  0
  9 10  1  0
 10 11  2  0
 11 12  1  0
 12 13  2  0
 13 14  1  0
 14 15  2  0
 15 16  1  0
 16 17  1  0
 16 18  1  0
 16 19  1  0
  9 20  2  0
 20 21  1  0
 21 22  1  0
 22 23  2  0
 23 24  1  0
 24 25  2  0
 25 26  1  0
 26 27  1  0
 26 28  2  0
 26 29  2  0
 25 30  1  0
 30 31  2  0
  6 32  1  0
 32 33  2  0
 33  3  1  0
 21  7  1  0
 31 22  1  0
 15 10  1  0
  1 34  1  0
  1 35  1  0
  1 36  1  0
  4 37  1  0
  5 38  1  0
  7 39  1  0
  8 40  1  0
  8 41  1  0
 11 42  1  0
 12 43  1  0
 13 44  1  0
 14 45  1  0
 23 46  1  0
 24 47  1  0
 27 48  1  0
 27 49  1  0
 30 50  1  0
 31 51  1  0
 32 52  1  0
 33 53  1  0
M  END
$$$$
