
     RDKit          3D

 66 68  0  0  0  0  0  0  0  0999 V2000
   -3.0612   -3.4105   -2.4835 C   0  0  0  0  0  0  0  0  0  0  0  0
   -3.2674   -3.3193   -0.9738 C   0  0  0  0  0  0  0  0  0  0  0  0
   -2.0336   -3.4952   -0.1917 N   0  0  0  0  0  0  0  0  0  0  0  0
   -2.2964   -3.4885    1.2587 C   0  0  0  0  0  0  0  0  0  0  0  0
   -3.0194   -4.7451    1.7342 C   0  0  0  0  0  0  0  0  0  0  0  0
   -0.9540   -2.5493   -0.5393 C   0  0  0  0  0  0  0  0  0  0  0  0
   -1.2720   -1.0528   -0.3495 C   0  0  0  0  0  0  0  0  0  0  0  0
   -0.0781   -0.1499   -0.7620 C   0  0  0  0  0  0  0  0  0  0  0  0
    1.1250   -0.2724    0.1691 C   0  0  0  0  0  0  0  0  0  0  0  0
    1.0313   -0.0815    1.5485 C   0  0  0  0  0  0  0  0  0  0  0  0
    2.1625   -0.1960    2.3725 C   0  0  0  0  0  0  0  0  0  0  0  0
    3.4343   -0.5163    1.8694 C   0  0  0  0  0  0  0  0  0  0  0  0
    4.5640   -0.6164    2.6931 N   0  0  0  0  0  0  0  0  0  0  0  0
    4.3782   -0.6627    4.1423 C   0  0  0  0  0  0  0  0  0  0  0  0
    5.7330   -1.3342    2.1872 C   0  0  0  0  0  0  0  0  0  0  0  0
    3.5094   -0.6855    0.4770 C   0  0  0  0  0  0  0  0  0  0  0  0
    2.3855   -0.5719   -0.3557 C   0  0  0  0  0  0  0  0  0  0  0  0
   -0.4425    1.3146   -1.0389 C   0  0  0  0  0  0  0  0  0  0  0  0
    0.1243    1.9795   -2.1430 C   0  0  0  0  0  0  0  0  0  0  0  0
    0.9650    1.2752   -2.9722 O   0  0  0  0  0  0  0  0  0  0  0  0
    2.2329    1.9121   -3.1381 C   0  0  0  0  0  0  0  0  0  0  0  0
   -0.2062    3.3085   -2.4509 C   0  0  0  0  0  0  0  0  0  0  0  0
   -1.0697    4.0370   -1.6309 C   0  0  0  0  0  0  0  0  0  0  0  0
   -1.4358    5.3407   -1.8544 O   0  0  0  0  0  0  0  0  0  0  0  0
   -0.9287    5.9798   -3.0187 C   0  0  0  0  0  0  0  0  0  0  0  0
   -1.6134    3.4184   -0.4939 C   0  0  0  0  0  0  0  0  0  0  0  0
   -2.5101    4.1244    0.4213 C   0  0  0  0  0  0  0  0  0  0  0  0
   -3.0094    3.5131    1.4981 C   0  0  0  0  0  0  0  0  0  0  0  0
   -2.6897    2.1172    1.8154 C   0  0  0  0  0  0  0  0  0  0  0  0
   -3.1496    1.5700    2.8102 O   0  0  0  0  0  0  0  0  0  0  0  0
   -1.8469    1.4646    0.9302 O   0  0  0  0  0  0  0  0  0  0  0  0
   -1.2956    2.0779   -0.2208 C   0  0  0  0  0  0  0  0  0  0  0  0
   -2.5296   -4.3285   -2.7550 H   0  0  0  0  0  0  0  0  0  0  0  0
   -2.5024   -2.5540   -2.8726 H   0  0  0  0  0  0  0  0  0  0  0  0
   -4.0316   -3.4238   -2.9910 H   0  0  0  0  0  0  0  0  0  0  0  0
   -3.9745   -4.1153   -0.7166 H   0  0  0  0  0  0  0  0  0  0  0  0
   -3.7633   -2.3721   -0.7305 H   0  0  0  0  0  0  0  0  0  0  0  0
   -1.3439   -3.4532    1.8027 H   0  0  0  0  0  0  0  0  0  0  0  0
   -2.8672   -2.6014    1.5585 H   0  0  0  0  0  0  0  0  0  0  0  0
   -3.0577   -4.7598    2.8286 H   0  0  0  0  0  0  0  0  0  0  0  0
   -4.0506   -4.7883    1.3722 H   0  0  0  0  0  0  0  0  0  0  0  0
   -2.4969   -5.6498    1.4061 H   0  0  0  0  0  0  0  0  0  0  0  0
   -0.0677   -2.8135    0.0520 H   0  0  0  0  0  0  0  0  0  0  0  0
   -0.6459   -2.7292   -1.5762 H   0  0  0  0  0  0  0  0  0  0  0  0
   -2.1371   -0.7860   -0.9684 H   0  0  0  0  0  0  0  0  0  0  0  0
   -1.5576   -0.8832    0.6923 H   0  0  0  0  0  0  0  0  0  0  0  0
    0.2269   -0.5732   -1.7295 H   0  0  0  0  0  0  0  0  0  0  0  0
    0.0807    0.1602    2.0161 H   0  0  0  0  0  0  0  0  0  0  0  0
    2.0063   -0.0257    3.4333 H   0  0  0  0  0  0  0  0  0  0  0  0
    5.3413   -0.7201    4.6623 H   0  0  0  0  0  0  0  0  0  0  0  0
    3.7896   -1.5387    4.4369 H   0  0  0  0  0  0  0  0  0  0  0  0
    3.8947    0.2487    4.5105 H   0  0  0  0  0  0  0  0  0  0  0  0
    6.5259   -1.3851    2.9420 H   0  0  0  0  0  0  0  0  0  0  0  0
    6.1726   -0.8188    1.3268 H   0  0  0  0  0  0  0  0  0  0  0  0
    5.4760   -2.3625    1.9100 H   0  0  0  0  0  0  0  0  0  0  0  0
    4.4545   -0.9079   -0.0080 H   0  0  0  0  0  0  0  0  0  0  0  0
    2.5131   -0.7220   -1.4256 H   0  0  0  0  0  0  0  0  0  0  0  0
    2.6084    2.3316   -2.1974 H   0  0  0  0  0  0  0  0  0  0  0  0
    2.1764    2.6853   -3.9106 H   0  0  0  0  0  0  0  0  0  0  0  0
    2.9447    1.1530   -3.4763 H   0  0  0  0  0  0  0  0  0  0  0  0
    0.2137    3.7480   -3.3481 H   0  0  0  0  0  0  0  0  0  0  0  0
    0.1628    6.0536   -2.9845 H   0  0  0  0  0  0  0  0  0  0  0  0
   -1.2644    5.4694   -3.9272 H   0  0  0  0  0  0  0  0  0  0  0  0
   -1.3300    6.9974   -3.0420 H   0  0  0  0  0  0  0  0  0  0  0  0
   -2.7616    5.1589    0.2110 H   0  0  0  0  0  0  0  0  0  0  0  0
   -3.6719    4.0201    2.1881 H   0  0  0  0  0  0  0  0  0  0  0  0
  1  2  1  0
  2  3  1  0
  3  4  1  0
  4  5  1  0
  3  6  1  0
  6  7  1  0
  7  8  1  0
  8  9  1  0
  9 10  2  0
 10 11  1  0
 11 12  2  0
 12 13  1  0
 13 14  1  0
 13 15  1  0
 12 16  1  0
 16 17  2  0
  8 18  1  0
 18 19  2  0
 19 20  1  0
 20 21  1  0
 19 22  1  0
 22 23  2  0
 23 24  1  0
 24 25  1  0
 23 26  1  0
 26 27  1  0
 27 28  2  0
 28 29  1  0
 29 30  2  0
 29 31  1  0
 31 32  1  0
 17  9  1  0
 32 18  1  0
 32 26  2  0
  1 33  1  0
  1 34  1  0
  1 35  1  0
  2 36  1  0
  2 37  1  0
  4 38  1  0
  4 39  1  0
  5 40  1  0
  5 41  1  0
  5 42  1  0
  6 43  1  0
  6 44  1  0
  7 45  1  0
  7 46  1  0
  8 47  1  0
 10 48  1  0
 11 49  1  0
 14 50  1  0
 14 51  1  0
 14 52  1  0
 15 53  1  0
 15 54  1  0
 15 55  1  0
 16 56  1  0
 17 57  1  0
 21 58  1  0
 21 59  1  0
 21 60  1  0
 22 61  1  0
 25 62  1  0
 25 63  1  0
 25 64  1  0
 27 65  1  0
 28 66  1  0
M  END
$$$$
