
     RDKit          3D

 49 52  0  0  0  0  0  0  0  0999 V2000
   -0.3701   -1.0980    3.8065 O   0  0  0  0  0  0  0  0  0  0  0  0
    0.5387   -1.0711    2.9796 C   0  0  0  0  0  0  0  0  0  0  0  0
    1.9862   -1.3640    3.3898 C   0  0  0  0  0  0  0  0  0  0  0  0
    2.8114   -1.7967    2.2589 N   0  0  0  0  0  0  0  0  0  0  0  0
    3.2599   -0.8088    1.4018 N   0  0  0  0  0  0  0  0  0  0  0  0
    3.9701   -1.1694    0.3754 C   0  0  0  0  0  0  0  0  0  0  0  0
    4.4556   -0.1213   -0.5666 C   0  0  0  0  0  0  0  0  0  0  0  0
    4.5412   -0.3511   -1.9475 C   0  0  0  0  0  0  0  0  0  0  0  0
    4.9833    0.6665   -2.7972 C   0  0  0  0  0  0  0  0  0  0  0  0
    5.3291    1.9052   -2.2683 C   0  0  0  0  0  0  0  0  0  0  0  0
    5.7508    2.8766   -3.0873 F   0  0  0  0  0  0  0  0  0  0  0  0
    5.2358    2.1518   -0.9039 C   0  0  0  0  0  0  0  0  0  0  0  0
    4.7935    1.1392   -0.0503 C   0  0  0  0  0  0  0  0  0  0  0  0
    4.3428   -2.5689    0.0785 C   0  0  0  0  0  0  0  0  0  0  0  0
    3.8646   -3.5075    0.8960 C   0  0  0  0  0  0  0  0  0  0  0  0
    3.0168   -3.1537    2.0514 C   0  0  0  0  0  0  0  0  0  0  0  0
    2.5632   -4.0517    2.7534 O   0  0  0  0  0  0  0  0  0  0  0  0
    0.4269   -0.6424    1.6682 N   0  0  0  0  0  0  0  0  0  0  0  0
   -0.7260   -0.2668    0.9622 C   0  0  0  0  0  0  0  0  0  0  0  0
   -0.5485    0.2033   -0.3442 C   0  0  0  0  0  0  0  0  0  0  0  0
   -1.6475    0.5943   -1.1148 C   0  0  0  0  0  0  0  0  0  0  0  0
   -2.9400    0.5256   -0.5846 C   0  0  0  0  0  0  0  0  0  0  0  0
   -4.0805    0.9519   -1.4420 C   0  0  0  0  0  0  0  0  0  0  0  0
   -3.9810    0.8940   -2.6634 O   0  0  0  0  0  0  0  0  0  0  0  0
   -5.1953    1.4328   -0.7804 N   0  0  0  0  0  0  0  0  0  0  0  0
   -6.3435    1.9100   -1.4837 C   0  0  0  0  0  0  0  0  0  0  0  0
   -7.6305    2.1800   -0.7537 C   0  0  0  0  0  0  0  0  0  0  0  0
   -7.5324    1.0143   -1.6927 C   0  0  0  0  0  0  0  0  0  0  0  0
   -3.1232    0.0361    0.7131 C   0  0  0  0  0  0  0  0  0  0  0  0
   -2.0186   -0.3533    1.4820 C   0  0  0  0  0  0  0  0  0  0  0  0
    2.4222   -0.4517    3.8104 H   0  0  0  0  0  0  0  0  0  0  0  0
    1.9752   -2.1402    4.1615 H   0  0  0  0  0  0  0  0  0  0  0  0
    4.2464   -1.3010   -2.3849 H   0  0  0  0  0  0  0  0  0  0  0  0
    5.0522    0.5054   -3.8690 H   0  0  0  0  0  0  0  0  0  0  0  0
    5.5044    3.1289   -0.5141 H   0  0  0  0  0  0  0  0  0  0  0  0
    4.7195    1.3376    1.0174 H   0  0  0  0  0  0  0  0  0  0  0  0
    4.9918   -2.8154   -0.7502 H   0  0  0  0  0  0  0  0  0  0  0  0
    4.0821   -4.5598    0.7642 H   0  0  0  0  0  0  0  0  0  0  0  0
    1.3215   -0.5743    1.1824 H   0  0  0  0  0  0  0  0  0  0  0  0
    0.4450    0.2747   -0.7796 H   0  0  0  0  0  0  0  0  0  0  0  0
   -1.4926    0.9558   -2.1298 H   0  0  0  0  0  0  0  0  0  0  0  0
   -5.1383    1.6197    0.2122 H   0  0  0  0  0  0  0  0  0  0  0  0
   -6.0937    2.5866   -2.2989 H   0  0  0  0  0  0  0  0  0  0  0  0
   -8.2187    3.0346   -1.0679 H   0  0  0  0  0  0  0  0  0  0  0  0
   -7.6871    1.9674    0.3066 H   0  0  0  0  0  0  0  0  0  0  0  0
   -7.5013    0.0161   -1.2726 H   0  0  0  0  0  0  0  0  0  0  0  0
   -8.0427    1.0772   -2.6468 H   0  0  0  0  0  0  0  0  0  0  0  0
   -4.1155   -0.0815    1.1394 H   0  0  0  0  0  0  0  0  0  0  0  0
   -2.2030   -0.7370    2.4814 H   0  0  0  0  0  0  0  0  0  0  0  0
  1  2  2  0
  2  3  1  0
  3  4  1  0
  4  5  1  0
  5  6  2  0
  6  7  1  0
  7  8  2  0
  8  9  1  0
  9 10  2  0
 10 11  1  0
 10 12  1  0
 12 13  2  0
  6 14  1  0
 14 15  2  0
 15 16  1  0
 16 17  2  0
  2 18  1  0
 18 19  1  0
 19 20  2  0
 20 21  1  0
 21 22  2  0
 22 23  1  0
 23 24  2  0
 23 25  1  0
 25 26  1  0
 26 27  1  0
 27 28  1  0
 22 29  1  0
 29 30  2  0
 16  4  1  0
 30 19  1  0
 13  7  1  0
 28 26  1  0
  3 31  1  0
  3 32  1  0
  8 33  1  0
  9 34  1  0
 12 35  1  0
 13 36  1  0
 14 37  1  0
 15 38  1  0
 18 39  1  0
 20 40  1  0
 21 41  1  0
 25 42  1  0
 26 43  1  0
 27 44  1  0
 27 45  1  0
 28 46  1  0
 28 47  1  0
 29 48  1  0
 30 49  1  0
M  END
$$$$
