
     RDKit          3D

 35 36  0  0  0  0  0  0  0  0999 V2000
    4.1126   -1.0251   -1.9046 C   0  0  0  0  0  0  0  0  0  0  0  0
    3.9167    0.4720   -1.7438 C   0  0  0  0  0  0  0  0  0  0  0  0
    3.6723    0.8535   -0.3608 N   0  0  0  0  0  0  0  0  0  0  0  0
    4.7342    1.2782    0.3633 N   0  0  0  0  0  0  0  0  0  0  0  0
    4.2187    1.5581    1.5567 C   0  0  0  0  0  0  0  0  0  0  0  0
    2.8435    1.3058    1.5974 C   0  0  0  0  0  0  0  0  0  0  0  0
    1.8268    1.5897    3.1476 Br  0  0  0  0  0  0  0  0  0  0  0  0
    2.4788    0.8408    0.3450 C   0  0  0  0  0  0  0  0  0  0  0  0
    1.2050    0.4077   -0.2132 C   0  0  0  0  0  0  0  0  0  0  0  0
    1.1052    0.0549   -1.3833 O   0  0  0  0  0  0  0  0  0  0  0  0
    0.1482    0.4196    0.6774 N   0  0  0  0  0  0  0  0  0  0  0  0
   -1.1974    0.0595    0.4504 C   0  0  0  0  0  0  0  0  0  0  0  0
   -1.7037   -0.3649   -0.7790 C   0  0  0  0  0  0  0  0  0  0  0  0
   -3.0543   -0.7224   -0.9160 C   0  0  0  0  0  0  0  0  0  0  0  0
   -3.5935   -1.1676   -2.2438 C   0  0  0  0  0  0  0  0  0  0  0  0
   -3.9077   -0.6251    0.1890 C   0  0  0  0  0  0  0  0  0  0  0  0
   -3.4244   -0.1849    1.4246 C   0  0  0  0  0  0  0  0  0  0  0  0
   -4.3366   -0.1219    2.6143 C   0  0  0  0  0  0  0  0  0  0  0  0
   -2.0669    0.1413    1.5483 C   0  0  0  0  0  0  0  0  0  0  0  0
    4.3022   -1.2732   -2.9536 H   0  0  0  0  0  0  0  0  0  0  0  0
    4.9651   -1.3751   -1.3124 H   0  0  0  0  0  0  0  0  0  0  0  0
    3.2311   -1.5848   -1.5760 H   0  0  0  0  0  0  0  0  0  0  0  0
    4.8193    1.0003   -2.0743 H   0  0  0  0  0  0  0  0  0  0  0  0
    3.0974    0.8487   -2.3619 H   0  0  0  0  0  0  0  0  0  0  0  0
    4.8715    1.9281    2.3365 H   0  0  0  0  0  0  0  0  0  0  0  0
    0.3622    0.7161    1.6198 H   0  0  0  0  0  0  0  0  0  0  0  0
   -1.0665   -0.4341   -1.6553 H   0  0  0  0  0  0  0  0  0  0  0  0
   -4.1473   -0.3500   -2.7158 H   0  0  0  0  0  0  0  0  0  0  0  0
   -2.7880   -1.4754   -2.9185 H   0  0  0  0  0  0  0  0  0  0  0  0
   -4.2604   -2.0269   -2.1175 H   0  0  0  0  0  0  0  0  0  0  0  0
   -4.9572   -0.8954    0.0844 H   0  0  0  0  0  0  0  0  0  0  0  0
   -3.9739    0.6023    3.3515 H   0  0  0  0  0  0  0  0  0  0  0  0
   -4.3977   -1.1058    3.0891 H   0  0  0  0  0  0  0  0  0  0  0  0
   -5.3424    0.1935    2.3166 H   0  0  0  0  0  0  0  0  0  0  0  0
   -1.6929    0.4625    2.5178 H   0  0  0  0  0  0  0  0  0  0  0  0
  1  2  1  0
  2  3  1  0
  3  4  1  0
  4  5  2  0
  5  6  1  0
  6  7  1  0
  6  8  2  0
  8  9  1  0
  9 10  2  0
  9 11  1  0
 11 12  1  0
 12 13  2  0
 13 14  1  0
 14 15  1  0
 14 16  2  0
 16 17  1  0
 17 18  1  0
 17 19  2  0
  8  3  1  0
 19 12  1  0
  1 20  1  0
  1 21  1  0
  1 22  1  0
  2 23  1  0
  2 24  1  0
  5 25  1  0
 11 26  1  0
 13 27  1  0
 15 28  1  0
 15 29  1  0
 15 30  1  0
 16 31  1  0
 18 32  1  0
 18 33  1  0
 18 34  1  0
 19 35  1  0
M  END
$$$$
