
     RDKit          3D

 43 45  0  0  0  0  0  0  0  0999 V2000
   -0.5704   -2.7352    0.1287 N   0  0  0  0  0  0  0  0  0  0  0  0
    0.1164   -1.8249    0.8439 C   0  0  0  0  0  0  0  0  0  0  0  0
    0.8250   -2.1304    1.8879 N   0  0  0  0  0  0  0  0  0  0  0  0
    1.4006   -0.8306    2.3323 C   0  0  0  0  0  0  0  0  0  0  0  0
    0.8711    0.2570    1.3733 C   0  0  0  0  0  0  0  0  0  0  0  0
    1.9645    1.0870    0.6780 C   0  0  0  0  0  0  0  0  0  0  0  0
    2.9530    0.3416   -0.1924 C   0  0  0  0  0  0  0  0  0  0  0  0
    4.2366    0.0336    0.2831 C   0  0  0  0  0  0  0  0  0  0  0  0
    5.1492   -0.6530   -0.5221 C   0  0  0  0  0  0  0  0  0  0  0  0
    4.7798   -1.0280   -1.8091 C   0  0  0  0  0  0  0  0  0  0  0  0
    5.6385   -1.6999   -2.6280 O   0  0  0  0  0  0  0  0  0  0  0  0
    3.5173   -0.7266   -2.3017 C   0  0  0  0  0  0  0  0  0  0  0  0
    2.6059   -0.0430   -1.4957 C   0  0  0  0  0  0  0  0  0  0  0  0
    0.0671   -0.5288    0.4395 N   0  0  0  0  0  0  0  0  0  0  0  0
   -1.0834    0.0915   -0.2067 C   0  0  0  0  0  0  0  0  0  0  0  0
   -2.3178    0.1169    0.7040 C   0  0  0  0  0  0  0  0  0  0  0  0
   -3.4964    0.7705    0.0239 C   0  0  0  0  0  0  0  0  0  0  0  0
   -4.3863    0.0047   -0.7448 C   0  0  0  0  0  0  0  0  0  0  0  0
   -5.4671    0.6083   -1.3933 C   0  0  0  0  0  0  0  0  0  0  0  0
   -5.6656    1.9831   -1.2822 C   0  0  0  0  0  0  0  0  0  0  0  0
   -4.7823    2.7420   -0.5241 C   0  0  0  0  0  0  0  0  0  0  0  0
   -4.9706    4.0641   -0.4193 F   0  0  0  0  0  0  0  0  0  0  0  0
   -3.7027    2.1522    0.1263 C   0  0  0  0  0  0  0  0  0  0  0  0
   -0.4034   -2.6310   -0.8640 H   0  0  0  0  0  0  0  0  0  0  0  0
   -0.3084   -3.6681    0.4319 H   0  0  0  0  0  0  0  0  0  0  0  0
    1.0660   -0.6288    3.3562 H   0  0  0  0  0  0  0  0  0  0  0  0
    2.4913   -0.9009    2.3501 H   0  0  0  0  0  0  0  0  0  0  0  0
    0.2324    0.9414    1.9458 H   0  0  0  0  0  0  0  0  0  0  0  0
    1.4882    1.8560    0.0549 H   0  0  0  0  0  0  0  0  0  0  0  0
    2.5189    1.6442    1.4450 H   0  0  0  0  0  0  0  0  0  0  0  0
    4.5354    0.3221    1.2883 H   0  0  0  0  0  0  0  0  0  0  0  0
    6.1338   -0.8841   -0.1290 H   0  0  0  0  0  0  0  0  0  0  0  0
    6.4613   -1.8653   -2.1397 H   0  0  0  0  0  0  0  0  0  0  0  0
    3.2414   -1.0247   -3.3087 H   0  0  0  0  0  0  0  0  0  0  0  0
    1.6188    0.1838   -1.8904 H   0  0  0  0  0  0  0  0  0  0  0  0
   -1.3108   -0.4428   -1.1376 H   0  0  0  0  0  0  0  0  0  0  0  0
   -0.8218    1.1130   -0.5103 H   0  0  0  0  0  0  0  0  0  0  0  0
   -2.5966   -0.8990    1.0100 H   0  0  0  0  0  0  0  0  0  0  0  0
   -2.0970    0.6516    1.6362 H   0  0  0  0  0  0  0  0  0  0  0  0
   -4.2434   -1.0707   -0.8394 H   0  0  0  0  0  0  0  0  0  0  0  0
   -6.1530    0.0052   -1.9830 H   0  0  0  0  0  0  0  0  0  0  0  0
   -6.5004    2.4662   -1.7793 H   0  0  0  0  0  0  0  0  0  0  0  0
   -3.0352    2.7797    0.7091 H   0  0  0  0  0  0  0  0  0  0  0  0
  1  2  1  0
  2  3  2  0
  3  4  1  0
  4  5  1  0
  5  6  1  0
  6  7  1  0
  7  8  2  0
  8  9  1  0
  9 10  2  0
 10 11  1  0
 10 12  1  0
 12 13  2  0
  5 14  1  0
 14 15  1  0
 15 16  1  0
 16 17  1  0
 17 18  2  0
 18 19  1  0
 19 20  2  0
 20 21  1  0
 21 22  1  0
 21 23  2  0
 14  2  1  0
 23 17  1  0
 13  7  1  0
  1 24  1  0
  1 25  1  0
  4 26  1  0
  4 27  1  0
  5 28  1  0
  6 29  1  0
  6 30  1  0
  8 31  1  0
  9 32  1  0
 11 33  1  0
 12 34  1  0
 13 35  1  0
 15 36  1  0
 15 37  1  0
 16 38  1  0
 16 39  1  0
 18 40  1  0
 19 41  1  0
 20 42  1  0
 23 43  1  0
M  END
$$$$
