
     RDKit          3D

 41 43  0  0  0  0  0  0  0  0999 V2000
   -1.5751    0.5620    2.8242 O   0  0  0  0  0  0  0  0  0  0  0  0
   -2.1616    0.4693    1.7456 C   0  0  0  0  0  0  0  0  0  0  0  0
   -3.3009   -0.5168    1.5489 C   0  0  0  0  0  0  0  0  0  0  0  0
   -4.1798   -0.2739    0.3434 C   0  0  0  0  0  0  0  0  0  0  0  0
   -5.0862    0.7961    0.3317 C   0  0  0  0  0  0  0  0  0  0  0  0
   -5.8686    1.0437   -0.7967 C   0  0  0  0  0  0  0  0  0  0  0  0
   -5.7563    0.2251   -1.9185 C   0  0  0  0  0  0  0  0  0  0  0  0
   -4.8634   -0.8435   -1.9140 C   0  0  0  0  0  0  0  0  0  0  0  0
   -4.0754   -1.0927   -0.7895 C   0  0  0  0  0  0  0  0  0  0  0  0
   -1.8049    1.2194    0.6408 N   0  0  0  0  0  0  0  0  0  0  0  0
   -0.5921    1.9237    0.7204 N   0  0  0  0  0  0  0  0  0  0  0  0
    0.5884    1.2440    0.4643 C   0  0  0  0  0  0  0  0  0  0  0  0
    0.6666    0.0986    0.0418 O   0  0  0  0  0  0  0  0  0  0  0  0
    1.7396    2.1551    0.7408 C   0  0  0  0  0  0  0  0  0  0  0  0
    3.0501    1.8739    0.6879 C   0  0  0  0  0  0  0  0  0  0  0  0
    3.6530    0.5754    0.3750 C   0  0  0  0  0  0  0  0  0  0  0  0
    4.4867    0.4584   -0.7423 C   0  0  0  0  0  0  0  0  0  0  0  0
    5.1020   -0.7618   -1.0391 C   0  0  0  0  0  0  0  0  0  0  0  0
    4.8947   -1.8752   -0.2157 C   0  0  0  0  0  0  0  0  0  0  0  0
    5.5687   -3.1472   -0.5708 C   0  0  0  0  0  0  0  0  0  0  0  0
    6.2905   -3.3273   -1.5336 O   0  0  0  0  0  0  0  0  0  0  0  0
    5.3117   -4.1363    0.3022 O   0  0  0  0  0  0  0  0  0  0  0  0
    4.0689   -1.7589    0.9081 C   0  0  0  0  0  0  0  0  0  0  0  0
    3.4563   -0.5369    1.2047 C   0  0  0  0  0  0  0  0  0  0  0  0
    1.1547    3.7340    1.1669 S   0  0  0  0  0  0  0  0  0  0  0  0
   -0.5353    3.2476    1.0970 C   0  0  0  0  0  0  0  0  0  0  0  0
   -1.8040    4.2855    1.4105 S   0  0  0  0  0  0  0  0  0  0  0  0
   -2.8577   -1.5176    1.4964 H   0  0  0  0  0  0  0  0  0  0  0  0
   -3.9295   -0.4926    2.4471 H   0  0  0  0  0  0  0  0  0  0  0  0
   -5.1850    1.4467    1.1994 H   0  0  0  0  0  0  0  0  0  0  0  0
   -6.5668    1.8770   -0.8006 H   0  0  0  0  0  0  0  0  0  0  0  0
   -6.3697    0.4171   -2.7952 H   0  0  0  0  0  0  0  0  0  0  0  0
   -4.7824   -1.4864   -2.7873 H   0  0  0  0  0  0  0  0  0  0  0  0
   -3.3828   -1.9331   -0.8052 H   0  0  0  0  0  0  0  0  0  0  0  0
   -2.0628    0.8971   -0.2873 H   0  0  0  0  0  0  0  0  0  0  0  0
    3.7798    2.6560    0.8938 H   0  0  0  0  0  0  0  0  0  0  0  0
    4.6635    1.3120   -1.3928 H   0  0  0  0  0  0  0  0  0  0  0  0
    5.7438   -0.8398   -1.9149 H   0  0  0  0  0  0  0  0  0  0  0  0
    5.8132   -4.8994   -0.0536 H   0  0  0  0  0  0  0  0  0  0  0  0
    3.8892   -2.6112    1.5567 H   0  0  0  0  0  0  0  0  0  0  0  0
    2.8192   -0.4672    2.0839 H   0  0  0  0  0  0  0  0  0  0  0  0
  1  2  2  0
  2  3  1  0
  3  4  1  0
  4  5  2  0
  5  6  1  0
  6  7  2  0
  7  8  1  0
  8  9  2  0
  2 10  1  0
 10 11  1  0
 11 12  1  0
 12 13  2  0
 12 14  1  0
 14 15  2  3
 15 16  1  0
 16 17  2  0
 17 18  1  0
 18 19  2  0
 19 20  1  0
 20 21  2  0
 20 22  1  0
 19 23  1  0
 23 24  2  0
 14 25  1  0
 25 26  1  0
 26 27  2  0
  9  4  1  0
 26 11  1  0
 24 16  1  0
  3 28  1  0
  3 29  1  0
  5 30  1  0
  6 31  1  0
  7 32  1  0
  8 33  1  0
  9 34  1  0
 10 35  1  0
 15 36  1  0
 17 37  1  0
 18 38  1  0
 22 39  1  0
 23 40  1  0
 24 41  1  0
M  END
$$$$
