
     RDKit          3D

 51 53  0  0  0  0  0  0  0  0999 V2000
   -8.1929    0.6732   -0.3699 C   0  0  0  0  0  0  0  0  0  0  0  0
   -6.7221    0.3954   -0.2203 C   0  0  0  0  0  0  0  0  0  0  0  0
   -6.0706    0.7623    0.9669 C   0  0  0  0  0  0  0  0  0  0  0  0
   -4.7035    0.5265    1.1431 C   0  0  0  0  0  0  0  0  0  0  0  0
   -3.9646   -0.0784    0.1298 C   0  0  0  0  0  0  0  0  0  0  0  0
   -2.6298   -0.3746    0.1699 O   0  0  0  0  0  0  0  0  0  0  0  0
   -1.9161    0.0141    1.3423 C   0  0  0  0  0  0  0  0  0  0  0  0
   -0.5066   -0.4029    1.1609 C   0  0  0  0  0  0  0  0  0  0  0  0
    0.2611   -0.8123    0.0998 C   0  0  0  0  0  0  0  0  0  0  0  0
    1.5524   -1.0573    0.6450 C   0  0  0  0  0  0  0  0  0  0  0  0
    2.7347   -1.4891   -0.1240 C   0  0  0  0  0  0  0  0  0  0  0  0
    2.7055   -1.4161   -1.3553 O   0  0  0  0  0  0  0  0  0  0  0  0
    3.8731   -1.9874    0.5359 N   0  0  0  0  0  0  0  0  0  0  0  0
    3.9363   -2.2900    1.9582 C   0  0  0  0  0  0  0  0  0  0  0  0
    5.1397   -1.9969   -0.2002 C   0  0  0  0  0  0  0  0  0  0  0  0
    6.0578   -0.8142    0.1471 C   0  0  0  0  0  0  0  0  0  0  0  0
    5.4881    0.5347   -0.2208 C   0  0  0  0  0  0  0  0  0  0  0  0
    5.4866    0.9658   -1.5535 C   0  0  0  0  0  0  0  0  0  0  0  0
    4.9449    2.2062   -1.8958 C   0  0  0  0  0  0  0  0  0  0  0  0
    4.3971    3.0252   -0.9111 C   0  0  0  0  0  0  0  0  0  0  0  0
    4.3893    2.6045    0.4170 C   0  0  0  0  0  0  0  0  0  0  0  0
    4.9322    1.3659    0.7612 C   0  0  0  0  0  0  0  0  0  0  0  0
    1.5531   -0.7695    1.9589 N   0  0  0  0  0  0  0  0  0  0  0  0
    0.2687   -0.3797    2.2765 O   0  0  0  0  0  0  0  0  0  0  0  0
   -4.6055   -0.4400   -1.0584 C   0  0  0  0  0  0  0  0  0  0  0  0
   -5.9766   -0.2030   -1.2532 C   0  0  0  0  0  0  0  0  0  0  0  0
   -6.6166   -0.6189   -2.5493 C   0  0  0  0  0  0  0  0  0  0  0  0
   -8.6363    1.0074    0.5747 H   0  0  0  0  0  0  0  0  0  0  0  0
   -8.3545    1.4591   -1.1149 H   0  0  0  0  0  0  0  0  0  0  0  0
   -8.7265   -0.2329   -0.6733 H   0  0  0  0  0  0  0  0  0  0  0  0
   -6.6281    1.2378    1.7715 H   0  0  0  0  0  0  0  0  0  0  0  0
   -4.2565    0.8266    2.0848 H   0  0  0  0  0  0  0  0  0  0  0  0
   -1.9536    1.1019    1.4681 H   0  0  0  0  0  0  0  0  0  0  0  0
   -2.3308   -0.4875    2.2243 H   0  0  0  0  0  0  0  0  0  0  0  0
   -0.0494   -0.9249   -0.9293 H   0  0  0  0  0  0  0  0  0  0  0  0
    3.0070   -2.7585    2.2927 H   0  0  0  0  0  0  0  0  0  0  0  0
    4.1226   -1.3691    2.5161 H   0  0  0  0  0  0  0  0  0  0  0  0
    4.7495   -2.9972    2.1483 H   0  0  0  0  0  0  0  0  0  0  0  0
    4.9517   -2.0113   -1.2797 H   0  0  0  0  0  0  0  0  0  0  0  0
    5.6502   -2.9376    0.0352 H   0  0  0  0  0  0  0  0  0  0  0  0
    6.3011   -0.8306    1.2167 H   0  0  0  0  0  0  0  0  0  0  0  0
    7.0147   -0.9403   -0.3752 H   0  0  0  0  0  0  0  0  0  0  0  0
    5.8978    0.3337   -2.3368 H   0  0  0  0  0  0  0  0  0  0  0  0
    4.9445    2.5291   -2.9330 H   0  0  0  0  0  0  0  0  0  0  0  0
    3.9721    3.9883   -1.1795 H   0  0  0  0  0  0  0  0  0  0  0  0
    3.9552    3.2386    1.1854 H   0  0  0  0  0  0  0  0  0  0  0  0
    4.9078    1.0507    1.8015 H   0  0  0  0  0  0  0  0  0  0  0  0
   -4.0203   -0.9155   -1.8424 H   0  0  0  0  0  0  0  0  0  0  0  0
   -7.1705    0.2155   -2.9903 H   0  0  0  0  0  0  0  0  0  0  0  0
   -7.2958   -1.4608   -2.3818 H   0  0  0  0  0  0  0  0  0  0  0  0
   -5.8676   -0.9327   -3.2840 H   0  0  0  0  0  0  0  0  0  0  0  0
  1  2  1  0
  2  3  2  0
  3  4  1  0
  4  5  2  0
  5  6  1  0
  6  7  1  0
  7  8  1  0
  8  9  2  0
  9 10  1  0
 10 11  1  0
 11 12  2  0
 11 13  1  0
 13 14  1  0
 13 15  1  0
 15 16  1  0
 16 17  1  0
 17 18  2  0
 18 19  1  0
 19 20  2  0
 20 21  1  0
 21 22  2  0
 10 23  2  0
 23 24  1  0
  5 25  1  0
 25 26  2  0
 26 27  1  0
 26  2  1  0
 24  8  1  0
 22 17  1  0
  1 28  1  0
  1 29  1  0
  1 30  1  0
  3 31  1  0
  4 32  1  0
  7 33  1  0
  7 34  1  0
  9 35  1  0
 14 36  1  0
 14 37  1  0
 14 38  1  0
 15 39  1  0
 15 40  1  0
 16 41  1  0
 16 42  1  0
 18 43  1  0
 19 44  1  0
 20 45  1  0
 21 46  1  0
 22 47  1  0
 25 48  1  0
 27 49  1  0
 27 50  1  0
 27 51  1  0
M  END
$$$$
