
     RDKit          3D

 44 46  0  0  0  0  0  0  0  0999 V2000
    2.6284    2.3411   -2.9028 C   0  0  0  0  0  0  0  0  0  0  0  0
    3.0347    1.2932   -1.9707 N   0  0  0  0  0  0  0  0  0  0  0  0
    2.7283    1.6876   -0.5778 C   0  0  0  0  0  0  0  0  0  0  0  0
    2.5543    0.4949    0.3775 C   0  0  0  0  0  0  0  0  0  0  0  0
    1.4706   -0.3859   -0.0596 N   0  0  0  0  0  0  0  0  0  0  0  0
    0.8017   -1.1404    0.8933 C   0  0  0  0  0  0  0  0  0  0  0  0
    1.1278   -1.1914    2.0762 O   0  0  0  0  0  0  0  0  0  0  0  0
   -0.3651   -1.9372    0.4594 C   0  0  0  0  0  0  0  0  0  0  0  0
   -0.1551   -3.3082    0.2531 C   0  0  0  0  0  0  0  0  0  0  0  0
   -1.2098   -4.1155   -0.1653 C   0  0  0  0  0  0  0  0  0  0  0  0
   -2.4706   -3.5579   -0.3658 C   0  0  0  0  0  0  0  0  0  0  0  0
   -2.6826   -2.1937   -0.1401 C   0  0  0  0  0  0  0  0  0  0  0  0
   -1.6374   -1.3533    0.2858 C   0  0  0  0  0  0  0  0  0  0  0  0
   -1.9104    0.0769    0.5308 C   0  0  0  0  0  0  0  0  0  0  0  0
   -2.1886    0.9119   -0.5709 C   0  0  0  0  0  0  0  0  0  0  0  0
   -2.4087    2.2823   -0.4111 C   0  0  0  0  0  0  0  0  0  0  0  0
   -2.3622    2.8512    0.8569 C   0  0  0  0  0  0  0  0  0  0  0  0
   -2.1089    2.0472    1.9667 C   0  0  0  0  0  0  0  0  0  0  0  0
   -1.8915    0.6665    1.8128 C   0  0  0  0  0  0  0  0  0  0  0  0
   -1.6938   -0.1539    3.0319 C   0  0  0  0  0  0  0  0  0  0  0  0
   -2.1197   -1.2744    3.2342 O   0  0  0  0  0  0  0  0  0  0  0  0
   -0.9362    0.4929    3.9372 O   0  0  0  0  0  0  0  0  0  0  0  0
    1.2181   -0.4307   -1.5041 C   0  0  0  0  0  0  0  0  0  0  0  0
    2.4559   -0.0183   -2.3238 C   0  0  0  0  0  0  0  0  0  0  0  0
    3.0965    3.2957   -2.6378 H   0  0  0  0  0  0  0  0  0  0  0  0
    1.5414    2.4804   -2.9188 H   0  0  0  0  0  0  0  0  0  0  0  0
    2.9601    2.1011   -3.9190 H   0  0  0  0  0  0  0  0  0  0  0  0
    1.7998    2.2747   -0.5448 H   0  0  0  0  0  0  0  0  0  0  0  0
    3.5338    2.3330   -0.2098 H   0  0  0  0  0  0  0  0  0  0  0  0
    3.4711   -0.1056    0.4179 H   0  0  0  0  0  0  0  0  0  0  0  0
    2.3506    0.8566    1.3915 H   0  0  0  0  0  0  0  0  0  0  0  0
    0.8273   -3.7411    0.4262 H   0  0  0  0  0  0  0  0  0  0  0  0
   -1.0529   -5.1798   -0.3211 H   0  0  0  0  0  0  0  0  0  0  0  0
   -3.2993   -4.1889   -0.6785 H   0  0  0  0  0  0  0  0  0  0  0  0
   -3.6849   -1.7902   -0.2751 H   0  0  0  0  0  0  0  0  0  0  0  0
   -2.2220    0.4923   -1.5753 H   0  0  0  0  0  0  0  0  0  0  0  0
   -2.6140    2.9044   -1.2790 H   0  0  0  0  0  0  0  0  0  0  0  0
   -2.5318    3.9173    0.9852 H   0  0  0  0  0  0  0  0  0  0  0  0
   -2.0914    2.4964    2.9576 H   0  0  0  0  0  0  0  0  0  0  0  0
   -0.7259   -0.2048    4.5930 H   0  0  0  0  0  0  0  0  0  0  0  0
    0.9029   -1.4366   -1.7968 H   0  0  0  0  0  0  0  0  0  0  0  0
    0.3928    0.2565   -1.7147 H   0  0  0  0  0  0  0  0  0  0  0  0
    2.2270   -0.0795   -3.3949 H   0  0  0  0  0  0  0  0  0  0  0  0
    3.2397   -0.7667   -2.1476 H   0  0  0  0  0  0  0  0  0  0  0  0
  1  2  1  0
  2  3  1  0
  3  4  1  0
  4  5  1  0
  5  6  1  0
  6  7  2  0
  6  8  1  0
  8  9  2  0
  9 10  1  0
 10 11  2  0
 11 12  1  0
 12 13  2  0
 13 14  1  0
 14 15  2  0
 15 16  1  0
 16 17  2  0
 17 18  1  0
 18 19  2  0
 19 20  1  0
 20 21  2  0
 20 22  1  0
  5 23  1  0
 23 24  1  0
 24  2  1  0
 13  8  1  0
 19 14  1  0
  1 25  1  0
  1 26  1  0
  1 27  1  0
  3 28  1  0
  3 29  1  0
  4 30  1  0
  4 31  1  0
  9 32  1  0
 10 33  1  0
 11 34  1  0
 12 35  1  0
 15 36  1  0
 16 37  1  0
 17 38  1  0
 18 39  1  0
 22 40  1  0
 23 41  1  0
 23 42  1  0
 24 43  1  0
 24 44  1  0
M  END
$$$$
