
     RDKit          3D

 44 47  0  0  0  0  0  0  0  0999 V2000
    6.0538   -0.8553   -0.4461 C   0  0  0  0  0  0  0  0  0  0  0  0
    5.5694   -0.4619    0.9413 C   0  0  0  0  0  0  0  0  0  0  0  0
    4.0764   -0.3377    0.9925 C   0  0  0  0  0  0  0  0  0  0  0  0
    3.1452   -1.3237    1.2543 C   0  0  0  0  0  0  0  0  0  0  0  0
    1.8112   -0.8218    1.2134 C   0  0  0  0  0  0  0  0  0  0  0  0
    0.5622   -1.5222    1.4201 C   0  0  0  0  0  0  0  0  0  0  0  0
    0.5490   -2.7164    1.7065 O   0  0  0  0  0  0  0  0  0  0  0  0
   -0.5841   -0.7315    1.2678 N   0  0  0  0  0  0  0  0  0  0  0  0
   -1.8658   -1.4402    1.3552 C   0  0  0  0  0  0  0  0  0  0  0  0
   -2.3684   -1.8841   -0.0053 C   0  0  0  0  0  0  0  0  0  0  0  0
   -3.4361   -1.2234   -0.6293 C   0  0  0  0  0  0  0  0  0  0  0  0
   -3.8723   -1.6115   -1.8977 C   0  0  0  0  0  0  0  0  0  0  0  0
   -3.2582   -2.6750   -2.5532 C   0  0  0  0  0  0  0  0  0  0  0  0
   -2.2086   -3.3535   -1.9395 C   0  0  0  0  0  0  0  0  0  0  0  0
   -1.7665   -2.9616   -0.6741 C   0  0  0  0  0  0  0  0  0  0  0  0
   -0.4653    0.6341    1.0107 C   0  0  0  0  0  0  0  0  0  0  0  0
   -1.9177    1.6150    0.9477 S   0  0  0  0  0  0  0  0  0  0  0  0
   -1.6521    2.4033   -0.6742 C   0  0  0  0  0  0  0  0  0  0  0  0
   -0.9144    3.7230   -0.5901 C   0  0  0  0  0  0  0  0  0  0  0  0
   -2.0230    4.7287   -0.4200 C   0  0  0  0  0  0  0  0  0  0  0  0
   -3.1323    4.1903   -1.1365 O   0  0  0  0  0  0  0  0  0  0  0  0
   -2.9852    2.8341   -1.2369 C   0  0  0  0  0  0  0  0  0  0  0  0
   -3.8391    2.0951   -1.7040 O   0  0  0  0  0  0  0  0  0  0  0  0
    0.6493    1.2753    0.8397 N   0  0  0  0  0  0  0  0  0  0  0  0
    1.7643    0.5188    0.9318 C   0  0  0  0  0  0  0  0  0  0  0  0
    3.3204    1.1762    0.7094 S   0  0  0  0  0  0  0  0  0  0  0  0
    7.1440   -0.9542   -0.4524 H   0  0  0  0  0  0  0  0  0  0  0  0
    5.6245   -1.8130   -0.7596 H   0  0  0  0  0  0  0  0  0  0  0  0
    5.7773   -0.1031   -1.1926 H   0  0  0  0  0  0  0  0  0  0  0  0
    6.0465    0.4781    1.2435 H   0  0  0  0  0  0  0  0  0  0  0  0
    5.8935   -1.2206    1.6642 H   0  0  0  0  0  0  0  0  0  0  0  0
    3.4020   -2.3566    1.4615 H   0  0  0  0  0  0  0  0  0  0  0  0
   -1.7675   -2.3276    1.9932 H   0  0  0  0  0  0  0  0  0  0  0  0
   -2.6142   -0.8166    1.8547 H   0  0  0  0  0  0  0  0  0  0  0  0
   -3.9452   -0.3938   -0.1428 H   0  0  0  0  0  0  0  0  0  0  0  0
   -4.6916   -1.0760   -2.3725 H   0  0  0  0  0  0  0  0  0  0  0  0
   -3.6005   -2.9761   -3.5397 H   0  0  0  0  0  0  0  0  0  0  0  0
   -1.7324   -4.1895   -2.4455 H   0  0  0  0  0  0  0  0  0  0  0  0
   -0.9494   -3.5138   -0.2138 H   0  0  0  0  0  0  0  0  0  0  0  0
   -1.1659    1.7197   -1.3775 H   0  0  0  0  0  0  0  0  0  0  0  0
   -0.1521    3.7953    0.1903 H   0  0  0  0  0  0  0  0  0  0  0  0
   -0.4141    3.9076   -1.5498 H   0  0  0  0  0  0  0  0  0  0  0  0
   -1.7548    5.7036   -0.8376 H   0  0  0  0  0  0  0  0  0  0  0  0
   -2.3121    4.8625    0.6278 H   0  0  0  0  0  0  0  0  0  0  0  0
  1  2  1  0
  2  3  1  0
  3  4  2  0
  4  5  1  0
  5  6  1  0
  6  7  2  0
  6  8  1  0
  8  9  1  0
  9 10  1  0
 10 11  2  0
 11 12  1  0
 12 13  2  0
 13 14  1  0
 14 15  2  0
  8 16  1  0
 16 17  1  0
 17 18  1  0
 18 19  1  0
 19 20  1  0
 20 21  1  0
 21 22  1  0
 22 23  2  0
 16 24  2  0
 24 25  1  0
 25 26  1  0
 26  3  1  0
 25  5  2  0
 15 10  1  0
 22 18  1  0
  1 27  1  0
  1 28  1  0
  1 29  1  0
  2 30  1  0
  2 31  1  0
  4 32  1  0
  9 33  1  0
  9 34  1  0
 11 35  1  0
 12 36  1  0
 13 37  1  0
 14 38  1  0
 15 39  1  0
 18 40  1  0
 19 41  1  0
 19 42  1  0
 20 43  1  0
 20 44  1  0
M  END
$$$$
