
     RDKit          3D

 41 43  0  0  0  0  0  0  0  0999 V2000
   -3.0530   -3.7663    1.4878 C   0  0  0  0  0  0  0  0  0  0  0  0
   -3.6007   -2.3664    1.7228 C   0  0  0  0  0  0  0  0  0  0  0  0
   -2.5415   -1.3746    2.2158 C   0  0  0  0  0  0  0  0  0  0  0  0
   -1.5072   -1.0292    1.1460 C   0  0  0  0  0  0  0  0  0  0  0  0
   -0.4550    0.3349    1.7265 S   0  0  0  0  0  0  0  0  0  0  0  0
    0.5381    0.5557    0.3197 C   0  0  0  0  0  0  0  0  0  0  0  0
    1.0407   -0.4842   -0.2780 N   0  0  0  0  0  0  0  0  0  0  0  0
    1.6756    0.0344   -1.3754 C   0  0  0  0  0  0  0  0  0  0  0  0
    2.3905   -0.6056   -2.3119 C   0  0  0  0  0  0  0  0  0  0  0  0
    2.6727   -2.0100   -2.4086 C   0  0  0  0  0  0  0  0  0  0  0  0
    2.1682   -3.0638   -1.5827 C   0  0  0  0  0  0  0  0  0  0  0  0
    2.6490   -4.3020   -1.9505 C   0  0  0  0  0  0  0  0  0  0  0  0
    3.6928   -4.2081   -3.2991 S   0  0  0  0  0  0  0  0  0  0  0  0
    3.5184   -2.5084   -3.3818 C   0  0  0  0  0  0  0  0  0  0  0  0
    1.4923    1.5145   -1.4088 C   0  0  0  0  0  0  0  0  0  0  0  0
    1.9399    2.2545   -2.2672 O   0  0  0  0  0  0  0  0  0  0  0  0
    0.7775    1.7729   -0.2611 N   0  0  0  0  0  0  0  0  0  0  0  0
    0.4429    3.0867    0.1677 C   0  0  0  0  0  0  0  0  0  0  0  0
    0.3577    3.4348    1.5229 C   0  0  0  0  0  0  0  0  0  0  0  0
    0.0418    4.7390    1.9221 C   0  0  0  0  0  0  0  0  0  0  0  0
   -0.1800    5.7279    0.9713 C   0  0  0  0  0  0  0  0  0  0  0  0
   -0.0800    5.4141   -0.3786 C   0  0  0  0  0  0  0  0  0  0  0  0
    0.2318    4.1086   -0.7740 C   0  0  0  0  0  0  0  0  0  0  0  0
   -3.8664   -4.4420    1.1980 H   0  0  0  0  0  0  0  0  0  0  0  0
   -2.5922   -4.1605    2.3994 H   0  0  0  0  0  0  0  0  0  0  0  0
   -2.3070   -3.7800    0.6906 H   0  0  0  0  0  0  0  0  0  0  0  0
   -4.3934   -2.4284    2.4772 H   0  0  0  0  0  0  0  0  0  0  0  0
   -4.0679   -1.9913    0.8052 H   0  0  0  0  0  0  0  0  0  0  0  0
   -3.0633   -0.4637    2.5390 H   0  0  0  0  0  0  0  0  0  0  0  0
   -2.0417   -1.7869    3.1021 H   0  0  0  0  0  0  0  0  0  0  0  0
   -0.8833   -1.9030    0.9249 H   0  0  0  0  0  0  0  0  0  0  0  0
   -2.0076   -0.7190    0.2230 H   0  0  0  0  0  0  0  0  0  0  0  0
    2.8216    0.0143   -3.0990 H   0  0  0  0  0  0  0  0  0  0  0  0
    1.4899   -2.9351   -0.7482 H   0  0  0  0  0  0  0  0  0  0  0  0
    2.4329   -5.2560   -1.4935 H   0  0  0  0  0  0  0  0  0  0  0  0
    4.0529   -1.9600   -4.1469 H   0  0  0  0  0  0  0  0  0  0  0  0
    0.5908    2.7279    2.3118 H   0  0  0  0  0  0  0  0  0  0  0  0
   -0.0114    4.9840    2.9799 H   0  0  0  0  0  0  0  0  0  0  0  0
   -0.4132    6.7438    1.2830 H   0  0  0  0  0  0  0  0  0  0  0  0
   -0.2387    6.1870   -1.1295 H   0  0  0  0  0  0  0  0  0  0  0  0
    0.2856    3.9094   -1.8417 H   0  0  0  0  0  0  0  0  0  0  0  0
  1  2  1  0
  2  3  1  0
  3  4  1  0
  4  5  1  0
  5  6  1  0
  6  7  2  0
  7  8  1  0
  8  9  2  3
  9 10  1  0
 10 11  1  0
 11 12  2  0
 12 13  1  0
 13 14  1  0
  8 15  1  0
 15 16  2  0
 15 17  1  0
 17 18  1  0
 18 19  2  0
 19 20  1  0
 20 21  2  0
 21 22  1  0
 22 23  2  0
 17  6  1  0
 23 18  1  0
 14 10  2  0
  1 24  1  0
  1 25  1  0
  1 26  1  0
  2 27  1  0
  2 28  1  0
  3 29  1  0
  3 30  1  0
  4 31  1  0
  4 32  1  0
  9 33  1  0
 11 34  1  0
 12 35  1  0
 14 36  1  0
 19 37  1  0
 20 38  1  0
 21 39  1  0
 22 40  1  0
 23 41  1  0
M  END
$$$$
