
     RDKit          3D

 50 53  0  0  0  0  0  0  0  0999 V2000
   -6.3425    0.9953    2.9961 C   0  0  0  0  0  0  0  0  0  0  0  0
   -5.1955    0.8100    2.0444 C   0  0  0  0  0  0  0  0  0  0  0  0
   -5.2609   -0.1452    1.0260 C   0  0  0  0  0  0  0  0  0  0  0  0
   -4.1801   -0.3372    0.1580 C   0  0  0  0  0  0  0  0  0  0  0  0
   -3.0152    0.4157    0.3088 C   0  0  0  0  0  0  0  0  0  0  0  0
   -1.7943    0.2117   -0.6585 C   0  0  0  0  0  0  0  0  0  0  0  0
   -0.6177    0.9522   -0.6671 C   0  0  0  0  0  0  0  0  0  0  0  0
    0.2150    0.4719   -1.6859 N   0  0  0  0  0  4  0  0  0  0  0  0
    1.5281    1.0088   -2.0752 C   0  0  0  0  0  0  0  0  0  0  0  0
    2.3553    1.4418   -0.8603 C   0  0  0  0  0  0  0  0  0  0  0  0
    2.2408    2.5855   -0.4261 O   0  0  0  0  0  0  0  0  0  0  0  0
    3.1173    0.4192   -0.3158 N   0  0  0  0  0  0  0  0  0  0  0  0
    4.0118    0.5040    0.7819 C   0  0  0  0  0  0  0  0  0  0  0  0
    4.3414    1.7232    1.3873 C   0  0  0  0  0  0  0  0  0  0  0  0
    5.2298    1.7760    2.4645 C   0  0  0  0  0  0  0  0  0  0  0  0
    5.8055    0.6103    2.9511 C   0  0  0  0  0  0  0  0  0  0  0  0
    5.4966   -0.6110    2.3576 C   0  0  0  0  0  0  0  0  0  0  0  0
    4.6058   -0.6821    1.2705 C   0  0  0  0  0  0  0  0  0  0  0  0
    4.3205   -2.0379    0.6811 C   0  0  0  0  0  0  0  0  0  0  0  0
   -0.4432   -0.5035   -2.3005 C   0  0  0  0  0  0  0  0  0  0  0  0
   -1.6078   -0.6921   -1.6906 N   0  0  0  0  0  0  0  0  0  0  0  0
   -2.3785   -1.7644   -2.3042 C   0  0  0  0  0  0  0  0  0  0  0  0
   -1.3523   -2.4540   -3.2453 C   0  0  0  0  0  0  0  0  0  0  0  0
   -0.2307   -1.4154   -3.4478 C   0  0  0  0  0  0  0  0  0  0  0  0
   -2.9410    1.3667    1.3327 C   0  0  0  0  0  0  0  0  0  0  0  0
   -4.0236    1.5566    2.1977 C   0  0  0  0  0  0  0  0  0  0  0  0
   -7.2891    0.6829    2.5397 H   0  0  0  0  0  0  0  0  0  0  0  0
   -6.4489    2.0502    3.2727 H   0  0  0  0  0  0  0  0  0  0  0  0
   -6.1764    0.4022    3.9010 H   0  0  0  0  0  0  0  0  0  0  0  0
   -6.1623   -0.7443    0.8992 H   0  0  0  0  0  0  0  0  0  0  0  0
   -4.2948   -1.0741   -0.6259 H   0  0  0  0  0  0  0  0  0  0  0  0
   -0.2720    1.7831   -0.0732 H   0  0  0  0  0  0  0  0  0  0  0  0
    2.0735    0.2516   -2.6492 H   0  0  0  0  0  0  0  0  0  0  0  0
    1.3657    1.8748   -2.7251 H   0  0  0  0  0  0  0  0  0  0  0  0
    2.9920   -0.5083   -0.6985 H   0  0  0  0  0  0  0  0  0  0  0  0
    3.9363    2.6689    1.0417 H   0  0  0  0  0  0  0  0  0  0  0  0
    5.4740    2.7337    2.9183 H   0  0  0  0  0  0  0  0  0  0  0  0
    6.4977    0.6521    3.7891 H   0  0  0  0  0  0  0  0  0  0  0  0
    5.9639   -1.5130    2.7509 H   0  0  0  0  0  0  0  0  0  0  0  0
    3.2575   -2.2793    0.7881 H   0  0  0  0  0  0  0  0  0  0  0  0
    4.8895   -2.8282    1.1840 H   0  0  0  0  0  0  0  0  0  0  0  0
    4.6008   -2.0605   -0.3775 H   0  0  0  0  0  0  0  0  0  0  0  0
   -2.7502   -2.4617   -1.5508 H   0  0  0  0  0  0  0  0  0  0  0  0
   -3.2027   -1.3257   -2.8735 H   0  0  0  0  0  0  0  0  0  0  0  0
   -0.9380   -3.3320   -2.7362 H   0  0  0  0  0  0  0  0  0  0  0  0
   -1.7983   -2.7901   -4.1853 H   0  0  0  0  0  0  0  0  0  0  0  0
   -0.3683   -0.8177   -4.3509 H   0  0  0  0  0  0  0  0  0  0  0  0
    0.7712   -1.8408   -3.3847 H   0  0  0  0  0  0  0  0  0  0  0  0
   -2.0553    1.9738    1.4959 H   0  0  0  0  0  0  0  0  0  0  0  0
   -3.9502    2.2963    2.9947 H   0  0  0  0  0  0  0  0  0  0  0  0
  1  2  1  0
  2  3  2  0
  3  4  1  0
  4  5  2  0
  5  6  1  0
  6  7  2  0
  7  8  1  0
  8  9  1  0
  9 10  1  0
 10 11  2  0
 10 12  1  0
 12 13  1  0
 13 14  2  0
 14 15  1  0
 15 16  2  0
 16 17  1  0
 17 18  2  0
 18 19  1  0
  8 20  2  0
 20 21  1  0
 21 22  1  0
 22 23  1  0
 23 24  1  0
  5 25  1  0
 25 26  2  0
 26  2  1  0
 21  6  1  0
 18 13  1  0
 24 20  1  0
  1 27  1  0
  1 28  1  0
  1 29  1  0
  3 30  1  0
  4 31  1  0
  7 32  1  0
  9 33  1  0
  9 34  1  0
 12 35  1  0
 14 36  1  0
 15 37  1  0
 16 38  1  0
 17 39  1  0
 19 40  1  0
 19 41  1  0
 19 42  1  0
 22 43  1  0
 22 44  1  0
 23 45  1  0
 23 46  1  0
 24 47  1  0
 24 48  1  0
 25 49  1  0
 26 50  1  0
M  CHG  1   8   1
M  END
$$$$
