
     RDKit          3D

 37 39  0  0  0  0  0  0  0  0999 V2000
   -5.0959   -0.8988    1.8027 C   0  0  0  0  0  0  0  0  0  0  0  0
   -4.5749   -0.3883    0.4921 C   0  0  0  0  0  0  0  0  0  0  0  0
   -5.4018   -0.0820   -0.5183 C   0  0  0  0  0  0  0  0  0  0  0  0
   -4.9409    0.4222   -1.8214 C   0  0  0  0  0  0  0  0  0  0  0  0
   -5.7444    0.6827   -2.7097 O   0  0  0  0  0  0  0  0  0  0  0  0
   -3.5763    0.5807   -1.9833 O   0  0  0  0  0  0  0  0  0  0  0  0
   -2.6812    0.2688   -0.9421 C   0  0  0  0  0  0  0  0  0  0  0  0
   -1.3260    0.4658   -1.2102 C   0  0  0  0  0  0  0  0  0  0  0  0
   -0.3736    0.1781   -0.2336 C   0  0  0  0  0  0  0  0  0  0  0  0
    0.9154    0.4149   -0.6169 O   0  0  0  0  0  0  0  0  0  0  0  0
    1.9811    0.0672    0.2686 C   0  0  0  0  0  0  0  0  0  0  0  0
    2.1766    1.0735    1.4151 C   0  0  0  0  0  0  0  0  0  0  0  0
    1.6775    2.1825    1.5298 O   0  0  0  0  0  0  0  0  0  0  0  0
    2.9915    0.6079    2.3917 O   0  0  0  0  0  0  0  0  0  0  0  0
    3.2520   -0.0204   -0.5683 C   0  0  0  0  0  0  0  0  0  0  0  0
    3.6028    1.0103   -1.4565 C   0  0  0  0  0  0  0  0  0  0  0  0
    4.7778    0.9339   -2.2055 C   0  0  0  0  0  0  0  0  0  0  0  0
    5.6185   -0.1691   -2.0737 C   0  0  0  0  0  0  0  0  0  0  0  0
    5.2864   -1.1965   -1.1928 C   0  0  0  0  0  0  0  0  0  0  0  0
    4.1113   -1.1234   -0.4423 C   0  0  0  0  0  0  0  0  0  0  0  0
   -0.7999   -0.3007    1.0051 C   0  0  0  0  0  0  0  0  0  0  0  0
   -2.1674   -0.4931    1.2617 C   0  0  0  0  0  0  0  0  0  0  0  0
   -3.1312   -0.2105    0.2874 C   0  0  0  0  0  0  0  0  0  0  0  0
   -4.6995   -1.8971    2.0166 H   0  0  0  0  0  0  0  0  0  0  0  0
   -4.8198   -0.2246    2.6204 H   0  0  0  0  0  0  0  0  0  0  0  0
   -6.1888   -0.9778    1.8035 H   0  0  0  0  0  0  0  0  0  0  0  0
   -6.4774   -0.1894   -0.4334 H   0  0  0  0  0  0  0  0  0  0  0  0
   -1.0144    0.8436   -2.1806 H   0  0  0  0  0  0  0  0  0  0  0  0
    1.7830   -0.9226    0.6997 H   0  0  0  0  0  0  0  0  0  0  0  0
    3.0581    1.3613    3.0164 H   0  0  0  0  0  0  0  0  0  0  0  0
    2.9554    1.8785   -1.5726 H   0  0  0  0  0  0  0  0  0  0  0  0
    5.0354    1.7354   -2.8931 H   0  0  0  0  0  0  0  0  0  0  0  0
    6.5328   -0.2281   -2.6584 H   0  0  0  0  0  0  0  0  0  0  0  0
    5.9442   -2.0557   -1.0898 H   0  0  0  0  0  0  0  0  0  0  0  0
    3.8746   -1.9339    0.2436 H   0  0  0  0  0  0  0  0  0  0  0  0
   -0.1065   -0.5308    1.8071 H   0  0  0  0  0  0  0  0  0  0  0  0
   -2.4543   -0.8647    2.2423 H   0  0  0  0  0  0  0  0  0  0  0  0
  1  2  1  0
  2  3  2  0
  3  4  1  0
  4  5  2  0
  4  6  1  0
  6  7  1  0
  7  8  2  0
  8  9  1  0
  9 10  1  0
 10 11  1  0
 11 12  1  0
 12 13  2  0
 12 14  1  0
 11 15  1  0
 15 16  2  0
 16 17  1  0
 17 18  2  0
 18 19  1  0
 19 20  2  0
  9 21  2  0
 21 22  1  0
 22 23  2  0
 23  2  1  0
 23  7  1  0
 20 15  1  0
  1 24  1  0
  1 25  1  0
  1 26  1  0
  3 27  1  0
  8 28  1  0
 11 29  1  0
 14 30  1  0
 16 31  1  0
 17 32  1  0
 18 33  1  0
 19 34  1  0
 20 35  1  0
 21 36  1  0
 22 37  1  0
M  END
$$$$
