
     RDKit          3D

 61 65  0  0  0  0  0  0  0  0999 V2000
    2.5151   -1.0638    0.2969 C   0  0  0  0  0  0  0  0  0  0  0  0
    3.0298   -0.0574   -0.6674 C   0  0  0  0  0  0  0  0  0  0  0  0
    2.3893    1.0720   -1.1510 C   0  0  0  0  0  0  0  0  0  0  0  0
    1.0099    1.5906   -0.8617 C   0  0  0  0  0  0  0  0  0  0  0  0
   -0.0163    1.0509   -1.8628 C   0  0  0  0  0  0  0  0  0  0  0  0
   -1.3453    1.1136   -1.3254 O   0  0  0  0  0  0  0  0  0  0  0  0
   -1.6734    0.0980   -0.4736 C   0  0  0  0  0  0  0  0  0  0  0  0
   -0.8851   -0.7756   -0.1300 O   0  0  0  0  0  0  0  0  0  0  0  0
   -3.1300    0.1954   -0.0289 C   0  0  0  0  0  0  0  0  0  0  0  0
   -3.4404    1.5974    0.5449 C   0  0  0  0  0  0  0  0  0  0  0  0
   -4.9122    1.6840    0.9806 C   0  0  0  0  0  0  0  0  0  0  0  0
   -5.8176    1.4074   -0.2314 C   0  0  0  0  0  0  0  0  0  0  0  0
   -5.5336    0.0044   -0.7940 C   0  0  0  0  0  0  0  0  0  0  0  0
   -5.8015   -1.0445    0.2988 C   0  0  0  0  0  0  0  0  0  0  0  0
   -4.8967   -0.7880    1.5257 C   0  0  0  0  0  0  0  0  0  0  0  0
   -5.1673   -1.8316    2.6122 C   0  0  0  0  0  0  0  0  0  0  0  0
   -5.1831    0.6312    2.0673 C   0  0  0  0  0  0  0  0  0  0  0  0
   -3.4204   -0.8560    1.0715 C   0  0  0  0  0  0  0  0  0  0  0  0
   -4.0616   -0.0793   -1.2301 C   0  0  0  0  0  0  0  0  0  0  0  0
    3.4141    1.9122   -2.2443 S   0  0  0  0  0  0  0  0  0  0  0  0
    4.6502    0.7484   -2.0692 C   0  0  0  0  0  0  0  0  0  0  0  0
    4.3015   -0.2056   -1.2185 N   0  0  0  0  0  4  0  0  0  0  0  0
    5.2110   -1.3324   -0.9549 C   0  0  0  0  0  0  0  0  0  0  0  0
    6.4765   -0.8367   -0.2971 C   0  0  0  0  0  0  0  0  0  0  0  0
    7.7044   -0.9123   -0.9757 C   0  0  0  0  0  0  0  0  0  0  0  0
    8.8739   -0.4421   -0.3762 C   0  0  0  0  0  0  0  0  0  0  0  0
    8.8318    0.1011    0.9057 C   0  0  0  0  0  0  0  0  0  0  0  0
    7.6213    0.1758    1.5917 C   0  0  0  0  0  0  0  0  0  0  0  0
    6.4480   -0.2892    0.9954 C   0  0  0  0  0  0  0  0  0  0  0  0
    3.2243   -1.2274    1.1138 H   0  0  0  0  0  0  0  0  0  0  0  0
    2.3272   -2.0161   -0.2084 H   0  0  0  0  0  0  0  0  0  0  0  0
    1.5800   -0.7393    0.7578 H   0  0  0  0  0  0  0  0  0  0  0  0
    0.9920    2.6880   -0.8828 H   0  0  0  0  0  0  0  0  0  0  0  0
    0.7295    1.3300    0.1653 H   0  0  0  0  0  0  0  0  0  0  0  0
   -0.0047    1.6609   -2.7732 H   0  0  0  0  0  0  0  0  0  0  0  0
    0.2074    0.0239   -2.1806 H   0  0  0  0  0  0  0  0  0  0  0  0
   -3.2415    2.3783   -0.2013 H   0  0  0  0  0  0  0  0  0  0  0  0
   -2.7821    1.8129    1.3967 H   0  0  0  0  0  0  0  0  0  0  0  0
   -5.1182    2.6853    1.3763 H   0  0  0  0  0  0  0  0  0  0  0  0
   -5.6469    2.1624   -1.0084 H   0  0  0  0  0  0  0  0  0  0  0  0
   -6.8712    1.4875    0.0634 H   0  0  0  0  0  0  0  0  0  0  0  0
   -6.1821   -0.1861   -1.6566 H   0  0  0  0  0  0  0  0  0  0  0  0
   -5.6207   -2.0504   -0.1024 H   0  0  0  0  0  0  0  0  0  0  0  0
   -6.8585   -1.0080    0.5929 H   0  0  0  0  0  0  0  0  0  0  0  0
   -4.9701   -2.8441    2.2460 H   0  0  0  0  0  0  0  0  0  0  0  0
   -6.2104   -1.7937    2.9451 H   0  0  0  0  0  0  0  0  0  0  0  0
   -4.5317   -1.6639    3.4878 H   0  0  0  0  0  0  0  0  0  0  0  0
   -6.2258    0.7054    2.4021 H   0  0  0  0  0  0  0  0  0  0  0  0
   -4.5556    0.8376    2.9438 H   0  0  0  0  0  0  0  0  0  0  0  0
   -2.7547   -0.6922    1.9306 H   0  0  0  0  0  0  0  0  0  0  0  0
   -3.1915   -1.8645    0.6982 H   0  0  0  0  0  0  0  0  0  0  0  0
   -3.8520   -1.0704   -1.6564 H   0  0  0  0  0  0  0  0  0  0  0  0
   -3.8772    0.6451   -2.0353 H   0  0  0  0  0  0  0  0  0  0  0  0
    5.5973    0.8020   -2.5942 H   0  0  0  0  0  0  0  0  0  0  0  0
    4.7491   -2.0951   -0.3227 H   0  0  0  0  0  0  0  0  0  0  0  0
    5.4292   -1.8180   -1.9145 H   0  0  0  0  0  0  0  0  0  0  0  0
    7.7759   -1.3423   -1.9739 H   0  0  0  0  0  0  0  0  0  0  0  0
    9.8251   -0.5053   -0.9039 H   0  0  0  0  0  0  0  0  0  0  0  0
    9.7459    0.4604    1.3754 H   0  0  0  0  0  0  0  0  0  0  0  0
    7.5977    0.5917    2.5986 H   0  0  0  0  0  0  0  0  0  0  0  0
    5.5219   -0.2229    1.5630 H   0  0  0  0  0  0  0  0  0  0  0  0
  1  2  1  0
  2  3  2  0
  3  4  1  0
  4  5  1  0
  5  6  1  0
  6  7  1  0
  7  8  2  0
  7  9  1  0
  9 10  1  0
 10 11  1  0
 11 12  1  0
 12 13  1  0
 13 14  1  0
 14 15  1  0
 15 16  1  0
 15 17  1  0
 15 18  1  0
 13 19  1  0
  3 20  1  0
 20 21  1  0
 21 22  2  0
 22 23  1  0
 23 24  1  0
 24 25  2  0
 25 26  1  0
 26 27  2  0
 27 28  1  0
 28 29  2  0
 22  2  1  0
 29 24  1  0
 18  9  1  0
 19  9  1  0
 17 11  1  0
  1 30  1  0
  1 31  1  0
  1 32  1  0
  4 33  1  0
  4 34  1  0
  5 35  1  0
  5 36  1  0
 10 37  1  0
 10 38  1  0
 11 39  1  0
 12 40  1  0
 12 41  1  0
 13 42  1  0
 14 43  1  0
 14 44  1  0
 16 45  1  0
 16 46  1  0
 16 47  1  0
 17 48  1  0
 17 49  1  0
 18 50  1  0
 18 51  1  0
 19 52  1  0
 19 53  1  0
 21 54  1  0
 23 55  1  0
 23 56  1  0
 25 57  1  0
 26 58  1  0
 27 59  1  0
 28 60  1  0
 29 61  1  0
M  CHG  1  22   1
M  END
$$$$
