
     RDKit          3D

 48 48  0  0  0  0  0  0  0  0999 V2000
    3.1031   -1.3479   -1.1173 C   0  0  0  0  0  0  0  0  0  0  0  0
    3.2512   -0.7326    0.2762 C   0  0  0  0  0  0  0  0  0  0  0  0
    2.6417    0.6789    0.3313 C   0  0  0  0  0  0  0  0  0  0  0  0
    1.2043    0.6805    0.1221 N   0  0  0  0  0  0  0  0  0  0  0  0
    0.3266    0.3412    1.1310 C   0  0  0  0  0  0  0  0  0  0  0  0
    0.6822    0.0395    2.2647 O   0  0  0  0  0  0  0  0  0  0  0  0
   -1.1171    0.3171    0.7675 C   0  0  0  0  0  0  0  0  0  0  0  0
   -1.9700   -0.5301    1.4765 C   0  0  0  0  0  0  0  0  0  0  0  0
   -3.3332   -0.5782    1.1666 C   0  0  0  0  0  0  0  0  0  0  0  0
   -3.8863    0.2241    0.1489 C   0  0  0  0  0  0  0  0  0  0  0  0
   -5.3927    0.1480   -0.1596 C   0  0  0  0  0  0  0  0  0  0  0  0
   -5.7654   -1.2908   -0.5768 C   0  0  0  0  0  0  0  0  0  0  0  0
   -5.8449    1.0857   -1.3018 C   0  0  0  0  0  0  0  0  0  0  0  0
   -6.2000    0.5377    1.0973 C   0  0  0  0  0  0  0  0  0  0  0  0
   -3.0126    1.0821   -0.5410 C   0  0  0  0  0  0  0  0  0  0  0  0
   -1.6457    1.1328   -0.2357 C   0  0  0  0  0  0  0  0  0  0  0  0
    4.7150   -0.7139    0.7711 C   0  0  0  0  0  0  0  0  0  0  0  0
    5.5926    0.1555   -0.0349 N   0  0  0  0  0  0  0  0  0  0  0  0
    6.4371    0.9860    0.8278 C   0  0  0  0  0  0  0  0  0  0  0  0
    6.4434   -0.6279   -0.9347 C   0  0  0  0  0  0  0  0  0  0  0  0
    2.0475   -1.5078   -1.3619 H   0  0  0  0  0  0  0  0  0  0  0  0
    3.6001   -2.3222   -1.1666 H   0  0  0  0  0  0  0  0  0  0  0  0
    3.5272   -0.7029   -1.8934 H   0  0  0  0  0  0  0  0  0  0  0  0
    2.6964   -1.3791    0.9694 H   0  0  0  0  0  0  0  0  0  0  0  0
    2.8382    1.1370    1.3075 H   0  0  0  0  0  0  0  0  0  0  0  0
    3.0732    1.3284   -0.4377 H   0  0  0  0  0  0  0  0  0  0  0  0
    0.8728    0.7178   -0.8317 H   0  0  0  0  0  0  0  0  0  0  0  0
   -1.5772   -1.1580    2.2740 H   0  0  0  0  0  0  0  0  0  0  0  0
   -3.9618   -1.2548    1.7424 H   0  0  0  0  0  0  0  0  0  0  0  0
   -5.5803   -2.0156    0.2235 H   0  0  0  0  0  0  0  0  0  0  0  0
   -6.8281   -1.3644   -0.8358 H   0  0  0  0  0  0  0  0  0  0  0  0
   -5.1859   -1.6108   -1.4509 H   0  0  0  0  0  0  0  0  0  0  0  0
   -5.6497    2.1373   -1.0616 H   0  0  0  0  0  0  0  0  0  0  0  0
   -6.9219    0.9926   -1.4865 H   0  0  0  0  0  0  0  0  0  0  0  0
   -5.3352    0.8495   -2.2430 H   0  0  0  0  0  0  0  0  0  0  0  0
   -7.2772    0.5281    0.8940 H   0  0  0  0  0  0  0  0  0  0  0  0
   -5.9342    1.5446    1.4404 H   0  0  0  0  0  0  0  0  0  0  0  0
   -6.0255   -0.1503    1.9316 H   0  0  0  0  0  0  0  0  0  0  0  0
   -3.3716    1.7419   -1.3267 H   0  0  0  0  0  0  0  0  0  0  0  0
   -1.0183    1.8385   -0.7728 H   0  0  0  0  0  0  0  0  0  0  0  0
    4.6913   -0.3712    1.8154 H   0  0  0  0  0  0  0  0  0  0  0  0
    5.1040   -1.7402    0.8186 H   0  0  0  0  0  0  0  0  0  0  0  0
    5.8190    1.6316    1.4617 H   0  0  0  0  0  0  0  0  0  0  0  0
    7.0647    1.6527    0.2266 H   0  0  0  0  0  0  0  0  0  0  0  0
    7.0879    0.3843    1.4723 H   0  0  0  0  0  0  0  0  0  0  0  0
    7.0412    0.0371   -1.5685 H   0  0  0  0  0  0  0  0  0  0  0  0
    7.1279   -1.2868   -0.3879 H   0  0  0  0  0  0  0  0  0  0  0  0
    5.8461   -1.2448   -1.6117 H   0  0  0  0  0  0  0  0  0  0  0  0
  1  2  1  0
  2  3  1  0
  3  4  1  0
  4  5  1  0
  5  6  2  0
  5  7  1  0
  7  8  2  0
  8  9  1  0
  9 10  2  0
 10 11  1  0
 11 12  1  0
 11 13  1  0
 11 14  1  0
 10 15  1  0
 15 16  2  0
  2 17  1  0
 17 18  1  0
 18 19  1  0
 18 20  1  0
 16  7  1  0
  1 21  1  0
  1 22  1  0
  1 23  1  0
  2 24  1  0
  3 25  1  0
  3 26  1  0
  4 27  1  0
  8 28  1  0
  9 29  1  0
 12 30  1  0
 12 31  1  0
 12 32  1  0
 13 33  1  0
 13 34  1  0
 13 35  1  0
 14 36  1  0
 14 37  1  0
 14 38  1  0
 15 39  1  0
 16 40  1  0
 17 41  1  0
 17 42  1  0
 19 43  1  0
 19 44  1  0
 19 45  1  0
 20 46  1  0
 20 47  1  0
 20 48  1  0
M  END
$$$$
