
     RDKit          3D

 61 65  0  0  0  0  0  0  0  0999 V2000
   -8.0909    2.0468    1.9963 C   0  0  0  0  0  0  0  0  0  0  0  0
   -7.3439    1.0169    1.2019 C   0  0  0  0  0  0  0  0  0  0  0  0
   -7.7092   -0.3320    1.2663 C   0  0  0  0  0  0  0  0  0  0  0  0
   -7.0327   -1.2870    0.5040 C   0  0  0  0  0  0  0  0  0  0  0  0
   -5.9877   -0.9070   -0.3490 C   0  0  0  0  0  0  0  0  0  0  0  0
   -5.2485   -1.9391   -1.1623 C   0  0  0  0  0  0  0  0  0  0  0  0
   -4.2185   -2.5911   -0.3815 N   0  0  0  0  0  0  0  0  0  0  0  0
   -4.4466   -3.7899    0.2129 N   0  0  0  0  0  0  0  0  0  0  0  0
   -3.3285   -4.1496    0.8440 N   0  0  0  0  0  0  0  0  0  0  0  0
   -2.4067   -3.1758    0.6171 C   0  0  0  0  0  0  0  0  0  0  0  0
   -1.0449   -3.0459    1.0520 C   0  0  0  0  0  0  0  0  0  0  0  0
   -0.4284   -3.8448    1.7482 O   0  0  0  0  0  0  0  0  0  0  0  0
   -0.4532   -1.8767    0.5857 N   0  0  0  0  0  0  0  0  0  0  0  0
   -1.0882   -0.9438   -0.2221 C   0  0  0  0  0  0  0  0  0  0  0  0
   -0.2886    0.2855   -0.6536 C   0  0  0  0  0  0  0  0  0  0  0  0
    0.9293   -0.0648   -1.5135 C   0  0  0  0  0  0  0  0  0  0  0  0
    2.2172   -0.3070   -0.7370 C   0  0  0  0  0  0  0  0  0  0  0  0
    2.4526    0.7155    0.3049 N   0  0  0  0  0  0  0  0  0  0  0  0
    3.2519    2.1555   -0.1695 S   0  0  0  0  0  6  0  0  0  0  0  0
    2.5021    2.6960   -1.2842 O   0  0  0  0  0  0  0  0  0  0  0  0
    3.4383    2.9470    1.0291 O   0  0  0  0  0  0  0  0  0  0  0  0
    4.8092    1.6632   -0.7491 C   0  0  0  0  0  0  0  0  0  0  0  0
    5.6261    0.9772    0.0648 C   0  0  0  0  0  0  0  0  0  0  0  0
    6.9531    0.4920   -0.3331 C   0  0  0  0  0  0  0  0  0  0  0  0
    7.4050   -0.7319    0.1780 C   0  0  0  0  0  0  0  0  0  0  0  0
    8.6696   -1.2208   -0.1589 C   0  0  0  0  0  0  0  0  0  0  0  0
    9.5003   -0.4850   -1.0009 C   0  0  0  0  0  0  0  0  0  0  0  0
    9.0699    0.7419   -1.5009 C   0  0  0  0  0  0  0  0  0  0  0  0
    7.8046    1.2311   -1.1650 C   0  0  0  0  0  0  0  0  0  0  0  0
    1.3227    0.8848    1.2446 C   0  0  0  0  0  0  0  0  0  0  0  0
    0.0335    1.2232    0.5130 C   0  0  0  0  0  0  0  0  0  0  0  0
   -2.3241   -1.0605   -0.6278 N   0  0  0  0  0  0  0  0  0  0  0  0
   -2.9320   -2.1834   -0.1729 C   0  0  0  0  0  0  0  0  0  0  0  0
   -5.6266    0.4456   -0.4156 C   0  0  0  0  0  0  0  0  0  0  0  0
   -6.3045    1.3993    0.3471 C   0  0  0  0  0  0  0  0  0  0  0  0
   -8.9090    2.4596    1.3979 H   0  0  0  0  0  0  0  0  0  0  0  0
   -8.5074    1.6109    2.9106 H   0  0  0  0  0  0  0  0  0  0  0  0
   -7.4257    2.8623    2.2995 H   0  0  0  0  0  0  0  0  0  0  0  0
   -8.5209   -0.6509    1.9167 H   0  0  0  0  0  0  0  0  0  0  0  0
   -7.3244   -2.3329    0.5859 H   0  0  0  0  0  0  0  0  0  0  0  0
   -4.7725   -1.4869   -2.0400 H   0  0  0  0  0  0  0  0  0  0  0  0
   -5.9375   -2.7069   -1.5337 H   0  0  0  0  0  0  0  0  0  0  0  0
    0.5009   -1.7678    0.8856 H   0  0  0  0  0  0  0  0  0  0  0  0
   -0.9775    0.8392   -1.3102 H   0  0  0  0  0  0  0  0  0  0  0  0
    1.0976    0.7635   -2.2126 H   0  0  0  0  0  0  0  0  0  0  0  0
    0.7177   -0.9412   -2.1385 H   0  0  0  0  0  0  0  0  0  0  0  0
    2.1961   -1.2879   -0.2505 H   0  0  0  0  0  0  0  0  0  0  0  0
    3.0625   -0.3544   -1.4316 H   0  0  0  0  0  0  0  0  0  0  0  0
    5.0528    1.9284   -1.7670 H   0  0  0  0  0  0  0  0  0  0  0  0
    5.3125    0.7308    1.0784 H   0  0  0  0  0  0  0  0  0  0  0  0
    6.7748   -1.3214    0.8404 H   0  0  0  0  0  0  0  0  0  0  0  0
    9.0070   -2.1743    0.2394 H   0  0  0  0  0  0  0  0  0  0  0  0
   10.4857   -0.8634   -1.2605 H   0  0  0  0  0  0  0  0  0  0  0  0
    9.7223    1.3238   -2.1472 H   0  0  0  0  0  0  0  0  0  0  0  0
    7.5041    2.2021   -1.5507 H   0  0  0  0  0  0  0  0  0  0  0  0
    1.2151   -0.0379    1.8236 H   0  0  0  0  0  0  0  0  0  0  0  0
    1.5445    1.6568    1.9887 H   0  0  0  0  0  0  0  0  0  0  0  0
    0.1172    2.2438    0.1180 H   0  0  0  0  0  0  0  0  0  0  0  0
   -0.7956    1.2397    1.2308 H   0  0  0  0  0  0  0  0  0  0  0  0
   -4.8101    0.7673   -1.0595 H   0  0  0  0  0  0  0  0  0  0  0  0
   -6.0120    2.4445    0.2733 H   0  0  0  0  0  0  0  0  0  0  0  0
  1  2  1  0
  2  3  2  0
  3  4  1  0
  4  5  2  0
  5  6  1  0
  6  7  1  0
  7  8  1  0
  8  9  2  0
  9 10  1  0
 10 11  1  0
 11 12  2  0
 11 13  1  0
 13 14  1  0
 14 15  1  0
 15 16  1  0
 16 17  1  0
 17 18  1  0
 18 19  1  0
 19 20  2  0
 19 21  2  0
 19 22  1  0
 22 23  2  3
 23 24  1  0
 24 25  2  0
 25 26  1  0
 26 27  2  0
 27 28  1  0
 28 29  2  0
 18 30  1  0
 30 31  1  0
 14 32  2  0
 32 33  1  0
  5 34  1  0
 34 35  2  0
 35  2  1  0
 33  7  1  0
 33 10  2  0
 31 15  1  0
 29 24  1  0
  1 36  1  0
  1 37  1  0
  1 38  1  0
  3 39  1  0
  4 40  1  0
  6 41  1  0
  6 42  1  0
 13 43  1  0
 15 44  1  0
 16 45  1  0
 16 46  1  0
 17 47  1  0
 17 48  1  0
 22 49  1  0
 23 50  1  0
 25 51  1  0
 26 52  1  0
 27 53  1  0
 28 54  1  0
 29 55  1  0
 30 56  1  0
 30 57  1  0
 31 58  1  0
 31 59  1  0
 34 60  1  0
 35 61  1  0
M  END
$$$$
