
     RDKit          3D

 48 50  0  0  0  0  0  0  0  0999 V2000
   -0.4483    1.0875    2.0039 C   0  0  0  0  0  0  0  0  0  0  0  0
   -0.1310    0.7177    0.7545 C   0  0  0  0  0  0  0  0  0  0  0  0
    1.2415    0.5846    0.2081 C   0  0  0  0  0  0  0  0  0  0  0  0
    2.3881    0.7294    0.8963 C   0  0  0  0  0  0  0  0  0  0  0  0
    3.6875    0.5855    0.3337 C   0  0  0  0  0  0  0  0  0  0  0  0
    4.8295   -0.4674    1.0877 S   0  0  0  0  0  0  0  0  0  0  0  0
    5.9885   -0.0679   -0.0899 C   0  0  0  0  0  0  0  0  0  0  0  0
    7.2505   -0.6054   -0.1165 N   0  0  0  0  0  0  0  0  0  0  0  0
    7.7926   -1.5019    0.7747 C   0  0  0  0  0  0  0  0  0  0  0  0
    9.2145   -1.8657    0.4228 C   0  0  0  0  0  0  0  0  0  0  0  0
    7.2642   -1.9747    1.7740 O   0  0  0  0  0  0  0  0  0  0  0  0
    5.6152    0.8025   -0.9979 N   0  0  0  0  0  0  0  0  0  0  0  0
    4.3212    1.1800   -0.7450 C   0  0  0  0  0  0  0  0  0  0  0  0
    3.7243    2.1021   -1.5141 O   0  0  0  0  0  0  0  0  0  0  0  0
    1.1075    0.2215   -1.1998 C   0  0  0  0  0  0  0  0  0  0  0  0
   -0.2102    0.1419   -1.4729 C   0  0  0  0  0  0  0  0  0  0  0  0
   -0.7809   -0.2825   -2.7837 C   0  0  0  0  0  0  0  0  0  0  0  0
   -0.9819    0.4328   -0.3283 N   0  0  0  0  0  0  0  0  0  0  0  0
   -2.3936    0.3382   -0.2614 C   0  0  0  0  0  0  0  0  0  0  0  0
   -3.0198   -0.5243    0.6481 C   0  0  0  0  0  0  0  0  0  0  0  0
   -4.4161   -0.6217    0.7152 C   0  0  0  0  0  0  0  0  0  0  0  0
   -5.2190    0.1462   -0.1267 C   0  0  0  0  0  0  0  0  0  0  0  0
   -6.6285    0.1097   -0.1250 N   0  0  0  0  0  0  0  0  0  0  0  0
   -7.4506   -0.6454    0.6918 C   0  0  0  0  0  0  0  0  0  0  0  0
   -8.9118   -0.4167    0.3944 C   0  0  0  0  0  0  0  0  0  0  0  0
   -7.1060   -1.4082    1.5869 O   0  0  0  0  0  0  0  0  0  0  0  0
   -4.6028    1.0110   -1.0383 C   0  0  0  0  0  0  0  0  0  0  0  0
   -3.2076    1.1046   -1.1040 C   0  0  0  0  0  0  0  0  0  0  0  0
   -1.4830    1.2001    2.3082 H   0  0  0  0  0  0  0  0  0  0  0  0
    0.2967    1.3079    2.7574 H   0  0  0  0  0  0  0  0  0  0  0  0
    2.3541    0.9389    1.9610 H   0  0  0  0  0  0  0  0  0  0  0  0
    7.8092   -0.2616   -0.8842 H   0  0  0  0  0  0  0  0  0  0  0  0
    9.4082   -2.8985    0.7271 H   0  0  0  0  0  0  0  0  0  0  0  0
    9.8982   -1.1946    0.9491 H   0  0  0  0  0  0  0  0  0  0  0  0
    9.3906   -1.7934   -0.6543 H   0  0  0  0  0  0  0  0  0  0  0  0
    4.3834    2.3731   -2.1748 H   0  0  0  0  0  0  0  0  0  0  0  0
    1.9140    0.0149   -1.8830 H   0  0  0  0  0  0  0  0  0  0  0  0
   -1.4808   -1.1141   -2.6551 H   0  0  0  0  0  0  0  0  0  0  0  0
   -1.3005    0.5476   -3.2707 H   0  0  0  0  0  0  0  0  0  0  0  0
    0.0049   -0.6218   -3.4675 H   0  0  0  0  0  0  0  0  0  0  0  0
   -2.4176   -1.1476    1.3056 H   0  0  0  0  0  0  0  0  0  0  0  0
   -4.8392   -1.3137    1.4365 H   0  0  0  0  0  0  0  0  0  0  0  0
   -7.0861    0.7161   -0.7935 H   0  0  0  0  0  0  0  0  0  0  0  0
   -9.2453    0.4962    0.8949 H   0  0  0  0  0  0  0  0  0  0  0  0
   -9.0812   -0.3301   -0.6828 H   0  0  0  0  0  0  0  0  0  0  0  0
   -9.4952   -1.2659    0.7621 H   0  0  0  0  0  0  0  0  0  0  0  0
   -5.1930    1.6310   -1.7075 H   0  0  0  0  0  0  0  0  0  0  0  0
   -2.7543    1.8022   -1.8038 H   0  0  0  0  0  0  0  0  0  0  0  0
  1  2  2  0
  2  3  1  0
  3  4  2  3
  4  5  1  0
  5  6  1  0
  6  7  1  0
  7  8  1  0
  8  9  1  0
  9 10  1  0
  9 11  2  0
  7 12  2  0
 12 13  1  0
 13 14  1  0
  3 15  1  0
 15 16  2  0
 16 17  1  0
 16 18  1  0
 18 19  1  0
 19 20  2  0
 20 21  1  0
 21 22  2  0
 22 23  1  0
 23 24  1  0
 24 25  1  0
 24 26  2  0
 22 27  1  0
 27 28  2  0
 18  2  1  0
 28 19  1  0
 13  5  2  0
  1 29  1  0
  1 30  1  0
  4 31  1  0
  8 32  1  0
 10 33  1  0
 10 34  1  0
 10 35  1  0
 14 36  1  0
 15 37  1  0
 17 38  1  0
 17 39  1  0
 17 40  1  0
 20 41  1  0
 21 42  1  0
 23 43  1  0
 25 44  1  0
 25 45  1  0
 25 46  1  0
 27 47  1  0
 28 48  1  0
M  END
$$$$
