
     RDKit          3D

 40 42  0  0  0  0  0  0  0  0999 V2000
   -1.3106   -0.9358   -3.3179 C   0  0  0  0  0  0  0  0  0  0  0  0
   -1.9875   -0.9070   -1.9472 C   0  0  0  0  0  0  0  0  0  0  0  0
   -3.0285   -2.0254   -1.8602 C   0  0  0  0  0  0  0  0  0  0  0  0
   -0.9749   -1.0502   -0.7966 C   0  0  0  0  0  0  0  0  0  0  0  0
   -0.0940    0.0891   -0.6375 N   0  0  0  0  0  0  0  0  0  0  0  0
    1.2257    0.1840   -0.9898 C   0  0  0  0  0  0  0  0  0  0  0  0
    2.1586   -1.0887   -1.6912 S   0  0  0  0  0  0  0  0  0  0  0  0
    3.4031   -1.2819   -0.3741 C   0  0  0  0  0  0  0  0  0  0  0  0
    2.7282   -1.5902    0.9572 C   0  0  0  0  0  0  0  0  0  0  0  0
    1.9902   -2.5780    1.0438 O   0  0  0  0  0  0  0  0  0  0  0  0
    2.9756   -0.6903    2.0834 C   0  0  0  0  0  0  0  0  0  0  0  0
    3.6363    0.5257    2.1492 C   0  0  0  0  0  0  0  0  0  0  0  0
    3.6350    1.0829    3.4650 C   0  0  0  0  0  0  0  0  0  0  0  0
    2.9719    0.2709    4.3440 C   0  0  0  0  0  0  0  0  0  0  0  0
    2.7290    0.5535    6.0193 Cl  0  0  0  0  0  0  0  0  0  0  0  0
    2.3546   -1.1277    3.6313 S   0  0  0  0  0  0  0  0  0  0  0  0
    1.7155    1.3415   -0.6191 N   0  0  0  0  0  0  0  0  0  0  0  0
    0.7036    2.0372   -0.0100 N   0  0  0  0  0  0  0  0  0  0  0  0
   -0.3787    1.2806   -0.0053 C   0  0  0  0  0  0  0  0  0  0  0  0
   -1.6216    1.6781    0.5855 C   0  0  0  0  0  0  0  0  0  0  0  0
   -1.9230    2.8867    1.1973 C   0  0  0  0  0  0  0  0  0  0  0  0
   -3.2706    2.8223    1.6296 C   0  0  0  0  0  0  0  0  0  0  0  0
   -3.7204    1.5753    1.2699 C   0  0  0  0  0  0  0  0  0  0  0  0
   -2.7393    0.8804    0.6400 O   0  0  0  0  0  0  0  0  0  0  0  0
   -0.7340   -1.8567   -3.4609 H   0  0  0  0  0  0  0  0  0  0  0  0
   -0.6317   -0.0844   -3.4438 H   0  0  0  0  0  0  0  0  0  0  0  0
   -2.0575   -0.8799   -4.1174 H   0  0  0  0  0  0  0  0  0  0  0  0
   -2.5165    0.0501   -1.8597 H   0  0  0  0  0  0  0  0  0  0  0  0
   -2.5625   -3.0147   -1.9526 H   0  0  0  0  0  0  0  0  0  0  0  0
   -3.5595   -1.9885   -0.9017 H   0  0  0  0  0  0  0  0  0  0  0  0
   -3.7735   -1.9249   -2.6558 H   0  0  0  0  0  0  0  0  0  0  0  0
   -1.4869   -1.1938    0.1610 H   0  0  0  0  0  0  0  0  0  0  0  0
   -0.3695   -1.9521   -0.9321 H   0  0  0  0  0  0  0  0  0  0  0  0
    4.0512   -2.1280   -0.6197 H   0  0  0  0  0  0  0  0  0  0  0  0
    4.0333   -0.3879   -0.3432 H   0  0  0  0  0  0  0  0  0  0  0  0
    4.0875    1.0310    1.3040 H   0  0  0  0  0  0  0  0  0  0  0  0
    4.0879    2.0290    3.7339 H   0  0  0  0  0  0  0  0  0  0  0  0
   -1.2396    3.7202    1.3051 H   0  0  0  0  0  0  0  0  0  0  0  0
   -3.8417    3.5887    2.1394 H   0  0  0  0  0  0  0  0  0  0  0  0
   -4.6654    1.0591    1.3792 H   0  0  0  0  0  0  0  0  0  0  0  0
  1  2  1  0
  2  3  1  0
  2  4  1  0
  4  5  1  0
  5  6  1  0
  6  7  1  0
  7  8  1  0
  8  9  1  0
  9 10  2  0
  9 11  1  0
 11 12  2  0
 12 13  1  0
 13 14  2  0
 14 15  1  0
 14 16  1  0
  6 17  2  0
 17 18  1  0
 18 19  2  0
 19 20  1  0
 20 21  2  0
 21 22  1  0
 22 23  2  0
 23 24  1  0
 19  5  1  0
 24 20  1  0
 16 11  1  0
  1 25  1  0
  1 26  1  0
  1 27  1  0
  2 28  1  0
  3 29  1  0
  3 30  1  0
  3 31  1  0
  4 32  1  0
  4 33  1  0
  8 34  1  0
  8 35  1  0
 12 36  1  0
 13 37  1  0
 21 38  1  0
 22 39  1  0
 23 40  1  0
M  END
$$$$
