
     RDKit          3D

 66 69  0  0  0  0  0  0  0  0999 V2000
    0.6632    7.4336   -3.8436 C   0  0  0  0  0  0  0  0  0  0  0  0
    0.4800    6.2731   -3.0306 O   0  0  0  0  0  0  0  0  0  0  0  0
   -0.1438    5.2500   -3.6687 C   0  0  0  0  0  0  0  0  0  0  0  0
   -0.5329    5.2585   -4.8275 O   0  0  0  0  0  0  0  0  0  0  0  0
   -0.2994    4.0785   -2.7639 C   0  0  0  0  0  0  0  0  0  0  0  0
   -0.9595    2.9465   -3.2574 C   0  0  0  0  0  0  0  0  0  0  0  0
   -1.1312    1.8178   -2.4517 C   0  0  0  0  0  0  0  0  0  0  0  0
   -0.6369    1.7935   -1.1386 C   0  0  0  0  0  0  0  0  0  0  0  0
   -0.8645    0.5587   -0.2819 C   0  0  0  0  0  0  0  0  0  0  0  0
   -2.1494    0.6886    0.5541 C   0  0  0  0  0  0  0  0  0  0  0  0
   -3.2175   -0.2193    0.0010 C   0  0  0  0  0  0  0  0  0  0  0  0
   -3.8020    0.0602   -1.0468 O   0  0  0  0  0  0  0  0  0  0  0  0
   -3.5670   -1.4924    0.6741 C   0  0  0  0  0  0  0  0  0  0  0  0
   -2.5939   -2.4408    0.9988 C   0  0  0  0  0  0  0  0  0  0  0  0
   -2.9740   -3.6212    1.6364 C   0  0  0  0  0  0  0  0  0  0  0  0
   -4.3193   -3.8589    1.9365 C   0  0  0  0  0  0  0  0  0  0  0  0
   -5.2964   -2.9239    1.5866 C   0  0  0  0  0  0  0  0  0  0  0  0
   -6.6384   -3.0402    1.8180 O   0  0  0  0  0  0  0  0  0  0  0  0
   -7.0751   -4.2013    2.5132 C   0  0  0  0  0  0  0  0  0  0  0  0
   -4.9158   -1.7443    0.9433 C   0  0  0  0  0  0  0  0  0  0  0  0
   -1.6850    0.4200    1.9468 C   0  0  0  0  0  0  0  0  0  0  0  0
   -2.3740    0.4050    2.9493 O   0  0  0  0  0  0  0  0  0  0  0  0
   -0.1912    0.1414    1.9433 C   0  0  0  0  0  0  0  0  0  0  0  0
    0.4494   -0.2059    2.9105 O   0  0  0  0  0  0  0  0  0  0  0  0
    0.2315    0.3027    0.6443 N   0  0  0  0  0  0  0  0  0  0  0  0
    1.5612   -0.1031    0.2019 C   0  0  0  0  0  0  0  0  0  0  0  0
    1.6660   -1.6134    0.0115 C   0  0  0  0  0  0  0  0  0  0  0  0
    2.9802   -2.0860   -0.6303 C   0  0  0  0  0  0  0  0  0  0  0  0
    4.2481   -1.9064    0.0766 N   0  0  0  0  0  0  0  0  0  0  0  0
    4.9162   -0.6197   -0.1759 C   0  0  0  0  0  0  0  0  0  0  0  0
    6.2979   -0.5724    0.4976 C   0  0  0  0  0  0  0  0  0  0  0  0
    6.1992   -0.8157    1.9075 O   0  0  0  0  0  0  0  0  0  0  0  0
    5.6027   -2.0988    2.1457 C   0  0  0  0  0  0  0  0  0  0  0  0
    4.2004   -2.1845    1.5215 C   0  0  0  0  0  0  0  0  0  0  0  0
    0.0118    2.9373   -0.6445 C   0  0  0  0  0  0  0  0  0  0  0  0
    0.1842    4.0681   -1.4503 C   0  0  0  0  0  0  0  0  0  0  0  0
    1.2804    7.1996   -4.7177 H   0  0  0  0  0  0  0  0  0  0  0  0
   -0.3061    7.8407   -4.1499 H   0  0  0  0  0  0  0  0  0  0  0  0
    1.1834    8.1876   -3.2449 H   0  0  0  0  0  0  0  0  0  0  0  0
   -1.3524    2.9396   -4.2729 H   0  0  0  0  0  0  0  0  0  0  0  0
   -1.6708    0.9633   -2.8605 H   0  0  0  0  0  0  0  0  0  0  0  0
   -0.9132   -0.3181   -0.9416 H   0  0  0  0  0  0  0  0  0  0  0  0
   -2.5475    1.7117    0.5542 H   0  0  0  0  0  0  0  0  0  0  0  0
   -1.5455   -2.2943    0.7594 H   0  0  0  0  0  0  0  0  0  0  0  0
   -2.2236   -4.3632    1.9037 H   0  0  0  0  0  0  0  0  0  0  0  0
   -4.5707   -4.7854    2.4420 H   0  0  0  0  0  0  0  0  0  0  0  0
   -6.6374   -4.2510    3.5153 H   0  0  0  0  0  0  0  0  0  0  0  0
   -8.1618   -4.1336    2.6262 H   0  0  0  0  0  0  0  0  0  0  0  0
   -6.8545   -5.1081    1.9405 H   0  0  0  0  0  0  0  0  0  0  0  0
   -5.6750   -1.0156    0.6648 H   0  0  0  0  0  0  0  0  0  0  0  0
    1.8053    0.4293   -0.7228 H   0  0  0  0  0  0  0  0  0  0  0  0
    2.2615    0.2218    0.9775 H   0  0  0  0  0  0  0  0  0  0  0  0
    0.8444   -1.9495   -0.6361 H   0  0  0  0  0  0  0  0  0  0  0  0
    1.5045   -2.1264    0.9691 H   0  0  0  0  0  0  0  0  0  0  0  0
    3.0559   -1.6664   -1.6428 H   0  0  0  0  0  0  0  0  0  0  0  0
    2.8724   -3.1672   -0.7891 H   0  0  0  0  0  0  0  0  0  0  0  0
    4.3154    0.2093    0.2086 H   0  0  0  0  0  0  0  0  0  0  0  0
    5.0491   -0.4671   -1.2534 H   0  0  0  0  0  0  0  0  0  0  0  0
    6.7418    0.4199    0.3661 H   0  0  0  0  0  0  0  0  0  0  0  0
    6.9810   -1.3048    0.0508 H   0  0  0  0  0  0  0  0  0  0  0  0
    6.2621   -2.8819    1.7514 H   0  0  0  0  0  0  0  0  0  0  0  0
    5.5354   -2.2352    3.2302 H   0  0  0  0  0  0  0  0  0  0  0  0
    3.5565   -1.4547    2.0243 H   0  0  0  0  0  0  0  0  0  0  0  0
    3.7917   -3.1845    1.7029 H   0  0  0  0  0  0  0  0  0  0  0  0
    0.3954    2.9654    0.3737 H   0  0  0  0  0  0  0  0  0  0  0  0
    0.6976    4.9337   -1.0359 H   0  0  0  0  0  0  0  0  0  0  0  0
  1  2  1  0
  2  3  1  0
  3  4  2  0
  3  5  1  0
  5  6  2  0
  6  7  1  0
  7  8  2  0
  8  9  1  0
  9 10  1  0
 10 11  1  0
 11 12  2  0
 11 13  1  0
 13 14  2  0
 14 15  1  0
 15 16  2  0
 16 17  1  0
 17 18  1  0
 18 19  1  0
 17 20  2  0
 10 21  1  0
 21 22  2  0
 21 23  1  0
 23 24  2  0
 23 25  1  0
 25 26  1  0
 26 27  1  0
 27 28  1  0
 28 29  1  0
 29 30  1  0
 30 31  1  0
 31 32  1  0
 32 33  1  0
 33 34  1  0
  8 35  1  0
 35 36  2  0
 36  5  1  0
 25  9  1  0
 34 29  1  0
 20 13  1  0
  1 37  1  0
  1 38  1  0
  1 39  1  0
  6 40  1  0
  7 41  1  0
  9 42  1  0
 10 43  1  0
 14 44  1  0
 15 45  1  0
 16 46  1  0
 19 47  1  0
 19 48  1  0
 19 49  1  0
 20 50  1  0
 26 51  1  0
 26 52  1  0
 27 53  1  0
 27 54  1  0
 28 55  1  0
 28 56  1  0
 30 57  1  0
 30 58  1  0
 31 59  1  0
 31 60  1  0
 33 61  1  0
 33 62  1  0
 34 63  1  0
 34 64  1  0
 35 65  1  0
 36 66  1  0
M  END
$$$$
