
     RDKit          3D

 46 48  0  0  0  0  0  0  0  0999 V2000
   -1.6806   -0.6065   -3.2220 N   0  0  0  0  0  0  0  0  0  0  0  0
   -0.4688   -0.4144   -2.6704 C   0  0  0  0  0  0  0  0  0  0  0  0
    0.6325   -0.6394   -3.3202 N   0  0  0  0  0  0  0  0  0  0  0  0
    1.7032   -0.2611   -2.3630 C   0  0  0  0  0  0  0  0  0  0  0  0
    1.0191    0.0583   -1.0161 C   0  0  0  0  0  0  0  0  0  0  0  0
    1.3310   -0.9853    0.0693 C   0  0  0  0  0  0  0  0  0  0  0  0
    2.7359   -0.8729    0.6152 C   0  0  0  0  0  0  0  0  0  0  0  0
    3.0715    0.1617    1.5005 C   0  0  0  0  0  0  0  0  0  0  0  0
    4.3704    0.2716    1.9997 C   0  0  0  0  0  0  0  0  0  0  0  0
    5.3351   -0.6510    1.6149 C   0  0  0  0  0  0  0  0  0  0  0  0
    6.5910   -0.5079    2.1273 O   0  0  0  0  0  0  0  0  0  0  0  0
    5.0227   -1.6859    0.7404 C   0  0  0  0  0  0  0  0  0  0  0  0
    3.7225   -1.7968    0.2423 C   0  0  0  0  0  0  0  0  0  0  0  0
   -0.4086   -0.0024   -1.3714 N   0  0  0  0  0  0  0  0  0  0  0  0
   -1.2600    1.0795   -0.8629 C   0  0  0  0  0  0  0  0  0  0  0  0
   -2.5819    0.5572   -0.2658 C   0  0  0  0  0  0  0  0  0  0  0  0
   -3.5219    1.7297    0.0954 C   0  0  0  0  0  0  0  0  0  0  0  0
   -3.4983    2.0665    1.5825 C   0  0  0  0  0  0  0  0  0  0  0  0
   -3.9251    0.8759    2.4395 C   0  0  0  0  0  0  0  0  0  0  0  0
   -3.5539   -0.4778    1.8308 C   0  0  0  0  0  0  0  0  0  0  0  0
   -2.3255   -0.3715    0.9380 C   0  0  0  0  0  0  0  0  0  0  0  0
   -2.2879   -1.1427   -2.6188 H   0  0  0  0  0  0  0  0  0  0  0  0
   -1.5764   -1.0663   -4.1200 H   0  0  0  0  0  0  0  0  0  0  0  0
    2.2189    0.6248   -2.7479 H   0  0  0  0  0  0  0  0  0  0  0  0
    2.4338   -1.0718   -2.2947 H   0  0  0  0  0  0  0  0  0  0  0  0
    1.3144    1.0645   -0.6887 H   0  0  0  0  0  0  0  0  0  0  0  0
    1.1539   -1.9989   -0.3138 H   0  0  0  0  0  0  0  0  0  0  0  0
    0.6366   -0.8707    0.9110 H   0  0  0  0  0  0  0  0  0  0  0  0
    2.3229    0.8850    1.8158 H   0  0  0  0  0  0  0  0  0  0  0  0
    4.6285    1.0720    2.6883 H   0  0  0  0  0  0  0  0  0  0  0  0
    7.1430   -1.2332    1.7938 H   0  0  0  0  0  0  0  0  0  0  0  0
    5.7702   -2.4114    0.4355 H   0  0  0  0  0  0  0  0  0  0  0  0
    3.4847   -2.6103   -0.4403 H   0  0  0  0  0  0  0  0  0  0  0  0
   -1.4604    1.7925   -1.6720 H   0  0  0  0  0  0  0  0  0  0  0  0
   -0.7314    1.6445   -0.0846 H   0  0  0  0  0  0  0  0  0  0  0  0
   -3.1049   -0.0278   -1.0296 H   0  0  0  0  0  0  0  0  0  0  0  0
   -3.2831    2.6223   -0.4940 H   0  0  0  0  0  0  0  0  0  0  0  0
   -4.5491    1.4524   -0.1793 H   0  0  0  0  0  0  0  0  0  0  0  0
   -2.4853    2.3803    1.8659 H   0  0  0  0  0  0  0  0  0  0  0  0
   -4.1578    2.9194    1.7860 H   0  0  0  0  0  0  0  0  0  0  0  0
   -5.0093    0.9035    2.6030 H   0  0  0  0  0  0  0  0  0  0  0  0
   -3.4669    0.9754    3.4297 H   0  0  0  0  0  0  0  0  0  0  0  0
   -4.3970   -0.8571    1.2408 H   0  0  0  0  0  0  0  0  0  0  0  0
   -3.3813   -1.2062    2.6310 H   0  0  0  0  0  0  0  0  0  0  0  0
   -1.4863    0.0009    1.5385 H   0  0  0  0  0  0  0  0  0  0  0  0
   -2.0403   -1.3687    0.5813 H   0  0  0  0  0  0  0  0  0  0  0  0
  1  2  1  0
  2  3  2  0
  3  4  1  0
  4  5  1  0
  5  6  1  0
  6  7  1  0
  7  8  2  0
  8  9  1  0
  9 10  2  0
 10 11  1  0
 10 12  1  0
 12 13  2  0
  5 14  1  0
 14 15  1  0
 15 16  1  0
 16 17  1  0
 17 18  1  0
 18 19  1  0
 19 20  1  0
 20 21  1  0
 14  2  1  0
 21 16  1  0
 13  7  1  0
  1 22  1  0
  1 23  1  0
  4 24  1  0
  4 25  1  0
  5 26  1  0
  6 27  1  0
  6 28  1  0
  8 29  1  0
  9 30  1  0
 11 31  1  0
 12 32  1  0
 13 33  1  0
 15 34  1  0
 15 35  1  0
 16 36  1  0
 17 37  1  0
 17 38  1  0
 18 39  1  0
 18 40  1  0
 19 41  1  0
 19 42  1  0
 20 43  1  0
 20 44  1  0
 21 45  1  0
 21 46  1  0
M  END
$$$$
