
     RDKit          3D

 54 57  0  0  0  0  0  0  0  0999 V2000
   -7.9959    0.3958    2.6330 C   0  0  0  0  0  0  0  0  0  0  0  0
   -7.0857   -0.6391    2.2820 O   0  0  0  0  0  0  0  0  0  0  0  0
   -5.8846   -0.2507    1.7575 C   0  0  0  0  0  0  0  0  0  0  0  0
   -5.4727    1.0582    1.5268 C   0  0  0  0  0  0  0  0  0  0  0  0
   -4.2061    1.3111    0.9829 C   0  0  0  0  0  0  0  0  0  0  0  0
   -3.3319    0.2600    0.6516 C   0  0  0  0  0  0  0  0  0  0  0  0
   -2.0509    0.5794    0.1003 N   0  0  0  0  0  0  0  0  0  0  0  0
   -1.6404    1.8831    0.1073 N   0  0  0  0  0  0  0  0  0  0  0  0
   -0.4011    1.8707   -0.3755 C   0  0  0  0  0  0  0  0  0  0  0  0
    0.0165    0.5863   -0.7377 C   0  0  0  0  0  0  0  0  0  0  0  0
   -1.0753   -0.2242   -0.4783 C   0  0  0  0  0  0  0  0  0  0  0  0
   -1.1405   -1.6778   -0.8151 C   0  0  0  0  0  0  0  0  0  0  0  0
   -0.0121   -2.0841   -1.8163 C   0  0  0  0  0  0  0  0  0  0  0  0
    0.1546   -3.6153   -1.7769 C   0  0  0  0  0  0  0  0  0  0  0  0
   -0.4010   -1.6858   -3.2549 C   0  0  0  0  0  0  0  0  0  0  0  0
    1.3383   -1.4226   -1.4117 C   0  0  0  0  0  0  0  0  0  0  0  0
    1.2858    0.1226   -1.3638 C   0  0  0  0  0  0  0  0  0  0  0  0
    2.3920    0.6487   -0.5974 N   0  0  0  0  0  0  0  0  0  0  0  0
    3.6608    0.7684   -1.1197 C   0  0  0  0  0  0  0  0  0  0  0  0
    3.9445    0.5470   -2.2907 O   0  0  0  0  0  0  0  0  0  0  0  0
    4.6945    1.1892   -0.1337 C   0  0  0  0  0  0  0  0  0  0  0  0
    6.0043    1.3870   -0.5385 C   0  0  0  0  0  0  0  0  0  0  0  0
    6.9773    1.7708    0.3277 N   0  0  0  0  0  0  0  0  0  0  0  0
    6.5885    1.9495    1.6158 C   0  0  0  0  0  0  0  0  0  0  0  0
    7.6236    2.3789    2.6075 C   0  0  0  0  0  0  0  0  0  0  0  0
    5.2674    1.7472    2.0113 C   0  0  0  0  0  0  0  0  0  0  0  0
    4.2886    1.3621    1.1575 N   0  0  0  0  0  0  0  0  0  0  0  0
   -3.7481   -1.0497    0.9005 C   0  0  0  0  0  0  0  0  0  0  0  0
   -5.0165   -1.2970    1.4438 C   0  0  0  0  0  0  0  0  0  0  0  0
   -7.5769    1.0446    3.4095 H   0  0  0  0  0  0  0  0  0  0  0  0
   -8.8951   -0.0746    3.0423 H   0  0  0  0  0  0  0  0  0  0  0  0
   -8.2937    0.9739    1.7516 H   0  0  0  0  0  0  0  0  0  0  0  0
   -6.1043    1.9090    1.7575 H   0  0  0  0  0  0  0  0  0  0  0  0
   -3.9184    2.3483    0.8146 H   0  0  0  0  0  0  0  0  0  0  0  0
    0.1423    2.8042   -0.4531 H   0  0  0  0  0  0  0  0  0  0  0  0
   -2.1126   -1.9353   -1.2500 H   0  0  0  0  0  0  0  0  0  0  0  0
   -1.0146   -2.2471    0.1143 H   0  0  0  0  0  0  0  0  0  0  0  0
   -0.7816   -4.1214   -2.0383 H   0  0  0  0  0  0  0  0  0  0  0  0
    0.9239   -3.9478   -2.4828 H   0  0  0  0  0  0  0  0  0  0  0  0
    0.4500   -3.9571   -0.7784 H   0  0  0  0  0  0  0  0  0  0  0  0
    0.3951   -1.9460   -3.9616 H   0  0  0  0  0  0  0  0  0  0  0  0
   -0.5936   -0.6130   -3.3534 H   0  0  0  0  0  0  0  0  0  0  0  0
   -1.3103   -2.2084   -3.5738 H   0  0  0  0  0  0  0  0  0  0  0  0
    1.6278   -1.8037   -0.4210 H   0  0  0  0  0  0  0  0  0  0  0  0
    2.1379   -1.7367   -2.0957 H   0  0  0  0  0  0  0  0  0  0  0  0
    1.3504    0.5185   -2.3848 H   0  0  0  0  0  0  0  0  0  0  0  0
    2.3060    0.7531    0.4109 H   0  0  0  0  0  0  0  0  0  0  0  0
    6.3134    1.2458   -1.5689 H   0  0  0  0  0  0  0  0  0  0  0  0
    8.6061    2.4605    2.1327 H   0  0  0  0  0  0  0  0  0  0  0  0
    7.3645    3.3558    3.0262 H   0  0  0  0  0  0  0  0  0  0  0  0
    7.6986    1.6474    3.4178 H   0  0  0  0  0  0  0  0  0  0  0  0
    4.9573    1.8933    3.0412 H   0  0  0  0  0  0  0  0  0  0  0  0
   -3.1193   -1.9110    0.7247 H   0  0  0  0  0  0  0  0  0  0  0  0
   -5.3267   -2.3222    1.6344 H   0  0  0  0  0  0  0  0  0  0  0  0
  1  2  1  0
  2  3  1  0
  3  4  2  0
  4  5  1  0
  5  6  2  0
  6  7  1  0
  7  8  1  0
  8  9  2  0
  9 10  1  0
 10 11  2  0
 11 12  1  0
 12 13  1  0
 13 14  1  0
 13 15  1  0
 13 16  1  0
 16 17  1  0
 17 18  1  0
 18 19  1  0
 19 20  2  0
 19 21  1  0
 21 22  2  0
 22 23  1  0
 23 24  2  0
 24 25  1  0
 24 26  1  0
 26 27  2  0
  6 28  1  0
 28 29  2  0
 29  3  1  0
 11  7  1  0
 27 21  1  0
 17 10  1  0
  1 30  1  0
  1 31  1  0
  1 32  1  0
  4 33  1  0
  5 34  1  0
  9 35  1  0
 12 36  1  0
 12 37  1  0
 14 38  1  0
 14 39  1  0
 14 40  1  0
 15 41  1  0
 15 42  1  0
 15 43  1  0
 16 44  1  0
 16 45  1  0
 17 46  1  0
 18 47  1  0
 22 48  1  0
 25 49  1  0
 25 50  1  0
 25 51  1  0
 26 52  1  0
 28 53  1  0
 29 54  1  0
M  END
$$$$
