
     RDKit          3D

 58 62  0  0  0  0  0  0  0  0999 V2000
   -4.6698   -3.3632   -0.5063 C   0  0  0  0  0  0  0  0  0  0  0  0
   -3.8476   -2.0829   -0.6441 C   0  0  0  0  0  0  0  0  0  0  0  0
   -4.0444   -1.4137   -2.0249 C   0  0  0  0  0  0  0  0  0  0  0  0
   -4.9727   -0.2845   -1.7116 C   0  0  0  0  0  0  0  0  0  0  0  0
   -5.6204    0.5563   -2.6023 C   0  0  0  0  0  0  0  0  0  0  0  0
   -6.4240    1.5751   -2.0855 C   0  0  0  0  0  0  0  0  0  0  0  0
   -6.5686    1.7380   -0.6988 C   0  0  0  0  0  0  0  0  0  0  0  0
   -5.9036    0.8892    0.1891 C   0  0  0  0  0  0  0  0  0  0  0  0
   -5.0947   -0.1017   -0.3368 C   0  0  0  0  0  0  0  0  0  0  0  0
   -4.3497   -1.0931    0.3744 N   0  0  0  0  0  0  0  0  0  0  0  0
   -3.2434   -0.5647    1.5549 S   0  0  0  0  0  6  0  0  0  0  0  0
   -3.9061    0.3261    2.4862 O   0  0  0  0  0  0  0  0  0  0  0  0
   -2.5213   -1.7228    2.0442 O   0  0  0  0  0  0  0  0  0  0  0  0
   -2.0805    0.4202    0.6260 C   0  0  0  0  0  0  0  0  0  0  0  0
   -2.3022    1.7944    0.4716 C   0  0  0  0  0  0  0  0  0  0  0  0
   -1.3994    2.5654   -0.2634 C   0  0  0  0  0  0  0  0  0  0  0  0
   -0.2710    1.9683   -0.8265 C   0  0  0  0  0  0  0  0  0  0  0  0
   -0.0363    0.6028   -0.6261 C   0  0  0  0  0  0  0  0  0  0  0  0
    1.1278   -0.0528   -1.2500 C   0  0  0  0  0  0  0  0  0  0  0  0
    0.8922   -0.8779   -2.1293 O   0  0  0  0  0  0  0  0  0  0  0  0
    2.4012    0.2811   -0.8139 N   0  0  0  0  0  0  0  0  0  0  0  0
    3.5532   -0.1632   -1.6039 C   0  0  0  0  0  0  0  0  0  0  0  0
    4.7366   -0.6135   -0.7318 C   0  0  0  0  0  0  0  0  0  0  0  0
    5.0524    0.4048    0.2843 N   0  0  0  0  0  0  0  0  0  0  0  0
    6.2033    0.1136    1.0248 C   0  0  0  0  0  0  0  0  0  0  0  0
    6.3523    0.6695    2.2409 N   0  0  0  0  0  0  0  0  0  0  0  0
    7.4801    0.3986    2.9253 C   0  0  0  0  0  0  0  0  0  0  0  0
    8.4794   -0.4079    2.4496 C   0  0  0  0  0  0  0  0  0  0  0  0
    8.2527   -0.9306    1.2044 C   0  0  0  0  0  0  0  0  0  0  0  0
    7.1407   -0.6861    0.4856 N   0  0  0  0  0  0  0  0  0  0  0  0
    3.9093    0.8099    1.1163 C   0  0  0  0  0  0  0  0  0  0  0  0
    2.7187    1.2512    0.2438 C   0  0  0  0  0  0  0  0  0  0  0  0
   -0.9363   -0.1806    0.0972 C   0  0  0  0  0  0  0  0  0  0  0  0
   -5.7395   -3.1762   -0.6527 H   0  0  0  0  0  0  0  0  0  0  0  0
   -4.5444   -3.7955    0.4923 H   0  0  0  0  0  0  0  0  0  0  0  0
   -4.3507   -4.1086   -1.2420 H   0  0  0  0  0  0  0  0  0  0  0  0
   -2.7935   -2.3391   -0.5033 H   0  0  0  0  0  0  0  0  0  0  0  0
   -4.4597   -2.0985   -2.7702 H   0  0  0  0  0  0  0  0  0  0  0  0
   -3.0943   -1.0094   -2.3913 H   0  0  0  0  0  0  0  0  0  0  0  0
   -5.5107    0.4302   -3.6749 H   0  0  0  0  0  0  0  0  0  0  0  0
   -6.9492    2.2450   -2.7629 H   0  0  0  0  0  0  0  0  0  0  0  0
   -7.2106    2.5261   -0.3121 H   0  0  0  0  0  0  0  0  0  0  0  0
   -6.0369    1.0027    1.2599 H   0  0  0  0  0  0  0  0  0  0  0  0
   -3.1806    2.2668    0.9076 H   0  0  0  0  0  0  0  0  0  0  0  0
   -1.5826    3.6282   -0.4051 H   0  0  0  0  0  0  0  0  0  0  0  0
    0.4178    2.5620   -1.4228 H   0  0  0  0  0  0  0  0  0  0  0  0
    3.2721   -0.9728   -2.2851 H   0  0  0  0  0  0  0  0  0  0  0  0
    3.8534    0.6920   -2.2222 H   0  0  0  0  0  0  0  0  0  0  0  0
    5.5864   -0.7901   -1.4024 H   0  0  0  0  0  0  0  0  0  0  0  0
    4.4819   -1.5619   -0.2403 H   0  0  0  0  0  0  0  0  0  0  0  0
    7.5530    0.8706    3.9003 H   0  0  0  0  0  0  0  0  0  0  0  0
    9.3776   -0.6141    3.0120 H   0  0  0  0  0  0  0  0  0  0  0  0
    8.9778   -1.5816    0.7258 H   0  0  0  0  0  0  0  0  0  0  0  0
    4.1636    1.6546    1.7684 H   0  0  0  0  0  0  0  0  0  0  0  0
    3.5958   -0.0309    1.7495 H   0  0  0  0  0  0  0  0  0  0  0  0
    1.8553    1.4204    0.8924 H   0  0  0  0  0  0  0  0  0  0  0  0
    2.9541    2.1975   -0.2580 H   0  0  0  0  0  0  0  0  0  0  0  0
   -0.7436   -1.2425    0.2311 H   0  0  0  0  0  0  0  0  0  0  0  0
  1  2  1  0
  2  3  1  0
  3  4  1  0
  4  5  2  0
  5  6  1  0
  6  7  2  0
  7  8  1  0
  8  9  2  0
  9 10  1  0
 10 11  1  0
 11 12  2  0
 11 13  2  0
 11 14  1  0
 14 15  2  0
 15 16  1  0
 16 17  2  0
 17 18  1  0
 18 19  1  0
 19 20  2  0
 19 21  1  0
 21 22  1  0
 22 23  1  0
 23 24  1  0
 24 25  1  0
 25 26  2  0
 26 27  1  0
 27 28  2  0
 28 29  1  0
 29 30  2  0
 24 31  1  0
 31 32  1  0
 18 33  2  0
 10  2  1  0
 33 14  1  0
  9  4  1  0
 32 21  1  0
 30 25  1  0
  1 34  1  0
  1 35  1  0
  1 36  1  0
  2 37  1  0
  3 38  1  0
  3 39  1  0
  5 40  1  0
  6 41  1  0
  7 42  1  0
  8 43  1  0
 15 44  1  0
 16 45  1  0
 17 46  1  0
 22 47  1  0
 22 48  1  0
 23 49  1  0
 23 50  1  0
 27 51  1  0
 28 52  1  0
 29 53  1  0
 31 54  1  0
 31 55  1  0
 32 56  1  0
 32 57  1  0
 33 58  1  0
M  END
$$$$
