
     RDKit          3D

 53 56  0  0  0  0  0  0  0  0999 V2000
   -5.7353    2.5459    0.0245 C   0  0  0  0  0  0  0  0  0  0  0  0
   -5.7529    1.0816    0.5141 C   0  0  0  0  0  0  0  0  0  0  0  0
   -6.4192    1.0751    1.9086 C   0  0  0  0  0  0  0  0  0  0  0  0
   -6.6476    0.2430   -0.4239 C   0  0  0  0  0  0  0  0  0  0  0  0
   -4.3226    0.5157    0.5060 C   0  0  0  0  0  0  0  0  0  0  0  0
   -3.5850    0.4680   -0.6908 C   0  0  0  0  0  0  0  0  0  0  0  0
   -2.2774   -0.0401   -0.7399 C   0  0  0  0  0  0  0  0  0  0  0  0
   -1.6589   -0.5153    0.4157 C   0  0  0  0  0  0  0  0  0  0  0  0
   -0.3295   -1.0435    0.4321 N   0  0  0  0  0  0  0  0  0  0  0  0
    0.1149   -1.6694    1.5643 N   0  0  0  0  0  0  0  0  0  0  0  0
    1.3296   -2.1254    1.2710 C   0  0  0  0  0  0  0  0  0  0  0  0
    1.7317   -1.7691   -0.0182 C   0  0  0  0  0  0  0  0  0  0  0  0
    0.6676   -1.0505   -0.5371 C   0  0  0  0  0  0  0  0  0  0  0  0
    0.6634   -0.4333   -1.8940 C   0  0  0  0  0  0  0  0  0  0  0  0
    2.0848   -0.4118   -2.4915 C   0  0  0  0  0  0  0  0  0  0  0  0
    2.8484   -1.7266   -2.2434 C   0  0  0  0  0  0  0  0  0  0  0  0
    3.0116   -2.0257   -0.7354 C   0  0  0  0  0  0  0  0  0  0  0  0
    4.0148   -1.1727   -0.1366 N   0  0  0  0  0  0  0  0  0  0  0  0
    5.3645   -1.4138   -0.2586 C   0  0  0  0  0  0  0  0  0  0  0  0
    5.8386   -2.4029   -0.8040 O   0  0  0  0  0  0  0  0  0  0  0  0
    6.2340   -0.3557    0.3262 C   0  0  0  0  0  0  0  0  0  0  0  0
    7.6132   -0.4956    0.3042 C   0  0  0  0  0  0  0  0  0  0  0  0
    8.4425    0.4459    0.8241 N   0  0  0  0  0  0  0  0  0  0  0  0
    7.8280    1.5247    1.3636 C   0  0  0  0  0  0  0  0  0  0  0  0
    6.4479    1.6645    1.3838 C   0  0  0  0  0  0  0  0  0  0  0  0
    5.6121    0.7341    0.8662 N   0  0  0  0  0  0  0  0  0  0  0  0
   -2.3901   -0.4881    1.6131 C   0  0  0  0  0  0  0  0  0  0  0  0
   -3.6954    0.0215    1.6569 C   0  0  0  0  0  0  0  0  0  0  0  0
   -6.7394    2.9851    0.0548 H   0  0  0  0  0  0  0  0  0  0  0  0
   -5.0819    3.1637    0.6520 H   0  0  0  0  0  0  0  0  0  0  0  0
   -5.3791    2.6339   -1.0077 H   0  0  0  0  0  0  0  0  0  0  0  0
   -7.4330    1.4908    1.8640 H   0  0  0  0  0  0  0  0  0  0  0  0
   -6.5061    0.0587    2.3099 H   0  0  0  0  0  0  0  0  0  0  0  0
   -5.8545    1.6794    2.6282 H   0  0  0  0  0  0  0  0  0  0  0  0
   -6.6591   -0.8105   -0.1203 H   0  0  0  0  0  0  0  0  0  0  0  0
   -7.6823    0.6052   -0.4113 H   0  0  0  0  0  0  0  0  0  0  0  0
   -6.3076    0.2813   -1.4646 H   0  0  0  0  0  0  0  0  0  0  0  0
   -4.0258    0.8235   -1.6205 H   0  0  0  0  0  0  0  0  0  0  0  0
   -1.8062   -0.0672   -1.7122 H   0  0  0  0  0  0  0  0  0  0  0  0
    1.8770   -2.6832    2.0204 H   0  0  0  0  0  0  0  0  0  0  0  0
    0.0183   -1.0232   -2.5555 H   0  0  0  0  0  0  0  0  0  0  0  0
    0.2917    0.5958   -1.8611 H   0  0  0  0  0  0  0  0  0  0  0  0
    2.6507    0.4212   -2.0548 H   0  0  0  0  0  0  0  0  0  0  0  0
    2.0205   -0.2171   -3.5683 H   0  0  0  0  0  0  0  0  0  0  0  0
    2.2893   -2.5458   -2.7145 H   0  0  0  0  0  0  0  0  0  0  0  0
    3.8259   -1.6813   -2.7374 H   0  0  0  0  0  0  0  0  0  0  0  0
    3.3225   -3.0694   -0.6085 H   0  0  0  0  0  0  0  0  0  0  0  0
    3.7451   -0.2792    0.2683 H   0  0  0  0  0  0  0  0  0  0  0  0
    8.0939   -1.3658   -0.1300 H   0  0  0  0  0  0  0  0  0  0  0  0
    8.4808    2.2820    1.7840 H   0  0  0  0  0  0  0  0  0  0  0  0
    5.9768    2.5378    1.8220 H   0  0  0  0  0  0  0  0  0  0  0  0
   -1.9545   -0.8571    2.5411 H   0  0  0  0  0  0  0  0  0  0  0  0
   -4.1968    0.0149    2.6209 H   0  0  0  0  0  0  0  0  0  0  0  0
  1  2  1  0
  2  3  1  0
  2  4  1  0
  2  5  1  0
  5  6  2  0
  6  7  1  0
  7  8  2  0
  8  9  1  0
  9 10  1  0
 10 11  2  0
 11 12  1  0
 12 13  2  0
 13 14  1  0
 14 15  1  0
 15 16  1  0
 16 17  1  0
 17 18  1  0
 18 19  1  0
 19 20  2  0
 19 21  1  0
 21 22  2  0
 22 23  1  0
 23 24  2  0
 24 25  1  0
 25 26  2  0
  8 27  1  0
 27 28  2  0
 28  5  1  0
 13  9  1  0
 26 21  1  0
 17 12  1  0
  1 29  1  0
  1 30  1  0
  1 31  1  0
  3 32  1  0
  3 33  1  0
  3 34  1  0
  4 35  1  0
  4 36  1  0
  4 37  1  0
  6 38  1  0
  7 39  1  0
 11 40  1  0
 14 41  1  0
 14 42  1  0
 15 43  1  0
 15 44  1  0
 16 45  1  0
 16 46  1  0
 17 47  1  0
 18 48  1  0
 22 49  1  0
 24 50  1  0
 25 51  1  0
 27 52  1  0
 28 53  1  0
M  END
$$$$
