
     RDKit          3D

 50 51  0  0  0  0  0  0  0  0999 V2000
    6.3279   -0.4810   -1.0826 C   0  0  0  0  0  0  0  0  0  0  0  0
    5.3858    0.1000   -0.0696 C   0  0  0  0  0  0  0  0  0  0  0  0
    5.4942    1.4436    0.3090 C   0  0  0  0  0  0  0  0  0  0  0  0
    4.6392    1.9783    1.2759 C   0  0  0  0  0  0  0  0  0  0  0  0
    3.6680    1.1731    1.8805 C   0  0  0  0  0  0  0  0  0  0  0  0
    2.7729    1.7288    2.8946 C   0  0  0  0  0  0  0  0  0  0  0  0
    3.0719    1.7019    4.1995 C   0  0  0  0  0  0  0  0  0  0  0  0
    1.8149    2.4009    5.1617 S   0  0  0  0  0  0  0  0  0  0  0  0
    0.8228    2.7231    3.7221 C   0  0  0  0  0  0  0  0  0  0  0  0
   -0.6878    3.4182    3.8023 S   0  0  0  0  0  0  0  0  0  0  0  0
    1.5437    2.3104    2.5978 N   0  0  0  0  0  0  0  0  0  0  0  0
    1.0187    2.3648    1.2266 C   0  0  0  0  0  0  0  0  0  0  0  0
    0.4057    1.0376    0.7991 C   0  0  0  0  0  0  0  0  0  0  0  0
    0.0410    0.1401    1.5484 O   0  0  0  0  0  0  0  0  0  0  0  0
    0.3090    0.9960   -0.5627 O   0  0  0  0  0  0  0  0  0  0  0  0
   -0.3967   -0.1413   -1.0557 C   0  0  0  0  0  0  0  0  0  0  0  0
   -1.9103   -0.0079   -0.8710 C   0  0  0  0  0  0  0  0  0  0  0  0
   -2.4630    1.0771   -0.7095 O   0  0  0  0  0  0  0  0  0  0  0  0
   -2.5898   -1.2090   -0.9194 N   0  0  0  0  0  0  0  0  0  0  0  0
   -4.0466   -1.2780   -0.8302 C   0  0  0  0  0  0  0  0  0  0  0  0
   -4.4531   -2.6171   -0.2148 C   0  0  0  0  0  0  0  0  0  0  0  0
   -4.6974   -0.9825   -2.2072 C   0  0  0  0  0  0  0  0  0  0  0  0
   -6.2097   -0.7749   -2.0860 C   0  0  0  0  0  0  0  0  0  0  0  0
   -4.4029   -2.0542   -3.2610 C   0  0  0  0  0  0  0  0  0  0  0  0
    3.5733   -0.1760    1.5209 C   0  0  0  0  0  0  0  0  0  0  0  0
    4.4284   -0.7091    0.5536 C   0  0  0  0  0  0  0  0  0  0  0  0
    7.2248   -0.8617   -0.5846 H   0  0  0  0  0  0  0  0  0  0  0  0
    5.8533   -1.3006   -1.6323 H   0  0  0  0  0  0  0  0  0  0  0  0
    6.6241    0.2742   -1.8182 H   0  0  0  0  0  0  0  0  0  0  0  0
    6.2481    2.0832   -0.1458 H   0  0  0  0  0  0  0  0  0  0  0  0
    4.7376    3.0256    1.5535 H   0  0  0  0  0  0  0  0  0  0  0  0
    3.9732    1.2891    4.6325 H   0  0  0  0  0  0  0  0  0  0  0  0
    0.2477    3.1350    1.1392 H   0  0  0  0  0  0  0  0  0  0  0  0
    1.8333    2.6328    0.5460 H   0  0  0  0  0  0  0  0  0  0  0  0
   -0.2024   -0.2054   -2.1315 H   0  0  0  0  0  0  0  0  0  0  0  0
   -0.0225   -1.0644   -0.5977 H   0  0  0  0  0  0  0  0  0  0  0  0
   -2.0846   -2.0523   -1.1587 H   0  0  0  0  0  0  0  0  0  0  0  0
   -4.3592   -0.4875   -0.1353 H   0  0  0  0  0  0  0  0  0  0  0  0
   -3.9970   -2.7331    0.7752 H   0  0  0  0  0  0  0  0  0  0  0  0
   -5.5368   -2.6911   -0.0881 H   0  0  0  0  0  0  0  0  0  0  0  0
   -4.1152   -3.4636   -0.8216 H   0  0  0  0  0  0  0  0  0  0  0  0
   -4.2768   -0.0398   -2.5828 H   0  0  0  0  0  0  0  0  0  0  0  0
   -6.4399   -0.0092   -1.3381 H   0  0  0  0  0  0  0  0  0  0  0  0
   -6.6285   -0.4412   -3.0416 H   0  0  0  0  0  0  0  0  0  0  0  0
   -6.7270   -1.6971   -1.8035 H   0  0  0  0  0  0  0  0  0  0  0  0
   -3.3261   -2.2111   -3.3789 H   0  0  0  0  0  0  0  0  0  0  0  0
   -4.8637   -3.0136   -3.0049 H   0  0  0  0  0  0  0  0  0  0  0  0
   -4.7991   -1.7496   -4.2361 H   0  0  0  0  0  0  0  0  0  0  0  0
    2.8326   -0.8199    1.9926 H   0  0  0  0  0  0  0  0  0  0  0  0
    4.3440   -1.7618    0.2923 H   0  0  0  0  0  0  0  0  0  0  0  0
  1  2  1  0
  2  3  2  0
  3  4  1  0
  4  5  2  0
  5  6  1  0
  6  7  2  0
  7  8  1  0
  8  9  1  0
  9 10  2  0
  9 11  1  0
 11 12  1  0
 12 13  1  0
 13 14  2  0
 13 15  1  0
 15 16  1  0
 16 17  1  0
 17 18  2  0
 17 19  1  0
 19 20  1  0
 20 21  1  0
 20 22  1  0
 22 23  1  0
 22 24  1  0
  5 25  1  0
 25 26  2  0
 26  2  1  0
 11  6  1  0
  1 27  1  0
  1 28  1  0
  1 29  1  0
  3 30  1  0
  4 31  1  0
  7 32  1  0
 12 33  1  0
 12 34  1  0
 16 35  1  0
 16 36  1  0
 19 37  1  0
 20 38  1  0
 21 39  1  0
 21 40  1  0
 21 41  1  0
 22 42  1  0
 23 43  1  0
 23 44  1  0
 23 45  1  0
 24 46  1  0
 24 47  1  0
 24 48  1  0
 25 49  1  0
 26 50  1  0
M  END
$$$$
