
     RDKit          3D

 74 78  0  0  0  0  0  0  0  0999 V2000
    1.0964    6.9474    0.4230 C   0  0  0  0  0  0  0  0  0  0  0  0
    0.8503    5.4795    0.2327 C   0  0  0  0  0  0  0  0  0  0  0  0
    1.7254    4.5427    0.7889 C   0  0  0  0  0  0  0  0  0  0  0  0
    1.5065    3.1612    0.6473 C   0  0  0  0  0  0  0  0  0  0  0  0
    2.5310    2.2442    1.2644 C   0  0  0  0  0  0  0  0  0  0  0  0
    0.3713    2.7195   -0.0664 C   0  0  0  0  0  0  0  0  0  0  0  0
    0.1306    1.3311   -0.2584 N   0  0  0  0  0  0  0  0  0  0  0  0
   -0.3146    0.5009    0.7718 C   0  0  0  0  0  0  0  0  0  0  0  0
   -0.3464   -0.7289    0.6655 O   0  0  0  0  0  0  0  0  0  0  0  0
   -0.8433    1.1889    2.0404 C   0  0  0  0  0  0  0  0  0  0  0  0
   -1.1078    0.1989    3.0918 N   0  0  0  0  0  0  0  0  0  0  0  0
   -2.1530   -0.7532    3.0273 C   0  0  0  0  0  0  0  0  0  0  0  0
   -3.1880   -0.6275    2.4001 O   0  0  0  0  0  0  0  0  0  0  0  0
   -1.7950   -1.9244    3.8481 C   0  0  0  0  0  0  0  0  0  0  0  0
   -2.5671   -3.0595    4.0400 C   0  0  0  0  0  0  0  0  0  0  0  0
   -2.0487   -4.0784    4.8467 C   0  0  0  0  0  0  0  0  0  0  0  0
   -0.7786   -3.9521    5.4420 C   0  0  0  0  0  0  0  0  0  0  0  0
   -0.0072   -2.8051    5.2423 C   0  0  0  0  0  0  0  0  0  0  0  0
   -0.5451   -1.8138    4.4422 C   0  0  0  0  0  0  0  0  0  0  0  0
    0.1942   -0.2943    4.0355 S   0  0  0  0  0  6  0  0  0  0  0  0
    0.2354    0.5242    5.2247 O   0  0  0  0  0  0  0  0  0  0  0  0
    1.3546   -0.5373    3.2140 O   0  0  0  0  0  0  0  0  0  0  0  0
    0.5438    0.7616   -1.5625 C   0  0  0  0  0  0  0  0  0  0  0  0
   -0.5959   -0.0306   -2.2719 C   0  0  0  0  0  0  0  0  0  0  0  0
   -1.7783    0.0544   -1.9334 O   0  0  0  0  0  0  0  0  0  0  0  0
   -0.2157   -0.7192   -3.4193 N   0  0  0  0  0  0  0  0  0  0  0  0
   -1.1335   -1.6516   -4.0537 C   0  0  0  0  0  0  0  0  0  0  0  0
   -0.8701   -3.1118   -3.6283 C   0  0  0  0  0  0  0  0  0  0  0  0
   -2.0236   -4.0378   -3.9694 C   0  0  0  0  0  0  0  0  0  0  0  0
   -2.9426   -3.8626   -2.7829 C   0  0  0  0  0  0  0  0  0  0  0  0
   -1.9809   -3.6142   -1.6359 C   0  0  0  0  0  0  0  0  0  0  0  0
   -0.7248   -3.2155   -2.2025 O   0  0  0  0  0  0  0  0  0  0  0  0
    1.9063    0.0645   -1.5247 C   0  0  0  0  0  0  0  0  0  0  0  0
    2.0504   -1.2749   -1.1253 C   0  0  0  0  0  0  0  0  0  0  0  0
    3.3068   -1.8835   -1.1050 C   0  0  0  0  0  0  0  0  0  0  0  0
    4.4275   -1.1566   -1.4820 C   0  0  0  0  0  0  0  0  0  0  0  0
    5.6322   -1.7415   -1.4655 F   0  0  0  0  0  0  0  0  0  0  0  0
    4.3166    0.1701   -1.8763 C   0  0  0  0  0  0  0  0  0  0  0  0
    3.0608    0.7803   -1.8980 C   0  0  0  0  0  0  0  0  0  0  0  0
   -0.5374    3.6559   -0.6049 C   0  0  0  0  0  0  0  0  0  0  0  0
   -1.7826    3.2381   -1.3413 C   0  0  0  0  0  0  0  0  0  0  0  0
   -0.2806    5.0279   -0.4519 C   0  0  0  0  0  0  0  0  0  0  0  0
    0.5659    7.5383   -0.3309 H   0  0  0  0  0  0  0  0  0  0  0  0
    0.7547    7.2585    1.4153 H   0  0  0  0  0  0  0  0  0  0  0  0
    2.1631    7.1750    0.3246 H   0  0  0  0  0  0  0  0  0  0  0  0
    2.5991    4.8908    1.3398 H   0  0  0  0  0  0  0  0  0  0  0  0
    2.6220    2.4563    2.3350 H   0  0  0  0  0  0  0  0  0  0  0  0
    3.5046    2.4023    0.7875 H   0  0  0  0  0  0  0  0  0  0  0  0
    2.2819    1.1871    1.1673 H   0  0  0  0  0  0  0  0  0  0  0  0
   -1.7745    1.7118    1.7958 H   0  0  0  0  0  0  0  0  0  0  0  0
   -0.1360    1.9264    2.4256 H   0  0  0  0  0  0  0  0  0  0  0  0
   -3.5433   -3.1557    3.5721 H   0  0  0  0  0  0  0  0  0  0  0  0
   -2.6313   -4.9824    5.0137 H   0  0  0  0  0  0  0  0  0  0  0  0
   -0.3950   -4.7602    6.0622 H   0  0  0  0  0  0  0  0  0  0  0  0
    0.9743   -2.6983    5.6944 H   0  0  0  0  0  0  0  0  0  0  0  0
    0.6679    1.6158   -2.2475 H   0  0  0  0  0  0  0  0  0  0  0  0
    0.7721   -0.8946   -3.5534 H   0  0  0  0  0  0  0  0  0  0  0  0
   -1.0003   -1.5559   -5.1363 H   0  0  0  0  0  0  0  0  0  0  0  0
   -2.1600   -1.3522   -3.8225 H   0  0  0  0  0  0  0  0  0  0  0  0
    0.0647   -3.4530   -4.0857 H   0  0  0  0  0  0  0  0  0  0  0  0
   -1.6674   -5.0750   -3.9959 H   0  0  0  0  0  0  0  0  0  0  0  0
   -2.5010   -3.8156   -4.9286 H   0  0  0  0  0  0  0  0  0  0  0  0
   -3.5876   -2.9880   -2.9253 H   0  0  0  0  0  0  0  0  0  0  0  0
   -3.5927   -4.7246   -2.6083 H   0  0  0  0  0  0  0  0  0  0  0  0
   -1.8111   -4.5265   -1.0543 H   0  0  0  0  0  0  0  0  0  0  0  0
   -2.3406   -2.8337   -0.9583 H   0  0  0  0  0  0  0  0  0  0  0  0
    1.1839   -1.8635   -0.8237 H   0  0  0  0  0  0  0  0  0  0  0  0
    3.4110   -2.9175   -0.7919 H   0  0  0  0  0  0  0  0  0  0  0  0
    5.2075    0.7218   -2.1582 H   0  0  0  0  0  0  0  0  0  0  0  0
    2.9902    1.8249   -2.1961 H   0  0  0  0  0  0  0  0  0  0  0  0
   -1.5281    2.8787   -2.3424 H   0  0  0  0  0  0  0  0  0  0  0  0
   -2.4783    4.0770   -1.4537 H   0  0  0  0  0  0  0  0  0  0  0  0
   -2.3188    2.4602   -0.7891 H   0  0  0  0  0  0  0  0  0  0  0  0
   -0.9763    5.7548   -0.8679 H   0  0  0  0  0  0  0  0  0  0  0  0
  1  2  1  0
  2  3  2  0
  3  4  1  0
  4  5  1  0
  4  6  2  0
  6  7  1  0
  7  8  1  0
  8  9  2  0
  8 10  1  0
 10 11  1  0
 11 12  1  0
 12 13  2  0
 12 14  1  0
 14 15  2  0
 15 16  1  0
 16 17  2  0
 17 18  1  0
 18 19  2  0
 19 20  1  0
 20 21  2  0
 20 22  2  0
  7 23  1  0
 23 24  1  0
 24 25  2  0
 24 26  1  0
 26 27  1  0
 27 28  1  0
 28 29  1  0
 29 30  1  0
 30 31  1  0
 31 32  1  0
 23 33  1  0
 33 34  2  0
 34 35  1  0
 35 36  2  0
 36 37  1  0
 36 38  1  0
 38 39  2  0
  6 40  1  0
 40 41  1  0
 40 42  2  0
 42  2  1  0
 20 11  1  0
 32 28  1  0
 39 33  1  0
 19 14  1  0
  1 43  1  0
  1 44  1  0
  1 45  1  0
  3 46  1  0
  5 47  1  0
  5 48  1  0
  5 49  1  0
 10 50  1  0
 10 51  1  0
 15 52  1  0
 16 53  1  0
 17 54  1  0
 18 55  1  0
 23 56  1  0
 26 57  1  0
 27 58  1  0
 27 59  1  0
 28 60  1  0
 29 61  1  0
 29 62  1  0
 30 63  1  0
 30 64  1  0
 31 65  1  0
 31 66  1  0
 34 67  1  0
 35 68  1  0
 38 69  1  0
 39 70  1  0
 41 71  1  0
 41 72  1  0
 41 73  1  0
 42 74  1  0
M  END
$$$$
