
     RDKit          3D

 52 55  0  0  0  0  0  0  0  0999 V2000
   -7.1096    1.7082   -0.2008 C   0  0  0  0  0  0  0  0  0  0  0  0
   -6.1572    1.7207    0.9846 C   0  0  0  0  0  0  0  0  0  0  0  0
   -5.0308    0.6909    0.8742 C   0  0  0  0  0  0  0  0  0  0  0  0
   -4.0834    0.9560   -0.2984 C   0  0  0  0  0  0  0  0  0  0  0  0
   -2.9102    0.0404   -0.2748 C   0  0  0  0  0  0  0  0  0  0  0  0
   -2.8772   -1.1051   -0.9356 N   0  0  0  0  0  0  0  0  0  0  0  0
   -1.6503   -1.6853   -0.7527 N   0  0  0  0  0  0  0  0  0  0  0  0
   -0.9514   -0.8750    0.0060 C   0  0  0  0  0  0  0  0  0  0  0  0
    0.3834   -1.0446    0.4907 C   0  0  0  0  0  0  0  0  0  0  0  0
    1.1228   -2.1611    0.0508 N   0  0  0  0  0  0  0  0  0  0  0  0
    1.9395   -2.9533    0.9845 C   0  0  0  0  0  0  0  0  0  0  0  0
    1.5678   -2.2608   -1.5854 S   0  0  0  0  0  6  0  0  0  0  0  0
    1.5529   -3.6558   -1.9748 O   0  0  0  0  0  0  0  0  0  0  0  0
    0.8792   -1.2482   -2.3564 O   0  0  0  0  0  0  0  0  0  0  0  0
    3.2766   -1.7429   -1.5327 C   0  0  0  0  0  0  0  0  0  0  0  0
    4.2965   -2.6728   -1.7469 C   0  0  0  0  0  0  0  0  0  0  0  0
    5.6270   -2.2532   -1.7035 C   0  0  0  0  0  0  0  0  0  0  0  0
    5.9420   -0.9118   -1.4446 C   0  0  0  0  0  0  0  0  0  0  0  0
    7.3727   -0.4581   -1.4365 C   0  0  0  0  0  0  0  0  0  0  0  0
    4.9062    0.0143   -1.2585 C   0  0  0  0  0  0  0  0  0  0  0  0
    3.5735   -0.3970   -1.3010 C   0  0  0  0  0  0  0  0  0  0  0  0
    0.8945   -0.2371    1.3673 N   0  0  0  0  0  0  0  0  0  0  0  0
    0.1240    0.8752    1.7774 C   0  0  0  0  0  0  0  0  0  0  0  0
    0.7067    1.7522    2.6958 C   0  0  0  0  0  0  0  0  0  0  0  0
    0.0112    2.8714    3.1501 C   0  0  0  0  0  0  0  0  0  0  0  0
   -1.2792    3.1212    2.6893 C   0  0  0  0  0  0  0  0  0  0  0  0
   -1.8837    2.2584    1.7704 C   0  0  0  0  0  0  0  0  0  0  0  0
   -1.1853    1.1411    1.3091 C   0  0  0  0  0  0  0  0  0  0  0  0
   -1.7095    0.2018    0.3920 N   0  0  0  0  0  0  0  0  0  0  0  0
   -7.9420    2.3961   -0.0207 H   0  0  0  0  0  0  0  0  0  0  0  0
   -7.5252    0.7084   -0.3607 H   0  0  0  0  0  0  0  0  0  0  0  0
   -6.6098    2.0273   -1.1200 H   0  0  0  0  0  0  0  0  0  0  0  0
   -5.7333    2.7249    1.1013 H   0  0  0  0  0  0  0  0  0  0  0  0
   -6.7310    1.5116    1.8953 H   0  0  0  0  0  0  0  0  0  0  0  0
   -4.4723    0.6933    1.8182 H   0  0  0  0  0  0  0  0  0  0  0  0
   -5.4608   -0.3148    0.7807 H   0  0  0  0  0  0  0  0  0  0  0  0
   -3.7677    2.0017   -0.3452 H   0  0  0  0  0  0  0  0  0  0  0  0
   -4.6236    0.7787   -1.2373 H   0  0  0  0  0  0  0  0  0  0  0  0
    2.2373   -3.9120    0.5509 H   0  0  0  0  0  0  0  0  0  0  0  0
    1.3506   -3.1798    1.8796 H   0  0  0  0  0  0  0  0  0  0  0  0
    2.8311   -2.3985    1.2896 H   0  0  0  0  0  0  0  0  0  0  0  0
    4.0683   -3.7161   -1.9535 H   0  0  0  0  0  0  0  0  0  0  0  0
    6.4191   -2.9786   -1.8790 H   0  0  0  0  0  0  0  0  0  0  0  0
    8.0351   -1.2610   -1.0961 H   0  0  0  0  0  0  0  0  0  0  0  0
    7.6742   -0.1534   -2.4433 H   0  0  0  0  0  0  0  0  0  0  0  0
    7.5100    0.3869   -0.7537 H   0  0  0  0  0  0  0  0  0  0  0  0
    5.1336    1.0642   -1.0843 H   0  0  0  0  0  0  0  0  0  0  0  0
    2.7793    0.3321   -1.1593 H   0  0  0  0  0  0  0  0  0  0  0  0
    1.7131    1.5580    3.0596 H   0  0  0  0  0  0  0  0  0  0  0  0
    0.4758    3.5459    3.8655 H   0  0  0  0  0  0  0  0  0  0  0  0
   -1.8205    3.9936    3.0506 H   0  0  0  0  0  0  0  0  0  0  0  0
   -2.8900    2.5018    1.4606 H   0  0  0  0  0  0  0  0  0  0  0  0
  1  2  1  0
  2  3  1  0
  3  4  1  0
  4  5  1  0
  5  6  2  0
  6  7  1  0
  7  8  2  0
  8  9  1  0
  9 10  1  0
 10 11  1  0
 10 12  1  0
 12 13  2  0
 12 14  2  0
 12 15  1  0
 15 16  2  0
 16 17  1  0
 17 18  2  0
 18 19  1  0
 18 20  1  0
 20 21  2  0
  9 22  2  0
 22 23  1  0
 23 24  2  0
 24 25  1  0
 25 26  2  0
 26 27  1  0
 27 28  2  0
 28 29  1  0
 29  5  1  0
 29  8  1  0
 21 15  1  0
 28 23  1  0
  1 30  1  0
  1 31  1  0
  1 32  1  0
  2 33  1  0
  2 34  1  0
  3 35  1  0
  3 36  1  0
  4 37  1  0
  4 38  1  0
 11 39  1  0
 11 40  1  0
 11 41  1  0
 16 42  1  0
 17 43  1  0
 19 44  1  0
 19 45  1  0
 19 46  1  0
 20 47  1  0
 21 48  1  0
 24 49  1  0
 25 50  1  0
 26 51  1  0
 27 52  1  0
M  END
$$$$
