
     RDKit          3D

 48 50  0  0  0  0  0  0  0  0999 V2000
   -5.9706   -2.4895   -1.2652 C   0  0  0  0  0  0  0  0  0  0  0  0
   -4.7004   -2.0012   -0.5807 C   0  0  0  0  0  0  0  0  0  0  0  0
   -4.5052   -0.4742   -0.6870 C   0  0  0  0  0  0  0  0  0  0  0  0
   -3.2150   -0.0824   -0.1527 N   0  0  0  0  0  0  0  0  0  0  0  0
   -2.0376   -0.2437   -0.8490 C   0  0  0  0  0  0  0  0  0  0  0  0
   -1.9876   -0.6646   -2.0006 O   0  0  0  0  0  0  0  0  0  0  0  0
   -0.8403    0.1247   -0.0907 C   0  0  0  0  0  0  0  0  0  0  0  0
    0.5060    0.0758   -0.5285 C   0  0  0  0  0  0  0  0  0  0  0  0
    1.2407    0.5070    0.5496 C   0  0  0  0  0  0  0  0  0  0  0  0
    2.6819    0.7169    0.8209 C   0  0  0  0  0  0  0  0  0  0  0  0
    3.4067    0.0150   -0.1856 O   0  0  0  0  0  0  0  0  0  0  0  0
    4.7749    0.0481   -0.1344 C   0  0  0  0  0  0  0  0  0  0  0  0
    5.5200    0.7401    0.8251 C   0  0  0  0  0  0  0  0  0  0  0  0
    6.9221    0.7132    0.7959 C   0  0  0  0  0  0  0  0  0  0  0  0
    7.5953   -0.0055   -0.1916 C   0  0  0  0  0  0  0  0  0  0  0  0
    8.9511   -0.1127   -0.3255 O   0  0  0  0  0  0  0  0  0  0  0  0
    9.7527    0.6057    0.6041 C   0  0  0  0  0  0  0  0  0  0  0  0
    6.8575   -0.6970   -1.1522 C   0  0  0  0  0  0  0  0  0  0  0  0
    5.4608   -0.6709   -1.1260 C   0  0  0  0  0  0  0  0  0  0  0  0
    4.6090   -1.5485   -2.3502 Cl  0  0  0  0  0  0  0  0  0  0  0  0
    0.3935    0.8056    1.5710 O   0  0  0  0  0  0  0  0  0  0  0  0
   -0.9106    0.5654    1.1800 N   0  0  0  0  0  0  0  0  0  0  0  0
   -5.5899    0.3305    0.0040 C   0  0  0  0  0  0  0  0  0  0  0  0
   -6.2471    1.3551   -0.6873 C   0  0  0  0  0  0  0  0  0  0  0  0
   -7.2252    2.0864   -0.0309 C   0  0  0  0  0  0  0  0  0  0  0  0
   -7.5886    1.8737    1.2514 N   0  0  0  0  0  0  0  0  0  0  0  0
   -6.9378    0.8918    1.9088 C   0  0  0  0  0  0  0  0  0  0  0  0
   -5.9445    0.1083    1.3406 C   0  0  0  0  0  0  0  0  0  0  0  0
   -6.8679   -2.0892   -0.7837 H   0  0  0  0  0  0  0  0  0  0  0  0
   -6.0263   -3.5820   -1.2174 H   0  0  0  0  0  0  0  0  0  0  0  0
   -5.9843   -2.1970   -2.3201 H   0  0  0  0  0  0  0  0  0  0  0  0
   -4.7038   -2.3264    0.4665 H   0  0  0  0  0  0  0  0  0  0  0  0
   -3.8477   -2.5106   -1.0480 H   0  0  0  0  0  0  0  0  0  0  0  0
   -4.4997   -0.2205   -1.7557 H   0  0  0  0  0  0  0  0  0  0  0  0
   -3.1371    0.2363    0.8080 H   0  0  0  0  0  0  0  0  0  0  0  0
    0.8790   -0.2387   -1.4933 H   0  0  0  0  0  0  0  0  0  0  0  0
    2.9021    1.7898    0.7724 H   0  0  0  0  0  0  0  0  0  0  0  0
    2.9272    0.3202    1.8129 H   0  0  0  0  0  0  0  0  0  0  0  0
    5.0482    1.3147    1.6163 H   0  0  0  0  0  0  0  0  0  0  0  0
    7.4571    1.2649    1.5629 H   0  0  0  0  0  0  0  0  0  0  0  0
    9.5744    1.6835    0.5278 H   0  0  0  0  0  0  0  0  0  0  0  0
    9.5879    0.2489    1.6261 H   0  0  0  0  0  0  0  0  0  0  0  0
   10.8018    0.4225    0.3529 H   0  0  0  0  0  0  0  0  0  0  0  0
    7.3784   -1.2582   -1.9247 H   0  0  0  0  0  0  0  0  0  0  0  0
   -6.0031    1.5886   -1.7192 H   0  0  0  0  0  0  0  0  0  0  0  0
   -7.7555    2.8898   -0.5353 H   0  0  0  0  0  0  0  0  0  0  0  0
   -7.2422    0.7463    2.9416 H   0  0  0  0  0  0  0  0  0  0  0  0
   -5.4606   -0.6561    1.9390 H   0  0  0  0  0  0  0  0  0  0  0  0
  1  2  1  0
  2  3  1  0
  3  4  1  0
  4  5  1  0
  5  6  2  0
  5  7  1  0
  7  8  1  0
  8  9  2  0
  9 10  1  0
 10 11  1  0
 11 12  1  0
 12 13  2  0
 13 14  1  0
 14 15  2  0
 15 16  1  0
 16 17  1  0
 15 18  1  0
 18 19  2  0
 19 20  1  0
  9 21  1  0
 21 22  1  0
  3 23  1  0
 23 24  2  0
 24 25  1  0
 25 26  2  0
 26 27  1  0
 27 28  2  0
 22  7  2  0
 28 23  1  0
 19 12  1  0
  1 29  1  0
  1 30  1  0
  1 31  1  0
  2 32  1  0
  2 33  1  0
  3 34  1  0
  4 35  1  0
  8 36  1  0
 10 37  1  0
 10 38  1  0
 13 39  1  0
 14 40  1  0
 17 41  1  0
 17 42  1  0
 17 43  1  0
 18 44  1  0
 24 45  1  0
 25 46  1  0
 27 47  1  0
 28 48  1  0
M  END
$$$$
