
     RDKit          3D

 31 33  0  0  0  0  0  0  0  0999 V2000
   -0.9103   -2.9144    0.3697 O   0  0  0  0  0  0  0  0  0  0  0  0
   -1.9252   -2.2532    0.2043 C   0  0  0  0  0  0  0  0  0  0  0  0
   -3.1361   -2.8248    0.3946 O   0  0  0  0  0  0  0  0  0  0  0  0
   -2.0282   -0.8039   -0.2655 C   0  0  0  0  0  0  0  0  0  0  0  0
   -2.3198   -0.6838   -1.7389 C   0  0  0  0  0  0  0  0  0  0  0  0
   -2.7514    0.6267   -2.3500 C   0  0  0  0  0  0  0  0  0  0  0  0
   -1.3016    0.2174   -2.3510 C   0  0  0  0  0  0  0  0  0  0  0  0
   -0.3596    0.6746   -1.2816 C   0  0  0  0  0  0  0  0  0  0  0  0
   -0.7116   -0.1243   -0.0899 N   0  0  0  0  0  0  0  0  0  0  0  0
   -0.4504    0.5391    1.4298 S   0  0  0  0  0  6  0  0  0  0  0  0
   -0.8786   -0.4148    2.4291 O   0  0  0  0  0  0  0  0  0  0  0  0
   -0.9799    1.8864    1.4139 O   0  0  0  0  0  0  0  0  0  0  0  0
    1.3202    0.6262    1.4967 C   0  0  0  0  0  0  0  0  0  0  0  0
    1.9633    1.8648    1.5695 C   0  0  0  0  0  0  0  0  0  0  0  0
    3.3581    1.9095    1.6182 C   0  0  0  0  0  0  0  0  0  0  0  0
    4.0921    0.7214    1.5965 C   0  0  0  0  0  0  0  0  0  0  0  0
    5.9805    0.7887    1.6606 Br  0  0  0  0  0  0  0  0  0  0  0  0
    3.4472   -0.5147    1.5288 C   0  0  0  0  0  0  0  0  0  0  0  0
    2.0536   -0.5655    1.4804 C   0  0  0  0  0  0  0  0  0  0  0  0
   -2.9161   -3.7241    0.7185 H   0  0  0  0  0  0  0  0  0  0  0  0
   -2.8030   -0.2905    0.3162 H   0  0  0  0  0  0  0  0  0  0  0  0
   -2.5835   -1.6068   -2.2350 H   0  0  0  0  0  0  0  0  0  0  0  0
   -3.2881    0.5939   -3.2917 H   0  0  0  0  0  0  0  0  0  0  0  0
   -3.0645    1.4301   -1.6917 H   0  0  0  0  0  0  0  0  0  0  0  0
   -0.8251   -0.0659   -3.2780 H   0  0  0  0  0  0  0  0  0  0  0  0
   -0.4747    1.7492   -1.1140 H   0  0  0  0  0  0  0  0  0  0  0  0
    0.6758    0.4639   -1.5657 H   0  0  0  0  0  0  0  0  0  0  0  0
    1.3927    2.7907    1.5928 H   0  0  0  0  0  0  0  0  0  0  0  0
    3.8625    2.8709    1.6767 H   0  0  0  0  0  0  0  0  0  0  0  0
    4.0179   -1.4400    1.5156 H   0  0  0  0  0  0  0  0  0  0  0  0
    1.5439   -1.5269    1.4288 H   0  0  0  0  0  0  0  0  0  0  0  0
  1  2  2  0
  2  3  1  0
  2  4  1  0
  4  5  1  0
  5  6  1  0
  6  7  1  0
  7  8  1  0
  8  9  1  0
  9 10  1  0
 10 11  2  0
 10 12  2  0
 10 13  1  0
 13 14  2  0
 14 15  1  0
 15 16  2  0
 16 17  1  0
 16 18  1  0
 18 19  2  0
  9  4  1  0
 19 13  1  0
  7  5  1  0
  3 20  1  0
  4 21  1  0
  5 22  1  0
  6 23  1  0
  6 24  1  0
  7 25  1  0
  8 26  1  0
  8 27  1  0
 14 28  1  0
 15 29  1  0
 18 30  1  0
 19 31  1  0
M  END
$$$$
