
     RDKit          3D

 56 60  0  0  0  0  0  0  0  0999 V2000
   -0.9909   -2.1829   -1.0202 C   0  0  0  0  0  0  0  0  0  0  0  0
   -0.8561   -1.2134   -0.1040 C   0  0  0  0  0  0  0  0  0  0  0  0
    0.4092   -0.7876    0.5331 C   0  0  0  0  0  0  0  0  0  0  0  0
    1.6373   -1.2817    0.2957 C   0  0  0  0  0  0  0  0  0  0  0  0
    2.8885   -0.8742    0.9240 C   0  0  0  0  0  0  0  0  0  0  0  0
    3.1423   -0.9542    2.2364 C   0  0  0  0  0  0  0  0  0  0  0  0
    2.2866   -1.4316    3.1930 O   0  0  0  0  0  0  0  0  0  0  0  0
    4.3252   -0.5648    2.7496 N   0  0  0  0  0  0  0  0  0  0  0  0
    5.3863   -0.0931    2.0334 C   0  0  0  0  0  0  0  0  0  0  0  0
    6.4156    0.1606    2.6597 O   0  0  0  0  0  0  0  0  0  0  0  0
    5.2031    0.0051    0.6507 N   0  0  0  0  0  0  0  0  0  0  0  0
    6.2920    0.5035   -0.1669 C   0  0  0  0  0  0  0  0  0  0  0  0
    7.1753    1.4879    0.3136 C   0  0  0  0  0  0  0  0  0  0  0  0
    8.2294    1.9741   -0.4713 C   0  0  0  0  0  0  0  0  0  0  0  0
    8.4200    1.4827   -1.7565 C   0  0  0  0  0  0  0  0  0  0  0  0
    9.7125    2.0767   -2.7218 Cl  0  0  0  0  0  0  0  0  0  0  0  0
    7.5655    0.5105   -2.2606 C   0  0  0  0  0  0  0  0  0  0  0  0
    6.5128    0.0271   -1.4718 C   0  0  0  0  0  0  0  0  0  0  0  0
    4.0018   -0.3803    0.0383 C   0  0  0  0  0  0  0  0  0  0  0  0
    3.7660   -0.3148   -1.1712 O   0  0  0  0  0  0  0  0  0  0  0  0
    0.0842    0.2843    1.4670 C   0  0  0  0  0  0  0  0  0  0  0  0
   -1.2495    0.4690    1.4120 C   0  0  0  0  0  0  0  0  0  0  0  0
   -2.0009    1.5091    2.1739 C   0  0  0  0  0  0  0  0  0  0  0  0
   -1.8544   -0.4133    0.4870 N   0  0  0  0  0  0  0  0  0  0  0  0
   -3.1842   -0.4228    0.1570 C   0  0  0  0  0  0  0  0  0  0  0  0
   -4.3769   -1.0068    1.2598 S   0  0  0  0  0  0  0  0  0  0  0  0
   -5.6416   -0.7188    0.1659 C   0  0  0  0  0  0  0  0  0  0  0  0
   -5.2016   -0.1938   -1.0326 C   0  0  0  0  0  0  0  0  0  0  0  0
   -3.7777   -0.0162   -1.0299 C   0  0  0  0  0  0  0  0  0  0  0  0
   -3.0348    0.5435   -2.1225 C   0  0  0  0  0  0  0  0  0  0  0  0
   -2.4709    0.9981   -3.0296 N   0  0  0  0  0  0  0  0  0  0  0  0
   -6.1546    0.1569   -2.1406 C   0  0  0  0  0  0  0  0  0  0  0  0
   -7.5304   -0.4983   -1.9408 C   0  0  0  0  0  0  0  0  0  0  0  0
   -8.0196   -0.3603   -0.4924 C   0  0  0  0  0  0  0  0  0  0  0  0
   -7.0656   -1.0461    0.4973 C   0  0  0  0  0  0  0  0  0  0  0  0
   -1.9630   -2.4505   -1.4191 H   0  0  0  0  0  0  0  0  0  0  0  0
   -0.1488   -2.7435   -1.4071 H   0  0  0  0  0  0  0  0  0  0  0  0
    1.7757   -2.0342   -0.4788 H   0  0  0  0  0  0  0  0  0  0  0  0
    1.4718   -1.7461    2.7619 H   0  0  0  0  0  0  0  0  0  0  0  0
    4.4684   -0.6603    3.7475 H   0  0  0  0  0  0  0  0  0  0  0  0
    7.0500    1.9264    1.3012 H   0  0  0  0  0  0  0  0  0  0  0  0
    8.8897    2.7377   -0.0685 H   0  0  0  0  0  0  0  0  0  0  0  0
    7.7080    0.1166   -3.2636 H   0  0  0  0  0  0  0  0  0  0  0  0
    5.8923   -0.7556   -1.9019 H   0  0  0  0  0  0  0  0  0  0  0  0
    0.7810    0.8499    2.0643 H   0  0  0  0  0  0  0  0  0  0  0  0
   -2.6746    1.0475    2.9016 H   0  0  0  0  0  0  0  0  0  0  0  0
   -1.3206    2.1657    2.7270 H   0  0  0  0  0  0  0  0  0  0  0  0
   -2.5872    2.1399    1.4982 H   0  0  0  0  0  0  0  0  0  0  0  0
   -5.7464   -0.1513   -3.1097 H   0  0  0  0  0  0  0  0  0  0  0  0
   -6.2727    1.2474   -2.1644 H   0  0  0  0  0  0  0  0  0  0  0  0
   -7.4705   -1.5635   -2.1987 H   0  0  0  0  0  0  0  0  0  0  0  0
   -8.2543   -0.0432   -2.6260 H   0  0  0  0  0  0  0  0  0  0  0  0
   -9.0218   -0.7921   -0.3922 H   0  0  0  0  0  0  0  0  0  0  0  0
   -8.1039    0.7055   -0.2431 H   0  0  0  0  0  0  0  0  0  0  0  0
   -7.3151   -0.7350    1.5181 H   0  0  0  0  0  0  0  0  0  0  0  0
   -7.2021   -2.1332    0.4387 H   0  0  0  0  0  0  0  0  0  0  0  0
  1  2  2  0
  2  3  1  0
  3  4  2  3
  4  5  1  0
  5  6  2  0
  6  7  1  0
  6  8  1  0
  8  9  1  0
  9 10  2  0
  9 11  1  0
 11 12  1  0
 12 13  2  0
 13 14  1  0
 14 15  2  0
 15 16  1  0
 15 17  1  0
 17 18  2  0
 11 19  1  0
 19 20  2  0
  3 21  1  0
 21 22  2  0
 22 23  1  0
 22 24  1  0
 24 25  1  0
 25 26  1  0
 26 27  1  0
 27 28  2  0
 28 29  1  0
 29 30  1  0
 30 31  3  0
 28 32  1  0
 32 33  1  0
 33 34  1  0
 34 35  1  0
 24  2  1  0
 29 25  2  0
 19  5  1  0
 35 27  1  0
 18 12  1  0
  1 36  1  0
  1 37  1  0
  4 38  1  0
  7 39  1  0
  8 40  1  0
 13 41  1  0
 14 42  1  0
 17 43  1  0
 18 44  1  0
 21 45  1  0
 23 46  1  0
 23 47  1  0
 23 48  1  0
 32 49  1  0
 32 50  1  0
 33 51  1  0
 33 52  1  0
 34 53  1  0
 34 54  1  0
 35 55  1  0
 35 56  1  0
M  END
$$$$
