
     RDKit          3D

 51 53  0  0  0  0  0  0  0  0999 V2000
   -5.3552    1.4939   -0.0325 O   0  0  0  0  0  0  0  0  0  0  0  0
   -4.3554    1.0366   -0.5810 C   0  0  0  0  0  0  0  0  0  0  0  0
   -3.1668    1.9408   -0.9322 C   0  0  0  0  0  0  0  0  0  0  0  0
   -2.8376    2.8471    0.1187 O   0  0  0  0  0  0  0  0  0  0  0  0
   -2.2459    2.2477    1.1852 C   0  0  0  0  0  0  0  0  0  0  0  0
   -1.9899    1.0539    1.2754 O   0  0  0  0  0  0  0  0  0  0  0  0
   -1.8889    3.2617    2.2341 C   0  0  0  0  0  0  0  0  0  0  0  0
   -0.6105    4.0026    1.8597 C   0  0  0  0  0  0  0  0  0  0  0  0
    0.5822    3.1479    1.8940 N   0  0  0  0  0  0  0  0  0  0  0  0
    0.9863    2.5183    0.7270 C   0  0  0  0  0  0  0  0  0  0  0  0
    0.4456    2.6230   -0.3666 O   0  0  0  0  0  0  0  0  0  0  0  0
    2.1861    1.6771    0.9793 C   0  0  0  0  0  0  0  0  0  0  0  0
    2.7685    0.9696    0.0011 C   0  0  0  0  0  0  0  0  0  0  0  0
    3.9354    0.1180    0.1280 C   0  0  0  0  0  0  0  0  0  0  0  0
    4.4559   -0.5533   -0.9119 C   0  0  0  0  0  0  0  0  0  0  0  0
    5.6321   -1.4302   -0.8154 C   0  0  0  0  0  0  0  0  0  0  0  0
    6.7454   -1.1054   -0.0288 C   0  0  0  0  0  0  0  0  0  0  0  0
    7.8571   -1.9511    0.0133 C   0  0  0  0  0  0  0  0  0  0  0  0
    7.8713   -3.1241   -0.7382 C   0  0  0  0  0  0  0  0  0  0  0  0
    6.7771   -3.4500   -1.5364 C   0  0  0  0  0  0  0  0  0  0  0  0
    5.6657   -2.6043   -1.5791 C   0  0  0  0  0  0  0  0  0  0  0  0
    2.6428    1.7824    2.6305 S   0  0  0  0  0  0  0  0  0  0  0  0
    1.3247    2.8779    3.0261 C   0  0  0  0  0  0  0  0  0  0  0  0
    1.0908    3.4604    4.5719 S   0  0  0  0  0  0  0  0  0  0  0  0
   -4.1616   -0.2835   -0.9440 N   0  0  0  0  0  0  0  0  0  0  0  0
   -5.0622   -1.3604   -0.7864 C   0  0  0  0  0  0  0  0  0  0  0  0
   -6.3636   -1.2385   -0.3009 C   0  0  0  0  0  0  0  0  0  0  0  0
   -7.1666   -2.3739   -0.1903 C   0  0  0  0  0  0  0  0  0  0  0  0
   -8.4163   -2.2515    0.2763 F   0  0  0  0  0  0  0  0  0  0  0  0
   -6.7011   -3.6341   -0.5560 C   0  0  0  0  0  0  0  0  0  0  0  0
   -5.4050   -3.7667   -1.0450 C   0  0  0  0  0  0  0  0  0  0  0  0
   -4.6017   -2.6340   -1.1562 C   0  0  0  0  0  0  0  0  0  0  0  0
   -3.3543   -2.7699   -1.6344 F   0  0  0  0  0  0  0  0  0  0  0  0
   -3.4618    2.5371   -1.8025 H   0  0  0  0  0  0  0  0  0  0  0  0
   -2.2819    1.3645   -1.2269 H   0  0  0  0  0  0  0  0  0  0  0  0
   -2.7248    3.9628    2.3386 H   0  0  0  0  0  0  0  0  0  0  0  0
   -1.7947    2.7422    3.1936 H   0  0  0  0  0  0  0  0  0  0  0  0
   -0.7057    4.4362    0.8570 H   0  0  0  0  0  0  0  0  0  0  0  0
   -0.4650    4.8401    2.5500 H   0  0  0  0  0  0  0  0  0  0  0  0
    2.3340    1.0274   -0.9977 H   0  0  0  0  0  0  0  0  0  0  0  0
    4.3856    0.0196    1.1134 H   0  0  0  0  0  0  0  0  0  0  0  0
    4.0016   -0.4901   -1.8982 H   0  0  0  0  0  0  0  0  0  0  0  0
    6.7658   -0.1864    0.5518 H   0  0  0  0  0  0  0  0  0  0  0  0
    8.7134   -1.6901    0.6298 H   0  0  0  0  0  0  0  0  0  0  0  0
    8.7363   -3.7813   -0.7052 H   0  0  0  0  0  0  0  0  0  0  0  0
    6.7876   -4.3623   -2.1270 H   0  0  0  0  0  0  0  0  0  0  0  0
    4.8213   -2.8771   -2.2081 H   0  0  0  0  0  0  0  0  0  0  0  0
   -3.2400   -0.5496   -1.2801 H   0  0  0  0  0  0  0  0  0  0  0  0
   -6.7883   -0.2877   -0.0003 H   0  0  0  0  0  0  0  0  0  0  0  0
   -7.3519   -4.4972   -0.4567 H   0  0  0  0  0  0  0  0  0  0  0  0
   -5.0160   -4.7363   -1.3384 H   0  0  0  0  0  0  0  0  0  0  0  0
  1  2  2  0
  2  3  1  0
  3  4  1  0
  4  5  1  0
  5  6  2  0
  5  7  1  0
  7  8  1  0
  8  9  1  0
  9 10  1  0
 10 11  2  0
 10 12  1  0
 12 13  2  3
 13 14  1  0
 14 15  2  3
 15 16  1  0
 16 17  2  0
 17 18  1  0
 18 19  2  0
 19 20  1  0
 20 21  2  0
 12 22  1  0
 22 23  1  0
 23 24  2  0
  2 25  1  0
 25 26  1  0
 26 27  2  0
 27 28  1  0
 28 29  1  0
 28 30  2  0
 30 31  1  0
 31 32  2  0
 32 33  1  0
 23  9  1  0
 32 26  1  0
 21 16  1  0
  3 34  1  0
  3 35  1  0
  7 36  1  0
  7 37  1  0
  8 38  1  0
  8 39  1  0
 13 40  1  0
 14 41  1  0
 15 42  1  0
 17 43  1  0
 18 44  1  0
 19 45  1  0
 20 46  1  0
 21 47  1  0
 25 48  1  0
 27 49  1  0
 30 50  1  0
 31 51  1  0
M  END
$$$$
