
     RDKit          3D

 72 75  0  0  0  0  0  0  0  0999 V2000
   -4.8076    3.1554   -2.5215 C   0  0  0  0  0  0  0  0  0  0  0  0
   -5.0934    1.9292   -1.7003 C   0  0  0  0  0  0  0  0  0  0  0  0
   -6.2221    1.9490   -0.8661 C   0  0  0  0  0  0  0  0  0  0  0  0
   -6.5892    0.8366   -0.0978 C   0  0  0  0  0  0  0  0  0  0  0  0
   -5.8532   -0.3536   -0.1398 C   0  0  0  0  0  0  0  0  0  0  0  0
   -6.2397   -1.6033    0.6702 C   0  0  0  0  0  0  0  0  0  0  0  0
   -7.4952   -1.4105    1.5521 C   0  0  0  0  0  0  0  0  0  0  0  0
   -5.0768   -1.9909    1.6099 C   0  0  0  0  0  0  0  0  0  0  0  0
   -6.5306   -2.7759   -0.2910 C   0  0  0  0  0  0  0  0  0  0  0  0
   -4.7204   -0.3717   -0.9757 C   0  0  0  0  0  0  0  0  0  0  0  0
   -4.3242    0.7543   -1.7282 C   0  0  0  0  0  0  0  0  0  0  0  0
   -2.8501    0.5605   -2.7317 S   0  0  0  0  0  6  0  0  0  0  0  0
   -2.8078   -0.8201   -3.1709 O   0  0  0  0  0  0  0  0  0  0  0  0
   -2.7815    1.6332   -3.7012 O   0  0  0  0  0  0  0  0  0  0  0  0
   -1.5836    0.7953   -1.6229 N   0  0  0  0  0  0  0  0  0  0  0  0
   -1.3765    2.1687   -1.1083 C   0  0  0  0  0  0  0  0  0  0  0  0
   -0.4015    2.1846    0.0687 C   0  0  0  0  0  0  0  0  0  0  0  0
    0.7478    1.1877   -0.1392 C   0  0  0  0  0  0  0  0  0  0  0  0
    1.7112    1.2123    1.0468 C   0  0  0  0  0  0  0  0  0  0  0  0
    1.3795    1.7374    2.1125 O   0  0  0  0  0  0  0  0  0  0  0  0
    2.9398    0.5878    0.9045 N   0  0  0  0  0  0  0  0  0  0  0  0
    3.8325    0.5418    2.0680 C   0  0  0  0  0  0  0  0  0  0  0  0
    4.9007   -0.5651    1.9847 C   0  0  0  0  0  0  0  0  0  0  0  0
    5.6738   -0.4903    0.7301 N   0  0  0  0  0  0  0  0  0  0  0  0
    7.0323   -0.7783    0.7301 C   0  0  0  0  0  0  0  0  0  0  0  0
    7.9258   -0.1703   -0.1689 C   0  0  0  0  0  0  0  0  0  0  0  0
    9.2983   -0.4516   -0.1582 C   0  0  0  0  0  0  0  0  0  0  0  0
    9.8003   -1.3677    0.7537 C   0  0  0  0  0  0  0  0  0  0  0  0
   11.1294   -1.6647    0.8058 O   0  0  0  0  0  0  0  0  0  0  0  0
    8.9515   -2.0087    1.6406 C   0  0  0  0  0  0  0  0  0  0  0  0
    7.5829   -1.7131    1.6253 C   0  0  0  0  0  0  0  0  0  0  0  0
    5.0385    0.1908   -0.4078 C   0  0  0  0  0  0  0  0  0  0  0  0
    3.5035    0.0692   -0.3502 C   0  0  0  0  0  0  0  0  0  0  0  0
    0.2092   -0.2392   -0.3585 C   0  0  0  0  0  0  0  0  0  0  0  0
   -1.2920   -0.2701   -0.6508 C   0  0  0  0  0  0  0  0  0  0  0  0
   -5.5090    3.9643   -2.2873 H   0  0  0  0  0  0  0  0  0  0  0  0
   -4.9253    2.9376   -3.5865 H   0  0  0  0  0  0  0  0  0  0  0  0
   -3.8072    3.5452   -2.3174 H   0  0  0  0  0  0  0  0  0  0  0  0
   -6.8451    2.8423   -0.8086 H   0  0  0  0  0  0  0  0  0  0  0  0
   -7.4781    0.9338    0.5207 H   0  0  0  0  0  0  0  0  0  0  0  0
   -7.7318   -2.3249    2.1099 H   0  0  0  0  0  0  0  0  0  0  0  0
   -7.3513   -0.6105    2.2887 H   0  0  0  0  0  0  0  0  0  0  0  0
   -8.3789   -1.1645    0.9504 H   0  0  0  0  0  0  0  0  0  0  0  0
   -4.1687   -2.2573    1.0585 H   0  0  0  0  0  0  0  0  0  0  0  0
   -4.8220   -1.1633    2.2826 H   0  0  0  0  0  0  0  0  0  0  0  0
   -5.3394   -2.8557    2.2298 H   0  0  0  0  0  0  0  0  0  0  0  0
   -6.8412   -3.6713    0.2601 H   0  0  0  0  0  0  0  0  0  0  0  0
   -5.6521   -3.0530   -0.8837 H   0  0  0  0  0  0  0  0  0  0  0  0
   -7.3336   -2.5212   -0.9929 H   0  0  0  0  0  0  0  0  0  0  0  0
   -4.1311   -1.2843   -1.0538 H   0  0  0  0  0  0  0  0  0  0  0  0
   -0.9673    2.7794   -1.9211 H   0  0  0  0  0  0  0  0  0  0  0  0
   -2.3190    2.6138   -0.7792 H   0  0  0  0  0  0  0  0  0  0  0  0
   -0.9452    1.9430    0.9926 H   0  0  0  0  0  0  0  0  0  0  0  0
   -0.0110    3.2011    0.2072 H   0  0  0  0  0  0  0  0  0  0  0  0
    1.2841    1.5249   -1.0326 H   0  0  0  0  0  0  0  0  0  0  0  0
    3.2414    0.4130    2.9816 H   0  0  0  0  0  0  0  0  0  0  0  0
    4.3190    1.5237    2.1274 H   0  0  0  0  0  0  0  0  0  0  0  0
    4.4156   -1.5474    2.0350 H   0  0  0  0  0  0  0  0  0  0  0  0
    5.5483   -0.4614    2.8638 H   0  0  0  0  0  0  0  0  0  0  0  0
    7.5736    0.5619   -0.8899 H   0  0  0  0  0  0  0  0  0  0  0  0
    9.9472    0.0524   -0.8670 H   0  0  0  0  0  0  0  0  0  0  0  0
   11.6054   -1.0304    0.2469 H   0  0  0  0  0  0  0  0  0  0  0  0
    9.3460   -2.7361    2.3443 H   0  0  0  0  0  0  0  0  0  0  0  0
    6.9443   -2.2533    2.3192 H   0  0  0  0  0  0  0  0  0  0  0  0
    5.3182    1.2511   -0.4005 H   0  0  0  0  0  0  0  0  0  0  0  0
    5.3749   -0.2500   -1.3533 H   0  0  0  0  0  0  0  0  0  0  0  0
    3.2118   -0.9858   -0.4108 H   0  0  0  0  0  0  0  0  0  0  0  0
    3.0769    0.5850   -1.2114 H   0  0  0  0  0  0  0  0  0  0  0  0
    0.4159   -0.8894    0.5008 H   0  0  0  0  0  0  0  0  0  0  0  0
    0.7423   -0.6816   -1.2110 H   0  0  0  0  0  0  0  0  0  0  0  0
   -1.8739   -0.1213    0.2665 H   0  0  0  0  0  0  0  0  0  0  0  0
   -1.5454   -1.2586   -1.0451 H   0  0  0  0  0  0  0  0  0  0  0  0
  1  2  1  0
  2  3  2  0
  3  4  1  0
  4  5  2  0
  5  6  1  0
  6  7  1  0
  6  8  1  0
  6  9  1  0
  5 10  1  0
 10 11  2  0
 11 12  1  0
 12 13  2  0
 12 14  2  0
 12 15  1  0
 15 16  1  0
 16 17  1  0
 17 18  1  0
 18 19  1  0
 19 20  2  0
 19 21  1  0
 21 22  1  0
 22 23  1  0
 23 24  1  0
 24 25  1  0
 25 26  2  0
 26 27  1  0
 27 28  2  0
 28 29  1  0
 28 30  1  0
 30 31  2  0
 24 32  1  0
 32 33  1  0
 18 34  1  0
 34 35  1  0
 11  2  1  0
 35 15  1  0
 33 21  1  0
 31 25  1  0
  1 36  1  0
  1 37  1  0
  1 38  1  0
  3 39  1  0
  4 40  1  0
  7 41  1  0
  7 42  1  0
  7 43  1  0
  8 44  1  0
  8 45  1  0
  8 46  1  0
  9 47  1  0
  9 48  1  0
  9 49  1  0
 10 50  1  0
 16 51  1  0
 16 52  1  0
 17 53  1  0
 17 54  1  0
 18 55  1  0
 22 56  1  0
 22 57  1  0
 23 58  1  0
 23 59  1  0
 26 60  1  0
 27 61  1  0
 29 62  1  0
 30 63  1  0
 31 64  1  0
 32 65  1  0
 32 66  1  0
 33 67  1  0
 33 68  1  0
 34 69  1  0
 34 70  1  0
 35 71  1  0
 35 72  1  0
M  END
$$$$
