
     RDKit          3D

 41 44  0  0  0  0  0  0  0  0999 V2000
   -0.2247   -4.3499    0.2469 O   0  0  0  0  0  0  0  0  0  0  0  0
    0.0800   -3.2676    0.7314 C   0  0  0  0  0  0  0  0  0  0  0  0
    0.5686   -3.1907    1.9824 O   0  0  0  0  0  0  0  0  0  0  0  0
   -0.0245   -1.9267    0.0183 C   0  0  0  0  0  0  0  0  0  0  0  0
    1.2486   -1.6789   -0.8018 C   0  0  0  0  0  0  0  0  0  0  0  0
    2.3159   -0.9757   -0.0210 C   0  0  0  0  0  0  0  0  0  0  0  0
    3.3719   -1.5624    0.6477 C   0  0  0  0  0  0  0  0  0  0  0  0
    4.1044   -0.5722    1.2461 N   0  0  0  0  0  0  0  0  0  0  0  0
    3.5527    0.6585    0.9766 C   0  0  0  0  0  0  0  0  0  0  0  0
    3.9588    1.9373    1.3771 C   0  0  0  0  0  0  0  0  0  0  0  0
    3.1940    3.0253    0.9455 C   0  0  0  0  0  0  0  0  0  0  0  0
    2.0699    2.8394    0.1448 C   0  0  0  0  0  0  0  0  0  0  0  0
    1.6784    1.5536   -0.2460 C   0  0  0  0  0  0  0  0  0  0  0  0
    2.4309    0.4387    0.1780 C   0  0  0  0  0  0  0  0  0  0  0  0
   -1.1895   -1.9918   -0.9213 N   0  0  0  0  0  0  0  0  0  0  0  0
   -2.7214   -1.8111   -0.2429 S   0  0  0  0  0  6  0  0  0  0  0  0
   -3.6009   -2.5573   -1.1190 O   0  0  0  0  0  0  0  0  0  0  0  0
   -2.6683   -2.0956    1.1707 O   0  0  0  0  0  0  0  0  0  0  0  0
   -3.0622   -0.1078   -0.5027 C   0  0  0  0  0  0  0  0  0  0  0  0
   -3.9127    0.2945   -1.5594 C   0  0  0  0  0  0  0  0  0  0  0  0
   -4.2362    1.6460   -1.8215 C   0  0  0  0  0  0  0  0  0  0  0  0
   -3.7428    2.7108   -1.0512 C   0  0  0  0  0  0  0  0  0  0  0  0
   -2.8930    2.3643    0.0269 C   0  0  0  0  0  0  0  0  0  0  0  0
   -2.3221    3.2336    0.8742 N   0  0  0  0  0  0  0  0  0  0  0  0
   -1.4424    2.3311    1.9534 S   0  0  0  0  0  0  0  0  0  0  0  0
   -1.7293    0.8049    1.3773 N   0  0  0  0  0  0  0  0  0  0  0  0
   -2.5436    0.9204    0.3169 C   0  0  0  0  0  0  0  0  0  0  0  0
    0.4944   -4.1030    2.3312 H   0  0  0  0  0  0  0  0  0  0  0  0
   -0.1839   -1.1311    0.7483 H   0  0  0  0  0  0  0  0  0  0  0  0
    1.0142   -1.0646   -1.6817 H   0  0  0  0  0  0  0  0  0  0  0  0
    1.6477   -2.6229   -1.1964 H   0  0  0  0  0  0  0  0  0  0  0  0
    3.6605   -2.5995    0.7573 H   0  0  0  0  0  0  0  0  0  0  0  0
    4.9308   -0.7172    1.8093 H   0  0  0  0  0  0  0  0  0  0  0  0
    4.8351    2.0860    1.9996 H   0  0  0  0  0  0  0  0  0  0  0  0
    3.4830    4.0319    1.2390 H   0  0  0  0  0  0  0  0  0  0  0  0
    1.4887    3.6991   -0.1802 H   0  0  0  0  0  0  0  0  0  0  0  0
    0.7989    1.4222   -0.8689 H   0  0  0  0  0  0  0  0  0  0  0  0
   -1.1866   -2.8192   -1.5264 H   0  0  0  0  0  0  0  0  0  0  0  0
   -4.3465   -0.4657   -2.2129 H   0  0  0  0  0  0  0  0  0  0  0  0
   -4.8996    1.8703   -2.6581 H   0  0  0  0  0  0  0  0  0  0  0  0
   -3.9973    3.7430   -1.2615 H   0  0  0  0  0  0  0  0  0  0  0  0
  1  2  2  0
  2  3  1  0
  2  4  1  0
  4  5  1  0
  5  6  1  0
  6  7  2  0
  7  8  1  0
  8  9  1  0
  9 10  2  0
 10 11  1  0
 11 12  2  0
 12 13  1  0
 13 14  2  0
  4 15  1  0
 15 16  1  0
 16 17  2  0
 16 18  2  0
 16 19  1  0
 19 20  2  0
 20 21  1  0
 21 22  2  0
 22 23  1  0
 23 24  2  0
 24 25  1  0
 25 26  1  0
 26 27  2  0
 14  6  1  0
 27 19  1  0
 14  9  1  0
 27 23  1  0
  3 28  1  0
  4 29  1  0
  5 30  1  0
  5 31  1  0
  7 32  1  0
  8 33  1  0
 10 34  1  0
 11 35  1  0
 12 36  1  0
 13 37  1  0
 15 38  1  0
 20 39  1  0
 21 40  1  0
 22 41  1  0
M  END
$$$$
