
     RDKit          3D

 45 47  0  0  0  0  0  0  0  0999 V2000
    2.8040    0.6500    1.7750 O   0  0  0  0  0  0  0  0  0  0  0  0
    2.4598    0.4956    0.6052 C   0  0  0  0  0  0  0  0  0  0  0  0
    3.3151    0.7360   -0.4541 N   0  0  0  0  0  0  0  0  0  0  0  0
    4.6698    0.9626   -0.1287 N   0  0  0  0  0  0  0  0  0  0  0  0
    5.6284    0.3727   -0.9426 C   0  0  0  0  0  0  0  0  0  0  0  0
    5.2904   -0.1407   -2.0124 O   0  0  0  0  0  0  0  0  0  0  0  0
    6.9896    0.4076   -0.4248 C   0  0  0  0  0  0  0  0  0  0  0  0
    7.5147    1.0698    0.6729 C   0  0  0  0  0  0  0  0  0  0  0  0
    8.9129    0.8374    0.8385 C   0  0  0  0  0  0  0  0  0  0  0  0
    9.4164    0.0102   -0.1382 C   0  0  0  0  0  0  0  0  0  0  0  0
    8.2124   -0.4773   -1.2468 S   0  0  0  0  0  0  0  0  0  0  0  0
    1.0955    0.0047    0.2663 C   0  0  0  0  0  0  0  0  0  0  0  0
    0.3787   -0.6905    1.2521 C   0  0  0  0  0  0  0  0  0  0  0  0
   -0.9062   -1.1672    0.9855 C   0  0  0  0  0  0  0  0  0  0  0  0
   -1.4789   -0.9336   -0.2677 C   0  0  0  0  0  0  0  0  0  0  0  0
   -3.1178   -1.5453   -0.5915 S   0  0  0  0  0  6  0  0  0  0  0  0
   -3.5008   -1.1231   -1.9216 O   0  0  0  0  0  0  0  0  0  0  0  0
   -3.1168   -2.9439   -0.2201 O   0  0  0  0  0  0  0  0  0  0  0  0
   -4.0621   -0.6846    0.5333 N   0  0  0  0  0  0  0  0  0  0  0  0
   -4.1362    0.7926    0.4008 C   0  0  0  0  0  0  0  0  0  0  0  0
   -5.2222    1.2299   -0.5772 C   0  0  0  0  0  0  0  0  0  0  0  0
   -6.5703    0.5970   -0.2483 C   0  0  0  0  0  0  0  0  0  0  0  0
   -6.4455   -0.9180   -0.1243 C   0  0  0  0  0  0  0  0  0  0  0  0
   -5.3691   -1.2946    0.8854 C   0  0  0  0  0  0  0  0  0  0  0  0
   -0.7790   -0.2374   -1.2572 C   0  0  0  0  0  0  0  0  0  0  0  0
    0.5085    0.2367   -0.9871 C   0  0  0  0  0  0  0  0  0  0  0  0
    3.1663    0.2978   -1.3639 H   0  0  0  0  0  0  0  0  0  0  0  0
    4.8480    1.1163    0.8620 H   0  0  0  0  0  0  0  0  0  0  0  0
    6.9393    1.7045    1.3356 H   0  0  0  0  0  0  0  0  0  0  0  0
    9.5181    1.2591    1.6322 H   0  0  0  0  0  0  0  0  0  0  0  0
   10.4359   -0.3305   -0.2588 H   0  0  0  0  0  0  0  0  0  0  0  0
    0.8235   -0.8681    2.2303 H   0  0  0  0  0  0  0  0  0  0  0  0
   -1.4541   -1.7151    1.7497 H   0  0  0  0  0  0  0  0  0  0  0  0
   -3.1701    1.2079    0.0991 H   0  0  0  0  0  0  0  0  0  0  0  0
   -4.3429    1.2077    1.3953 H   0  0  0  0  0  0  0  0  0  0  0  0
   -4.9393    0.9628   -1.6011 H   0  0  0  0  0  0  0  0  0  0  0  0
   -5.3153    2.3217   -0.5556 H   0  0  0  0  0  0  0  0  0  0  0  0
   -7.3001    0.8493   -1.0255 H   0  0  0  0  0  0  0  0  0  0  0  0
   -6.9486    1.0117    0.6942 H   0  0  0  0  0  0  0  0  0  0  0  0
   -7.4071   -1.3411    0.1870 H   0  0  0  0  0  0  0  0  0  0  0  0
   -6.2094   -1.3476   -1.1050 H   0  0  0  0  0  0  0  0  0  0  0  0
   -5.6503   -0.9431    1.8861 H   0  0  0  0  0  0  0  0  0  0  0  0
   -5.2836   -2.3830    0.9650 H   0  0  0  0  0  0  0  0  0  0  0  0
   -1.2270   -0.0572   -2.2327 H   0  0  0  0  0  0  0  0  0  0  0  0
    1.0255    0.8005   -1.7594 H   0  0  0  0  0  0  0  0  0  0  0  0
  1  2  2  0
  2  3  1  0
  3  4  1  0
  4  5  1  0
  5  6  2  0
  5  7  1  0
  7  8  2  0
  8  9  1  0
  9 10  2  0
 10 11  1  0
  2 12  1  0
 12 13  2  0
 13 14  1  0
 14 15  2  0
 15 16  1  0
 16 17  2  0
 16 18  2  0
 16 19  1  0
 19 20  1  0
 20 21  1  0
 21 22  1  0
 22 23  1  0
 23 24  1  0
 15 25  1  0
 25 26  2  0
 11  7  1  0
 26 12  1  0
 24 19  1  0
  3 27  1  0
  4 28  1  0
  8 29  1  0
  9 30  1  0
 10 31  1  0
 13 32  1  0
 14 33  1  0
 20 34  1  0
 20 35  1  0
 21 36  1  0
 21 37  1  0
 22 38  1  0
 22 39  1  0
 23 40  1  0
 23 41  1  0
 24 42  1  0
 24 43  1  0
 25 44  1  0
 26 45  1  0
M  END
$$$$
