
     RDKit          3D

 41 42  0  0  0  0  0  0  0  0999 V2000
   -6.1047   -1.9966    0.4259 C   0  0  0  0  0  0  0  0  0  0  0  0
   -5.8264   -0.5089    0.3350 C   0  0  0  0  0  0  0  0  0  0  0  0
   -4.4237   -0.3313    0.1048 O   0  0  0  0  0  0  0  0  0  0  0  0
   -4.0303    0.9679    0.0077 C   0  0  0  0  0  0  0  0  0  0  0  0
   -4.7988    1.9179    0.0970 O   0  0  0  0  0  0  0  0  0  0  0  0
   -2.6681    1.0929   -0.2111 N   0  0  0  0  0  0  0  0  0  0  0  0
   -1.7510   -0.0405   -0.0442 C   0  0  0  0  0  0  0  0  0  0  0  0
   -0.4550    0.1373   -0.8552 C   0  0  0  0  0  0  0  0  0  0  0  0
    0.1601    1.4509   -0.5815 N   0  0  0  0  0  0  0  0  0  0  0  0
    1.2023    1.5815    0.3656 C   0  0  0  0  0  0  0  0  0  0  0  0
    1.3855    2.8906    1.3958 S   0  0  0  0  0  0  0  0  0  0  0  0
    2.0923    0.5030    0.2951 N   0  0  0  0  0  0  0  0  0  0  0  0
    3.1696    0.2028    1.1253 C   0  0  0  0  0  0  0  0  0  0  0  0
    3.2607    0.4734    2.3156 O   0  0  0  0  0  0  0  0  0  0  0  0
    4.2527   -0.6090    0.5089 C   0  0  0  0  0  0  0  0  0  0  0  0
    3.9879   -1.6261   -0.4228 C   0  0  0  0  0  0  0  0  0  0  0  0
    5.0440   -2.3637   -0.9667 C   0  0  0  0  0  0  0  0  0  0  0  0
    6.3509   -2.0894   -0.5732 C   0  0  0  0  0  0  0  0  0  0  0  0
    7.3560   -2.8006   -1.1006 F   0  0  0  0  0  0  0  0  0  0  0  0
    6.6109   -1.0943    0.3619 C   0  0  0  0  0  0  0  0  0  0  0  0
    7.8706   -0.8399    0.7404 F   0  0  0  0  0  0  0  0  0  0  0  0
    5.5703   -0.3538    0.9115 C   0  0  0  0  0  0  0  0  0  0  0  0
   -0.7729    2.5565   -0.8858 C   0  0  0  0  0  0  0  0  0  0  0  0
   -2.0756    2.4289   -0.0836 C   0  0  0  0  0  0  0  0  0  0  0  0
   -7.1675   -2.1848    0.6019 H   0  0  0  0  0  0  0  0  0  0  0  0
   -5.5260   -2.4480    1.2385 H   0  0  0  0  0  0  0  0  0  0  0  0
   -5.8041   -2.5021   -0.4978 H   0  0  0  0  0  0  0  0  0  0  0  0
   -6.1126   -0.0217    1.2739 H   0  0  0  0  0  0  0  0  0  0  0  0
   -6.3956   -0.0767   -0.4956 H   0  0  0  0  0  0  0  0  0  0  0  0
   -1.5225   -0.1095    1.0263 H   0  0  0  0  0  0  0  0  0  0  0  0
   -2.2343   -0.9759   -0.3428 H   0  0  0  0  0  0  0  0  0  0  0  0
   -0.6749    0.1021   -1.9288 H   0  0  0  0  0  0  0  0  0  0  0  0
    0.2219   -0.6898   -0.6269 H   0  0  0  0  0  0  0  0  0  0  0  0
    2.1698    0.1767   -0.6556 H   0  0  0  0  0  0  0  0  0  0  0  0
    2.9715   -1.8817   -0.7093 H   0  0  0  0  0  0  0  0  0  0  0  0
    4.8591   -3.1580   -1.6843 H   0  0  0  0  0  0  0  0  0  0  0  0
    5.7909    0.4151    1.6480 H   0  0  0  0  0  0  0  0  0  0  0  0
   -0.9960    2.4890   -1.9581 H   0  0  0  0  0  0  0  0  0  0  0  0
   -0.3072    3.5320   -0.7228 H   0  0  0  0  0  0  0  0  0  0  0  0
   -1.8916    2.5929    0.9844 H   0  0  0  0  0  0  0  0  0  0  0  0
   -2.7882    3.1911   -0.4166 H   0  0  0  0  0  0  0  0  0  0  0  0
  1  2  1  0
  2  3  1  0
  3  4  1  0
  4  5  2  0
  4  6  1  0
  6  7  1  0
  7  8  1  0
  8  9  1  0
  9 10  1  0
 10 11  2  0
 10 12  1  0
 12 13  1  0
 13 14  2  0
 13 15  1  0
 15 16  2  0
 16 17  1  0
 17 18  2  0
 18 19  1  0
 18 20  1  0
 20 21  1  0
 20 22  2  0
  9 23  1  0
 23 24  1  0
 24  6  1  0
 22 15  1  0
  1 25  1  0
  1 26  1  0
  1 27  1  0
  2 28  1  0
  2 29  1  0
  7 30  1  0
  7 31  1  0
  8 32  1  0
  8 33  1  0
 12 34  1  0
 16 35  1  0
 17 36  1  0
 22 37  1  0
 23 38  1  0
 23 39  1  0
 24 40  1  0
 24 41  1  0
M  END
$$$$
