
     RDKit          3D

 40 42  0  0  0  0  0  0  0  0999 V2000
   -6.3006    1.4019    0.3197 C   0  0  0  0  0  0  0  0  0  0  0  0
   -4.8656    0.9060    0.4847 C   0  0  0  0  0  0  0  0  0  0  0  0
   -3.9343    1.5672   -0.5511 C   0  0  0  0  0  0  0  0  0  0  0  0
   -2.4644    1.1666   -0.3423 C   0  0  0  0  0  0  0  0  0  0  0  0
   -2.3051   -0.3054   -0.0728 C   0  0  0  0  0  0  0  0  0  0  0  0
   -1.0647   -1.0514   -0.0651 C   0  0  0  0  0  0  0  0  0  0  0  0
    0.2735   -0.4969   -0.3445 C   0  0  0  0  0  0  0  0  0  0  0  0
    0.4084    0.4905   -1.0571 O   0  0  0  0  0  0  0  0  0  0  0  0
    1.3014   -1.1667    0.2988 N   0  0  0  0  0  0  0  0  0  0  0  0
    2.6852   -0.9139    0.2074 C   0  0  0  0  0  0  0  0  0  0  0  0
    3.2575    0.0244   -0.6515 C   0  0  0  0  0  0  0  0  0  0  0  0
    4.6476    0.2130   -0.6877 C   0  0  0  0  0  0  0  0  0  0  0  0
    5.4839   -0.5386    0.1349 C   0  0  0  0  0  0  0  0  0  0  0  0
    6.8443   -0.4608    0.2037 O   0  0  0  0  0  0  0  0  0  0  0  0
    7.4960    0.4760   -0.6369 C   0  0  0  0  0  0  0  0  0  0  0  0
    7.0999    1.7370   -0.3623 F   0  0  0  0  0  0  0  0  0  0  0  0
    7.2695    0.2032   -1.9395 F   0  0  0  0  0  0  0  0  0  0  0  0
    8.8278    0.3984   -0.4184 F   0  0  0  0  0  0  0  0  0  0  0  0
    4.9133   -1.4815    0.9920 C   0  0  0  0  0  0  0  0  0  0  0  0
    3.5280   -1.6699    1.0284 C   0  0  0  0  0  0  0  0  0  0  0  0
   -1.3156   -2.3882    0.2093 C   0  0  0  0  0  0  0  0  0  0  0  0
   -2.9629   -2.7202    0.5195 S   0  0  0  0  0  0  0  0  0  0  0  0
   -3.3879   -1.0980    0.2621 C   0  0  0  0  0  0  0  0  0  0  0  0
   -4.8087   -0.6317    0.3648 C   0  0  0  0  0  0  0  0  0  0  0  0
   -6.3525    2.4883    0.4473 H   0  0  0  0  0  0  0  0  0  0  0  0
   -6.9572    0.9446    1.0672 H   0  0  0  0  0  0  0  0  0  0  0  0
   -6.6948    1.1589   -0.6728 H   0  0  0  0  0  0  0  0  0  0  0  0
   -4.5202    1.1933    1.4875 H   0  0  0  0  0  0  0  0  0  0  0  0
   -4.2489    1.2729   -1.5615 H   0  0  0  0  0  0  0  0  0  0  0  0
   -4.0175    2.6594   -0.4998 H   0  0  0  0  0  0  0  0  0  0  0  0
   -1.8978    1.4603   -1.2319 H   0  0  0  0  0  0  0  0  0  0  0  0
   -2.0550    1.7214    0.5108 H   0  0  0  0  0  0  0  0  0  0  0  0
    1.0280   -1.8741    0.9660 H   0  0  0  0  0  0  0  0  0  0  0  0
    2.6524    0.6318   -1.3184 H   0  0  0  0  0  0  0  0  0  0  0  0
    5.0289    0.9604   -1.3782 H   0  0  0  0  0  0  0  0  0  0  0  0
    5.5504   -2.0787    1.6410 H   0  0  0  0  0  0  0  0  0  0  0  0
    3.1254   -2.4141    1.7106 H   0  0  0  0  0  0  0  0  0  0  0  0
   -0.6139   -3.2102    0.2346 H   0  0  0  0  0  0  0  0  0  0  0  0
   -5.3035   -1.0835    1.2330 H   0  0  0  0  0  0  0  0  0  0  0  0
   -5.3506   -0.9602   -0.5315 H   0  0  0  0  0  0  0  0  0  0  0  0
  1  2  1  0
  2  3  1  0
  3  4  1  0
  4  5  1  0
  5  6  1  0
  6  7  1  0
  7  8  2  0
  7  9  1  0
  9 10  1  0
 10 11  2  0
 11 12  1  0
 12 13  2  0
 13 14  1  0
 14 15  1  0
 15 16  1  0
 15 17  1  0
 15 18  1  0
 13 19  1  0
 19 20  2  0
  6 21  2  0
 21 22  1  0
 22 23  1  0
 23 24  1  0
 24  2  1  0
 23  5  2  0
 20 10  1  0
  1 25  1  0
  1 26  1  0
  1 27  1  0
  2 28  1  0
  3 29  1  0
  3 30  1  0
  4 31  1  0
  4 32  1  0
  9 33  1  0
 11 34  1  0
 12 35  1  0
 19 36  1  0
 20 37  1  0
 21 38  1  0
 24 39  1  0
 24 40  1  0
M  END
$$$$
