
     RDKit          3D

 35 36  0  0  0  0  0  0  0  0999 V2000
   -5.8694   -0.1088   -0.3310 C   0  0  0  0  0  0  0  0  0  0  0  0
   -4.3871   -0.0979   -0.1031 C   0  0  0  0  0  0  0  0  0  0  0  0
   -3.5036   -0.0420   -1.1861 C   0  0  0  0  0  0  0  0  0  0  0  0
   -2.1192   -0.0018   -0.9800 C   0  0  0  0  0  0  0  0  0  0  0  0
   -1.5973    0.0085    0.3178 C   0  0  0  0  0  0  0  0  0  0  0  0
   -0.1910    0.0386    0.5734 N   0  0  0  0  0  0  0  0  0  0  0  0
    0.2578   -0.3345    1.8022 N   0  0  0  0  0  0  0  0  0  0  0  0
    1.5780   -0.4475    1.6690 C   0  0  0  0  0  0  0  0  0  0  0  0
    2.3912   -0.9489    2.8053 C   0  0  0  0  0  0  0  0  0  0  0  0
    2.0186   -0.0360    0.3862 C   0  0  0  0  0  0  0  0  0  0  0  0
    3.3425   -0.0261   -0.0262 N   0  0  0  0  0  0  0  0  0  0  0  0
    3.8186    0.0349   -1.3217 C   0  0  0  0  0  0  0  0  0  0  0  0
    3.1378    0.0716   -2.3440 O   0  0  0  0  0  0  0  0  0  0  0  0
    5.3342    0.1096   -1.4246 C   0  0  0  0  0  0  0  0  0  0  0  0
    6.1405   -0.7291   -0.0768 Cl  0  0  0  0  0  0  0  0  0  0  0  0
    0.8729    0.4101   -0.2496 C   0  0  0  0  0  0  0  0  0  0  0  0
    0.7129    1.2277   -1.4824 C   0  0  0  0  0  0  0  0  0  0  0  0
   -2.4855   -0.0584    1.4035 C   0  0  0  0  0  0  0  0  0  0  0  0
   -3.8673   -0.0976    1.1940 C   0  0  0  0  0  0  0  0  0  0  0  0
   -6.1177   -0.6490   -1.2506 H   0  0  0  0  0  0  0  0  0  0  0  0
   -6.2437    0.9165   -0.4086 H   0  0  0  0  0  0  0  0  0  0  0  0
   -6.3889   -0.6134    0.4910 H   0  0  0  0  0  0  0  0  0  0  0  0
   -3.8872   -0.0434   -2.2046 H   0  0  0  0  0  0  0  0  0  0  0  0
   -1.4839   -0.0217   -1.8581 H   0  0  0  0  0  0  0  0  0  0  0  0
    2.9516   -1.8417    2.5083 H   0  0  0  0  0  0  0  0  0  0  0  0
    1.7661   -1.2129    3.6650 H   0  0  0  0  0  0  0  0  0  0  0  0
    3.1047   -0.1839    3.1288 H   0  0  0  0  0  0  0  0  0  0  0  0
    4.0254   -0.2921    0.6770 H   0  0  0  0  0  0  0  0  0  0  0  0
    5.6447    1.1578   -1.4198 H   0  0  0  0  0  0  0  0  0  0  0  0
    5.6582   -0.3698   -2.3521 H   0  0  0  0  0  0  0  0  0  0  0  0
    1.5717    1.8933   -1.6185 H   0  0  0  0  0  0  0  0  0  0  0  0
   -0.1574    1.8888   -1.4211 H   0  0  0  0  0  0  0  0  0  0  0  0
    0.6184    0.5945   -2.3688 H   0  0  0  0  0  0  0  0  0  0  0  0
   -2.1151   -0.0656    2.4274 H   0  0  0  0  0  0  0  0  0  0  0  0
   -4.5316   -0.1298    2.0546 H   0  0  0  0  0  0  0  0  0  0  0  0
  1  2  1  0
  2  3  2  0
  3  4  1  0
  4  5  2  0
  5  6  1  0
  6  7  1  0
  7  8  2  0
  8  9  1  0
  8 10  1  0
 10 11  1  0
 11 12  1  0
 12 13  2  0
 12 14  1  0
 14 15  1  0
 10 16  2  0
 16 17  1  0
  5 18  1  0
 18 19  2  0
 19  2  1  0
 16  6  1  0
  1 20  1  0
  1 21  1  0
  1 22  1  0
  3 23  1  0
  4 24  1  0
  9 25  1  0
  9 26  1  0
  9 27  1  0
 11 28  1  0
 14 29  1  0
 14 30  1  0
 17 31  1  0
 17 32  1  0
 17 33  1  0
 18 34  1  0
 19 35  1  0
M  END
$$$$
