
     RDKit          3D

 58 61  0  0  0  0  0  0  0  0999 V2000
    3.4764    2.3774   -6.8827 C   0  0  0  0  0  0  0  0  0  0  0  0
    3.9402    1.3539   -6.0121 O   0  0  0  0  0  0  0  0  0  0  0  0
    3.7413    1.5430   -4.6725 C   0  0  0  0  0  0  0  0  0  0  0  0
    4.2216    0.5143   -3.8597 C   0  0  0  0  0  0  0  0  0  0  0  0
    4.0872    0.5801   -2.4711 C   0  0  0  0  0  0  0  0  0  0  0  0
    3.4696    1.6842   -1.8717 C   0  0  0  0  0  0  0  0  0  0  0  0
    3.3012    1.7423   -0.3759 C   0  0  0  0  0  0  0  0  0  0  0  0
    2.1764    0.9359    0.0390 N   0  0  0  0  0  0  0  0  0  0  0  0
    2.3238   -0.3081    0.6075 C   0  0  0  0  0  0  0  0  0  0  0  0
    3.4369   -0.7411    0.9193 O   0  0  0  0  0  0  0  0  0  0  0  0
    1.0679   -1.1430    0.8559 C   0  0  0  0  0  0  0  0  0  0  0  0
    1.1231   -2.3546    0.0254 C   0  0  0  0  0  0  0  0  0  0  0  0
    1.1256   -3.3339   -0.6011 N   0  0  0  0  0  0  0  0  0  0  0  0
   -0.2606   -0.4351    0.6681 C   0  0  0  0  0  0  0  0  0  0  0  0
   -0.4155    0.3438   -0.4467 N   0  0  0  0  0  0  0  0  0  0  0  0
   -1.6021    0.9537   -0.6161 C   0  0  0  0  0  0  0  0  0  0  0  0
   -1.8150    1.7439   -1.7391 C   0  0  0  0  0  0  0  0  0  0  0  0
   -3.0295    2.3998   -1.9431 C   0  0  0  0  0  0  0  0  0  0  0  0
   -4.0466    2.2627   -1.0078 C   0  0  0  0  0  0  0  0  0  0  0  0
   -3.8406    1.4687    0.1214 C   0  0  0  0  0  0  0  0  0  0  0  0
   -2.6354    0.8099    0.3327 C   0  0  0  0  0  0  0  0  0  0  0  0
   -2.4759    0.0474    1.4302 N   0  0  0  0  0  0  0  0  0  0  0  0
   -1.2997   -0.5989    1.5981 C   0  0  0  0  0  0  0  0  0  0  0  0
   -1.1470   -1.4561    2.7098 N   0  0  0  0  0  0  0  0  0  0  0  0
   -1.7018   -2.7987    2.3681 C   0  0  0  0  0  0  0  0  0  0  0  0
   -2.0633   -3.5849    3.6474 C   0  0  0  0  0  0  0  0  0  0  0  0
   -3.1492   -2.9517    4.4280 N   0  0  0  0  0  0  0  0  0  0  0  0
   -3.0821   -3.3600    5.8281 C   0  0  0  0  0  0  0  0  0  0  0  0
   -3.1335   -1.4792    4.2764 C   0  0  0  0  0  0  0  0  0  0  0  0
   -1.7484   -0.8808    3.9442 C   0  0  0  0  0  0  0  0  0  0  0  0
    2.9789    2.7100   -2.6905 C   0  0  0  0  0  0  0  0  0  0  0  0
    3.1176    2.6420   -4.0819 C   0  0  0  0  0  0  0  0  0  0  0  0
    3.9893    3.3250   -6.6871 H   0  0  0  0  0  0  0  0  0  0  0  0
    3.7126    2.0767   -7.9080 H   0  0  0  0  0  0  0  0  0  0  0  0
    2.3900    2.4934   -6.8120 H   0  0  0  0  0  0  0  0  0  0  0  0
    4.7035   -0.3496   -4.3114 H   0  0  0  0  0  0  0  0  0  0  0  0
    4.4638   -0.2382   -1.8591 H   0  0  0  0  0  0  0  0  0  0  0  0
    3.0951    2.7695   -0.0554 H   0  0  0  0  0  0  0  0  0  0  0  0
    4.2234    1.4255    0.1234 H   0  0  0  0  0  0  0  0  0  0  0  0
    1.2804    1.1377   -0.4040 H   0  0  0  0  0  0  0  0  0  0  0  0
    1.1670   -1.4365    1.9090 H   0  0  0  0  0  0  0  0  0  0  0  0
   -1.0199    1.8462   -2.4742 H   0  0  0  0  0  0  0  0  0  0  0  0
   -3.1779    3.0104   -2.8304 H   0  0  0  0  0  0  0  0  0  0  0  0
   -4.9994    2.7656   -1.1537 H   0  0  0  0  0  0  0  0  0  0  0  0
   -4.6381    1.3558    0.8520 H   0  0  0  0  0  0  0  0  0  0  0  0
   -2.5954   -2.7227    1.7325 H   0  0  0  0  0  0  0  0  0  0  0  0
   -0.9477   -3.3650    1.8109 H   0  0  0  0  0  0  0  0  0  0  0  0
   -1.1527   -3.6784    4.2550 H   0  0  0  0  0  0  0  0  0  0  0  0
   -2.3760   -4.5985    3.3722 H   0  0  0  0  0  0  0  0  0  0  0  0
   -3.9451   -2.9741    6.3818 H   0  0  0  0  0  0  0  0  0  0  0  0
   -2.1699   -3.0043    6.3202 H   0  0  0  0  0  0  0  0  0  0  0  0
   -3.1183   -4.4518    5.9128 H   0  0  0  0  0  0  0  0  0  0  0  0
   -3.8292   -1.2319    3.4650 H   0  0  0  0  0  0  0  0  0  0  0  0
   -3.5398   -0.9884    5.1694 H   0  0  0  0  0  0  0  0  0  0  0  0
   -1.0623   -1.1049    4.7713 H   0  0  0  0  0  0  0  0  0  0  0  0
   -1.8073    0.2147    3.9038 H   0  0  0  0  0  0  0  0  0  0  0  0
    2.4852    3.5739   -2.2511 H   0  0  0  0  0  0  0  0  0  0  0  0
    2.7274    3.4627   -4.6737 H   0  0  0  0  0  0  0  0  0  0  0  0
  1  2  1  0
  2  3  1  0
  3  4  2  0
  4  5  1  0
  5  6  2  0
  6  7  1  0
  7  8  1  0
  8  9  1  0
  9 10  2  0
  9 11  1  0
 11 12  1  0
 12 13  3  0
 11 14  1  0
 14 15  2  0
 15 16  1  0
 16 17  2  0
 17 18  1  0
 18 19  2  0
 19 20  1  0
 20 21  2  0
 21 22  1  0
 22 23  2  0
 23 24  1  0
 24 25  1  0
 25 26  1  0
 26 27  1  0
 27 28  1  0
 27 29  1  0
 29 30  1  0
  6 31  1  0
 31 32  2  0
 32  3  1  0
 23 14  1  0
 30 24  1  0
 21 16  1  0
  1 33  1  0
  1 34  1  0
  1 35  1  0
  4 36  1  0
  5 37  1  0
  7 38  1  0
  7 39  1  0
  8 40  1  0
 11 41  1  0
 17 42  1  0
 18 43  1  0
 19 44  1  0
 20 45  1  0
 25 46  1  0
 25 47  1  0
 26 48  1  0
 26 49  1  0
 28 50  1  0
 28 51  1  0
 28 52  1  0
 29 53  1  0
 29 54  1  0
 30 55  1  0
 30 56  1  0
 31 57  1  0
 32 58  1  0
M  END
$$$$
