
     RDKit          3D

 33 35  0  0  0  0  0  0  0  0999 V2000
   -2.4294   -0.4385   -2.7771 C   0  0  0  0  0  0  0  0  0  0  0  0
   -1.8062   -0.3288   -1.5053 O   0  0  0  0  0  0  0  0  0  0  0  0
   -2.5811    0.0879   -0.4512 C   0  0  0  0  0  0  0  0  0  0  0  0
   -3.9444    0.3941   -0.5379 C   0  0  0  0  0  0  0  0  0  0  0  0
   -4.6524    0.7990    0.5979 C   0  0  0  0  0  0  0  0  0  0  0  0
   -4.0093    0.8974    1.8286 C   0  0  0  0  0  0  0  0  0  0  0  0
   -2.6520    0.5952    1.9246 C   0  0  0  0  0  0  0  0  0  0  0  0
   -1.9239    0.2016    0.7914 C   0  0  0  0  0  0  0  0  0  0  0  0
   -0.5586   -0.1206    0.9229 N   0  0  0  0  0  0  0  0  0  0  0  0
    0.1319    0.9213    0.8974 N   0  0  0  0  0  0  0  0  0  0  0  0
    1.5045    0.6487    0.9485 C   0  0  0  0  0  0  0  0  0  0  0  0
    2.3752    1.2632    1.8172 C   0  0  0  0  0  0  0  0  0  0  0  0
    2.2042    2.1697    2.7715 O   0  0  0  0  0  0  0  0  0  0  0  0
    3.6226    0.7639    1.5580 N   0  0  0  0  0  0  0  0  0  0  0  0
    3.5765   -0.1393    0.5165 C   0  0  0  0  0  0  0  0  0  0  0  0
    4.6051   -0.8716   -0.0885 C   0  0  0  0  0  0  0  0  0  0  0  0
    4.2608   -1.7163   -1.1491 C   0  0  0  0  0  0  0  0  0  0  0  0
    2.9398   -1.8167   -1.5805 C   0  0  0  0  0  0  0  0  0  0  0  0
    2.5152   -2.9666   -3.0228 Br  0  0  0  0  0  0  0  0  0  0  0  0
    1.9198   -1.0827   -0.9692 C   0  0  0  0  0  0  0  0  0  0  0  0
    2.2423   -0.2279    0.1054 C   0  0  0  0  0  0  0  0  0  0  0  0
   -2.8050    0.5318   -3.1182 H   0  0  0  0  0  0  0  0  0  0  0  0
   -1.6714   -0.7716   -3.4927 H   0  0  0  0  0  0  0  0  0  0  0  0
   -3.2258   -1.1897   -2.7629 H   0  0  0  0  0  0  0  0  0  0  0  0
   -4.4876    0.3245   -1.4744 H   0  0  0  0  0  0  0  0  0  0  0  0
   -5.7117    1.0331    0.5200 H   0  0  0  0  0  0  0  0  0  0  0  0
   -4.5628    1.2049    2.7120 H   0  0  0  0  0  0  0  0  0  0  0  0
   -2.1491    0.6628    2.8857 H   0  0  0  0  0  0  0  0  0  0  0  0
    1.2504    2.3798    2.7736 H   0  0  0  0  0  0  0  0  0  0  0  0
    4.4559    1.0393    2.0562 H   0  0  0  0  0  0  0  0  0  0  0  0
    5.6345   -0.7900    0.2458 H   0  0  0  0  0  0  0  0  0  0  0  0
    5.0417   -2.2953   -1.6365 H   0  0  0  0  0  0  0  0  0  0  0  0
    0.8904   -1.1625   -1.3068 H   0  0  0  0  0  0  0  0  0  0  0  0
  1  2  1  0
  2  3  1  0
  3  4  2  0
  4  5  1  0
  5  6  2  0
  6  7  1  0
  7  8  2  0
  8  9  1  0
  9 10  2  3
 10 11  1  0
 11 12  2  0
 12 13  1  0
 12 14  1  0
 14 15  1  0
 15 16  2  0
 16 17  1  0
 17 18  2  0
 18 19  1  0
 18 20  1  0
 20 21  2  0
  8  3  1  0
 21 11  1  0
 21 15  1  0
  1 22  1  0
  1 23  1  0
  1 24  1  0
  4 25  1  0
  5 26  1  0
  6 27  1  0
  7 28  1  0
 13 29  1  0
 14 30  1  0
 16 31  1  0
 17 32  1  0
 20 33  1  0
M  END
$$$$
