
     RDKit          3D

 34 36  0  0  0  0  0  0  0  0999 V2000
   -0.2714    0.6522    2.2212 O   0  0  0  0  0  0  0  0  0  0  0  0
   -0.5308   -0.1738    1.3503 C   0  0  0  0  0  0  0  0  0  0  0  0
   -1.9218   -0.7886    1.2640 C   0  0  0  0  0  0  0  0  0  0  0  0
   -2.8459   -0.0155    0.3491 C   0  0  0  0  0  0  0  0  0  0  0  0
   -3.3829    1.1948    0.8251 C   0  0  0  0  0  0  0  0  0  0  0  0
   -4.2588    1.9549    0.0446 C   0  0  0  0  0  0  0  0  0  0  0  0
   -4.6196    1.5254   -1.2305 C   0  0  0  0  0  0  0  0  0  0  0  0
   -4.0973    0.3366   -1.7345 C   0  0  0  0  0  0  0  0  0  0  0  0
   -3.2114   -0.4200   -0.9503 C   0  0  0  0  0  0  0  0  0  0  0  0
   -2.6770   -1.6390   -1.5492 N   0  0  0  0  0  4  0  0  0  0  0  0
   -3.4757   -2.3919   -2.1205 O   0  0  0  0  0  0  0  0  0  0  0  0
   -1.4550   -1.8333   -1.4527 O   0  0  0  0  0  1  0  0  0  0  0  0
    0.3264   -0.6338    0.3677 N   0  0  0  0  0  0  0  0  0  0  0  0
    1.6771   -0.2838    0.1646 C   0  0  0  0  0  0  0  0  0  0  0  0
    2.3991    0.5793    1.0111 C   0  0  0  0  0  0  0  0  0  0  0  0
    3.7425    0.8856    0.7541 C   0  0  0  0  0  0  0  0  0  0  0  0
    4.3328    0.3154   -0.3503 C   0  0  0  0  0  0  0  0  0  0  0  0
    3.6370   -0.5287   -1.1800 C   0  0  0  0  0  0  0  0  0  0  0  0
    2.3142   -0.8478   -0.9512 C   0  0  0  0  0  0  0  0  0  0  0  0
    4.3974   -0.9856   -2.2113 O   0  0  0  0  0  0  0  0  0  0  0  0
    5.6529   -0.3309   -1.9324 C   0  0  0  0  0  0  0  0  0  0  0  0
    5.6182    0.4974   -0.7519 O   0  0  0  0  0  0  0  0  0  0  0  0
   -2.3456   -0.7964    2.2775 H   0  0  0  0  0  0  0  0  0  0  0  0
   -1.8542   -1.8478    0.9956 H   0  0  0  0  0  0  0  0  0  0  0  0
   -3.1162    1.5593    1.8182 H   0  0  0  0  0  0  0  0  0  0  0  0
   -4.6596    2.8876    0.4370 H   0  0  0  0  0  0  0  0  0  0  0  0
   -5.3035    2.1207   -1.8314 H   0  0  0  0  0  0  0  0  0  0  0  0
   -4.3790    0.0118   -2.7346 H   0  0  0  0  0  0  0  0  0  0  0  0
   -0.0734   -1.2635   -0.3282 H   0  0  0  0  0  0  0  0  0  0  0  0
    1.9401    1.0296    1.8861 H   0  0  0  0  0  0  0  0  0  0  0  0
    4.2977    1.5504    1.4061 H   0  0  0  0  0  0  0  0  0  0  0  0
    1.7977   -1.5181   -1.6296 H   0  0  0  0  0  0  0  0  0  0  0  0
    6.4259   -1.0969   -1.8008 H   0  0  0  0  0  0  0  0  0  0  0  0
    5.9204    0.2944   -2.7920 H   0  0  0  0  0  0  0  0  0  0  0  0
  1  2  2  0
  2  3  1  0
  3  4  1  0
  4  5  2  0
  5  6  1  0
  6  7  2  0
  7  8  1  0
  8  9  2  0
  9 10  1  0
 10 11  2  0
 10 12  1  0
  2 13  1  0
 13 14  1  0
 14 15  2  0
 15 16  1  0
 16 17  2  0
 17 18  1  0
 18 19  2  0
 18 20  1  0
 20 21  1  0
 21 22  1  0
  9  4  1  0
 19 14  1  0
 22 17  1  0
  3 23  1  0
  3 24  1  0
  5 25  1  0
  6 26  1  0
  7 27  1  0
  8 28  1  0
 13 29  1  0
 15 30  1  0
 16 31  1  0
 19 32  1  0
 21 33  1  0
 21 34  1  0
M  CHG  2  10   1  12  -1
M  END
$$$$
