
     RDKit          3D

 46 49  0  0  0  0  0  0  0  0999 V2000
    5.6414   -1.9586   -2.4202 N   0  0  0  0  0  0  0  0  0  0  0  0
    5.6256   -0.3085   -2.1123 S   0  0  0  0  0  6  0  0  0  0  0  0
    6.6083   -0.0909   -1.0759 O   0  0  0  0  0  0  0  0  0  0  0  0
    5.7073    0.3366   -3.4020 O   0  0  0  0  0  0  0  0  0  0  0  0
    4.0085   -0.0758   -1.4412 C   0  0  0  0  0  0  0  0  0  0  0  0
    2.9422    0.2143   -2.2880 C   0  0  0  0  0  0  0  0  0  0  0  0
    1.6698    0.4192   -1.7431 C   0  0  0  0  0  0  0  0  0  0  0  0
    1.4293    0.3527   -0.3573 C   0  0  0  0  0  0  0  0  0  0  0  0
    0.1483    0.5595    0.1521 N   0  0  0  0  0  0  0  0  0  0  0  0
   -0.8915    0.8733   -0.6762 N   0  0  0  0  0  0  0  0  0  0  0  0
   -1.8962    1.2080    0.0755 C   0  0  0  0  0  0  0  0  0  0  0  0
   -3.2201    1.5943   -0.4663 C   0  0  0  0  0  0  0  0  0  0  0  0
   -4.2527    2.0361    0.3687 C   0  0  0  0  0  0  0  0  0  0  0  0
   -5.4895    2.3914   -0.1765 C   0  0  0  0  0  0  0  0  0  0  0  0
   -5.6990    2.3083   -1.5525 C   0  0  0  0  0  0  0  0  0  0  0  0
   -4.6733    1.8710   -2.3885 C   0  0  0  0  0  0  0  0  0  0  0  0
   -3.4364    1.5150   -1.8479 C   0  0  0  0  0  0  0  0  0  0  0  0
   -1.6129    1.2102    1.5524 C   0  0  0  0  0  0  0  0  0  0  0  0
   -0.2235    0.5698    1.5682 C   0  0  0  0  0  0  0  0  0  0  0  0
   -0.2712   -0.8206    2.1895 C   0  0  0  0  0  0  0  0  0  0  0  0
   -0.6731   -1.9512    1.4549 C   0  0  0  0  0  0  0  0  0  0  0  0
   -0.7289   -3.2091    2.0572 C   0  0  0  0  0  0  0  0  0  0  0  0
   -0.3907   -3.3422    3.3971 C   0  0  0  0  0  0  0  0  0  0  0  0
   -0.4454   -4.5488    3.9761 F   0  0  0  0  0  0  0  0  0  0  0  0
    0.0013   -2.2409    4.1479 C   0  0  0  0  0  0  0  0  0  0  0  0
    0.0586   -0.9815    3.5478 C   0  0  0  0  0  0  0  0  0  0  0  0
    2.5328    0.0705    0.4659 C   0  0  0  0  0  0  0  0  0  0  0  0
    3.8131   -0.1390   -0.0629 C   0  0  0  0  0  0  0  0  0  0  0  0
    6.3573   -2.4110   -1.8519 H   0  0  0  0  0  0  0  0  0  0  0  0
    5.7405   -2.1230   -3.4220 H   0  0  0  0  0  0  0  0  0  0  0  0
    3.0824    0.2836   -3.3637 H   0  0  0  0  0  0  0  0  0  0  0  0
    0.8456    0.6396   -2.4192 H   0  0  0  0  0  0  0  0  0  0  0  0
   -4.1206    2.1163    1.4431 H   0  0  0  0  0  0  0  0  0  0  0  0
   -6.2915    2.7349    0.4727 H   0  0  0  0  0  0  0  0  0  0  0  0
   -6.6620    2.5857   -1.9744 H   0  0  0  0  0  0  0  0  0  0  0  0
   -4.8340    1.8068   -3.4618 H   0  0  0  0  0  0  0  0  0  0  0  0
   -2.6434    1.1756   -2.5114 H   0  0  0  0  0  0  0  0  0  0  0  0
   -1.5705    2.2478    1.9004 H   0  0  0  0  0  0  0  0  0  0  0  0
   -2.3681    0.6569    2.1173 H   0  0  0  0  0  0  0  0  0  0  0  0
    0.4623    1.2093    2.1385 H   0  0  0  0  0  0  0  0  0  0  0  0
   -0.9356   -1.8574    0.4015 H   0  0  0  0  0  0  0  0  0  0  0  0
   -1.0312   -4.0819    1.4875 H   0  0  0  0  0  0  0  0  0  0  0  0
    0.2591   -2.3707    5.1942 H   0  0  0  0  0  0  0  0  0  0  0  0
    0.3652   -0.1269    4.1477 H   0  0  0  0  0  0  0  0  0  0  0  0
    2.4199    0.0028    1.5437 H   0  0  0  0  0  0  0  0  0  0  0  0
    4.6423   -0.3516    0.6079 H   0  0  0  0  0  0  0  0  0  0  0  0
  1  2  1  0
  2  3  2  0
  2  4  2  0
  2  5  1  0
  5  6  2  0
  6  7  1  0
  7  8  2  0
  8  9  1  0
  9 10  1  0
 10 11  2  0
 11 12  1  0
 12 13  2  0
 13 14  1  0
 14 15  2  0
 15 16  1  0
 16 17  2  0
 11 18  1  0
 18 19  1  0
 19 20  1  0
 20 21  2  0
 21 22  1  0
 22 23  2  0
 23 24  1  0
 23 25  1  0
 25 26  2  0
  8 27  1  0
 27 28  2  0
 28  5  1  0
 19  9  1  0
 26 20  1  0
 17 12  1  0
  1 29  1  0
  1 30  1  0
  6 31  1  0
  7 32  1  0
 13 33  1  0
 14 34  1  0
 15 35  1  0
 16 36  1  0
 17 37  1  0
 18 38  1  0
 18 39  1  0
 19 40  1  0
 21 41  1  0
 22 42  1  0
 25 43  1  0
 26 44  1  0
 27 45  1  0
 28 46  1  0
M  END
$$$$
