
     RDKit          3D

 40 42  0  0  0  0  0  0  0  0999 V2000
    6.2289   -0.5577   -0.1375 C   0  0  0  0  0  0  0  0  0  0  0  0
    5.5283    0.7313    0.2637 C   0  0  0  0  0  0  0  0  0  0  0  0
    4.0278    0.5832    0.2452 C   0  0  0  0  0  0  0  0  0  0  0  0
    3.3435    0.1515    1.3876 C   0  0  0  0  0  0  0  0  0  0  0  0
    1.9553   -0.0035    1.3653 C   0  0  0  0  0  0  0  0  0  0  0  0
    1.2325    0.2687    0.1982 C   0  0  0  0  0  0  0  0  0  0  0  0
   -0.2399    0.0984    0.2075 C   0  0  0  0  0  0  0  0  0  0  0  0
   -0.8927   -0.3445    1.2374 N   0  0  0  0  0  0  0  0  0  0  0  0
   -2.3333   -0.3897    0.8344 N   0  0  0  0  0  0  0  0  0  0  0  0
   -3.5076   -0.1205    2.0472 S   0  0  0  0  0  6  0  0  0  0  0  0
   -2.9359    1.4107    2.7549 C   0  0  0  0  0  0  0  0  0  0  0  0
   -3.3754   -1.1445    3.0636 O   0  0  0  0  0  0  0  0  0  0  0  0
   -4.7847    0.1440    1.4165 O   0  0  0  0  0  0  0  0  0  0  0  0
   -2.5116    0.3122   -0.4592 C   0  0  0  0  0  0  0  0  0  0  0  0
   -3.3756   -0.4854   -1.3951 C   0  0  0  0  0  0  0  0  0  0  0  0
   -3.6151   -1.8476   -1.4272 C   0  0  0  0  0  0  0  0  0  0  0  0
   -4.4956   -2.2224   -2.4821 C   0  0  0  0  0  0  0  0  0  0  0  0
   -4.8980   -1.1377   -3.2272 C   0  0  0  0  0  0  0  0  0  0  0  0
   -4.2157    0.3217   -2.6573 S   0  0  0  0  0  0  0  0  0  0  0  0
   -1.0808    0.4294   -0.9973 C   0  0  0  0  0  0  0  0  0  0  0  0
    1.9122    0.6897   -0.9492 C   0  0  0  0  0  0  0  0  0  0  0  0
    3.3019    0.8441   -0.9239 C   0  0  0  0  0  0  0  0  0  0  0  0
    7.3147   -0.4209   -0.1153 H   0  0  0  0  0  0  0  0  0  0  0  0
    5.9760   -1.3764    0.5447 H   0  0  0  0  0  0  0  0  0  0  0  0
    5.9462   -0.8650   -1.1501 H   0  0  0  0  0  0  0  0  0  0  0  0
    5.8270    1.5417   -0.4123 H   0  0  0  0  0  0  0  0  0  0  0  0
    5.8565    1.0355    1.2651 H   0  0  0  0  0  0  0  0  0  0  0  0
    3.8875   -0.0716    2.3034 H   0  0  0  0  0  0  0  0  0  0  0  0
    1.4482   -0.3440    2.2662 H   0  0  0  0  0  0  0  0  0  0  0  0
   -2.9098    2.1796    1.9813 H   0  0  0  0  0  0  0  0  0  0  0  0
   -1.9493    1.2605    3.1961 H   0  0  0  0  0  0  0  0  0  0  0  0
   -3.6436    1.7008    3.5351 H   0  0  0  0  0  0  0  0  0  0  0  0
   -2.9188    1.3162   -0.2897 H   0  0  0  0  0  0  0  0  0  0  0  0
   -3.1859   -2.5447   -0.7155 H   0  0  0  0  0  0  0  0  0  0  0  0
   -4.8222   -3.2363   -2.6782 H   0  0  0  0  0  0  0  0  0  0  0  0
   -5.5654   -1.1309   -4.0780 H   0  0  0  0  0  0  0  0  0  0  0  0
   -0.8576   -0.2847   -1.7977 H   0  0  0  0  0  0  0  0  0  0  0  0
   -0.8805    1.4454   -1.3512 H   0  0  0  0  0  0  0  0  0  0  0  0
    1.3901    0.8971   -1.8783 H   0  0  0  0  0  0  0  0  0  0  0  0
    3.8181    1.1663   -1.8263 H   0  0  0  0  0  0  0  0  0  0  0  0
  1  2  1  0
  2  3  1  0
  3  4  2  0
  4  5  1  0
  5  6  2  0
  6  7  1  0
  7  8  2  0
  8  9  1  0
  9 10  1  0
 10 11  1  0
 10 12  2  0
 10 13  2  0
  9 14  1  0
 14 15  1  0
 15 16  2  0
 16 17  1  0
 17 18  2  0
 18 19  1  0
 14 20  1  0
  6 21  1  0
 21 22  2  0
 22  3  1  0
 20  7  1  0
 19 15  1  0
  1 23  1  0
  1 24  1  0
  1 25  1  0
  2 26  1  0
  2 27  1  0
  4 28  1  0
  5 29  1  0
 11 30  1  0
 11 31  1  0
 11 32  1  0
 14 33  1  0
 16 34  1  0
 17 35  1  0
 18 36  1  0
 20 37  1  0
 20 38  1  0
 21 39  1  0
 22 40  1  0
M  END
$$$$
