
     RDKit          3D

 55 59  0  0  0  0  0  0  0  0999 V2000
    4.2481   -2.4861   -0.7671 C   0  0  0  0  0  0  0  0  0  0  0  0
    3.7848   -1.1671   -0.4136 N   0  0  0  0  0  0  0  0  0  0  0  0
    2.5817   -0.8521    0.1816 C   0  0  0  0  0  0  0  0  0  0  0  0
    1.6260   -1.7957    0.4184 N   0  0  0  0  0  0  0  0  0  0  0  0
    0.8815   -2.2793   -0.7681 C   0  0  0  0  0  0  0  0  0  0  0  0
   -0.2854   -1.3364   -1.1508 C   0  0  0  0  0  0  0  0  0  0  0  0
   -1.2161   -1.1391   -0.0224 N   0  0  0  0  0  0  0  0  0  0  0  0
   -2.4481   -0.4007   -0.3988 C   0  0  0  0  0  0  0  0  0  0  0  0
   -2.2280    1.0835   -0.7230 C   0  0  0  0  0  0  0  0  0  0  0  0
   -2.1794    2.0658    0.2824 C   0  0  0  0  0  0  0  0  0  0  0  0
   -1.9801    3.4099   -0.0383 C   0  0  0  0  0  0  0  0  0  0  0  0
   -1.8258    3.7948   -1.3678 C   0  0  0  0  0  0  0  0  0  0  0  0
   -1.8699    2.8373   -2.3781 C   0  0  0  0  0  0  0  0  0  0  0  0
   -2.0696    1.4925   -2.0591 C   0  0  0  0  0  0  0  0  0  0  0  0
   -3.6458   -0.6865    0.5358 C   0  0  0  0  0  0  0  0  0  0  0  0
   -3.6475   -1.7736    1.4294 C   0  0  0  0  0  0  0  0  0  0  0  0
   -4.7563   -2.0497    2.2349 C   0  0  0  0  0  0  0  0  0  0  0  0
   -5.8976   -1.2584    2.1476 C   0  0  0  0  0  0  0  0  0  0  0  0
   -5.9359   -0.1996    1.2459 C   0  0  0  0  0  0  0  0  0  0  0  0
   -4.8274    0.0753    0.4401 C   0  0  0  0  0  0  0  0  0  0  0  0
   -0.4650   -0.5722    1.1195 C   0  0  0  0  0  0  0  0  0  0  0  0
    0.7049   -1.4933    1.5423 C   0  0  0  0  0  0  0  0  0  0  0  0
    2.5461    0.4201    0.5086 N   0  0  0  0  0  0  0  0  0  0  0  0
    3.7154    0.9621    0.0424 C   0  0  0  0  0  0  0  0  0  0  0  0
    4.1659    2.2896    0.0952 C   0  0  0  0  0  0  0  0  0  0  0  0
    5.4141    2.6009   -0.4574 C   0  0  0  0  0  0  0  0  0  0  0  0
    6.1997    1.6095   -1.0482 C   0  0  0  0  0  0  0  0  0  0  0  0
    5.7684    0.2787   -1.1070 C   0  0  0  0  0  0  0  0  0  0  0  0
    4.5152   -0.0085   -0.5513 C   0  0  0  0  0  0  0  0  0  0  0  0
    5.3165   -2.5614   -0.5490 H   0  0  0  0  0  0  0  0  0  0  0  0
    3.7194   -3.2408   -0.1803 H   0  0  0  0  0  0  0  0  0  0  0  0
    4.0685   -2.6375   -1.8342 H   0  0  0  0  0  0  0  0  0  0  0  0
    1.5433   -2.4065   -1.6328 H   0  0  0  0  0  0  0  0  0  0  0  0
    0.4816   -3.2753   -0.5377 H   0  0  0  0  0  0  0  0  0  0  0  0
    0.1241   -0.3793   -1.4960 H   0  0  0  0  0  0  0  0  0  0  0  0
   -0.8157   -1.7925   -1.9951 H   0  0  0  0  0  0  0  0  0  0  0  0
   -2.8003   -0.8681   -1.3318 H   0  0  0  0  0  0  0  0  0  0  0  0
   -2.2989    1.7861    1.3274 H   0  0  0  0  0  0  0  0  0  0  0  0
   -1.9416    4.1545    0.7526 H   0  0  0  0  0  0  0  0  0  0  0  0
   -1.6658    4.8405   -1.6149 H   0  0  0  0  0  0  0  0  0  0  0  0
   -1.7453    3.1366   -3.4154 H   0  0  0  0  0  0  0  0  0  0  0  0
   -2.0978    0.7612   -2.8635 H   0  0  0  0  0  0  0  0  0  0  0  0
   -2.7804   -2.4265    1.5044 H   0  0  0  0  0  0  0  0  0  0  0  0
   -4.7273   -2.8890    2.9246 H   0  0  0  0  0  0  0  0  0  0  0  0
   -6.7598   -1.4739    2.7727 H   0  0  0  0  0  0  0  0  0  0  0  0
   -6.8305    0.4123    1.1627 H   0  0  0  0  0  0  0  0  0  0  0  0
   -4.8982    0.8982   -0.2693 H   0  0  0  0  0  0  0  0  0  0  0  0
   -1.1218   -0.4510    1.9879 H   0  0  0  0  0  0  0  0  0  0  0  0
   -0.0633    0.4164    0.8726 H   0  0  0  0  0  0  0  0  0  0  0  0
    1.2496   -1.0486    2.3851 H   0  0  0  0  0  0  0  0  0  0  0  0
    0.2973   -2.4438    1.9107 H   0  0  0  0  0  0  0  0  0  0  0  0
    3.5486    3.0522    0.5564 H   0  0  0  0  0  0  0  0  0  0  0  0
    5.7728    3.6267   -0.4226 H   0  0  0  0  0  0  0  0  0  0  0  0
    7.1672    1.8753   -1.4694 H   0  0  0  0  0  0  0  0  0  0  0  0
    6.3838   -0.4875   -1.5647 H   0  0  0  0  0  0  0  0  0  0  0  0
  1  2  1  0
  2  3  1  0
  3  4  1  0
  4  5  1  0
  5  6  1  0
  6  7  1  0
  7  8  1  0
  8  9  1  0
  9 10  2  0
 10 11  1  0
 11 12  2  0
 12 13  1  0
 13 14  2  0
  8 15  1  0
 15 16  2  0
 16 17  1  0
 17 18  2  0
 18 19  1  0
 19 20  2  0
  7 21  1  0
 21 22  1  0
  3 23  2  0
 23 24  1  0
 24 25  2  0
 25 26  1  0
 26 27  2  0
 27 28  1  0
 28 29  2  0
 29  2  1  0
 22  4  1  0
 29 24  1  0
 14  9  1  0
 20 15  1  0
  1 30  1  0
  1 31  1  0
  1 32  1  0
  5 33  1  0
  5 34  1  0
  6 35  1  0
  6 36  1  0
  8 37  1  0
 10 38  1  0
 11 39  1  0
 12 40  1  0
 13 41  1  0
 14 42  1  0
 16 43  1  0
 17 44  1  0
 18 45  1  0
 19 46  1  0
 20 47  1  0
 21 48  1  0
 21 49  1  0
 22 50  1  0
 22 51  1  0
 25 52  1  0
 26 53  1  0
 27 54  1  0
 28 55  1  0
M  END
$$$$
