
     RDKit          3D

 39 41  0  0  0  0  0  0  0  0999 V2000
   -3.9095   -2.5006    0.5974 C   0  0  0  0  0  0  0  0  0  0  0  0
   -3.5913   -2.5097   -0.8882 C   0  0  0  0  0  0  0  0  0  0  0  0
   -1.9023   -3.1168   -1.2164 S   0  0  0  0  0  0  0  0  0  0  0  0
   -0.9112   -1.7018   -0.7512 C   0  0  0  0  0  0  0  0  0  0  0  0
    0.4511   -1.8704   -0.6238 C   0  0  0  0  0  0  0  0  0  0  0  0
    1.2017   -0.7665   -0.2785 C   0  0  0  0  0  0  0  0  0  0  0  0
    2.5647   -0.8407   -0.1121 N   0  0  0  0  0  0  0  0  0  0  0  0
    3.4073   -1.8653   -0.7184 C   0  0  0  0  0  0  0  0  0  0  0  0
    4.7762   -1.1963   -0.8501 C   0  0  0  0  0  0  0  0  0  0  0  0
    4.7644   -0.1383    0.2416 C   0  0  0  0  0  0  0  0  0  0  0  0
    3.3244    0.3636    0.2034 C   0  0  0  0  0  0  0  0  0  0  0  0
    0.6016    0.4162   -0.0611 N   0  0  0  0  0  0  0  0  0  0  0  0
   -0.7325    0.4997   -0.2121 C   0  0  0  0  0  0  0  0  0  0  0  0
   -1.3713    1.8119    0.0258 C   0  0  0  0  0  0  0  0  0  0  0  0
   -0.6156    2.9373    0.4179 C   0  0  0  0  0  0  0  0  0  0  0  0
   -1.2172    4.1795    0.6444 C   0  0  0  0  0  0  0  0  0  0  0  0
   -2.5881    4.3150    0.4814 C   0  0  0  0  0  0  0  0  0  0  0  0
   -3.1660    5.5036    0.6977 F   0  0  0  0  0  0  0  0  0  0  0  0
   -3.3676    3.2337    0.0971 C   0  0  0  0  0  0  0  0  0  0  0  0
   -2.7623    1.9929   -0.1284 C   0  0  0  0  0  0  0  0  0  0  0  0
   -1.5220   -0.5257   -0.5613 N   0  0  0  0  0  0  0  0  0  0  0  0
   -3.2645   -1.8140    1.1541 H   0  0  0  0  0  0  0  0  0  0  0  0
   -3.8091   -3.5003    1.0335 H   0  0  0  0  0  0  0  0  0  0  0  0
   -4.9441   -2.1764    0.7520 H   0  0  0  0  0  0  0  0  0  0  0  0
   -4.2818   -3.1943   -1.3924 H   0  0  0  0  0  0  0  0  0  0  0  0
   -3.7459   -1.5223   -1.3339 H   0  0  0  0  0  0  0  0  0  0  0  0
    0.9042   -2.8401   -0.7762 H   0  0  0  0  0  0  0  0  0  0  0  0
    3.4641   -2.7363   -0.0563 H   0  0  0  0  0  0  0  0  0  0  0  0
    3.0533   -2.1868   -1.7041 H   0  0  0  0  0  0  0  0  0  0  0  0
    4.8631   -0.7157   -1.8322 H   0  0  0  0  0  0  0  0  0  0  0  0
    5.6006   -1.9073   -0.7460 H   0  0  0  0  0  0  0  0  0  0  0  0
    4.9794   -0.6000    1.2129 H   0  0  0  0  0  0  0  0  0  0  0  0
    5.4919    0.6596    0.0695 H   0  0  0  0  0  0  0  0  0  0  0  0
    3.0357    0.7997    1.1656 H   0  0  0  0  0  0  0  0  0  0  0  0
    3.2078    1.1157   -0.5866 H   0  0  0  0  0  0  0  0  0  0  0  0
    0.4619    2.8481    0.5514 H   0  0  0  0  0  0  0  0  0  0  0  0
   -0.6225    5.0357    0.9459 H   0  0  0  0  0  0  0  0  0  0  0  0
   -4.4386    3.3578   -0.0258 H   0  0  0  0  0  0  0  0  0  0  0  0
   -3.3901    1.1556   -0.4300 H   0  0  0  0  0  0  0  0  0  0  0  0
  1  2  1  0
  2  3  1  0
  3  4  1  0
  4  5  2  0
  5  6  1  0
  6  7  1  0
  7  8  1  0
  8  9  1  0
  9 10  1  0
 10 11  1  0
  6 12  2  0
 12 13  1  0
 13 14  1  0
 14 15  2  0
 15 16  1  0
 16 17  2  0
 17 18  1  0
 17 19  1  0
 19 20  2  0
 13 21  2  0
 21  4  1  0
 11  7  1  0
 20 14  1  0
  1 22  1  0
  1 23  1  0
  1 24  1  0
  2 25  1  0
  2 26  1  0
  5 27  1  0
  8 28  1  0
  8 29  1  0
  9 30  1  0
  9 31  1  0
 10 32  1  0
 10 33  1  0
 11 34  1  0
 11 35  1  0
 15 36  1  0
 16 37  1  0
 19 38  1  0
 20 39  1  0
M  END
$$$$
