
     RDKit          3D

 41 43  0  0  0  0  0  0  0  0999 V2000
    3.6639   -4.0126   -3.4936 Cl  0  0  0  0  0  0  0  0  0  0  0  0
    4.4280   -2.7465   -2.6000 C   0  0  0  0  0  0  0  0  0  0  0  0
    5.5924   -3.0714   -1.8958 C   0  0  0  0  0  0  0  0  0  0  0  0
    6.2634   -2.0967   -1.1597 C   0  0  0  0  0  0  0  0  0  0  0  0
    5.7700   -0.7958   -1.1229 C   0  0  0  0  0  0  0  0  0  0  0  0
    4.6085   -0.4688   -1.8240 C   0  0  0  0  0  0  0  0  0  0  0  0
    3.9200   -1.4363   -2.5784 C   0  0  0  0  0  0  0  0  0  0  0  0
    2.6677   -1.0299   -3.3195 C   0  0  0  0  0  0  0  0  0  0  0  0
    1.1457   -1.4231   -2.4109 S   0  0  0  0  0  0  0  0  0  0  0  0
    1.0411   -0.0914   -1.3131 C   0  0  0  0  0  0  0  0  0  0  0  0
    1.6282    1.0800   -1.4353 N   0  0  0  0  0  0  0  0  0  0  0  0
    1.2899    1.8372   -0.3366 N   0  0  0  0  0  0  0  0  0  0  0  0
    0.4878    1.1112    0.4103 C   0  0  0  0  0  0  0  0  0  0  0  0
    0.2832   -0.1107   -0.1674 N   0  0  0  0  0  0  0  0  0  0  0  0
   -0.4923   -1.1918    0.3735 N   0  0  0  0  0  0  0  0  0  0  0  0
   -1.8493   -1.2127   -0.1578 C   0  0  0  0  0  0  0  0  0  0  0  0
   -2.8295   -0.2402    0.4373 C   0  0  0  0  0  0  0  0  0  0  0  0
   -2.7829    0.3439    1.6469 C   0  0  0  0  0  0  0  0  0  0  0  0
   -3.7887    1.2972    2.1429 C   0  0  0  0  0  0  0  0  0  0  0  0
   -5.1500    1.1908    1.8271 C   0  0  0  0  0  0  0  0  0  0  0  0
   -6.0748    2.1036    2.3423 C   0  0  0  0  0  0  0  0  0  0  0  0
   -5.6520    3.1230    3.1916 C   0  0  0  0  0  0  0  0  0  0  0  0
   -4.3046    3.2302    3.5277 C   0  0  0  0  0  0  0  0  0  0  0  0
   -3.3789    2.3202    3.0099 C   0  0  0  0  0  0  0  0  0  0  0  0
    5.9823   -4.0863   -1.9184 H   0  0  0  0  0  0  0  0  0  0  0  0
    7.1700   -2.3512   -0.6159 H   0  0  0  0  0  0  0  0  0  0  0  0
    6.2865   -0.0313   -0.5467 H   0  0  0  0  0  0  0  0  0  0  0  0
    4.2386    0.5548   -1.7782 H   0  0  0  0  0  0  0  0  0  0  0  0
    2.6278   -1.5396   -4.2879 H   0  0  0  0  0  0  0  0  0  0  0  0
    2.6978    0.0368   -3.5715 H   0  0  0  0  0  0  0  0  0  0  0  0
    0.0454    1.4136    1.3468 H   0  0  0  0  0  0  0  0  0  0  0  0
   -0.4939   -1.2266    1.3877 H   0  0  0  0  0  0  0  0  0  0  0  0
   -2.2566   -2.2198   -0.0056 H   0  0  0  0  0  0  0  0  0  0  0  0
   -1.8327   -1.0674   -1.2452 H   0  0  0  0  0  0  0  0  0  0  0  0
   -3.6624   -0.0113   -0.2285 H   0  0  0  0  0  0  0  0  0  0  0  0
   -1.9732    0.1345    2.3396 H   0  0  0  0  0  0  0  0  0  0  0  0
   -5.5125    0.3919    1.1840 H   0  0  0  0  0  0  0  0  0  0  0  0
   -7.1273    2.0106    2.0855 H   0  0  0  0  0  0  0  0  0  0  0  0
   -6.3720    3.8317    3.5929 H   0  0  0  0  0  0  0  0  0  0  0  0
   -3.9725    4.0225    4.1934 H   0  0  0  0  0  0  0  0  0  0  0  0
   -2.3319    2.4280    3.2848 H   0  0  0  0  0  0  0  0  0  0  0  0
  1  2  1  0
  2  3  2  0
  3  4  1  0
  4  5  2  0
  5  6  1  0
  6  7  2  0
  7  8  1  0
  8  9  1  0
  9 10  1  0
 10 11  2  0
 11 12  1  0
 12 13  2  0
 13 14  1  0
 14 15  1  0
 15 16  1  0
 16 17  1  0
 17 18  2  3
 18 19  1  0
 19 20  2  0
 20 21  1  0
 21 22  2  0
 22 23  1  0
 23 24  2  0
  7  2  1  0
 14 10  1  0
 24 19  1  0
  3 25  1  0
  4 26  1  0
  5 27  1  0
  6 28  1  0
  8 29  1  0
  8 30  1  0
 13 31  1  0
 15 32  1  0
 16 33  1  0
 16 34  1  0
 17 35  1  0
 18 36  1  0
 20 37  1  0
 21 38  1  0
 22 39  1  0
 23 40  1  0
 24 41  1  0
M  END
$$$$
