
     RDKit          3D

 57 61  0  0  0  0  0  0  0  0999 V2000
   -4.6173    2.1592    3.4306 C   0  0  0  0  0  0  0  0  0  0  0  0
   -5.7008    1.7654    2.5112 N   0  0  0  0  0  0  0  0  0  0  0  0
   -5.9677    2.7711    1.4692 C   0  0  0  0  0  0  0  0  0  0  0  0
   -5.7778    0.1336    2.0382 S   0  0  0  0  0  6  0  0  0  0  0  0
   -6.9627   -0.0323    1.2215 O   0  0  0  0  0  0  0  0  0  0  0  0
   -5.5463   -0.7053    3.1935 O   0  0  0  0  0  0  0  0  0  0  0  0
   -4.3696   -0.0539    0.9616 C   0  0  0  0  0  0  0  0  0  0  0  0
   -4.5522   -0.1255   -0.4165 C   0  0  0  0  0  0  0  0  0  0  0  0
   -3.4480   -0.3209   -1.2486 C   0  0  0  0  0  0  0  0  0  0  0  0
   -2.1427   -0.4331   -0.7305 C   0  0  0  0  0  0  0  0  0  0  0  0
   -1.0517   -0.6967   -1.5782 N   0  0  0  0  0  0  0  0  0  0  0  0
   -0.9091   -2.1345   -1.9213 C   0  0  0  0  0  0  0  0  0  0  0  0
   -0.4756   -2.1591   -3.3885 C   0  0  0  0  0  0  0  0  0  0  0  0
    0.0523   -0.7572   -3.6413 C   0  0  0  0  0  0  0  0  0  0  0  0
   -0.8949    0.0995   -2.8098 C   0  0  0  0  0  0  0  0  0  0  0  0
   -1.9732   -0.3533    0.6789 C   0  0  0  0  0  0  0  0  0  0  0  0
   -0.6348   -0.3937    1.3759 C   0  0  0  0  0  0  0  0  0  0  0  0
   -0.6133   -0.4808    2.6007 O   0  0  0  0  0  0  0  0  0  0  0  0
    0.4555   -0.3071    0.5490 N   0  0  0  0  0  0  0  0  0  0  0  0
    1.7818   -0.2772    0.8797 C   0  0  0  0  0  0  0  0  0  0  0  0
    2.7062   -0.2444   -0.0478 N   0  0  0  0  0  0  0  0  0  0  0  0
    3.9684   -0.1947    0.5403 C   0  0  0  0  0  0  0  0  0  0  0  0
    3.9610   -0.1904    1.9359 C   0  0  0  0  0  0  0  0  0  0  0  0
    5.1434   -0.1392    2.6925 C   0  0  0  0  0  0  0  0  0  0  0  0
    6.3664   -0.0900    2.0160 C   0  0  0  0  0  0  0  0  0  0  0  0
    6.4247   -0.0900    0.6177 C   0  0  0  0  0  0  0  0  0  0  0  0
    7.6470   -0.0359   -0.0706 C   0  0  0  0  0  0  0  0  0  0  0  0
    7.6794   -0.0352   -1.4695 C   0  0  0  0  0  0  0  0  0  0  0  0
    6.4938   -0.0908   -2.2024 C   0  0  0  0  0  0  0  0  0  0  0  0
    5.2685   -0.1455   -1.5400 C   0  0  0  0  0  0  0  0  0  0  0  0
    5.2239   -0.1450   -0.1321 C   0  0  0  0  0  0  0  0  0  0  0  0
    2.3315   -0.2520    2.4854 S   0  0  0  0  0  0  0  0  0  0  0  0
   -3.0951   -0.1914    1.5118 C   0  0  0  0  0  0  0  0  0  0  0  0
   -4.4399    1.4015    4.1959 H   0  0  0  0  0  0  0  0  0  0  0  0
   -3.6887    2.3493    2.8858 H   0  0  0  0  0  0  0  0  0  0  0  0
   -4.9019    3.0728    3.9566 H   0  0  0  0  0  0  0  0  0  0  0  0
   -5.1232    2.8542    0.7794 H   0  0  0  0  0  0  0  0  0  0  0  0
   -6.8746    2.5297    0.9085 H   0  0  0  0  0  0  0  0  0  0  0  0
   -6.1338    3.7501    1.9319 H   0  0  0  0  0  0  0  0  0  0  0  0
   -5.5464   -0.0588   -0.8521 H   0  0  0  0  0  0  0  0  0  0  0  0
   -3.6296   -0.4219   -2.3151 H   0  0  0  0  0  0  0  0  0  0  0  0
   -1.8346   -2.7055   -1.7943 H   0  0  0  0  0  0  0  0  0  0  0  0
   -0.1410   -2.5815   -1.2848 H   0  0  0  0  0  0  0  0  0  0  0  0
    0.2688   -2.9345   -3.5899 H   0  0  0  0  0  0  0  0  0  0  0  0
   -1.3444   -2.3513   -4.0298 H   0  0  0  0  0  0  0  0  0  0  0  0
    0.0471   -0.4875   -4.7015 H   0  0  0  0  0  0  0  0  0  0  0  0
    1.0769   -0.6682   -3.2633 H   0  0  0  0  0  0  0  0  0  0  0  0
   -1.8349    0.2376   -3.3564 H   0  0  0  0  0  0  0  0  0  0  0  0
   -0.4624    1.0823   -2.5917 H   0  0  0  0  0  0  0  0  0  0  0  0
    0.2744   -0.3065   -0.4489 H   0  0  0  0  0  0  0  0  0  0  0  0
    5.1121   -0.1375    3.7781 H   0  0  0  0  0  0  0  0  0  0  0  0
    7.2832   -0.0482    2.6031 H   0  0  0  0  0  0  0  0  0  0  0  0
    8.5865    0.0109    0.4759 H   0  0  0  0  0  0  0  0  0  0  0  0
    8.6358    0.0078   -1.9871 H   0  0  0  0  0  0  0  0  0  0  0  0
    6.5227   -0.0915   -3.2886 H   0  0  0  0  0  0  0  0  0  0  0  0
    4.3463   -0.1874   -2.1171 H   0  0  0  0  0  0  0  0  0  0  0  0
   -2.9696   -0.1697    2.5931 H   0  0  0  0  0  0  0  0  0  0  0  0
  1  2  1  0
  2  3  1  0
  2  4  1  0
  4  5  2  0
  4  6  2  0
  4  7  1  0
  7  8  2  0
  8  9  1  0
  9 10  2  0
 10 11  1  0
 11 12  1  0
 12 13  1  0
 13 14  1  0
 14 15  1  0
 10 16  1  0
 16 17  1  0
 17 18  2  0
 17 19  1  0
 19 20  1  0
 20 21  2  0
 21 22  1  0
 22 23  2  0
 23 24  1  0
 24 25  2  0
 25 26  1  0
 26 27  2  0
 27 28  1  0
 28 29  2  0
 29 30  1  0
 30 31  2  0
 23 32  1  0
 16 33  2  0
 33  7  1  0
 15 11  1  0
 32 20  1  0
 31 22  1  0
 31 26  1  0
  1 34  1  0
  1 35  1  0
  1 36  1  0
  3 37  1  0
  3 38  1  0
  3 39  1  0
  8 40  1  0
  9 41  1  0
 12 42  1  0
 12 43  1  0
 13 44  1  0
 13 45  1  0
 14 46  1  0
 14 47  1  0
 15 48  1  0
 15 49  1  0
 19 50  1  0
 24 51  1  0
 25 52  1  0
 27 53  1  0
 28 54  1  0
 29 55  1  0
 30 56  1  0
 33 57  1  0
M  END
$$$$
