
     RDKit          3D

 41 42  0  0  0  0  0  0  0  0999 V2000
   -1.9213    0.3428   -3.4627 O   0  0  0  0  0  0  0  0  0  0  0  0
   -1.3088    0.4379   -2.4017 C   0  0  0  0  0  0  0  0  0  0  0  0
    0.1783    0.1094   -2.2934 C   0  0  0  0  0  0  0  0  0  0  0  0
    0.6078    0.0525   -0.9348 O   0  0  0  0  0  0  0  0  0  0  0  0
    1.9590   -0.3269   -0.9078 N   0  0  0  0  0  0  0  0  0  0  0  0
    2.3684   -0.3444    0.3197 C   0  0  0  0  0  0  0  0  0  0  0  0
    3.7511   -0.7154    0.6748 C   0  0  0  0  0  0  0  0  0  0  0  0
    4.1119   -0.7375    2.0266 C   0  0  0  0  0  0  0  0  0  0  0  0
    5.4127   -1.0864    2.3964 C   0  0  0  0  0  0  0  0  0  0  0  0
    6.3548   -1.4101    1.4188 C   0  0  0  0  0  0  0  0  0  0  0  0
    5.9862   -1.3857    0.0658 C   0  0  0  0  0  0  0  0  0  0  0  0
    6.9794   -1.7250   -0.9607 N   0  0  0  0  0  4  0  0  0  0  0  0
    6.6136   -1.7164   -2.1439 O   0  0  0  0  0  0  0  0  0  0  0  0
    8.1262   -2.0010   -0.5813 O   0  0  0  0  0  1  0  0  0  0  0  0
    4.6843   -1.0378   -0.3148 C   0  0  0  0  0  0  0  0  0  0  0  0
   -1.8935    0.8695   -1.2280 N   0  0  0  0  0  0  0  0  0  0  0  0
   -3.3270    1.1026   -1.1127 C   0  0  0  0  0  0  0  0  0  0  0  0
   -4.0873   -0.2202   -0.8984 C   0  0  0  0  0  0  0  0  0  0  0  0
   -4.3196   -0.5068    0.5806 C   0  0  0  0  0  0  0  0  0  0  0  0
   -5.1565    0.5877    1.2462 C   0  0  0  0  0  0  0  0  0  0  0  0
   -4.9834    1.9644    0.6019 C   0  0  0  0  0  0  0  0  0  0  0  0
   -3.5953    2.1322   -0.0023 C   0  0  0  0  0  0  0  0  0  0  0  0
    0.7382    0.8878   -2.8216 H   0  0  0  0  0  0  0  0  0  0  0  0
    0.3433   -0.8640   -2.7674 H   0  0  0  0  0  0  0  0  0  0  0  0
    1.6869   -0.0825    1.1502 H   0  0  0  0  0  0  0  0  0  0  0  0
    3.3900   -0.4817    2.8008 H   0  0  0  0  0  0  0  0  0  0  0  0
    5.6939   -1.1046    3.4471 H   0  0  0  0  0  0  0  0  0  0  0  0
    7.3646   -1.6790    1.7249 H   0  0  0  0  0  0  0  0  0  0  0  0
    4.3958   -1.0090   -1.3638 H   0  0  0  0  0  0  0  0  0  0  0  0
   -1.3514    0.7220   -0.3833 H   0  0  0  0  0  0  0  0  0  0  0  0
   -3.6634    1.5222   -2.0697 H   0  0  0  0  0  0  0  0  0  0  0  0
   -3.5606   -1.0622   -1.3621 H   0  0  0  0  0  0  0  0  0  0  0  0
   -5.0643   -0.1536   -1.3947 H   0  0  0  0  0  0  0  0  0  0  0  0
   -4.8175   -1.4741    0.7056 H   0  0  0  0  0  0  0  0  0  0  0  0
   -3.3510   -0.5865    1.0897 H   0  0  0  0  0  0  0  0  0  0  0  0
   -6.2186    0.3152    1.2128 H   0  0  0  0  0  0  0  0  0  0  0  0
   -4.8883    0.6371    2.3087 H   0  0  0  0  0  0  0  0  0  0  0  0
   -5.7370    2.0971   -0.1842 H   0  0  0  0  0  0  0  0  0  0  0  0
   -5.1712    2.7445    1.3487 H   0  0  0  0  0  0  0  0  0  0  0  0
   -3.4808    3.1437   -0.4089 H   0  0  0  0  0  0  0  0  0  0  0  0
   -2.8495    2.0421    0.7990 H   0  0  0  0  0  0  0  0  0  0  0  0
  1  2  2  0
  2  3  1  0
  3  4  1  0
  4  5  1  0
  5  6  2  3
  6  7  1  0
  7  8  2  0
  8  9  1  0
  9 10  2  0
 10 11  1  0
 11 12  1  0
 12 13  2  0
 12 14  1  0
 11 15  2  0
  2 16  1  0
 16 17  1  0
 17 18  1  0
 18 19  1  0
 19 20  1  0
 20 21  1  0
 21 22  1  0
 15  7  1  0
 22 17  1  0
  3 23  1  0
  3 24  1  0
  6 25  1  0
  8 26  1  0
  9 27  1  0
 10 28  1  0
 15 29  1  0
 16 30  1  0
 17 31  1  0
 18 32  1  0
 18 33  1  0
 19 34  1  0
 19 35  1  0
 20 36  1  0
 20 37  1  0
 21 38  1  0
 21 39  1  0
 22 40  1  0
 22 41  1  0
M  CHG  2  12   1  14  -1
M  END
$$$$
