
     RDKit          3D

 43 46  0  0  0  0  0  0  0  0999 V2000
   -4.4544   -3.0532   -1.2353 C   0  0  0  0  0  0  0  0  0  0  0  0
   -3.9899   -1.6744   -1.2651 N   0  0  0  0  0  0  0  0  0  0  0  0
   -4.9492   -0.6703   -1.3845 C   0  0  0  0  0  0  0  0  0  0  0  0
   -6.1560   -0.8899   -1.4555 O   0  0  0  0  0  0  0  0  0  0  0  0
   -4.4664    0.7842   -1.4262 C   0  0  0  0  0  0  0  0  0  0  0  0
   -5.3041    1.6769   -1.5300 O   0  0  0  0  0  0  0  0  0  0  0  0
   -3.0955    1.0198   -1.3404 N   0  0  0  0  0  0  0  0  0  0  0  0
   -2.6412    2.4021   -1.3921 C   0  0  0  0  0  0  0  0  0  0  0  0
   -2.1588   -0.0420   -1.2130 C   0  0  0  0  0  0  0  0  0  0  0  0
   -0.7818    0.2241   -1.1205 C   0  0  0  0  0  0  0  0  0  0  0  0
    0.1378   -0.8205   -0.9871 C   0  0  0  0  0  0  0  0  0  0  0  0
    1.8715   -0.4276   -0.8762 S   0  0  0  0  0  6  0  0  0  0  0  0
    2.5998   -1.6770   -0.7936 O   0  0  0  0  0  0  0  0  0  0  0  0
    2.1310    0.5257   -1.9346 O   0  0  0  0  0  0  0  0  0  0  0  0
    1.9483    0.3457    0.6389 N   0  0  0  0  0  0  0  0  0  0  0  0
    1.5307   -0.4799    1.8243 C   0  0  0  0  0  0  0  0  0  0  0  0
    2.3010    0.0785    3.0307 C   0  0  0  0  0  0  0  0  0  0  0  0
    3.4244    0.8087    2.3732 C   0  0  0  0  0  0  0  0  0  0  0  0
    4.5402    1.3634    2.9817 C   0  0  0  0  0  0  0  0  0  0  0  0
    5.4369    2.0812    2.1896 C   0  0  0  0  0  0  0  0  0  0  0  0
    5.1949    2.2531    0.8190 C   0  0  0  0  0  0  0  0  0  0  0  0
    4.0596    1.6980    0.2200 C   0  0  0  0  0  0  0  0  0  0  0  0
    3.2003    0.9474    1.0035 C   0  0  0  0  0  0  0  0  0  0  0  0
   -0.2880   -2.1419   -0.9607 C   0  0  0  0  0  0  0  0  0  0  0  0
   -1.6531   -2.4145   -1.0533 C   0  0  0  0  0  0  0  0  0  0  0  0
   -2.6021   -1.3791   -1.1768 C   0  0  0  0  0  0  0  0  0  0  0  0
   -4.1594   -3.5164   -0.2883 H   0  0  0  0  0  0  0  0  0  0  0  0
   -5.5428   -3.1249   -1.3143 H   0  0  0  0  0  0  0  0  0  0  0  0
   -4.0243   -3.6007   -2.0801 H   0  0  0  0  0  0  0  0  0  0  0  0
   -1.9807    2.5365   -2.2547 H   0  0  0  0  0  0  0  0  0  0  0  0
   -2.1146    2.6470   -0.4642 H   0  0  0  0  0  0  0  0  0  0  0  0
   -3.4715    3.1060   -1.4980 H   0  0  0  0  0  0  0  0  0  0  0  0
   -0.3931    1.2391   -1.1505 H   0  0  0  0  0  0  0  0  0  0  0  0
    0.4502   -0.4123    1.9834 H   0  0  0  0  0  0  0  0  0  0  0  0
    1.7994   -1.5330    1.6796 H   0  0  0  0  0  0  0  0  0  0  0  0
    1.6799    0.7803    3.5974 H   0  0  0  0  0  0  0  0  0  0  0  0
    2.6470   -0.7229    3.6897 H   0  0  0  0  0  0  0  0  0  0  0  0
    4.7112    1.2561    4.0483 H   0  0  0  0  0  0  0  0  0  0  0  0
    6.3216    2.5264    2.6395 H   0  0  0  0  0  0  0  0  0  0  0  0
    5.8911    2.8328    0.2170 H   0  0  0  0  0  0  0  0  0  0  0  0
    3.8763    1.8683   -0.8350 H   0  0  0  0  0  0  0  0  0  0  0  0
    0.4235   -2.9608   -0.8752 H   0  0  0  0  0  0  0  0  0  0  0  0
   -1.9495   -3.4599   -1.0306 H   0  0  0  0  0  0  0  0  0  0  0  0
  1  2  1  0
  2  3  1  0
  3  4  2  0
  3  5  1  0
  5  6  2  0
  5  7  1  0
  7  8  1  0
  7  9  1  0
  9 10  2  0
 10 11  1  0
 11 12  1  0
 12 13  2  0
 12 14  2  0
 12 15  1  0
 15 16  1  0
 16 17  1  0
 17 18  1  0
 18 19  2  0
 19 20  1  0
 20 21  2  0
 21 22  1  0
 22 23  2  0
 11 24  2  0
 24 25  1  0
 25 26  2  0
 26  2  1  0
 26  9  1  0
 23 15  1  0
 23 18  1  0
  1 27  1  0
  1 28  1  0
  1 29  1  0
  8 30  1  0
  8 31  1  0
  8 32  1  0
 10 33  1  0
 16 34  1  0
 16 35  1  0
 17 36  1  0
 17 37  1  0
 19 38  1  0
 20 39  1  0
 21 40  1  0
 22 41  1  0
 24 42  1  0
 25 43  1  0
M  END
$$$$
