
     RDKit          3D

 45 47  0  0  0  0  0  0  0  0999 V2000
    7.1541    0.3045    2.0525 C   0  0  0  0  0  0  0  0  0  0  0  0
    5.7843    0.6457    1.5458 C   0  0  0  0  0  0  0  0  0  0  0  0
    5.5395    1.8683    0.9173 C   0  0  0  0  0  0  0  0  0  0  0  0
    4.2674    2.1634    0.4221 C   0  0  0  0  0  0  0  0  0  0  0  0
    3.2154    1.2387    0.5394 C   0  0  0  0  0  0  0  0  0  0  0  0
    1.9042    1.5865    0.0056 C   0  0  0  0  0  0  0  0  0  0  0  0
    1.2397    2.7538    0.3266 C   0  0  0  0  0  0  0  0  0  0  0  0
   -0.2748    2.8018   -0.4707 S   0  0  0  0  0  0  0  0  0  0  0  0
    0.0595    1.2669   -1.1945 C   0  0  0  0  0  0  0  0  0  0  0  0
   -0.9157    0.5797   -2.1088 C   0  0  0  0  0  0  0  0  0  0  0  0
   -1.3472    1.4480   -3.2073 C   0  0  0  0  0  0  0  0  0  0  0  0
   -1.6979    2.1415   -4.0710 N   0  0  0  0  0  0  0  0  0  0  0  0
   -2.1046    0.1380   -1.2976 C   0  0  0  0  0  0  0  0  0  0  0  0
   -2.3932   -1.1195   -1.1630 N   0  0  0  0  0  0  0  0  0  0  0  0
   -3.5106   -1.4319   -0.3647 C   0  0  0  0  0  0  0  0  0  0  0  0
   -3.4010   -1.3320    1.0298 C   0  0  0  0  0  0  0  0  0  0  0  0
   -4.4718   -1.6705    1.8584 C   0  0  0  0  0  0  0  0  0  0  0  0
   -5.6609   -2.1316    1.3018 C   0  0  0  0  0  0  0  0  0  0  0  0
   -5.7805   -2.2568   -0.0833 C   0  0  0  0  0  0  0  0  0  0  0  0
   -4.7138   -1.9065   -0.9243 C   0  0  0  0  0  0  0  0  0  0  0  0
   -4.9292   -2.1049   -2.6894 S   0  0  0  0  0  0  0  0  0  0  0  0
   -5.4692   -0.4419   -3.0704 C   0  0  0  0  0  0  0  0  0  0  0  0
   -6.6028   -0.1186   -2.4011 F   0  0  0  0  0  0  0  0  0  0  0  0
   -4.5356    0.4881   -2.7528 F   0  0  0  0  0  0  0  0  0  0  0  0
   -5.7366   -0.3058   -4.3911 F   0  0  0  0  0  0  0  0  0  0  0  0
    1.2253    0.7473   -0.8612 N   0  0  0  0  0  0  0  0  0  0  0  0
    3.4539   -0.0034    1.1624 C   0  0  0  0  0  0  0  0  0  0  0  0
    2.3804   -1.0494    1.3043 C   0  0  0  0  0  0  0  0  0  0  0  0
    4.7427   -0.2873    1.6503 C   0  0  0  0  0  0  0  0  0  0  0  0
    7.0902   -0.2159    3.0138 H   0  0  0  0  0  0  0  0  0  0  0  0
    7.6706   -0.3380    1.3325 H   0  0  0  0  0  0  0  0  0  0  0  0
    7.7537    1.2066    2.2109 H   0  0  0  0  0  0  0  0  0  0  0  0
    6.3373    2.5987    0.8022 H   0  0  0  0  0  0  0  0  0  0  0  0
    4.1107    3.1178   -0.0760 H   0  0  0  0  0  0  0  0  0  0  0  0
    1.5556    3.5545    0.9812 H   0  0  0  0  0  0  0  0  0  0  0  0
   -0.4338   -0.3131   -2.5270 H   0  0  0  0  0  0  0  0  0  0  0  0
   -2.7213    0.9261   -0.8249 H   0  0  0  0  0  0  0  0  0  0  0  0
   -2.4650   -1.0028    1.4750 H   0  0  0  0  0  0  0  0  0  0  0  0
   -4.3706   -1.5890    2.9373 H   0  0  0  0  0  0  0  0  0  0  0  0
   -6.4937   -2.4057    1.9451 H   0  0  0  0  0  0  0  0  0  0  0  0
   -6.7133   -2.6336   -0.4984 H   0  0  0  0  0  0  0  0  0  0  0  0
    1.4625   -0.6134    1.7127 H   0  0  0  0  0  0  0  0  0  0  0  0
    2.1707   -1.5119    0.3359 H   0  0  0  0  0  0  0  0  0  0  0  0
    2.6858   -1.8431    1.9950 H   0  0  0  0  0  0  0  0  0  0  0  0
    4.9394   -1.2500    2.1199 H   0  0  0  0  0  0  0  0  0  0  0  0
  1  2  1  0
  2  3  2  0
  3  4  1  0
  4  5  2  0
  5  6  1  0
  6  7  2  0
  7  8  1  0
  8  9  1  0
  9 10  1  0
 10 11  1  0
 11 12  3  0
 10 13  1  0
 13 14  2  3
 14 15  1  0
 15 16  2  0
 16 17  1  0
 17 18  2  0
 18 19  1  0
 19 20  2  0
 20 21  1  0
 21 22  1  0
 22 23  1  0
 22 24  1  0
 22 25  1  0
  9 26  2  0
  5 27  1  0
 27 28  1  0
 27 29  2  0
 29  2  1  0
 26  6  1  0
 20 15  1  0
  1 30  1  0
  1 31  1  0
  1 32  1  0
  3 33  1  0
  4 34  1  0
  7 35  1  0
 10 36  1  0
 13 37  1  0
 16 38  1  0
 17 39  1  0
 18 40  1  0
 19 41  1  0
 28 42  1  0
 28 43  1  0
 28 44  1  0
 29 45  1  0
M  END
$$$$
