
     RDKit          3D

 56 59  0  0  0  0  0  0  0  0999 V2000
    7.5672   -0.6580   -1.1881 C   0  0  0  0  0  0  0  0  0  0  0  0
    7.5709    0.2456   -0.0878 O   0  0  0  0  0  0  0  0  0  0  0  0
    6.3060    0.5382    0.3797 C   0  0  0  0  0  0  0  0  0  0  0  0
    6.2366    1.4066    1.4533 C   0  0  0  0  0  0  0  0  0  0  0  0
    4.9802    1.7302    1.9583 C   0  0  0  0  0  0  0  0  0  0  0  0
    3.8273    1.1795    1.3816 C   0  0  0  0  0  0  0  0  0  0  0  0
    2.5110    1.5642    1.9691 C   0  0  0  0  0  0  0  0  0  0  0  0
    2.4640    2.4031    2.8648 O   0  0  0  0  0  0  0  0  0  0  0  0
    1.3822    0.9542    1.4793 N   0  0  0  0  0  0  0  0  0  0  0  0
    0.0489    1.3260    1.9123 C   0  0  0  0  0  0  0  0  0  0  0  0
   -0.4270    2.6099    1.1886 C   0  0  0  0  0  0  0  0  0  0  0  0
   -0.8747    2.3330   -0.2630 C   0  0  0  0  0  0  0  0  0  0  0  0
   -2.0654    1.3544   -0.3148 C   0  0  0  0  0  0  0  0  0  0  0  0
   -1.8082    0.1984    0.5899 C   0  0  0  0  0  0  0  0  0  0  0  0
   -0.8470    0.1797    1.5842 C   0  0  0  0  0  0  0  0  0  0  0  0
   -0.8674   -1.1333    2.0716 C   0  0  0  0  0  0  0  0  0  0  0  0
   -1.7307   -1.9052    1.4115 N   0  0  0  0  0  0  0  0  0  0  0  0
   -2.3737   -1.0648    0.5509 N   0  0  0  0  0  0  0  0  0  0  0  0
   -3.3689   -1.5834   -0.3233 C   0  0  0  0  0  0  0  0  0  0  0  0
   -3.0958   -2.8367   -0.9016 C   0  0  0  0  0  0  0  0  0  0  0  0
   -3.9589   -3.3851   -1.8439 C   0  0  0  0  0  0  0  0  0  0  0  0
   -5.1065   -2.6927   -2.2127 C   0  0  0  0  0  0  0  0  0  0  0  0
   -5.4274   -1.4621   -1.6165 C   0  0  0  0  0  0  0  0  0  0  0  0
   -6.7206   -0.7963   -2.0128 C   0  0  0  0  0  0  0  0  0  0  0  0
   -4.5777   -0.9140   -0.6200 C   0  0  0  0  0  0  0  0  0  0  0  0
   -5.0642    0.2824    0.1578 C   0  0  0  0  0  0  0  0  0  0  0  0
    4.0080    0.3147    0.2997 C   0  0  0  0  0  0  0  0  0  0  0  0
    2.8927   -0.2339   -0.3069 O   0  0  0  0  0  0  0  0  0  0  0  0
    3.1969   -1.1438   -1.3612 C   0  0  0  0  0  0  0  0  0  0  0  0
    5.2240   -0.0121   -0.2080 N   0  0  0  0  0  0  0  0  0  0  0  0
    8.6072   -0.8284   -1.4829 H   0  0  0  0  0  0  0  0  0  0  0  0
    7.0424   -0.2316   -2.0501 H   0  0  0  0  0  0  0  0  0  0  0  0
    7.1384   -1.6258   -0.9056 H   0  0  0  0  0  0  0  0  0  0  0  0
    7.1385    1.8227    1.8885 H   0  0  0  0  0  0  0  0  0  0  0  0
    4.9036    2.4117    2.8034 H   0  0  0  0  0  0  0  0  0  0  0  0
    1.4680    0.3403    0.6749 H   0  0  0  0  0  0  0  0  0  0  0  0
    0.0673    1.5039    2.9938 H   0  0  0  0  0  0  0  0  0  0  0  0
    0.3617    3.3711    1.1894 H   0  0  0  0  0  0  0  0  0  0  0  0
   -1.2792    3.0334    1.7366 H   0  0  0  0  0  0  0  0  0  0  0  0
   -1.1588    3.2739   -0.7480 H   0  0  0  0  0  0  0  0  0  0  0  0
   -0.0317    1.9218   -0.8328 H   0  0  0  0  0  0  0  0  0  0  0  0
   -2.9508    1.8986    0.0245 H   0  0  0  0  0  0  0  0  0  0  0  0
   -2.2307    1.0300   -1.3471 H   0  0  0  0  0  0  0  0  0  0  0  0
   -0.2525   -1.5755    2.8456 H   0  0  0  0  0  0  0  0  0  0  0  0
   -2.1874   -3.3795   -0.6436 H   0  0  0  0  0  0  0  0  0  0  0  0
   -3.7306   -4.3463   -2.2964 H   0  0  0  0  0  0  0  0  0  0  0  0
   -5.7681   -3.1322   -2.9567 H   0  0  0  0  0  0  0  0  0  0  0  0
   -7.4797   -0.9573   -1.2411 H   0  0  0  0  0  0  0  0  0  0  0  0
   -6.5743    0.2776   -2.1651 H   0  0  0  0  0  0  0  0  0  0  0  0
   -7.1029   -1.1998   -2.9568 H   0  0  0  0  0  0  0  0  0  0  0  0
   -5.0225    1.1834   -0.4605 H   0  0  0  0  0  0  0  0  0  0  0  0
   -6.0999    0.1279    0.4808 H   0  0  0  0  0  0  0  0  0  0  0  0
   -4.4994    0.4457    1.0789 H   0  0  0  0  0  0  0  0  0  0  0  0
    2.2493   -1.5300   -1.7490 H   0  0  0  0  0  0  0  0  0  0  0  0
    3.7787   -1.9966   -0.9946 H   0  0  0  0  0  0  0  0  0  0  0  0
    3.7119   -0.6376   -2.1850 H   0  0  0  0  0  0  0  0  0  0  0  0
  1  2  1  0
  2  3  1  0
  3  4  2  0
  4  5  1  0
  5  6  2  0
  6  7  1  0
  7  8  2  0
  7  9  1  0
  9 10  1  0
 10 11  1  0
 11 12  1  0
 12 13  1  0
 13 14  1  0
 14 15  2  0
 15 16  1  0
 16 17  2  0
 17 18  1  0
 18 19  1  0
 19 20  2  0
 20 21  1  0
 21 22  2  0
 22 23  1  0
 23 24  1  0
 23 25  2  0
 25 26  1  0
  6 27  1  0
 27 28  1  0
 28 29  1  0
 27 30  2  0
 30  3  1  0
 15 10  1  0
 25 19  1  0
 18 14  1  0
  1 31  1  0
  1 32  1  0
  1 33  1  0
  4 34  1  0
  5 35  1  0
  9 36  1  0
 10 37  1  0
 11 38  1  0
 11 39  1  0
 12 40  1  0
 12 41  1  0
 13 42  1  0
 13 43  1  0
 16 44  1  0
 20 45  1  0
 21 46  1  0
 22 47  1  0
 24 48  1  0
 24 49  1  0
 24 50  1  0
 26 51  1  0
 26 52  1  0
 26 53  1  0
 29 54  1  0
 29 55  1  0
 29 56  1  0
M  END
$$$$
