
     RDKit          3D

 29 31  0  0  0  0  0  0  0  0999 V2000
    0.1779   -1.6233   -0.2288 O   0  0  0  0  0  0  0  0  0  0  0  0
   -0.0844   -0.4592    0.0527 C   0  0  0  0  0  0  0  0  0  0  0  0
   -1.4937    0.0207    0.1508 C   0  0  0  0  0  0  0  0  0  0  0  0
   -2.5051   -0.8034   -0.1541 C   0  0  0  0  0  0  0  0  0  0  0  0
   -3.8967   -0.5055   -0.1276 C   0  0  0  0  0  0  0  0  0  0  0  0
   -4.6570    0.4075    0.5976 C   0  0  0  0  0  0  0  0  0  0  0  0
   -6.0149    0.2495    0.2271 C   0  0  0  0  0  0  0  0  0  0  0  0
   -6.0331   -0.7617   -0.6955 C   0  0  0  0  0  0  0  0  0  0  0  0
   -4.7803   -1.2266   -0.9073 O   0  0  0  0  0  0  0  0  0  0  0  0
   -1.5227    1.6576    0.6407 S   0  0  0  0  0  0  0  0  0  0  0  0
    0.2347    1.8048    0.6263 C   0  0  0  0  0  0  0  0  0  0  0  0
    0.9328    3.3143    0.8218 S   0  0  0  0  0  0  0  0  0  0  0  0
    0.8102    0.5681    0.3567 N   0  0  0  0  0  0  0  0  0  0  0  0
    2.2218    0.3052    0.3609 C   0  0  0  0  0  0  0  0  0  0  0  0
    2.7971   -0.5386   -0.6058 C   0  0  0  0  0  0  0  0  0  0  0  0
    4.1693   -0.8152   -0.6073 C   0  0  0  0  0  0  0  0  0  0  0  0
    4.9796   -0.2552    0.3699 C   0  0  0  0  0  0  0  0  0  0  0  0
    6.3191   -0.4975    0.4113 O   0  0  0  0  0  0  0  0  0  0  0  0
    4.4386    0.5682    1.3458 C   0  0  0  0  0  0  0  0  0  0  0  0
    3.0667    0.8424    1.3446 C   0  0  0  0  0  0  0  0  0  0  0  0
   -2.2699   -1.8100   -0.4982 H   0  0  0  0  0  0  0  0  0  0  0  0
   -4.2853    1.1095    1.3302 H   0  0  0  0  0  0  0  0  0  0  0  0
   -6.8695    0.7987    0.5958 H   0  0  0  0  0  0  0  0  0  0  0  0
   -6.8152   -1.2478   -1.2618 H   0  0  0  0  0  0  0  0  0  0  0  0
    2.1923   -0.9818   -1.3944 H   0  0  0  0  0  0  0  0  0  0  0  0
    4.5772   -1.4657   -1.3748 H   0  0  0  0  0  0  0  0  0  0  0  0
    6.5518   -1.0932   -0.3199 H   0  0  0  0  0  0  0  0  0  0  0  0
    5.0789    0.9898    2.1162 H   0  0  0  0  0  0  0  0  0  0  0  0
    2.6799    1.4485    2.1592 H   0  0  0  0  0  0  0  0  0  0  0  0
  1  2  2  0
  2  3  1  0
  3  4  2  3
  4  5  1  0
  5  6  2  0
  6  7  1  0
  7  8  2  0
  8  9  1  0
  3 10  1  0
 10 11  1  0
 11 12  2  0
 11 13  1  0
 13 14  1  0
 14 15  2  0
 15 16  1  0
 16 17  2  0
 17 18  1  0
 17 19  1  0
 19 20  2  0
 13  2  1  0
 20 14  1  0
  9  5  1  0
  4 21  1  0
  6 22  1  0
  7 23  1  0
  8 24  1  0
 15 25  1  0
 16 26  1  0
 18 27  1  0
 19 28  1  0
 20 29  1  0
M  END
$$$$
