
     RDKit          3D

 36 37  0  0  0  0  0  0  0  0999 V2000
    2.1101    2.1055   -1.5445 C   0  0  0  0  0  0  0  0  0  0  0  0
    1.2860    0.9177   -1.0417 C   0  0  0  0  0  0  0  0  0  0  0  0
    0.2590    1.4517   -0.1404 N   0  0  0  0  0  0  0  0  0  0  0  0
   -0.7644    0.7411    0.1843 C   0  0  0  0  0  0  0  0  0  0  0  0
   -1.7801    1.4372    1.0836 C   0  0  0  0  0  0  0  0  0  0  0  0
   -3.1624    1.4986    0.4441 C   0  0  0  0  0  0  0  0  0  0  0  0
   -3.9716    0.2166    0.6346 C   0  0  0  0  0  0  0  0  0  0  0  0
   -3.4088   -1.0036   -0.0924 C   0  0  0  0  0  0  0  0  0  0  0  0
   -2.0181   -1.4160    0.3764 C   0  0  0  0  0  0  0  0  0  0  0  0
   -1.0005   -0.5593   -0.1926 N   0  0  0  0  0  0  0  0  0  0  0  0
    2.2040   -0.1064   -0.3939 C   0  0  0  0  0  0  0  0  0  0  0  0
    2.6836   -1.1924   -1.1428 C   0  0  0  0  0  0  0  0  0  0  0  0
    3.5292   -2.1385   -0.5606 C   0  0  0  0  0  0  0  0  0  0  0  0
    3.9094   -2.0078    0.7737 C   0  0  0  0  0  0  0  0  0  0  0  0
    3.4482   -0.9295    1.5261 C   0  0  0  0  0  0  0  0  0  0  0  0
    2.6034    0.0172    0.9452 C   0  0  0  0  0  0  0  0  0  0  0  0
    1.4663    2.8358   -2.0474 H   0  0  0  0  0  0  0  0  0  0  0  0
    2.8778    1.7839   -2.2569 H   0  0  0  0  0  0  0  0  0  0  0  0
    2.6129    2.6248   -0.7202 H   0  0  0  0  0  0  0  0  0  0  0  0
    0.7966    0.4681   -1.9163 H   0  0  0  0  0  0  0  0  0  0  0  0
   -1.8049    0.9343    2.0565 H   0  0  0  0  0  0  0  0  0  0  0  0
   -1.4325    2.4622    1.2652 H   0  0  0  0  0  0  0  0  0  0  0  0
   -3.0853    1.7366   -0.6237 H   0  0  0  0  0  0  0  0  0  0  0  0
   -3.7216    2.3177    0.9131 H   0  0  0  0  0  0  0  0  0  0  0  0
   -4.9899    0.3942    0.2670 H   0  0  0  0  0  0  0  0  0  0  0  0
   -4.0647   -0.0046    1.7051 H   0  0  0  0  0  0  0  0  0  0  0  0
   -4.0945   -1.8416    0.0846 H   0  0  0  0  0  0  0  0  0  0  0  0
   -3.4077   -0.8208   -1.1743 H   0  0  0  0  0  0  0  0  0  0  0  0
   -1.9471   -1.4407    1.4695 H   0  0  0  0  0  0  0  0  0  0  0  0
   -1.8277   -2.4374    0.0266 H   0  0  0  0  0  0  0  0  0  0  0  0
   -0.1760   -1.0612   -0.5047 H   0  0  0  0  0  0  0  0  0  0  0  0
    2.4047   -1.3038   -2.1884 H   0  0  0  0  0  0  0  0  0  0  0  0
    3.8966   -2.9745   -1.1500 H   0  0  0  0  0  0  0  0  0  0  0  0
    4.5705   -2.7422    1.2259 H   0  0  0  0  0  0  0  0  0  0  0  0
    3.7483   -0.8212    2.5649 H   0  0  0  0  0  0  0  0  0  0  0  0
    2.2512    0.8583    1.5398 H   0  0  0  0  0  0  0  0  0  0  0  0
  1  2  1  0
  2  3  1  0
  3  4  2  3
  4  5  1  0
  5  6  1  0
  6  7  1  0
  7  8  1  0
  8  9  1  0
  9 10  1  0
  2 11  1  0
 11 12  2  0
 12 13  1  0
 13 14  2  0
 14 15  1  0
 15 16  2  0
 10  4  1  0
 16 11  1  0
  1 17  1  0
  1 18  1  0
  1 19  1  0
  2 20  1  0
  5 21  1  0
  5 22  1  0
  6 23  1  0
  6 24  1  0
  7 25  1  0
  7 26  1  0
  8 27  1  0
  8 28  1  0
  9 29  1  0
  9 30  1  0
 10 31  1  0
 12 32  1  0
 13 33  1  0
 14 34  1  0
 15 35  1  0
 16 36  1  0
M  END
$$$$
