
     RDKit          3D

 48 50  0  0  0  0  0  0  0  0999 V2000
    6.8985   -1.6953    1.6672 C   0  0  0  0  0  0  0  0  0  0  0  0
    7.0198   -0.9023    0.3754 C   0  0  0  0  0  0  0  0  0  0  0  0
    6.6706    0.5808    0.5345 C   0  0  0  0  0  0  0  0  0  0  0  0
    5.2256    0.8506    0.9557 C   0  0  0  0  0  0  0  0  0  0  0  0
    4.3468    0.2728   -0.0074 O   0  0  0  0  0  0  0  0  0  0  0  0
    3.0049    0.4154    0.2057 C   0  0  0  0  0  0  0  0  0  0  0  0
    2.4064    1.0763    1.2742 C   0  0  0  0  0  0  0  0  0  0  0  0
    1.0088    1.1438    1.3657 C   0  0  0  0  0  0  0  0  0  0  0  0
    0.1793    0.5726    0.3871 C   0  0  0  0  0  0  0  0  0  0  0  0
   -1.2181    0.6337    0.5612 N   0  0  0  0  0  0  0  0  0  0  0  0
   -2.1928    0.4790   -0.3896 C   0  0  0  0  0  0  0  0  0  0  0  0
   -2.0229    0.3431   -1.6598 N   0  0  0  0  0  0  0  0  0  0  0  0
   -3.1237    0.2857   -2.4516 C   0  0  0  0  0  0  0  0  0  0  0  0
   -2.9075    0.3997   -3.7848 N   0  0  0  0  0  0  0  0  0  0  0  0
   -4.3288    0.1002   -2.0403 N   0  0  0  0  0  0  0  0  0  0  0  0
   -4.4958   -0.0408   -0.6066 C   0  0  0  0  0  0  0  0  0  0  0  0
   -5.8131    0.6547   -0.2036 C   0  0  0  0  0  0  0  0  0  0  0  0
   -6.8414   -0.4637   -0.1076 C   0  0  0  0  0  0  0  0  0  0  0  0
   -6.0380   -1.6132    0.4697 C   0  0  0  0  0  0  0  0  0  0  0  0
   -4.7159   -1.5399   -0.2857 C   0  0  0  0  0  0  0  0  0  0  0  0
   -3.4224    0.4955    0.1896 N   0  0  0  0  0  0  0  0  0  0  0  0
    0.7973   -0.1084   -0.6645 C   0  0  0  0  0  0  0  0  0  0  0  0
    2.1925   -0.1783   -0.7590 C   0  0  0  0  0  0  0  0  0  0  0  0
    7.2578   -2.7181    1.5150 H   0  0  0  0  0  0  0  0  0  0  0  0
    5.8593   -1.7568    2.0034 H   0  0  0  0  0  0  0  0  0  0  0  0
    7.4954   -1.2417    2.4647 H   0  0  0  0  0  0  0  0  0  0  0  0
    8.0533   -0.9768    0.0161 H   0  0  0  0  0  0  0  0  0  0  0  0
    6.3879   -1.3608   -0.3937 H   0  0  0  0  0  0  0  0  0  0  0  0
    7.3501    1.0444    1.2591 H   0  0  0  0  0  0  0  0  0  0  0  0
    6.8488    1.0676   -0.4326 H   0  0  0  0  0  0  0  0  0  0  0  0
    5.0407    0.4257    1.9488 H   0  0  0  0  0  0  0  0  0  0  0  0
    5.0735    1.9362    0.9937 H   0  0  0  0  0  0  0  0  0  0  0  0
    2.9914    1.5486    2.0557 H   0  0  0  0  0  0  0  0  0  0  0  0
    0.5743    1.6606    2.2180 H   0  0  0  0  0  0  0  0  0  0  0  0
   -1.4951    1.2519    1.3108 H   0  0  0  0  0  0  0  0  0  0  0  0
   -3.6414   -0.0310   -4.3288 H   0  0  0  0  0  0  0  0  0  0  0  0
   -1.9689    0.1281   -4.0417 H   0  0  0  0  0  0  0  0  0  0  0  0
   -6.1281    1.4254   -0.9158 H   0  0  0  0  0  0  0  0  0  0  0  0
   -5.7225    1.1379    0.7783 H   0  0  0  0  0  0  0  0  0  0  0  0
   -7.6925   -0.1915    0.5231 H   0  0  0  0  0  0  0  0  0  0  0  0
   -7.2188   -0.7218   -1.1041 H   0  0  0  0  0  0  0  0  0  0  0  0
   -6.5365   -2.5780    0.3398 H   0  0  0  0  0  0  0  0  0  0  0  0
   -5.8680   -1.4574    1.5417 H   0  0  0  0  0  0  0  0  0  0  0  0
   -3.9059   -1.9827    0.3047 H   0  0  0  0  0  0  0  0  0  0  0  0
   -4.7996   -2.1307   -1.2072 H   0  0  0  0  0  0  0  0  0  0  0  0
   -3.4381    0.1712    1.1473 H   0  0  0  0  0  0  0  0  0  0  0  0
    0.2076   -0.6069   -1.4280 H   0  0  0  0  0  0  0  0  0  0  0  0
    2.6450   -0.7078   -1.5937 H   0  0  0  0  0  0  0  0  0  0  0  0
  1  2  1  0
  2  3  1  0
  3  4  1  0
  4  5  1  0
  5  6  1  0
  6  7  2  0
  7  8  1  0
  8  9  2  0
  9 10  1  0
 10 11  1  0
 11 12  2  0
 12 13  1  0
 13 14  1  0
 13 15  2  0
 15 16  1  0
 16 17  1  0
 17 18  1  0
 18 19  1  0
 19 20  1  0
 16 21  1  0
  9 22  1  0
 22 23  2  0
 23  6  1  0
 21 11  1  0
 20 16  1  0
  1 24  1  0
  1 25  1  0
  1 26  1  0
  2 27  1  0
  2 28  1  0
  3 29  1  0
  3 30  1  0
  4 31  1  0
  4 32  1  0
  7 33  1  0
  8 34  1  0
 10 35  1  0
 14 36  1  0
 14 37  1  0
 17 38  1  0
 17 39  1  0
 18 40  1  0
 18 41  1  0
 19 42  1  0
 19 43  1  0
 20 44  1  0
 20 45  1  0
 21 46  1  0
 22 47  1  0
 23 48  1  0
M  END
$$$$
