
     RDKit          3D

 66 70  0  0  0  0  0  0  0  0999 V2000
    4.1182    2.1633    0.7403 C   0  0  0  0  0  0  0  0  0  0  0  0
    3.2468    1.2070    0.0110 C   0  0  0  0  0  0  0  0  0  0  0  0
    1.9920    0.7514    0.3780 C   0  0  0  0  0  0  0  0  0  0  0  0
    1.1638    1.0732    1.5961 C   0  0  0  0  0  0  0  0  0  0  0  0
    0.3348    2.3494    1.4163 C   0  0  0  0  0  0  0  0  0  0  0  0
   -0.6780    2.1969    0.4078 O   0  0  0  0  0  0  0  0  0  0  0  0
   -1.8015    1.5285    0.8094 C   0  0  0  0  0  0  0  0  0  0  0  0
   -1.9417    1.0363    1.9183 O   0  0  0  0  0  0  0  0  0  0  0  0
   -2.8204    1.5228   -0.3114 C   0  0  0  0  0  0  0  0  0  0  0  0
   -3.7647    0.3019   -0.3702 C   0  0  0  0  0  0  0  0  0  0  0  0
   -2.9774   -1.0317   -0.4053 C   0  0  0  0  0  0  0  0  0  0  0  0
   -3.9388   -2.2260   -0.5272 C   0  0  0  0  0  0  0  0  0  0  0  0
   -4.7499   -2.0978   -1.8245 C   0  0  0  0  0  0  0  0  0  0  0  0
   -5.5621   -0.7949   -1.8078 C   0  0  0  0  0  0  0  0  0  0  0  0
   -6.5214   -0.8062   -0.6087 C   0  0  0  0  0  0  0  0  0  0  0  0
   -5.7275   -0.9280    0.7107 C   0  0  0  0  0  0  0  0  0  0  0  0
   -6.6861   -0.9444    1.9052 C   0  0  0  0  0  0  0  0  0  0  0  0
   -4.8984   -2.2322    0.6739 C   0  0  0  0  0  0  0  0  0  0  0  0
   -4.7570    0.2733    0.8208 C   0  0  0  0  0  0  0  0  0  0  0  0
   -4.6024    0.3980   -1.6774 C   0  0  0  0  0  0  0  0  0  0  0  0
    1.3975   -0.3507   -0.8006 S   0  0  0  0  0  0  0  0  0  0  0  0
    2.8056   -0.1868   -1.7499 C   0  0  0  0  0  0  0  0  0  0  0  0
    3.6750    0.6373   -1.1883 N   0  0  0  0  0  4  0  0  0  0  0  0
    4.9562    0.9226   -1.8518 C   0  0  0  0  0  0  0  0  0  0  0  0
    6.1150    0.3025   -1.0998 C   0  0  0  0  0  0  0  0  0  0  0  0
    7.2345    1.0883   -0.7710 C   0  0  0  0  0  0  0  0  0  0  0  0
    8.3254    0.5343   -0.0928 C   0  0  0  0  0  0  0  0  0  0  0  0
    8.3114   -0.8216    0.2501 C   0  0  0  0  0  0  0  0  0  0  0  0
    9.4582   -1.4099    0.9546 N   0  0  0  0  0  4  0  0  0  0  0  0
    9.4628   -2.6382    1.1108 O   0  0  0  0  0  0  0  0  0  0  0  0
   10.3427   -0.6380    1.3486 O   0  0  0  0  0  1  0  0  0  0  0  0
    7.2137   -1.6230   -0.0849 C   0  0  0  0  0  0  0  0  0  0  0  0
    6.1239   -1.0616   -0.7596 C   0  0  0  0  0  0  0  0  0  0  0  0
    4.9348    1.6345    1.2400 H   0  0  0  0  0  0  0  0  0  0  0  0
    3.5572    2.7005    1.5121 H   0  0  0  0  0  0  0  0  0  0  0  0
    4.5359    2.9201    0.0708 H   0  0  0  0  0  0  0  0  0  0  0  0
    0.5176    0.2210    1.8365 H   0  0  0  0  0  0  0  0  0  0  0  0
    1.8352    1.2044    2.4534 H   0  0  0  0  0  0  0  0  0  0  0  0
   -0.1229    2.6525    2.3660 H   0  0  0  0  0  0  0  0  0  0  0  0
    0.9732    3.1809    1.0978 H   0  0  0  0  0  0  0  0  0  0  0  0
   -2.2643    1.5717   -1.2560 H   0  0  0  0  0  0  0  0  0  0  0  0
   -3.3980    2.4498   -0.2275 H   0  0  0  0  0  0  0  0  0  0  0  0
   -2.2783   -1.0340   -1.2514 H   0  0  0  0  0  0  0  0  0  0  0  0
   -2.3730   -1.1542    0.5016 H   0  0  0  0  0  0  0  0  0  0  0  0
   -3.3639   -3.1586   -0.5432 H   0  0  0  0  0  0  0  0  0  0  0  0
   -4.0755   -2.1081   -2.6897 H   0  0  0  0  0  0  0  0  0  0  0  0
   -5.4219   -2.9584   -1.9337 H   0  0  0  0  0  0  0  0  0  0  0  0
   -6.1364   -0.7069   -2.7369 H   0  0  0  0  0  0  0  0  0  0  0  0
   -7.1220    0.1125   -0.6076 H   0  0  0  0  0  0  0  0  0  0  0  0
   -7.2261   -1.6421   -0.7081 H   0  0  0  0  0  0  0  0  0  0  0  0
   -7.2818   -0.0260    1.9452 H   0  0  0  0  0  0  0  0  0  0  0  0
   -7.3796   -1.7902    1.8449 H   0  0  0  0  0  0  0  0  0  0  0  0
   -6.1385   -1.0287    2.8504 H   0  0  0  0  0  0  0  0  0  0  0  0
   -5.5637   -3.1030    0.6081 H   0  0  0  0  0  0  0  0  0  0  0  0
   -4.3252   -2.3440    1.6033 H   0  0  0  0  0  0  0  0  0  0  0  0
   -4.2179    0.2060    1.7718 H   0  0  0  0  0  0  0  0  0  0  0  0
   -5.3261    1.2119    0.8526 H   0  0  0  0  0  0  0  0  0  0  0  0
   -5.1762    1.3339   -1.6900 H   0  0  0  0  0  0  0  0  0  0  0  0
   -3.9378    0.4267   -2.5510 H   0  0  0  0  0  0  0  0  0  0  0  0
    2.9533   -0.7095   -2.6878 H   0  0  0  0  0  0  0  0  0  0  0  0
    4.9504    0.5270   -2.8754 H   0  0  0  0  0  0  0  0  0  0  0  0
    5.0649    2.0098   -1.9394 H   0  0  0  0  0  0  0  0  0  0  0  0
    7.2823    2.1429   -1.0420 H   0  0  0  0  0  0  0  0  0  0  0  0
    9.1798    1.1652    0.1515 H   0  0  0  0  0  0  0  0  0  0  0  0
    7.1987   -2.6853    0.1630 H   0  0  0  0  0  0  0  0  0  0  0  0
    5.2956   -1.7184   -1.0188 H   0  0  0  0  0  0  0  0  0  0  0  0
  1  2  1  0
  2  3  2  0
  3  4  1  0
  4  5  1  0
  5  6  1  0
  6  7  1  0
  7  8  2  0
  7  9  1  0
  9 10  1  0
 10 11  1  0
 11 12  1  0
 12 13  1  0
 13 14  1  0
 14 15  1  0
 15 16  1  0
 16 17  1  0
 16 18  1  0
 16 19  1  0
 14 20  1  0
  3 21  1  0
 21 22  1  0
 22 23  2  0
 23 24  1  0
 24 25  1  0
 25 26  2  0
 26 27  1  0
 27 28  2  0
 28 29  1  0
 29 30  2  0
 29 31  1  0
 28 32  1  0
 32 33  2  0
 23  2  1  0
 33 25  1  0
 19 10  1  0
 20 10  1  0
 18 12  1  0
  1 34  1  0
  1 35  1  0
  1 36  1  0
  4 37  1  0
  4 38  1  0
  5 39  1  0
  5 40  1  0
  9 41  1  0
  9 42  1  0
 11 43  1  0
 11 44  1  0
 12 45  1  0
 13 46  1  0
 13 47  1  0
 14 48  1  0
 15 49  1  0
 15 50  1  0
 17 51  1  0
 17 52  1  0
 17 53  1  0
 18 54  1  0
 18 55  1  0
 19 56  1  0
 19 57  1  0
 20 58  1  0
 20 59  1  0
 22 60  1  0
 24 61  1  0
 24 62  1  0
 26 63  1  0
 27 64  1  0
 32 65  1  0
 33 66  1  0
M  CHG  3  23   1  29   1  31  -1
M  END
$$$$
