
     RDKit          3D

 56 59  0  0  0  0  0  0  0  0999 V2000
   -2.3657   -3.2720    0.5135 C   0  0  0  0  0  0  0  0  0  0  0  0
   -1.6714   -2.1071    1.2311 C   0  0  0  0  0  0  0  0  0  0  0  0
   -2.6155   -0.8722    1.2080 C   0  0  0  0  0  0  0  0  0  0  0  0
   -3.2016   -0.5893    2.2602 O   0  0  0  0  0  0  0  0  0  0  0  0
   -2.7945   -0.1788    0.0215 N   0  0  0  0  0  0  0  0  0  0  0  0
   -1.9959   -0.3082   -1.2143 C   0  0  0  0  0  0  0  0  0  0  0  0
   -2.6627    0.5588   -2.2879 C   0  0  0  0  0  0  0  0  0  0  0  0
   -3.5833    1.3977   -1.4651 C   0  0  0  0  0  0  0  0  0  0  0  0
   -4.3398    2.4789   -1.8939 C   0  0  0  0  0  0  0  0  0  0  0  0
   -5.1886    3.0978   -0.9766 C   0  0  0  0  0  0  0  0  0  0  0  0
   -5.2764    2.6238    0.3398 C   0  0  0  0  0  0  0  0  0  0  0  0
   -4.5135    1.5278    0.7577 C   0  0  0  0  0  0  0  0  0  0  0  0
   -3.6628    0.9231   -0.1532 C   0  0  0  0  0  0  0  0  0  0  0  0
   -0.3013   -1.7869    0.7418 N   0  0  0  0  0  0  0  0  0  0  0  0
    0.5484   -2.9944    0.6328 C   0  0  0  0  0  0  0  0  0  0  0  0
    2.0505   -2.6662    0.5390 C   0  0  0  0  0  0  0  0  0  0  0  0
    2.5213   -1.9911    1.7765 N   0  0  0  0  0  0  0  0  0  0  0  0
    4.0865   -1.3510    1.7616 S   0  0  0  0  0  6  0  0  0  0  0  0
    4.4066   -0.9077    3.1018 O   0  0  0  0  0  0  0  0  0  0  0  0
    4.9422   -2.2807    1.0544 O   0  0  0  0  0  0  0  0  0  0  0  0
    3.9310    0.1061    0.7445 C   0  0  0  0  0  0  0  0  0  0  0  0
    4.1866    0.0241   -0.6271 C   0  0  0  0  0  0  0  0  0  0  0  0
    4.0825    1.1700   -1.4183 C   0  0  0  0  0  0  0  0  0  0  0  0
    3.7446    2.4075   -0.8442 C   0  0  0  0  0  0  0  0  0  0  0  0
    3.6173    3.6343   -1.7174 C   0  0  0  0  0  0  0  0  0  0  0  0
    2.4904    3.6041   -2.4818 F   0  0  0  0  0  0  0  0  0  0  0  0
    3.5623    4.7990   -1.0145 F   0  0  0  0  0  0  0  0  0  0  0  0
    4.6560    3.7707   -2.5874 F   0  0  0  0  0  0  0  0  0  0  0  0
    3.5158    2.4773    0.5400 C   0  0  0  0  0  0  0  0  0  0  0  0
    3.6204    1.3341    1.3358 C   0  0  0  0  0  0  0  0  0  0  0  0
    1.4633   -1.2589    2.5216 C   0  0  0  0  0  0  0  0  0  0  0  0
    0.3577   -0.7486    1.5772 C   0  0  0  0  0  0  0  0  0  0  0  0
   -1.9015   -4.2290    0.7740 H   0  0  0  0  0  0  0  0  0  0  0  0
   -3.4204   -3.3329    0.8044 H   0  0  0  0  0  0  0  0  0  0  0  0
   -2.3357   -3.1766   -0.5744 H   0  0  0  0  0  0  0  0  0  0  0  0
   -1.5859   -2.3986    2.2886 H   0  0  0  0  0  0  0  0  0  0  0  0
   -0.9897    0.0730   -1.0049 H   0  0  0  0  0  0  0  0  0  0  0  0
   -1.9129   -1.3461   -1.5391 H   0  0  0  0  0  0  0  0  0  0  0  0
   -3.2398   -0.0583   -2.9844 H   0  0  0  0  0  0  0  0  0  0  0  0
   -1.9283    1.1527   -2.8397 H   0  0  0  0  0  0  0  0  0  0  0  0
   -4.2820    2.8339   -2.9178 H   0  0  0  0  0  0  0  0  0  0  0  0
   -5.7921    3.9487   -1.2840 H   0  0  0  0  0  0  0  0  0  0  0  0
   -5.9457    3.1106    1.0454 H   0  0  0  0  0  0  0  0  0  0  0  0
   -4.6029    1.1815    1.7811 H   0  0  0  0  0  0  0  0  0  0  0  0
    0.3933   -3.6532    1.4978 H   0  0  0  0  0  0  0  0  0  0  0  0
    0.2621   -3.5524   -0.2659 H   0  0  0  0  0  0  0  0  0  0  0  0
    2.2261   -2.0364   -0.3385 H   0  0  0  0  0  0  0  0  0  0  0  0
    2.6095   -3.5998    0.4128 H   0  0  0  0  0  0  0  0  0  0  0  0
    4.4693   -0.9221   -1.0846 H   0  0  0  0  0  0  0  0  0  0  0  0
    4.2763    1.0996   -2.4886 H   0  0  0  0  0  0  0  0  0  0  0  0
    3.2646    3.4294    1.0074 H   0  0  0  0  0  0  0  0  0  0  0  0
    3.4651    1.4112    2.4103 H   0  0  0  0  0  0  0  0  0  0  0  0
    1.0380   -1.9423    3.2666 H   0  0  0  0  0  0  0  0  0  0  0  0
    1.8775   -0.4145    3.0801 H   0  0  0  0  0  0  0  0  0  0  0  0
   -0.3627   -0.1689    2.1649 H   0  0  0  0  0  0  0  0  0  0  0  0
    0.8075   -0.0313    0.8792 H   0  0  0  0  0  0  0  0  0  0  0  0
  1  2  1  0
  2  3  1  0
  3  4  2  0
  3  5  1  0
  5  6  1  0
  6  7  1  0
  7  8  1  0
  8  9  2  0
  9 10  1  0
 10 11  2  0
 11 12  1  0
 12 13  2  0
  2 14  1  0
 14 15  1  0
 15 16  1  0
 16 17  1  0
 17 18  1  0
 18 19  2  0
 18 20  2  0
 18 21  1  0
 21 22  2  0
 22 23  1  0
 23 24  2  0
 24 25  1  0
 25 26  1  0
 25 27  1  0
 25 28  1  0
 24 29  1  0
 29 30  2  0
 17 31  1  0
 31 32  1  0
 13  5  1  0
 32 14  1  0
 13  8  1  0
 30 21  1  0
  1 33  1  0
  1 34  1  0
  1 35  1  0
  2 36  1  0
  6 37  1  0
  6 38  1  0
  7 39  1  0
  7 40  1  0
  9 41  1  0
 10 42  1  0
 11 43  1  0
 12 44  1  0
 15 45  1  0
 15 46  1  0
 16 47  1  0
 16 48  1  0
 22 49  1  0
 23 50  1  0
 29 51  1  0
 30 52  1  0
 31 53  1  0
 31 54  1  0
 32 55  1  0
 32 56  1  0
M  END
$$$$
