
     RDKit          3D

 57 60  0  0  0  0  0  0  0  0999 V2000
    8.2106   -1.9898    0.7119 C   0  0  0  0  0  0  0  0  0  0  0  0
    6.9864   -1.7987    1.4114 O   0  0  0  0  0  0  0  0  0  0  0  0
    5.8996   -1.4266    0.6686 C   0  0  0  0  0  0  0  0  0  0  0  0
    5.8802   -1.2276   -0.7069 C   0  0  0  0  0  0  0  0  0  0  0  0
    4.6922   -0.8459   -1.3354 C   0  0  0  0  0  0  0  0  0  0  0  0
    3.5060   -0.6557   -0.6030 C   0  0  0  0  0  0  0  0  0  0  0  0
    2.3018   -0.2385   -1.3980 C   0  0  0  0  0  0  0  0  0  0  0  0
    2.3548   -0.1925   -2.6242 O   0  0  0  0  0  0  0  0  0  0  0  0
    1.1628    0.0881   -0.7042 N   0  0  0  0  0  0  0  0  0  0  0  0
   -0.0849    0.3953   -1.3672 C   0  0  0  0  0  0  0  0  0  0  0  0
   -0.7991   -0.8999   -1.8201 C   0  0  0  0  0  0  0  0  0  0  0  0
   -2.3139   -0.7072   -2.1255 C   0  0  0  0  0  0  0  0  0  0  0  0
   -2.5085    0.2552   -3.3150 C   0  0  0  0  0  0  0  0  0  0  0  0
   -2.9180   -2.0701   -2.5143 C   0  0  0  0  0  0  0  0  0  0  0  0
   -3.0612   -0.1705   -0.8632 C   0  0  0  0  0  0  0  0  0  0  0  0
   -2.2795    0.9026   -0.1792 C   0  0  0  0  0  0  0  0  0  0  0  0
   -0.9412    1.1619   -0.4186 C   0  0  0  0  0  0  0  0  0  0  0  0
   -0.6605    2.3056    0.3349 C   0  0  0  0  0  0  0  0  0  0  0  0
   -1.7146    2.7270    1.0281 N   0  0  0  0  0  0  0  0  0  0  0  0
   -2.7142    1.8348    0.7563 N   0  0  0  0  0  0  0  0  0  0  0  0
   -3.9684    1.9815    1.4288 C   0  0  0  0  0  0  0  0  0  0  0  0
   -4.2063    3.1580    2.1638 C   0  0  0  0  0  0  0  0  0  0  0  0
   -5.4157    3.3525    2.8362 C   0  0  0  0  0  0  0  0  0  0  0  0
   -6.4008    2.3715    2.7926 C   0  0  0  0  0  0  0  0  0  0  0  0
   -6.1724    1.1947    2.0841 C   0  0  0  0  0  0  0  0  0  0  0  0
   -4.9621    0.9963    1.4079 C   0  0  0  0  0  0  0  0  0  0  0  0
    3.5220   -0.8611    0.7917 C   0  0  0  0  0  0  0  0  0  0  0  0
    2.3476   -0.6833    1.4808 O   0  0  0  0  0  0  0  0  0  0  0  0
    2.3664   -0.8610    2.8939 C   0  0  0  0  0  0  0  0  0  0  0  0
    4.7242   -1.2440    1.4074 C   0  0  0  0  0  0  0  0  0  0  0  0
    8.9723   -2.2756    1.4436 H   0  0  0  0  0  0  0  0  0  0  0  0
    8.5406   -1.0620    0.2327 H   0  0  0  0  0  0  0  0  0  0  0  0
    8.1258   -2.8032   -0.0160 H   0  0  0  0  0  0  0  0  0  0  0  0
    6.7641   -1.3577   -1.3226 H   0  0  0  0  0  0  0  0  0  0  0  0
    4.6970   -0.6926   -2.4142 H   0  0  0  0  0  0  0  0  0  0  0  0
    1.1499   -0.0946    0.2943 H   0  0  0  0  0  0  0  0  0  0  0  0
    0.1287    1.0186   -2.2442 H   0  0  0  0  0  0  0  0  0  0  0  0
   -0.2820   -1.3112   -2.6971 H   0  0  0  0  0  0  0  0  0  0  0  0
   -0.6985   -1.6608   -1.0318 H   0  0  0  0  0  0  0  0  0  0  0  0
   -1.9678   -0.1011   -4.1991 H   0  0  0  0  0  0  0  0  0  0  0  0
   -2.1542    1.2672   -3.0959 H   0  0  0  0  0  0  0  0  0  0  0  0
   -3.5678    0.3348   -3.5852 H   0  0  0  0  0  0  0  0  0  0  0  0
   -2.8037   -2.8003   -1.7056 H   0  0  0  0  0  0  0  0  0  0  0  0
   -2.4283   -2.4807   -3.4044 H   0  0  0  0  0  0  0  0  0  0  0  0
   -3.9881   -1.9800   -2.7321 H   0  0  0  0  0  0  0  0  0  0  0  0
   -4.0494    0.1960   -1.1628 H   0  0  0  0  0  0  0  0  0  0  0  0
   -3.1980   -0.9954   -0.1528 H   0  0  0  0  0  0  0  0  0  0  0  0
    0.2684    2.8585    0.4008 H   0  0  0  0  0  0  0  0  0  0  0  0
   -3.4557    3.9459    2.2152 H   0  0  0  0  0  0  0  0  0  0  0  0
   -5.5829    4.2712    3.3927 H   0  0  0  0  0  0  0  0  0  0  0  0
   -7.3413    2.5203    3.3165 H   0  0  0  0  0  0  0  0  0  0  0  0
   -6.9366    0.4210    2.0632 H   0  0  0  0  0  0  0  0  0  0  0  0
   -4.8331    0.0450    0.9109 H   0  0  0  0  0  0  0  0  0  0  0  0
    3.0421   -0.1448    3.3732 H   0  0  0  0  0  0  0  0  0  0  0  0
    2.6235   -1.8922    3.1573 H   0  0  0  0  0  0  0  0  0  0  0  0
    1.3562   -0.6653    3.2662 H   0  0  0  0  0  0  0  0  0  0  0  0
    4.7854   -1.4140    2.4781 H   0  0  0  0  0  0  0  0  0  0  0  0
  1  2  1  0
  2  3  1  0
  3  4  2  0
  4  5  1  0
  5  6  2  0
  6  7  1  0
  7  8  2  0
  7  9  1  0
  9 10  1  0
 10 11  1  0
 11 12  1  0
 12 13  1  0
 12 14  1  0
 12 15  1  0
 15 16  1  0
 16 17  2  0
 17 18  1  0
 18 19  2  0
 19 20  1  0
 20 21  1  0
 21 22  2  0
 22 23  1  0
 23 24  2  0
 24 25  1  0
 25 26  2  0
  6 27  1  0
 27 28  1  0
 28 29  1  0
 27 30  2  0
 30  3  1  0
 17 10  1  0
 26 21  1  0
 20 16  1  0
  1 31  1  0
  1 32  1  0
  1 33  1  0
  4 34  1  0
  5 35  1  0
  9 36  1  0
 10 37  1  0
 11 38  1  0
 11 39  1  0
 13 40  1  0
 13 41  1  0
 13 42  1  0
 14 43  1  0
 14 44  1  0
 14 45  1  0
 15 46  1  0
 15 47  1  0
 18 48  1  0
 22 49  1  0
 23 50  1  0
 24 51  1  0
 25 52  1  0
 26 53  1  0
 29 54  1  0
 29 55  1  0
 29 56  1  0
 30 57  1  0
M  END
$$$$
