
     RDKit          3D

 63 66  0  0  0  0  0  0  0  0999 V2000
    6.9896    1.0008   -0.7397 C   0  0  0  0  0  0  0  0  0  0  0  0
    6.6831   -0.1859    0.1342 C   0  0  0  0  0  0  0  0  0  0  0  0
    7.2015   -1.4338   -0.2636 C   0  0  0  0  0  0  0  0  0  0  0  0
    6.9603   -2.5882    0.4788 C   0  0  0  0  0  0  0  0  0  0  0  0
    6.1936   -2.5163    1.6334 C   0  0  0  0  0  0  0  0  0  0  0  0
    5.6598   -1.2920    2.0345 C   0  0  0  0  0  0  0  0  0  0  0  0
    5.8743   -0.1124    1.2900 C   0  0  0  0  0  0  0  0  0  0  0  0
    5.2428    1.1745    1.7977 C   0  0  0  0  0  0  0  0  0  0  0  0
    3.8543    1.4712    1.3976 N   0  0  0  0  0  0  0  0  0  0  0  0
    2.8906    0.4582    1.8313 C   0  0  0  0  0  0  0  0  0  0  0  0
    1.4700    0.9931    1.6592 C   0  0  0  0  0  0  0  0  0  0  0  0
    1.1839    1.4322    0.2181 C   0  0  0  0  0  0  0  0  0  0  0  0
    0.8148    0.2948   -0.6272 N   0  0  0  0  0  0  0  0  0  0  0  0
    1.7364   -0.2729   -1.4327 N   0  0  0  0  0  0  0  0  0  0  0  0
    1.0706   -1.2412   -2.0576 C   0  0  0  0  0  0  0  0  0  0  0  0
   -0.2746   -1.3018   -1.6651 C   0  0  0  0  0  0  0  0  0  0  0  0
   -0.4309   -0.3028   -0.7278 C   0  0  0  0  0  0  0  0  0  0  0  0
   -1.5361    0.0937    0.0112 N   0  0  0  0  0  0  0  0  0  0  0  0
   -2.7900   -0.4861   -0.1324 C   0  0  0  0  0  0  0  0  0  0  0  0
   -3.0884   -1.3919   -0.9038 O   0  0  0  0  0  0  0  0  0  0  0  0
   -3.7990    0.1360    0.8235 C   0  0  0  0  0  0  0  0  0  0  0  0
   -5.2387   -0.3044    0.5600 C   0  0  0  0  0  0  0  0  0  0  0  0
   -5.8107    0.3261   -0.7141 C   0  0  0  0  0  0  0  0  0  0  0  0
   -7.2350   -0.1058   -0.9575 C   0  0  0  0  0  0  0  0  0  0  0  0
   -8.3071    0.6765   -0.5093 C   0  0  0  0  0  0  0  0  0  0  0  0
   -9.6224    0.2639   -0.7304 C   0  0  0  0  0  0  0  0  0  0  0  0
   -9.8769   -0.9347   -1.3960 C   0  0  0  0  0  0  0  0  0  0  0  0
   -8.8171   -1.7231   -1.8395 C   0  0  0  0  0  0  0  0  0  0  0  0
   -7.5018   -1.3121   -1.6196 C   0  0  0  0  0  0  0  0  0  0  0  0
    2.3229    2.3016   -0.3395 C   0  0  0  0  0  0  0  0  0  0  0  0
    3.7144    1.7419   -0.0346 C   0  0  0  0  0  0  0  0  0  0  0  0
    6.1792    1.1601   -1.4573 H   0  0  0  0  0  0  0  0  0  0  0  0
    7.1500    1.9121   -0.1567 H   0  0  0  0  0  0  0  0  0  0  0  0
    7.9131    0.8379   -1.3079 H   0  0  0  0  0  0  0  0  0  0  0  0
    7.8040   -1.5115   -1.1668 H   0  0  0  0  0  0  0  0  0  0  0  0
    7.3704   -3.5401    0.1534 H   0  0  0  0  0  0  0  0  0  0  0  0
    6.0020   -3.4120    2.2170 H   0  0  0  0  0  0  0  0  0  0  0  0
    5.0596   -1.2613    2.9408 H   0  0  0  0  0  0  0  0  0  0  0  0
    5.2824    1.1597    2.8965 H   0  0  0  0  0  0  0  0  0  0  0  0
    5.8769    2.0314    1.5445 H   0  0  0  0  0  0  0  0  0  0  0  0
    3.0325    0.2332    2.8958 H   0  0  0  0  0  0  0  0  0  0  0  0
    3.0052   -0.4820    1.2771 H   0  0  0  0  0  0  0  0  0  0  0  0
    0.7529    0.2338    1.9935 H   0  0  0  0  0  0  0  0  0  0  0  0
    1.3370    1.8587    2.3226 H   0  0  0  0  0  0  0  0  0  0  0  0
    0.2890    2.0682    0.2244 H   0  0  0  0  0  0  0  0  0  0  0  0
    1.5916   -1.8630   -2.7742 H   0  0  0  0  0  0  0  0  0  0  0  0
   -1.0243   -1.9947   -2.0187 H   0  0  0  0  0  0  0  0  0  0  0  0
   -1.4347    0.8450    0.6798 H   0  0  0  0  0  0  0  0  0  0  0  0
   -3.7246    1.2288    0.7725 H   0  0  0  0  0  0  0  0  0  0  0  0
   -3.5147   -0.1740    1.8368 H   0  0  0  0  0  0  0  0  0  0  0  0
   -5.2948   -1.3984    0.5014 H   0  0  0  0  0  0  0  0  0  0  0  0
   -5.8561   -0.0069    1.4176 H   0  0  0  0  0  0  0  0  0  0  0  0
   -5.2051    0.0625   -1.5900 H   0  0  0  0  0  0  0  0  0  0  0  0
   -5.7686    1.4206   -0.6412 H   0  0  0  0  0  0  0  0  0  0  0  0
   -8.1245    1.6125    0.0130 H   0  0  0  0  0  0  0  0  0  0  0  0
  -10.4489    0.8777   -0.3833 H   0  0  0  0  0  0  0  0  0  0  0  0
  -10.9007   -1.2552   -1.5685 H   0  0  0  0  0  0  0  0  0  0  0  0
   -9.0133   -2.6589   -2.3571 H   0  0  0  0  0  0  0  0  0  0  0  0
   -6.6817   -1.9374   -1.9679 H   0  0  0  0  0  0  0  0  0  0  0  0
    2.2477    3.2971    0.1191 H   0  0  0  0  0  0  0  0  0  0  0  0
    2.2112    2.4525   -1.4199 H   0  0  0  0  0  0  0  0  0  0  0  0
    4.4433    2.5000   -0.3428 H   0  0  0  0  0  0  0  0  0  0  0  0
    3.9101    0.8446   -0.6292 H   0  0  0  0  0  0  0  0  0  0  0  0
  1  2  1  0
  2  3  2  0
  3  4  1  0
  4  5  2  0
  5  6  1  0
  6  7  2  0
  7  8  1  0
  8  9  1  0
  9 10  1  0
 10 11  1  0
 11 12  1  0
 12 13  1  0
 13 14  1  0
 14 15  2  0
 15 16  1  0
 16 17  2  0
 17 18  1  0
 18 19  1  0
 19 20  2  0
 19 21  1  0
 21 22  1  0
 22 23  1  0
 23 24  1  0
 24 25  2  0
 25 26  1  0
 26 27  2  0
 27 28  1  0
 28 29  2  0
 12 30  1  0
 30 31  1  0
  7  2  1  0
 31  9  1  0
 17 13  1  0
 29 24  1  0
  1 32  1  0
  1 33  1  0
  1 34  1  0
  3 35  1  0
  4 36  1  0
  5 37  1  0
  6 38  1  0
  8 39  1  0
  8 40  1  0
 10 41  1  0
 10 42  1  0
 11 43  1  0
 11 44  1  0
 12 45  1  0
 15 46  1  0
 16 47  1  0
 18 48  1  0
 21 49  1  0
 21 50  1  0
 22 51  1  0
 22 52  1  0
 23 53  1  0
 23 54  1  0
 25 55  1  0
 26 56  1  0
 27 57  1  0
 28 58  1  0
 29 59  1  0
 30 60  1  0
 30 61  1  0
 31 62  1  0
 31 63  1  0
M  END
$$$$
