
     RDKit          3D

 37 38  0  0  0  0  0  0  0  0999 V2000
   -2.9430    2.6866    1.4599 C   0  0  0  0  0  0  0  0  0  0  0  0
   -1.9476    1.6733    1.4943 O   0  0  0  0  0  0  0  0  0  0  0  0
   -2.1912    0.5224    0.7888 C   0  0  0  0  0  0  0  0  0  0  0  0
   -3.3790    0.2549    0.0929 C   0  0  0  0  0  0  0  0  0  0  0  0
   -3.5436   -0.9287   -0.6362 C   0  0  0  0  0  0  0  0  0  0  0  0
   -4.7768   -1.2249   -1.2349 N   0  0  0  0  0  0  0  0  0  0  0  0
   -2.5466   -1.8985   -0.5738 C   0  0  0  0  0  0  0  0  0  0  0  0
   -1.3596   -1.6487    0.1148 C   0  0  0  0  0  0  0  0  0  0  0  0
   -1.1636   -0.4369    0.7968 C   0  0  0  0  0  0  0  0  0  0  0  0
    0.1542   -0.2062    1.5109 C   0  0  0  0  0  0  0  0  0  0  0  0
    1.2765    0.2310    0.5895 C   0  0  0  0  0  0  0  0  0  0  0  0
    1.3238    1.5688    0.1654 C   0  0  0  0  0  0  0  0  0  0  0  0
    2.3309    2.0122   -0.6924 C   0  0  0  0  0  0  0  0  0  0  0  0
    3.3364    1.1431   -1.1109 C   0  0  0  0  0  0  0  0  0  0  0  0
    4.2783    1.5633   -2.0597 N   0  0  0  0  0  0  0  0  0  0  0  0
    3.2566   -0.2048   -0.7438 C   0  0  0  0  0  0  0  0  0  0  0  0
    2.2516   -0.6659    0.1196 C   0  0  0  0  0  0  0  0  0  0  0  0
    2.1292   -1.9669    0.5380 O   0  0  0  0  0  0  0  0  0  0  0  0
    3.1992   -2.8533    0.2347 C   0  0  0  0  0  0  0  0  0  0  0  0
   -3.1234    3.0281    0.4361 H   0  0  0  0  0  0  0  0  0  0  0  0
   -3.8683    2.3454    1.9345 H   0  0  0  0  0  0  0  0  0  0  0  0
   -2.5694    3.5406    2.0338 H   0  0  0  0  0  0  0  0  0  0  0  0
   -4.2003    0.9619    0.0999 H   0  0  0  0  0  0  0  0  0  0  0  0
   -5.2954   -0.4027   -1.5252 H   0  0  0  0  0  0  0  0  0  0  0  0
   -4.7096   -1.9168   -1.9752 H   0  0  0  0  0  0  0  0  0  0  0  0
   -2.6782   -2.8577   -1.0670 H   0  0  0  0  0  0  0  0  0  0  0  0
   -0.5820   -2.4092    0.1236 H   0  0  0  0  0  0  0  0  0  0  0  0
    0.4282   -1.1215    2.0532 H   0  0  0  0  0  0  0  0  0  0  0  0
    0.0427    0.5370    2.3108 H   0  0  0  0  0  0  0  0  0  0  0  0
    0.5615    2.2712    0.4945 H   0  0  0  0  0  0  0  0  0  0  0  0
    2.3197    3.0450   -1.0296 H   0  0  0  0  0  0  0  0  0  0  0  0
    4.4661    2.5611   -2.0332 H   0  0  0  0  0  0  0  0  0  0  0  0
    5.1290    1.0101   -2.0688 H   0  0  0  0  0  0  0  0  0  0  0  0
    3.9943   -0.8860   -1.1530 H   0  0  0  0  0  0  0  0  0  0  0  0
    4.1491   -2.4804    0.6323 H   0  0  0  0  0  0  0  0  0  0  0  0
    3.2624   -3.0368   -0.8428 H   0  0  0  0  0  0  0  0  0  0  0  0
    2.9882   -3.8100    0.7222 H   0  0  0  0  0  0  0  0  0  0  0  0
  1  2  1  0
  2  3  1  0
  3  4  2  0
  4  5  1  0
  5  6  1  0
  5  7  2  0
  7  8  1  0
  8  9  2  0
  9 10  1  0
 10 11  1  0
 11 12  2  0
 12 13  1  0
 13 14  2  0
 14 15  1  0
 14 16  1  0
 16 17  2  0
 17 18  1  0
 18 19  1  0
  9  3  1  0
 17 11  1  0
  1 20  1  0
  1 21  1  0
  1 22  1  0
  4 23  1  0
  6 24  1  0
  6 25  1  0
  7 26  1  0
  8 27  1  0
 10 28  1  0
 10 29  1  0
 12 30  1  0
 13 31  1  0
 15 32  1  0
 15 33  1  0
 16 34  1  0
 19 35  1  0
 19 36  1  0
 19 37  1  0
M  END
$$$$
