
     RDKit          3D

 46 47  0  0  0  0  0  0  0  0999 V2000
    8.0133   -1.0706    2.8461 O   0  0  0  0  0  0  0  0  0  0  0  0
    7.8586   -1.6696    1.7952 C   0  0  0  0  0  0  0  0  0  0  0  0
    8.8022   -2.5141    1.3383 O   0  0  0  0  0  0  0  0  0  0  0  0
    6.6754   -1.5913    0.8761 C   0  0  0  0  0  0  0  0  0  0  0  0
    5.6523   -0.5916    1.4020 C   0  0  0  0  0  0  0  0  0  0  0  0
    4.4437   -0.4816    0.4921 C   0  0  0  0  0  0  0  0  0  0  0  0
    4.2993   -1.2074   -0.4839 O   0  0  0  0  0  0  0  0  0  0  0  0
    3.5739    0.5060    0.9257 N   0  0  0  0  0  0  0  0  0  0  0  0
    2.3593    0.9050    0.3314 C   0  0  0  0  0  0  0  0  0  0  0  0
    1.6598    1.9504    0.9528 C   0  0  0  0  0  0  0  0  0  0  0  0
    0.4510    2.4151    0.4275 C   0  0  0  0  0  0  0  0  0  0  0  0
   -0.0673    1.8242   -0.7245 C   0  0  0  0  0  0  0  0  0  0  0  0
   -1.5882    2.4142   -1.4211 S   0  0  0  0  0  6  0  0  0  0  0  0
   -1.9938    3.6097   -0.7152 O   0  0  0  0  0  0  0  0  0  0  0  0
   -1.4498    2.3867   -2.8598 O   0  0  0  0  0  0  0  0  0  0  0  0
   -2.6495    1.1794   -1.0181 N   0  0  0  0  0  0  0  0  0  0  0  0
   -3.3095    1.2218    0.2946 C   0  0  0  0  0  0  0  0  0  0  0  0
   -3.8363   -0.1670    0.6721 C   0  0  0  0  0  0  0  0  0  0  0  0
   -4.9111   -0.6736   -0.2613 C   0  0  0  0  0  0  0  0  0  0  0  0
   -6.2105   -0.1515   -0.2035 C   0  0  0  0  0  0  0  0  0  0  0  0
   -7.1942   -0.6066   -1.0823 C   0  0  0  0  0  0  0  0  0  0  0  0
   -6.8887   -1.5847   -2.0266 C   0  0  0  0  0  0  0  0  0  0  0  0
   -5.6006   -2.1118   -2.0912 C   0  0  0  0  0  0  0  0  0  0  0  0
   -4.6158   -1.6597   -1.2126 C   0  0  0  0  0  0  0  0  0  0  0  0
    0.6198    0.7884   -1.3590 C   0  0  0  0  0  0  0  0  0  0  0  0
    1.8295    0.3299   -0.8268 C   0  0  0  0  0  0  0  0  0  0  0  0
    9.5119   -2.4802    2.0131 H   0  0  0  0  0  0  0  0  0  0  0  0
    7.0250   -1.2842   -0.1160 H   0  0  0  0  0  0  0  0  0  0  0  0
    6.2288   -2.5893    0.7996 H   0  0  0  0  0  0  0  0  0  0  0  0
    6.1120    0.4007    1.4949 H   0  0  0  0  0  0  0  0  0  0  0  0
    5.3046   -0.8959    2.3971 H   0  0  0  0  0  0  0  0  0  0  0  0
    3.8456    1.0130    1.7592 H   0  0  0  0  0  0  0  0  0  0  0  0
    2.0489    2.4236    1.8509 H   0  0  0  0  0  0  0  0  0  0  0  0
   -0.0708    3.2341    0.9167 H   0  0  0  0  0  0  0  0  0  0  0  0
   -3.2157    0.8809   -1.8143 H   0  0  0  0  0  0  0  0  0  0  0  0
   -2.5971    1.5410    1.0630 H   0  0  0  0  0  0  0  0  0  0  0  0
   -4.1292    1.9477    0.2586 H   0  0  0  0  0  0  0  0  0  0  0  0
   -3.0037   -0.8813    0.7016 H   0  0  0  0  0  0  0  0  0  0  0  0
   -4.2452   -0.1358    1.6899 H   0  0  0  0  0  0  0  0  0  0  0  0
   -6.4669    0.6124    0.5265 H   0  0  0  0  0  0  0  0  0  0  0  0
   -8.2002   -0.1991   -1.0303 H   0  0  0  0  0  0  0  0  0  0  0  0
   -7.6554   -1.9380   -2.7106 H   0  0  0  0  0  0  0  0  0  0  0  0
   -5.3626   -2.8762   -2.8261 H   0  0  0  0  0  0  0  0  0  0  0  0
   -3.6150   -2.0822   -1.2773 H   0  0  0  0  0  0  0  0  0  0  0  0
    0.2259    0.3358   -2.2666 H   0  0  0  0  0  0  0  0  0  0  0  0
    2.3360   -0.4768   -1.3476 H   0  0  0  0  0  0  0  0  0  0  0  0
  1  2  2  0
  2  3  1  0
  2  4  1  0
  4  5  1  0
  5  6  1  0
  6  7  2  0
  6  8  1  0
  8  9  1  0
  9 10  2  0
 10 11  1  0
 11 12  2  0
 12 13  1  0
 13 14  2  0
 13 15  2  0
 13 16  1  0
 16 17  1  0
 17 18  1  0
 18 19  1  0
 19 20  2  0
 20 21  1  0
 21 22  2  0
 22 23  1  0
 23 24  2  0
 12 25  1  0
 25 26  2  0
 26  9  1  0
 24 19  1  0
  3 27  1  0
  4 28  1  0
  4 29  1  0
  5 30  1  0
  5 31  1  0
  8 32  1  0
 10 33  1  0
 11 34  1  0
 16 35  1  0
 17 36  1  0
 17 37  1  0
 18 38  1  0
 18 39  1  0
 20 40  1  0
 21 41  1  0
 22 42  1  0
 23 43  1  0
 24 44  1  0
 25 45  1  0
 26 46  1  0
M  END
$$$$
