
     RDKit          3D

 58 61  0  0  0  0  0  0  0  0999 V2000
    0.2251   -0.7063    2.9411 O   0  0  0  0  0  0  0  0  0  0  0  0
   -0.2988    0.0368    2.1154 C   0  0  0  0  0  0  0  0  0  0  0  0
    0.5178    1.1300    1.4136 C   0  0  0  0  0  0  0  0  0  0  0  0
    0.6531    0.8474   -0.0331 N   0  0  0  0  0  0  0  0  0  0  0  0
    1.4620   -0.3634   -0.2936 C   0  0  0  0  0  0  0  0  0  0  0  0
    2.9760   -0.1077   -0.3822 C   0  0  0  0  0  0  0  0  0  0  0  0
    3.3177    0.8502   -1.4836 N   0  0  0  0  0  0  0  0  0  0  0  0
    4.7500    1.7478   -1.2556 S   0  0  0  0  0  6  0  0  0  0  0  0
    5.0547    2.4597   -2.4776 O   0  0  0  0  0  0  0  0  0  0  0  0
    4.5888    2.4709   -0.0086 O   0  0  0  0  0  0  0  0  0  0  0  0
    5.9894    0.5214   -1.0182 C   0  0  0  0  0  0  0  0  0  0  0  0
    6.7038    0.4598    0.1853 C   0  0  0  0  0  0  0  0  0  0  0  0
    7.6781   -0.5266    0.3578 C   0  0  0  0  0  0  0  0  0  0  0  0
    7.9363   -1.4414   -0.6653 C   0  0  0  0  0  0  0  0  0  0  0  0
    7.2226   -1.3690   -1.8645 C   0  0  0  0  0  0  0  0  0  0  0  0
    6.2521   -0.3841   -2.0379 C   0  0  0  0  0  0  0  0  0  0  0  0
    5.5740   -0.3520   -3.1939 F   0  0  0  0  0  0  0  0  0  0  0  0
    2.1471    1.6835   -1.9118 C   0  0  0  0  0  0  0  0  0  0  0  0
    1.2393    2.0271   -0.7161 C   0  0  0  0  0  0  0  0  0  0  0  0
   -1.6157    0.0156    1.7003 N   0  0  0  0  0  0  0  0  0  0  0  0
   -2.6762   -0.8078    2.1456 C   0  0  0  0  0  0  0  0  0  0  0  0
   -2.4931   -1.7988    3.1173 C   0  0  0  0  0  0  0  0  0  0  0  0
   -3.5653   -2.5806    3.5594 C   0  0  0  0  0  0  0  0  0  0  0  0
   -4.8403   -2.3776    3.0463 C   0  0  0  0  0  0  0  0  0  0  0  0
   -5.0457   -1.3997    2.0749 C   0  0  0  0  0  0  0  0  0  0  0  0
   -3.9691   -0.6273    1.6016 C   0  0  0  0  0  0  0  0  0  0  0  0
   -4.2172    0.4104    0.5549 C   0  0  0  0  0  0  0  0  0  0  0  0
   -3.5064    1.4118    0.5005 O   0  0  0  0  0  0  0  0  0  0  0  0
   -5.3047    0.2660   -0.4413 C   0  0  0  0  0  0  0  0  0  0  0  0
   -5.5414   -0.9511   -1.0910 C   0  0  0  0  0  0  0  0  0  0  0  0
   -6.5755   -1.0480   -2.0240 C   0  0  0  0  0  0  0  0  0  0  0  0
   -7.3603    0.0682   -2.3174 C   0  0  0  0  0  0  0  0  0  0  0  0
   -7.1077    1.2876   -1.6882 C   0  0  0  0  0  0  0  0  0  0  0  0
   -6.0759    1.3904   -0.7546 C   0  0  0  0  0  0  0  0  0  0  0  0
    1.4926    1.2171    1.9063 H   0  0  0  0  0  0  0  0  0  0  0  0
   -0.0136    2.0761    1.5670 H   0  0  0  0  0  0  0  0  0  0  0  0
    1.2658   -1.1476    0.4421 H   0  0  0  0  0  0  0  0  0  0  0  0
    1.1227   -0.7829   -1.2482 H   0  0  0  0  0  0  0  0  0  0  0  0
    3.4829   -1.0552   -0.5880 H   0  0  0  0  0  0  0  0  0  0  0  0
    3.3354    0.2628    0.5845 H   0  0  0  0  0  0  0  0  0  0  0  0
    6.5109    1.1720    0.9864 H   0  0  0  0  0  0  0  0  0  0  0  0
    8.2393   -0.5819    1.2905 H   0  0  0  0  0  0  0  0  0  0  0  0
    8.6961   -2.2088   -0.5299 H   0  0  0  0  0  0  0  0  0  0  0  0
    7.4167   -2.0759   -2.6664 H   0  0  0  0  0  0  0  0  0  0  0  0
    1.5914    1.1258   -2.6749 H   0  0  0  0  0  0  0  0  0  0  0  0
    2.4785    2.6082   -2.3974 H   0  0  0  0  0  0  0  0  0  0  0  0
    1.8274    2.6278   -0.0151 H   0  0  0  0  0  0  0  0  0  0  0  0
    0.4180    2.6587   -1.0627 H   0  0  0  0  0  0  0  0  0  0  0  0
   -1.8709    0.7251    1.0080 H   0  0  0  0  0  0  0  0  0  0  0  0
   -1.5208   -1.9876    3.5613 H   0  0  0  0  0  0  0  0  0  0  0  0
   -3.3976   -3.3409    4.3184 H   0  0  0  0  0  0  0  0  0  0  0  0
   -5.6746   -2.9750    3.4079 H   0  0  0  0  0  0  0  0  0  0  0  0
   -6.0574   -1.2416    1.7090 H   0  0  0  0  0  0  0  0  0  0  0  0
   -4.9230   -1.8227   -0.8918 H   0  0  0  0  0  0  0  0  0  0  0  0
   -6.7655   -1.9922   -2.5292 H   0  0  0  0  0  0  0  0  0  0  0  0
   -8.1635   -0.0086   -3.0472 H   0  0  0  0  0  0  0  0  0  0  0  0
   -7.7109    2.1596   -1.9290 H   0  0  0  0  0  0  0  0  0  0  0  0
   -5.8746    2.3446   -0.2722 H   0  0  0  0  0  0  0  0  0  0  0  0
  1  2  2  0
  2  3  1  0
  3  4  1  0
  4  5  1  0
  5  6  1  0
  6  7  1  0
  7  8  1  0
  8  9  2  0
  8 10  2  0
  8 11  1  0
 11 12  2  0
 12 13  1  0
 13 14  2  0
 14 15  1  0
 15 16  2  0
 16 17  1  0
  7 18  1  0
 18 19  1  0
  2 20  1  0
 20 21  1  0
 21 22  2  0
 22 23  1  0
 23 24  2  0
 24 25  1  0
 25 26  2  0
 26 27  1  0
 27 28  2  0
 27 29  1  0
 29 30  2  0
 30 31  1  0
 31 32  2  0
 32 33  1  0
 33 34  2  0
 19  4  1  0
 26 21  1  0
 34 29  1  0
 16 11  1  0
  3 35  1  0
  3 36  1  0
  5 37  1  0
  5 38  1  0
  6 39  1  0
  6 40  1  0
 12 41  1  0
 13 42  1  0
 14 43  1  0
 15 44  1  0
 18 45  1  0
 18 46  1  0
 19 47  1  0
 19 48  1  0
 20 49  1  0
 22 50  1  0
 23 51  1  0
 24 52  1  0
 25 53  1  0
 30 54  1  0
 31 55  1  0
 32 56  1  0
 33 57  1  0
 34 58  1  0
M  END
$$$$
