
     RDKit          3D

 52 55  0  0  0  0  0  0  0  0999 V2000
   -7.0618    0.5438   -1.8331 C   0  0  0  0  0  0  0  0  0  0  0  0
   -6.8030   -0.1136   -0.5990 O   0  0  0  0  0  0  0  0  0  0  0  0
   -5.5669   -0.6785   -0.4467 C   0  0  0  0  0  0  0  0  0  0  0  0
   -5.3570   -1.2992    0.7865 C   0  0  0  0  0  0  0  0  0  0  0  0
   -4.1395   -1.9210    1.0760 C   0  0  0  0  0  0  0  0  0  0  0  0
   -3.1134   -1.9251    0.1288 C   0  0  0  0  0  0  0  0  0  0  0  0
   -1.8467   -2.5954    0.4369 C   0  0  0  0  0  0  0  0  0  0  0  0
   -0.6638   -1.9923    0.6278 C   0  0  0  0  0  0  0  0  0  0  0  0
   -0.3316   -0.3103    0.5552 S   0  0  0  0  0  0  0  0  0  0  0  0
    1.2996   -0.5434    1.1625 C   0  0  0  0  0  0  0  0  0  0  0  0
    2.0149    0.4911    1.6607 C   0  0  0  0  0  0  0  0  0  0  0  0
    3.1970    0.3607    2.4416 C   0  0  0  0  0  0  0  0  0  0  0  0
    4.1746    0.2782    3.0632 N   0  0  0  0  0  0  0  0  0  0  0  0
    1.5148    1.8907    1.5693 C   0  0  0  0  0  0  0  0  0  0  0  0
    1.2145    2.5267    2.5726 O   0  0  0  0  0  0  0  0  0  0  0  0
    1.4605    2.3994    0.2949 N   0  0  0  0  0  0  0  0  0  0  0  0
    0.8851    3.7024    0.0494 C   0  0  0  0  0  0  0  0  0  0  0  0
    1.2526    4.1169   -1.3246 C   0  0  0  0  0  0  0  0  0  0  0  0
    2.0914    5.0875   -1.8307 C   0  0  0  0  0  0  0  0  0  0  0  0
    2.0350    4.9700   -3.2403 C   0  0  0  0  0  0  0  0  0  0  0  0
    1.1584    3.9441   -3.5047 C   0  0  0  0  0  0  0  0  0  0  0  0
    0.6862    3.4112   -2.3482 O   0  0  0  0  0  0  0  0  0  0  0  0
    1.6348   -1.9038    1.1680 N   0  0  0  0  0  0  0  0  0  0  0  0
    2.9547   -2.4534    1.2291 C   0  0  0  0  0  0  0  0  0  0  0  0
    4.0010   -1.8818    0.4877 C   0  0  0  0  0  0  0  0  0  0  0  0
    5.2884   -2.4230    0.5365 C   0  0  0  0  0  0  0  0  0  0  0  0
    5.5435   -3.5456    1.3208 C   0  0  0  0  0  0  0  0  0  0  0  0
    4.5099   -4.1373    2.0411 C   0  0  0  0  0  0  0  0  0  0  0  0
    3.2212   -3.5998    1.9898 C   0  0  0  0  0  0  0  0  0  0  0  0
    0.5605   -2.7822    0.9271 C   0  0  0  0  0  0  0  0  0  0  0  0
    0.5711   -4.0062    0.9031 O   0  0  0  0  0  0  0  0  0  0  0  0
   -3.3247   -1.3115   -1.1107 C   0  0  0  0  0  0  0  0  0  0  0  0
   -4.5446   -0.6866   -1.3962 C   0  0  0  0  0  0  0  0  0  0  0  0
   -6.9994   -0.1552   -2.6743 H   0  0  0  0  0  0  0  0  0  0  0  0
   -8.0853    0.9279   -1.7985 H   0  0  0  0  0  0  0  0  0  0  0  0
   -6.3901    1.3964   -1.9742 H   0  0  0  0  0  0  0  0  0  0  0  0
   -6.1522   -1.3012    1.5282 H   0  0  0  0  0  0  0  0  0  0  0  0
   -4.0040   -2.3954    2.0452 H   0  0  0  0  0  0  0  0  0  0  0  0
   -1.9217   -3.6786    0.5246 H   0  0  0  0  0  0  0  0  0  0  0  0
    1.5456    1.7881   -0.5077 H   0  0  0  0  0  0  0  0  0  0  0  0
    1.2551    4.4140    0.7959 H   0  0  0  0  0  0  0  0  0  0  0  0
   -0.2015    3.6225    0.1593 H   0  0  0  0  0  0  0  0  0  0  0  0
    2.6820    5.7855   -1.2524 H   0  0  0  0  0  0  0  0  0  0  0  0
    2.5635    5.5624   -3.9739 H   0  0  0  0  0  0  0  0  0  0  0  0
    0.7886    3.4905   -4.4144 H   0  0  0  0  0  0  0  0  0  0  0  0
    3.8300   -1.0308   -0.1662 H   0  0  0  0  0  0  0  0  0  0  0  0
    6.0928   -1.9680   -0.0349 H   0  0  0  0  0  0  0  0  0  0  0  0
    6.5460   -3.9630    1.3651 H   0  0  0  0  0  0  0  0  0  0  0  0
    4.7044   -5.0179    2.6489 H   0  0  0  0  0  0  0  0  0  0  0  0
    2.4374   -4.0784    2.5731 H   0  0  0  0  0  0  0  0  0  0  0  0
   -2.5447   -1.3173   -1.8695 H   0  0  0  0  0  0  0  0  0  0  0  0
   -4.6632   -0.2220   -2.3685 H   0  0  0  0  0  0  0  0  0  0  0  0
  1  2  1  0
  2  3  1  0
  3  4  2  0
  4  5  1  0
  5  6  2  0
  6  7  1  0
  7  8  2  3
  8  9  1  0
  9 10  1  0
 10 11  2  3
 11 12  1  0
 12 13  3  0
 11 14  1  0
 14 15  2  0
 14 16  1  0
 16 17  1  0
 17 18  1  0
 18 19  2  0
 19 20  1  0
 20 21  2  0
 21 22  1  0
 10 23  1  0
 23 24  1  0
 24 25  2  0
 25 26  1  0
 26 27  2  0
 27 28  1  0
 28 29  2  0
 23 30  1  0
 30 31  2  0
  6 32  1  0
 32 33  2  0
 33  3  1  0
 30  8  1  0
 22 18  1  0
 29 24  1  0
  1 34  1  0
  1 35  1  0
  1 36  1  0
  4 37  1  0
  5 38  1  0
  7 39  1  0
 16 40  1  0
 17 41  1  0
 17 42  1  0
 19 43  1  0
 20 44  1  0
 21 45  1  0
 25 46  1  0
 26 47  1  0
 27 48  1  0
 28 49  1  0
 29 50  1  0
 32 51  1  0
 33 52  1  0
M  END
$$$$
