
     RDKit          3D

 43 45  0  0  0  0  0  0  0  0999 V2000
   -2.3411    4.7835   -0.0085 C   0  0  0  0  0  0  0  0  0  0  0  0
   -2.0163    3.6146   -0.7632 O   0  0  0  0  0  0  0  0  0  0  0  0
   -1.5756    2.5669   -0.0066 C   0  0  0  0  0  0  0  0  0  0  0  0
   -1.4149    2.6036    1.2062 O   0  0  0  0  0  0  0  0  0  0  0  0
   -1.2720    1.3921   -0.8988 C   0  0  0  0  0  0  0  0  0  0  0  0
   -1.0551    0.1673   -0.1468 N   0  0  0  0  0  0  0  0  0  0  0  0
    0.1469   -0.2996    0.3585 C   0  0  0  0  0  0  0  0  0  0  0  0
    1.4439    0.4558    0.2866 C   0  0  0  0  0  0  0  0  0  0  0  0
    1.9778    0.5300   -1.0859 N   0  0  0  0  0  0  0  0  0  0  0  0
    3.1612    1.4199   -1.1434 C   0  0  0  0  0  0  0  0  0  0  0  0
    4.4362    0.8216   -0.5228 C   0  0  0  0  0  0  0  0  0  0  0  0
    4.7586   -0.4418   -1.1133 O   0  0  0  0  0  0  0  0  0  0  0  0
    3.6688   -1.3627   -0.9748 C   0  0  0  0  0  0  0  0  0  0  0  0
    2.3842   -0.7999   -1.6061 C   0  0  0  0  0  0  0  0  0  0  0  0
   -0.0085   -1.4923    0.9169 N   0  0  0  0  0  0  0  0  0  0  0  0
   -1.3348   -1.7639    0.8072 C   0  0  0  0  0  0  0  0  0  0  0  0
   -2.0079   -0.7635    0.1700 C   0  0  0  0  0  0  0  0  0  0  0  0
   -3.4122   -0.8053   -0.0439 C   0  0  0  0  0  0  0  0  0  0  0  0
   -4.0669    0.0758   -0.5888 O   0  0  0  0  0  0  0  0  0  0  0  0
   -3.9846   -1.9610    0.4374 N   0  0  0  0  0  0  0  0  0  0  0  0
   -3.3496   -3.0027    1.0894 C   0  0  0  0  0  0  0  0  0  0  0  0
   -4.0215   -3.9614    1.4702 O   0  0  0  0  0  0  0  0  0  0  0  0
   -1.9755   -2.8923    1.2722 N   0  0  0  0  0  0  0  0  0  0  0  0
   -1.2325   -3.9328    1.9549 C   0  0  0  0  0  0  0  0  0  0  0  0
   -1.4508    5.1715    0.4963 H   0  0  0  0  0  0  0  0  0  0  0  0
   -2.7050    5.5451   -0.7036 H   0  0  0  0  0  0  0  0  0  0  0  0
   -3.1341    4.5662    0.7139 H   0  0  0  0  0  0  0  0  0  0  0  0
   -0.3791    1.6084   -1.4885 H   0  0  0  0  0  0  0  0  0  0  0  0
   -2.1012    1.2215   -1.5908 H   0  0  0  0  0  0  0  0  0  0  0  0
    1.2562    1.4702    0.6612 H   0  0  0  0  0  0  0  0  0  0  0  0
    2.1561   -0.0000    0.9837 H   0  0  0  0  0  0  0  0  0  0  0  0
    3.3586    1.6275   -2.2032 H   0  0  0  0  0  0  0  0  0  0  0  0
    2.9356    2.3888   -0.6823 H   0  0  0  0  0  0  0  0  0  0  0  0
    5.2813    1.4935   -0.7040 H   0  0  0  0  0  0  0  0  0  0  0  0
    4.3421    0.7000    0.5621 H   0  0  0  0  0  0  0  0  0  0  0  0
    3.9549   -2.2864   -1.4881 H   0  0  0  0  0  0  0  0  0  0  0  0
    3.5324   -1.6059    0.0847 H   0  0  0  0  0  0  0  0  0  0  0  0
    2.5587   -0.6792   -2.6836 H   0  0  0  0  0  0  0  0  0  0  0  0
    1.5715   -1.5292   -1.5204 H   0  0  0  0  0  0  0  0  0  0  0  0
   -4.9814   -2.0548    0.3252 H   0  0  0  0  0  0  0  0  0  0  0  0
   -1.8776   -4.7678    2.2413 H   0  0  0  0  0  0  0  0  0  0  0  0
   -0.4476   -4.3078    1.2906 H   0  0  0  0  0  0  0  0  0  0  0  0
   -0.7793   -3.5134    2.8586 H   0  0  0  0  0  0  0  0  0  0  0  0
  1  2  1  0
  2  3  1  0
  3  4  2  0
  3  5  1  0
  5  6  1  0
  6  7  1  0
  7  8  1  0
  8  9  1  0
  9 10  1  0
 10 11  1  0
 11 12  1  0
 12 13  1  0
 13 14  1  0
  7 15  2  0
 15 16  1  0
 16 17  2  0
 17 18  1  0
 18 19  2  0
 18 20  1  0
 20 21  1  0
 21 22  2  0
 21 23  1  0
 23 24  1  0
 17  6  1  0
 14  9  1  0
 23 16  1  0
  1 25  1  0
  1 26  1  0
  1 27  1  0
  5 28  1  0
  5 29  1  0
  8 30  1  0
  8 31  1  0
 10 32  1  0
 10 33  1  0
 11 34  1  0
 11 35  1  0
 13 36  1  0
 13 37  1  0
 14 38  1  0
 14 39  1  0
 20 40  1  0
 24 41  1  0
 24 42  1  0
 24 43  1  0
M  END
$$$$
