
     RDKit          3D

 49 51  0  0  0  0  0  0  0  0999 V2000
   -8.8644    1.3003    0.4948 C   0  0  0  0  0  0  0  0  0  0  0  0
   -7.9045    0.2831    0.7406 O   0  0  0  0  0  0  0  0  0  0  0  0
   -6.5776    0.6236    0.6527 C   0  0  0  0  0  0  0  0  0  0  0  0
   -6.1087    1.9056    0.3495 C   0  0  0  0  0  0  0  0  0  0  0  0
   -4.7359    2.1585    0.2809 C   0  0  0  0  0  0  0  0  0  0  0  0
   -3.8153    1.1337    0.5098 C   0  0  0  0  0  0  0  0  0  0  0  0
   -2.3810    1.4390    0.4552 C   0  0  0  0  0  0  0  0  0  0  0  0
   -1.4874    0.9066   -0.3896 C   0  0  0  0  0  0  0  0  0  0  0  0
   -1.7502   -0.2568   -1.6274 S   0  0  0  0  0  0  0  0  0  0  0  0
   -0.0608   -0.2612   -2.0975 C   0  0  0  0  0  0  0  0  0  0  0  0
    0.3928   -1.0293   -2.9303 O   0  0  0  0  0  0  0  0  0  0  0  0
    0.6311    0.6695   -1.3700 N   0  0  0  0  0  0  0  0  0  0  0  0
    2.0619    0.8602   -1.5533 C   0  0  0  0  0  0  0  0  0  0  0  0
    2.8758   -0.0926   -0.6826 C   0  0  0  0  0  0  0  0  0  0  0  0
    4.3640    0.1196   -0.8831 C   0  0  0  0  0  0  0  0  0  0  0  0
    4.7949    0.9623   -1.6610 O   0  0  0  0  0  0  0  0  0  0  0  0
    5.1105   -0.7403   -0.0942 N   0  0  0  0  0  0  0  0  0  0  0  0
    6.5160   -0.8325   -0.0146 C   0  0  0  0  0  0  0  0  0  0  0  0
    7.0445   -1.7887    0.8635 C   0  0  0  0  0  0  0  0  0  0  0  0
    8.4263   -1.9451    1.0023 C   0  0  0  0  0  0  0  0  0  0  0  0
    9.2942   -1.1461    0.2638 C   0  0  0  0  0  0  0  0  0  0  0  0
    8.7789   -0.1932   -0.6113 C   0  0  0  0  0  0  0  0  0  0  0  0
    7.3956   -0.0367   -0.7503 C   0  0  0  0  0  0  0  0  0  0  0  0
   -0.0541    1.3055   -0.3622 C   0  0  0  0  0  0  0  0  0  0  0  0
    0.4272    2.0646    0.4668 O   0  0  0  0  0  0  0  0  0  0  0  0
   -4.2801   -0.1489    0.8273 C   0  0  0  0  0  0  0  0  0  0  0  0
   -5.6542   -0.4144    0.8900 C   0  0  0  0  0  0  0  0  0  0  0  0
   -6.1914   -1.6425    1.1904 O   0  0  0  0  0  0  0  0  0  0  0  0
   -5.3061   -2.7517    1.2452 C   0  0  0  0  0  0  0  0  0  0  0  0
   -8.7802    1.6850   -0.5269 H   0  0  0  0  0  0  0  0  0  0  0  0
   -8.7822    2.1071    1.2305 H   0  0  0  0  0  0  0  0  0  0  0  0
   -9.8584    0.8549    0.6006 H   0  0  0  0  0  0  0  0  0  0  0  0
   -6.7855    2.7322    0.1614 H   0  0  0  0  0  0  0  0  0  0  0  0
   -4.3959    3.1646    0.0436 H   0  0  0  0  0  0  0  0  0  0  0  0
   -2.0561    2.1941    1.1709 H   0  0  0  0  0  0  0  0  0  0  0  0
    2.3096    1.9000   -1.3081 H   0  0  0  0  0  0  0  0  0  0  0  0
    2.3031    0.7036   -2.6116 H   0  0  0  0  0  0  0  0  0  0  0  0
    2.6332   -1.1326   -0.9312 H   0  0  0  0  0  0  0  0  0  0  0  0
    2.6385    0.0661    0.3760 H   0  0  0  0  0  0  0  0  0  0  0  0
    4.5965   -1.3810    0.4973 H   0  0  0  0  0  0  0  0  0  0  0  0
    6.3912   -2.4265    1.4528 H   0  0  0  0  0  0  0  0  0  0  0  0
    8.8239   -2.6902    1.6865 H   0  0  0  0  0  0  0  0  0  0  0  0
   10.3695   -1.2643    0.3684 H   0  0  0  0  0  0  0  0  0  0  0  0
    9.4517    0.4339   -1.1911 H   0  0  0  0  0  0  0  0  0  0  0  0
    7.0407    0.7185   -1.4441 H   0  0  0  0  0  0  0  0  0  0  0  0
   -3.5543   -0.9284    1.0328 H   0  0  0  0  0  0  0  0  0  0  0  0
   -5.9085   -3.6534    1.3920 H   0  0  0  0  0  0  0  0  0  0  0  0
   -4.7551   -2.8695    0.3060 H   0  0  0  0  0  0  0  0  0  0  0  0
   -4.6238   -2.6665    2.0970 H   0  0  0  0  0  0  0  0  0  0  0  0
  1  2  1  0
  2  3  1  0
  3  4  2  0
  4  5  1  0
  5  6  2  0
  6  7  1  0
  7  8  2  3
  8  9  1  0
  9 10  1  0
 10 11  2  0
 10 12  1  0
 12 13  1  0
 13 14  1  0
 14 15  1  0
 15 16  2  0
 15 17  1  0
 17 18  1  0
 18 19  2  0
 19 20  1  0
 20 21  2  0
 21 22  1  0
 22 23  2  0
 12 24  1  0
 24 25  2  0
  6 26  1  0
 26 27  2  0
 27 28  1  0
 28 29  1  0
 27  3  1  0
 24  8  1  0
 23 18  1  0
  1 30  1  0
  1 31  1  0
  1 32  1  0
  4 33  1  0
  5 34  1  0
  7 35  1  0
 13 36  1  0
 13 37  1  0
 14 38  1  0
 14 39  1  0
 17 40  1  0
 19 41  1  0
 20 42  1  0
 21 43  1  0
 22 44  1  0
 23 45  1  0
 26 46  1  0
 29 47  1  0
 29 48  1  0
 29 49  1  0
M  END
$$$$
