
     RDKit          3D

 55 58  0  0  0  0  0  0  0  0999 V2000
   -9.2014   -1.3333    0.0752 C   0  0  0  0  0  0  0  0  0  0  0  0
   -8.4261   -0.0646    0.3926 C   0  0  0  0  0  0  0  0  0  0  0  0
   -6.9804   -0.1558   -0.0921 C   0  0  0  0  0  0  0  0  0  0  0  0
   -6.2059    1.1183    0.2274 C   0  0  0  0  0  0  0  0  0  0  0  0
   -4.8356    1.0290   -0.2356 N   0  0  0  0  0  0  0  0  0  0  0  0
   -3.8902    1.9309    0.2147 C   0  0  0  0  0  0  0  0  0  0  0  0
   -4.1150    2.7736    1.0759 O   0  0  0  0  0  0  0  0  0  0  0  0
   -2.5538    1.8657   -0.4405 C   0  0  0  0  0  0  0  0  0  0  0  0
   -1.7709    3.0236   -0.4771 C   0  0  0  0  0  0  0  0  0  0  0  0
   -0.5118    3.0058   -1.0841 C   0  0  0  0  0  0  0  0  0  0  0  0
   -0.0058    1.8266   -1.6507 C   0  0  0  0  0  0  0  0  0  0  0  0
    1.3650    1.8081   -2.3043 C   0  0  0  0  0  0  0  0  0  0  0  0
    2.3662    1.0720   -1.5218 N   0  0  0  0  0  0  0  0  0  0  0  0
    3.1241    1.7017   -0.5127 C   0  0  0  0  0  0  0  0  0  0  0  0
    3.0777    3.3229   -0.0728 S   0  0  0  0  0  0  0  0  0  0  0  0
    4.0158    0.9217    0.1935 N   0  0  0  0  0  0  0  0  0  0  0  0
    4.1939   -0.4082   -0.0739 C   0  0  0  0  0  0  0  0  0  0  0  0
    3.4716   -0.9856   -1.0736 C   0  0  0  0  0  0  0  0  0  0  0  0
    3.8341   -2.3012   -1.1476 N   0  0  0  0  0  0  0  0  0  0  0  0
    4.7913   -2.5729   -0.1901 C   0  0  0  0  0  0  0  0  0  0  0  0
    5.4516   -3.7674    0.1084 C   0  0  0  0  0  0  0  0  0  0  0  0
    6.3872   -3.7408    1.1482 C   0  0  0  0  0  0  0  0  0  0  0  0
    6.6581   -2.5737    1.8660 C   0  0  0  0  0  0  0  0  0  0  0  0
    7.5995   -2.7217    2.8500 O   0  0  0  0  0  0  0  0  0  0  0  0
    7.9080   -1.5710    3.6263 C   0  0  0  0  0  0  0  0  0  0  0  0
    5.9865   -1.3862    1.5514 C   0  0  0  0  0  0  0  0  0  0  0  0
    5.0370   -1.3840    0.5067 C   0  0  0  0  0  0  0  0  0  0  0  0
    2.5175   -0.2863   -1.8731 C   0  0  0  0  0  0  0  0  0  0  0  0
    1.9076   -0.8455   -2.7807 O   0  0  0  0  0  0  0  0  0  0  0  0
   -0.7959    0.6674   -1.6023 C   0  0  0  0  0  0  0  0  0  0  0  0
   -2.0571    0.6825   -0.9972 C   0  0  0  0  0  0  0  0  0  0  0  0
   -8.7469   -2.2027    0.5609 H   0  0  0  0  0  0  0  0  0  0  0  0
   -9.2282   -1.5171   -1.0036 H   0  0  0  0  0  0  0  0  0  0  0  0
  -10.2328   -1.2462    0.4307 H   0  0  0  0  0  0  0  0  0  0  0  0
   -8.9244    0.7894   -0.0809 H   0  0  0  0  0  0  0  0  0  0  0  0
   -8.4459    0.1074    1.4751 H   0  0  0  0  0  0  0  0  0  0  0  0
   -6.4840   -1.0144    0.3773 H   0  0  0  0  0  0  0  0  0  0  0  0
   -6.9626   -0.3365   -1.1742 H   0  0  0  0  0  0  0  0  0  0  0  0
   -6.6623    1.9845   -0.2650 H   0  0  0  0  0  0  0  0  0  0  0  0
   -6.2043    1.3086    1.3068 H   0  0  0  0  0  0  0  0  0  0  0  0
   -4.6771    0.6033   -1.1389 H   0  0  0  0  0  0  0  0  0  0  0  0
   -2.1405    3.9464   -0.0332 H   0  0  0  0  0  0  0  0  0  0  0  0
    0.0691    3.9260   -1.1033 H   0  0  0  0  0  0  0  0  0  0  0  0
    1.7107    2.8316   -2.4858 H   0  0  0  0  0  0  0  0  0  0  0  0
    1.2616    1.3660   -3.3034 H   0  0  0  0  0  0  0  0  0  0  0  0
    4.5601    1.3577    0.9283 H   0  0  0  0  0  0  0  0  0  0  0  0
    3.4551   -2.9691   -1.8066 H   0  0  0  0  0  0  0  0  0  0  0  0
    5.2541   -4.6838   -0.4380 H   0  0  0  0  0  0  0  0  0  0  0  0
    6.9179   -4.6560    1.4045 H   0  0  0  0  0  0  0  0  0  0  0  0
    7.0281   -1.2157    4.1727 H   0  0  0  0  0  0  0  0  0  0  0  0
    8.3347   -0.7778    3.0035 H   0  0  0  0  0  0  0  0  0  0  0  0
    8.6640   -1.8580    4.3635 H   0  0  0  0  0  0  0  0  0  0  0  0
    6.1720   -0.4635    2.0865 H   0  0  0  0  0  0  0  0  0  0  0  0
   -0.4369   -0.2643   -2.0356 H   0  0  0  0  0  0  0  0  0  0  0  0
   -2.6239   -0.2428   -0.9474 H   0  0  0  0  0  0  0  0  0  0  0  0
  1  2  1  0
  2  3  1  0
  3  4  1  0
  4  5  1  0
  5  6  1  0
  6  7  2  0
  6  8  1  0
  8  9  2  0
  9 10  1  0
 10 11  2  0
 11 12  1  0
 12 13  1  0
 13 14  1  0
 14 15  2  0
 14 16  1  0
 16 17  1  0
 17 18  2  0
 18 19  1  0
 19 20  1  0
 20 21  2  0
 21 22  1  0
 22 23  2  0
 23 24  1  0
 24 25  1  0
 23 26  1  0
 26 27  2  0
 18 28  1  0
 28 29  2  0
 11 30  1  0
 30 31  2  0
 31  8  1  0
 28 13  1  0
 27 17  1  0
 27 20  1  0
  1 32  1  0
  1 33  1  0
  1 34  1  0
  2 35  1  0
  2 36  1  0
  3 37  1  0
  3 38  1  0
  4 39  1  0
  4 40  1  0
  5 41  1  0
  9 42  1  0
 10 43  1  0
 12 44  1  0
 12 45  1  0
 16 46  1  0
 19 47  1  0
 21 48  1  0
 22 49  1  0
 25 50  1  0
 25 51  1  0
 25 52  1  0
 26 53  1  0
 30 54  1  0
 31 55  1  0
M  END
$$$$
