
     RDKit          3D

 69 73  0  0  0  0  0  0  0  0999 V2000
    0.3643   -6.4138   -0.9230 C   0  0  0  0  0  0  0  0  0  0  0  0
    0.0274   -5.4143    0.0301 O   0  0  0  0  0  0  0  0  0  0  0  0
   -0.9419   -4.5176   -0.3293 C   0  0  0  0  0  0  0  0  0  0  0  0
   -1.5760   -4.4489   -1.5714 C   0  0  0  0  0  0  0  0  0  0  0  0
   -2.5558   -3.4807   -1.8075 C   0  0  0  0  0  0  0  0  0  0  0  0
   -2.9055   -2.5774   -0.8038 C   0  0  0  0  0  0  0  0  0  0  0  0
   -2.2732   -2.6323    0.4433 C   0  0  0  0  0  0  0  0  0  0  0  0
   -2.6178   -1.6716    1.4923 C   0  0  0  0  0  0  0  0  0  0  0  0
   -3.7272   -2.1493    2.7001 S   0  0  0  0  0  0  0  0  0  0  0  0
   -3.6084   -0.6457    3.5276 C   0  0  0  0  0  0  0  0  0  0  0  0
   -4.2768   -0.2821    4.7151 C   0  0  0  0  0  0  0  0  0  0  0  0
   -4.0582    0.9890    5.2614 C   0  0  0  0  0  0  0  0  0  0  0  0
   -4.6575    1.4414    6.4136 O   0  0  0  0  0  0  0  0  0  0  0  0
   -5.3893    0.5010    7.1869 C   0  0  0  0  0  0  0  0  0  0  0  0
   -3.1944    1.8919    4.6239 C   0  0  0  0  0  0  0  0  0  0  0  0
   -3.0480    3.1178    5.2274 O   0  0  0  0  0  0  0  0  0  0  0  0
   -2.1284    4.0330    4.6474 C   0  0  0  0  0  0  0  0  0  0  0  0
   -2.5425    1.5149    3.4426 C   0  0  0  0  0  0  0  0  0  0  0  0
   -2.7390    0.2275    2.8766 C   0  0  0  0  0  0  0  0  0  0  0  0
   -2.1740   -0.3758    1.6913 C   0  0  0  0  0  0  0  0  0  0  0  0
   -1.2080    0.2475    0.7970 C   0  0  0  0  0  0  0  0  0  0  0  0
    0.1436    0.2840    1.1465 C   0  0  0  0  0  0  0  0  0  0  0  0
    1.0665    0.8909    0.2924 C   0  0  0  0  0  0  0  0  0  0  0  0
    0.6523    1.4564   -0.9163 C   0  0  0  0  0  0  0  0  0  0  0  0
    1.6548    2.0114   -1.6619 O   0  0  0  0  0  0  0  0  0  0  0  0
    1.3512    2.3050   -3.0288 C   0  0  0  0  0  0  0  0  0  0  0  0
    2.6437    2.6846   -3.7786 C   0  0  0  0  0  0  0  0  0  0  0  0
    3.4511    1.5354   -4.2448 N   0  0  0  0  0  0  0  0  0  0  0  0
    3.8875    0.6786   -3.1262 C   0  0  0  0  0  0  0  0  0  0  0  0
    5.1071   -0.1715   -3.4809 C   0  0  0  0  0  0  0  0  0  0  0  0
    6.3135    0.7107   -3.8054 C   0  0  0  0  0  0  0  0  0  0  0  0
    5.9008    2.0628   -4.3861 C   0  0  0  0  0  0  0  0  0  0  0  0
    4.5598    1.9701   -5.1110 C   0  0  0  0  0  0  0  0  0  0  0  0
   -0.7008    1.4348   -1.2567 C   0  0  0  0  0  0  0  0  0  0  0  0
   -1.6297    0.8344   -0.4000 C   0  0  0  0  0  0  0  0  0  0  0  0
   -1.2910   -3.6046    0.6704 C   0  0  0  0  0  0  0  0  0  0  0  0
   -0.5054   -7.0308   -1.1728 H   0  0  0  0  0  0  0  0  0  0  0  0
    0.8058   -5.9695   -1.8209 H   0  0  0  0  0  0  0  0  0  0  0  0
    1.1172   -7.0680   -0.4719 H   0  0  0  0  0  0  0  0  0  0  0  0
   -1.3283   -5.1292   -2.3792 H   0  0  0  0  0  0  0  0  0  0  0  0
   -3.0460   -3.4300   -2.7770 H   0  0  0  0  0  0  0  0  0  0  0  0
   -3.6701   -1.8296   -0.9992 H   0  0  0  0  0  0  0  0  0  0  0  0
   -4.9472   -0.9980    5.1761 H   0  0  0  0  0  0  0  0  0  0  0  0
   -4.7616   -0.3479    7.4804 H   0  0  0  0  0  0  0  0  0  0  0  0
   -6.2854    0.1667    6.6541 H   0  0  0  0  0  0  0  0  0  0  0  0
   -5.7162    1.0034    8.1024 H   0  0  0  0  0  0  0  0  0  0  0  0
   -2.4492    4.3321    3.6440 H   0  0  0  0  0  0  0  0  0  0  0  0
   -1.1138    3.6206    4.6337 H   0  0  0  0  0  0  0  0  0  0  0  0
   -2.1121    4.9320    5.2715 H   0  0  0  0  0  0  0  0  0  0  0  0
   -1.8710    2.1924    2.9270 H   0  0  0  0  0  0  0  0  0  0  0  0
    0.4868   -0.1617    2.0768 H   0  0  0  0  0  0  0  0  0  0  0  0
    2.1182    0.9133    0.5662 H   0  0  0  0  0  0  0  0  0  0  0  0
    0.8708    1.4516   -3.5253 H   0  0  0  0  0  0  0  0  0  0  0  0
    0.6739    3.1683   -3.0580 H   0  0  0  0  0  0  0  0  0  0  0  0
    3.2554    3.3492   -3.1556 H   0  0  0  0  0  0  0  0  0  0  0  0
    2.3294    3.2524   -4.6635 H   0  0  0  0  0  0  0  0  0  0  0  0
    4.1431    1.2829   -2.2452 H   0  0  0  0  0  0  0  0  0  0  0  0
    3.0656    0.0108   -2.8444 H   0  0  0  0  0  0  0  0  0  0  0  0
    4.8727   -0.8092   -4.3429 H   0  0  0  0  0  0  0  0  0  0  0  0
    5.3556   -0.8459   -2.6526 H   0  0  0  0  0  0  0  0  0  0  0  0
    6.9688    0.1796   -4.5060 H   0  0  0  0  0  0  0  0  0  0  0  0
    6.9055    0.8845   -2.8979 H   0  0  0  0  0  0  0  0  0  0  0  0
    5.8265    2.8006   -3.5780 H   0  0  0  0  0  0  0  0  0  0  0  0
    6.6786    2.4266   -5.0662 H   0  0  0  0  0  0  0  0  0  0  0  0
    4.3366    2.9250   -5.6043 H   0  0  0  0  0  0  0  0  0  0  0  0
    4.6514    1.2389   -5.9256 H   0  0  0  0  0  0  0  0  0  0  0  0
   -1.0657    1.8809   -2.1762 H   0  0  0  0  0  0  0  0  0  0  0  0
   -2.6815    0.8261   -0.6742 H   0  0  0  0  0  0  0  0  0  0  0  0
   -0.7885   -3.6555    1.6342 H   0  0  0  0  0  0  0  0  0  0  0  0
  1  2  1  0
  2  3  1  0
  3  4  2  0
  4  5  1  0
  5  6  2  0
  6  7  1  0
  7  8  1  0
  8  9  1  0
  9 10  1  0
 10 11  2  0
 11 12  1  0
 12 13  1  0
 13 14  1  0
 12 15  2  0
 15 16  1  0
 16 17  1  0
 15 18  1  0
 18 19  2  0
 19 20  1  0
 20 21  1  0
 21 22  2  0
 22 23  1  0
 23 24  2  0
 24 25  1  0
 25 26  1  0
 26 27  1  0
 27 28  1  0
 28 29  1  0
 29 30  1  0
 30 31  1  0
 31 32  1  0
 32 33  1  0
 24 34  1  0
 34 35  2  0
  7 36  2  0
 36  3  1  0
 20  8  2  0
 35 21  1  0
 19 10  1  0
 33 28  1  0
  1 37  1  0
  1 38  1  0
  1 39  1  0
  4 40  1  0
  5 41  1  0
  6 42  1  0
 11 43  1  0
 14 44  1  0
 14 45  1  0
 14 46  1  0
 17 47  1  0
 17 48  1  0
 17 49  1  0
 18 50  1  0
 22 51  1  0
 23 52  1  0
 26 53  1  0
 26 54  1  0
 27 55  1  0
 27 56  1  0
 29 57  1  0
 29 58  1  0
 30 59  1  0
 30 60  1  0
 31 61  1  0
 31 62  1  0
 32 63  1  0
 32 64  1  0
 33 65  1  0
 33 66  1  0
 34 67  1  0
 35 68  1  0
 36 69  1  0
M  END
$$$$
