
     RDKit          3D

 81 84  0  0  0  0  0  0  0  0999 V2000
   -5.3164   -2.2545    1.1065 O   0  0  0  0  0  0  0  0  0  0  0  0
   -5.4254   -1.0382    1.0119 C   0  0  0  0  0  0  0  0  0  0  0  0
   -6.5802   -0.4305    0.5600 N   0  0  0  0  0  0  0  0  0  0  0  0
   -7.7667   -1.1856    0.2094 C   0  0  0  0  0  0  0  0  0  0  0  0
   -7.7957   -1.6390   -1.2488 C   0  0  0  0  0  0  0  0  0  0  0  0
   -7.7158   -0.4961   -2.2709 C   0  0  0  0  0  0  0  0  0  0  0  0
   -8.6880    0.5873   -2.0545 N   0  0  0  0  0  0  0  0  0  0  0  0
   -8.4007    1.7281   -2.9554 C   0  0  0  0  0  0  0  0  0  0  0  0
   -9.4268    2.8572   -2.7719 C   0  0  0  0  0  0  0  0  0  0  0  0
  -10.7591    2.3903   -3.0212 O   0  0  0  0  0  0  0  0  0  0  0  0
  -11.0731    1.3110   -2.1358 C   0  0  0  0  0  0  0  0  0  0  0  0
  -10.0820    0.1465   -2.2957 C   0  0  0  0  0  0  0  0  0  0  0  0
   -4.4950   -0.0905    1.3826 N   0  0  0  0  0  0  0  0  0  0  0  0
   -3.2559   -0.2981    2.0159 C   0  0  0  0  0  0  0  0  0  0  0  0
   -2.6745   -1.5490    2.2133 C   0  0  0  0  0  0  0  0  0  0  0  0
   -1.4702   -1.6701    2.9201 C   0  0  0  0  0  0  0  0  0  0  0  0
   -0.8356   -0.5446    3.4573 C   0  0  0  0  0  0  0  0  0  0  0  0
    0.4110   -0.6898    4.2966 C   0  0  0  0  0  0  0  0  0  0  0  0
    1.7157   -0.4759    3.5627 C   0  0  0  0  0  0  0  0  0  0  0  0
    2.1901    0.8168    3.3023 C   0  0  0  0  0  0  0  0  0  0  0  0
    3.4341    1.0053    2.6902 C   0  0  0  0  0  0  0  0  0  0  0  0
    4.2376   -0.0896    2.3448 C   0  0  0  0  0  0  0  0  0  0  0  0
    5.5089    0.1863    1.8019 N   0  0  0  0  0  0  0  0  0  0  0  0
    6.5547   -0.6946    1.6336 C   0  0  0  0  0  0  0  0  0  0  0  0
    6.5618   -1.8901    1.8931 O   0  0  0  0  0  0  0  0  0  0  0  0
    7.6707   -0.0247    1.1654 N   0  0  0  0  0  0  0  0  0  0  0  0
    8.9113   -0.7373    0.9255 C   0  0  0  0  0  0  0  0  0  0  0  0
    8.9599   -1.3754   -0.4631 C   0  0  0  0  0  0  0  0  0  0  0  0
    9.1198   -0.3403   -1.5921 C   0  0  0  0  0  0  0  0  0  0  0  0
    8.0104    0.6288   -1.6757 N   0  0  0  0  0  0  0  0  0  0  0  0
    8.3901    1.8117   -2.4856 C   0  0  0  0  0  0  0  0  0  0  0  0
    8.4726    1.5337   -3.9963 C   0  0  0  0  0  0  0  0  0  0  0  0
    7.2342    1.0110   -4.4943 O   0  0  0  0  0  0  0  0  0  0  0  0
    6.8754   -0.1918   -3.8035 C   0  0  0  0  0  0  0  0  0  0  0  0
    6.7895    0.0362   -2.2791 C   0  0  0  0  0  0  0  0  0  0  0  0
    3.7530   -1.3776    2.5746 C   0  0  0  0  0  0  0  0  0  0  0  0
    2.5024   -1.5701    3.1753 C   0  0  0  0  0  0  0  0  0  0  0  0
   -1.4094    0.7142    3.2361 C   0  0  0  0  0  0  0  0  0  0  0  0
   -2.5998    0.8354    2.5167 C   0  0  0  0  0  0  0  0  0  0  0  0
   -6.5297    0.5175    0.2173 H   0  0  0  0  0  0  0  0  0  0  0  0
   -7.8344   -2.0624    0.8632 H   0  0  0  0  0  0  0  0  0  0  0  0
   -8.6275   -0.5485    0.4381 H   0  0  0  0  0  0  0  0  0  0  0  0
   -8.7102   -2.2214   -1.4135 H   0  0  0  0  0  0  0  0  0  0  0  0
   -6.9583   -2.3214   -1.4314 H   0  0  0  0  0  0  0  0  0  0  0  0
   -7.8208   -0.9169   -3.2794 H   0  0  0  0  0  0  0  0  0  0  0  0
   -6.7019   -0.0764   -2.2138 H   0  0  0  0  0  0  0  0  0  0  0  0
   -8.4218    1.3938   -3.9996 H   0  0  0  0  0  0  0  0  0  0  0  0
   -7.4017    2.1284   -2.7464 H   0  0  0  0  0  0  0  0  0  0  0  0
   -9.3781    3.2807   -1.7601 H   0  0  0  0  0  0  0  0  0  0  0  0
   -9.2186    3.6707   -3.4792 H   0  0  0  0  0  0  0  0  0  0  0  0
  -11.0795    1.6766   -1.0997 H   0  0  0  0  0  0  0  0  0  0  0  0
  -12.0855    0.9702   -2.3750 H   0  0  0  0  0  0  0  0  0  0  0  0
  -10.1786   -0.2606   -3.3140 H   0  0  0  0  0  0  0  0  0  0  0  0
  -10.3655   -0.6349   -1.5824 H   0  0  0  0  0  0  0  0  0  0  0  0
   -4.8201    0.8621    1.3503 H   0  0  0  0  0  0  0  0  0  0  0  0
   -3.1384   -2.4554    1.8345 H   0  0  0  0  0  0  0  0  0  0  0  0
   -1.0459   -2.6621    3.0659 H   0  0  0  0  0  0  0  0  0  0  0  0
    0.3618    0.0034    5.1517 H   0  0  0  0  0  0  0  0  0  0  0  0
    0.4131   -1.6861    4.7614 H   0  0  0  0  0  0  0  0  0  0  0  0
    1.6016    1.6879    3.5815 H   0  0  0  0  0  0  0  0  0  0  0  0
    3.7755    2.0235    2.5124 H   0  0  0  0  0  0  0  0  0  0  0  0
    5.7626    1.1579    1.7055 H   0  0  0  0  0  0  0  0  0  0  0  0
    7.4747    0.6874    0.4714 H   0  0  0  0  0  0  0  0  0  0  0  0
    9.7222   -0.0120    1.0441 H   0  0  0  0  0  0  0  0  0  0  0  0
    9.0390   -1.5094    1.6951 H   0  0  0  0  0  0  0  0  0  0  0  0
    9.8270   -2.0484   -0.5001 H   0  0  0  0  0  0  0  0  0  0  0  0
    8.0746   -1.9984   -0.6362 H   0  0  0  0  0  0  0  0  0  0  0  0
   10.0548    0.1981   -1.3892 H   0  0  0  0  0  0  0  0  0  0  0  0
    9.2749   -0.8668   -2.5392 H   0  0  0  0  0  0  0  0  0  0  0  0
    9.3310    2.2411   -2.1243 H   0  0  0  0  0  0  0  0  0  0  0  0
    7.6228    2.5798   -2.3169 H   0  0  0  0  0  0  0  0  0  0  0  0
    9.2848    0.8340   -4.2351 H   0  0  0  0  0  0  0  0  0  0  0  0
    8.6700    2.4706   -4.5281 H   0  0  0  0  0  0  0  0  0  0  0  0
    7.5946   -0.9800   -4.0539 H   0  0  0  0  0  0  0  0  0  0  0  0
    5.8977   -0.5069   -4.1854 H   0  0  0  0  0  0  0  0  0  0  0  0
    5.9672    0.7386   -2.0874 H   0  0  0  0  0  0  0  0  0  0  0  0
    6.5067   -0.8935   -1.7750 H   0  0  0  0  0  0  0  0  0  0  0  0
    4.3321   -2.2549    2.3046 H   0  0  0  0  0  0  0  0  0  0  0  0
    2.1611   -2.5853    3.3684 H   0  0  0  0  0  0  0  0  0  0  0  0
   -0.9422    1.6059    3.6412 H   0  0  0  0  0  0  0  0  0  0  0  0
   -3.0239    1.8274    2.3783 H   0  0  0  0  0  0  0  0  0  0  0  0
  1  2  2  0
  2  3  1  0
  3  4  1  0
  4  5  1  0
  5  6  1  0
  6  7  1  0
  7  8  1  0
  8  9  1  0
  9 10  1  0
 10 11  1  0
 11 12  1  0
  2 13  1  0
 13 14  1  0
 14 15  2  0
 15 16  1  0
 16 17  2  0
 17 18  1  0
 18 19  1  0
 19 20  2  0
 20 21  1  0
 21 22  2  0
 22 23  1  0
 23 24  1  0
 24 25  2  0
 24 26  1  0
 26 27  1  0
 27 28  1  0
 28 29  1  0
 29 30  1  0
 30 31  1  0
 31 32  1  0
 32 33  1  0
 33 34  1  0
 34 35  1  0
 22 36  1  0
 36 37  2  0
 17 38  1  0
 38 39  2  0
 12  7  1  0
 39 14  1  0
 37 19  1  0
 35 30  1  0
  3 40  1  0
  4 41  1  0
  4 42  1  0
  5 43  1  0
  5 44  1  0
  6 45  1  0
  6 46  1  0
  8 47  1  0
  8 48  1  0
  9 49  1  0
  9 50  1  0
 11 51  1  0
 11 52  1  0
 12 53  1  0
 12 54  1  0
 13 55  1  0
 15 56  1  0
 16 57  1  0
 18 58  1  0
 18 59  1  0
 20 60  1  0
 21 61  1  0
 23 62  1  0
 26 63  1  0
 27 64  1  0
 27 65  1  0
 28 66  1  0
 28 67  1  0
 29 68  1  0
 29 69  1  0
 31 70  1  0
 31 71  1  0
 32 72  1  0
 32 73  1  0
 34 74  1  0
 34 75  1  0
 35 76  1  0
 35 77  1  0
 36 78  1  0
 37 79  1  0
 38 80  1  0
 39 81  1  0
M  END
$$$$
