
     RDKit          3D

 47 49  0  0  0  0  0  0  0  0999 V2000
    3.9876    1.8043    2.2942 C   0  0  0  0  0  0  0  0  0  0  0  0
    3.0980    1.4295    1.2504 O   0  0  0  0  0  0  0  0  0  0  0  0
    3.6429    0.7873    0.1720 C   0  0  0  0  0  0  0  0  0  0  0  0
    4.9822    0.4279    0.0253 C   0  0  0  0  0  0  0  0  0  0  0  0
    5.4080   -0.2130   -1.1391 C   0  0  0  0  0  0  0  0  0  0  0  0
    4.4949   -0.5068   -2.1523 C   0  0  0  0  0  0  0  0  0  0  0  0
    3.1444   -0.1766   -2.0060 C   0  0  0  0  0  0  0  0  0  0  0  0
    2.2836   -0.4896   -3.0812 N   0  0  0  0  0  0  0  0  0  0  0  0
    0.9256   -0.3543   -3.1830 C   0  0  0  0  0  0  0  0  0  0  0  0
    0.3387    0.0630   -4.7028 S   0  0  0  0  0  0  0  0  0  0  0  0
    0.1421   -0.6312   -2.0694 N   0  0  0  0  0  0  0  0  0  0  0  0
    0.4037   -1.8579   -1.3044 C   0  0  0  0  0  0  0  0  0  0  0  0
    0.0513   -1.6957    0.1728 C   0  0  0  0  0  0  0  0  0  0  0  0
   -1.3065   -1.0733    0.3682 C   0  0  0  0  0  0  0  0  0  0  0  0
   -1.9529   -1.1851    1.6041 C   0  0  0  0  0  0  0  0  0  0  0  0
   -3.1927   -0.5760    1.8066 C   0  0  0  0  0  0  0  0  0  0  0  0
   -3.7870   -0.7632    3.0310 O   0  0  0  0  0  0  0  0  0  0  0  0
   -3.6403    0.4059    3.8351 C   0  0  0  0  0  0  0  0  0  0  0  0
   -3.8297    0.1279    0.7758 C   0  0  0  0  0  0  0  0  0  0  0  0
   -5.0666    0.6432    1.0611 O   0  0  0  0  0  0  0  0  0  0  0  0
   -5.7477    1.3282    0.0200 C   0  0  0  0  0  0  0  0  0  0  0  0
   -3.1742    0.2490   -0.4534 C   0  0  0  0  0  0  0  0  0  0  0  0
   -1.9089   -0.3350   -0.6640 C   0  0  0  0  0  0  0  0  0  0  0  0
   -1.2603   -0.2014   -2.0249 C   0  0  0  0  0  0  0  0  0  0  0  0
    2.7330    0.4888   -0.8496 C   0  0  0  0  0  0  0  0  0  0  0  0
    4.7536    2.4980    1.9307 H   0  0  0  0  0  0  0  0  0  0  0  0
    3.4052    2.3246    3.0616 H   0  0  0  0  0  0  0  0  0  0  0  0
    4.4410    0.9232    2.7608 H   0  0  0  0  0  0  0  0  0  0  0  0
    5.7198    0.6383    0.7921 H   0  0  0  0  0  0  0  0  0  0  0  0
    6.4540   -0.4846   -1.2571 H   0  0  0  0  0  0  0  0  0  0  0  0
    4.8486   -1.0099   -3.0491 H   0  0  0  0  0  0  0  0  0  0  0  0
    2.7432   -0.5618   -3.9832 H   0  0  0  0  0  0  0  0  0  0  0  0
   -0.2135   -2.6467   -1.7565 H   0  0  0  0  0  0  0  0  0  0  0  0
    1.4386   -2.1946   -1.4086 H   0  0  0  0  0  0  0  0  0  0  0  0
    0.0878   -2.6797    0.6555 H   0  0  0  0  0  0  0  0  0  0  0  0
    0.7894   -1.0551    0.6678 H   0  0  0  0  0  0  0  0  0  0  0  0
   -1.4966   -1.7449    2.4169 H   0  0  0  0  0  0  0  0  0  0  0  0
   -4.1534    1.2705    3.4009 H   0  0  0  0  0  0  0  0  0  0  0  0
   -2.5824    0.6398    3.9997 H   0  0  0  0  0  0  0  0  0  0  0  0
   -4.0964    0.2008    4.8085 H   0  0  0  0  0  0  0  0  0  0  0  0
   -5.1897    2.2135   -0.3030 H   0  0  0  0  0  0  0  0  0  0  0  0
   -5.9543    0.6604   -0.8230 H   0  0  0  0  0  0  0  0  0  0  0  0
   -6.7077    1.6699    0.4174 H   0  0  0  0  0  0  0  0  0  0  0  0
   -3.6278    0.7925   -1.2765 H   0  0  0  0  0  0  0  0  0  0  0  0
   -1.3068    0.8470   -2.3431 H   0  0  0  0  0  0  0  0  0  0  0  0
   -1.8271   -0.8136   -2.7371 H   0  0  0  0  0  0  0  0  0  0  0  0
    1.7050    0.8167   -0.7285 H   0  0  0  0  0  0  0  0  0  0  0  0
  1  2  1  0
  2  3  1  0
  3  4  2  0
  4  5  1  0
  5  6  2  0
  6  7  1  0
  7  8  1  0
  8  9  1  0
  9 10  2  0
  9 11  1  0
 11 12  1  0
 12 13  1  0
 13 14  1  0
 14 15  2  0
 15 16  1  0
 16 17  1  0
 17 18  1  0
 16 19  2  0
 19 20  1  0
 20 21  1  0
 19 22  1  0
 22 23  2  0
 23 24  1  0
  7 25  2  0
 25  3  1  0
 24 11  1  0
 23 14  1  0
  1 26  1  0
  1 27  1  0
  1 28  1  0
  4 29  1  0
  5 30  1  0
  6 31  1  0
  8 32  1  0
 12 33  1  0
 12 34  1  0
 13 35  1  0
 13 36  1  0
 15 37  1  0
 18 38  1  0
 18 39  1  0
 18 40  1  0
 21 41  1  0
 21 42  1  0
 21 43  1  0
 22 44  1  0
 24 45  1  0
 24 46  1  0
 25 47  1  0
M  END
$$$$
