
     RDKit          3D

 53 54  0  0  0  0  0  0  0  0999 V2000
    0.3135    2.9850   -2.6132 C   0  0  0  0  0  0  0  0  0  0  0  0
   -0.7454    2.2539   -1.7623 C   0  0  0  0  0  0  0  0  0  0  0  0
   -2.1174    2.8907   -2.0642 C   0  0  0  0  0  0  0  0  0  0  0  0
   -0.4417    2.4509   -0.2564 C   0  0  0  0  0  0  0  0  0  0  0  0
    0.7409    1.7509    0.1986 N   0  0  0  0  0  0  0  0  0  0  0  0
    1.9581    2.3562    0.3616 C   0  0  0  0  0  0  0  0  0  0  0  0
    2.1739    3.5447    0.1645 O   0  0  0  0  0  0  0  0  0  0  0  0
    3.0127    1.4070    0.7990 C   0  0  0  0  0  0  0  0  0  0  0  0
    4.2597    1.8517    1.0179 C   0  0  0  0  0  0  0  0  0  0  0  0
    5.3801    0.9981    1.4351 C   0  0  0  0  0  0  0  0  0  0  0  0
    6.6701    1.3112    0.9800 C   0  0  0  0  0  0  0  0  0  0  0  0
    7.7684    0.5417    1.3716 C   0  0  0  0  0  0  0  0  0  0  0  0
    7.5792   -0.5348    2.2282 C   0  0  0  0  0  0  0  0  0  0  0  0
    8.6318   -1.2722    2.6053 F   0  0  0  0  0  0  0  0  0  0  0  0
    6.3139   -0.8536    2.7045 C   0  0  0  0  0  0  0  0  0  0  0  0
    5.2149   -0.0845    2.3127 C   0  0  0  0  0  0  0  0  0  0  0  0
   -0.7517    0.7627   -2.1857 C   0  0  0  0  0  0  0  0  0  0  0  0
   -1.7213   -0.0622   -1.4858 N   0  0  0  0  0  0  0  0  0  0  0  0
   -1.3946   -0.8177   -0.3899 C   0  0  0  0  0  0  0  0  0  0  0  0
   -0.2903   -0.8229    0.1446 O   0  0  0  0  0  0  0  0  0  0  0  0
   -2.5063   -1.6004    0.2002 C   0  0  0  0  0  0  0  0  0  0  0  0
   -3.4738   -2.1826   -0.5255 C   0  0  0  0  0  0  0  0  0  0  0  0
   -4.5566   -2.9850    0.0609 C   0  0  0  0  0  0  0  0  0  0  0  0
   -4.3401   -3.8652    1.1324 C   0  0  0  0  0  0  0  0  0  0  0  0
   -5.3910   -4.6315    1.6432 C   0  0  0  0  0  0  0  0  0  0  0  0
   -6.6549   -4.5267    1.0770 C   0  0  0  0  0  0  0  0  0  0  0  0
   -7.6612   -5.2625    1.5661 F   0  0  0  0  0  0  0  0  0  0  0  0
   -6.8878   -3.6741    0.0056 C   0  0  0  0  0  0  0  0  0  0  0  0
   -5.8378   -2.9077   -0.5064 C   0  0  0  0  0  0  0  0  0  0  0  0
    0.0656    2.9339   -3.6798 H   0  0  0  0  0  0  0  0  0  0  0  0
    0.3804    4.0441   -2.3399 H   0  0  0  0  0  0  0  0  0  0  0  0
    1.3072    2.5420   -2.4886 H   0  0  0  0  0  0  0  0  0  0  0  0
   -2.9135    2.4353   -1.4651 H   0  0  0  0  0  0  0  0  0  0  0  0
   -2.3855    2.7732   -3.1202 H   0  0  0  0  0  0  0  0  0  0  0  0
   -2.1112    3.9637   -1.8406 H   0  0  0  0  0  0  0  0  0  0  0  0
   -0.3403    3.5182   -0.0255 H   0  0  0  0  0  0  0  0  0  0  0  0
   -1.2714    2.0734    0.3526 H   0  0  0  0  0  0  0  0  0  0  0  0
    0.6430    0.7464    0.3526 H   0  0  0  0  0  0  0  0  0  0  0  0
    2.7394    0.3657    0.9129 H   0  0  0  0  0  0  0  0  0  0  0  0
    4.4945    2.9041    0.8639 H   0  0  0  0  0  0  0  0  0  0  0  0
    6.8286    2.1536    0.3097 H   0  0  0  0  0  0  0  0  0  0  0  0
    8.7658    0.7777    1.0154 H   0  0  0  0  0  0  0  0  0  0  0  0
    6.1899   -1.6927    3.3814 H   0  0  0  0  0  0  0  0  0  0  0  0
    4.2346   -0.3345    2.7110 H   0  0  0  0  0  0  0  0  0  0  0  0
    0.2438    0.3205   -2.0600 H   0  0  0  0  0  0  0  0  0  0  0  0
   -1.0000    0.6792   -3.2508 H   0  0  0  0  0  0  0  0  0  0  0  0
   -2.6838   -0.0218   -1.7921 H   0  0  0  0  0  0  0  0  0  0  0  0
   -2.4387   -1.7153    1.2769 H   0  0  0  0  0  0  0  0  0  0  0  0
   -3.4974   -2.0904   -1.6081 H   0  0  0  0  0  0  0  0  0  0  0  0
   -3.3522   -3.9757    1.5738 H   0  0  0  0  0  0  0  0  0  0  0  0
   -5.2287   -5.3122    2.4730 H   0  0  0  0  0  0  0  0  0  0  0  0
   -7.8821   -3.6124   -0.4251 H   0  0  0  0  0  0  0  0  0  0  0  0
   -6.0334   -2.2452   -1.3466 H   0  0  0  0  0  0  0  0  0  0  0  0
  1  2  1  0
  2  3  1  0
  2  4  1  0
  4  5  1  0
  5  6  1  0
  6  7  2  0
  6  8  1  0
  8  9  2  3
  9 10  1  0
 10 11  2  0
 11 12  1  0
 12 13  2  0
 13 14  1  0
 13 15  1  0
 15 16  2  0
  2 17  1  0
 17 18  1  0
 18 19  1  0
 19 20  2  0
 19 21  1  0
 21 22  2  3
 22 23  1  0
 23 24  2  0
 24 25  1  0
 25 26  2  0
 26 27  1  0
 26 28  1  0
 28 29  2  0
 16 10  1  0
 29 23  1  0
  1 30  1  0
  1 31  1  0
  1 32  1  0
  3 33  1  0
  3 34  1  0
  3 35  1  0
  4 36  1  0
  4 37  1  0
  5 38  1  0
  8 39  1  0
  9 40  1  0
 11 41  1  0
 12 42  1  0
 15 43  1  0
 16 44  1  0
 17 45  1  0
 17 46  1  0
 18 47  1  0
 21 48  1  0
 22 49  1  0
 24 50  1  0
 25 51  1  0
 28 52  1  0
 29 53  1  0
M  END
$$$$
