
     RDKit          3D

 46 48  0  0  0  0  0  0  0  0999 V2000
    6.4411    0.2787   -2.3591 C   0  0  0  0  0  0  0  0  0  0  0  0
    6.1535    0.8239   -0.9941 C   0  0  0  0  0  0  0  0  0  0  0  0
    6.8965    0.7091   -0.0312 O   0  0  0  0  0  0  0  0  0  0  0  0
    4.9447    1.4522   -0.9898 O   0  0  0  0  0  0  0  0  0  0  0  0
    4.5537    2.0407    0.2610 C   0  0  0  0  0  0  0  0  0  0  0  0
    3.8327    1.0266    1.1432 C   0  0  0  0  0  0  0  0  0  0  0  0
    2.5798    0.4746    0.4613 C   0  0  0  0  0  0  0  0  0  0  0  0
    1.8670   -0.4070    1.3874 N   0  0  0  0  0  0  0  0  0  0  0  0
    0.7254   -1.1219    0.9742 C   0  0  0  0  0  0  0  0  0  0  0  0
   -0.0140   -0.7256   -0.1804 C   0  0  0  0  0  0  0  0  0  0  0  0
   -1.2074   -1.3460   -0.6285 C   0  0  0  0  0  0  0  0  0  0  0  0
   -2.0664   -0.8237   -2.0792 S   0  0  0  0  0  0  0  0  0  0  0  0
   -3.4284    0.0578   -1.3388 C   0  0  0  0  0  0  0  0  0  0  0  0
   -4.6887   -0.5400   -1.2626 C   0  0  0  0  0  0  0  0  0  0  0  0
   -5.7577    0.1406   -0.6744 C   0  0  0  0  0  0  0  0  0  0  0  0
   -5.5829    1.4339   -0.1683 C   0  0  0  0  0  0  0  0  0  0  0  0
   -6.7227    2.1481    0.4965 C   0  0  0  0  0  0  0  0  0  0  0  0
   -4.3176    2.0280   -0.2420 C   0  0  0  0  0  0  0  0  0  0  0  0
   -3.2486    1.3474   -0.8308 C   0  0  0  0  0  0  0  0  0  0  0  0
   -1.6680   -2.4275    0.1564 C   0  0  0  0  0  0  0  0  0  0  0  0
   -2.7252   -3.2360   -0.0034 N   0  0  0  0  0  0  0  0  0  0  0  0
   -2.7021   -4.1166    1.0586 O   0  0  0  0  0  0  0  0  0  0  0  0
   -1.6252   -3.8831    1.8900 N   0  0  0  0  0  0  0  0  0  0  0  0
   -0.9676   -2.8386    1.3672 C   0  0  0  0  0  0  0  0  0  0  0  0
    0.1988   -2.1668    1.7780 C   0  0  0  0  0  0  0  0  0  0  0  0
    0.8270   -2.6000    2.9934 N   0  0  0  0  0  4  0  0  0  0  0  0
    0.1403   -2.6227    4.0223 O   0  0  0  0  0  0  0  0  0  0  0  0
    2.0325   -2.8862    2.9268 O   0  0  0  0  0  1  0  0  0  0  0  0
    6.4614    1.0932   -3.0873 H   0  0  0  0  0  0  0  0  0  0  0  0
    5.6837   -0.4611   -2.6297 H   0  0  0  0  0  0  0  0  0  0  0  0
    7.4202   -0.2087   -2.3550 H   0  0  0  0  0  0  0  0  0  0  0  0
    5.4186    2.4693    0.7818 H   0  0  0  0  0  0  0  0  0  0  0  0
    3.8850    2.8755    0.0255 H   0  0  0  0  0  0  0  0  0  0  0  0
    3.5629    1.5031    2.0933 H   0  0  0  0  0  0  0  0  0  0  0  0
    4.5052    0.1932    1.3804 H   0  0  0  0  0  0  0  0  0  0  0  0
    2.8592   -0.0806   -0.4423 H   0  0  0  0  0  0  0  0  0  0  0  0
    1.9362    1.3145    0.1761 H   0  0  0  0  0  0  0  0  0  0  0  0
    2.5134   -0.9958    1.9270 H   0  0  0  0  0  0  0  0  0  0  0  0
    0.3433    0.1120   -0.7786 H   0  0  0  0  0  0  0  0  0  0  0  0
   -4.8478   -1.5443   -1.6490 H   0  0  0  0  0  0  0  0  0  0  0  0
   -6.7279   -0.3480   -0.6131 H   0  0  0  0  0  0  0  0  0  0  0  0
   -6.7691    1.8735    1.5547 H   0  0  0  0  0  0  0  0  0  0  0  0
   -7.6741    1.8890    0.0199 H   0  0  0  0  0  0  0  0  0  0  0  0
   -6.6058    3.2342    0.4178 H   0  0  0  0  0  0  0  0  0  0  0  0
   -4.1562    3.0271    0.1573 H   0  0  0  0  0  0  0  0  0  0  0  0
   -2.2788    1.8343   -0.8860 H   0  0  0  0  0  0  0  0  0  0  0  0
  1  2  1  0
  2  3  2  0
  2  4  1  0
  4  5  1  0
  5  6  1  0
  6  7  1  0
  7  8  1  0
  8  9  1  0
  9 10  1  0
 10 11  2  0
 11 12  1  0
 12 13  1  0
 13 14  2  0
 14 15  1  0
 15 16  2  0
 16 17  1  0
 16 18  1  0
 18 19  2  0
 11 20  1  0
 20 21  2  0
 21 22  1  0
 22 23  1  0
 23 24  2  0
 24 25  1  0
 25 26  1  0
 26 27  2  0
 26 28  1  0
 25  9  2  0
 19 13  1  0
 24 20  1  0
  1 29  1  0
  1 30  1  0
  1 31  1  0
  5 32  1  0
  5 33  1  0
  6 34  1  0
  6 35  1  0
  7 36  1  0
  7 37  1  0
  8 38  1  0
 10 39  1  0
 14 40  1  0
 15 41  1  0
 17 42  1  0
 17 43  1  0
 17 44  1  0
 18 45  1  0
 19 46  1  0
M  CHG  2  26   1  28  -1
M  END
$$$$
