
     RDKit          3D

 53 55  0  0  0  0  0  0  0  0999 V2000
   -1.8266   -0.2008   -1.2111 O   0  0  0  0  0  0  0  0  0  0  0  0
   -1.3779    0.5452   -0.3488 C   0  0  0  0  0  0  0  0  0  0  0  0
   -2.1407    1.0633    0.6718 N   0  0  0  0  0  0  0  0  0  0  0  0
   -3.5954    0.8497    0.7239 C   0  0  0  0  0  0  0  0  0  0  0  0
   -3.9350   -0.5656    1.2168 C   0  0  0  0  0  0  0  0  0  0  0  0
   -5.2053   -1.1067    0.6025 C   0  0  0  0  0  0  0  0  0  0  0  0
   -5.1790   -1.6588   -0.6863 C   0  0  0  0  0  0  0  0  0  0  0  0
   -6.3473   -2.1506   -1.2694 C   0  0  0  0  0  0  0  0  0  0  0  0
   -7.5523   -2.0925   -0.5724 C   0  0  0  0  0  0  0  0  0  0  0  0
   -7.5900   -1.5408    0.7070 C   0  0  0  0  0  0  0  0  0  0  0  0
   -6.4223   -1.0489    1.2927 C   0  0  0  0  0  0  0  0  0  0  0  0
   -4.2195    1.8962    1.6570 C   0  0  0  0  0  0  0  0  0  0  0  0
   -5.3909    1.9966    1.9824 O   0  0  0  0  0  0  0  0  0  0  0  0
   -3.3197    2.7924    2.1382 O   0  0  0  0  0  0  0  0  0  0  0  0
    0.0511    0.9604   -0.3861 C   0  0  0  0  0  0  0  0  0  0  0  0
    0.7079    0.9685   -1.6249 C   0  0  0  0  0  0  0  0  0  0  0  0
    2.0498    1.3459   -1.7091 C   0  0  0  0  0  0  0  0  0  0  0  0
    2.7437    1.6876   -0.5447 C   0  0  0  0  0  0  0  0  0  0  0  0
    4.4509    2.1965   -0.6519 S   0  0  0  0  0  6  0  0  0  0  0  0
    4.6606    2.7110   -1.9886 O   0  0  0  0  0  0  0  0  0  0  0  0
    4.7304    3.0068    0.5151 O   0  0  0  0  0  0  0  0  0  0  0  0
    5.2964    0.7345   -0.5009 N   0  0  0  0  0  0  0  0  0  0  0  0
    5.3144   -0.1675   -1.6752 C   0  0  0  0  0  0  0  0  0  0  0  0
    6.1631   -1.3979   -1.3772 C   0  0  0  0  0  0  0  0  0  0  0  0
    5.5939   -2.2039   -0.2106 C   0  0  0  0  0  0  0  0  0  0  0  0
    4.8030   -1.3379    0.7686 C   0  0  0  0  0  0  0  0  0  0  0  0
    5.3437    0.0847    0.8301 C   0  0  0  0  0  0  0  0  0  0  0  0
    2.0947    1.6937    0.6948 C   0  0  0  0  0  0  0  0  0  0  0  0
    0.7503    1.3195    0.7751 C   0  0  0  0  0  0  0  0  0  0  0  0
   -1.8027    1.8654    1.1949 H   0  0  0  0  0  0  0  0  0  0  0  0
   -3.9782    1.0440   -0.2853 H   0  0  0  0  0  0  0  0  0  0  0  0
   -3.1275   -1.2705    0.9781 H   0  0  0  0  0  0  0  0  0  0  0  0
   -4.0160   -0.5879    2.3117 H   0  0  0  0  0  0  0  0  0  0  0  0
   -4.2442   -1.7051   -1.2440 H   0  0  0  0  0  0  0  0  0  0  0  0
   -6.3156   -2.5767   -2.2687 H   0  0  0  0  0  0  0  0  0  0  0  0
   -8.4625   -2.4735   -1.0274 H   0  0  0  0  0  0  0  0  0  0  0  0
   -8.5307   -1.4888    1.2487 H   0  0  0  0  0  0  0  0  0  0  0  0
   -6.4735   -0.6120    2.2878 H   0  0  0  0  0  0  0  0  0  0  0  0
   -3.8744    3.3935    2.6824 H   0  0  0  0  0  0  0  0  0  0  0  0
    0.1692    0.6900   -2.5296 H   0  0  0  0  0  0  0  0  0  0  0  0
    2.5417    1.3714   -2.6794 H   0  0  0  0  0  0  0  0  0  0  0  0
    5.7510    0.3599   -2.5299 H   0  0  0  0  0  0  0  0  0  0  0  0
    4.2981   -0.4754   -1.9401 H   0  0  0  0  0  0  0  0  0  0  0  0
    7.1849   -1.0816   -1.1302 H   0  0  0  0  0  0  0  0  0  0  0  0
    6.2377   -2.0352   -2.2654 H   0  0  0  0  0  0  0  0  0  0  0  0
    4.9403   -2.9996   -0.5876 H   0  0  0  0  0  0  0  0  0  0  0  0
    6.4184   -2.7042    0.3113 H   0  0  0  0  0  0  0  0  0  0  0  0
    3.7511   -1.3125    0.4563 H   0  0  0  0  0  0  0  0  0  0  0  0
    4.8223   -1.7960    1.7638 H   0  0  0  0  0  0  0  0  0  0  0  0
    6.3862    0.0817    1.1699 H   0  0  0  0  0  0  0  0  0  0  0  0
    4.7753    0.6501    1.5741 H   0  0  0  0  0  0  0  0  0  0  0  0
    2.6266    1.9863    1.5980 H   0  0  0  0  0  0  0  0  0  0  0  0
    0.2705    1.2959    1.7499 H   0  0  0  0  0  0  0  0  0  0  0  0
  1  2  2  0
  2  3  1  0
  3  4  1  0
  4  5  1  0
  5  6  1  0
  6  7  2  0
  7  8  1  0
  8  9  2  0
  9 10  1  0
 10 11  2  0
  4 12  1  0
 12 13  2  0
 12 14  1  0
  2 15  1  0
 15 16  2  0
 16 17  1  0
 17 18  2  0
 18 19  1  0
 19 20  2  0
 19 21  2  0
 19 22  1  0
 22 23  1  0
 23 24  1  0
 24 25  1  0
 25 26  1  0
 26 27  1  0
 18 28  1  0
 28 29  2  0
 11  6  1  0
 29 15  1  0
 27 22  1  0
  3 30  1  0
  4 31  1  0
  5 32  1  0
  5 33  1  0
  7 34  1  0
  8 35  1  0
  9 36  1  0
 10 37  1  0
 11 38  1  0
 14 39  1  0
 16 40  1  0
 17 41  1  0
 23 42  1  0
 23 43  1  0
 24 44  1  0
 24 45  1  0
 25 46  1  0
 25 47  1  0
 26 48  1  0
 26 49  1  0
 27 50  1  0
 27 51  1  0
 28 52  1  0
 29 53  1  0
M  END
$$$$
