
     RDKit          3D

 35 37  0  0  0  0  0  0  0  0999 V2000
   -5.6868    0.5523    0.0187 C   0  0  0  0  0  0  0  0  0  0  0  0
   -4.2581    0.0889    0.0853 C   0  0  0  0  0  0  0  0  0  0  0  0
   -3.2262    1.0262   -0.0915 C   0  0  0  0  0  0  0  0  0  0  0  0
   -1.8876    0.6579   -0.0794 C   0  0  0  0  0  0  0  0  0  0  0  0
   -0.9368    1.5936   -0.2529 N   0  0  0  0  0  0  0  0  0  0  0  0
    0.3441    1.1805   -0.2505 C   0  0  0  0  0  0  0  0  0  0  0  0
    1.3629    2.0979   -0.4302 C   0  0  0  0  0  0  0  0  0  0  0  0
    2.7067    1.7027   -0.4321 C   0  0  0  0  0  0  0  0  0  0  0  0
    3.0845    0.3667   -0.2436 C   0  0  0  0  0  0  0  0  0  0  0  0
    4.4240   -0.0357   -0.2625 N   0  0  0  0  0  0  0  0  0  0  0  0
    4.7693   -1.3923    0.1617 C   0  0  0  0  0  0  0  0  0  0  0  0
    5.4704    0.9693   -0.0767 C   0  0  0  0  0  0  0  0  0  0  0  0
    2.0260   -0.5453   -0.0794 C   0  0  0  0  0  0  0  0  0  0  0  0
    0.6815   -0.1726   -0.0730 C   0  0  0  0  0  0  0  0  0  0  0  0
   -0.2727   -1.1074    0.1032 N   0  0  0  0  0  0  0  0  0  0  0  0
   -1.5557   -0.6977    0.1020 C   0  0  0  0  0  0  0  0  0  0  0  0
   -2.5767   -1.6236    0.2804 C   0  0  0  0  0  0  0  0  0  0  0  0
   -3.9256   -1.2497    0.3290 C   0  0  0  0  0  0  0  0  0  0  0  0
   -4.9062   -2.2488    0.4012 N   0  0  0  0  0  0  0  0  0  0  0  0
   -5.7545    1.6166   -0.2306 H   0  0  0  0  0  0  0  0  0  0  0  0
   -6.2313    0.0004   -0.7543 H   0  0  0  0  0  0  0  0  0  0  0  0
   -6.1772    0.4061    0.9864 H   0  0  0  0  0  0  0  0  0  0  0  0
   -3.4649    2.0747   -0.2576 H   0  0  0  0  0  0  0  0  0  0  0  0
    1.1117    3.1451   -0.5777 H   0  0  0  0  0  0  0  0  0  0  0  0
    3.4466    2.4806   -0.5944 H   0  0  0  0  0  0  0  0  0  0  0  0
    5.8464   -1.5740    0.0727 H   0  0  0  0  0  0  0  0  0  0  0  0
    4.2860   -2.1418   -0.4743 H   0  0  0  0  0  0  0  0  0  0  0  0
    4.4903   -1.5601    1.2077 H   0  0  0  0  0  0  0  0  0  0  0  0
    5.3511    1.4889    0.8805 H   0  0  0  0  0  0  0  0  0  0  0  0
    5.4692    1.6980   -0.8942 H   0  0  0  0  0  0  0  0  0  0  0  0
    6.4669    0.5134   -0.0823 H   0  0  0  0  0  0  0  0  0  0  0  0
    2.2227   -1.6050    0.0532 H   0  0  0  0  0  0  0  0  0  0  0  0
   -2.3008   -2.6695    0.3900 H   0  0  0  0  0  0  0  0  0  0  0  0
   -4.5962   -3.1024    0.8564 H   0  0  0  0  0  0  0  0  0  0  0  0
   -5.8031   -1.9339    0.7559 H   0  0  0  0  0  0  0  0  0  0  0  0
  1  2  1  0
  2  3  2  0
  3  4  1  0
  4  5  2  0
  5  6  1  0
  6  7  2  0
  7  8  1  0
  8  9  2  0
  9 10  1  0
 10 11  1  0
 10 12  1  0
  9 13  1  0
 13 14  2  0
 14 15  1  0
 15 16  2  0
 16 17  1  0
 17 18  2  0
 18 19  1  0
 18  2  1  0
 16  4  1  0
 14  6  1  0
  1 20  1  0
  1 21  1  0
  1 22  1  0
  3 23  1  0
  7 24  1  0
  8 25  1  0
 11 26  1  0
 11 27  1  0
 11 28  1  0
 12 29  1  0
 12 30  1  0
 12 31  1  0
 13 32  1  0
 17 33  1  0
 19 34  1  0
 19 35  1  0
M  END
$$$$
