
     RDKit          3D

 48 49  0  0  0  0  0  0  0  0999 V2000
   -4.6357   -4.0409   -0.3355 C   0  0  0  0  0  0  0  0  0  0  0  0
   -3.9804   -2.7042   -0.1480 C   0  0  0  0  0  0  0  0  0  0  0  0
   -3.6266   -1.9338   -1.2616 C   0  0  0  0  0  0  0  0  0  0  0  0
   -2.9978   -0.6971   -1.0982 C   0  0  0  0  0  0  0  0  0  0  0  0
   -2.7023   -0.2144    0.1835 C   0  0  0  0  0  0  0  0  0  0  0  0
   -1.9997    1.1136    0.3630 C   0  0  0  0  0  0  0  0  0  0  0  0
   -0.5959    0.9835    0.9828 C   0  0  0  0  0  0  0  0  0  0  0  0
    0.2912    0.1534    0.1431 N   0  0  0  0  0  0  0  0  0  0  0  0
    1.4742   -0.3335    0.6723 C   0  0  0  0  0  0  0  0  0  0  0  0
    1.9351    0.0583    1.7387 O   0  0  0  0  0  0  0  0  0  0  0  0
    2.1833   -1.3773   -0.1230 C   0  0  0  0  0  0  0  0  0  0  0  0
    3.1104   -2.1969    0.5332 C   0  0  0  0  0  0  0  0  0  0  0  0
    3.8034   -3.1824   -0.1731 C   0  0  0  0  0  0  0  0  0  0  0  0
    3.5770   -3.3507   -1.5384 C   0  0  0  0  0  0  0  0  0  0  0  0
    2.6653   -2.5291   -2.2027 C   0  0  0  0  0  0  0  0  0  0  0  0
    1.9729   -1.5391   -1.5001 C   0  0  0  0  0  0  0  0  0  0  0  0
   -0.0554    2.4168    1.1904 C   0  0  0  0  0  0  0  0  0  0  0  0
   -0.5372    3.1833    2.0206 O   0  0  0  0  0  0  0  0  0  0  0  0
    0.9151    2.8080    0.2966 N   0  0  0  0  0  0  0  0  0  0  0  0
    1.6924    4.0274    0.5005 C   0  0  0  0  0  0  0  0  0  0  0  0
    1.0576    5.1957   -0.2332 C   0  0  0  0  0  0  0  0  0  0  0  0
    3.1276    3.8288    0.0069 C   0  0  0  0  0  0  0  0  0  0  0  0
    4.0369    4.6440    0.0665 O   0  0  0  0  0  0  0  0  0  0  0  0
    3.3437    2.6188   -0.5646 O   0  0  0  0  0  0  0  0  0  0  0  0
   -3.0591   -0.9856    1.2962 C   0  0  0  0  0  0  0  0  0  0  0  0
   -3.6866   -2.2224    1.1317 C   0  0  0  0  0  0  0  0  0  0  0  0
   -3.9068   -4.7658   -0.7122 H   0  0  0  0  0  0  0  0  0  0  0  0
   -5.0434   -4.4234    0.6067 H   0  0  0  0  0  0  0  0  0  0  0  0
   -5.4642   -3.9623   -1.0454 H   0  0  0  0  0  0  0  0  0  0  0  0
   -3.8457   -2.2928   -2.2655 H   0  0  0  0  0  0  0  0  0  0  0  0
   -2.7445   -0.1152   -1.9818 H   0  0  0  0  0  0  0  0  0  0  0  0
   -2.6345    1.7527    0.9896 H   0  0  0  0  0  0  0  0  0  0  0  0
   -1.9279    1.6262   -0.6054 H   0  0  0  0  0  0  0  0  0  0  0  0
   -0.6435    0.5127    1.9723 H   0  0  0  0  0  0  0  0  0  0  0  0
   -0.1843   -0.4776   -0.4913 H   0  0  0  0  0  0  0  0  0  0  0  0
    3.2964   -2.0682    1.5993 H   0  0  0  0  0  0  0  0  0  0  0  0
    4.5215   -3.8152    0.3434 H   0  0  0  0  0  0  0  0  0  0  0  0
    4.1184   -4.1182   -2.0878 H   0  0  0  0  0  0  0  0  0  0  0  0
    2.5018   -2.6543   -3.2710 H   0  0  0  0  0  0  0  0  0  0  0  0
    1.2937   -0.8920   -2.0495 H   0  0  0  0  0  0  0  0  0  0  0  0
    1.4038    2.0525   -0.1751 H   0  0  0  0  0  0  0  0  0  0  0  0
    1.7487    4.2276    1.5778 H   0  0  0  0  0  0  0  0  0  0  0  0
    1.0703    5.0241   -1.3174 H   0  0  0  0  0  0  0  0  0  0  0  0
    0.0139    5.3453    0.0642 H   0  0  0  0  0  0  0  0  0  0  0  0
    1.6083    6.1209   -0.0327 H   0  0  0  0  0  0  0  0  0  0  0  0
    4.3080    2.6333   -0.7776 H   0  0  0  0  0  0  0  0  0  0  0  0
   -2.8523   -0.6303    2.3037 H   0  0  0  0  0  0  0  0  0  0  0  0
   -3.9472   -2.8045    2.0131 H   0  0  0  0  0  0  0  0  0  0  0  0
  1  2  1  0
  2  3  2  0
  3  4  1  0
  4  5  2  0
  5  6  1  0
  6  7  1  0
  7  8  1  0
  8  9  1  0
  9 10  2  0
  9 11  1  0
 11 12  2  0
 12 13  1  0
 13 14  2  0
 14 15  1  0
 15 16  2  0
  7 17  1  0
 17 18  2  0
 17 19  1  0
 19 20  1  0
 20 21  1  0
 20 22  1  0
 22 23  2  0
 22 24  1  0
  5 25  1  0
 25 26  2  0
 26  2  1  0
 16 11  1  0
  1 27  1  0
  1 28  1  0
  1 29  1  0
  3 30  1  0
  4 31  1  0
  6 32  1  0
  6 33  1  0
  7 34  1  0
  8 35  1  0
 12 36  1  0
 13 37  1  0
 14 38  1  0
 15 39  1  0
 16 40  1  0
 19 41  1  0
 20 42  1  0
 21 43  1  0
 21 44  1  0
 21 45  1  0
 24 46  1  0
 25 47  1  0
 26 48  1  0
M  END
$$$$
