
     RDKit          3D

 45 47  0  0  0  0  0  0  0  0999 V2000
    6.8542    0.5486   -0.5255 C   0  0  0  0  0  0  0  0  0  0  0  0
    5.4468    0.2447   -0.1597 C   0  0  0  0  0  0  0  0  0  0  0  0
    4.6762    1.1484    0.5308 N   0  0  0  0  0  0  0  0  0  0  0  0
    3.4166    0.6432    0.7498 C   0  0  0  0  0  0  0  0  0  0  0  0
    2.3193    1.2151    1.4055 C   0  0  0  0  0  0  0  0  0  0  0  0
    1.1451    0.4576    1.4840 C   0  0  0  0  0  0  0  0  0  0  0  0
    1.0793   -0.8252    0.9289 C   0  0  0  0  0  0  0  0  0  0  0  0
   -0.1584   -1.6437    1.0200 C   0  0  0  0  0  0  0  0  0  0  0  0
   -0.0928   -2.8651    1.0881 O   0  0  0  0  0  0  0  0  0  0  0  0
   -1.3456   -0.9478    0.9899 N   0  0  0  0  0  0  0  0  0  0  0  0
   -2.6129   -1.6438    0.8807 C   0  0  0  0  0  0  0  0  0  0  0  0
   -3.7991   -0.6701    0.9969 C   0  0  0  0  0  0  0  0  0  0  0  0
   -3.6472    0.5316    0.1487 N   0  0  0  0  0  0  0  0  0  0  0  0
   -3.7718    0.2479   -1.3002 C   0  0  0  0  0  0  0  0  0  0  0  0
   -5.1080    0.6983   -1.9124 C   0  0  0  0  0  0  0  0  0  0  0  0
   -5.3720    2.0964   -1.7351 O   0  0  0  0  0  0  0  0  0  0  0  0
   -4.7922    2.6340   -0.5387 C   0  0  0  0  0  0  0  0  0  0  0  0
   -4.6097    1.5776    0.5585 C   0  0  0  0  0  0  0  0  0  0  0  0
    2.1965   -1.3838    0.2894 C   0  0  0  0  0  0  0  0  0  0  0  0
    3.3848   -0.6310    0.1870 C   0  0  0  0  0  0  0  0  0  0  0  0
    4.6685   -0.8766   -0.3994 C   0  0  0  0  0  0  0  0  0  0  0  0
    5.0770   -2.1141   -1.1195 C   0  0  0  0  0  0  0  0  0  0  0  0
    7.2616    1.3598    0.0876 H   0  0  0  0  0  0  0  0  0  0  0  0
    6.9142    0.8485   -1.5764 H   0  0  0  0  0  0  0  0  0  0  0  0
    7.4910   -0.3308   -0.3794 H   0  0  0  0  0  0  0  0  0  0  0  0
    4.9873    2.0575    0.8427 H   0  0  0  0  0  0  0  0  0  0  0  0
    2.3747    2.2047    1.8465 H   0  0  0  0  0  0  0  0  0  0  0  0
    0.2919    0.8758    2.0117 H   0  0  0  0  0  0  0  0  0  0  0  0
   -1.3482    0.0078    0.6481 H   0  0  0  0  0  0  0  0  0  0  0  0
   -2.6647   -2.4021    1.6699 H   0  0  0  0  0  0  0  0  0  0  0  0
   -2.6212   -2.1716   -0.0783 H   0  0  0  0  0  0  0  0  0  0  0  0
   -3.8429   -0.3466    2.0455 H   0  0  0  0  0  0  0  0  0  0  0  0
   -4.7382   -1.1956    0.7821 H   0  0  0  0  0  0  0  0  0  0  0  0
   -3.6036   -0.8072   -1.5354 H   0  0  0  0  0  0  0  0  0  0  0  0
   -2.9670    0.8045   -1.7951 H   0  0  0  0  0  0  0  0  0  0  0  0
   -5.9438    0.1361   -1.4807 H   0  0  0  0  0  0  0  0  0  0  0  0
   -5.1092    0.5010   -2.9890 H   0  0  0  0  0  0  0  0  0  0  0  0
   -3.8325    3.0959   -0.8006 H   0  0  0  0  0  0  0  0  0  0  0  0
   -5.4521    3.4340   -0.1861 H   0  0  0  0  0  0  0  0  0  0  0  0
   -5.5891    1.1310    0.7752 H   0  0  0  0  0  0  0  0  0  0  0  0
   -4.2504    2.0560    1.4765 H   0  0  0  0  0  0  0  0  0  0  0  0
    2.1425   -2.3848   -0.1282 H   0  0  0  0  0  0  0  0  0  0  0  0
    5.9653   -1.9466   -1.7368 H   0  0  0  0  0  0  0  0  0  0  0  0
    5.3031   -2.9116   -0.4046 H   0  0  0  0  0  0  0  0  0  0  0  0
    4.2765   -2.4578   -1.7812 H   0  0  0  0  0  0  0  0  0  0  0  0
  1  2  1  0
  2  3  1  0
  3  4  1  0
  4  5  2  0
  5  6  1  0
  6  7  2  0
  7  8  1  0
  8  9  2  0
  8 10  1  0
 10 11  1  0
 11 12  1  0
 12 13  1  0
 13 14  1  0
 14 15  1  0
 15 16  1  0
 16 17  1  0
 17 18  1  0
  7 19  1  0
 19 20  2  0
 20 21  1  0
 21 22  1  0
 21  2  2  0
 20  4  1  0
 18 13  1  0
  1 23  1  0
  1 24  1  0
  1 25  1  0
  3 26  1  0
  5 27  1  0
  6 28  1  0
 10 29  1  0
 11 30  1  0
 11 31  1  0
 12 32  1  0
 12 33  1  0
 14 34  1  0
 14 35  1  0
 15 36  1  0
 15 37  1  0
 17 38  1  0
 17 39  1  0
 18 40  1  0
 18 41  1  0
 19 42  1  0
 22 43  1  0
 22 44  1  0
 22 45  1  0
M  END
$$$$
