
     RDKit          3D

 66 69  0  0  0  0  0  0  0  0999 V2000
    0.5523    5.7505   -4.3465 C   0  0  0  0  0  0  0  0  0  0  0  0
    0.3828    4.5607   -3.5746 O   0  0  0  0  0  0  0  0  0  0  0  0
    0.0249    4.7868   -2.2861 C   0  0  0  0  0  0  0  0  0  0  0  0
   -0.1516    5.8815   -1.7739 O   0  0  0  0  0  0  0  0  0  0  0  0
   -0.1502    3.5018   -1.5552 C   0  0  0  0  0  0  0  0  0  0  0  0
   -0.5860    3.5505   -0.2259 C   0  0  0  0  0  0  0  0  0  0  0  0
   -0.7787    2.3716    0.5003 C   0  0  0  0  0  0  0  0  0  0  0  0
   -0.5364    1.1198   -0.0865 C   0  0  0  0  0  0  0  0  0  0  0  0
   -0.8084   -0.1454    0.7196 C   0  0  0  0  0  0  0  0  0  0  0  0
   -2.0828   -0.8577    0.2005 C   0  0  0  0  0  0  0  0  0  0  0  0
   -2.9802   -1.3103    1.3301 C   0  0  0  0  0  0  0  0  0  0  0  0
   -2.5631   -1.3843    2.4863 O   0  0  0  0  0  0  0  0  0  0  0  0
   -4.4020   -1.6874    1.0494 C   0  0  0  0  0  0  0  0  0  0  0  0
   -4.9515   -1.6882   -0.2367 C   0  0  0  0  0  0  0  0  0  0  0  0
   -6.2865   -2.0531   -0.4264 C   0  0  0  0  0  0  0  0  0  0  0  0
   -7.0823   -2.4231    0.6601 C   0  0  0  0  0  0  0  0  0  0  0  0
   -6.5465   -2.4317    1.9465 C   0  0  0  0  0  0  0  0  0  0  0  0
   -7.2124   -2.7724    3.0910 O   0  0  0  0  0  0  0  0  0  0  0  0
   -8.5232   -3.3052    2.9392 C   0  0  0  0  0  0  0  0  0  0  0  0
   -5.2120   -2.0584    2.1345 C   0  0  0  0  0  0  0  0  0  0  0  0
   -1.4985   -2.0273   -0.5269 C   0  0  0  0  0  0  0  0  0  0  0  0
   -2.0782   -2.7373   -1.3279 O   0  0  0  0  0  0  0  0  0  0  0  0
   -0.0483   -2.2182   -0.1095 C   0  0  0  0  0  0  0  0  0  0  0  0
    0.6354   -3.1762   -0.3959 O   0  0  0  0  0  0  0  0  0  0  0  0
    0.2790   -1.1100    0.6305 N   0  0  0  0  0  0  0  0  0  0  0  0
    1.5569   -0.9423    1.3047 C   0  0  0  0  0  0  0  0  0  0  0  0
    2.6549   -0.4322    0.3724 C   0  0  0  0  0  0  0  0  0  0  0  0
    4.0176   -0.4643    1.0750 C   0  0  0  0  0  0  0  0  0  0  0  0
    5.0827    0.0920    0.2312 N   0  0  0  0  0  0  0  0  0  0  0  0
    5.4950   -0.8113   -0.8678 C   0  0  0  0  0  0  0  0  0  0  0  0
    6.8344   -1.5254   -0.6171 C   0  0  0  0  0  0  0  0  0  0  0  0
    7.9265   -0.6223   -0.3999 O   0  0  0  0  0  0  0  0  0  0  0  0
    7.5199    0.6160    0.1970 C   0  0  0  0  0  0  0  0  0  0  0  0
    6.2534    0.4744    1.0517 C   0  0  0  0  0  0  0  0  0  0  0  0
   -0.0964    1.0786   -1.4205 C   0  0  0  0  0  0  0  0  0  0  0  0
    0.0982    2.2581   -2.1472 C   0  0  0  0  0  0  0  0  0  0  0  0
   -0.3924    6.2992   -4.4123 H   0  0  0  0  0  0  0  0  0  0  0  0
    0.8521    5.4591   -5.3564 H   0  0  0  0  0  0  0  0  0  0  0  0
    1.3380    6.3807   -3.9174 H   0  0  0  0  0  0  0  0  0  0  0  0
   -0.7823    4.5097    0.2516 H   0  0  0  0  0  0  0  0  0  0  0  0
   -1.1245    2.4457    1.5307 H   0  0  0  0  0  0  0  0  0  0  0  0
   -0.8977    0.1342    1.7762 H   0  0  0  0  0  0  0  0  0  0  0  0
   -2.6365   -0.2056   -0.4811 H   0  0  0  0  0  0  0  0  0  0  0  0
   -4.3736   -1.4281   -1.1184 H   0  0  0  0  0  0  0  0  0  0  0  0
   -6.7086   -2.0577   -1.4290 H   0  0  0  0  0  0  0  0  0  0  0  0
   -8.1136   -2.6996    0.4652 H   0  0  0  0  0  0  0  0  0  0  0  0
   -8.5125   -4.2141    2.3286 H   0  0  0  0  0  0  0  0  0  0  0  0
   -9.2063   -2.5574    2.5237 H   0  0  0  0  0  0  0  0  0  0  0  0
   -8.8913   -3.5757    3.9330 H   0  0  0  0  0  0  0  0  0  0  0  0
   -4.8058   -2.0686    3.1454 H   0  0  0  0  0  0  0  0  0  0  0  0
    1.8462   -1.9250    1.6966 H   0  0  0  0  0  0  0  0  0  0  0  0
    1.4220   -0.2716    2.1604 H   0  0  0  0  0  0  0  0  0  0  0  0
    2.4278    0.5944    0.0620 H   0  0  0  0  0  0  0  0  0  0  0  0
    2.6713   -1.0408   -0.5384 H   0  0  0  0  0  0  0  0  0  0  0  0
    4.2656   -1.4852    1.3935 H   0  0  0  0  0  0  0  0  0  0  0  0
    3.9266    0.1414    1.9868 H   0  0  0  0  0  0  0  0  0  0  0  0
    4.7284   -1.5566   -1.1058 H   0  0  0  0  0  0  0  0  0  0  0  0
    5.6056   -0.1848   -1.7622 H   0  0  0  0  0  0  0  0  0  0  0  0
    6.7632   -2.1888    0.2523 H   0  0  0  0  0  0  0  0  0  0  0  0
    7.0942   -2.1481   -1.4792 H   0  0  0  0  0  0  0  0  0  0  0  0
    7.3713    1.3504   -0.6035 H   0  0  0  0  0  0  0  0  0  0  0  0
    8.3524    0.9712    0.8121 H   0  0  0  0  0  0  0  0  0  0  0  0
    6.0430    1.4250    1.5541 H   0  0  0  0  0  0  0  0  0  0  0  0
    6.4401   -0.2820    1.8260 H   0  0  0  0  0  0  0  0  0  0  0  0
    0.1126    0.1316   -1.9141 H   0  0  0  0  0  0  0  0  0  0  0  0
    0.4459    2.1886   -3.1756 H   0  0  0  0  0  0  0  0  0  0  0  0
  1  2  1  0
  2  3  1  0
  3  4  2  0
  3  5  1  0
  5  6  2  0
  6  7  1  0
  7  8  2  0
  8  9  1  0
  9 10  1  0
 10 11  1  0
 11 12  2  0
 11 13  1  0
 13 14  2  0
 14 15  1  0
 15 16  2  0
 16 17  1  0
 17 18  1  0
 18 19  1  0
 17 20  2  0
 10 21  1  0
 21 22  2  0
 21 23  1  0
 23 24  2  0
 23 25  1  0
 25 26  1  0
 26 27  1  0
 27 28  1  0
 28 29  1  0
 29 30  1  0
 30 31  1  0
 31 32  1  0
 32 33  1  0
 33 34  1  0
  8 35  1  0
 35 36  2  0
 36  5  1  0
 25  9  1  0
 34 29  1  0
 20 13  1  0
  1 37  1  0
  1 38  1  0
  1 39  1  0
  6 40  1  0
  7 41  1  0
  9 42  1  0
 10 43  1  0
 14 44  1  0
 15 45  1  0
 16 46  1  0
 19 47  1  0
 19 48  1  0
 19 49  1  0
 20 50  1  0
 26 51  1  0
 26 52  1  0
 27 53  1  0
 27 54  1  0
 28 55  1  0
 28 56  1  0
 30 57  1  0
 30 58  1  0
 31 59  1  0
 31 60  1  0
 33 61  1  0
 33 62  1  0
 34 63  1  0
 34 64  1  0
 35 65  1  0
 36 66  1  0
M  END
$$$$
