
     RDKit          3D

 32 33  0  0  0  0  0  0  0  0999 V2000
   -6.2553   -0.9110    0.3326 C   0  0  0  0  0  0  0  0  0  0  0  0
   -5.6508   -0.6760   -1.0390 C   0  0  0  0  0  0  0  0  0  0  0  0
   -4.2186   -0.6493   -0.9503 O   0  0  0  0  0  0  0  0  0  0  0  0
   -3.6686    0.5550   -0.6547 C   0  0  0  0  0  0  0  0  0  0  0  0
   -4.2796    1.5937   -0.4591 O   0  0  0  0  0  0  0  0  0  0  0  0
   -2.1847    0.4521   -0.5932 C   0  0  0  0  0  0  0  0  0  0  0  0
   -1.4535    1.6092   -0.2962 C   0  0  0  0  0  0  0  0  0  0  0  0
   -0.0585    1.5659   -0.2252 C   0  0  0  0  0  0  0  0  0  0  0  0
    0.6284    0.3654   -0.4552 C   0  0  0  0  0  0  0  0  0  0  0  0
    2.1350    0.3142   -0.3630 C   0  0  0  0  0  0  0  0  0  0  0  0
    2.6774   -0.0792    1.3254 S   0  0  0  0  0  0  0  0  0  0  0  0
    4.4108   -0.0754    1.1063 C   0  0  0  0  0  0  0  0  0  0  0  0
    4.9850    0.1933   -0.0452 N   0  0  0  0  0  0  0  0  0  0  0  0
    6.3624    0.1288    0.0388 N   0  0  0  0  0  0  0  0  0  0  0  0
    6.7770   -0.1836    1.2462 C   0  0  0  0  0  0  0  0  0  0  0  0
    8.0704   -0.3050    1.6022 N   0  0  0  0  0  0  0  0  0  0  0  0
    5.5059   -0.4145    2.3785 S   0  0  0  0  0  0  0  0  0  0  0  0
   -0.1072   -0.7930   -0.7454 C   0  0  0  0  0  0  0  0  0  0  0  0
   -1.5032   -0.7510   -0.8165 C   0  0  0  0  0  0  0  0  0  0  0  0
   -5.8578   -1.8301    0.7754 H   0  0  0  0  0  0  0  0  0  0  0  0
   -7.3439   -0.9922    0.2679 H   0  0  0  0  0  0  0  0  0  0  0  0
   -6.0058   -0.0941    1.0171 H   0  0  0  0  0  0  0  0  0  0  0  0
   -6.0396    0.2406   -1.4975 H   0  0  0  0  0  0  0  0  0  0  0  0
   -5.9144   -1.5048   -1.7042 H   0  0  0  0  0  0  0  0  0  0  0  0
   -1.9682    2.5514   -0.1152 H   0  0  0  0  0  0  0  0  0  0  0  0
    0.4879    2.4763    0.0143 H   0  0  0  0  0  0  0  0  0  0  0  0
    2.5522    1.2799   -0.6717 H   0  0  0  0  0  0  0  0  0  0  0  0
    2.5170   -0.4397   -1.0613 H   0  0  0  0  0  0  0  0  0  0  0  0
    8.3023   -0.1788    2.5803 H   0  0  0  0  0  0  0  0  0  0  0  0
    8.7389    0.1192    0.9672 H   0  0  0  0  0  0  0  0  0  0  0  0
    0.4033   -1.7394   -0.9151 H   0  0  0  0  0  0  0  0  0  0  0  0
   -2.0441   -1.6662   -1.0441 H   0  0  0  0  0  0  0  0  0  0  0  0
  1  2  1  0
  2  3  1  0
  3  4  1  0
  4  5  2  0
  4  6  1  0
  6  7  2  0
  7  8  1  0
  8  9  2  0
  9 10  1  0
 10 11  1  0
 11 12  1  0
 12 13  2  0
 13 14  1  0
 14 15  2  0
 15 16  1  0
 15 17  1  0
  9 18  1  0
 18 19  2  0
 19  6  1  0
 17 12  1  0
  1 20  1  0
  1 21  1  0
  1 22  1  0
  2 23  1  0
  2 24  1  0
  7 25  1  0
  8 26  1  0
 10 27  1  0
 10 28  1  0
 16 29  1  0
 16 30  1  0
 18 31  1  0
 19 32  1  0
M  END
$$$$
