
     RDKit          3D

 57 60  0  0  0  0  0  0  0  0999 V2000
    6.5906    2.4465    1.7547 C   0  0  0  0  0  0  0  0  0  0  0  0
    6.7863    2.1642    0.2709 C   0  0  0  0  0  0  0  0  0  0  0  0
    5.5689    2.4990   -0.6106 C   0  0  0  0  0  0  0  0  0  0  0  0
    5.1903    3.9785   -0.5560 C   0  0  0  0  0  0  0  0  0  0  0  0
    4.4247    1.6618   -0.2709 N   0  0  0  0  0  0  0  0  0  0  0  0
    4.3042    0.3758   -0.7586 C   0  0  0  0  0  0  0  0  0  0  0  0
    5.0623   -0.1127   -1.5896 O   0  0  0  0  0  0  0  0  0  0  0  0
    3.1722   -0.4288   -0.2262 C   0  0  0  0  0  0  0  0  0  0  0  0
    2.5405   -1.3336   -1.0835 C   0  0  0  0  0  0  0  0  0  0  0  0
    1.5055   -2.1431   -0.6108 C   0  0  0  0  0  0  0  0  0  0  0  0
    1.1042   -2.0795    0.7298 C   0  0  0  0  0  0  0  0  0  0  0  0
    0.0457   -3.0220    1.2454 C   0  0  0  0  0  0  0  0  0  0  0  0
   -1.5262   -2.2197    1.6498 S   0  0  0  0  0  0  0  0  0  0  0  0
   -2.3309   -2.2047    0.1145 C   0  0  0  0  0  0  0  0  0  0  0  0
   -1.7634   -2.4920   -1.0302 N   0  0  0  0  0  0  0  0  0  0  0  0
   -2.7389   -2.3246   -1.9772 C   0  0  0  0  0  0  0  0  0  0  0  0
   -2.6613   -2.4724   -3.3618 C   0  0  0  0  0  0  0  0  0  0  0  0
   -3.8336   -2.2408   -4.0557 C   0  0  0  0  0  0  0  0  0  0  0  0
   -5.0138   -1.8987   -3.4868 N   0  0  0  0  0  0  0  0  0  0  0  0
   -5.0861   -1.7521   -2.1439 C   0  0  0  0  0  0  0  0  0  0  0  0
   -3.9434   -1.9625   -1.3882 C   0  0  0  0  0  0  0  0  0  0  0  0
   -3.6640   -1.8994   -0.0377 N   0  0  0  0  0  0  0  0  0  0  0  0
   -4.6509   -1.6724    1.0068 C   0  0  0  0  0  0  0  0  0  0  0  0
   -5.0354   -0.2176    1.1397 C   0  0  0  0  0  0  0  0  0  0  0  0
   -4.1251    0.7276    1.6393 C   0  0  0  0  0  0  0  0  0  0  0  0
   -4.4973    2.0655    1.7789 C   0  0  0  0  0  0  0  0  0  0  0  0
   -5.7777    2.4639    1.4195 C   0  0  0  0  0  0  0  0  0  0  0  0
   -6.1354    3.7486    1.5586 F   0  0  0  0  0  0  0  0  0  0  0  0
   -6.6948    1.5475    0.9231 C   0  0  0  0  0  0  0  0  0  0  0  0
   -6.3278    0.2088    0.7893 C   0  0  0  0  0  0  0  0  0  0  0  0
    1.7398   -1.1650    1.5842 C   0  0  0  0  0  0  0  0  0  0  0  0
    2.7693   -0.3432    1.1103 C   0  0  0  0  0  0  0  0  0  0  0  0
    7.4843    2.1520    2.3137 H   0  0  0  0  0  0  0  0  0  0  0  0
    6.4223    3.5094    1.9436 H   0  0  0  0  0  0  0  0  0  0  0  0
    5.7441    1.8849    2.1584 H   0  0  0  0  0  0  0  0  0  0  0  0
    7.0384    1.1025    0.1551 H   0  0  0  0  0  0  0  0  0  0  0  0
    7.6560    2.7320   -0.0835 H   0  0  0  0  0  0  0  0  0  0  0  0
    5.8474    2.2675   -1.6470 H   0  0  0  0  0  0  0  0  0  0  0  0
    4.8105    4.2678    0.4278 H   0  0  0  0  0  0  0  0  0  0  0  0
    6.0541    4.6072   -0.7964 H   0  0  0  0  0  0  0  0  0  0  0  0
    4.3999    4.1987   -1.2823 H   0  0  0  0  0  0  0  0  0  0  0  0
    3.7522    2.0079    0.4000 H   0  0  0  0  0  0  0  0  0  0  0  0
    2.8568   -1.4134   -2.1207 H   0  0  0  0  0  0  0  0  0  0  0  0
    1.0194   -2.8361   -1.2960 H   0  0  0  0  0  0  0  0  0  0  0  0
   -0.1160   -3.8540    0.5506 H   0  0  0  0  0  0  0  0  0  0  0  0
    0.4233   -3.4797    2.1669 H   0  0  0  0  0  0  0  0  0  0  0  0
   -1.7393   -2.7411   -3.8572 H   0  0  0  0  0  0  0  0  0  0  0  0
   -3.8571   -2.3296   -5.1397 H   0  0  0  0  0  0  0  0  0  0  0  0
   -6.0451   -1.4707   -1.7364 H   0  0  0  0  0  0  0  0  0  0  0  0
   -5.5243   -2.2887    0.7570 H   0  0  0  0  0  0  0  0  0  0  0  0
   -4.2795   -2.0533    1.9626 H   0  0  0  0  0  0  0  0  0  0  0  0
   -3.1194    0.4318    1.9299 H   0  0  0  0  0  0  0  0  0  0  0  0
   -3.7979    2.7984    2.1695 H   0  0  0  0  0  0  0  0  0  0  0  0
   -7.6908    1.8824    0.6511 H   0  0  0  0  0  0  0  0  0  0  0  0
   -7.0630   -0.4976    0.4107 H   0  0  0  0  0  0  0  0  0  0  0  0
    1.4524   -1.1053    2.6312 H   0  0  0  0  0  0  0  0  0  0  0  0
    3.2730    0.3242    1.8036 H   0  0  0  0  0  0  0  0  0  0  0  0
  1  2  1  0
  2  3  1  0
  3  4  1  0
  3  5  1  0
  5  6  1  0
  6  7  2  0
  6  8  1  0
  8  9  2  0
  9 10  1  0
 10 11  2  0
 11 12  1  0
 12 13  1  0
 13 14  1  0
 14 15  2  0
 15 16  1  0
 16 17  2  0
 17 18  1  0
 18 19  2  0
 19 20  1  0
 20 21  2  0
 21 22  1  0
 22 23  1  0
 23 24  1  0
 24 25  2  0
 25 26  1  0
 26 27  2  0
 27 28  1  0
 27 29  1  0
 29 30  2  0
 11 31  1  0
 31 32  2  0
 32  8  1  0
 22 14  1  0
 30 24  1  0
 21 16  1  0
  1 33  1  0
  1 34  1  0
  1 35  1  0
  2 36  1  0
  2 37  1  0
  3 38  1  0
  4 39  1  0
  4 40  1  0
  4 41  1  0
  5 42  1  0
  9 43  1  0
 10 44  1  0
 12 45  1  0
 12 46  1  0
 17 47  1  0
 18 48  1  0
 20 49  1  0
 23 50  1  0
 23 51  1  0
 25 52  1  0
 26 53  1  0
 29 54  1  0
 30 55  1  0
 31 56  1  0
 32 57  1  0
M  END
$$$$
