
     RDKit          3D

 46 48  0  0  0  0  0  0  0  0999 V2000
   -1.8050    0.2829   -3.0440 N   0  0  0  0  0  0  0  0  0  0  0  0
   -0.7155   -0.4972   -2.9388 C   0  0  0  0  0  0  0  0  0  0  0  0
   -0.1060   -1.0084   -3.9659 N   0  0  0  0  0  0  0  0  0  0  0  0
    0.9807   -1.8206   -3.3577 C   0  0  0  0  0  0  0  0  0  0  0  0
    1.0734   -1.4033   -1.8738 C   0  0  0  0  0  0  0  0  0  0  0  0
    2.2598   -0.4469   -1.6571 C   0  0  0  0  0  0  0  0  0  0  0  0
    2.5119   -0.0962   -0.2083 C   0  0  0  0  0  0  0  0  0  0  0  0
    3.0651   -1.0389    0.6711 C   0  0  0  0  0  0  0  0  0  0  0  0
    3.3083   -0.7069    2.0063 C   0  0  0  0  0  0  0  0  0  0  0  0
    2.9992    0.5707    2.4613 C   0  0  0  0  0  0  0  0  0  0  0  0
    3.2171    0.9360    3.7567 O   0  0  0  0  0  0  0  0  0  0  0  0
    2.4535    1.5181    1.6048 C   0  0  0  0  0  0  0  0  0  0  0  0
    2.2096    1.1858    0.2716 C   0  0  0  0  0  0  0  0  0  0  0  0
   -0.2061   -0.7030   -1.6904 N   0  0  0  0  0  0  0  0  0  0  0  0
   -1.0596   -1.1380   -0.5776 C   0  0  0  0  0  0  0  0  0  0  0  0
   -1.4230    0.0475    0.3416 C   0  0  0  0  0  0  0  0  0  0  0  0
   -2.9238    0.3814    0.2692 C   0  0  0  0  0  0  0  0  0  0  0  0
   -3.2903    1.5358    1.2007 C   0  0  0  0  0  0  0  0  0  0  0  0
   -2.8737    1.2538    2.6404 C   0  0  0  0  0  0  0  0  0  0  0  0
   -1.3960    0.8900    2.7358 C   0  0  0  0  0  0  0  0  0  0  0  0
   -1.0431   -0.2640    1.8009 C   0  0  0  0  0  0  0  0  0  0  0  0
   -1.7456    1.0981   -2.4485 H   0  0  0  0  0  0  0  0  0  0  0  0
   -1.9603    0.5423   -4.0121 H   0  0  0  0  0  0  0  0  0  0  0  0
    0.7073   -2.8791   -3.4414 H   0  0  0  0  0  0  0  0  0  0  0  0
    1.9181   -1.6683   -3.9020 H   0  0  0  0  0  0  0  0  0  0  0  0
    1.1743   -2.2969   -1.2469 H   0  0  0  0  0  0  0  0  0  0  0  0
    2.1184    0.4741   -2.2387 H   0  0  0  0  0  0  0  0  0  0  0  0
    3.1782   -0.9058   -2.0475 H   0  0  0  0  0  0  0  0  0  0  0  0
    3.3174   -2.0367    0.3198 H   0  0  0  0  0  0  0  0  0  0  0  0
    3.7375   -1.4514    2.6690 H   0  0  0  0  0  0  0  0  0  0  0  0
    3.6139    0.1851    4.2271 H   0  0  0  0  0  0  0  0  0  0  0  0
    2.2149    2.5115    1.9731 H   0  0  0  0  0  0  0  0  0  0  0  0
    1.7763    1.9325   -0.3901 H   0  0  0  0  0  0  0  0  0  0  0  0
   -0.5381   -1.9071    0.0048 H   0  0  0  0  0  0  0  0  0  0  0  0
   -1.9594   -1.6304   -0.9678 H   0  0  0  0  0  0  0  0  0  0  0  0
   -0.8627    0.9396    0.0308 H   0  0  0  0  0  0  0  0  0  0  0  0
   -3.2101    0.6484   -0.7525 H   0  0  0  0  0  0  0  0  0  0  0  0
   -3.5154   -0.5021    0.5419 H   0  0  0  0  0  0  0  0  0  0  0  0
   -2.8018    2.4541    0.8520 H   0  0  0  0  0  0  0  0  0  0  0  0
   -4.3709    1.7135    1.1589 H   0  0  0  0  0  0  0  0  0  0  0  0
   -3.4780    0.4296    3.0392 H   0  0  0  0  0  0  0  0  0  0  0  0
   -3.0798    2.1312    3.2637 H   0  0  0  0  0  0  0  0  0  0  0  0
   -1.1495    0.6168    3.7679 H   0  0  0  0  0  0  0  0  0  0  0  0
   -0.7863    1.7659    2.4826 H   0  0  0  0  0  0  0  0  0  0  0  0
   -1.5636   -1.1708    2.1354 H   0  0  0  0  0  0  0  0  0  0  0  0
    0.0287   -0.4726    1.8755 H   0  0  0  0  0  0  0  0  0  0  0  0
  1  2  1  0
  2  3  2  0
  3  4  1  0
  4  5  1  0
  5  6  1  0
  6  7  1  0
  7  8  2  0
  8  9  1  0
  9 10  2  0
 10 11  1  0
 10 12  1  0
 12 13  2  0
  5 14  1  0
 14 15  1  0
 15 16  1  0
 16 17  1  0
 17 18  1  0
 18 19  1  0
 19 20  1  0
 20 21  1  0
 14  2  1  0
 21 16  1  0
 13  7  1  0
  1 22  1  0
  1 23  1  0
  4 24  1  0
  4 25  1  0
  5 26  1  0
  6 27  1  0
  6 28  1  0
  8 29  1  0
  9 30  1  0
 11 31  1  0
 12 32  1  0
 13 33  1  0
 15 34  1  0
 15 35  1  0
 16 36  1  0
 17 37  1  0
 17 38  1  0
 18 39  1  0
 18 40  1  0
 19 41  1  0
 19 42  1  0
 20 43  1  0
 20 44  1  0
 21 45  1  0
 21 46  1  0
M  END
$$$$
