
     RDKit          3D

 51 53  0  0  0  0  0  0  0  0999 V2000
   -6.9243    2.2018   -3.6725 C   0  0  0  0  0  0  0  0  0  0  0  0
   -6.4395    2.0419   -2.2557 C   0  0  0  0  0  0  0  0  0  0  0  0
   -7.3782    2.1621   -1.2212 C   0  0  0  0  0  0  0  0  0  0  0  0
   -6.9914    2.0231    0.1056 C   0  0  0  0  0  0  0  0  0  0  0  0
   -5.6595    1.7634    0.4216 C   0  0  0  0  0  0  0  0  0  0  0  0
   -4.6919    1.6399   -0.5809 C   0  0  0  0  0  0  0  0  0  0  0  0
   -3.3325    1.3685   -0.2812 N   0  0  0  0  0  0  0  0  0  0  0  0
   -2.7314    1.2443    0.9692 C   0  0  0  0  0  0  0  0  0  0  0  0
   -3.2894    1.3816    2.0526 O   0  0  0  0  0  0  0  0  0  0  0  0
   -1.2383    0.9562    0.8364 C   0  0  0  0  0  0  0  0  0  0  0  0
   -0.5432    0.2150    2.3403 S   0  0  0  0  0  0  0  0  0  0  0  0
    1.1347    0.0999    1.8768 C   0  0  0  0  0  0  0  0  0  0  0  0
    1.4988    0.3250    0.6628 N   0  0  0  0  0  0  0  0  0  0  0  0
    2.8401    0.2229    0.3587 C   0  0  0  0  0  0  0  0  0  0  0  0
    3.2634    0.5309   -0.7515 O   0  0  0  0  0  0  0  0  0  0  0  0
    3.8021   -0.2724    1.4182 C   0  0  0  0  0  0  0  0  0  0  0  0
    5.2309   -0.4531    0.9722 C   0  0  0  0  0  0  0  0  0  0  0  0
    5.5196   -1.8474    0.4581 C   0  0  0  0  0  0  0  0  0  0  0  0
    5.2121   -2.1939   -0.8659 C   0  0  0  0  0  0  0  0  0  0  0  0
    5.4559   -3.4846   -1.3384 C   0  0  0  0  0  0  0  0  0  0  0  0
    6.0083   -4.4445   -0.4937 C   0  0  0  0  0  0  0  0  0  0  0  0
    6.3191   -4.1138    0.8235 C   0  0  0  0  0  0  0  0  0  0  0  0
    6.0761   -2.8228    1.2978 C   0  0  0  0  0  0  0  0  0  0  0  0
    3.3133   -0.4603    2.6629 C   0  0  0  0  0  0  0  0  0  0  0  0
    4.1130   -0.9062    3.8552 C   0  0  0  0  0  0  0  0  0  0  0  0
    1.9747   -0.2465    2.8838 N   0  0  0  0  0  0  0  0  0  0  0  0
   -5.0805    1.7835   -1.9414 C   0  0  0  0  0  0  0  0  0  0  0  0
   -4.0548    1.6554   -3.0441 C   0  0  0  0  0  0  0  0  0  0  0  0
   -6.4458    3.0676   -4.1423 H   0  0  0  0  0  0  0  0  0  0  0  0
   -6.7124    1.2979   -4.2529 H   0  0  0  0  0  0  0  0  0  0  0  0
   -8.0073    2.3658   -3.7132 H   0  0  0  0  0  0  0  0  0  0  0  0
   -8.4240    2.3642   -1.4433 H   0  0  0  0  0  0  0  0  0  0  0  0
   -7.7264    2.1151    0.9012 H   0  0  0  0  0  0  0  0  0  0  0  0
   -5.4140    1.6576    1.4730 H   0  0  0  0  0  0  0  0  0  0  0  0
   -2.7172    1.2706   -1.0768 H   0  0  0  0  0  0  0  0  0  0  0  0
   -0.7369    1.9060    0.6226 H   0  0  0  0  0  0  0  0  0  0  0  0
   -1.0821    0.2640    0.0016 H   0  0  0  0  0  0  0  0  0  0  0  0
    5.4969    0.2761    0.1965 H   0  0  0  0  0  0  0  0  0  0  0  0
    5.9253   -0.2158    1.7862 H   0  0  0  0  0  0  0  0  0  0  0  0
    4.7793   -1.4569   -1.5421 H   0  0  0  0  0  0  0  0  0  0  0  0
    5.2121   -3.7391   -2.3667 H   0  0  0  0  0  0  0  0  0  0  0  0
    6.1974   -5.4493   -0.8621 H   0  0  0  0  0  0  0  0  0  0  0  0
    6.7519   -4.8626    1.4822 H   0  0  0  0  0  0  0  0  0  0  0  0
    6.3292   -2.5878    2.3284 H   0  0  0  0  0  0  0  0  0  0  0  0
    3.8030   -1.9118    4.1597 H   0  0  0  0  0  0  0  0  0  0  0  0
    3.9425   -0.2267    4.6978 H   0  0  0  0  0  0  0  0  0  0  0  0
    5.1898   -0.9267    3.6785 H   0  0  0  0  0  0  0  0  0  0  0  0
    1.5797   -0.4468    3.7947 H   0  0  0  0  0  0  0  0  0  0  0  0
   -3.2452    2.3770   -2.8919 H   0  0  0  0  0  0  0  0  0  0  0  0
   -4.4575    1.8512   -4.0401 H   0  0  0  0  0  0  0  0  0  0  0  0
   -3.6454    0.6401   -3.0566 H   0  0  0  0  0  0  0  0  0  0  0  0
  1  2  1  0
  2  3  2  0
  3  4  1  0
  4  5  2  0
  5  6  1  0
  6  7  1  0
  7  8  1  0
  8  9  2  0
  8 10  1  0
 10 11  1  0
 11 12  1  0
 12 13  2  0
 13 14  1  0
 14 15  2  0
 14 16  1  0
 16 17  1  0
 17 18  1  0
 18 19  2  0
 19 20  1  0
 20 21  2  0
 21 22  1  0
 22 23  2  0
 16 24  2  0
 24 25  1  0
 24 26  1  0
  6 27  2  0
 27 28  1  0
 27  2  1  0
 26 12  1  0
 23 18  1  0
  1 29  1  0
  1 30  1  0
  1 31  1  0
  3 32  1  0
  4 33  1  0
  5 34  1  0
  7 35  1  0
 10 36  1  0
 10 37  1  0
 17 38  1  0
 17 39  1  0
 19 40  1  0
 20 41  1  0
 21 42  1  0
 22 43  1  0
 23 44  1  0
 25 45  1  0
 25 46  1  0
 25 47  1  0
 26 48  1  0
 28 49  1  0
 28 50  1  0
 28 51  1  0
M  END
$$$$
