
     RDKit          3D

 51 53  0  0  0  0  0  0  0  0999 V2000
   -5.8743    1.3019   -5.0710 C   0  0  0  0  0  0  0  0  0  0  0  0
   -4.8217    0.4856   -4.5750 O   0  0  0  0  0  0  0  0  0  0  0  0
   -4.2759    1.0039   -3.3657 C   0  0  0  0  0  0  0  0  0  0  0  0
   -3.1566    0.0755   -2.9152 C   0  0  0  0  0  0  0  0  0  0  0  0
   -2.5073    0.5765   -1.6304 C   0  0  0  0  0  0  0  0  0  0  0  0
   -1.4777   -0.3174   -1.1408 N   0  0  0  0  0  0  0  0  0  0  0  0
   -0.1234   -0.1841   -1.3201 C   0  0  0  0  0  0  0  0  0  0  0  0
    0.6386    1.1439   -2.1273 S   0  0  0  0  0  0  0  0  0  0  0  0
    2.3367    0.9644   -1.4972 C   0  0  0  0  0  0  0  0  0  0  0  0
    2.4084    1.1894   -0.0011 C   0  0  0  0  0  0  0  0  0  0  0  0
    1.6496    1.8924    0.6545 O   0  0  0  0  0  0  0  0  0  0  0  0
    3.4967    0.5358    0.5028 O   0  0  0  0  0  0  0  0  0  0  0  0
    3.6789    0.6191    1.9289 C   0  0  0  0  0  0  0  0  0  0  0  0
    4.5460   -0.5635    2.3564 C   0  0  0  0  0  0  0  0  0  0  0  0
    4.7704   -0.5894    3.8683 C   0  0  0  0  0  0  0  0  0  0  0  0
    4.7779    0.8002    4.5091 C   0  0  0  0  0  0  0  0  0  0  0  0
    5.2395    1.8757    3.5355 C   0  0  0  0  0  0  0  0  0  0  0  0
    4.3474    1.9526    2.2943 C   0  0  0  0  0  0  0  0  0  0  0  0
    0.5032   -1.2160   -0.8112 N   0  0  0  0  0  0  0  0  0  0  0  0
   -0.4422   -2.0577   -0.2923 N   0  0  0  0  0  0  0  0  0  0  0  0
   -1.6349   -1.5148   -0.4692 C   0  0  0  0  0  0  0  0  0  0  0  0
   -2.8381   -2.1907   -0.0667 C   0  0  0  0  0  0  0  0  0  0  0  0
   -2.9998   -3.5665   -0.0459 C   0  0  0  0  0  0  0  0  0  0  0  0
   -4.2855   -3.9697    0.4163 C   0  0  0  0  0  0  0  0  0  0  0  0
   -5.0653   -2.8886    0.7600 C   0  0  0  0  0  0  0  0  0  0  0  0
   -4.2382   -1.4109    0.5377 S   0  0  0  0  0  0  0  0  0  0  0  0
   -6.2557    0.8513   -5.9912 H   0  0  0  0  0  0  0  0  0  0  0  0
   -6.6912    1.3566   -4.3449 H   0  0  0  0  0  0  0  0  0  0  0  0
   -5.5044    2.3065   -5.2998 H   0  0  0  0  0  0  0  0  0  0  0  0
   -5.0606    1.0493   -2.6028 H   0  0  0  0  0  0  0  0  0  0  0  0
   -3.8878    2.0140   -3.5414 H   0  0  0  0  0  0  0  0  0  0  0  0
   -3.5569   -0.9380   -2.7853 H   0  0  0  0  0  0  0  0  0  0  0  0
   -2.4074   -0.0105   -3.7124 H   0  0  0  0  0  0  0  0  0  0  0  0
   -3.2407    0.7255   -0.8351 H   0  0  0  0  0  0  0  0  0  0  0  0
   -2.0697    1.5658   -1.7944 H   0  0  0  0  0  0  0  0  0  0  0  0
    2.7091   -0.0329   -1.7508 H   0  0  0  0  0  0  0  0  0  0  0  0
    2.9744    1.7083   -1.9835 H   0  0  0  0  0  0  0  0  0  0  0  0
    2.7057    0.5291    2.4308 H   0  0  0  0  0  0  0  0  0  0  0  0
    5.5148   -0.5070    1.8398 H   0  0  0  0  0  0  0  0  0  0  0  0
    4.0988   -1.5105    2.0243 H   0  0  0  0  0  0  0  0  0  0  0  0
    3.9918   -1.1925    4.3504 H   0  0  0  0  0  0  0  0  0  0  0  0
    5.7208   -1.0973    4.0732 H   0  0  0  0  0  0  0  0  0  0  0  0
    3.7674    1.0453    4.8630 H   0  0  0  0  0  0  0  0  0  0  0  0
    5.4233    0.7900    5.3957 H   0  0  0  0  0  0  0  0  0  0  0  0
    6.2711    1.6604    3.2263 H   0  0  0  0  0  0  0  0  0  0  0  0
    5.2610    2.8523    4.0335 H   0  0  0  0  0  0  0  0  0  0  0  0
    4.9345    2.3385    1.4516 H   0  0  0  0  0  0  0  0  0  0  0  0
    3.5602    2.6980    2.4638 H   0  0  0  0  0  0  0  0  0  0  0  0
   -2.2191   -4.2537   -0.3574 H   0  0  0  0  0  0  0  0  0  0  0  0
   -4.6149   -4.9993    0.4967 H   0  0  0  0  0  0  0  0  0  0  0  0
   -6.0770   -2.8967    1.1447 H   0  0  0  0  0  0  0  0  0  0  0  0
  1  2  1  0
  2  3  1  0
  3  4  1  0
  4  5  1  0
  5  6  1  0
  6  7  1  0
  7  8  1  0
  8  9  1  0
  9 10  1  0
 10 11  2  0
 10 12  1  0
 12 13  1  0
 13 14  1  0
 14 15  1  0
 15 16  1  0
 16 17  1  0
 17 18  1  0
  7 19  2  0
 19 20  1  0
 20 21  2  0
 21 22  1  0
 22 23  2  0
 23 24  1  0
 24 25  2  0
 25 26  1  0
 21  6  1  0
 26 22  1  0
 18 13  1  0
  1 27  1  0
  1 28  1  0
  1 29  1  0
  3 30  1  0
  3 31  1  0
  4 32  1  0
  4 33  1  0
  5 34  1  0
  5 35  1  0
  9 36  1  0
  9 37  1  0
 13 38  1  0
 14 39  1  0
 14 40  1  0
 15 41  1  0
 15 42  1  0
 16 43  1  0
 16 44  1  0
 17 45  1  0
 17 46  1  0
 18 47  1  0
 18 48  1  0
 23 49  1  0
 24 50  1  0
 25 51  1  0
M  END
$$$$
