
     RDKit          3D

 98 98  0  0  0  0  0  0  0  0999 V2000
   13.7533   -2.9253   -1.5027 C   0  0  0  0  0  0  0  0  0  0  0  0
   13.7757   -2.9313    0.0198 C   0  0  0  0  0  0  0  0  0  0  0  0
   12.5841   -3.6752    0.6307 C   0  0  0  0  0  0  0  0  0  0  0  0
   11.4434   -2.7651    1.1028 C   0  0  0  0  0  0  0  0  0  0  0  0
   10.7748   -1.9677   -0.0157 C   0  0  0  0  0  0  0  0  0  0  0  0
    9.5746   -1.1718    0.5056 C   0  0  0  0  0  0  0  0  0  0  0  0
    8.9100   -0.3791   -0.6225 C   0  0  0  0  0  0  0  0  0  0  0  0
    7.7755    0.5328   -0.1474 C   0  0  0  0  0  0  0  0  0  0  0  0
    6.5942   -0.2316    0.4558 C   0  0  0  0  0  0  0  0  0  0  0  0
    5.3467    0.6400    0.6387 C   0  0  0  0  0  0  0  0  0  0  0  0
    5.5401    1.7681    1.6551 C   0  0  0  0  0  0  0  0  0  0  0  0
    4.2489    2.5443    1.9379 C   0  0  0  0  0  0  0  0  0  0  0  0
    3.7467    3.3313    0.7243 C   0  0  0  0  0  0  0  0  0  0  0  0
    2.5655    4.2550    1.0425 C   0  0  0  0  0  0  0  0  0  0  0  0
    1.3071    3.5463    1.5389 C   0  0  0  0  0  0  0  0  0  0  0  0
    0.7575    2.5464    0.5513 C   0  0  0  0  0  0  0  0  0  0  0  0
    0.6429    1.3511    0.7889 O   0  0  0  0  0  0  0  0  0  0  0  0
    0.3921    3.1659   -0.6005 O   0  0  0  0  0  0  0  0  0  0  0  0
   -0.2317    2.3397   -1.5902 C   0  0  0  0  0  0  0  0  0  0  0  0
   -1.6721    2.7454   -1.6805 C   0  0  0  0  0  0  0  0  0  0  0  0
   -2.7822    2.0744   -1.3020 C   0  0  0  0  0  0  0  0  0  0  0  0
   -4.1142    2.7523   -1.5008 C   0  0  0  0  0  0  0  0  0  0  0  0
   -2.7199    0.7747   -0.6359 C   0  0  0  0  0  0  0  0  0  0  0  0
   -3.6736   -0.1007   -0.2718 C   0  0  0  0  0  0  0  0  0  0  0  0
   -5.0971   -0.0709   -0.5282 C   0  0  0  0  0  0  0  0  0  0  0  0
   -6.0607   -0.6099    0.2466 C   0  0  0  0  0  0  0  0  0  0  0  0
   -5.8033   -1.2934    1.5677 C   0  0  0  0  0  0  0  0  0  0  0  0
   -7.4527   -0.4963   -0.1950 C   0  0  0  0  0  0  0  0  0  0  0  0
   -8.5419   -0.8982    0.4824 C   0  0  0  0  0  0  0  0  0  0  0  0
   -9.9028   -0.7267   -0.0239 C   0  0  0  0  0  0  0  0  0  0  0  0
  -10.4492    0.5044   -0.1804 C   0  0  0  0  0  0  0  0  0  0  0  0
   -9.7836    1.8001    0.2275 C   0  0  0  0  0  0  0  0  0  0  0  0
  -11.8214    0.7140   -0.7816 C   0  0  0  0  0  0  0  0  0  0  0  0
  -12.3869   -0.5131   -1.4835 C   0  0  0  0  0  0  0  0  0  0  0  0
  -12.1639   -1.7537   -0.6343 C   0  0  0  0  0  0  0  0  0  0  0  0
  -10.6570   -2.0270   -0.3764 C   0  0  0  0  0  0  0  0  0  0  0  0
  -10.0306   -2.6539   -1.6448 C   0  0  0  0  0  0  0  0  0  0  0  0
  -10.5915   -3.0709    0.7634 C   0  0  0  0  0  0  0  0  0  0  0  0
   14.6061   -2.3598   -1.8891 H   0  0  0  0  0  0  0  0  0  0  0  0
   12.8414   -2.4722   -1.8978 H   0  0  0  0  0  0  0  0  0  0  0  0
   13.8209   -3.9450   -1.8927 H   0  0  0  0  0  0  0  0  0  0  0  0
   14.6981   -3.4345    0.3352 H   0  0  0  0  0  0  0  0  0  0  0  0
   13.8335   -1.9043    0.3976 H   0  0  0  0  0  0  0  0  0  0  0  0
   12.1991   -4.4306   -0.0646 H   0  0  0  0  0  0  0  0  0  0  0  0
   12.9432   -4.2211    1.5130 H   0  0  0  0  0  0  0  0  0  0  0  0
   11.8235   -2.0765    1.8669 H   0  0  0  0  0  0  0  0  0  0  0  0
   10.6914   -3.3947    1.5937 H   0  0  0  0  0  0  0  0  0  0  0  0
   11.4944   -1.2711   -0.4573 H   0  0  0  0  0  0  0  0  0  0  0  0
   10.4466   -2.6481   -0.8100 H   0  0  0  0  0  0  0  0  0  0  0  0
    8.8529   -1.8620    0.9562 H   0  0  0  0  0  0  0  0  0  0  0  0
    9.9054   -0.4840    1.2923 H   0  0  0  0  0  0  0  0  0  0  0  0
    9.6632    0.2446   -1.1196 H   0  0  0  0  0  0  0  0  0  0  0  0
    8.5281   -1.0725   -1.3810 H   0  0  0  0  0  0  0  0  0  0  0  0
    8.1703    1.2520    0.5787 H   0  0  0  0  0  0  0  0  0  0  0  0
    7.4262    1.1156   -1.0089 H   0  0  0  0  0  0  0  0  0  0  0  0
    6.3304   -1.0684   -0.2020 H   0  0  0  0  0  0  0  0  0  0  0  0
    6.8791   -0.6651    1.4208 H   0  0  0  0  0  0  0  0  0  0  0  0
    4.5224   -0.0028    0.9702 H   0  0  0  0  0  0  0  0  0  0  0  0
    5.0567    1.0504   -0.3350 H   0  0  0  0  0  0  0  0  0  0  0  0
    6.3087    2.4671    1.3070 H   0  0  0  0  0  0  0  0  0  0  0  0
    5.9005    1.3420    2.5996 H   0  0  0  0  0  0  0  0  0  0  0  0
    3.4793    1.8458    2.2838 H   0  0  0  0  0  0  0  0  0  0  0  0
    4.4386    3.2405    2.7635 H   0  0  0  0  0  0  0  0  0  0  0  0
    4.5674    3.9484    0.3356 H   0  0  0  0  0  0  0  0  0  0  0  0
    3.4621    2.6454   -0.0814 H   0  0  0  0  0  0  0  0  0  0  0  0
    2.8767    4.9865    1.7977 H   0  0  0  0  0  0  0  0  0  0  0  0
    2.3291    4.8278    0.1389 H   0  0  0  0  0  0  0  0  0  0  0  0
    1.5029    3.0280    2.4832 H   0  0  0  0  0  0  0  0  0  0  0  0
    0.5177    4.2785    1.7482 H   0  0  0  0  0  0  0  0  0  0  0  0
    0.2523    2.5654   -2.5466 H   0  0  0  0  0  0  0  0  0  0  0  0
   -0.0781    1.2696   -1.4230 H   0  0  0  0  0  0  0  0  0  0  0  0
   -1.7978    3.7295   -2.1295 H   0  0  0  0  0  0  0  0  0  0  0  0
   -4.7075    2.7405   -0.5806 H   0  0  0  0  0  0  0  0  0  0  0  0
   -3.9997    3.8090   -1.7746 H   0  0  0  0  0  0  0  0  0  0  0  0
   -4.6743    2.2767   -2.3120 H   0  0  0  0  0  0  0  0  0  0  0  0
   -1.7168    0.4696   -0.3321 H   0  0  0  0  0  0  0  0  0  0  0  0
   -3.3234   -0.9805    0.2685 H   0  0  0  0  0  0  0  0  0  0  0  0
   -5.3845    0.4125   -1.4567 H   0  0  0  0  0  0  0  0  0  0  0  0
   -4.7513   -1.2862    1.8590 H   0  0  0  0  0  0  0  0  0  0  0  0
   -6.1190   -2.3410    1.5261 H   0  0  0  0  0  0  0  0  0  0  0  0
   -6.3495   -0.7940    2.3765 H   0  0  0  0  0  0  0  0  0  0  0  0
   -7.6056   -0.0265   -1.1673 H   0  0  0  0  0  0  0  0  0  0  0  0
   -8.4634   -1.3815    1.4512 H   0  0  0  0  0  0  0  0  0  0  0  0
   -9.4243    2.3330   -0.6613 H   0  0  0  0  0  0  0  0  0  0  0  0
  -10.4998    2.4467    0.7476 H   0  0  0  0  0  0  0  0  0  0  0  0
   -8.9411    1.6634    0.9122 H   0  0  0  0  0  0  0  0  0  0  0  0
  -11.7900    1.5401   -1.5016 H   0  0  0  0  0  0  0  0  0  0  0  0
  -12.5054    1.0179    0.0219 H   0  0  0  0  0  0  0  0  0  0  0  0
  -11.9157   -0.6318   -2.4660 H   0  0  0  0  0  0  0  0  0  0  0  0
  -13.4604   -0.3699   -1.6626 H   0  0  0  0  0  0  0  0  0  0  0  0
  -12.6297   -2.6171   -1.1243 H   0  0  0  0  0  0  0  0  0  0  0  0
  -12.6899   -1.6197    0.3210 H   0  0  0  0  0  0  0  0  0  0  0  0
   -9.0021   -2.9872   -1.4636 H   0  0  0  0  0  0  0  0  0  0  0  0
  -10.6020   -3.5300   -1.9753 H   0  0  0  0  0  0  0  0  0  0  0  0
   -9.9994   -1.9422   -2.4772 H   0  0  0  0  0  0  0  0  0  0  0  0
  -11.2203   -3.9404    0.5345 H   0  0  0  0  0  0  0  0  0  0  0  0
   -9.5749   -3.4484    0.9194 H   0  0  0  0  0  0  0  0  0  0  0  0
  -10.9397   -2.6453    1.7120 H   0  0  0  0  0  0  0  0  0  0  0  0
  1  2  1  0
  2  3  1  0
  3  4  1  0
  4  5  1  0
  5  6  1  0
  6  7  1  0
  7  8  1  0
  8  9  1  0
  9 10  1  0
 10 11  1  0
 11 12  1  0
 12 13  1  0
 13 14  1  0
 14 15  1  0
 15 16  1  0
 16 17  2  0
 16 18  1  0
 18 19  1  0
 19 20  1  0
 20 21  2  3
 21 22  1  0
 21 23  1  0
 23 24  2  3
 24 25  1  0
 25 26  2  3
 26 27  1  0
 26 28  1  0
 28 29  2  3
 29 30  1  0
 30 31  2  0
 31 32  1  0
 31 33  1  0
 33 34  1  0
 34 35  1  0
 35 36  1  0
 36 37  1  0
 36 38  1  0
 36 30  1  0
  1 39  1  0
  1 40  1  0
  1 41  1  0
  2 42  1  0
  2 43  1  0
  3 44  1  0
  3 45  1  0
  4 46  1  0
  4 47  1  0
  5 48  1  0
  5 49  1  0
  6 50  1  0
  6 51  1  0
  7 52  1  0
  7 53  1  0
  8 54  1  0
  8 55  1  0
  9 56  1  0
  9 57  1  0
 10 58  1  0
 10 59  1  0
 11 60  1  0
 11 61  1  0
 12 62  1  0
 12 63  1  0
 13 64  1  0
 13 65  1  0
 14 66  1  0
 14 67  1  0
 15 68  1  0
 15 69  1  0
 19 70  1  0
 19 71  1  0
 20 72  1  0
 22 73  1  0
 22 74  1  0
 22 75  1  0
 23 76  1  0
 24 77  1  0
 25 78  1  0
 27 79  1  0
 27 80  1  0
 27 81  1  0
 28 82  1  0
 29 83  1  0
 32 84  1  0
 32 85  1  0
 32 86  1  0
 33 87  1  0
 33 88  1  0
 34 89  1  0
 34 90  1  0
 35 91  1  0
 35 92  1  0
 37 93  1  0
 37 94  1  0
 37 95  1  0
 38 96  1  0
 38 97  1  0
 38 98  1  0
M  END
$$$$
