
     RDKit          3D

 37 38  0  0  0  0  0  0  0  0999 V2000
   -5.0080   -0.4828   -1.8362 C   0  0  0  0  0  0  0  0  0  0  0  0
   -4.0034   -0.3146   -0.7858 N   0  0  0  0  0  0  0  0  0  0  0  0
   -2.6672   -0.5767   -1.0791 C   0  0  0  0  0  0  0  0  0  0  0  0
   -2.3380   -0.8846   -2.3944 N   0  0  0  0  0  0  0  0  0  0  0  0
   -1.7478   -0.5396   -0.0850 C   0  0  0  0  0  0  0  0  0  0  0  0
   -0.2813   -0.7414   -0.3810 C   0  0  0  0  0  0  0  0  0  0  0  0
    0.0729   -1.2147   -1.4669 O   0  0  0  0  0  0  0  0  0  0  0  0
    0.7456   -0.2906    0.6584 C   0  0  0  0  0  0  0  0  0  0  0  0
    2.0282   -0.1403    0.0424 O   0  0  0  0  0  0  0  0  0  0  0  0
    3.0163    0.2228    0.8975 C   0  0  0  0  0  0  0  0  0  0  0  0
    2.8771    0.4249    2.0956 O   0  0  0  0  0  0  0  0  0  0  0  0
    4.3233    0.3513    0.1842 C   0  0  0  0  0  0  0  0  0  0  0  0
    5.4632    0.6438    0.9278 C   0  0  0  0  0  0  0  0  0  0  0  0
    6.6787    0.7636    0.2596 C   0  0  0  0  0  0  0  0  0  0  0  0
    6.7174    0.5892   -1.1197 C   0  0  0  0  0  0  0  0  0  0  0  0
    5.5339    0.3023   -1.7812 C   0  0  0  0  0  0  0  0  0  0  0  0
    4.3394    0.1819   -1.1647 N   0  0  0  0  0  0  0  0  0  0  0  0
   -2.2112   -0.2780    1.2969 C   0  0  0  0  0  0  0  0  0  0  0  0
   -1.4621   -0.4918    2.2486 O   0  0  0  0  0  0  0  0  0  0  0  0
   -3.4927    0.1957    1.4509 N   0  0  0  0  0  0  0  0  0  0  0  0
   -3.9356    0.5489    2.7875 C   0  0  0  0  0  0  0  0  0  0  0  0
   -4.4567    0.0907    0.4656 C   0  0  0  0  0  0  0  0  0  0  0  0
   -5.6431    0.3303    0.6970 O   0  0  0  0  0  0  0  0  0  0  0  0
   -4.8646    0.2937   -2.5945 H   0  0  0  0  0  0  0  0  0  0  0  0
   -6.0288   -0.3974   -1.4536 H   0  0  0  0  0  0  0  0  0  0  0  0
   -4.9068   -1.4750   -2.2884 H   0  0  0  0  0  0  0  0  0  0  0  0
   -2.6729   -0.1877   -3.0529 H   0  0  0  0  0  0  0  0  0  0  0  0
   -1.3269   -1.0345   -2.5247 H   0  0  0  0  0  0  0  0  0  0  0  0
    0.8098   -1.0603    1.4344 H   0  0  0  0  0  0  0  0  0  0  0  0
    0.4442    0.6805    1.0645 H   0  0  0  0  0  0  0  0  0  0  0  0
    5.4083    0.7743    2.0042 H   0  0  0  0  0  0  0  0  0  0  0  0
    7.5875    0.9895    0.8110 H   0  0  0  0  0  0  0  0  0  0  0  0
    7.6495    0.6743   -1.6681 H   0  0  0  0  0  0  0  0  0  0  0  0
    5.5154    0.1570   -2.8580 H   0  0  0  0  0  0  0  0  0  0  0  0
   -4.3456   -0.3468    3.2652 H   0  0  0  0  0  0  0  0  0  0  0  0
   -4.7144    1.3165    2.7451 H   0  0  0  0  0  0  0  0  0  0  0  0
   -3.1036    0.9256    3.3898 H   0  0  0  0  0  0  0  0  0  0  0  0
  1  2  1  0
  2  3  1  0
  3  4  1  0
  3  5  2  0
  5  6  1  0
  6  7  2  0
  6  8  1  0
  8  9  1  0
  9 10  1  0
 10 11  2  0
 10 12  1  0
 12 13  2  0
 13 14  1  0
 14 15  2  0
 15 16  1  0
 16 17  2  0
  5 18  1  0
 18 19  2  0
 18 20  1  0
 20 21  1  0
 20 22  1  0
 22 23  2  0
 22  2  1  0
 17 12  1  0
  1 24  1  0
  1 25  1  0
  1 26  1  0
  4 27  1  0
  4 28  1  0
  8 29  1  0
  8 30  1  0
 13 31  1  0
 14 32  1  0
 15 33  1  0
 16 34  1  0
 21 35  1  0
 21 36  1  0
 21 37  1  0
M  END
$$$$
