
     RDKit          3D

 43 46  0  0  0  0  0  0  0  0999 V2000
   -5.6340    0.8767   -4.6895 N   0  0  0  0  0  0  0  0  0  0  0  0
   -4.5366    0.6957   -4.3598 C   0  0  0  0  0  0  0  0  0  0  0  0
   -3.1619    0.4439   -3.9220 C   0  0  0  0  0  0  0  0  0  0  0  0
   -3.1557   -0.0215   -2.4740 C   0  0  0  0  0  0  0  0  0  0  0  0
   -1.8208   -0.3675   -2.0263 N   0  0  0  0  0  0  0  0  0  0  0  0
   -1.3782   -1.5970   -1.6444 C   0  0  0  0  0  0  0  0  0  0  0  0
   -0.0668   -1.4158   -1.2717 C   0  0  0  0  0  0  0  0  0  0  0  0
    0.7634   -2.4616   -0.7719 C   0  0  0  0  0  0  0  0  0  0  0  0
    1.1022   -2.6904    0.5141 C   0  0  0  0  0  0  0  0  0  0  0  0
    1.9290   -3.8107    0.8242 C   0  0  0  0  0  0  0  0  0  0  0  0
    2.5972   -4.7337    1.0458 N   0  0  0  0  0  0  0  0  0  0  0  0
    0.6485   -1.8407    1.5675 C   0  0  0  0  0  0  0  0  0  0  0  0
    0.9077   -0.5554    1.6982 N   0  0  0  0  0  0  0  0  0  0  0  0
    0.2801   -0.0327    2.8142 C   0  0  0  0  0  0  0  0  0  0  0  0
    0.3355    1.3097    3.2394 C   0  0  0  0  0  0  0  0  0  0  0  0
   -0.3513    1.7026    4.3924 C   0  0  0  0  0  0  0  0  0  0  0  0
   -1.0870    0.7750    5.1233 C   0  0  0  0  0  0  0  0  0  0  0  0
   -1.1539   -0.5634    4.7234 C   0  0  0  0  0  0  0  0  0  0  0  0
   -0.4622   -0.9450    3.5620 C   0  0  0  0  0  0  0  0  0  0  0  0
   -0.3557   -2.4923    2.8203 S   0  0  0  0  0  0  0  0  0  0  0  0
    0.2163   -0.0346   -1.5004 C   0  0  0  0  0  0  0  0  0  0  0  0
    1.4626    0.7097   -1.3031 C   0  0  0  0  0  0  0  0  0  0  0  0
    1.4185    2.0237   -0.8065 C   0  0  0  0  0  0  0  0  0  0  0  0
    2.5953    2.7474   -0.6027 C   0  0  0  0  0  0  0  0  0  0  0  0
    3.8178    2.1606   -0.9032 C   0  0  0  0  0  0  0  0  0  0  0  0
    4.9475    2.8543   -0.7130 F   0  0  0  0  0  0  0  0  0  0  0  0
    3.8859    0.8670   -1.4071 C   0  0  0  0  0  0  0  0  0  0  0  0
    2.7089    0.1414   -1.6103 C   0  0  0  0  0  0  0  0  0  0  0  0
   -0.8832    0.5890   -1.9632 N   0  0  0  0  0  0  0  0  0  0  0  0
   -2.5664    1.3575   -4.0362 H   0  0  0  0  0  0  0  0  0  0  0  0
   -2.7023   -0.3160   -4.5660 H   0  0  0  0  0  0  0  0  0  0  0  0
   -3.5276    0.7599   -1.8000 H   0  0  0  0  0  0  0  0  0  0  0  0
   -3.7937   -0.9032   -2.3381 H   0  0  0  0  0  0  0  0  0  0  0  0
   -2.0209   -2.4672   -1.6473 H   0  0  0  0  0  0  0  0  0  0  0  0
    1.1238   -3.1567   -1.5309 H   0  0  0  0  0  0  0  0  0  0  0  0
    0.9128    2.0285    2.6659 H   0  0  0  0  0  0  0  0  0  0  0  0
   -0.3056    2.7394    4.7187 H   0  0  0  0  0  0  0  0  0  0  0  0
   -1.6161    1.0937    6.0195 H   0  0  0  0  0  0  0  0  0  0  0  0
   -1.7273   -1.2857    5.2964 H   0  0  0  0  0  0  0  0  0  0  0  0
    0.4603    2.4816   -0.5677 H   0  0  0  0  0  0  0  0  0  0  0  0
    2.5624    3.7603   -0.2161 H   0  0  0  0  0  0  0  0  0  0  0  0
    4.8523    0.4342   -1.6431 H   0  0  0  0  0  0  0  0  0  0  0  0
    2.7794   -0.8607   -2.0233 H   0  0  0  0  0  0  0  0  0  0  0  0
  1  2  3  0
  2  3  1  0
  3  4  1  0
  4  5  1  0
  5  6  1  0
  6  7  2  0
  7  8  1  0
  8  9  2  3
  9 10  1  0
 10 11  3  0
  9 12  1  0
 12 13  2  0
 13 14  1  0
 14 15  2  0
 15 16  1  0
 16 17  2  0
 17 18  1  0
 18 19  2  0
 19 20  1  0
  7 21  1  0
 21 22  1  0
 22 23  2  0
 23 24  1  0
 24 25  2  0
 25 26  1  0
 25 27  1  0
 27 28  2  0
 21 29  2  0
 29  5  1  0
 20 12  1  0
 28 22  1  0
 19 14  1  0
  3 30  1  0
  3 31  1  0
  4 32  1  0
  4 33  1  0
  6 34  1  0
  8 35  1  0
 15 36  1  0
 16 37  1  0
 17 38  1  0
 18 39  1  0
 23 40  1  0
 24 41  1  0
 27 42  1  0
 28 43  1  0
M  END
$$$$
