
     RDKit          3D

 67 71  0  0  0  0  0  0  0  0999 V2000
    7.4365   -0.2059    3.3621 O   0  0  0  0  0  0  0  0  0  0  0  0
    7.9472   -0.1965    2.2553 C   0  0  0  0  0  0  0  0  0  0  0  0
    9.3157    0.3486    1.9273 C   0  0  0  0  0  0  0  0  0  0  0  0
    9.5843   -0.2098    0.5352 C   0  0  0  0  0  0  0  0  0  0  0  0
    8.2025   -0.3510   -0.0735 C   0  0  0  0  0  0  0  0  0  0  0  0
    7.3678   -0.6206    1.0686 N   0  0  0  0  0  0  0  0  0  0  0  0
    6.0021   -1.1056    0.9528 C   0  0  0  0  0  0  0  0  0  0  0  0
    4.9292   -0.0353    1.1528 C   0  0  0  0  0  0  0  0  0  0  0  0
    4.9044    1.0593    0.0904 C   0  0  0  0  0  0  0  0  0  0  0  0
    4.7740    0.5373   -1.2641 N   0  0  0  0  0  0  0  0  0  0  0  0
    3.5919    0.0452   -1.7780 C   0  0  0  0  0  0  0  0  0  0  0  0
    3.5354   -0.2090   -3.2587 C   0  0  0  0  0  0  0  0  0  0  0  0
    2.4145   -0.7098   -3.7907 C   0  0  0  0  0  0  0  0  0  0  0  0
    1.3234   -0.9769   -2.9446 C   0  0  0  0  0  0  0  0  0  0  0  0
    0.1297   -1.4834   -3.1599 N   0  0  0  0  0  0  0  0  0  0  0  0
   -0.5313   -1.5185   -1.9528 N   0  0  0  0  0  0  0  0  0  0  0  0
    0.2723   -1.0206   -1.0298 C   0  0  0  0  0  0  0  0  0  0  0  0
   -0.0071   -0.8509    0.4241 C   0  0  0  0  0  0  0  0  0  0  0  0
   -1.5043   -0.8896    0.7284 C   0  0  0  0  0  0  0  0  0  0  0  0
   -2.2156    0.3798    0.2778 C   0  0  0  0  0  0  0  0  0  0  0  0
   -1.5974    1.4378    0.1407 O   0  0  0  0  0  0  0  0  0  0  0  0
   -3.5915    0.3126    0.1227 N   0  0  0  0  0  0  0  0  0  0  0  0
   -4.3429    1.5312   -0.1826 C   0  0  0  0  0  0  0  0  0  0  0  0
   -5.6796    1.5958    0.5800 C   0  0  0  0  0  0  0  0  0  0  0  0
   -6.4932    0.3733    0.3991 N   0  0  0  0  0  0  0  0  0  0  0  0
   -7.8795    0.4821    0.4490 C   0  0  0  0  0  0  0  0  0  0  0  0
   -8.5039    1.3972    1.3151 C   0  0  0  0  0  0  0  0  0  0  0  0
   -9.8972    1.5156    1.3935 C   0  0  0  0  0  0  0  0  0  0  0  0
  -10.7086    0.7164    0.5997 C   0  0  0  0  0  0  0  0  0  0  0  0
  -10.1242   -0.2045   -0.2613 C   0  0  0  0  0  0  0  0  0  0  0  0
   -8.7293   -0.3212   -0.3283 C   0  0  0  0  0  0  0  0  0  0  0  0
   -5.8425   -0.7608   -0.2730 C   0  0  0  0  0  0  0  0  0  0  0  0
   -4.3781   -0.9233    0.1830 C   0  0  0  0  0  0  0  0  0  0  0  0
    1.4739   -0.6825   -1.6075 N   0  0  0  0  0  0  0  0  0  0  0  0
    2.5822   -0.1873   -0.9839 N   0  0  0  0  0  0  0  0  0  0  0  0
   10.0585    0.0065    2.6512 H   0  0  0  0  0  0  0  0  0  0  0  0
    9.2688    1.4418    1.9183 H   0  0  0  0  0  0  0  0  0  0  0  0
   10.2490    0.4248   -0.0581 H   0  0  0  0  0  0  0  0  0  0  0  0
   10.0526   -1.1985    0.6236 H   0  0  0  0  0  0  0  0  0  0  0  0
    8.1534   -1.1740   -0.7918 H   0  0  0  0  0  0  0  0  0  0  0  0
    7.8722    0.5782   -0.5464 H   0  0  0  0  0  0  0  0  0  0  0  0
    5.8873   -1.6213   -0.0072 H   0  0  0  0  0  0  0  0  0  0  0  0
    5.8727   -1.8593    1.7396 H   0  0  0  0  0  0  0  0  0  0  0  0
    3.9553   -0.5364    1.1910 H   0  0  0  0  0  0  0  0  0  0  0  0
    5.0611    0.4407    2.1320 H   0  0  0  0  0  0  0  0  0  0  0  0
    4.0882    1.7625    0.2961 H   0  0  0  0  0  0  0  0  0  0  0  0
    5.8291    1.6440    0.1498 H   0  0  0  0  0  0  0  0  0  0  0  0
    5.3912    0.9891   -1.9292 H   0  0  0  0  0  0  0  0  0  0  0  0
    4.4080    0.0091   -3.8592 H   0  0  0  0  0  0  0  0  0  0  0  0
    2.3232   -0.9180   -4.8499 H   0  0  0  0  0  0  0  0  0  0  0  0
    0.4357    0.0822    0.7922 H   0  0  0  0  0  0  0  0  0  0  0  0
    0.4830   -1.6713    0.9630 H   0  0  0  0  0  0  0  0  0  0  0  0
   -1.6487   -0.9606    1.8132 H   0  0  0  0  0  0  0  0  0  0  0  0
   -1.9431   -1.7816    0.2762 H   0  0  0  0  0  0  0  0  0  0  0  0
   -3.7508    2.4236    0.0461 H   0  0  0  0  0  0  0  0  0  0  0  0
   -4.5249    1.5289   -1.2645 H   0  0  0  0  0  0  0  0  0  0  0  0
   -5.4757    1.7191    1.6511 H   0  0  0  0  0  0  0  0  0  0  0  0
   -6.2182    2.4858    0.2302 H   0  0  0  0  0  0  0  0  0  0  0  0
   -7.9056    2.0229    1.9724 H   0  0  0  0  0  0  0  0  0  0  0  0
  -10.3408    2.2294    2.0816 H   0  0  0  0  0  0  0  0  0  0  0  0
  -11.7901    0.8048    0.6554 H   0  0  0  0  0  0  0  0  0  0  0  0
  -10.7481   -0.8358   -0.8875 H   0  0  0  0  0  0  0  0  0  0  0  0
   -8.3249   -1.0446   -1.0296 H   0  0  0  0  0  0  0  0  0  0  0  0
   -5.8745   -0.6074   -1.3595 H   0  0  0  0  0  0  0  0  0  0  0  0
   -6.3600   -1.7008   -0.0458 H   0  0  0  0  0  0  0  0  0  0  0  0
   -4.3446   -1.2724    1.2213 H   0  0  0  0  0  0  0  0  0  0  0  0
   -3.9001   -1.6809   -0.4456 H   0  0  0  0  0  0  0  0  0  0  0  0
  1  2  2  0
  2  3  1  0
  3  4  1  0
  4  5  1  0
  5  6  1  0
  6  7  1  0
  7  8  1  0
  8  9  1  0
  9 10  1  0
 10 11  1  0
 11 12  1  0
 12 13  2  0
 13 14  1  0
 14 15  2  0
 15 16  1  0
 16 17  2  0
 17 18  1  0
 18 19  1  0
 19 20  1  0
 20 21  2  0
 20 22  1  0
 22 23  1  0
 23 24  1  0
 24 25  1  0
 25 26  1  0
 26 27  2  0
 27 28  1  0
 28 29  2  0
 29 30  1  0
 30 31  2  0
 25 32  1  0
 32 33  1  0
 17 34  1  0
 34 35  1  0
  6  2  1  0
 35 11  2  0
 34 14  1  0
 33 22  1  0
 31 26  1  0
  3 36  1  0
  3 37  1  0
  4 38  1  0
  4 39  1  0
  5 40  1  0
  5 41  1  0
  7 42  1  0
  7 43  1  0
  8 44  1  0
  8 45  1  0
  9 46  1  0
  9 47  1  0
 10 48  1  0
 12 49  1  0
 13 50  1  0
 18 51  1  0
 18 52  1  0
 19 53  1  0
 19 54  1  0
 23 55  1  0
 23 56  1  0
 24 57  1  0
 24 58  1  0
 27 59  1  0
 28 60  1  0
 29 61  1  0
 30 62  1  0
 31 63  1  0
 32 64  1  0
 32 65  1  0
 33 66  1  0
 33 67  1  0
M  END
$$$$
