
     RDKit          3D

 65 69  0  0  0  0  0  0  0  0999 V2000
    4.4415    2.0674    0.2973 C   0  0  0  0  0  0  0  0  0  0  0  0
    3.5195    1.8530    1.3687 O   0  0  0  0  0  0  0  0  0  0  0  0
    2.4474    1.1236    0.9233 C   0  0  0  0  0  0  0  0  0  0  0  0
    1.4480    1.7627    0.1915 C   0  0  0  0  0  0  0  0  0  0  0  0
    0.3422    1.0434   -0.2628 C   0  0  0  0  0  0  0  0  0  0  0  0
    0.2095   -0.3200    0.0208 C   0  0  0  0  0  0  0  0  0  0  0  0
   -0.9763   -1.1627   -0.4471 C   0  0  0  0  0  0  0  0  0  0  0  0
   -1.3674   -0.9300   -1.9183 C   0  0  0  0  0  0  0  0  0  0  0  0
   -2.0297   -2.1341   -2.4603 C   0  0  0  0  0  0  0  0  0  0  0  0
   -2.5570   -3.0918   -2.8513 N   0  0  0  0  0  0  0  0  0  0  0  0
   -2.3284    0.2507   -2.1268 C   0  0  0  0  0  0  0  0  0  0  0  0
   -2.4015    0.7785   -3.3175 N   0  0  0  0  0  0  0  0  0  0  0  0
   -3.1042    0.7174   -1.0459 N   0  0  0  0  0  0  0  0  0  0  0  0
   -4.1500    1.6571   -1.3596 C   0  0  0  0  0  0  0  0  0  0  0  0
   -5.4873    1.2075   -1.3401 C   0  0  0  0  0  0  0  0  0  0  0  0
   -6.5375    2.0675   -1.6608 C   0  0  0  0  0  0  0  0  0  0  0  0
   -6.2718    3.3899   -2.0072 C   0  0  0  0  0  0  0  0  0  0  0  0
   -4.9562    3.8553   -2.0260 C   0  0  0  0  0  0  0  0  0  0  0  0
   -3.8918    2.9993   -1.7040 C   0  0  0  0  0  0  0  0  0  0  0  0
   -2.5615    3.5350   -1.6964 C   0  0  0  0  0  0  0  0  0  0  0  0
   -1.4960    3.9955   -1.6529 N   0  0  0  0  0  0  0  0  0  0  0  0
   -2.9657    0.2585    0.2826 C   0  0  0  0  0  0  0  0  0  0  0  0
   -3.4527    0.8935    1.3725 C   0  0  0  0  0  0  0  0  0  0  0  0
   -3.2458    0.4306    2.7823 C   0  0  0  0  0  0  0  0  0  0  0  0
   -1.9445   -0.3334    2.9412 C   0  0  0  0  0  0  0  0  0  0  0  0
   -1.8768   -1.4207    1.9020 C   0  0  0  0  0  0  0  0  0  0  0  0
   -1.4953   -2.5569    2.1909 O   0  0  0  0  0  0  0  0  0  0  0  0
   -2.2202   -1.0542    0.4563 C   0  0  0  0  0  0  0  0  0  0  0  0
    1.2136   -0.9380    0.7939 C   0  0  0  0  0  0  0  0  0  0  0  0
    2.3356   -0.2290    1.2576 C   0  0  0  0  0  0  0  0  0  0  0  0
    3.3949   -0.9320    2.0793 C   0  0  0  0  0  0  0  0  0  0  0  0
    4.4772   -1.4915    1.2609 N   0  0  0  0  0  0  0  0  0  0  0  0
    4.1102   -2.7232    0.5604 C   0  0  0  0  0  0  0  0  0  0  0  0
    5.4581   -3.2824    0.1301 C   0  0  0  0  0  0  0  0  0  0  0  0
    6.4528   -2.7520    1.1565 C   0  0  0  0  0  0  0  0  0  0  0  0
    5.6357   -1.8591    2.0788 C   0  0  0  0  0  0  0  0  0  0  0  0
    5.3902    2.4022    0.7307 H   0  0  0  0  0  0  0  0  0  0  0  0
    4.6348    1.1487   -0.2698 H   0  0  0  0  0  0  0  0  0  0  0  0
    4.0759    2.8546   -0.3710 H   0  0  0  0  0  0  0  0  0  0  0  0
    1.5247    2.8243   -0.0290 H   0  0  0  0  0  0  0  0  0  0  0  0
   -0.3998    1.5885   -0.8355 H   0  0  0  0  0  0  0  0  0  0  0  0
   -0.6263   -2.2053   -0.3840 H   0  0  0  0  0  0  0  0  0  0  0  0
   -0.4648   -0.7448   -2.5170 H   0  0  0  0  0  0  0  0  0  0  0  0
   -1.7772    0.3226   -3.9919 H   0  0  0  0  0  0  0  0  0  0  0  0
   -5.7081    0.1703   -1.0929 H   0  0  0  0  0  0  0  0  0  0  0  0
   -7.5626    1.7006   -1.6578 H   0  0  0  0  0  0  0  0  0  0  0  0
   -7.0896    4.0564   -2.2700 H   0  0  0  0  0  0  0  0  0  0  0  0
   -4.7655    4.8905   -2.3015 H   0  0  0  0  0  0  0  0  0  0  0  0
   -4.0116    1.8217    1.2749 H   0  0  0  0  0  0  0  0  0  0  0  0
   -3.2295    1.3016    3.4492 H   0  0  0  0  0  0  0  0  0  0  0  0
   -4.0995   -0.1888    3.0817 H   0  0  0  0  0  0  0  0  0  0  0  0
   -1.0788    0.3264    2.8137 H   0  0  0  0  0  0  0  0  0  0  0  0
   -1.8884   -0.7803    3.9383 H   0  0  0  0  0  0  0  0  0  0  0  0
   -2.9374   -1.8323    0.1504 H   0  0  0  0  0  0  0  0  0  0  0  0
    1.1272   -1.9949    1.0471 H   0  0  0  0  0  0  0  0  0  0  0  0
    2.9276   -1.7021    2.7090 H   0  0  0  0  0  0  0  0  0  0  0  0
    3.8139   -0.2037    2.7862 H   0  0  0  0  0  0  0  0  0  0  0  0
    3.6131   -3.4365    1.2307 H   0  0  0  0  0  0  0  0  0  0  0  0
    3.4636   -2.5467   -0.3039 H   0  0  0  0  0  0  0  0  0  0  0  0
    5.4522   -4.3768    0.0962 H   0  0  0  0  0  0  0  0  0  0  0  0
    5.7282   -2.9166   -0.8684 H   0  0  0  0  0  0  0  0  0  0  0  0
    7.2421   -2.1830    0.6525 H   0  0  0  0  0  0  0  0  0  0  0  0
    6.9295   -3.5663    1.7141 H   0  0  0  0  0  0  0  0  0  0  0  0
    5.3391   -2.4237    2.9716 H   0  0  0  0  0  0  0  0  0  0  0  0
    6.2083   -0.9821    2.3972 H   0  0  0  0  0  0  0  0  0  0  0  0
  1  2  1  0
  2  3  1  0
  3  4  2  0
  4  5  1  0
  5  6  2  0
  6  7  1  0
  7  8  1  0
  8  9  1  0
  9 10  3  0
  8 11  1  0
 11 12  2  3
 11 13  1  0
 13 14  1  0
 14 15  2  0
 15 16  1  0
 16 17  2  0
 17 18  1  0
 18 19  2  0
 19 20  1  0
 20 21  3  0
 13 22  1  0
 22 23  2  0
 23 24  1  0
 24 25  1  0
 25 26  1  0
 26 27  2  0
 26 28  1  0
  6 29  1  0
 29 30  2  0
 30 31  1  0
 31 32  1  0
 32 33  1  0
 33 34  1  0
 34 35  1  0
 35 36  1  0
 30  3  1  0
 36 32  1  0
 28  7  1  0
 19 14  1  0
 28 22  1  0
  1 37  1  0
  1 38  1  0
  1 39  1  0
  4 40  1  0
  5 41  1  0
  7 42  1  0
  8 43  1  0
 12 44  1  0
 15 45  1  0
 16 46  1  0
 17 47  1  0
 18 48  1  0
 23 49  1  0
 24 50  1  0
 24 51  1  0
 25 52  1  0
 25 53  1  0
 28 54  1  0
 29 55  1  0
 31 56  1  0
 31 57  1  0
 33 58  1  0
 33 59  1  0
 34 60  1  0
 34 61  1  0
 35 62  1  0
 35 63  1  0
 36 64  1  0
 36 65  1  0
M  END
$$$$
