
     RDKit          3D

 69 71  0  0  0  0  0  0  0  0999 V2000
   10.0597    1.7167   -0.1429 C   0  0  0  0  0  0  0  0  0  0  0  0
    8.7872    2.5129    0.0959 C   0  0  0  0  0  0  0  0  0  0  0  0
    7.6281    1.9885   -0.7528 C   0  0  0  0  0  0  0  0  0  0  0  0
    6.3590    2.8107   -0.5150 C   0  0  0  0  0  0  0  0  0  0  0  0
    5.1720    2.3685   -1.3764 C   0  0  0  0  0  0  0  0  0  0  0  0
    4.6592    0.9679   -1.0281 C   0  0  0  0  0  0  0  0  0  0  0  0
    3.3724    0.6493   -1.7942 C   0  0  0  0  0  0  0  0  0  0  0  0
    2.9182   -0.8069   -1.6485 C   0  0  0  0  0  0  0  0  0  0  0  0
    2.6771   -1.2905   -0.2139 C   0  0  0  0  0  0  0  0  0  0  0  0
    1.6613   -0.4714    0.5760 C   0  0  0  0  0  0  0  0  0  0  0  0
    0.4204   -0.4051   -0.1501 O   0  0  0  0  0  0  0  0  0  0  0  0
   -0.6697   -0.9717    0.4284 C   0  0  0  0  0  0  0  0  0  0  0  0
   -0.7042   -1.5249    1.5195 O   0  0  0  0  0  0  0  0  0  0  0  0
   -1.8860   -0.7857   -0.4690 C   0  0  0  0  0  0  0  0  0  0  0  0
   -3.0827   -1.4854    0.0618 N   0  0  0  0  0  0  0  0  0  0  0  0
   -3.6768   -1.2162    1.2545 C   0  0  0  0  0  0  0  0  0  0  0  0
   -3.3535   -0.0754    2.2108 C   0  0  0  0  0  0  0  0  0  0  0  0
   -4.5113    0.5471    2.7656 O   0  0  0  0  0  0  0  0  0  0  0  0
   -5.3064    1.2981    1.9465 C   0  0  0  0  0  0  0  0  0  0  0  0
   -6.4981    1.7341    2.5366 C   0  0  0  0  0  0  0  0  0  0  0  0
   -7.4230    2.4875    1.8067 C   0  0  0  0  0  0  0  0  0  0  0  0
   -7.1549    2.8071    0.4786 C   0  0  0  0  0  0  0  0  0  0  0  0
   -8.2894    3.7190   -0.4364 Cl  0  0  0  0  0  0  0  0  0  0  0  0
   -5.9642    2.3942   -0.1132 C   0  0  0  0  0  0  0  0  0  0  0  0
   -5.0364    1.6462    0.6220 C   0  0  0  0  0  0  0  0  0  0  0  0
   -4.6306   -2.1582    1.4440 N   0  0  0  0  0  4  0  0  0  0  0  0
   -5.4535   -2.2717    2.6481 C   0  0  0  0  0  0  0  0  0  0  0  0
   -4.7199   -2.9843    0.3326 C   0  0  0  0  0  0  0  0  0  0  0  0
   -5.5715   -4.0479    0.0435 C   0  0  0  0  0  0  0  0  0  0  0  0
   -5.3626   -4.6923   -1.1836 C   0  0  0  0  0  0  0  0  0  0  0  0
   -4.3501   -4.2807   -2.0699 C   0  0  0  0  0  0  0  0  0  0  0  0
   -3.5005   -3.2060   -1.7714 C   0  0  0  0  0  0  0  0  0  0  0  0
   -3.7183   -2.5673   -0.5494 C   0  0  0  0  0  0  0  0  0  0  0  0
   10.3786    1.7909   -1.1861 H   0  0  0  0  0  0  0  0  0  0  0  0
   10.8683    2.0995    0.4865 H   0  0  0  0  0  0  0  0  0  0  0  0
    9.9129    0.6586    0.0973 H   0  0  0  0  0  0  0  0  0  0  0  0
    8.9726    3.5692   -0.1321 H   0  0  0  0  0  0  0  0  0  0  0  0
    8.5230    2.4490    1.1595 H   0  0  0  0  0  0  0  0  0  0  0  0
    7.9006    2.0288   -1.8154 H   0  0  0  0  0  0  0  0  0  0  0  0
    7.4495    0.9394   -0.4995 H   0  0  0  0  0  0  0  0  0  0  0  0
    6.5708    3.8613   -0.7420 H   0  0  0  0  0  0  0  0  0  0  0  0
    6.0772    2.7694    0.5458 H   0  0  0  0  0  0  0  0  0  0  0  0
    5.4546    2.4050   -2.4362 H   0  0  0  0  0  0  0  0  0  0  0  0
    4.3609    3.0936   -1.2373 H   0  0  0  0  0  0  0  0  0  0  0  0
    5.4207    0.2189   -1.2694 H   0  0  0  0  0  0  0  0  0  0  0  0
    4.4712    0.9122    0.0496 H   0  0  0  0  0  0  0  0  0  0  0  0
    3.5294    0.8512   -2.8609 H   0  0  0  0  0  0  0  0  0  0  0  0
    2.5717    1.3231   -1.4646 H   0  0  0  0  0  0  0  0  0  0  0  0
    2.0002   -0.9447   -2.2336 H   0  0  0  0  0  0  0  0  0  0  0  0
    3.6703   -1.4630   -2.1064 H   0  0  0  0  0  0  0  0  0  0  0  0
    3.6244   -1.3214    0.3364 H   0  0  0  0  0  0  0  0  0  0  0  0
    2.3137   -2.3245   -0.2756 H   0  0  0  0  0  0  0  0  0  0  0  0
    1.5397   -0.9134    1.5712 H   0  0  0  0  0  0  0  0  0  0  0  0
    2.0111    0.5568    0.7214 H   0  0  0  0  0  0  0  0  0  0  0  0
   -2.1217    0.2791   -0.5450 H   0  0  0  0  0  0  0  0  0  0  0  0
   -1.6446   -1.1691   -1.4626 H   0  0  0  0  0  0  0  0  0  0  0  0
   -2.7996   -0.5504    3.0259 H   0  0  0  0  0  0  0  0  0  0  0  0
   -2.6984    0.6454    1.7148 H   0  0  0  0  0  0  0  0  0  0  0  0
   -6.7141    1.4959    3.5777 H   0  0  0  0  0  0  0  0  0  0  0  0
   -8.3445    2.8236    2.2781 H   0  0  0  0  0  0  0  0  0  0  0  0
   -5.7512    2.6599   -1.1481 H   0  0  0  0  0  0  0  0  0  0  0  0
   -4.1187    1.3762    0.1191 H   0  0  0  0  0  0  0  0  0  0  0  0
   -6.3182   -1.6109    2.5497 H   0  0  0  0  0  0  0  0  0  0  0  0
   -5.7982   -3.3021    2.7800 H   0  0  0  0  0  0  0  0  0  0  0  0
   -4.8645   -2.0019    3.5285 H   0  0  0  0  0  0  0  0  0  0  0  0
   -6.3506   -4.3632    0.7274 H   0  0  0  0  0  0  0  0  0  0  0  0
   -5.9988   -5.5354   -1.4591 H   0  0  0  0  0  0  0  0  0  0  0  0
   -4.2247   -4.8155   -3.0139 H   0  0  0  0  0  0  0  0  0  0  0  0
   -2.7244   -2.8978   -2.4613 H   0  0  0  0  0  0  0  0  0  0  0  0
  1  2  1  0
  2  3  1  0
  3  4  1  0
  4  5  1  0
  5  6  1  0
  6  7  1  0
  7  8  1  0
  8  9  1  0
  9 10  1  0
 10 11  1  0
 11 12  1  0
 12 13  2  0
 12 14  1  0
 14 15  1  0
 15 16  1  0
 16 17  1  0
 17 18  1  0
 18 19  1  0
 19 20  2  0
 20 21  1  0
 21 22  2  0
 22 23  1  0
 22 24  1  0
 24 25  2  0
 16 26  2  0
 26 27  1  0
 26 28  1  0
 28 29  2  0
 29 30  1  0
 30 31  2  0
 31 32  1  0
 32 33  2  0
 33 15  1  0
 25 19  1  0
 33 28  1  0
  1 34  1  0
  1 35  1  0
  1 36  1  0
  2 37  1  0
  2 38  1  0
  3 39  1  0
  3 40  1  0
  4 41  1  0
  4 42  1  0
  5 43  1  0
  5 44  1  0
  6 45  1  0
  6 46  1  0
  7 47  1  0
  7 48  1  0
  8 49  1  0
  8 50  1  0
  9 51  1  0
  9 52  1  0
 10 53  1  0
 10 54  1  0
 14 55  1  0
 14 56  1  0
 17 57  1  0
 17 58  1  0
 20 59  1  0
 21 60  1  0
 24 61  1  0
 25 62  1  0
 27 63  1  0
 27 64  1  0
 27 65  1  0
 29 66  1  0
 30 67  1  0
 31 68  1  0
 32 69  1  0
M  CHG  1  26   1
M  END
$$$$
