
     RDKit          3D

 47 50  0  0  0  0  0  0  0  0999 V2000
   -0.8217    0.2895   -2.1302 O   0  0  0  0  0  0  0  0  0  0  0  0
   -0.1699    1.0724   -1.4355 C   0  0  0  0  0  0  0  0  0  0  0  0
   -0.6357    2.5040   -1.1689 C   0  0  0  0  0  0  0  0  0  0  0  0
   -2.3598    2.7846   -1.6705 S   0  0  0  0  0  0  0  0  0  0  0  0
   -3.1664    1.7461   -0.5350 C   0  0  0  0  0  0  0  0  0  0  0  0
   -2.6739    1.3877    0.6341 N   0  0  0  0  0  0  0  0  0  0  0  0
   -3.6227    0.5850    1.2321 N   0  0  0  0  0  0  0  0  0  0  0  0
   -4.6331    0.5114    0.3879 C   0  0  0  0  0  0  0  0  0  0  0  0
   -5.9001   -0.1996    0.5026 C   0  0  0  0  0  0  0  0  0  0  0  0
   -6.8610   -0.1730   -0.5201 C   0  0  0  0  0  0  0  0  0  0  0  0
   -8.0686   -0.8637   -0.3837 C   0  0  0  0  0  0  0  0  0  0  0  0
   -8.3307   -1.5896    0.7761 C   0  0  0  0  0  0  0  0  0  0  0  0
   -7.3874   -1.6271    1.8002 C   0  0  0  0  0  0  0  0  0  0  0  0
   -6.1802   -0.9367    1.6638 C   0  0  0  0  0  0  0  0  0  0  0  0
   -4.4183    1.2389   -0.7529 O   0  0  0  0  0  0  0  0  0  0  0  0
    1.0652    0.7018   -0.8980 N   0  0  0  0  0  0  0  0  0  0  0  0
    1.7695    1.4735    0.1363 C   0  0  0  0  0  0  0  0  0  0  0  0
    3.2838    1.1876    0.1906 C   0  0  0  0  0  0  0  0  0  0  0  0
    3.5441   -0.2690    0.2359 N   0  0  0  0  0  0  0  0  0  0  0  0
    4.8777   -0.5804    0.5543 C   0  0  0  0  0  0  0  0  0  0  0  0
    5.3790   -0.2324    1.8209 C   0  0  0  0  0  0  0  0  0  0  0  0
    6.6948   -0.5202    2.1967 C   0  0  0  0  0  0  0  0  0  0  0  0
    7.5427   -1.1723    1.3092 C   0  0  0  0  0  0  0  0  0  0  0  0
    7.0698   -1.5394    0.0537 C   0  0  0  0  0  0  0  0  0  0  0  0
    5.7504   -1.2499   -0.3157 C   0  0  0  0  0  0  0  0  0  0  0  0
    2.9255   -0.9820   -0.9018 C   0  0  0  0  0  0  0  0  0  0  0  0
    1.4097   -0.7265   -0.9360 C   0  0  0  0  0  0  0  0  0  0  0  0
   -0.5437    2.7515   -0.1082 H   0  0  0  0  0  0  0  0  0  0  0  0
    0.0008    3.1814   -1.7467 H   0  0  0  0  0  0  0  0  0  0  0  0
   -6.6793    0.3847   -1.4369 H   0  0  0  0  0  0  0  0  0  0  0  0
   -8.8032   -0.8350   -1.1848 H   0  0  0  0  0  0  0  0  0  0  0  0
   -9.2697   -2.1273    0.8813 H   0  0  0  0  0  0  0  0  0  0  0  0
   -7.5887   -2.1940    2.7058 H   0  0  0  0  0  0  0  0  0  0  0  0
   -5.4537   -0.9783    2.4742 H   0  0  0  0  0  0  0  0  0  0  0  0
    1.3033    1.2155    1.0950 H   0  0  0  0  0  0  0  0  0  0  0  0
    1.6263    2.5451   -0.0269 H   0  0  0  0  0  0  0  0  0  0  0  0
    3.7646    1.6132   -0.7004 H   0  0  0  0  0  0  0  0  0  0  0  0
    3.6909    1.7073    1.0655 H   0  0  0  0  0  0  0  0  0  0  0  0
    4.7264    0.2489    2.5452 H   0  0  0  0  0  0  0  0  0  0  0  0
    7.0484   -0.2423    3.1857 H   0  0  0  0  0  0  0  0  0  0  0  0
    8.5651   -1.4006    1.5969 H   0  0  0  0  0  0  0  0  0  0  0  0
    7.7252   -2.0540   -0.6441 H   0  0  0  0  0  0  0  0  0  0  0  0
    5.4320   -1.5498   -1.3090 H   0  0  0  0  0  0  0  0  0  0  0  0
    3.3654   -0.6367   -1.8464 H   0  0  0  0  0  0  0  0  0  0  0  0
    3.0885   -2.0630   -0.8146 H   0  0  0  0  0  0  0  0  0  0  0  0
    0.9313   -1.1893   -0.0636 H   0  0  0  0  0  0  0  0  0  0  0  0
    0.9875   -1.1982   -1.8298 H   0  0  0  0  0  0  0  0  0  0  0  0
  1  2  2  0
  2  3  1  0
  3  4  1  0
  4  5  1  0
  5  6  2  0
  6  7  1  0
  7  8  2  0
  8  9  1  0
  9 10  2  0
 10 11  1  0
 11 12  2  0
 12 13  1  0
 13 14  2  0
  8 15  1  0
  2 16  1  0
 16 17  1  0
 17 18  1  0
 18 19  1  0
 19 20  1  0
 20 21  2  0
 21 22  1  0
 22 23  2  0
 23 24  1  0
 24 25  2  0
 19 26  1  0
 26 27  1  0
 15  5  1  0
 27 16  1  0
 14  9  1  0
 25 20  1  0
  3 28  1  0
  3 29  1  0
 10 30  1  0
 11 31  1  0
 12 32  1  0
 13 33  1  0
 14 34  1  0
 17 35  1  0
 17 36  1  0
 18 37  1  0
 18 38  1  0
 21 39  1  0
 22 40  1  0
 23 41  1  0
 24 42  1  0
 25 43  1  0
 26 44  1  0
 26 45  1  0
 27 46  1  0
 27 47  1  0
M  END
$$$$
