
     RDKit          3D

 55 57  0  0  0  0  0  0  0  0999 V2000
   -3.3517   -0.8024    1.5459 C   0  0  0  0  0  0  0  0  0  0  0  0
   -2.3778    0.3711    1.6893 C   0  0  0  0  0  0  0  0  0  0  0  0
   -2.1591    0.6864    3.1721 C   0  0  0  0  0  0  0  0  0  0  0  0
   -1.0353    0.1650    0.9501 C   0  0  0  0  0  0  0  0  0  0  0  0
   -1.2945    0.1812   -0.5137 N   0  0  0  0  0  0  0  0  0  0  0  0
   -0.0901    0.8190   -1.5002 S   0  0  0  0  0  6  0  0  0  0  0  0
    1.1707    0.7051   -0.8062 O   0  0  0  0  0  0  0  0  0  0  0  0
   -0.3071    0.2705   -2.8183 O   0  0  0  0  0  0  0  0  0  0  0  0
   -0.5616    2.5281   -1.5503 C   0  0  0  0  0  0  0  0  0  0  0  0
    0.2195    3.4908   -0.9018 C   0  0  0  0  0  0  0  0  0  0  0  0
   -0.1707    4.8303   -0.9413 C   0  0  0  0  0  0  0  0  0  0  0  0
   -1.3293    5.1974   -1.6266 C   0  0  0  0  0  0  0  0  0  0  0  0
   -2.0847    4.2313   -2.3034 C   0  0  0  0  0  0  0  0  0  0  0  0
   -1.7113    2.8914   -2.2573 C   0  0  0  0  0  0  0  0  0  0  0  0
   -3.2115    4.5312   -3.0266 O   0  0  0  0  0  0  0  0  0  0  0  0
   -3.2877    5.9334   -3.3081 C   0  0  0  0  0  0  0  0  0  0  0  0
   -3.0022    6.7447   -2.0548 C   0  0  0  0  0  0  0  0  0  0  0  0
   -1.6609    6.5281   -1.6028 O   0  0  0  0  0  0  0  0  0  0  0  0
   -0.3171   -1.1183    1.3739 C   0  0  0  0  0  0  0  0  0  0  0  0
    0.3851   -1.2229    2.3724 O   0  0  0  0  0  0  0  0  0  0  0  0
   -0.6449   -2.1606    0.5504 O   0  0  0  0  0  0  0  0  0  0  0  0
   -0.0153   -3.3929    0.8982 C   0  0  0  0  0  0  0  0  0  0  0  0
    1.4475   -3.4684    0.4462 C   0  0  0  0  0  0  0  0  0  0  0  0
    1.8471   -2.8228   -0.5176 O   0  0  0  0  0  0  0  0  0  0  0  0
    2.1978   -4.3439    1.2130 N   0  0  0  0  0  0  0  0  0  0  0  0
    3.5755   -4.6564    1.0884 C   0  0  0  0  0  0  0  0  0  0  0  0
    4.4055   -4.0651    0.1296 C   0  0  0  0  0  0  0  0  0  0  0  0
    5.7596   -4.4038    0.0509 C   0  0  0  0  0  0  0  0  0  0  0  0
    6.3017   -5.3393    0.9293 C   0  0  0  0  0  0  0  0  0  0  0  0
    5.4905   -5.9422    1.8930 C   0  0  0  0  0  0  0  0  0  0  0  0
    6.2303   -7.0978    2.9465 Cl  0  0  0  0  0  0  0  0  0  0  0  0
    4.1310   -5.6046    1.9777 C   0  0  0  0  0  0  0  0  0  0  0  0
    3.1019   -6.3486    3.1700 Cl  0  0  0  0  0  0  0  0  0  0  0  0
   -2.9734   -1.7055    2.0360 H   0  0  0  0  0  0  0  0  0  0  0  0
   -3.5441   -1.0361    0.4941 H   0  0  0  0  0  0  0  0  0  0  0  0
   -4.3148   -0.5578    2.0073 H   0  0  0  0  0  0  0  0  0  0  0  0
   -2.8666    1.2500    1.2456 H   0  0  0  0  0  0  0  0  0  0  0  0
   -3.1084    0.9419    3.6541 H   0  0  0  0  0  0  0  0  0  0  0  0
   -1.4846    1.5398    3.2940 H   0  0  0  0  0  0  0  0  0  0  0  0
   -1.7328   -0.1660    3.7102 H   0  0  0  0  0  0  0  0  0  0  0  0
   -0.3785    1.0075    1.1991 H   0  0  0  0  0  0  0  0  0  0  0  0
   -1.6527   -0.6907   -0.9086 H   0  0  0  0  0  0  0  0  0  0  0  0
    1.1239    3.2096   -0.3668 H   0  0  0  0  0  0  0  0  0  0  0  0
    0.4225    5.5869   -0.4339 H   0  0  0  0  0  0  0  0  0  0  0  0
   -2.3049    2.1432   -2.7767 H   0  0  0  0  0  0  0  0  0  0  0  0
   -2.5769    6.1687   -4.1107 H   0  0  0  0  0  0  0  0  0  0  0  0
   -4.2981    6.1428   -3.6741 H   0  0  0  0  0  0  0  0  0  0  0  0
   -3.1123    7.8135   -2.2625 H   0  0  0  0  0  0  0  0  0  0  0  0
   -3.6903    6.4811   -1.2421 H   0  0  0  0  0  0  0  0  0  0  0  0
   -0.1112   -3.5861    1.9739 H   0  0  0  0  0  0  0  0  0  0  0  0
   -0.5565   -4.1917    0.3794 H   0  0  0  0  0  0  0  0  0  0  0  0
    1.7289   -4.8195    1.9788 H   0  0  0  0  0  0  0  0  0  0  0  0
    4.0332   -3.3248   -0.5743 H   0  0  0  0  0  0  0  0  0  0  0  0
    6.3898   -3.9294   -0.6990 H   0  0  0  0  0  0  0  0  0  0  0  0
    7.3572   -5.5925    0.8572 H   0  0  0  0  0  0  0  0  0  0  0  0
  1  2  1  0
  2  3  1  0
  2  4  1  0
  4  5  1  0
  5  6  1  0
  6  7  2  0
  6  8  2  0
  6  9  1  0
  9 10  2  0
 10 11  1  0
 11 12  2  0
 12 13  1  0
 13 14  2  0
 13 15  1  0
 15 16  1  0
 16 17  1  0
 17 18  1  0
  4 19  1  0
 19 20  2  0
 19 21  1  0
 21 22  1  0
 22 23  1  0
 23 24  2  0
 23 25  1  0
 25 26  1  0
 26 27  2  0
 27 28  1  0
 28 29  2  0
 29 30  1  0
 30 31  1  0
 30 32  2  0
 32 33  1  0
 14  9  1  0
 32 26  1  0
 18 12  1  0
  1 34  1  0
  1 35  1  0
  1 36  1  0
  2 37  1  0
  3 38  1  0
  3 39  1  0
  3 40  1  0
  4 41  1  0
  5 42  1  0
 10 43  1  0
 11 44  1  0
 14 45  1  0
 16 46  1  0
 16 47  1  0
 17 48  1  0
 17 49  1  0
 22 50  1  0
 22 51  1  0
 25 52  1  0
 27 53  1  0
 28 54  1  0
 29 55  1  0
M  END
$$$$
