
     RDKit          3D

 41 43  0  0  0  0  0  0  0  0999 V2000
    4.3733    0.2766    0.3082 Cl  0  0  0  0  0  0  0  0  0  0  0  0
    3.8926   -0.0936   -1.3074 C   0  0  0  0  0  0  0  0  0  0  0  0
    3.7536    0.9807   -2.1932 C   0  0  0  0  0  0  0  0  0  0  0  0
    3.3684    0.7610   -3.5146 C   0  0  0  0  0  0  0  0  0  0  0  0
    3.1235   -0.5346   -3.9568 C   0  0  0  0  0  0  0  0  0  0  0  0
    3.2599   -1.6090   -3.0764 C   0  0  0  0  0  0  0  0  0  0  0  0
    3.6424   -1.4077   -1.7346 C   0  0  0  0  0  0  0  0  0  0  0  0
    3.7398   -2.6098   -0.8228 C   0  0  0  0  0  0  0  0  0  0  0  0
    2.0966   -3.2516   -0.3680 S   0  0  0  0  0  0  0  0  0  0  0  0
    1.7228   -2.1977    0.9482 C   0  0  0  0  0  0  0  0  0  0  0  0
    2.1827   -2.2926    2.1745 N   0  0  0  0  0  0  0  0  0  0  0  0
    1.6594   -1.2367    2.8941 N   0  0  0  0  0  0  0  0  0  0  0  0
    0.9021   -0.5342    2.0784 C   0  0  0  0  0  0  0  0  0  0  0  0
    0.8900   -1.1111    0.8415 N   0  0  0  0  0  0  0  0  0  0  0  0
    0.2171   -0.6076   -0.3340 N   0  0  0  0  0  0  0  0  0  0  0  0
   -1.1136   -1.2031   -0.4595 C   0  0  0  0  0  0  0  0  0  0  0  0
   -2.2149   -0.4495    0.2321 C   0  0  0  0  0  0  0  0  0  0  0  0
   -2.1664    0.8191    0.6738 C   0  0  0  0  0  0  0  0  0  0  0  0
   -3.2770    1.4979    1.3552 C   0  0  0  0  0  0  0  0  0  0  0  0
   -4.6102    1.3384    0.9555 C   0  0  0  0  0  0  0  0  0  0  0  0
   -5.6359    2.0239    1.6120 C   0  0  0  0  0  0  0  0  0  0  0  0
   -5.3378    2.8829    2.6676 C   0  0  0  0  0  0  0  0  0  0  0  0
   -4.0143    3.0618    3.0640 C   0  0  0  0  0  0  0  0  0  0  0  0
   -2.9887    2.3772    2.4070 C   0  0  0  0  0  0  0  0  0  0  0  0
    3.9468    1.9970   -1.8569 H   0  0  0  0  0  0  0  0  0  0  0  0
    3.2645    1.6005   -4.1978 H   0  0  0  0  0  0  0  0  0  0  0  0
    2.8280   -0.7105   -4.9887 H   0  0  0  0  0  0  0  0  0  0  0  0
    3.0628   -2.6154   -3.4446 H   0  0  0  0  0  0  0  0  0  0  0  0
    4.3390   -2.4213    0.0727 H   0  0  0  0  0  0  0  0  0  0  0  0
    4.2677   -3.4074   -1.3597 H   0  0  0  0  0  0  0  0  0  0  0  0
    0.3606    0.3663    2.3216 H   0  0  0  0  0  0  0  0  0  0  0  0
    0.7566   -0.8527   -1.1645 H   0  0  0  0  0  0  0  0  0  0  0  0
   -1.1179   -2.2462   -0.1186 H   0  0  0  0  0  0  0  0  0  0  0  0
   -1.3732   -1.2376   -1.5250 H   0  0  0  0  0  0  0  0  0  0  0  0
   -3.1282   -1.0257    0.3700 H   0  0  0  0  0  0  0  0  0  0  0  0
   -1.2642    1.4129    0.5459 H   0  0  0  0  0  0  0  0  0  0  0  0
   -4.8646    0.6884    0.1224 H   0  0  0  0  0  0  0  0  0  0  0  0
   -6.6668    1.8901    1.2949 H   0  0  0  0  0  0  0  0  0  0  0  0
   -6.1357    3.4158    3.1781 H   0  0  0  0  0  0  0  0  0  0  0  0
   -3.7784    3.7345    3.8844 H   0  0  0  0  0  0  0  0  0  0  0  0
   -1.9621    2.5307    2.7318 H   0  0  0  0  0  0  0  0  0  0  0  0
  1  2  1  0
  2  3  2  0
  3  4  1  0
  4  5  2  0
  5  6  1  0
  6  7  2  0
  7  8  1  0
  8  9  1  0
  9 10  1  0
 10 11  2  0
 11 12  1  0
 12 13  2  0
 13 14  1  0
 14 15  1  0
 15 16  1  0
 16 17  1  0
 17 18  2  3
 18 19  1  0
 19 20  2  0
 20 21  1  0
 21 22  2  0
 22 23  1  0
 23 24  2  0
  7  2  1  0
 14 10  1  0
 24 19  1  0
  3 25  1  0
  4 26  1  0
  5 27  1  0
  6 28  1  0
  8 29  1  0
  8 30  1  0
 13 31  1  0
 15 32  1  0
 16 33  1  0
 16 34  1  0
 17 35  1  0
 18 36  1  0
 20 37  1  0
 21 38  1  0
 22 39  1  0
 23 40  1  0
 24 41  1  0
M  END
$$$$
