
     RDKit          3D

 46 49  0  0  0  0  0  0  0  0999 V2000
    4.6680   -1.5179    1.0177 C   0  0  0  0  0  0  0  0  0  0  0  0
    4.3020   -1.6229   -0.2663 C   0  0  0  0  0  0  0  0  0  0  0  0
    3.4683   -0.6721   -1.1021 C   0  0  0  0  0  0  0  0  0  0  0  0
    3.1047    0.7163   -0.4970 C   0  0  0  0  0  0  0  0  0  0  0  0
    1.6361    0.9575   -0.4795 N   0  0  0  0  0  0  0  0  0  0  0  0
    1.1598    0.9291   -1.8786 C   0  0  0  0  0  0  0  0  0  0  0  0
    1.4720   -0.4072   -2.5681 C   0  0  0  0  0  0  0  0  0  0  0  0
    2.1518   -1.3557   -1.5659 C   0  0  0  0  0  0  0  0  0  0  0  0
    1.1972   -1.5132   -0.3641 C   0  0  0  0  0  0  0  0  0  0  0  0
    1.0095   -0.1385    0.3042 C   0  0  0  0  0  0  0  0  0  0  0  0
   -0.3934    0.2175    0.7428 C   0  0  0  0  0  0  0  0  0  0  0  0
   -0.5210    0.9333    1.9177 N   0  0  0  0  0  0  0  0  0  0  0  0
   -1.8330    1.0943    2.2732 C   0  0  0  0  0  0  0  0  0  0  0  0
   -2.3924    1.6982    3.4057 C   0  0  0  0  0  0  0  0  0  0  0  0
   -3.7856    1.7193    3.5067 C   0  0  0  0  0  0  0  0  0  0  0  0
   -4.5817    1.1592    2.5123 C   0  0  0  0  0  0  0  0  0  0  0  0
   -4.0008    0.5654    1.3851 C   0  0  0  0  0  0  0  0  0  0  0  0
   -2.5947    0.5325    1.2562 C   0  0  0  0  0  0  0  0  0  0  0  0
   -1.6874    0.0328    0.2522 C   0  0  0  0  0  0  0  0  0  0  0  0
   -2.1356   -0.5818   -1.0392 C   0  0  0  0  0  0  0  0  0  0  0  0
   -2.8300    0.4075   -1.9773 C   0  0  0  0  0  0  0  0  0  0  0  0
   -3.1528   -0.2298   -3.2126 O   0  0  0  0  0  0  0  0  0  0  0  0
    5.2777   -2.2926    1.4757 H   0  0  0  0  0  0  0  0  0  0  0  0
    4.3823   -0.6906    1.6560 H   0  0  0  0  0  0  0  0  0  0  0  0
    4.6464   -2.5067   -0.8056 H   0  0  0  0  0  0  0  0  0  0  0  0
    4.0719   -0.4738   -2.0001 H   0  0  0  0  0  0  0  0  0  0  0  0
    3.4997    0.8641    0.5122 H   0  0  0  0  0  0  0  0  0  0  0  0
    3.5846    1.5039   -1.0941 H   0  0  0  0  0  0  0  0  0  0  0  0
    1.6261    1.7491   -2.4400 H   0  0  0  0  0  0  0  0  0  0  0  0
    0.0884    1.1397   -1.9216 H   0  0  0  0  0  0  0  0  0  0  0  0
    0.5514   -0.8587   -2.9539 H   0  0  0  0  0  0  0  0  0  0  0  0
    2.1290   -0.2387   -3.4299 H   0  0  0  0  0  0  0  0  0  0  0  0
    2.3468   -2.3268   -2.0348 H   0  0  0  0  0  0  0  0  0  0  0  0
    1.6269   -2.2155    0.3614 H   0  0  0  0  0  0  0  0  0  0  0  0
    0.2618   -1.9715   -0.6893 H   0  0  0  0  0  0  0  0  0  0  0  0
    1.5749   -0.2023    1.2486 H   0  0  0  0  0  0  0  0  0  0  0  0
    0.2601    1.2730    2.4604 H   0  0  0  0  0  0  0  0  0  0  0  0
   -1.7715    2.1349    4.1808 H   0  0  0  0  0  0  0  0  0  0  0  0
   -4.2522    2.1794    4.3745 H   0  0  0  0  0  0  0  0  0  0  0  0
   -5.6642    1.1830    2.6091 H   0  0  0  0  0  0  0  0  0  0  0  0
   -4.6374    0.1299    0.6218 H   0  0  0  0  0  0  0  0  0  0  0  0
   -2.8138   -1.4184   -0.8268 H   0  0  0  0  0  0  0  0  0  0  0  0
   -1.3034   -1.0266   -1.5847 H   0  0  0  0  0  0  0  0  0  0  0  0
   -3.7557    0.8027   -1.5487 H   0  0  0  0  0  0  0  0  0  0  0  0
   -2.1828    1.2603   -2.2023 H   0  0  0  0  0  0  0  0  0  0  0  0
   -3.8080   -0.9216   -3.0179 H   0  0  0  0  0  0  0  0  0  0  0  0
  1  2  2  0
  2  3  1  0
  3  4  1  0
  4  5  1  0
  5  6  1  0
  6  7  1  0
  7  8  1  0
  8  9  1  0
  9 10  1  0
 10 11  1  0
 11 12  1  0
 12 13  1  0
 13 14  2  0
 14 15  1  0
 15 16  2  0
 16 17  1  0
 17 18  2  0
 18 19  1  0
 19 20  1  0
 20 21  1  0
 21 22  1  0
  8  3  1  0
 19 11  2  0
 10  5  1  0
 18 13  1  0
  1 23  1  0
  1 24  1  0
  2 25  1  0
  3 26  1  0
  4 27  1  0
  4 28  1  0
  6 29  1  0
  6 30  1  0
  7 31  1  0
  7 32  1  0
  8 33  1  0
  9 34  1  0
  9 35  1  0
 10 36  1  0
 12 37  1  0
 14 38  1  0
 15 39  1  0
 16 40  1  0
 17 41  1  0
 20 42  1  0
 20 43  1  0
 21 44  1  0
 21 45  1  0
 22 46  1  0
M  END
$$$$
