
     RDKit          3D

 62 66  0  0  0  0  0  0  0  0999 V2000
   -2.6809   -2.1453   -3.6103 C   0  0  0  0  0  0  0  0  0  0  0  0
   -2.7160   -3.3421   -2.8415 O   0  0  0  0  0  0  0  0  0  0  0  0
   -2.7899   -3.1950   -1.4831 C   0  0  0  0  0  0  0  0  0  0  0  0
   -2.6006   -4.3724   -0.7572 C   0  0  0  0  0  0  0  0  0  0  0  0
   -2.6413   -4.3607    0.6364 C   0  0  0  0  0  0  0  0  0  0  0  0
   -2.8763   -3.1645    1.3142 C   0  0  0  0  0  0  0  0  0  0  0  0
   -3.0815   -1.9739    0.6029 C   0  0  0  0  0  0  0  0  0  0  0  0
   -3.3117   -0.7061    1.3132 C   0  0  0  0  0  0  0  0  0  0  0  0
   -4.6608   -0.5909    2.3621 S   0  0  0  0  0  0  0  0  0  0  0  0
   -4.3097    1.0315    2.7944 C   0  0  0  0  0  0  0  0  0  0  0  0
   -5.0311    1.8414    3.6911 C   0  0  0  0  0  0  0  0  0  0  0  0
   -4.5860    3.1429    3.9325 C   0  0  0  0  0  0  0  0  0  0  0  0
   -3.4504    3.6418    3.3069 C   0  0  0  0  0  0  0  0  0  0  0  0
   -3.1283    4.9273    3.6458 O   0  0  0  0  0  0  0  0  0  0  0  0
   -1.9228    5.4533    3.1037 C   0  0  0  0  0  0  0  0  0  0  0  0
   -2.7472    2.8314    2.4112 C   0  0  0  0  0  0  0  0  0  0  0  0
   -3.1732    1.5010    2.1363 C   0  0  0  0  0  0  0  0  0  0  0  0
   -2.6111    0.4902    1.2631 C   0  0  0  0  0  0  0  0  0  0  0  0
   -1.4285    0.6634    0.4241 C   0  0  0  0  0  0  0  0  0  0  0  0
   -1.4611    1.5597   -0.6484 C   0  0  0  0  0  0  0  0  0  0  0  0
   -0.3277    1.7386   -1.4438 C   0  0  0  0  0  0  0  0  0  0  0  0
    0.8504    1.0376   -1.1745 C   0  0  0  0  0  0  0  0  0  0  0  0
    1.8820    1.3119   -2.0284 O   0  0  0  0  0  0  0  0  0  0  0  0
    3.1984    0.8955   -1.6490 C   0  0  0  0  0  0  0  0  0  0  0  0
    3.5279   -0.4807   -2.2541 C   0  0  0  0  0  0  0  0  0  0  0  0
    4.8037   -1.0990   -1.8922 N   0  0  0  0  0  0  0  0  0  0  0  0
    4.9130   -1.5173   -0.4995 C   0  0  0  0  0  0  0  0  0  0  0  0
    6.4019   -1.7974   -0.3267 C   0  0  0  0  0  0  0  0  0  0  0  0
    7.0841   -1.1141   -1.5075 C   0  0  0  0  0  0  0  0  0  0  0  0
    5.9888   -0.2970   -2.1712 C   0  0  0  0  0  0  0  0  0  0  0  0
    0.8789    0.1334   -0.1126 C   0  0  0  0  0  0  0  0  0  0  0  0
   -0.2546   -0.0496    0.6876 C   0  0  0  0  0  0  0  0  0  0  0  0
   -3.0408   -2.0019   -0.8014 C   0  0  0  0  0  0  0  0  0  0  0  0
   -3.6370   -1.6149   -3.5543 H   0  0  0  0  0  0  0  0  0  0  0  0
   -2.5177   -2.4263   -4.6544 H   0  0  0  0  0  0  0  0  0  0  0  0
   -1.8503   -1.4989   -3.3049 H   0  0  0  0  0  0  0  0  0  0  0  0
   -2.4140   -5.3055   -1.2839 H   0  0  0  0  0  0  0  0  0  0  0  0
   -2.4878   -5.2816    1.1925 H   0  0  0  0  0  0  0  0  0  0  0  0
   -2.8944   -3.1679    2.4021 H   0  0  0  0  0  0  0  0  0  0  0  0
   -5.9170    1.4623    4.1927 H   0  0  0  0  0  0  0  0  0  0  0  0
   -5.1359    3.7729    4.6281 H   0  0  0  0  0  0  0  0  0  0  0  0
   -1.0554    4.8587    3.4137 H   0  0  0  0  0  0  0  0  0  0  0  0
   -1.9820    5.5290    2.0129 H   0  0  0  0  0  0  0  0  0  0  0  0
   -1.7909    6.4657    3.5005 H   0  0  0  0  0  0  0  0  0  0  0  0
   -1.8575    3.1924    1.9070 H   0  0  0  0  0  0  0  0  0  0  0  0
   -2.3651    2.1206   -0.8742 H   0  0  0  0  0  0  0  0  0  0  0  0
   -0.3605    2.4368   -2.2764 H   0  0  0  0  0  0  0  0  0  0  0  0
    3.3406    0.9403   -0.5644 H   0  0  0  0  0  0  0  0  0  0  0  0
    3.8790    1.6436   -2.0705 H   0  0  0  0  0  0  0  0  0  0  0  0
    2.7208   -1.1875   -2.0262 H   0  0  0  0  0  0  0  0  0  0  0  0
    3.4890   -0.3849   -3.3471 H   0  0  0  0  0  0  0  0  0  0  0  0
    4.6113   -0.7293    0.1991 H   0  0  0  0  0  0  0  0  0  0  0  0
    4.3117   -2.4082   -0.2942 H   0  0  0  0  0  0  0  0  0  0  0  0
    6.6108   -2.8732   -0.3423 H   0  0  0  0  0  0  0  0  0  0  0  0
    6.7665   -1.3975    0.6263 H   0  0  0  0  0  0  0  0  0  0  0  0
    7.9267   -0.4925   -1.1908 H   0  0  0  0  0  0  0  0  0  0  0  0
    7.4681   -1.8724   -2.1998 H   0  0  0  0  0  0  0  0  0  0  0  0
    5.9408    0.6956   -1.7097 H   0  0  0  0  0  0  0  0  0  0  0  0
    6.1698   -0.1808   -3.2444 H   0  0  0  0  0  0  0  0  0  0  0  0
    1.7598   -0.4561    0.1176 H   0  0  0  0  0  0  0  0  0  0  0  0
   -0.2135   -0.7560    1.5138 H   0  0  0  0  0  0  0  0  0  0  0  0
   -3.2132   -1.0774   -1.3424 H   0  0  0  0  0  0  0  0  0  0  0  0
  1  2  1  0
  2  3  1  0
  3  4  2  0
  4  5  1  0
  5  6  2  0
  6  7  1  0
  7  8  1  0
  8  9  1  0
  9 10  1  0
 10 11  2  0
 11 12  1  0
 12 13  2  0
 13 14  1  0
 14 15  1  0
 13 16  1  0
 16 17  2  0
 17 18  1  0
 18 19  1  0
 19 20  2  0
 20 21  1  0
 21 22  2  0
 22 23  1  0
 23 24  1  0
 24 25  1  0
 25 26  1  0
 26 27  1  0
 27 28  1  0
 28 29  1  0
 29 30  1  0
 22 31  1  0
 31 32  2  0
  7 33  2  0
 33  3  1  0
 18  8  2  0
 32 19  1  0
 17 10  1  0
 30 26  1  0
  1 34  1  0
  1 35  1  0
  1 36  1  0
  4 37  1  0
  5 38  1  0
  6 39  1  0
 11 40  1  0
 12 41  1  0
 15 42  1  0
 15 43  1  0
 15 44  1  0
 16 45  1  0
 20 46  1  0
 21 47  1  0
 24 48  1  0
 24 49  1  0
 25 50  1  0
 25 51  1  0
 27 52  1  0
 27 53  1  0
 28 54  1  0
 28 55  1  0
 29 56  1  0
 29 57  1  0
 30 58  1  0
 30 59  1  0
 31 60  1  0
 32 61  1  0
 33 62  1  0
M  END
$$$$
