
     RDKit          3D

 49 52  0  0  0  0  0  0  0  0999 V2000
    6.5685    1.4117   -0.7359 C   0  0  0  0  0  0  0  0  0  0  0  0
    6.1745    0.3385    0.2372 C   0  0  0  0  0  0  0  0  0  0  0  0
    6.7416    0.3042    1.5194 C   0  0  0  0  0  0  0  0  0  0  0  0
    6.3747   -0.6929    2.4261 C   0  0  0  0  0  0  0  0  0  0  0  0
    7.0842   -0.7224    3.9936 Cl  0  0  0  0  0  0  0  0  0  0  0  0
    5.4428   -1.6673    2.0724 C   0  0  0  0  0  0  0  0  0  0  0  0
    4.8641   -1.6396    0.8042 C   0  0  0  0  0  0  0  0  0  0  0  0
    5.2125   -0.6271   -0.0956 C   0  0  0  0  0  0  0  0  0  0  0  0
    4.6509   -0.6259   -1.3491 O   0  0  0  0  0  0  0  0  0  0  0  0
    3.4112   -0.1612   -1.5544 C   0  0  0  0  0  0  0  0  0  0  0  0
    2.8600   -0.3124   -2.7399 N   0  0  0  0  0  0  0  0  0  0  0  0
    1.5951    0.2405   -2.7484 C   0  0  0  0  0  0  0  0  0  0  0  0
    1.1850    0.8210   -1.5657 C   0  0  0  0  0  0  0  0  0  0  0  0
   -0.1050    1.5107   -1.2454 C   0  0  0  0  0  0  0  0  0  0  0  0
   -1.2766    0.6799   -1.5654 N   0  0  0  0  0  0  0  0  0  0  0  0
   -1.3420   -0.5229   -0.6980 C   0  0  0  0  0  0  0  0  0  0  0  0
   -2.7693   -1.0726   -0.4684 C   0  0  0  0  0  0  0  0  0  0  0  0
   -3.6083   -0.0553    0.1836 N   0  0  0  0  0  0  0  0  0  0  0  0
   -4.7438   -0.3939    0.9022 C   0  0  0  0  0  0  0  0  0  0  0  0
   -5.3579    0.5156    1.7803 C   0  0  0  0  0  0  0  0  0  0  0  0
   -6.5018    0.1833    2.5173 C   0  0  0  0  0  0  0  0  0  0  0  0
   -7.0654   -1.0803    2.3958 C   0  0  0  0  0  0  0  0  0  0  0  0
   -6.4822   -2.0058    1.5399 C   0  0  0  0  0  0  0  0  0  0  0  0
   -5.3374   -1.6635    0.8083 C   0  0  0  0  0  0  0  0  0  0  0  0
   -3.3063    1.3477   -0.1423 C   0  0  0  0  0  0  0  0  0  0  0  0
   -2.5318    1.4593   -1.4774 C   0  0  0  0  0  0  0  0  0  0  0  0
    2.4369    0.6756   -0.4046 S   0  0  0  0  0  0  0  0  0  0  0  0
    7.4708    1.9373   -0.4056 H   0  0  0  0  0  0  0  0  0  0  0  0
    5.7623    2.1453   -0.8338 H   0  0  0  0  0  0  0  0  0  0  0  0
    6.7867    0.9802   -1.7182 H   0  0  0  0  0  0  0  0  0  0  0  0
    7.4758    1.0516    1.8120 H   0  0  0  0  0  0  0  0  0  0  0  0
    5.1667   -2.4483    2.7759 H   0  0  0  0  0  0  0  0  0  0  0  0
    4.1447   -2.4030    0.5189 H   0  0  0  0  0  0  0  0  0  0  0  0
    0.9999    0.1905   -3.6529 H   0  0  0  0  0  0  0  0  0  0  0  0
   -0.1372    1.8413   -0.1990 H   0  0  0  0  0  0  0  0  0  0  0  0
   -0.1277    2.4211   -1.8597 H   0  0  0  0  0  0  0  0  0  0  0  0
   -0.9169   -0.3037    0.2913 H   0  0  0  0  0  0  0  0  0  0  0  0
   -0.7305   -1.3147   -1.1461 H   0  0  0  0  0  0  0  0  0  0  0  0
   -3.2177   -1.3748   -1.4228 H   0  0  0  0  0  0  0  0  0  0  0  0
   -2.6776   -1.9633    0.1649 H   0  0  0  0  0  0  0  0  0  0  0  0
   -4.9379    1.5066    1.9284 H   0  0  0  0  0  0  0  0  0  0  0  0
   -6.9436    0.9147    3.1890 H   0  0  0  0  0  0  0  0  0  0  0  0
   -7.9524   -1.3424    2.9653 H   0  0  0  0  0  0  0  0  0  0  0  0
   -6.9155   -2.9962    1.4328 H   0  0  0  0  0  0  0  0  0  0  0  0
   -4.9314   -2.4162    0.1389 H   0  0  0  0  0  0  0  0  0  0  0  0
   -4.2274    1.9327   -0.2530 H   0  0  0  0  0  0  0  0  0  0  0  0
   -2.7164    1.7903    0.6688 H   0  0  0  0  0  0  0  0  0  0  0  0
   -2.3615    2.5173   -1.7132 H   0  0  0  0  0  0  0  0  0  0  0  0
   -3.1874    1.0890   -2.2773 H   0  0  0  0  0  0  0  0  0  0  0  0
  1  2  1  0
  2  3  2  0
  3  4  1  0
  4  5  1  0
  4  6  2  0
  6  7  1  0
  7  8  2  0
  8  9  1  0
  9 10  1  0
 10 11  2  0
 11 12  1  0
 12 13  2  0
 13 14  1  0
 14 15  1  0
 15 16  1  0
 16 17  1  0
 17 18  1  0
 18 19  1  0
 19 20  2  0
 20 21  1  0
 21 22  2  0
 22 23  1  0
 23 24  2  0
 18 25  1  0
 25 26  1  0
 13 27  1  0
  8  2  1  0
 27 10  1  0
 26 15  1  0
 24 19  1  0
  1 28  1  0
  1 29  1  0
  1 30  1  0
  3 31  1  0
  6 32  1  0
  7 33  1  0
 12 34  1  0
 14 35  1  0
 14 36  1  0
 16 37  1  0
 16 38  1  0
 17 39  1  0
 17 40  1  0
 20 41  1  0
 21 42  1  0
 22 43  1  0
 23 44  1  0
 24 45  1  0
 25 46  1  0
 25 47  1  0
 26 48  1  0
 26 49  1  0
M  END
$$$$
