
     RDKit          3D

 67 72  0  0  0  0  0  0  0  0999 V2000
   -1.6779   -1.6880   -1.9773 O   0  0  0  0  0  0  0  0  0  0  0  0
   -1.9797   -1.1911   -0.8883 C   0  0  0  0  0  0  0  0  0  0  0  0
   -0.9047   -0.6500    0.0579 C   0  0  0  0  0  0  0  0  0  0  0  0
   -0.8741    0.8926    0.0010 C   0  0  0  0  0  0  0  0  0  0  0  0
    0.2788    1.4033   -0.8535 C   0  0  0  0  0  0  0  0  0  0  0  0
    1.6319    0.9234   -0.3245 C   0  0  0  0  0  0  0  0  0  0  0  0
    1.5354   -0.4210    0.2562 N   0  0  0  0  0  0  0  0  0  0  0  0
    2.7475   -1.0612    0.5607 C   0  0  0  0  0  0  0  0  0  0  0  0
    2.7352   -2.4045    0.8241 N   0  0  0  0  0  0  0  0  0  0  0  0
    3.8796   -3.0416    1.1448 C   0  0  0  0  0  0  0  0  0  0  0  0
    5.1141   -2.5275    1.2577 N   0  0  0  0  0  0  0  0  0  0  0  0
    5.1048   -1.2111    0.9979 C   0  0  0  0  0  0  0  0  0  0  0  0
    4.0162   -0.4224    0.6558 C   0  0  0  0  0  0  0  0  0  0  0  0
    4.4290    0.8864    0.4547 N   0  0  0  0  0  0  0  0  0  0  0  0
    5.7296    0.8899    0.6599 C   0  0  0  0  0  0  0  0  0  0  0  0
    6.1758   -0.3628    1.0048 N   0  0  0  0  0  0  0  0  0  0  0  0
    7.5483   -0.7223    1.2839 C   0  0  0  0  0  0  0  0  0  0  0  0
    8.4648   -0.5310    0.0781 C   0  0  0  0  0  0  0  0  0  0  0  0
    8.8315    0.9284   -0.2057 C   0  0  0  0  0  0  0  0  0  0  0  0
    7.6648    1.8308   -0.6165 C   0  0  0  0  0  0  0  0  0  0  0  0
    6.6381    2.0590    0.4935 C   0  0  0  0  0  0  0  0  0  0  0  0
    0.4647   -1.2758   -0.2733 C   0  0  0  0  0  0  0  0  0  0  0  0
   -3.3072   -1.0264   -0.5147 N   0  0  0  0  0  0  0  0  0  0  0  0
   -4.3687   -1.3182   -1.4806 C   0  0  0  0  0  0  0  0  0  0  0  0
   -5.4990   -0.2718   -1.4274 C   0  0  0  0  0  0  0  0  0  0  0  0
   -5.9871   -0.0354   -0.0502 N   0  0  0  0  0  0  0  0  0  0  0  0
   -7.3050    0.3951    0.1179 C   0  0  0  0  0  0  0  0  0  0  0  0
   -7.8562    1.3361   -0.7729 C   0  0  0  0  0  0  0  0  0  0  0  0
   -9.1616    1.8241   -0.6288 C   0  0  0  0  0  0  0  0  0  0  0  0
   -9.9611    1.3818    0.4180 C   0  0  0  0  0  0  0  0  0  0  0  0
   -9.4513    0.4542    1.3190 C   0  0  0  0  0  0  0  0  0  0  0  0
   -8.1461   -0.0239    1.1686 C   0  0  0  0  0  0  0  0  0  0  0  0
   -7.7293   -0.9383    2.0602 F   0  0  0  0  0  0  0  0  0  0  0  0
   -5.2861   -0.7455    1.0282 C   0  0  0  0  0  0  0  0  0  0  0  0
   -3.7579   -0.6420    0.8312 C   0  0  0  0  0  0  0  0  0  0  0  0
   -1.1597   -0.9515    1.0815 H   0  0  0  0  0  0  0  0  0  0  0  0
   -0.7624    1.2809    1.0233 H   0  0  0  0  0  0  0  0  0  0  0  0
   -1.8111    1.3050   -0.3873 H   0  0  0  0  0  0  0  0  0  0  0  0
    0.2691    2.4994   -0.8936 H   0  0  0  0  0  0  0  0  0  0  0  0
    0.1428    1.0531   -1.8844 H   0  0  0  0  0  0  0  0  0  0  0  0
    2.3442    0.9488   -1.1594 H   0  0  0  0  0  0  0  0  0  0  0  0
    1.9661    1.6277    0.4463 H   0  0  0  0  0  0  0  0  0  0  0  0
    3.7879   -4.1068    1.3325 H   0  0  0  0  0  0  0  0  0  0  0  0
    7.8769   -0.1286    2.1433 H   0  0  0  0  0  0  0  0  0  0  0  0
    7.5704   -1.7736    1.5908 H   0  0  0  0  0  0  0  0  0  0  0  0
    8.0179   -0.9817   -0.8177 H   0  0  0  0  0  0  0  0  0  0  0  0
    9.3984   -1.0732    0.2721 H   0  0  0  0  0  0  0  0  0  0  0  0
    9.3398    1.3594    0.6678 H   0  0  0  0  0  0  0  0  0  0  0  0
    9.5658    0.9348   -1.0215 H   0  0  0  0  0  0  0  0  0  0  0  0
    7.1787    1.4256   -1.5150 H   0  0  0  0  0  0  0  0  0  0  0  0
    8.0839    2.8060   -0.9005 H   0  0  0  0  0  0  0  0  0  0  0  0
    6.0302    2.9326    0.2312 H   0  0  0  0  0  0  0  0  0  0  0  0
    7.1341    2.2944    1.4424 H   0  0  0  0  0  0  0  0  0  0  0  0
    0.6219   -1.4090   -1.3522 H   0  0  0  0  0  0  0  0  0  0  0  0
    0.4659   -2.2822    0.1652 H   0  0  0  0  0  0  0  0  0  0  0  0
   -3.9692   -1.3663   -2.4994 H   0  0  0  0  0  0  0  0  0  0  0  0
   -4.7597   -2.3132   -1.2341 H   0  0  0  0  0  0  0  0  0  0  0  0
   -5.1234    0.6792   -1.8265 H   0  0  0  0  0  0  0  0  0  0  0  0
   -6.3110   -0.6179   -2.0772 H   0  0  0  0  0  0  0  0  0  0  0  0
   -7.2552    1.7348   -1.5866 H   0  0  0  0  0  0  0  0  0  0  0  0
   -9.5408    2.5603   -1.3333 H   0  0  0  0  0  0  0  0  0  0  0  0
  -10.9718    1.7615    0.5346 H   0  0  0  0  0  0  0  0  0  0  0  0
  -10.0565    0.0934    2.1449 H   0  0  0  0  0  0  0  0  0  0  0  0
   -5.5932   -1.7989    1.0367 H   0  0  0  0  0  0  0  0  0  0  0  0
   -5.5169   -0.3091    2.0082 H   0  0  0  0  0  0  0  0  0  0  0  0
   -3.4478    0.3969    0.9990 H   0  0  0  0  0  0  0  0  0  0  0  0
   -3.2529   -1.2752    1.5678 H   0  0  0  0  0  0  0  0  0  0  0  0
  1  2  2  0
  2  3  1  0
  3  4  1  0
  4  5  1  0
  5  6  1  0
  6  7  1  0
  7  8  1  0
  8  9  2  0
  9 10  1  0
 10 11  2  0
 11 12  1  0
 12 13  2  0
 13 14  1  0
 14 15  2  0
 15 16  1  0
 16 17  1  0
 17 18  1  0
 18 19  1  0
 19 20  1  0
 20 21  1  0
  7 22  1  0
  2 23  1  0
 23 24  1  0
 24 25  1  0
 25 26  1  0
 26 27  1  0
 27 28  2  0
 28 29  1  0
 29 30  2  0
 30 31  1  0
 31 32  2  0
 32 33  1  0
 26 34  1  0
 34 35  1  0
 22  3  1  0
 35 23  1  0
 13  8  1  0
 21 15  1  0
 32 27  1  0
 16 12  1  0
  3 36  1  0
  4 37  1  0
  4 38  1  0
  5 39  1  0
  5 40  1  0
  6 41  1  0
  6 42  1  0
 10 43  1  0
 17 44  1  0
 17 45  1  0
 18 46  1  0
 18 47  1  0
 19 48  1  0
 19 49  1  0
 20 50  1  0
 20 51  1  0
 21 52  1  0
 21 53  1  0
 22 54  1  0
 22 55  1  0
 24 56  1  0
 24 57  1  0
 25 58  1  0
 25 59  1  0
 28 60  1  0
 29 61  1  0
 30 62  1  0
 31 63  1  0
 34 64  1  0
 34 65  1  0
 35 66  1  0
 35 67  1  0
M  END
$$$$
