
     RDKit          3D

 46 48  0  0  0  0  0  0  0  0999 V2000
   -1.6404   -0.1042   -2.3425 O   0  0  0  0  0  0  0  0  0  0  0  0
   -1.6133    0.5530   -1.3089 C   0  0  0  0  0  0  0  0  0  0  0  0
   -2.6969    0.6950   -0.4712 N   0  0  0  0  0  0  0  0  0  0  0  0
   -3.9222   -0.0509   -0.7078 C   0  0  0  0  0  0  0  0  0  0  0  0
   -5.0733    0.5153    0.1324 C   0  0  0  0  0  0  0  0  0  0  0  0
   -6.3651   -0.2714   -0.0301 C   0  0  0  0  0  0  0  0  0  0  0  0
   -6.2849   -1.2772    1.0913 C   0  0  0  0  0  0  0  0  0  0  0  0
   -5.6161   -0.4728    2.1821 C   0  0  0  0  0  0  0  0  0  0  0  0
   -4.7089    0.4283    1.5305 O   0  0  0  0  0  0  0  0  0  0  0  0
   -0.3506    1.2166   -0.8781 C   0  0  0  0  0  0  0  0  0  0  0  0
   -0.3512    2.3382   -0.0436 C   0  0  0  0  0  0  0  0  0  0  0  0
    0.8580    2.9309    0.3317 C   0  0  0  0  0  0  0  0  0  0  0  0
    2.0806    2.4194   -0.1262 C   0  0  0  0  0  0  0  0  0  0  0  0
    3.6381    3.3137    0.4880 Br  0  0  0  0  0  0  0  0  0  0  0  0
    2.0815    1.3069   -0.9731 C   0  0  0  0  0  0  0  0  0  0  0  0
    3.5800    0.6119   -1.6202 S   0  0  0  0  0  6  0  0  0  0  0  0
    4.3269    1.6758   -2.2524 O   0  0  0  0  0  0  0  0  0  0  0  0
    3.2472   -0.5873   -2.3612 O   0  0  0  0  0  0  0  0  0  0  0  0
    4.4180    0.0930   -0.2286 N   0  0  0  0  0  0  0  0  0  0  0  0
    3.7141   -0.9378    0.6020 C   0  0  0  0  0  0  0  0  0  0  0  0
    4.7052   -1.6349    1.5388 C   0  0  0  0  0  0  0  0  0  0  0  0
    5.7223   -2.3621    0.8370 O   0  0  0  0  0  0  0  0  0  0  0  0
    6.0483   -1.7917   -0.4386 C   0  0  0  0  0  0  0  0  0  0  0  0
    5.8518   -0.2750   -0.4856 C   0  0  0  0  0  0  0  0  0  0  0  0
    0.8663    0.7116   -1.3530 C   0  0  0  0  0  0  0  0  0  0  0  0
   -2.5425    0.9663    0.4928 H   0  0  0  0  0  0  0  0  0  0  0  0
   -4.1659   -0.0139   -1.7750 H   0  0  0  0  0  0  0  0  0  0  0  0
   -3.7084   -1.0899   -0.4349 H   0  0  0  0  0  0  0  0  0  0  0  0
   -5.2232    1.5730   -0.1125 H   0  0  0  0  0  0  0  0  0  0  0  0
   -6.4876   -0.7252   -1.0182 H   0  0  0  0  0  0  0  0  0  0  0  0
   -7.2213    0.3922    0.1414 H   0  0  0  0  0  0  0  0  0  0  0  0
   -7.2566   -1.6775    1.3918 H   0  0  0  0  0  0  0  0  0  0  0  0
   -5.6449   -2.1163    0.7942 H   0  0  0  0  0  0  0  0  0  0  0  0
   -6.3461    0.1293    2.7326 H   0  0  0  0  0  0  0  0  0  0  0  0
   -5.0677   -1.0978    2.8916 H   0  0  0  0  0  0  0  0  0  0  0  0
   -1.2820    2.7831    0.3009 H   0  0  0  0  0  0  0  0  0  0  0  0
    0.8336    3.8050    0.9814 H   0  0  0  0  0  0  0  0  0  0  0  0
    2.9395   -0.4423    1.1969 H   0  0  0  0  0  0  0  0  0  0  0  0
    3.2440   -1.6872   -0.0436 H   0  0  0  0  0  0  0  0  0  0  0  0
    4.1792   -2.3469    2.1831 H   0  0  0  0  0  0  0  0  0  0  0  0
    5.2007   -0.9057    2.1907 H   0  0  0  0  0  0  0  0  0  0  0  0
    7.0924   -2.0435   -0.6493 H   0  0  0  0  0  0  0  0  0  0  0  0
    5.4323   -2.2866   -1.1970 H   0  0  0  0  0  0  0  0  0  0  0  0
    6.4526    0.2095    0.2928 H   0  0  0  0  0  0  0  0  0  0  0  0
    6.1992    0.1137   -1.4468 H   0  0  0  0  0  0  0  0  0  0  0  0
    0.8572   -0.1471   -2.0253 H   0  0  0  0  0  0  0  0  0  0  0  0
  1  2  2  0
  2  3  1  0
  3  4  1  0
  4  5  1  0
  5  6  1  0
  6  7  1  0
  7  8  1  0
  8  9  1  0
  2 10  1  0
 10 11  2  0
 11 12  1  0
 12 13  2  0
 13 14  1  0
 13 15  1  0
 15 16  1  0
 16 17  2  0
 16 18  2  0
 16 19  1  0
 19 20  1  0
 20 21  1  0
 21 22  1  0
 22 23  1  0
 23 24  1  0
 15 25  2  0
  9  5  1  0
 25 10  1  0
 24 19  1  0
  3 26  1  0
  4 27  1  0
  4 28  1  0
  5 29  1  0
  6 30  1  0
  6 31  1  0
  7 32  1  0
  7 33  1  0
  8 34  1  0
  8 35  1  0
 11 36  1  0
 12 37  1  0
 20 38  1  0
 20 39  1  0
 21 40  1  0
 21 41  1  0
 23 42  1  0
 23 43  1  0
 24 44  1  0
 24 45  1  0
 25 46  1  0
M  END
$$$$
