
     RDKit          3D

 46 48  0  0  0  0  0  0  0  0999 V2000
    4.4183   -2.9757   -1.2131 C   0  0  0  0  0  0  0  0  0  0  0  0
    2.9149   -2.8271   -1.3517 C   0  0  0  0  0  0  0  0  0  0  0  0
    2.3979   -2.0239   -0.2815 O   0  0  0  0  0  0  0  0  0  0  0  0
    2.4222   -0.6703   -0.4723 C   0  0  0  0  0  0  0  0  0  0  0  0
    2.8329   -0.1382   -1.5001 O   0  0  0  0  0  0  0  0  0  0  0  0
    1.8357    0.0860    0.7383 C   0  0  0  0  0  0  0  0  0  0  0  0
    2.9124   -0.0583    1.8382 C   0  0  0  0  0  0  0  0  0  0  0  0
    2.5821    0.6508    2.9514 F   0  0  0  0  0  0  0  0  0  0  0  0
    3.0937   -1.3400    2.2422 F   0  0  0  0  0  0  0  0  0  0  0  0
    4.1248    0.3999    1.4351 F   0  0  0  0  0  0  0  0  0  0  0  0
    1.6528    1.5050    0.3758 N   0  0  0  0  0  0  0  0  0  0  0  0
    0.5433    1.7585   -0.2133 C   0  0  0  0  0  0  0  0  0  0  0  0
    0.2282    3.0744   -0.8068 C   0  0  0  0  0  0  0  0  0  0  0  0
    1.1232    4.1382   -0.6639 C   0  0  0  0  0  0  0  0  0  0  0  0
    0.8178    5.3768   -1.2252 C   0  0  0  0  0  0  0  0  0  0  0  0
   -0.3770    5.5107   -1.9137 C   0  0  0  0  0  0  0  0  0  0  0  0
   -1.2657    4.5060   -2.0749 N   0  0  0  0  0  0  0  0  0  0  0  0
   -0.9402    3.3104   -1.5219 C   0  0  0  0  0  0  0  0  0  0  0  0
   -0.4808    0.8993   -0.3476 O   0  0  0  0  0  0  0  0  0  0  0  0
   -0.4786   -0.1470    0.5077 C   0  0  0  0  0  0  0  0  0  0  0  0
   -1.7162   -0.7379    0.6460 N   0  0  0  0  0  0  0  0  0  0  0  0
   -1.8603   -1.9591    1.4467 C   0  0  0  0  0  0  0  0  0  0  0  0
   -2.9751   -2.8395    0.8908 C   0  0  0  0  0  0  0  0  0  0  0  0
   -4.3226   -2.1223    0.8834 C   0  0  0  0  0  0  0  0  0  0  0  0
   -4.1768   -0.6057    0.7987 C   0  0  0  0  0  0  0  0  0  0  0  0
   -2.9268   -0.1918    0.0285 C   0  0  0  0  0  0  0  0  0  0  0  0
    0.5675   -0.5446    1.1326 N   0  0  0  0  0  0  0  0  0  0  0  0
    4.6746   -3.3892   -0.2322 H   0  0  0  0  0  0  0  0  0  0  0  0
    4.8162   -3.6352   -1.9894 H   0  0  0  0  0  0  0  0  0  0  0  0
    4.9181   -2.0049   -1.2893 H   0  0  0  0  0  0  0  0  0  0  0  0
    2.4392   -3.8101   -1.2721 H   0  0  0  0  0  0  0  0  0  0  0  0
    2.6391   -2.4150   -2.3290 H   0  0  0  0  0  0  0  0  0  0  0  0
    2.0568    4.0094   -0.1208 H   0  0  0  0  0  0  0  0  0  0  0  0
    1.4981    6.2159   -1.1277 H   0  0  0  0  0  0  0  0  0  0  0  0
   -0.6582    6.4568   -2.3684 H   0  0  0  0  0  0  0  0  0  0  0  0
   -1.6801    2.5337   -1.6894 H   0  0  0  0  0  0  0  0  0  0  0  0
   -0.9338   -2.5452    1.4363 H   0  0  0  0  0  0  0  0  0  0  0  0
   -2.0658   -1.6891    2.4893 H   0  0  0  0  0  0  0  0  0  0  0  0
   -2.7214   -3.1308   -0.1370 H   0  0  0  0  0  0  0  0  0  0  0  0
   -3.0525   -3.7675    1.4684 H   0  0  0  0  0  0  0  0  0  0  0  0
   -4.8873   -2.3747    1.7889 H   0  0  0  0  0  0  0  0  0  0  0  0
   -4.9167   -2.4905    0.0384 H   0  0  0  0  0  0  0  0  0  0  0  0
   -5.0705   -0.1728    0.3353 H   0  0  0  0  0  0  0  0  0  0  0  0
   -4.1225   -0.1955    1.8156 H   0  0  0  0  0  0  0  0  0  0  0  0
   -2.8920    0.9036    0.0158 H   0  0  0  0  0  0  0  0  0  0  0  0
   -2.9888   -0.5335   -1.0114 H   0  0  0  0  0  0  0  0  0  0  0  0
  1  2  1  0
  2  3  1  0
  3  4  1  0
  4  5  2  0
  4  6  1  0
  6  7  1  0
  7  8  1  0
  7  9  1  0
  7 10  1  0
  6 11  1  0
 11 12  2  0
 12 13  1  0
 13 14  2  0
 14 15  1  0
 15 16  2  0
 16 17  1  0
 17 18  2  0
 12 19  1  0
 19 20  1  0
 20 21  1  0
 21 22  1  0
 22 23  1  0
 23 24  1  0
 24 25  1  0
 25 26  1  0
 20 27  2  0
 27  6  1  0
 18 13  1  0
 26 21  1  0
  1 28  1  0
  1 29  1  0
  1 30  1  0
  2 31  1  0
  2 32  1  0
 14 33  1  0
 15 34  1  0
 16 35  1  0
 18 36  1  0
 22 37  1  0
 22 38  1  0
 23 39  1  0
 23 40  1  0
 24 41  1  0
 24 42  1  0
 25 43  1  0
 25 44  1  0
 26 45  1  0
 26 46  1  0
M  END
$$$$
