
     RDKit          3D

 35 36  0  0  0  0  0  0  0  0999 V2000
    4.3847   -1.3406   -1.2692 C   0  0  0  0  0  0  0  0  0  0  0  0
    3.9677    0.0770   -1.6215 C   0  0  0  0  0  0  0  0  0  0  0  0
    3.6360    0.8634   -0.4428 N   0  0  0  0  0  0  0  0  0  0  0  0
    4.6221    1.6135    0.1019 N   0  0  0  0  0  0  0  0  0  0  0  0
    4.0393    2.2022    1.1427 C   0  0  0  0  0  0  0  0  0  0  0  0
    2.6915    1.8432    1.2521 C   0  0  0  0  0  0  0  0  0  0  0  0
    1.5945    2.4916    2.6267 Br  0  0  0  0  0  0  0  0  0  0  0  0
    2.4211    0.9660    0.2160 C   0  0  0  0  0  0  0  0  0  0  0  0
    1.2161    0.2505   -0.1780 C   0  0  0  0  0  0  0  0  0  0  0  0
    1.2430   -0.6242   -1.0367 O   0  0  0  0  0  0  0  0  0  0  0  0
    0.0689    0.6455    0.4826 N   0  0  0  0  0  0  0  0  0  0  0  0
   -1.2450    0.1503    0.3370 C   0  0  0  0  0  0  0  0  0  0  0  0
   -2.2300    0.7167    1.1591 C   0  0  0  0  0  0  0  0  0  0  0  0
   -3.5667    0.3004    1.0830 C   0  0  0  0  0  0  0  0  0  0  0  0
   -4.5993    0.8982    1.9921 C   0  0  0  0  0  0  0  0  0  0  0  0
   -3.9121   -0.7171    0.1888 C   0  0  0  0  0  0  0  0  0  0  0  0
   -2.9418   -1.3029   -0.6317 C   0  0  0  0  0  0  0  0  0  0  0  0
   -3.3233   -2.3649   -1.6211 C   0  0  0  0  0  0  0  0  0  0  0  0
   -1.6138   -0.8519   -0.5612 C   0  0  0  0  0  0  0  0  0  0  0  0
    3.5868   -1.8776   -0.7471 H   0  0  0  0  0  0  0  0  0  0  0  0
    4.6354   -1.8981   -2.1765 H   0  0  0  0  0  0  0  0  0  0  0  0
    5.2640   -1.3403   -0.6164 H   0  0  0  0  0  0  0  0  0  0  0  0
    3.1173    0.0958   -2.3076 H   0  0  0  0  0  0  0  0  0  0  0  0
    4.7904    0.5893   -2.1354 H   0  0  0  0  0  0  0  0  0  0  0  0
    4.6259    2.8634    1.7670 H   0  0  0  0  0  0  0  0  0  0  0  0
    0.1799    1.3790    1.1692 H   0  0  0  0  0  0  0  0  0  0  0  0
   -1.9661    1.4950    1.8714 H   0  0  0  0  0  0  0  0  0  0  0  0
   -5.6006    0.8230    1.5546 H   0  0  0  0  0  0  0  0  0  0  0  0
   -4.3984    1.9614    2.1604 H   0  0  0  0  0  0  0  0  0  0  0  0
   -4.5958    0.3777    2.9545 H   0  0  0  0  0  0  0  0  0  0  0  0
   -4.9442   -1.0574    0.1291 H   0  0  0  0  0  0  0  0  0  0  0  0
   -4.1995   -2.9249   -1.2773 H   0  0  0  0  0  0  0  0  0  0  0  0
   -2.5090   -3.0856   -1.7523 H   0  0  0  0  0  0  0  0  0  0  0  0
   -3.5532   -1.9091   -2.5890 H   0  0  0  0  0  0  0  0  0  0  0  0
   -0.8859   -1.3087   -1.2244 H   0  0  0  0  0  0  0  0  0  0  0  0
  1  2  1  0
  2  3  1  0
  3  4  1  0
  4  5  2  0
  5  6  1  0
  6  7  1  0
  6  8  2  0
  8  9  1  0
  9 10  2  0
  9 11  1  0
 11 12  1  0
 12 13  2  0
 13 14  1  0
 14 15  1  0
 14 16  2  0
 16 17  1  0
 17 18  1  0
 17 19  2  0
  8  3  1  0
 19 12  1  0
  1 20  1  0
  1 21  1  0
  1 22  1  0
  2 23  1  0
  2 24  1  0
  5 25  1  0
 11 26  1  0
 13 27  1  0
 15 28  1  0
 15 29  1  0
 15 30  1  0
 16 31  1  0
 18 32  1  0
 18 33  1  0
 18 34  1  0
 19 35  1  0
M  END
$$$$
