
     RDKit          3D

 44 47  0  0  0  0  0  0  0  0999 V2000
   -7.5378   -1.0017   -1.9710 C   0  0  0  0  0  0  0  0  0  0  0  0
   -6.7677   -1.9925   -1.1114 C   0  0  0  0  0  0  0  0  0  0  0  0
   -5.5309   -1.3730   -0.5140 C   0  0  0  0  0  0  0  0  0  0  0  0
   -4.3136   -1.4094   -1.2023 C   0  0  0  0  0  0  0  0  0  0  0  0
   -3.1651   -0.8219   -0.6581 C   0  0  0  0  0  0  0  0  0  0  0  0
   -3.2146   -0.1844    0.5810 C   0  0  0  0  0  0  0  0  0  0  0  0
   -2.1076    0.4334    1.2001 N   0  0  0  0  0  0  0  0  0  0  0  0
   -0.8013    0.5092    0.7247 C   0  0  0  0  0  0  0  0  0  0  0  0
   -0.3944    0.0451   -0.3365 O   0  0  0  0  0  0  0  0  0  0  0  0
    0.1015    1.2905    1.6892 C   0  0  0  0  0  0  0  0  0  0  0  0
    1.4958    1.2303    1.2838 N   0  0  0  0  0  0  0  0  0  0  0  0
    1.9737    2.2941    0.5177 N   0  0  0  0  0  0  0  0  0  0  0  0
    3.1894    2.2273    0.0611 C   0  0  0  0  0  0  0  0  0  0  0  0
    4.0105    1.1414    0.3329 N   0  0  0  0  0  0  0  0  0  0  0  0
    3.5778    0.0924    1.0956 C   0  0  0  0  0  0  0  0  0  0  0  0
    4.6063   -0.8180    1.1991 C   0  0  0  0  0  0  0  0  0  0  0  0
    5.7107   -0.2994    0.4699 C   0  0  0  0  0  0  0  0  0  0  0  0
    7.0139   -0.7696    0.2171 C   0  0  0  0  0  0  0  0  0  0  0  0
    7.8844    0.0001   -0.5612 C   0  0  0  0  0  0  0  0  0  0  0  0
    7.4738    1.2220   -1.0861 C   0  0  0  0  0  0  0  0  0  0  0  0
    6.1853    1.7116   -0.8506 C   0  0  0  0  0  0  0  0  0  0  0  0
    5.3174    0.9320   -0.0674 C   0  0  0  0  0  0  0  0  0  0  0  0
    2.2418    0.0894    1.6231 C   0  0  0  0  0  0  0  0  0  0  0  0
    1.7970   -0.8178    2.3224 O   0  0  0  0  0  0  0  0  0  0  0  0
   -4.4348   -0.1420    1.2674 C   0  0  0  0  0  0  0  0  0  0  0  0
   -5.5831   -0.7281    0.7252 C   0  0  0  0  0  0  0  0  0  0  0  0
   -6.9250   -0.6364   -2.8021 H   0  0  0  0  0  0  0  0  0  0  0  0
   -8.4293   -1.4782   -2.3909 H   0  0  0  0  0  0  0  0  0  0  0  0
   -7.8605   -0.1344   -1.3852 H   0  0  0  0  0  0  0  0  0  0  0  0
   -6.4891   -2.8666   -1.7126 H   0  0  0  0  0  0  0  0  0  0  0  0
   -7.4151   -2.3696   -0.3104 H   0  0  0  0  0  0  0  0  0  0  0  0
   -4.2445   -1.8970   -2.1724 H   0  0  0  0  0  0  0  0  0  0  0  0
   -2.2474   -0.8832   -1.2341 H   0  0  0  0  0  0  0  0  0  0  0  0
   -2.2904    0.8498    2.1041 H   0  0  0  0  0  0  0  0  0  0  0  0
   -0.2213    2.3373    1.7094 H   0  0  0  0  0  0  0  0  0  0  0  0
   -0.0017    0.8694    2.6954 H   0  0  0  0  0  0  0  0  0  0  0  0
    3.5869    3.0494   -0.5534 H   0  0  0  0  0  0  0  0  0  0  0  0
    4.5627   -1.7556    1.7396 H   0  0  0  0  0  0  0  0  0  0  0  0
    7.3425   -1.7230    0.6214 H   0  0  0  0  0  0  0  0  0  0  0  0
    8.8905   -0.3627   -0.7580 H   0  0  0  0  0  0  0  0  0  0  0  0
    8.1657    1.8048   -1.6907 H   0  0  0  0  0  0  0  0  0  0  0  0
    5.8801    2.6653   -1.2695 H   0  0  0  0  0  0  0  0  0  0  0  0
   -4.5142    0.3471    2.2344 H   0  0  0  0  0  0  0  0  0  0  0  0
   -6.5185   -0.6776    1.2779 H   0  0  0  0  0  0  0  0  0  0  0  0
  1  2  1  0
  2  3  1  0
  3  4  2  0
  4  5  1  0
  5  6  2  0
  6  7  1  0
  7  8  1  0
  8  9  2  0
  8 10  1  0
 10 11  1  0
 11 12  1  0
 12 13  2  0
 13 14  1  0
 14 15  1  0
 15 16  2  0
 16 17  1  0
 17 18  2  0
 18 19  1  0
 19 20  2  0
 20 21  1  0
 21 22  2  0
 15 23  1  0
 23 24  2  0
  6 25  1  0
 25 26  2  0
 26  3  1  0
 23 11  1  0
 22 14  1  0
 22 17  1  0
  1 27  1  0
  1 28  1  0
  1 29  1  0
  2 30  1  0
  2 31  1  0
  4 32  1  0
  5 33  1  0
  7 34  1  0
 10 35  1  0
 10 36  1  0
 13 37  1  0
 16 38  1  0
 18 39  1  0
 19 40  1  0
 20 41  1  0
 21 42  1  0
 25 43  1  0
 26 44  1  0
M  END
$$$$
