
     RDKit          3D

 36 37  0  0  0  0  0  0  0  0999 V2000
    5.8438   -1.4909   -0.0308 C   0  0  0  0  0  0  0  0  0  0  0  0
    4.5194   -0.9619   -0.2281 N   0  0  0  0  0  0  0  0  0  0  0  0
    4.3106    0.3611   -0.5528 C   0  0  0  0  0  0  0  0  0  0  0  0
    5.2217    1.1535   -0.7766 O   0  0  0  0  0  0  0  0  0  0  0  0
    2.8420    0.7816   -0.5986 C   0  0  0  0  0  0  0  0  0  0  0  0
    1.9589   -0.3345   -0.4371 O   0  0  0  0  0  0  0  0  0  0  0  0
    0.6472    0.0076   -0.4049 C   0  0  0  0  0  0  0  0  0  0  0  0
    0.2148    1.1503   -0.4660 O   0  0  0  0  0  0  0  0  0  0  0  0
   -0.2274   -1.1947   -0.2501 C   0  0  0  0  0  0  0  0  0  0  0  0
    0.3231   -2.4822   -0.3986 C   0  0  0  0  0  0  0  0  0  0  0  0
   -0.4731   -3.6152   -0.2461 C   0  0  0  0  0  0  0  0  0  0  0  0
   -1.8223   -3.4724    0.0523 C   0  0  0  0  0  0  0  0  0  0  0  0
   -2.3841   -2.1995    0.1933 C   0  0  0  0  0  0  0  0  0  0  0  0
   -1.6067   -1.0441    0.0422 C   0  0  0  0  0  0  0  0  0  0  0  0
   -2.1561    0.2592    0.1641 N   0  0  0  0  0  0  0  0  0  0  0  0
   -3.4534    0.6377    0.4769 C   0  0  0  0  0  0  0  0  0  0  0  0
   -4.3557   -0.1535    0.7358 O   0  0  0  0  0  0  0  0  0  0  0  0
   -3.6637    2.0816    0.4817 C   0  0  0  0  0  0  0  0  0  0  0  0
   -2.8501    3.1718    0.2105 C   0  0  0  0  0  0  0  0  0  0  0  0
   -3.6402    4.3351    0.3890 C   0  0  0  0  0  0  0  0  0  0  0  0
   -4.8871    3.8954    0.7569 C   0  0  0  0  0  0  0  0  0  0  0  0
   -4.9137    2.5417    0.8156 O   0  0  0  0  0  0  0  0  0  0  0  0
    5.7990   -2.5793   -0.1111 H   0  0  0  0  0  0  0  0  0  0  0  0
    6.1877   -1.2071    0.9673 H   0  0  0  0  0  0  0  0  0  0  0  0
    6.5303   -1.0884   -0.7804 H   0  0  0  0  0  0  0  0  0  0  0  0
    3.7195   -1.4873    0.1044 H   0  0  0  0  0  0  0  0  0  0  0  0
    2.6839    1.5022    0.2119 H   0  0  0  0  0  0  0  0  0  0  0  0
    2.6608    1.2481   -1.5732 H   0  0  0  0  0  0  0  0  0  0  0  0
    1.3729   -2.6222   -0.6425 H   0  0  0  0  0  0  0  0  0  0  0  0
   -0.0440   -4.6076   -0.3625 H   0  0  0  0  0  0  0  0  0  0  0  0
   -2.4513   -4.3523    0.1721 H   0  0  0  0  0  0  0  0  0  0  0  0
   -3.4458   -2.1522    0.4168 H   0  0  0  0  0  0  0  0  0  0  0  0
   -1.4962    1.0146   -0.0120 H   0  0  0  0  0  0  0  0  0  0  0  0
   -1.8100    3.1475   -0.0844 H   0  0  0  0  0  0  0  0  0  0  0  0
   -3.3375    5.3653    0.2636 H   0  0  0  0  0  0  0  0  0  0  0  0
   -5.8171    4.3909    0.9994 H   0  0  0  0  0  0  0  0  0  0  0  0
  1  2  1  0
  2  3  1  0
  3  4  2  0
  3  5  1  0
  5  6  1  0
  6  7  1  0
  7  8  2  0
  7  9  1  0
  9 10  2  0
 10 11  1  0
 11 12  2  0
 12 13  1  0
 13 14  2  0
 14 15  1  0
 15 16  1  0
 16 17  2  0
 16 18  1  0
 18 19  2  0
 19 20  1  0
 20 21  2  0
 21 22  1  0
 14  9  1  0
 22 18  1  0
  1 23  1  0
  1 24  1  0
  1 25  1  0
  2 26  1  0
  5 27  1  0
  5 28  1  0
 10 29  1  0
 11 30  1  0
 12 31  1  0
 13 32  1  0
 15 33  1  0
 19 34  1  0
 20 35  1  0
 21 36  1  0
M  END
$$$$
