
     RDKit          3D

 57 60  0  0  0  0  0  0  0  0999 V2000
   -7.7152   -0.8689   -0.2533 C   0  0  0  0  0  0  0  0  0  0  0  0
   -6.2734   -0.5214   -0.4771 C   0  0  0  0  0  0  0  0  0  0  0  0
   -5.7296    0.6303    0.0959 C   0  0  0  0  0  0  0  0  0  0  0  0
   -4.3827    0.9488   -0.0921 C   0  0  0  0  0  0  0  0  0  0  0  0
   -3.5524    0.1123   -0.8450 C   0  0  0  0  0  0  0  0  0  0  0  0
   -2.1770    0.4577   -1.0271 N   0  0  0  0  0  0  0  0  0  0  0  0
   -1.6991    1.7430   -1.2899 C   0  0  0  0  0  0  0  0  0  0  0  0
   -2.5500    2.9107   -1.6627 C   0  0  0  0  0  0  0  0  0  0  0  0
   -0.3206    1.7053   -1.2567 C   0  0  0  0  0  0  0  0  0  0  0  0
    0.0754    0.3715   -0.9974 C   0  0  0  0  0  0  0  0  0  0  0  0
    1.4394   -0.0859   -0.8083 C   0  0  0  0  0  0  0  0  0  0  0  0
    2.0570   -0.0401   -1.9059 O   0  0  0  0  0  1  0  0  0  0  0  0
    1.8769   -0.4497    0.4284 C   0  0  0  0  0  0  0  0  0  0  0  0
    3.3452   -0.8898    0.6767 C   0  0  0  0  0  0  0  0  0  0  0  0
    3.7606   -1.7665    2.0649 S   0  0  0  0  0  0  0  0  0  0  0  0
    4.2197   -0.3963   -0.2756 N   0  0  0  0  0  0  0  0  0  0  0  0
    5.6234   -0.3695   -0.4270 C   0  0  0  0  0  0  0  0  0  0  0  0
    6.1077    0.4795   -1.4380 C   0  0  0  0  0  0  0  0  0  0  0  0
    7.4776    0.6300   -1.6824 C   0  0  0  0  0  0  0  0  0  0  0  0
    8.3799   -0.0926   -0.9041 C   0  0  0  0  0  0  0  0  0  0  0  0
    9.6927    0.0548   -1.1516 F   0  0  0  0  0  0  0  0  0  0  0  0
    7.9190   -0.9597    0.0987 C   0  0  0  0  0  0  0  0  0  0  0  0
    9.0320   -1.8999    0.9969 Cl  0  0  0  0  0  0  0  0  0  0  0  0
    6.5480   -1.0906    0.3376 C   0  0  0  0  0  0  0  0  0  0  0  0
    0.9742   -0.1699    1.6180 N   0  0  0  0  0  4  0  0  0  0  0  0
    0.7586    1.1193    1.9621 C   0  0  0  0  0  0  0  0  0  0  0  0
   -0.0187    1.4422    3.0674 C   0  0  0  0  0  0  0  0  0  0  0  0
   -0.5803    0.4224    3.8246 C   0  0  0  0  0  0  0  0  0  0  0  0
   -0.3558   -0.8999    3.4576 C   0  0  0  0  0  0  0  0  0  0  0  0
    0.4338   -1.1735    2.3389 C   0  0  0  0  0  0  0  0  0  0  0  0
   -1.0773   -0.4036   -0.9207 C   0  0  0  0  0  0  0  0  0  0  0  0
   -1.1780   -1.8779   -0.7183 C   0  0  0  0  0  0  0  0  0  0  0  0
   -4.0914   -1.0471   -1.4076 C   0  0  0  0  0  0  0  0  0  0  0  0
   -5.4415   -1.3631   -1.2187 C   0  0  0  0  0  0  0  0  0  0  0  0
   -7.8334   -1.3529    0.7192 H   0  0  0  0  0  0  0  0  0  0  0  0
   -8.3388    0.0327   -0.2777 H   0  0  0  0  0  0  0  0  0  0  0  0
   -8.0874   -1.5410   -1.0368 H   0  0  0  0  0  0  0  0  0  0  0  0
   -6.3538    1.2912    0.6898 H   0  0  0  0  0  0  0  0  0  0  0  0
   -3.9951    1.8423    0.3852 H   0  0  0  0  0  0  0  0  0  0  0  0
   -1.9954    3.5831   -2.3261 H   0  0  0  0  0  0  0  0  0  0  0  0
   -2.8318    3.4861   -0.7762 H   0  0  0  0  0  0  0  0  0  0  0  0
   -3.4518    2.6059   -2.2050 H   0  0  0  0  0  0  0  0  0  0  0  0
    0.3432    2.5394   -1.4430 H   0  0  0  0  0  0  0  0  0  0  0  0
    3.7155   -0.0267   -1.0938 H   0  0  0  0  0  0  0  0  0  0  0  0
    5.4187    1.0498   -2.0527 H   0  0  0  0  0  0  0  0  0  0  0  0
    7.8394    1.2947   -2.4777 H   0  0  0  0  0  0  0  0  0  0  0  0
    6.2408   -1.8133    1.0823 H   0  0  0  0  0  0  0  0  0  0  0  0
    1.2182    1.8782    1.3374 H   0  0  0  0  0  0  0  0  0  0  0  0
   -0.1874    2.4824    3.3321 H   0  0  0  0  0  0  0  0  0  0  0  0
   -1.1900    0.6633    4.6961 H   0  0  0  0  0  0  0  0  0  0  0  0
   -0.7982   -1.7191    4.0365 H   0  0  0  0  0  0  0  0  0  0  0  0
    0.6266   -2.1912    2.0035 H   0  0  0  0  0  0  0  0  0  0  0  0
   -1.9093   -2.1280    0.0566 H   0  0  0  0  0  0  0  0  0  0  0  0
   -1.4421   -2.3738   -1.6518 H   0  0  0  0  0  0  0  0  0  0  0  0
   -0.2262   -2.3043   -0.4035 H   0  0  0  0  0  0  0  0  0  0  0  0
   -3.4977   -1.6937   -2.0410 H   0  0  0  0  0  0  0  0  0  0  0  0
   -5.8423   -2.2666   -1.6722 H   0  0  0  0  0  0  0  0  0  0  0  0
  1  2  1  0
  2  3  2  0
  3  4  1  0
  4  5  2  0
  5  6  1  0
  6  7  1  0
  7  8  1  0
  7  9  2  0
  9 10  1  0
 10 11  1  0
 11 12  1  0
 11 13  2  3
 13 14  1  0
 14 15  2  0
 14 16  1  0
 16 17  1  0
 17 18  2  0
 18 19  1  0
 19 20  2  0
 20 21  1  0
 20 22  1  0
 22 23  1  0
 22 24  2  0
 13 25  1  0
 25 26  2  0
 26 27  1  0
 27 28  2  0
 28 29  1  0
 29 30  2  0
 10 31  2  0
 31 32  1  0
  5 33  1  0
 33 34  2  0
 34  2  1  0
 31  6  1  0
 24 17  1  0
 30 25  1  0
  1 35  1  0
  1 36  1  0
  1 37  1  0
  3 38  1  0
  4 39  1  0
  8 40  1  0
  8 41  1  0
  8 42  1  0
  9 43  1  0
 16 44  1  0
 18 45  1  0
 19 46  1  0
 24 47  1  0
 26 48  1  0
 27 49  1  0
 28 50  1  0
 29 51  1  0
 30 52  1  0
 32 53  1  0
 32 54  1  0
 32 55  1  0
 33 56  1  0
 34 57  1  0
M  CHG  2  12  -1  25   1
M  END
$$$$
