
     RDKit          3D

 70 72  0  0  0  0  0  0  0  0999 V2000
    7.6250    0.9006    2.6135 C   0  0  0  0  0  0  0  0  0  0  0  0
    7.6650   -0.5607    2.1898 C   0  0  0  0  0  0  0  0  0  0  0  0
    6.3178   -1.0946    1.6982 C   0  0  0  0  0  0  0  0  0  0  0  0
    5.8206   -0.4102    0.4215 C   0  0  0  0  0  0  0  0  0  0  0  0
    4.5276   -1.0572   -0.0820 C   0  0  0  0  0  0  0  0  0  0  0  0
    4.0220   -0.4651   -1.4028 C   0  0  0  0  0  0  0  0  0  0  0  0
    3.5914    1.0001   -1.2796 C   0  0  0  0  0  0  0  0  0  0  0  0
    2.9295    1.5393   -2.5526 C   0  0  0  0  0  0  0  0  0  0  0  0
    1.3947    1.5677   -2.5077 C   0  0  0  0  0  0  0  0  0  0  0  0
    0.7652    0.1732   -2.5020 C   0  0  0  0  0  0  0  0  0  0  0  0
   -0.7919    0.1843   -2.4967 N   0  0  0  0  0  4  0  0  0  0  0  0
   -1.2356   -1.2659   -2.7620 C   0  0  0  0  0  0  0  0  0  0  0  0
   -1.3353    1.0622   -3.6192 C   0  0  0  0  0  0  0  0  0  0  0  0
   -1.3005    0.6376   -1.1056 C   0  0  0  0  0  0  0  0  0  0  0  0
   -2.8205    0.8470   -1.0310 C   0  0  0  0  0  0  0  0  0  0  0  0
   -3.2916    1.0406    0.3896 C   0  0  0  0  0  0  0  0  0  0  0  0
   -4.0623    0.2197    1.1405 C   0  0  0  0  0  0  0  0  0  0  0  0
   -4.6237    0.7742    2.4033 C   0  0  0  0  0  0  0  0  0  0  0  0
   -3.8202    1.4081    3.3649 C   0  0  0  0  0  0  0  0  0  0  0  0
   -4.3910    1.9318    4.5258 C   0  0  0  0  0  0  0  0  0  0  0  0
   -5.7641    1.8217    4.7394 C   0  0  0  0  0  0  0  0  0  0  0  0
   -6.5702    1.1713    3.8033 C   0  0  0  0  0  0  0  0  0  0  0  0
   -6.0067    0.6341    2.6408 C   0  0  0  0  0  0  0  0  0  0  0  0
   -7.0873   -0.2065    1.4802 S   0  0  0  0  0  0  0  0  0  0  0  0
   -5.9433   -1.3613    0.7272 C   0  0  0  0  0  0  0  0  0  0  0  0
   -6.4439   -2.5733    0.2331 C   0  0  0  0  0  0  0  0  0  0  0  0
   -5.5810   -3.5188   -0.3287 C   0  0  0  0  0  0  0  0  0  0  0  0
   -4.2127   -3.2640   -0.3665 C   0  0  0  0  0  0  0  0  0  0  0  0
   -3.1349   -4.4180   -1.0462 Cl  0  0  0  0  0  0  0  0  0  0  0  0
   -3.7001   -2.0663    0.1328 C   0  0  0  0  0  0  0  0  0  0  0  0
   -4.5648   -1.0842    0.6377 C   0  0  0  0  0  0  0  0  0  0  0  0
    8.5868    1.1913    3.0486 H   0  0  0  0  0  0  0  0  0  0  0  0
    6.8476    1.0692    3.3660 H   0  0  0  0  0  0  0  0  0  0  0  0
    7.4345    1.5605    1.7617 H   0  0  0  0  0  0  0  0  0  0  0  0
    8.4245   -0.6917    1.4100 H   0  0  0  0  0  0  0  0  0  0  0  0
    7.9842   -1.1623    3.0491 H   0  0  0  0  0  0  0  0  0  0  0  0
    6.4243   -2.1696    1.5098 H   0  0  0  0  0  0  0  0  0  0  0  0
    5.5685   -0.9860    2.4917 H   0  0  0  0  0  0  0  0  0  0  0  0
    5.6443    0.6509    0.6240 H   0  0  0  0  0  0  0  0  0  0  0  0
    6.5913   -0.4738   -0.3566 H   0  0  0  0  0  0  0  0  0  0  0  0
    3.7468   -0.9652    0.6837 H   0  0  0  0  0  0  0  0  0  0  0  0
    4.6972   -2.1315   -0.2321 H   0  0  0  0  0  0  0  0  0  0  0  0
    4.8021   -0.5555   -2.1697 H   0  0  0  0  0  0  0  0  0  0  0  0
    3.1808   -1.0787   -1.7447 H   0  0  0  0  0  0  0  0  0  0  0  0
    2.9300    1.1353   -0.4153 H   0  0  0  0  0  0  0  0  0  0  0  0
    4.4856    1.6065   -1.0900 H   0  0  0  0  0  0  0  0  0  0  0  0
    3.2747    0.9909   -3.4372 H   0  0  0  0  0  0  0  0  0  0  0  0
    3.2604    2.5772   -2.6875 H   0  0  0  0  0  0  0  0  0  0  0  0
    1.0802    2.1500   -1.6346 H   0  0  0  0  0  0  0  0  0  0  0  0
    1.0641    2.1209   -3.3947 H   0  0  0  0  0  0  0  0  0  0  0  0
    1.0744   -0.3754   -3.3999 H   0  0  0  0  0  0  0  0  0  0  0  0
    1.0633   -0.3975   -1.6155 H   0  0  0  0  0  0  0  0  0  0  0  0
   -0.8265   -1.5768   -3.7272 H   0  0  0  0  0  0  0  0  0  0  0  0
   -0.8467   -1.8986   -1.9580 H   0  0  0  0  0  0  0  0  0  0  0  0
   -2.3259   -1.3086   -2.7945 H   0  0  0  0  0  0  0  0  0  0  0  0
   -0.8071    0.8092   -4.5433 H   0  0  0  0  0  0  0  0  0  0  0  0
   -1.1806    2.1117   -3.3526 H   0  0  0  0  0  0  0  0  0  0  0  0
   -2.4030    0.8599   -3.7382 H   0  0  0  0  0  0  0  0  0  0  0  0
   -0.7992    1.5799   -0.8628 H   0  0  0  0  0  0  0  0  0  0  0  0
   -0.9649   -0.1214   -0.3883 H   0  0  0  0  0  0  0  0  0  0  0  0
   -3.0849    1.7587   -1.5839 H   0  0  0  0  0  0  0  0  0  0  0  0
   -3.3721    0.0429   -1.5228 H   0  0  0  0  0  0  0  0  0  0  0  0
   -3.0461    2.0256    0.7921 H   0  0  0  0  0  0  0  0  0  0  0  0
   -2.7458    1.4935    3.2240 H   0  0  0  0  0  0  0  0  0  0  0  0
   -3.7660    2.4284    5.2653 H   0  0  0  0  0  0  0  0  0  0  0  0
   -6.2109    2.2350    5.6410 H   0  0  0  0  0  0  0  0  0  0  0  0
   -7.6402    1.0875    3.9912 H   0  0  0  0  0  0  0  0  0  0  0  0
   -7.5113   -2.7941    0.2917 H   0  0  0  0  0  0  0  0  0  0  0  0
   -5.9844   -4.4551   -0.7086 H   0  0  0  0  0  0  0  0  0  0  0  0
   -2.6271   -1.9108    0.1488 H   0  0  0  0  0  0  0  0  0  0  0  0
  1  2  1  0
  2  3  1  0
  3  4  1  0
  4  5  1  0
  5  6  1  0
  6  7  1  0
  7  8  1  0
  8  9  1  0
  9 10  1  0
 10 11  1  0
 11 12  1  0
 11 13  1  0
 11 14  1  0
 14 15  1  0
 15 16  1  0
 16 17  2  3
 17 18  1  0
 18 19  2  0
 19 20  1  0
 20 21  2  0
 21 22  1  0
 22 23  2  0
 23 24  1  0
 24 25  1  0
 25 26  2  0
 26 27  1  0
 27 28  2  0
 28 29  1  0
 28 30  1  0
 30 31  2  0
 31 17  1  0
 23 18  1  0
 31 25  1  0
  1 32  1  0
  1 33  1  0
  1 34  1  0
  2 35  1  0
  2 36  1  0
  3 37  1  0
  3 38  1  0
  4 39  1  0
  4 40  1  0
  5 41  1  0
  5 42  1  0
  6 43  1  0
  6 44  1  0
  7 45  1  0
  7 46  1  0
  8 47  1  0
  8 48  1  0
  9 49  1  0
  9 50  1  0
 10 51  1  0
 10 52  1  0
 12 53  1  0
 12 54  1  0
 12 55  1  0
 13 56  1  0
 13 57  1  0
 13 58  1  0
 14 59  1  0
 14 60  1  0
 15 61  1  0
 15 62  1  0
 16 63  1  0
 19 64  1  0
 20 65  1  0
 21 66  1  0
 22 67  1  0
 26 68  1  0
 27 69  1  0
 30 70  1  0
M  CHG  1  11   1
M  END
$$$$
