
     RDKit          3D

 46 48  0  0  0  0  0  0  0  0999 V2000
    8.1453   -1.4576   -1.3143 C   0  0  0  0  0  0  0  0  0  0  0  0
    7.5556   -0.1672   -1.2120 O   0  0  0  0  0  0  0  0  0  0  0  0
    6.1281   -0.2022   -1.2348 C   0  0  0  0  0  0  0  0  0  0  0  0
    5.5502   -0.4585    0.1615 C   0  0  0  0  0  0  0  0  0  0  0  0
    4.0917   -0.5746    0.1433 N   0  0  0  0  0  0  0  0  0  0  0  0
    3.3334    0.5792    0.2358 C   0  0  0  0  0  0  0  0  0  0  0  0
    3.7677    1.7181    0.3366 O   0  0  0  0  0  0  0  0  0  0  0  0
    1.8861    0.2501    0.1733 C   0  0  0  0  0  0  0  0  0  0  0  0
    0.9426    1.1954    0.2728 C   0  0  0  0  0  0  0  0  0  0  0  0
   -0.5040    0.9536    0.2282 C   0  0  0  0  0  0  0  0  0  0  0  0
   -1.1249    0.7975   -1.0125 C   0  0  0  0  0  0  0  0  0  0  0  0
   -2.5029    0.5618   -1.0955 C   0  0  0  0  0  0  0  0  0  0  0  0
   -3.3126    0.4716    0.0442 C   0  0  0  0  0  0  0  0  0  0  0  0
   -4.6647    0.2382   -0.0420 N   0  0  0  0  0  0  0  0  0  0  0  0
   -5.4118    0.1830   -1.2963 C   0  0  0  0  0  0  0  0  0  0  0  0
   -6.8726    0.1856   -0.8533 C   0  0  0  0  0  0  0  0  0  0  0  0
   -6.8257   -0.5368    0.4813 C   0  0  0  0  0  0  0  0  0  0  0  0
   -5.5299   -0.0247    1.1057 C   0  0  0  0  0  0  0  0  0  0  0  0
   -2.6641    0.6362    1.2801 C   0  0  0  0  0  0  0  0  0  0  0  0
   -1.2789    0.8783    1.3939 C   0  0  0  0  0  0  0  0  0  0  0  0
   -0.6700    1.0360    2.7605 C   0  0  0  0  0  0  0  0  0  0  0  0
    1.6713   -1.4412   -0.0284 S   0  0  0  0  0  0  0  0  0  0  0  0
    3.4015   -1.7546   -0.0416 C   0  0  0  0  0  0  0  0  0  0  0  0
    4.0263   -3.2860   -0.2607 S   0  0  0  0  0  0  0  0  0  0  0  0
    7.8597   -1.9349   -2.2566 H   0  0  0  0  0  0  0  0  0  0  0  0
    7.8577   -2.0893   -0.4697 H   0  0  0  0  0  0  0  0  0  0  0  0
    9.2321   -1.3383   -1.3020 H   0  0  0  0  0  0  0  0  0  0  0  0
    5.7894    0.7776   -1.5897 H   0  0  0  0  0  0  0  0  0  0  0  0
    5.7746   -0.9387   -1.9660 H   0  0  0  0  0  0  0  0  0  0  0  0
    5.8397    0.3673    0.8234 H   0  0  0  0  0  0  0  0  0  0  0  0
    5.9873   -1.3581    0.6045 H   0  0  0  0  0  0  0  0  0  0  0  0
    1.2238    2.2381    0.4092 H   0  0  0  0  0  0  0  0  0  0  0  0
   -0.5468    0.8537   -1.9318 H   0  0  0  0  0  0  0  0  0  0  0  0
   -2.9298    0.4385   -2.0865 H   0  0  0  0  0  0  0  0  0  0  0  0
   -5.1760   -0.7419   -1.8351 H   0  0  0  0  0  0  0  0  0  0  0  0
   -5.2130    1.0429   -1.9448 H   0  0  0  0  0  0  0  0  0  0  0  0
   -7.2203    1.2156   -0.7084 H   0  0  0  0  0  0  0  0  0  0  0  0
   -7.5311   -0.2999   -1.5787 H   0  0  0  0  0  0  0  0  0  0  0  0
   -6.7620   -1.6195    0.3176 H   0  0  0  0  0  0  0  0  0  0  0  0
   -7.6998   -0.3358    1.1067 H   0  0  0  0  0  0  0  0  0  0  0  0
   -5.7112    0.9032    1.6601 H   0  0  0  0  0  0  0  0  0  0  0  0
   -5.1164   -0.7788    1.7839 H   0  0  0  0  0  0  0  0  0  0  0  0
   -3.2468    0.5860    2.1964 H   0  0  0  0  0  0  0  0  0  0  0  0
   -1.4323    1.0128    3.5465 H   0  0  0  0  0  0  0  0  0  0  0  0
   -0.1508    1.9966    2.8398 H   0  0  0  0  0  0  0  0  0  0  0  0
    0.0345    0.2218    2.9585 H   0  0  0  0  0  0  0  0  0  0  0  0
  1  2  1  0
  2  3  1  0
  3  4  1  0
  4  5  1  0
  5  6  1  0
  6  7  2  0
  6  8  1  0
  8  9  2  3
  9 10  1  0
 10 11  2  0
 11 12  1  0
 12 13  2  0
 13 14  1  0
 14 15  1  0
 15 16  1  0
 16 17  1  0
 17 18  1  0
 13 19  1  0
 19 20  2  0
 20 21  1  0
  8 22  1  0
 22 23  1  0
 23 24  2  0
 23  5  1  0
 20 10  1  0
 18 14  1  0
  1 25  1  0
  1 26  1  0
  1 27  1  0
  3 28  1  0
  3 29  1  0
  4 30  1  0
  4 31  1  0
  9 32  1  0
 11 33  1  0
 12 34  1  0
 15 35  1  0
 15 36  1  0
 16 37  1  0
 16 38  1  0
 17 39  1  0
 17 40  1  0
 18 41  1  0
 18 42  1  0
 19 43  1  0
 21 44  1  0
 21 45  1  0
 21 46  1  0
M  END
$$$$
