
     RDKit          3D

 34 36  0  0  0  0  0  0  0  0999 V2000
   -0.3656   -1.7224   -1.5990 O   0  0  0  0  0  0  0  0  0  0  0  0
    0.1665   -1.4383   -0.5341 C   0  0  0  0  0  0  0  0  0  0  0  0
    1.5577   -0.9095   -0.4149 C   0  0  0  0  0  0  0  0  0  0  0  0
    2.3203   -0.7199   -1.4996 C   0  0  0  0  0  0  0  0  0  0  0  0
    3.7009   -0.2414   -1.5476 C   0  0  0  0  0  0  0  0  0  0  0  0
    4.1074    0.9523   -0.9598 C   0  0  0  0  0  0  0  0  0  0  0  0
    5.4366    1.3467   -1.0943 C   0  0  0  0  0  0  0  0  0  0  0  0
    6.3129    0.5497   -1.8198 C   0  0  0  0  0  0  0  0  0  0  0  0
    5.8187   -0.6107   -2.3897 C   0  0  0  0  0  0  0  0  0  0  0  0
    4.5347   -1.0166   -2.2769 N   0  0  0  0  0  0  0  0  0  0  0  0
    1.9788   -0.6658    1.2422 S   0  0  0  0  0  0  0  0  0  0  0  0
    0.4203   -1.2312    1.8285 C   0  0  0  0  0  0  0  0  0  0  0  0
    0.0281   -1.3604    3.4461 S   0  0  0  0  0  0  0  0  0  0  0  0
   -0.3651   -1.5557    0.7427 N   0  0  0  0  0  0  0  0  0  0  0  0
   -1.7065   -1.9836    0.8894 N   0  0  0  0  0  0  0  0  0  0  0  0
   -2.6326   -0.9006    0.8806 C   0  0  0  0  0  0  0  0  0  0  0  0
   -2.1985    0.3484    0.5656 N   0  0  0  0  0  0  0  0  0  0  0  0
   -3.1075    1.3514    0.5184 C   0  0  0  0  0  0  0  0  0  0  0  0
   -4.4580    1.1888    0.7842 C   0  0  0  0  0  0  0  0  0  0  0  0
   -5.3912    2.3554    0.6855 C   0  0  0  0  0  0  0  0  0  0  0  0
   -4.8150    3.5287    1.0648 F   0  0  0  0  0  0  0  0  0  0  0  0
   -5.8430    2.5504   -0.5819 F   0  0  0  0  0  0  0  0  0  0  0  0
   -6.4996    2.2166    1.4634 F   0  0  0  0  0  0  0  0  0  0  0  0
   -4.9006   -0.0973    1.1041 C   0  0  0  0  0  0  0  0  0  0  0  0
   -3.9862   -1.1497    1.1532 C   0  0  0  0  0  0  0  0  0  0  0  0
   -4.5567   -2.7236    1.5740 Cl  0  0  0  0  0  0  0  0  0  0  0  0
    1.9280   -0.9856   -2.4802 H   0  0  0  0  0  0  0  0  0  0  0  0
    3.4108    1.5784   -0.4128 H   0  0  0  0  0  0  0  0  0  0  0  0
    5.7821    2.2712   -0.6403 H   0  0  0  0  0  0  0  0  0  0  0  0
    7.3533    0.8283   -1.9438 H   0  0  0  0  0  0  0  0  0  0  0  0
    6.4604   -1.2653   -2.9727 H   0  0  0  0  0  0  0  0  0  0  0  0
   -1.8425   -2.5332    1.7389 H   0  0  0  0  0  0  0  0  0  0  0  0
   -2.6954    2.3228    0.2492 H   0  0  0  0  0  0  0  0  0  0  0  0
   -5.9536   -0.2784    1.3123 H   0  0  0  0  0  0  0  0  0  0  0  0
  1  2  2  0
  2  3  1  0
  3  4  2  3
  4  5  1  0
  5  6  2  0
  6  7  1  0
  7  8  2  0
  8  9  1  0
  9 10  2  0
  3 11  1  0
 11 12  1  0
 12 13  2  0
 12 14  1  0
 14 15  1  0
 15 16  1  0
 16 17  2  0
 17 18  1  0
 18 19  2  0
 19 20  1  0
 20 21  1  0
 20 22  1  0
 20 23  1  0
 19 24  1  0
 24 25  2  0
 25 26  1  0
 14  2  1  0
 25 16  1  0
 10  5  1  0
  4 27  1  0
  6 28  1  0
  7 29  1  0
  8 30  1  0
  9 31  1  0
 15 32  1  0
 18 33  1  0
 24 34  1  0
M  END
$$$$
