
     RDKit          3D

 38 40  0  0  0  0  0  0  0  0999 V2000
    3.3725    3.9656    1.1499 C   0  0  0  0  0  0  0  0  0  0  0  0
    3.1983    2.5982    0.5100 C   0  0  0  0  0  0  0  0  0  0  0  0
    1.9579    1.8847    1.0126 C   0  0  0  0  0  0  0  0  0  0  0  0
    1.0816    2.4290    1.6714 O   0  0  0  0  0  0  0  0  0  0  0  0
    1.9099    0.5691    0.6310 N   0  0  0  0  0  0  0  0  0  0  0  0
    0.8026   -0.3069    0.9831 C   0  0  0  0  0  0  0  0  0  0  0  0
    1.3371   -1.7081    1.0095 C   0  0  0  0  0  0  0  0  0  0  0  0
    1.1890   -2.7509    1.9025 C   0  0  0  0  0  0  0  0  0  0  0  0
    1.9384   -3.8324    1.3846 C   0  0  0  0  0  0  0  0  0  0  0  0
    2.4878   -3.3904    0.2039 C   0  0  0  0  0  0  0  0  0  0  0  0
    2.1372   -2.1008   -0.0320 O   0  0  0  0  0  0  0  0  0  0  0  0
   -0.3785   -0.1795    0.0362 C   0  0  0  0  0  0  0  0  0  0  0  0
   -0.2310    0.2189   -1.2971 C   0  0  0  0  0  0  0  0  0  0  0  0
   -1.3423    0.3110   -2.1431 C   0  0  0  0  0  0  0  0  0  0  0  0
   -1.0513    0.8271   -3.7722 Cl  0  0  0  0  0  0  0  0  0  0  0  0
   -2.6434   -0.0063   -1.6851 C   0  0  0  0  0  0  0  0  0  0  0  0
   -3.8170    0.0569   -2.4688 C   0  0  0  0  0  0  0  0  0  0  0  0
   -5.0522   -0.2788   -1.9251 C   0  0  0  0  0  0  0  0  0  0  0  0
   -5.0893   -0.6734   -0.6059 C   0  0  0  0  0  0  0  0  0  0  0  0
   -3.9961   -0.7530    0.1838 N   0  0  0  0  0  0  0  0  0  0  0  0
   -2.8006   -0.4222   -0.3514 C   0  0  0  0  0  0  0  0  0  0  0  0
   -1.6714   -0.5032    0.4661 C   0  0  0  0  0  0  0  0  0  0  0  0
   -1.8548   -0.9355    1.7631 O   0  0  0  0  0  0  0  0  0  0  0  0
    3.4576    3.8754    2.2398 H   0  0  0  0  0  0  0  0  0  0  0  0
    2.5192    4.6174    0.9322 H   0  0  0  0  0  0  0  0  0  0  0  0
    4.2786    4.4519    0.7746 H   0  0  0  0  0  0  0  0  0  0  0  0
    3.1140    2.7076   -0.5774 H   0  0  0  0  0  0  0  0  0  0  0  0
    4.0763    1.9798    0.7286 H   0  0  0  0  0  0  0  0  0  0  0  0
    2.6375    0.1719    0.0507 H   0  0  0  0  0  0  0  0  0  0  0  0
    0.4859   -0.0199    1.9938 H   0  0  0  0  0  0  0  0  0  0  0  0
    0.6044   -2.7246    2.8133 H   0  0  0  0  0  0  0  0  0  0  0  0
    2.0577   -4.8162    1.8155 H   0  0  0  0  0  0  0  0  0  0  0  0
    3.1204   -3.8484   -0.5447 H   0  0  0  0  0  0  0  0  0  0  0  0
    0.7536    0.4631   -1.6881 H   0  0  0  0  0  0  0  0  0  0  0  0
   -3.7776    0.3700   -3.5082 H   0  0  0  0  0  0  0  0  0  0  0  0
   -5.9576   -0.2331   -2.5202 H   0  0  0  0  0  0  0  0  0  0  0  0
   -6.0280   -0.9450   -0.1322 H   0  0  0  0  0  0  0  0  0  0  0  0
   -2.8263   -1.0693    1.8324 H   0  0  0  0  0  0  0  0  0  0  0  0
  1  2  1  0
  2  3  1  0
  3  4  2  0
  3  5  1  0
  5  6  1  0
  6  7  1  0
  7  8  2  0
  8  9  1  0
  9 10  2  0
 10 11  1  0
  6 12  1  0
 12 13  2  0
 13 14  1  0
 14 15  1  0
 14 16  2  0
 16 17  1  0
 17 18  2  0
 18 19  1  0
 19 20  2  0
 20 21  1  0
 21 22  2  0
 22 23  1  0
 11  7  1  0
 22 12  1  0
 21 16  1  0
  1 24  1  0
  1 25  1  0
  1 26  1  0
  2 27  1  0
  2 28  1  0
  5 29  1  0
  6 30  1  0
  8 31  1  0
  9 32  1  0
 10 33  1  0
 13 34  1  0
 17 35  1  0
 18 36  1  0
 19 37  1  0
 23 38  1  0
M  END
$$$$
