
     RDKit          3D

 43 45  0  0  0  0  0  0  0  0999 V2000
    7.2767   -1.2269   -1.6060 C   0  0  0  0  0  0  0  0  0  0  0  0
    5.8484   -0.8214   -1.3379 C   0  0  0  0  0  0  0  0  0  0  0  0
    5.5759    0.6360   -1.1546 C   0  0  0  0  0  0  0  0  0  0  0  0
    4.2992    0.9967   -0.9206 C   0  0  0  0  0  0  0  0  0  0  0  0
    3.9503    2.4412   -0.7271 C   0  0  0  0  0  0  0  0  0  0  0  0
    3.3233   -0.0182   -0.8676 N   0  0  0  0  0  0  0  0  0  0  0  0
    1.9571   -0.0540   -0.6568 C   0  0  0  0  0  0  0  0  0  0  0  0
    0.9413    1.3155   -0.3532 S   0  0  0  0  0  0  0  0  0  0  0  0
   -0.6719    0.4899   -0.2065 C   0  0  0  0  0  0  0  0  0  0  0  0
   -1.8075    1.4664    0.0945 C   0  0  0  0  0  0  0  0  0  0  0  0
   -1.6345    2.6863    0.1125 O   0  0  0  0  0  0  0  0  0  0  0  0
   -3.0811    0.9040    0.3319 N   0  0  0  0  0  0  0  0  0  0  0  0
   -4.1421    1.8371    0.7061 C   0  0  0  0  0  0  0  0  0  0  0  0
   -3.3117   -0.5551    0.4748 C   0  0  0  0  0  0  0  0  0  0  0  0
   -4.6970   -1.0667    0.0447 C   0  0  0  0  0  0  0  0  0  0  0  0
   -5.6356   -0.9969    1.2378 C   0  0  0  0  0  0  0  0  0  0  0  0
   -4.6218   -1.3367    2.6589 S   0  0  0  0  0  6  0  0  0  0  0  0
   -4.7424   -2.7444    2.9776 O   0  0  0  0  0  0  0  0  0  0  0  0
   -4.8502   -0.3006    3.6439 O   0  0  0  0  0  0  0  0  0  0  0  0
   -3.0369   -1.0694    1.8919 C   0  0  0  0  0  0  0  0  0  0  0  0
    1.5136   -1.2888   -0.7112 N   0  0  0  0  0  0  0  0  0  0  0  0
    2.5808   -2.1064   -0.9597 N   0  0  0  0  0  0  0  0  0  0  0  0
    3.6653   -1.3636   -1.0559 C   0  0  0  0  0  0  0  0  0  0  0  0
    4.9491   -1.7560   -1.2958 N   0  0  0  0  0  0  0  0  0  0  0  0
    7.5533   -2.0498   -0.9396 H   0  0  0  0  0  0  0  0  0  0  0  0
    7.3652   -1.5621   -2.6442 H   0  0  0  0  0  0  0  0  0  0  0  0
    7.9671   -0.3953   -1.4407 H   0  0  0  0  0  0  0  0  0  0  0  0
    6.3991    1.3362   -1.2177 H   0  0  0  0  0  0  0  0  0  0  0  0
    3.2478    2.7809   -1.4941 H   0  0  0  0  0  0  0  0  0  0  0  0
    4.8347    3.0846   -0.8060 H   0  0  0  0  0  0  0  0  0  0  0  0
    3.5276    2.6126    0.2676 H   0  0  0  0  0  0  0  0  0  0  0  0
   -0.8930   -0.0136   -1.1527 H   0  0  0  0  0  0  0  0  0  0  0  0
   -0.6042   -0.2362    0.6085 H   0  0  0  0  0  0  0  0  0  0  0  0
   -5.0278    1.6421    0.0975 H   0  0  0  0  0  0  0  0  0  0  0  0
   -4.3703    1.7077    1.7666 H   0  0  0  0  0  0  0  0  0  0  0  0
   -3.8604    2.8808    0.5453 H   0  0  0  0  0  0  0  0  0  0  0  0
   -2.5934   -1.0373   -0.1951 H   0  0  0  0  0  0  0  0  0  0  0  0
   -5.0991   -0.5333   -0.8223 H   0  0  0  0  0  0  0  0  0  0  0  0
   -4.5973   -2.1204   -0.2481 H   0  0  0  0  0  0  0  0  0  0  0  0
   -6.0768   -0.0058    1.3607 H   0  0  0  0  0  0  0  0  0  0  0  0
   -6.4356   -1.7387    1.1763 H   0  0  0  0  0  0  0  0  0  0  0  0
   -2.4512   -0.3788    2.5031 H   0  0  0  0  0  0  0  0  0  0  0  0
   -2.5343   -2.0413    1.8548 H   0  0  0  0  0  0  0  0  0  0  0  0
  1  2  1  0
  2  3  1  0
  3  4  2  0
  4  5  1  0
  4  6  1  0
  6  7  1  0
  7  8  1  0
  8  9  1  0
  9 10  1  0
 10 11  2  0
 10 12  1  0
 12 13  1  0
 12 14  1  0
 14 15  1  0
 15 16  1  0
 16 17  1  0
 17 18  2  0
 17 19  2  0
 17 20  1  0
  7 21  2  0
 21 22  1  0
 22 23  2  0
 23 24  1  0
 24  2  2  0
 23  6  1  0
 20 14  1  0
  1 25  1  0
  1 26  1  0
  1 27  1  0
  3 28  1  0
  5 29  1  0
  5 30  1  0
  5 31  1  0
  9 32  1  0
  9 33  1  0
 13 34  1  0
 13 35  1  0
 13 36  1  0
 14 37  1  0
 15 38  1  0
 15 39  1  0
 16 40  1  0
 16 41  1  0
 20 42  1  0
 20 43  1  0
M  END
$$$$
