
     RDKit          3D

 42 43  0  0  0  0  0  0  0  0999 V2000
   -6.1087    3.3745   -1.9700 C   0  0  0  0  0  0  0  0  0  0  0  0
   -5.4692    2.6285   -0.8371 C   0  0  0  0  0  0  0  0  0  0  0  0
   -4.4181    3.2043   -0.1146 C   0  0  0  0  0  0  0  0  0  0  0  0
   -3.7949    2.5035    0.9243 C   0  0  0  0  0  0  0  0  0  0  0  0
   -4.2130    1.2131    1.2476 C   0  0  0  0  0  0  0  0  0  0  0  0
   -3.6887    0.4121    2.2243 O   0  0  0  0  0  0  0  0  0  0  0  0
   -2.7132    0.9695    3.0932 C   0  0  0  0  0  0  0  0  0  0  0  0
   -1.2869    1.0001    2.5440 C   0  0  0  0  0  0  0  0  0  0  0  0
   -0.3941    1.6838    3.0464 O   0  0  0  0  0  0  0  0  0  0  0  0
   -1.0703    0.1728    1.4598 N   0  0  0  0  0  0  0  0  0  0  0  0
    0.2618   -0.0805    1.0937 N   0  0  0  0  0  0  0  0  0  0  0  0
    0.6375   -1.4055    0.9516 C   0  0  0  0  0  0  0  0  0  0  0  0
   -0.1779   -2.3278    0.9349 O   0  0  0  0  0  0  0  0  0  0  0  0
    2.1298   -1.6198    0.8185 C   0  0  0  0  0  0  0  0  0  0  0  0
    2.6284   -1.3234   -0.9015 S   0  0  0  0  0  0  0  0  0  0  0  0
    4.3271   -1.8150   -0.7999 C   0  0  0  0  0  0  0  0  0  0  0  0
    4.9336   -1.8105    0.3977 N   0  0  0  0  0  0  0  0  0  0  0  0
    6.2276   -2.1914    0.4089 C   0  0  0  0  0  0  0  0  0  0  0  0
    6.9254   -2.5600   -0.7192 C   0  0  0  0  0  0  0  0  0  0  0  0
    8.2887   -2.9587   -0.6345 C   0  0  0  0  0  0  0  0  0  0  0  0
    9.4052   -3.2592   -0.5396 N   0  0  0  0  0  0  0  0  0  0  0  0
    6.2171   -2.5128   -1.9044 C   0  0  0  0  0  0  0  0  0  0  0  0
    6.7667   -2.8943   -3.1271 N   0  0  0  0  0  0  0  0  0  0  0  0
    4.9253   -2.1492   -1.9549 N   0  0  0  0  0  0  0  0  0  0  0  0
   -5.2493    0.6297    0.5149 C   0  0  0  0  0  0  0  0  0  0  0  0
   -5.8724    1.3278   -0.5221 C   0  0  0  0  0  0  0  0  0  0  0  0
   -6.1733    4.4429   -1.7414 H   0  0  0  0  0  0  0  0  0  0  0  0
   -7.1288    3.0190   -2.1495 H   0  0  0  0  0  0  0  0  0  0  0  0
   -5.5235    3.2404   -2.8847 H   0  0  0  0  0  0  0  0  0  0  0  0
   -4.0731    4.2074   -0.3582 H   0  0  0  0  0  0  0  0  0  0  0  0
   -2.9828    2.9995    1.4459 H   0  0  0  0  0  0  0  0  0  0  0  0
   -2.6826    0.3274    3.9809 H   0  0  0  0  0  0  0  0  0  0  0  0
   -3.0043    1.9675    3.4408 H   0  0  0  0  0  0  0  0  0  0  0  0
   -1.7465   -0.5625    1.2417 H   0  0  0  0  0  0  0  0  0  0  0  0
    0.9354    0.6290    1.3813 H   0  0  0  0  0  0  0  0  0  0  0  0
    2.3555   -2.6492    1.1161 H   0  0  0  0  0  0  0  0  0  0  0  0
    2.6547   -0.9384    1.4971 H   0  0  0  0  0  0  0  0  0  0  0  0
    6.6953   -2.1892    1.3907 H   0  0  0  0  0  0  0  0  0  0  0  0
    7.6401   -2.4274   -3.3505 H   0  0  0  0  0  0  0  0  0  0  0  0
    6.0660   -2.7454   -3.8512 H   0  0  0  0  0  0  0  0  0  0  0  0
   -5.5766   -0.3801    0.7509 H   0  0  0  0  0  0  0  0  0  0  0  0
   -6.6729    0.8473   -1.0802 H   0  0  0  0  0  0  0  0  0  0  0  0
  1  2  1  0
  2  3  2  0
  3  4  1  0
  4  5  2  0
  5  6  1  0
  6  7  1  0
  7  8  1  0
  8  9  2  0
  8 10  1  0
 10 11  1  0
 11 12  1  0
 12 13  2  0
 12 14  1  0
 14 15  1  0
 15 16  1  0
 16 17  2  0
 17 18  1  0
 18 19  2  0
 19 20  1  0
 20 21  3  0
 19 22  1  0
 22 23  1  0
 22 24  2  0
  5 25  1  0
 25 26  2  0
 26  2  1  0
 24 16  1  0
  1 27  1  0
  1 28  1  0
  1 29  1  0
  3 30  1  0
  4 31  1  0
  7 32  1  0
  7 33  1  0
 10 34  1  0
 11 35  1  0
 14 36  1  0
 14 37  1  0
 18 38  1  0
 23 39  1  0
 23 40  1  0
 25 41  1  0
 26 42  1  0
M  END
$$$$
