
     RDKit          3D

 55 58  0  0  0  0  0  0  0  0999 V2000
   -3.8236    0.1239   -2.5020 C   0  0  0  0  0  0  0  0  0  0  0  0
   -3.5203    1.0955   -1.3608 C   0  0  0  0  0  0  0  0  0  0  0  0
   -4.5675    2.2055   -1.2563 C   0  0  0  0  0  0  0  0  0  0  0  0
   -3.3033    0.4112   -0.0894 N   0  0  0  0  0  0  0  0  0  0  0  0
   -2.1272    0.4306    0.6379 C   0  0  0  0  0  0  0  0  0  0  0  0
   -1.0114    1.0691    0.1855 N   0  0  0  0  0  0  0  0  0  0  0  0
   -0.1243    0.1898   -0.6206 C   0  0  0  0  0  0  0  0  0  0  0  0
    1.2970    0.7825   -0.7356 C   0  0  0  0  0  0  0  0  0  0  0  0
    2.0005    0.9014    0.5699 N   0  0  0  0  0  0  0  0  0  0  0  0
    2.9964    2.0008    0.5260 C   0  0  0  0  0  0  0  0  0  0  0  0
    4.1513    1.6464   -0.4162 C   0  0  0  0  0  0  0  0  0  0  0  0
    4.6139    2.4377   -1.2319 O   0  0  0  0  0  0  0  0  0  0  0  0
    4.6315    0.3685   -0.2299 N   0  0  0  0  0  0  0  0  0  0  0  0
    5.6307   -0.1773   -1.1106 C   0  0  0  0  0  0  0  0  0  0  0  0
    6.0183   -1.5314   -0.6145 C   0  0  0  0  0  0  0  0  0  0  0  0
    5.4514   -2.7523   -0.9274 C   0  0  0  0  0  0  0  0  0  0  0  0
    6.0904   -3.8355   -0.2579 C   0  0  0  0  0  0  0  0  0  0  0  0
    7.1223   -3.4061    0.5450 C   0  0  0  0  0  0  0  0  0  0  0  0
    7.3175   -1.7093    0.4892 S   0  0  0  0  0  0  0  0  0  0  0  0
    1.0203    1.1174    1.6652 C   0  0  0  0  0  0  0  0  0  0  0  0
   -0.2801    1.8265    1.2344 C   0  0  0  0  0  0  0  0  0  0  0  0
   -2.2565   -0.2116    1.7745 N   0  0  0  0  0  0  0  0  0  0  0  0
   -3.5371   -0.6945    1.7826 C   0  0  0  0  0  0  0  0  0  0  0  0
   -4.1827   -1.4658    2.7616 C   0  0  0  0  0  0  0  0  0  0  0  0
   -5.5132   -1.8464    2.5564 C   0  0  0  0  0  0  0  0  0  0  0  0
   -6.1895   -1.4620    1.3998 C   0  0  0  0  0  0  0  0  0  0  0  0
   -5.5625   -0.6915    0.4140 C   0  0  0  0  0  0  0  0  0  0  0  0
   -4.2263   -0.3229    0.6304 C   0  0  0  0  0  0  0  0  0  0  0  0
   -4.7919   -0.3697   -2.3813 H   0  0  0  0  0  0  0  0  0  0  0  0
   -3.8422    0.6537   -3.4601 H   0  0  0  0  0  0  0  0  0  0  0  0
   -3.0582   -0.6578   -2.5637 H   0  0  0  0  0  0  0  0  0  0  0  0
   -2.5794    1.5926   -1.6216 H   0  0  0  0  0  0  0  0  0  0  0  0
   -4.3205    2.8973   -0.4433 H   0  0  0  0  0  0  0  0  0  0  0  0
   -5.5728    1.8162   -1.0684 H   0  0  0  0  0  0  0  0  0  0  0  0
   -4.6067    2.7833   -2.1864 H   0  0  0  0  0  0  0  0  0  0  0  0
   -0.0610   -0.8149   -0.1794 H   0  0  0  0  0  0  0  0  0  0  0  0
   -0.5467    0.0793   -1.6263 H   0  0  0  0  0  0  0  0  0  0  0  0
    1.8924    0.1445   -1.3988 H   0  0  0  0  0  0  0  0  0  0  0  0
    1.2091    1.7636   -1.2216 H   0  0  0  0  0  0  0  0  0  0  0  0
    2.5455    2.9504    0.2142 H   0  0  0  0  0  0  0  0  0  0  0  0
    3.4481    2.1455    1.5156 H   0  0  0  0  0  0  0  0  0  0  0  0
    3.9967   -0.2589    0.2564 H   0  0  0  0  0  0  0  0  0  0  0  0
    5.2007   -0.2407   -2.1164 H   0  0  0  0  0  0  0  0  0  0  0  0
    6.4837    0.5090   -1.1580 H   0  0  0  0  0  0  0  0  0  0  0  0
    4.6153   -2.8633   -1.6075 H   0  0  0  0  0  0  0  0  0  0  0  0
    5.8071   -4.8766   -0.3602 H   0  0  0  0  0  0  0  0  0  0  0  0
    7.7740   -4.0062    1.1642 H   0  0  0  0  0  0  0  0  0  0  0  0
    0.7617    0.1287    2.0666 H   0  0  0  0  0  0  0  0  0  0  0  0
    1.4780    1.6608    2.5007 H   0  0  0  0  0  0  0  0  0  0  0  0
   -0.0380    2.8146    0.8243 H   0  0  0  0  0  0  0  0  0  0  0  0
   -0.9092    2.0134    2.1145 H   0  0  0  0  0  0  0  0  0  0  0  0
   -3.6484   -1.7573    3.6586 H   0  0  0  0  0  0  0  0  0  0  0  0
   -6.0211   -2.4448    3.3085 H   0  0  0  0  0  0  0  0  0  0  0  0
   -7.2260   -1.7634    1.2611 H   0  0  0  0  0  0  0  0  0  0  0  0
   -6.1061   -0.3994   -0.4762 H   0  0  0  0  0  0  0  0  0  0  0  0
  1  2  1  0
  2  3  1  0
  2  4  1  0
  4  5  1  0
  5  6  1  0
  6  7  1  0
  7  8  1  0
  8  9  1  0
  9 10  1  0
 10 11  1  0
 11 12  2  0
 11 13  1  0
 13 14  1  0
 14 15  1  0
 15 16  2  0
 16 17  1  0
 17 18  2  0
 18 19  1  0
  9 20  1  0
 20 21  1  0
  5 22  2  0
 22 23  1  0
 23 24  2  0
 24 25  1  0
 25 26  2  0
 26 27  1  0
 27 28  2  0
 28  4  1  0
 21  6  1  0
 28 23  1  0
 19 15  1  0
  1 29  1  0
  1 30  1  0
  1 31  1  0
  2 32  1  0
  3 33  1  0
  3 34  1  0
  3 35  1  0
  7 36  1  0
  7 37  1  0
  8 38  1  0
  8 39  1  0
 10 40  1  0
 10 41  1  0
 13 42  1  0
 14 43  1  0
 14 44  1  0
 16 45  1  0
 17 46  1  0
 18 47  1  0
 20 48  1  0
 20 49  1  0
 21 50  1  0
 21 51  1  0
 24 52  1  0
 25 53  1  0
 26 54  1  0
 27 55  1  0
M  END
$$$$
