
     RDKit          3D

 45 46  0  0  0  0  0  0  0  0999 V2000
   -4.0729    1.0156    3.2127 C   0  0  0  0  0  0  0  0  0  0  0  0
   -3.4852    0.3141    2.1154 O   0  0  0  0  0  0  0  0  0  0  0  0
   -2.3910    0.9229    1.5826 C   0  0  0  0  0  0  0  0  0  0  0  0
   -1.8981    1.9720    1.9878 O   0  0  0  0  0  0  0  0  0  0  0  0
   -1.8427    0.1264    0.3981 C   0  0  0  0  0  0  0  0  0  0  0  0
   -2.4249    0.6656   -0.9178 C   0  0  0  0  0  0  0  0  0  0  0  0
   -3.8952    0.3706   -1.0939 C   0  0  0  0  0  0  0  0  0  0  0  0
   -4.3259   -0.9340   -1.3730 C   0  0  0  0  0  0  0  0  0  0  0  0
   -5.6851   -1.2137   -1.5239 C   0  0  0  0  0  0  0  0  0  0  0  0
   -6.6250   -0.1926   -1.3995 C   0  0  0  0  0  0  0  0  0  0  0  0
   -6.2068    1.1091   -1.1237 C   0  0  0  0  0  0  0  0  0  0  0  0
   -4.8479    1.3910   -0.9718 C   0  0  0  0  0  0  0  0  0  0  0  0
   -0.3809    0.2628    0.4196 N   0  0  0  0  0  0  0  0  0  0  0  0
    0.4413   -0.6219   -0.2353 C   0  0  0  0  0  0  0  0  0  0  0  0
    0.0141   -1.5711   -0.8830 O   0  0  0  0  0  0  0  0  0  0  0  0
    1.9092   -0.2855   -0.1039 C   0  0  0  0  0  0  0  0  0  0  0  0
    2.7747   -1.3753   -0.7271 C   0  0  0  0  0  0  0  0  0  0  0  0
    4.1867   -1.0341   -0.7315 N   0  0  0  0  0  0  0  0  0  0  0  0
    4.9500   -1.0871    0.4244 C   0  0  0  0  0  0  0  0  0  0  0  0
    4.4334   -1.3148    1.5167 O   0  0  0  0  0  0  0  0  0  0  0  0
    6.3725   -0.8617    0.2332 C   0  0  0  0  0  0  0  0  0  0  0  0
    7.1404   -0.4882   -0.8593 C   0  0  0  0  0  0  0  0  0  0  0  0
    8.4882   -0.4417   -0.4217 C   0  0  0  0  0  0  0  0  0  0  0  0
    8.4681   -0.7795    0.9083 C   0  0  0  0  0  0  0  0  0  0  0  0
    7.1995   -1.0334    1.3146 O   0  0  0  0  0  0  0  0  0  0  0  0
   -3.3521    1.1317    4.0294 H   0  0  0  0  0  0  0  0  0  0  0  0
   -4.4465    1.9925    2.8833 H   0  0  0  0  0  0  0  0  0  0  0  0
   -4.9183    0.4249    3.5786 H   0  0  0  0  0  0  0  0  0  0  0  0
   -2.0709   -0.9374    0.5406 H   0  0  0  0  0  0  0  0  0  0  0  0
   -1.8919    0.2348   -1.7777 H   0  0  0  0  0  0  0  0  0  0  0  0
   -2.2537    1.7504   -0.9873 H   0  0  0  0  0  0  0  0  0  0  0  0
   -3.6036   -1.7418   -1.4771 H   0  0  0  0  0  0  0  0  0  0  0  0
   -6.0099   -2.2290   -1.7420 H   0  0  0  0  0  0  0  0  0  0  0  0
   -7.6833   -0.4111   -1.5201 H   0  0  0  0  0  0  0  0  0  0  0  0
   -6.9402    1.9062   -1.0299 H   0  0  0  0  0  0  0  0  0  0  0  0
   -4.5409    2.4129   -0.7577 H   0  0  0  0  0  0  0  0  0  0  0  0
    0.0111    1.0555    0.9215 H   0  0  0  0  0  0  0  0  0  0  0  0
    2.0903    0.6726   -0.6036 H   0  0  0  0  0  0  0  0  0  0  0  0
    2.1472   -0.1619    0.9567 H   0  0  0  0  0  0  0  0  0  0  0  0
    2.4898   -1.5487   -1.7707 H   0  0  0  0  0  0  0  0  0  0  0  0
    2.6481   -2.3212   -0.1853 H   0  0  0  0  0  0  0  0  0  0  0  0
    4.6571   -0.9898   -1.6223 H   0  0  0  0  0  0  0  0  0  0  0  0
    6.7783   -0.2593   -1.8513 H   0  0  0  0  0  0  0  0  0  0  0  0
    9.3648   -0.1888   -1.0032 H   0  0  0  0  0  0  0  0  0  0  0  0
    9.2284   -0.8778    1.6702 H   0  0  0  0  0  0  0  0  0  0  0  0
  1  2  1  0
  2  3  1  0
  3  4  2  0
  3  5  1  0
  5  6  1  0
  6  7  1  0
  7  8  2  0
  8  9  1  0
  9 10  2  0
 10 11  1  0
 11 12  2  0
  5 13  1  0
 13 14  1  0
 14 15  2  0
 14 16  1  0
 16 17  1  0
 17 18  1  0
 18 19  1  0
 19 20  2  0
 19 21  1  0
 21 22  2  0
 22 23  1  0
 23 24  2  0
 24 25  1  0
 12  7  1  0
 25 21  1  0
  1 26  1  0
  1 27  1  0
  1 28  1  0
  5 29  1  0
  6 30  1  0
  6 31  1  0
  8 32  1  0
  9 33  1  0
 10 34  1  0
 11 35  1  0
 12 36  1  0
 13 37  1  0
 16 38  1  0
 16 39  1  0
 17 40  1  0
 17 41  1  0
 18 42  1  0
 22 43  1  0
 23 44  1  0
 24 45  1  0
M  END
$$$$
