
     RDKit          3D

 40 43  0  0  0  0  0  0  0  0999 V2000
    7.7488    1.1778   -0.7938 C   0  0  0  0  0  0  0  0  0  0  0  0
    6.3230    0.7734   -0.6609 C   0  0  0  0  0  0  0  0  0  0  0  0
    5.4592    0.7675   -1.6517 N   0  0  0  0  0  0  0  0  0  0  0  0
    4.2233    0.3417   -1.1955 C   0  0  0  0  0  0  0  0  0  0  0  0
    3.0580    0.2089   -1.9721 C   0  0  0  0  0  0  0  0  0  0  0  0
    1.8719   -0.2360   -1.3739 C   0  0  0  0  0  0  0  0  0  0  0  0
    1.8211   -0.5517   -0.0127 C   0  0  0  0  0  0  0  0  0  0  0  0
    0.5786   -0.9922    0.4892 N   0  0  0  0  0  0  0  0  0  0  0  0
    0.2554   -1.3093    1.7988 C   0  0  0  0  0  0  0  0  0  0  0  0
    1.0154   -1.2741    2.7627 O   0  0  0  0  0  0  0  0  0  0  0  0
   -1.1803   -1.7914    1.9688 C   0  0  0  0  0  0  0  0  0  0  0  0
   -2.2179   -0.8689    1.3719 C   0  0  0  0  0  0  0  0  0  0  0  0
   -2.3665    0.4398    1.8563 C   0  0  0  0  0  0  0  0  0  0  0  0
   -3.3120    1.3003    1.2940 C   0  0  0  0  0  0  0  0  0  0  0  0
   -4.1160    0.8607    0.2457 C   0  0  0  0  0  0  0  0  0  0  0  0
   -3.9986   -0.4512   -0.2213 C   0  0  0  0  0  0  0  0  0  0  0  0
   -3.0471   -1.3093    0.3297 C   0  0  0  0  0  0  0  0  0  0  0  0
   -4.7783   -0.9634   -1.2270 O   0  0  0  0  0  0  0  0  0  0  0  0
   -5.9262   -0.1394   -1.4638 C   0  0  0  0  0  0  0  0  0  0  0  0
   -5.5291    1.3262   -1.5298 C   0  0  0  0  0  0  0  0  0  0  0  0
   -5.0055    1.7667   -0.2718 O   0  0  0  0  0  0  0  0  0  0  0  0
    2.9734   -0.4253    0.7713 C   0  0  0  0  0  0  0  0  0  0  0  0
    4.1610    0.0227    0.1604 C   0  0  0  0  0  0  0  0  0  0  0  0
    5.7141    0.2728    0.8630 S   0  0  0  0  0  0  0  0  0  0  0  0
    8.4147    0.3514   -0.5257 H   0  0  0  0  0  0  0  0  0  0  0  0
    7.9697    1.4665   -1.8264 H   0  0  0  0  0  0  0  0  0  0  0  0
    7.9724    2.0342   -0.1497 H   0  0  0  0  0  0  0  0  0  0  0  0
    3.0895    0.4535   -3.0291 H   0  0  0  0  0  0  0  0  0  0  0  0
    0.9874   -0.3265   -2.0003 H   0  0  0  0  0  0  0  0  0  0  0  0
   -0.1807   -1.0296   -0.1813 H   0  0  0  0  0  0  0  0  0  0  0  0
   -1.2471   -2.7938    1.5287 H   0  0  0  0  0  0  0  0  0  0  0  0
   -1.3890   -1.9019    3.0400 H   0  0  0  0  0  0  0  0  0  0  0  0
   -1.7421    0.8008    2.6726 H   0  0  0  0  0  0  0  0  0  0  0  0
   -3.4140    2.3157    1.6678 H   0  0  0  0  0  0  0  0  0  0  0  0
   -2.9704   -2.3249   -0.0519 H   0  0  0  0  0  0  0  0  0  0  0  0
   -6.3700   -0.4545   -2.4133 H   0  0  0  0  0  0  0  0  0  0  0  0
   -6.6578   -0.3224   -0.6669 H   0  0  0  0  0  0  0  0  0  0  0  0
   -4.7711    1.5019   -2.3031 H   0  0  0  0  0  0  0  0  0  0  0  0
   -6.4020    1.9448   -1.7607 H   0  0  0  0  0  0  0  0  0  0  0  0
    2.9846   -0.6614    1.8289 H   0  0  0  0  0  0  0  0  0  0  0  0
  1  2  1  0
  2  3  2  0
  3  4  1  0
  4  5  2  0
  5  6  1  0
  6  7  2  0
  7  8  1  0
  8  9  1  0
  9 10  2  0
  9 11  1  0
 11 12  1  0
 12 13  2  0
 13 14  1  0
 14 15  2  0
 15 16  1  0
 16 17  2  0
 16 18  1  0
 18 19  1  0
 19 20  1  0
 20 21  1  0
  7 22  1  0
 22 23  2  0
 23 24  1  0
 24  2  1  0
 23  4  1  0
 17 12  1  0
 21 15  1  0
  1 25  1  0
  1 26  1  0
  1 27  1  0
  5 28  1  0
  6 29  1  0
  8 30  1  0
 11 31  1  0
 11 32  1  0
 13 33  1  0
 14 34  1  0
 17 35  1  0
 19 36  1  0
 19 37  1  0
 20 38  1  0
 20 39  1  0
 22 40  1  0
M  END
$$$$
