
     RDKit          3D

 38 40  0  0  0  0  0  0  0  0999 V2000
   -0.7357   -1.3613   -0.5443 O   0  0  0  0  0  0  0  0  0  0  0  0
   -0.7565   -0.5172   -1.4275 C   0  0  0  0  0  0  0  0  0  0  0  0
   -1.8232    0.5365   -1.6360 C   0  0  0  0  0  0  0  0  0  0  0  0
   -3.0044    0.4084   -0.7023 C   0  0  0  0  0  0  0  0  0  0  0  0
   -4.1353   -0.3256   -1.0832 C   0  0  0  0  0  0  0  0  0  0  0  0
   -5.2184   -0.4588   -0.2144 C   0  0  0  0  0  0  0  0  0  0  0  0
   -5.1813    0.1368    1.0462 C   0  0  0  0  0  0  0  0  0  0  0  0
   -4.0597    0.8753    1.4514 C   0  0  0  0  0  0  0  0  0  0  0  0
   -4.0144    1.4930    2.8270 C   0  0  0  0  0  0  0  0  0  0  0  0
   -5.2087    2.0303    3.2054 F   0  0  0  0  0  0  0  0  0  0  0  0
   -3.1050    2.5032    2.9362 F   0  0  0  0  0  0  0  0  0  0  0  0
   -3.6888    0.5919    3.7942 F   0  0  0  0  0  0  0  0  0  0  0  0
   -2.9719    0.9979    0.5709 C   0  0  0  0  0  0  0  0  0  0  0  0
    0.2073   -0.3666   -2.3773 O   0  0  0  0  0  0  0  0  0  0  0  0
    1.3108   -1.2714   -2.2761 C   0  0  0  0  0  0  0  0  0  0  0  0
    2.2113   -0.8751   -1.2257 N   0  0  0  0  0  0  0  0  0  0  0  0
    2.7481    0.3743   -1.0993 C   0  0  0  0  0  0  0  0  0  0  0  0
    2.5387    1.3782   -1.7523 O   0  0  0  0  0  0  0  0  0  0  0  0
    3.7081    0.3036    0.0011 C   0  0  0  0  0  0  0  0  0  0  0  0
    4.4895    1.2880    0.5742 C   0  0  0  0  0  0  0  0  0  0  0  0
    5.3403    0.9020    1.6151 C   0  0  0  0  0  0  0  0  0  0  0  0
    5.3921   -0.4403    2.0475 C   0  0  0  0  0  0  0  0  0  0  0  0
    4.5955   -1.4196    1.4453 C   0  0  0  0  0  0  0  0  0  0  0  0
    3.7598   -1.0119    0.4242 C   0  0  0  0  0  0  0  0  0  0  0  0
    2.8395   -1.7780   -0.4138 C   0  0  0  0  0  0  0  0  0  0  0  0
    2.7504   -2.9904   -0.3949 O   0  0  0  0  0  0  0  0  0  0  0  0
   -1.3640    1.5236   -1.5036 H   0  0  0  0  0  0  0  0  0  0  0  0
   -2.1760    0.4735   -2.6728 H   0  0  0  0  0  0  0  0  0  0  0  0
   -4.1798   -0.8061   -2.0585 H   0  0  0  0  0  0  0  0  0  0  0  0
   -6.0900   -1.0336   -0.5186 H   0  0  0  0  0  0  0  0  0  0  0  0
   -6.0313    0.0196    1.7176 H   0  0  0  0  0  0  0  0  0  0  0  0
   -2.0888    1.5544    0.8858 H   0  0  0  0  0  0  0  0  0  0  0  0
    0.9677   -2.3051   -2.1478 H   0  0  0  0  0  0  0  0  0  0  0  0
    1.8588   -1.2167   -3.2229 H   0  0  0  0  0  0  0  0  0  0  0  0
    4.4447    2.3151    0.2269 H   0  0  0  0  0  0  0  0  0  0  0  0
    5.9754    1.6448    2.0962 H   0  0  0  0  0  0  0  0  0  0  0  0
    6.0649   -0.7160    2.8581 H   0  0  0  0  0  0  0  0  0  0  0  0
    4.6305   -2.4568    1.7624 H   0  0  0  0  0  0  0  0  0  0  0  0
  1  2  2  0
  2  3  1  0
  3  4  1  0
  4  5  2  0
  5  6  1  0
  6  7  2  0
  7  8  1  0
  8  9  1  0
  9 10  1  0
  9 11  1  0
  9 12  1  0
  8 13  2  0
  2 14  1  0
 14 15  1  0
 15 16  1  0
 16 17  1  0
 17 18  2  0
 17 19  1  0
 19 20  2  0
 20 21  1  0
 21 22  2  0
 22 23  1  0
 23 24  2  0
 24 25  1  0
 25 26  2  0
 13  4  1  0
 25 16  1  0
 24 19  1  0
  3 27  1  0
  3 28  1  0
  5 29  1  0
  6 30  1  0
  7 31  1  0
 13 32  1  0
 15 33  1  0
 15 34  1  0
 20 35  1  0
 21 36  1  0
 22 37  1  0
 23 38  1  0
M  END
$$$$
