
     RDKit          3D

 47 50  0  0  0  0  0  0  0  0999 V2000
   -0.7123   -0.2039   -3.6417 C   0  0  0  0  0  0  0  0  0  0  0  0
   -0.5144    0.5299   -2.3016 C   0  0  0  0  0  0  0  0  0  0  0  0
   -0.6920    2.0407   -2.5568 C   0  0  0  0  0  0  0  0  0  0  0  0
   -1.5872    0.0187   -1.2881 C   0  0  0  0  0  0  0  0  0  0  0  0
   -1.2125    0.3536    0.1184 C   0  0  0  0  0  0  0  0  0  0  0  0
    0.0538    0.7500    0.5124 C   0  0  0  0  0  0  0  0  0  0  0  0
   -0.0822    1.0784    1.8649 C   0  0  0  0  0  0  0  0  0  0  0  0
   -1.3191    0.8794    2.3121 N   0  0  0  0  0  0  0  0  0  0  0  0
   -2.0170    0.3765    1.2512 N   0  0  0  0  0  0  0  0  0  0  0  0
   -3.3760   -0.0249    1.4520 C   0  0  0  0  0  0  0  0  0  0  0  0
   -4.0111    0.3255    2.6611 C   0  0  0  0  0  0  0  0  0  0  0  0
   -5.3366   -0.0418    2.9073 C   0  0  0  0  0  0  0  0  0  0  0  0
   -6.0309   -0.7687    1.9525 C   0  0  0  0  0  0  0  0  0  0  0  0
   -7.3006   -1.1255    2.1844 F   0  0  0  0  0  0  0  0  0  0  0  0
   -5.4217   -1.1398    0.7609 C   0  0  0  0  0  0  0  0  0  0  0  0
   -4.0937   -0.7731    0.5095 C   0  0  0  0  0  0  0  0  0  0  0  0
    1.2257    0.8717   -0.3992 C   0  0  0  0  0  0  0  0  0  0  0  0
    2.3586    0.2281    0.2253 N   0  0  0  0  0  0  0  0  0  0  0  0
    3.6572    0.5013   -0.1438 C   0  0  0  0  0  0  0  0  0  0  0  0
    3.9751    1.3767   -0.9394 O   0  0  0  0  0  0  0  0  0  0  0  0
    4.6765   -0.3730    0.4997 C   0  0  0  0  0  0  0  0  0  0  0  0
    6.0248   -0.1783    0.2426 C   0  0  0  0  0  0  0  0  0  0  0  0
    6.9861   -0.9545    0.8064 N   0  0  0  0  0  0  0  0  0  0  0  0
    6.5349   -1.9264    1.6336 C   0  0  0  0  0  0  0  0  0  0  0  0
    5.1852   -2.1213    1.8888 C   0  0  0  0  0  0  0  0  0  0  0  0
    4.2183   -1.3557    1.3309 N   0  0  0  0  0  0  0  0  0  0  0  0
    0.9189    0.2289   -1.7726 C   0  0  0  0  0  0  0  0  0  0  0  0
   -0.5803   -1.2855   -3.5256 H   0  0  0  0  0  0  0  0  0  0  0  0
    0.0092    0.1398   -4.3914 H   0  0  0  0  0  0  0  0  0  0  0  0
   -1.7182   -0.0325   -4.0412 H   0  0  0  0  0  0  0  0  0  0  0  0
   -0.6212    2.6308   -1.6380 H   0  0  0  0  0  0  0  0  0  0  0  0
    0.0716    2.4129   -3.2491 H   0  0  0  0  0  0  0  0  0  0  0  0
   -1.6717    2.2503   -3.0014 H   0  0  0  0  0  0  0  0  0  0  0  0
   -2.5595    0.4522   -1.5479 H   0  0  0  0  0  0  0  0  0  0  0  0
   -1.6619   -1.0730   -1.3687 H   0  0  0  0  0  0  0  0  0  0  0  0
    0.6663    1.4677    2.5438 H   0  0  0  0  0  0  0  0  0  0  0  0
   -3.4845    0.8980    3.4240 H   0  0  0  0  0  0  0  0  0  0  0  0
   -5.8240    0.2354    3.8364 H   0  0  0  0  0  0  0  0  0  0  0  0
   -5.9812   -1.7228    0.0355 H   0  0  0  0  0  0  0  0  0  0  0  0
   -3.6573   -1.1249   -0.4153 H   0  0  0  0  0  0  0  0  0  0  0  0
    1.4636    1.9330   -0.5418 H   0  0  0  0  0  0  0  0  0  0  0  0
    2.2176   -0.5951    0.8061 H   0  0  0  0  0  0  0  0  0  0  0  0
    6.3744    0.6048   -0.4218 H   0  0  0  0  0  0  0  0  0  0  0  0
    7.2945   -2.5511    2.0910 H   0  0  0  0  0  0  0  0  0  0  0  0
    4.8464   -2.9067    2.5558 H   0  0  0  0  0  0  0  0  0  0  0  0
    1.0367   -0.8622   -1.6934 H   0  0  0  0  0  0  0  0  0  0  0  0
    1.6718    0.5563   -2.5017 H   0  0  0  0  0  0  0  0  0  0  0  0
  1  2  1  0
  2  3  1  0
  2  4  1  0
  4  5  1  0
  5  6  2  0
  6  7  1  0
  7  8  2  0
  8  9  1  0
  9 10  1  0
 10 11  2  0
 11 12  1  0
 12 13  2  0
 13 14  1  0
 13 15  1  0
 15 16  2  0
  6 17  1  0
 17 18  1  0
 18 19  1  0
 19 20  2  0
 19 21  1  0
 21 22  2  0
 22 23  1  0
 23 24  2  0
 24 25  1  0
 25 26  2  0
 17 27  1  0
 27  2  1  0
  9  5  1  0
 16 10  1  0
 26 21  1  0
  1 28  1  0
  1 29  1  0
  1 30  1  0
  3 31  1  0
  3 32  1  0
  3 33  1  0
  4 34  1  0
  4 35  1  0
  7 36  1  0
 11 37  1  0
 12 38  1  0
 15 39  1  0
 16 40  1  0
 17 41  1  0
 18 42  1  0
 22 43  1  0
 24 44  1  0
 25 45  1  0
 27 46  1  0
 27 47  1  0
M  END
$$$$
