
     RDKit          3D

 31 31  0  0  0  0  0  0  0  0999 V2000
    5.2533    0.0226   -1.3992 N   0  0  0  0  0  0  0  0  0  0  0  0
    4.0197    0.5954   -1.3829 C   0  0  0  0  0  0  0  0  0  0  0  0
    3.8523    2.2312   -1.6451 S   0  0  0  0  0  0  0  0  0  0  0  0
    3.0060   -0.3026   -1.1524 N   0  0  0  0  0  0  0  0  0  0  0  0
    1.7021    0.1652   -0.8966 N   0  0  0  0  0  0  0  0  0  0  0  0
    1.0342   -0.3997    0.1753 C   0  0  0  0  0  0  0  0  0  0  0  0
    1.4580   -1.3924    0.7632 O   0  0  0  0  0  0  0  0  0  0  0  0
   -0.2632    0.3191    0.5384 C   0  0  0  0  0  0  0  0  0  0  0  0
   -0.8060   -0.1757    1.8868 C   0  0  0  0  0  0  0  0  0  0  0  0
   -2.1263    0.4945    2.2473 C   0  0  0  0  0  0  0  0  0  0  0  0
   -3.1722    0.2878    1.1602 C   0  0  0  0  0  0  0  0  0  0  0  0
   -2.6804    0.7718   -0.2015 C   0  0  0  0  0  0  0  0  0  0  0  0
   -1.2998    0.2330   -0.5974 C   0  0  0  0  0  0  0  0  0  0  0  0
   -1.3932   -1.1446   -1.2222 C   0  0  0  0  0  0  0  0  0  0  0  0
   -1.1247   -1.4094   -2.3829 O   0  0  0  0  0  0  0  0  0  0  0  0
   -1.8085   -2.1052   -0.3839 O   0  0  0  0  0  0  0  0  0  0  0  0
    6.0245    0.6130   -1.6901 H   0  0  0  0  0  0  0  0  0  0  0  0
    5.3415   -0.9594   -1.6248 H   0  0  0  0  0  0  0  0  0  0  0  0
    3.2365   -1.1595   -0.6473 H   0  0  0  0  0  0  0  0  0  0  0  0
    1.5191    1.1256   -1.1828 H   0  0  0  0  0  0  0  0  0  0  0  0
   -0.0037    1.3794    0.6742 H   0  0  0  0  0  0  0  0  0  0  0  0
   -0.9398   -1.2639    1.8790 H   0  0  0  0  0  0  0  0  0  0  0  0
   -0.0713    0.0305    2.6754 H   0  0  0  0  0  0  0  0  0  0  0  0
   -2.4970    0.0901    3.1959 H   0  0  0  0  0  0  0  0  0  0  0  0
   -1.9629    1.5683    2.4008 H   0  0  0  0  0  0  0  0  0  0  0  0
   -3.4427   -0.7727    1.1070 H   0  0  0  0  0  0  0  0  0  0  0  0
   -4.0882    0.8274    1.4276 H   0  0  0  0  0  0  0  0  0  0  0  0
   -3.4250    0.5164   -0.9653 H   0  0  0  0  0  0  0  0  0  0  0  0
   -2.6261    1.8682   -0.1738 H   0  0  0  0  0  0  0  0  0  0  0  0
   -0.9425    0.8738   -1.4174 H   0  0  0  0  0  0  0  0  0  0  0  0
   -1.7737   -2.9283   -0.9156 H   0  0  0  0  0  0  0  0  0  0  0  0
  1  2  1  0
  2  3  2  0
  2  4  1  0
  4  5  1  0
  5  6  1  0
  6  7  2  0
  6  8  1  0
  8  9  1  0
  9 10  1  0
 10 11  1  0
 11 12  1  0
 12 13  1  0
 13 14  1  0
 14 15  2  0
 14 16  1  0
 13  8  1  0
  1 17  1  0
  1 18  1  0
  4 19  1  0
  5 20  1  0
  8 21  1  0
  9 22  1  0
  9 23  1  0
 10 24  1  0
 10 25  1  0
 11 26  1  0
 11 27  1  0
 12 28  1  0
 12 29  1  0
 13 30  1  0
 16 31  1  0
M  END
$$$$
