
     RDKit          3D

 48 50  0  0  0  0  0  0  0  0999 V2000
    4.8027   -1.5390    1.1762 C   0  0  0  0  0  0  0  0  0  0  0  0
    4.3882   -0.8423   -0.0689 C   0  0  0  0  0  0  0  0  0  0  0  0
    5.1580    0.0466   -0.8125 C   0  0  0  0  0  0  0  0  0  0  0  0
    6.5015    0.5279   -0.6084 C   0  0  0  0  0  0  0  0  0  0  0  0
    7.2658    0.2409    0.3026 O   0  0  0  0  0  0  0  0  0  0  0  0
    6.8925    1.3922   -1.5718 O   0  0  0  0  0  0  0  0  0  0  0  0
    4.4432    0.4841   -1.8955 O   0  0  0  0  0  0  0  0  0  0  0  0
    3.2266   -0.1150   -1.8546 C   0  0  0  0  0  0  0  0  0  0  0  0
    2.2102    0.0693   -2.7909 C   0  0  0  0  0  0  0  0  0  0  0  0
    1.0229   -0.6371   -2.5754 C   0  0  0  0  0  0  0  0  0  0  0  0
    0.8883   -1.4739   -1.4616 C   0  0  0  0  0  0  0  0  0  0  0  0
   -0.6283   -2.3649   -1.2071 S   0  0  0  0  0  6  0  0  0  0  0  0
   -0.2847   -3.6699   -0.6878 O   0  0  0  0  0  0  0  0  0  0  0  0
   -1.4677   -2.2026   -2.3724 O   0  0  0  0  0  0  0  0  0  0  0  0
   -1.3121   -1.5178    0.0602 N   0  0  0  0  0  0  0  0  0  0  0  0
   -1.9679   -0.2195   -0.1580 C   0  0  0  0  0  0  0  0  0  0  0  0
   -3.4857   -0.4509   -0.1919 C   0  0  0  0  0  0  0  0  0  0  0  0
   -4.3465    0.8102   -0.2605 C   0  0  0  0  0  0  0  0  0  0  0  0
   -4.8396    1.3330    1.0952 C   0  0  0  0  0  0  0  0  0  0  0  0
   -3.9093    2.3347    1.7762 C   0  0  0  0  0  0  0  0  0  0  0  0
   -2.9070    1.7459    2.7703 C   0  0  0  0  0  0  0  0  0  0  0  0
   -2.0601    0.5665    2.2961 C   0  0  0  0  0  0  0  0  0  0  0  0
   -1.4482    0.7562    0.9073 C   0  0  0  0  0  0  0  0  0  0  0  0
    1.9338   -1.6519   -0.5383 C   0  0  0  0  0  0  0  0  0  0  0  0
    3.1332   -0.9452   -0.7450 C   0  0  0  0  0  0  0  0  0  0  0  0
    4.0076   -2.1849    1.5608 H   0  0  0  0  0  0  0  0  0  0  0  0
    5.6818   -2.1645    0.9904 H   0  0  0  0  0  0  0  0  0  0  0  0
    5.0509   -0.8126    1.9568 H   0  0  0  0  0  0  0  0  0  0  0  0
    7.8047    1.6295   -1.3125 H   0  0  0  0  0  0  0  0  0  0  0  0
    2.3434    0.7256   -3.6430 H   0  0  0  0  0  0  0  0  0  0  0  0
    0.2056   -0.5271   -3.2863 H   0  0  0  0  0  0  0  0  0  0  0  0
   -1.5324   -2.0715    0.8859 H   0  0  0  0  0  0  0  0  0  0  0  0
   -1.6565    0.1837   -1.1296 H   0  0  0  0  0  0  0  0  0  0  0  0
   -3.6991   -1.0428   -1.0932 H   0  0  0  0  0  0  0  0  0  0  0  0
   -3.8128   -1.0892    0.6381 H   0  0  0  0  0  0  0  0  0  0  0  0
   -5.2456    0.5427   -0.8327 H   0  0  0  0  0  0  0  0  0  0  0  0
   -3.8503    1.5984   -0.8379 H   0  0  0  0  0  0  0  0  0  0  0  0
   -5.1001    0.5107    1.7713 H   0  0  0  0  0  0  0  0  0  0  0  0
   -5.7796    1.8660    0.8967 H   0  0  0  0  0  0  0  0  0  0  0  0
   -4.5322    3.0402    2.3427 H   0  0  0  0  0  0  0  0  0  0  0  0
   -3.3947    2.9478    1.0277 H   0  0  0  0  0  0  0  0  0  0  0  0
   -2.2352    2.5547    3.0860 H   0  0  0  0  0  0  0  0  0  0  0  0
   -3.4451    1.4358    3.6752 H   0  0  0  0  0  0  0  0  0  0  0  0
   -1.2451    0.4359    3.0203 H   0  0  0  0  0  0  0  0  0  0  0  0
   -2.6463   -0.3553    2.3633 H   0  0  0  0  0  0  0  0  0  0  0  0
   -0.3593    0.6340    0.9920 H   0  0  0  0  0  0  0  0  0  0  0  0
   -1.5863    1.7830    0.5527 H   0  0  0  0  0  0  0  0  0  0  0  0
    1.8170   -2.3179    0.3121 H   0  0  0  0  0  0  0  0  0  0  0  0
  1  2  1  0
  2  3  2  0
  3  4  1  0
  4  5  2  0
  4  6  1  0
  3  7  1  0
  7  8  1  0
  8  9  2  0
  9 10  1  0
 10 11  2  0
 11 12  1  0
 12 13  2  0
 12 14  2  0
 12 15  1  0
 15 16  1  0
 16 17  1  0
 17 18  1  0
 18 19  1  0
 19 20  1  0
 20 21  1  0
 21 22  1  0
 22 23  1  0
 11 24  1  0
 24 25  2  0
 25  2  1  0
 25  8  1  0
 23 16  1  0
  1 26  1  0
  1 27  1  0
  1 28  1  0
  6 29  1  0
  9 30  1  0
 10 31  1  0
 15 32  1  0
 16 33  1  0
 17 34  1  0
 17 35  1  0
 18 36  1  0
 18 37  1  0
 19 38  1  0
 19 39  1  0
 20 40  1  0
 20 41  1  0
 21 42  1  0
 21 43  1  0
 22 44  1  0
 22 45  1  0
 23 46  1  0
 23 47  1  0
 24 48  1  0
M  END
$$$$
