
     RDKit          3D

 42 43  0  0  0  0  0  0  0  0999 V2000
    3.7818   -0.3031   -0.6351 C   0  0  0  0  0  0  0  0  0  0  0  0
    3.7182   -0.2058    0.8782 C   0  0  0  0  0  0  0  0  0  0  0  0
    2.8178   -0.7896    1.6207 N   0  0  0  0  0  0  0  0  0  0  0  0
    1.7640   -1.4194    1.0127 N   0  0  0  0  0  0  0  0  0  0  0  0
    0.8055   -0.6778    0.3146 C   0  0  0  0  0  0  0  0  0  0  0  0
    0.9266    0.4914   -0.0368 O   0  0  0  0  0  0  0  0  0  0  0  0
   -0.4280   -1.5098    0.0092 C   0  0  0  0  0  0  0  0  0  0  0  0
   -1.5155   -0.7352   -0.7332 C   0  0  0  0  0  0  0  0  0  0  0  0
   -2.2282    0.2803    0.1652 C   0  0  0  0  0  0  0  0  0  0  0  0
   -3.2832    0.9762   -0.5637 N   0  0  0  0  0  0  0  0  0  0  0  0
   -4.4841    0.3607   -0.9117 C   0  0  0  0  0  0  0  0  0  0  0  0
   -5.2870    0.9662   -1.8902 C   0  0  0  0  0  0  0  0  0  0  0  0
   -6.5308    0.4363   -2.2476 C   0  0  0  0  0  0  0  0  0  0  0  0
   -7.0094   -0.7020   -1.6090 C   0  0  0  0  0  0  0  0  0  0  0  0
   -6.2490   -1.2966   -0.6071 C   0  0  0  0  0  0  0  0  0  0  0  0
   -5.0050   -0.7597   -0.2547 C   0  0  0  0  0  0  0  0  0  0  0  0
    4.7886    0.5866    1.5620 C   0  0  0  0  0  0  0  0  0  0  0  0
    5.4877    1.5921    0.8948 C   0  0  0  0  0  0  0  0  0  0  0  0
    6.4611    2.2831    1.5960 C   0  0  0  0  0  0  0  0  0  0  0  0
    6.7721    2.0414    2.8869 N   0  0  0  0  0  0  0  0  0  0  0  0
    6.0693    1.0744    3.5135 C   0  0  0  0  0  0  0  0  0  0  0  0
    5.0776    0.3285    2.9030 C   0  0  0  0  0  0  0  0  0  0  0  0
    3.3052   -1.2187   -0.9945 H   0  0  0  0  0  0  0  0  0  0  0  0
    4.8221   -0.3385   -0.9727 H   0  0  0  0  0  0  0  0  0  0  0  0
    3.2919    0.5641   -1.0849 H   0  0  0  0  0  0  0  0  0  0  0  0
    1.3865   -2.1717    1.5825 H   0  0  0  0  0  0  0  0  0  0  0  0
   -0.1062   -2.3514   -0.6163 H   0  0  0  0  0  0  0  0  0  0  0  0
   -0.8268   -1.9178    0.9450 H   0  0  0  0  0  0  0  0  0  0  0  0
   -2.2425   -1.4588   -1.1210 H   0  0  0  0  0  0  0  0  0  0  0  0
   -1.0920   -0.2245   -1.6072 H   0  0  0  0  0  0  0  0  0  0  0  0
   -2.6165   -0.1931    1.0735 H   0  0  0  0  0  0  0  0  0  0  0  0
   -1.5169    1.0394    0.5074 H   0  0  0  0  0  0  0  0  0  0  0  0
   -2.9184    1.5751   -1.3005 H   0  0  0  0  0  0  0  0  0  0  0  0
   -4.9450    1.8698   -2.3890 H   0  0  0  0  0  0  0  0  0  0  0  0
   -7.1250    0.9216   -3.0169 H   0  0  0  0  0  0  0  0  0  0  0  0
   -7.9772   -1.1148   -1.8793 H   0  0  0  0  0  0  0  0  0  0  0  0
   -6.6257   -2.1732   -0.0872 H   0  0  0  0  0  0  0  0  0  0  0  0
   -4.4583   -1.2388    0.5503 H   0  0  0  0  0  0  0  0  0  0  0  0
    5.2821    1.8590   -0.1347 H   0  0  0  0  0  0  0  0  0  0  0  0
    7.0323    3.0784    1.1248 H   0  0  0  0  0  0  0  0  0  0  0  0
    6.3328    0.9100    4.5545 H   0  0  0  0  0  0  0  0  0  0  0  0
    4.5478   -0.4345    3.4627 H   0  0  0  0  0  0  0  0  0  0  0  0
  1  2  1  0
  2  3  2  3
  3  4  1  0
  4  5  1  0
  5  6  2  0
  5  7  1  0
  7  8  1  0
  8  9  1  0
  9 10  1  0
 10 11  1  0
 11 12  2  0
 12 13  1  0
 13 14  2  0
 14 15  1  0
 15 16  2  0
  2 17  1  0
 17 18  2  0
 18 19  1  0
 19 20  2  0
 20 21  1  0
 21 22  2  0
 16 11  1  0
 22 17  1  0
  1 23  1  0
  1 24  1  0
  1 25  1  0
  4 26  1  0
  7 27  1  0
  7 28  1  0
  8 29  1  0
  8 30  1  0
  9 31  1  0
  9 32  1  0
 10 33  1  0
 12 34  1  0
 13 35  1  0
 14 36  1  0
 15 37  1  0
 16 38  1  0
 18 39  1  0
 19 40  1  0
 21 41  1  0
 22 42  1  0
M  END
$$$$
