
     RDKit          3D

 57 61  0  0  0  0  0  0  0  0999 V2000
   -2.1075    3.8297    2.8813 C   0  0  0  0  0  0  0  0  0  0  0  0
   -2.9177    2.8986    3.5229 C   0  0  0  0  0  0  0  0  0  0  0  0
   -3.3728    1.7735    2.8317 C   0  0  0  0  0  0  0  0  0  0  0  0
   -3.0200    1.5497    1.4860 C   0  0  0  0  0  0  0  0  0  0  0  0
   -3.5793    0.3093    0.7951 C   0  0  0  0  0  0  0  0  0  0  0  0
   -4.8980    0.4513    0.0485 C   0  0  0  0  0  0  0  0  0  0  0  0
   -5.3338    1.6651   -0.5092 C   0  0  0  0  0  0  0  0  0  0  0  0
   -6.5534    1.7461   -1.1869 C   0  0  0  0  0  0  0  0  0  0  0  0
   -7.3563    0.6165   -1.3230 C   0  0  0  0  0  0  0  0  0  0  0  0
   -6.9416   -0.5970   -0.7825 C   0  0  0  0  0  0  0  0  0  0  0  0
   -5.7240   -0.6798   -0.1036 C   0  0  0  0  0  0  0  0  0  0  0  0
   -2.5542   -0.2504   -0.1515 C   0  0  0  0  0  0  0  0  0  0  0  0
   -2.3760    0.1535   -1.4228 N   0  0  0  0  0  0  0  0  0  0  0  0
   -1.3275   -0.6424   -1.8772 O   0  0  0  0  0  0  0  0  0  0  0  0
   -0.9735   -1.4536   -0.8390 C   0  0  0  0  0  0  0  0  0  0  0  0
    0.1568   -2.3985   -1.0857 C   0  0  0  0  0  0  0  0  0  0  0  0
    1.4737   -1.8666   -0.6773 N   0  0  0  0  0  0  0  0  0  0  0  0
    1.8739   -0.6998   -1.4834 C   0  0  0  0  0  0  0  0  0  0  0  0
    3.3891   -0.4503   -1.5034 C   0  0  0  0  0  0  0  0  0  0  0  0
    4.0348   -0.9102   -0.1919 C   0  0  0  0  0  0  0  0  0  0  0  0
    5.5124   -0.5811   -0.1145 C   0  0  0  0  0  0  0  0  0  0  0  0
    6.0067    0.1703    0.9564 C   0  0  0  0  0  0  0  0  0  0  0  0
    7.3621    0.4588    1.0054 C   0  0  0  0  0  0  0  0  0  0  0  0
    8.2511    0.0543    0.0754 N   0  0  0  0  0  0  0  0  0  0  0  0
    7.7598   -0.6737   -0.9484 C   0  0  0  0  0  0  0  0  0  0  0  0
    6.4219   -1.0127   -1.0855 C   0  0  0  0  0  0  0  0  0  0  0  0
    3.7612   -2.4093    0.0430 C   0  0  0  0  0  0  0  0  0  0  0  0
    2.5014   -2.9057   -0.6789 C   0  0  0  0  0  0  0  0  0  0  0  0
   -1.7098   -1.2733    0.2351 N   0  0  0  0  0  0  0  0  0  0  0  0
   -2.2136    2.5140    0.8545 C   0  0  0  0  0  0  0  0  0  0  0  0
   -1.7582    3.6392    1.5477 C   0  0  0  0  0  0  0  0  0  0  0  0
   -1.7529    4.7054    3.4179 H   0  0  0  0  0  0  0  0  0  0  0  0
   -3.1993    3.0471    4.5621 H   0  0  0  0  0  0  0  0  0  0  0  0
   -4.0130    1.0655    3.3555 H   0  0  0  0  0  0  0  0  0  0  0  0
   -3.7288   -0.4475    1.5799 H   0  0  0  0  0  0  0  0  0  0  0  0
   -4.7310    2.5666   -0.4273 H   0  0  0  0  0  0  0  0  0  0  0  0
   -6.8735    2.6945   -1.6099 H   0  0  0  0  0  0  0  0  0  0  0  0
   -8.3028    0.6822   -1.8529 H   0  0  0  0  0  0  0  0  0  0  0  0
   -7.5648   -1.4809   -0.8906 H   0  0  0  0  0  0  0  0  0  0  0  0
   -5.4185   -1.6411    0.3065 H   0  0  0  0  0  0  0  0  0  0  0  0
    0.1703   -2.7015   -2.1404 H   0  0  0  0  0  0  0  0  0  0  0  0
   -0.0620   -3.3034   -0.5038 H   0  0  0  0  0  0  0  0  0  0  0  0
    1.3794    0.1880   -1.0721 H   0  0  0  0  0  0  0  0  0  0  0  0
    1.5427   -0.7992   -2.5249 H   0  0  0  0  0  0  0  0  0  0  0  0
    3.8280   -0.9907   -2.3522 H   0  0  0  0  0  0  0  0  0  0  0  0
    3.5814    0.6153   -1.6797 H   0  0  0  0  0  0  0  0  0  0  0  0
    3.5287   -0.3585    0.6141 H   0  0  0  0  0  0  0  0  0  0  0  0
    5.3533    0.5312    1.7441 H   0  0  0  0  0  0  0  0  0  0  0  0
    7.7789    1.0417    1.8211 H   0  0  0  0  0  0  0  0  0  0  0  0
    8.4940   -0.9907   -1.6833 H   0  0  0  0  0  0  0  0  0  0  0  0
    6.1059   -1.6061   -1.9360 H   0  0  0  0  0  0  0  0  0  0  0  0
    4.6049   -3.0330   -0.2773 H   0  0  0  0  0  0  0  0  0  0  0  0
    3.6577   -2.5756    1.1238 H   0  0  0  0  0  0  0  0  0  0  0  0
    2.1521   -3.8056   -0.1574 H   0  0  0  0  0  0  0  0  0  0  0  0
    2.7448   -3.2106   -1.7054 H   0  0  0  0  0  0  0  0  0  0  0  0
   -1.9311    2.4126   -0.1912 H   0  0  0  0  0  0  0  0  0  0  0  0
   -1.1322    4.3690    1.0407 H   0  0  0  0  0  0  0  0  0  0  0  0
  1  2  2  0
  2  3  1  0
  3  4  2  0
  4  5  1  0
  5  6  1  0
  6  7  2  0
  7  8  1  0
  8  9  2  0
  9 10  1  0
 10 11  2  0
  5 12  1  0
 12 13  2  0
 13 14  1  0
 14 15  1  0
 15 16  1  0
 16 17  1  0
 17 18  1  0
 18 19  1  0
 19 20  1  0
 20 21  1  0
 21 22  2  0
 22 23  1  0
 23 24  2  0
 24 25  1  0
 25 26  2  0
 20 27  1  0
 27 28  1  0
 15 29  2  0
  4 30  1  0
 30 31  2  0
 31  1  1  0
 11  6  1  0
 29 12  1  0
 28 17  1  0
 26 21  1  0
  1 32  1  0
  2 33  1  0
  3 34  1  0
  5 35  1  0
  7 36  1  0
  8 37  1  0
  9 38  1  0
 10 39  1  0
 11 40  1  0
 16 41  1  0
 16 42  1  0
 18 43  1  0
 18 44  1  0
 19 45  1  0
 19 46  1  0
 20 47  1  0
 22 48  1  0
 23 49  1  0
 25 50  1  0
 26 51  1  0
 27 52  1  0
 27 53  1  0
 28 54  1  0
 28 55  1  0
 30 56  1  0
 31 57  1  0
M  END
$$$$
