
     RDKit          3D

 49 51  0  0  0  0  0  0  0  0999 V2000
   -2.7941   -4.2012    2.6399 C   0  0  0  0  0  0  0  0  0  0  0  0
   -2.7034   -2.9361    1.8236 C   0  0  0  0  0  0  0  0  0  0  0  0
   -3.9832   -2.3512    1.3337 C   0  0  0  0  0  0  0  0  0  0  0  0
   -3.8570   -1.2108    0.6405 C   0  0  0  0  0  0  0  0  0  0  0  0
   -5.0323   -0.5020    0.0378 C   0  0  0  0  0  0  0  0  0  0  0  0
   -2.6056   -0.6663    0.4470 N   0  0  0  0  0  0  0  0  0  0  0  0
   -1.4525   -1.2955    0.8510 C   0  0  0  0  0  0  0  0  0  0  0  0
   -0.2353   -0.9243    0.6095 N   0  0  0  0  0  0  0  0  0  0  0  0
   -0.0411    0.2471   -0.0570 C   0  0  0  0  0  0  0  0  0  0  0  0
    0.1221    0.2694   -1.3348 N   0  0  0  0  0  0  0  0  0  0  0  0
    0.1322   -1.0429   -2.2723 S   0  0  0  0  0  6  0  0  0  0  0  0
   -1.1336   -1.7420   -2.1243 O   0  0  0  0  0  0  0  0  0  0  0  0
    0.5123   -0.6171   -3.6102 O   0  0  0  0  0  0  0  0  0  0  0  0
    1.4436   -2.0955   -1.6501 C   0  0  0  0  0  0  0  0  0  0  0  0
    2.7149   -1.3218   -1.3993 C   0  0  0  0  0  0  0  0  0  0  0  0
    3.4895   -0.8345   -2.4621 C   0  0  0  0  0  0  0  0  0  0  0  0
    4.6619   -0.1180   -2.2161 C   0  0  0  0  0  0  0  0  0  0  0  0
    5.0787    0.1127   -0.9071 C   0  0  0  0  0  0  0  0  0  0  0  0
    4.3258   -0.3763    0.1577 C   0  0  0  0  0  0  0  0  0  0  0  0
    3.1535   -1.0931   -0.0860 C   0  0  0  0  0  0  0  0  0  0  0  0
   -0.0127    1.3602    0.7406 N   0  0  0  0  0  0  0  0  0  0  0  0
    0.3387    2.6969    0.4712 C   0  0  0  0  0  0  0  0  0  0  0  0
    0.7267    3.1572   -0.7935 C   0  0  0  0  0  0  0  0  0  0  0  0
    1.0294    4.5061   -1.0182 C   0  0  0  0  0  0  0  0  0  0  0  0
    0.9400    5.4302    0.0173 C   0  0  0  0  0  0  0  0  0  0  0  0
    0.5455    5.0076    1.2822 C   0  0  0  0  0  0  0  0  0  0  0  0
    0.2451    3.6587    1.5020 C   0  0  0  0  0  0  0  0  0  0  0  0
   -0.2965    3.1562    3.2587 Br  0  0  0  0  0  0  0  0  0  0  0  0
   -1.5233   -2.4449    1.6006 N   0  0  0  0  0  0  0  0  0  0  0  0
   -2.2401   -4.9969    2.1335 H   0  0  0  0  0  0  0  0  0  0  0  0
   -2.3492   -4.0281    3.6241 H   0  0  0  0  0  0  0  0  0  0  0  0
   -3.8302   -4.5218    2.7726 H   0  0  0  0  0  0  0  0  0  0  0  0
   -4.9217   -2.8505    1.5253 H   0  0  0  0  0  0  0  0  0  0  0  0
   -5.9742   -1.0208    0.2449 H   0  0  0  0  0  0  0  0  0  0  0  0
   -4.9196   -0.4335   -1.0493 H   0  0  0  0  0  0  0  0  0  0  0  0
   -5.1124    0.5124    0.4424 H   0  0  0  0  0  0  0  0  0  0  0  0
   -2.5293    0.0458   -0.2699 H   0  0  0  0  0  0  0  0  0  0  0  0
    1.0906   -2.6031   -0.7488 H   0  0  0  0  0  0  0  0  0  0  0  0
    1.6189   -2.8706   -2.4045 H   0  0  0  0  0  0  0  0  0  0  0  0
    3.1818   -0.9996   -3.4936 H   0  0  0  0  0  0  0  0  0  0  0  0
    5.2482    0.2624   -3.0486 H   0  0  0  0  0  0  0  0  0  0  0  0
    5.9904    0.6726   -0.7173 H   0  0  0  0  0  0  0  0  0  0  0  0
    4.6507   -0.1995    1.1798 H   0  0  0  0  0  0  0  0  0  0  0  0
    2.5803   -1.4682    0.7607 H   0  0  0  0  0  0  0  0  0  0  0  0
   -0.0777    1.1513    1.7308 H   0  0  0  0  0  0  0  0  0  0  0  0
    0.8192    2.4829   -1.6397 H   0  0  0  0  0  0  0  0  0  0  0  0
    1.3362    4.8282   -2.0111 H   0  0  0  0  0  0  0  0  0  0  0  0
    1.1759    6.4760   -0.1624 H   0  0  0  0  0  0  0  0  0  0  0  0
    0.4729    5.7323    2.0889 H   0  0  0  0  0  0  0  0  0  0  0  0
  1  2  1  0
  2  3  1  0
  3  4  2  0
  4  5  1  0
  4  6  1  0
  6  7  1  0
  7  8  2  3
  8  9  1  0
  9 10  2  3
 10 11  1  0
 11 12  2  0
 11 13  2  0
 11 14  1  0
 14 15  1  0
 15 16  2  0
 16 17  1  0
 17 18  2  0
 18 19  1  0
 19 20  2  0
  9 21  1  0
 21 22  1  0
 22 23  2  0
 23 24  1  0
 24 25  2  0
 25 26  1  0
 26 27  2  0
 27 28  1  0
  7 29  1  0
 29  2  2  0
 20 15  1  0
 27 22  1  0
  1 30  1  0
  1 31  1  0
  1 32  1  0
  3 33  1  0
  5 34  1  0
  5 35  1  0
  5 36  1  0
  6 37  1  0
 14 38  1  0
 14 39  1  0
 16 40  1  0
 17 41  1  0
 18 42  1  0
 19 43  1  0
 20 44  1  0
 21 45  1  0
 23 46  1  0
 24 47  1  0
 25 48  1  0
 26 49  1  0
M  END
$$$$
