
     RDKit          3D

 48 51  0  0  0  0  0  0  0  0999 V2000
   10.1063   -0.8422    2.8425 C   0  0  0  0  0  0  0  0  0  0  0  0
    8.8342   -0.3462    2.2610 C   0  0  0  0  0  0  0  0  0  0  0  0
    8.6516   -0.0430    0.9931 N   0  0  0  0  0  0  0  0  0  0  0  0
    7.3663    0.3978    0.7467 N   0  0  0  0  0  0  0  0  0  0  0  0
    6.6263    0.4063    1.8341 C   0  0  0  0  0  0  0  0  0  0  0  0
    4.9567    0.9162    1.8461 S   0  0  0  0  0  0  0  0  0  0  0  0
    4.6711    1.1235    0.0615 C   0  0  0  0  0  0  0  0  0  0  0  0
    3.2367    1.5353   -0.1868 C   0  0  0  0  0  0  0  0  0  0  0  0
    2.9347    2.8087   -0.4804 C   0  0  0  0  0  0  0  0  0  0  0  0
    1.5293    3.1478   -0.7262 C   0  0  0  0  0  0  0  0  0  0  0  0
    1.1870    4.2919   -0.9988 O   0  0  0  0  0  0  0  0  0  0  0  0
    0.6652    2.1026   -0.6307 N   0  0  0  0  0  0  0  0  0  0  0  0
    1.0505    0.8211   -0.3445 C   0  0  0  0  0  0  0  0  0  0  0  0
    0.1203   -0.1655   -0.2813 N   0  0  0  0  0  0  0  0  0  0  0  0
   -1.2489   -0.0983   -0.4663 C   0  0  0  0  0  0  0  0  0  0  0  0
   -1.8351    1.0720   -0.7657 N   0  0  0  0  0  0  0  0  0  0  0  0
   -3.1765    1.0801   -0.9362 C   0  0  0  0  0  0  0  0  0  0  0  0
   -3.7759    2.4168   -1.2684 C   0  0  0  0  0  0  0  0  0  0  0  0
   -3.9599   -0.0719   -0.8119 C   0  0  0  0  0  0  0  0  0  0  0  0
   -5.3664   -0.1325   -0.9754 C   0  0  0  0  0  0  0  0  0  0  0  0
   -6.0675   -1.3372   -0.8282 C   0  0  0  0  0  0  0  0  0  0  0  0
   -7.5597   -1.3568   -1.0142 C   0  0  0  0  0  0  0  0  0  0  0  0
   -5.3490   -2.5012   -0.5192 C   0  0  0  0  0  0  0  0  0  0  0  0
   -6.0340   -3.8292   -0.3468 C   0  0  0  0  0  0  0  0  0  0  0  0
   -3.9539   -2.4203   -0.3586 C   0  0  0  0  0  0  0  0  0  0  0  0
   -3.2488   -1.2317   -0.4995 C   0  0  0  0  0  0  0  0  0  0  0  0
   -1.9205   -1.2474   -0.3299 N   0  0  0  0  0  0  0  0  0  0  0  0
    2.3003    0.5241   -0.1310 N   0  0  0  0  0  0  0  0  0  0  0  0
    7.4466   -0.1135    3.2469 S   0  0  0  0  0  0  0  0  0  0  0  0
    9.9513   -1.7777    3.3894 H   0  0  0  0  0  0  0  0  0  0  0  0
   10.5326   -0.1016    3.5266 H   0  0  0  0  0  0  0  0  0  0  0  0
   10.8396   -1.0331    2.0522 H   0  0  0  0  0  0  0  0  0  0  0  0
    5.3630    1.8797   -0.3270 H   0  0  0  0  0  0  0  0  0  0  0  0
    4.8791    0.1839   -0.4633 H   0  0  0  0  0  0  0  0  0  0  0  0
    3.6600    3.6080   -0.5396 H   0  0  0  0  0  0  0  0  0  0  0  0
   -0.3184    2.2834   -0.7933 H   0  0  0  0  0  0  0  0  0  0  0  0
    0.4411   -1.0941   -0.0602 H   0  0  0  0  0  0  0  0  0  0  0  0
   -4.2789    2.3803   -2.2397 H   0  0  0  0  0  0  0  0  0  0  0  0
   -2.9995    3.1873   -1.3240 H   0  0  0  0  0  0  0  0  0  0  0  0
   -4.4902    2.7183   -0.4960 H   0  0  0  0  0  0  0  0  0  0  0  0
   -5.9211    0.7715   -1.2193 H   0  0  0  0  0  0  0  0  0  0  0  0
   -7.8257   -1.9769   -1.8761 H   0  0  0  0  0  0  0  0  0  0  0  0
   -8.0515   -1.7466   -0.1173 H   0  0  0  0  0  0  0  0  0  0  0  0
   -7.9560   -0.3515   -1.1930 H   0  0  0  0  0  0  0  0  0  0  0  0
   -6.5845   -4.0956   -1.2544 H   0  0  0  0  0  0  0  0  0  0  0  0
   -6.7242   -3.7920    0.5017 H   0  0  0  0  0  0  0  0  0  0  0  0
   -5.3140   -4.6313   -0.1533 H   0  0  0  0  0  0  0  0  0  0  0  0
   -3.3896   -3.3193   -0.1140 H   0  0  0  0  0  0  0  0  0  0  0  0
  1  2  1  0
  2  3  2  0
  3  4  1  0
  4  5  2  0
  5  6  1  0
  6  7  1  0
  7  8  1  0
  8  9  2  0
  9 10  1  0
 10 11  2  0
 10 12  1  0
 12 13  1  0
 13 14  1  0
 14 15  1  0
 15 16  2  0
 16 17  1  0
 17 18  1  0
 17 19  2  0
 19 20  1  0
 20 21  2  0
 21 22  1  0
 21 23  1  0
 23 24  1  0
 23 25  2  0
 25 26  1  0
 26 27  2  0
 13 28  2  0
  5 29  1  0
 29  2  1  0
 28  8  1  0
 27 15  1  0
 26 19  1  0
  1 30  1  0
  1 31  1  0
  1 32  1  0
  7 33  1  0
  7 34  1  0
  9 35  1  0
 12 36  1  0
 14 37  1  0
 18 38  1  0
 18 39  1  0
 18 40  1  0
 20 41  1  0
 22 42  1  0
 22 43  1  0
 22 44  1  0
 24 45  1  0
 24 46  1  0
 24 47  1  0
 25 48  1  0
M  END
$$$$
