
     RDKit          3D

 28 29  0  0  0  0  0  0  0  0999 V2000
   -4.9203    1.5598    1.7496 O   0  0  0  0  0  0  0  0  0  0  0  0
   -4.6769    0.5196    1.1261 N   0  0  0  0  0  4  0  0  0  0  0  0
   -5.1520   -0.5987    1.3625 O   0  0  0  0  0  1  0  0  0  0  0  0
   -3.7053    0.5995    0.0623 C   0  0  0  0  0  0  0  0  0  0  0  0
   -2.4680   -0.0262    0.2667 C   0  0  0  0  0  0  0  0  0  0  0  0
   -1.5105    0.0445   -0.7448 C   0  0  0  0  0  0  0  0  0  0  0  0
   -0.2032   -0.6051   -0.5336 C   0  0  0  0  0  0  0  0  0  0  0  0
    0.7321   -0.5627   -1.4307 N   0  0  0  0  0  0  0  0  0  0  0  0
    1.8983   -1.1872   -1.0583 N   0  0  0  0  0  0  0  0  0  0  0  0
    2.6997   -0.5742   -0.0385 C   0  0  0  0  0  0  0  0  0  0  0  0
    3.9375   -1.1592    0.2402 C   0  0  0  0  0  0  0  0  0  0  0  0
    4.7400   -0.6260    1.2469 C   0  0  0  0  0  0  0  0  0  0  0  0
    4.2868    0.4723    1.9626 C   0  0  0  0  0  0  0  0  0  0  0  0
    3.0423    0.9845    1.6442 C   0  0  0  0  0  0  0  0  0  0  0  0
    2.2441    0.4816    0.6770 N   0  0  0  0  0  0  0  0  0  0  0  0
   -1.7902    0.7280   -1.9348 C   0  0  0  0  0  0  0  0  0  0  0  0
   -3.0359    1.3391   -2.1215 C   0  0  0  0  0  0  0  0  0  0  0  0
   -4.0081    1.2767   -1.1198 C   0  0  0  0  0  0  0  0  0  0  0  0
   -5.5346    2.0176   -1.4277 Cl  0  0  0  0  0  0  0  0  0  0  0  0
   -2.2591   -0.5508    1.1963 H   0  0  0  0  0  0  0  0  0  0  0  0
   -0.0563   -1.1299    0.4288 H   0  0  0  0  0  0  0  0  0  0  0  0
    2.5143   -1.3326   -1.8591 H   0  0  0  0  0  0  0  0  0  0  0  0
    4.2746   -2.0280   -0.3154 H   0  0  0  0  0  0  0  0  0  0  0  0
    5.7063   -1.0686    1.4704 H   0  0  0  0  0  0  0  0  0  0  0  0
    4.8837    0.9150    2.7518 H   0  0  0  0  0  0  0  0  0  0  0  0
    2.6371    1.8404    2.1763 H   0  0  0  0  0  0  0  0  0  0  0  0
   -1.0395    0.7881   -2.7217 H   0  0  0  0  0  0  0  0  0  0  0  0
   -3.2371    1.8600   -3.0557 H   0  0  0  0  0  0  0  0  0  0  0  0
  1  2  2  0
  2  3  1  0
  2  4  1  0
  4  5  2  0
  5  6  1  0
  6  7  1  0
  7  8  2  3
  8  9  1  0
  9 10  1  0
 10 11  2  0
 11 12  1  0
 12 13  2  0
 13 14  1  0
 14 15  2  0
  6 16  2  0
 16 17  1  0
 17 18  2  0
 18 19  1  0
 18  4  1  0
 15 10  1  0
  5 20  1  0
  7 21  1  0
  9 22  1  0
 11 23  1  0
 12 24  1  0
 13 25  1  0
 14 26  1  0
 16 27  1  0
 17 28  1  0
M  CHG  2   2   1   3  -1
M  END
$$$$
