
     RDKit          3D

 36 39  0  0  0  0  0  0  0  0999 V2000
   -2.7793   -0.8478   -2.4825 O   0  0  0  0  0  0  0  0  0  0  0  0
   -3.6247   -0.5538   -1.4484 C   0  0  0  0  0  0  0  0  0  0  0  0
   -4.9789   -0.4551   -1.7576 C   0  0  0  0  0  0  0  0  0  0  0  0
   -5.8993   -0.1561   -0.7520 C   0  0  0  0  0  0  0  0  0  0  0  0
   -5.4567    0.0421    0.5563 C   0  0  0  0  0  0  0  0  0  0  0  0
   -6.5947    0.4111    1.7935 Cl  0  0  0  0  0  0  0  0  0  0  0  0
   -4.1018   -0.0550    0.8740 C   0  0  0  0  0  0  0  0  0  0  0  0
   -3.1817   -0.3552   -0.1345 C   0  0  0  0  0  0  0  0  0  0  0  0
   -1.7549   -0.4500    0.2307 C   0  0  0  0  0  0  0  0  0  0  0  0
   -0.8533   -0.7332   -0.6588 N   0  0  0  0  0  0  0  0  0  0  0  0
    0.4704   -0.7838   -0.1797 C   0  0  0  0  0  0  0  0  0  0  0  0
    1.0027   -2.0261    0.2309 C   0  0  0  0  0  0  0  0  0  0  0  0
    2.3148   -2.1393    0.7192 C   0  0  0  0  0  0  0  0  0  0  0  0
    3.0965   -0.9995    0.7868 C   0  0  0  0  0  0  0  0  0  0  0  0
    2.5759    0.1989    0.3712 C   0  0  0  0  0  0  0  0  0  0  0  0
    3.5069    1.1968    0.5072 C   0  0  0  0  0  0  0  0  0  0  0  0
    3.1785    2.4888    0.1326 C   0  0  0  0  0  0  0  0  0  0  0  0
    1.8964    2.7357   -0.3812 C   0  0  0  0  0  0  0  0  0  0  0  0
    0.9549    1.6959   -0.5128 C   0  0  0  0  0  0  0  0  0  0  0  0
    1.2825    0.3770   -0.1264 C   0  0  0  0  0  0  0  0  0  0  0  0
    4.7940    0.6692    1.0693 C   0  0  0  0  0  0  0  0  0  0  0  0
    4.5130   -0.8449    1.2570 C   0  0  0  0  0  0  0  0  0  0  0  0
   -1.8658   -0.8862   -2.1144 H   0  0  0  0  0  0  0  0  0  0  0  0
   -5.3140   -0.6107   -2.7799 H   0  0  0  0  0  0  0  0  0  0  0  0
   -6.9558   -0.0796   -0.9959 H   0  0  0  0  0  0  0  0  0  0  0  0
   -3.7742    0.1028    1.8978 H   0  0  0  0  0  0  0  0  0  0  0  0
   -1.4902   -0.2676    1.2897 H   0  0  0  0  0  0  0  0  0  0  0  0
    0.3805   -2.9156    0.1643 H   0  0  0  0  0  0  0  0  0  0  0  0
    2.7028   -3.1043    1.0300 H   0  0  0  0  0  0  0  0  0  0  0  0
    3.8966    3.2975    0.2266 H   0  0  0  0  0  0  0  0  0  0  0  0
    1.6250    3.7435   -0.6876 H   0  0  0  0  0  0  0  0  0  0  0  0
   -0.0283    1.9113   -0.9238 H   0  0  0  0  0  0  0  0  0  0  0  0
    5.0285    1.1433    2.0279 H   0  0  0  0  0  0  0  0  0  0  0  0
    5.6233    0.8275    0.3721 H   0  0  0  0  0  0  0  0  0  0  0  0
    5.1973   -1.4456    0.6489 H   0  0  0  0  0  0  0  0  0  0  0  0
    4.6130   -1.1321    2.3088 H   0  0  0  0  0  0  0  0  0  0  0  0
  1  2  1  0
  2  3  2  0
  3  4  1  0
  4  5  2  0
  5  6  1  0
  5  7  1  0
  7  8  2  0
  8  9  1  0
  9 10  2  3
 10 11  1  0
 11 12  2  0
 12 13  1  0
 13 14  2  0
 14 15  1  0
 15 16  2  0
 16 17  1  0
 17 18  2  0
 18 19  1  0
 19 20  2  0
 16 21  1  0
 21 22  1  0
  8  2  1  0
 20 11  1  0
 22 14  1  0
 20 15  1  0
  1 23  1  0
  3 24  1  0
  4 25  1  0
  7 26  1  0
  9 27  1  0
 12 28  1  0
 13 29  1  0
 17 30  1  0
 18 31  1  0
 19 32  1  0
 21 33  1  0
 21 34  1  0
 22 35  1  0
 22 36  1  0
M  END
$$$$
