
     RDKit          3D

 43 46  0  0  0  0  0  0  0  0999 V2000
    2.0837   -1.4990   -1.0916 O   0  0  0  0  0  0  0  0  0  0  0  0
    2.3490   -1.0089    0.0056 C   0  0  0  0  0  0  0  0  0  0  0  0
    3.5606   -0.1774    0.1208 C   0  0  0  0  0  0  0  0  0  0  0  0
    4.3365    0.1335   -1.0017 C   0  0  0  0  0  0  0  0  0  0  0  0
    5.4823    0.9170   -0.8570 C   0  0  0  0  0  0  0  0  0  0  0  0
    5.8512    1.3854    0.4049 C   0  0  0  0  0  0  0  0  0  0  0  0
    5.0761    1.0719    1.5238 C   0  0  0  0  0  0  0  0  0  0  0  0
    3.9300    0.2900    1.3730 C   0  0  0  0  0  0  0  0  0  0  0  0
    3.1563   -0.0313    2.4837 N   0  0  0  0  0  0  0  0  0  0  0  0
    2.0041   -0.7681    2.4296 C   0  0  0  0  0  0  0  0  0  0  0  0
    1.2466   -1.0436    3.9037 S   0  0  0  0  0  0  0  0  0  0  0  0
    1.5963   -1.2149    1.1734 N   0  0  0  0  0  0  0  0  0  0  0  0
    0.3278   -1.9425    0.9869 C   0  0  0  0  0  0  0  0  0  0  0  0
   -0.9197   -1.0218    0.9822 C   0  0  0  0  0  0  0  0  0  0  0  0
   -0.8703    0.1164    0.0398 N   0  0  0  0  0  0  0  0  0  0  0  0
   -0.9169   -0.3333   -1.3750 C   0  0  0  0  0  0  0  0  0  0  0  0
   -2.0281    0.2549   -2.2714 C   0  0  0  0  0  0  0  0  0  0  0  0
   -3.3333    0.3122   -1.5257 C   0  0  0  0  0  0  0  0  0  0  0  0
   -4.5615    0.0064   -2.1122 C   0  0  0  0  0  0  0  0  0  0  0  0
   -5.7295    0.1028   -1.3553 C   0  0  0  0  0  0  0  0  0  0  0  0
   -5.6726    0.5142   -0.0218 C   0  0  0  0  0  0  0  0  0  0  0  0
   -4.4470    0.8357    0.5632 C   0  0  0  0  0  0  0  0  0  0  0  0
   -3.2739    0.7333   -0.1869 C   0  0  0  0  0  0  0  0  0  0  0  0
   -1.9167    1.1065    0.3570 C   0  0  0  0  0  0  0  0  0  0  0  0
    4.0501   -0.2329   -1.9851 H   0  0  0  0  0  0  0  0  0  0  0  0
    6.0865    1.1608   -1.7278 H   0  0  0  0  0  0  0  0  0  0  0  0
    6.7447    1.9954    0.5164 H   0  0  0  0  0  0  0  0  0  0  0  0
    5.3761    1.4428    2.4999 H   0  0  0  0  0  0  0  0  0  0  0  0
    3.4352    0.2994    3.4004 H   0  0  0  0  0  0  0  0  0  0  0  0
    0.2200   -2.6817    1.7889 H   0  0  0  0  0  0  0  0  0  0  0  0
    0.3563   -2.5231    0.0587 H   0  0  0  0  0  0  0  0  0  0  0  0
   -1.8101   -1.6378    0.7991 H   0  0  0  0  0  0  0  0  0  0  0  0
   -1.0345   -0.6249    1.9968 H   0  0  0  0  0  0  0  0  0  0  0  0
    0.0460   -0.0947   -1.8393 H   0  0  0  0  0  0  0  0  0  0  0  0
   -1.0151   -1.4257   -1.4259 H   0  0  0  0  0  0  0  0  0  0  0  0
   -1.7606    1.2709   -2.5870 H   0  0  0  0  0  0  0  0  0  0  0  0
   -2.1232   -0.3570   -3.1759 H   0  0  0  0  0  0  0  0  0  0  0  0
   -4.6163   -0.3080   -3.1509 H   0  0  0  0  0  0  0  0  0  0  0  0
   -6.6884   -0.1395   -1.8063 H   0  0  0  0  0  0  0  0  0  0  0  0
   -6.5874    0.5907    0.5602 H   0  0  0  0  0  0  0  0  0  0  0  0
   -4.4150    1.1667    1.5977 H   0  0  0  0  0  0  0  0  0  0  0  0
   -1.6296    2.0717   -0.0813 H   0  0  0  0  0  0  0  0  0  0  0  0
   -1.9658    1.2875    1.4381 H   0  0  0  0  0  0  0  0  0  0  0  0
  1  2  2  0
  2  3  1  0
  3  4  2  0
  4  5  1  0
  5  6  2  0
  6  7  1  0
  7  8  2  0
  8  9  1  0
  9 10  1  0
 10 11  2  0
 10 12  1  0
 12 13  1  0
 13 14  1  0
 14 15  1  0
 15 16  1  0
 16 17  1  0
 17 18  1  0
 18 19  2  0
 19 20  1  0
 20 21  2  0
 21 22  1  0
 22 23  2  0
 23 24  1  0
 12  2  1  0
 24 15  1  0
  8  3  1  0
 23 18  1  0
  4 25  1  0
  5 26  1  0
  6 27  1  0
  7 28  1  0
  9 29  1  0
 13 30  1  0
 13 31  1  0
 14 32  1  0
 14 33  1  0
 16 34  1  0
 16 35  1  0
 17 36  1  0
 17 37  1  0
 19 38  1  0
 20 39  1  0
 21 40  1  0
 22 41  1  0
 24 42  1  0
 24 43  1  0
M  END
$$$$
