
     RDKit          3D

 50 53  0  0  0  0  0  0  0  0999 V2000
   -3.2239   -1.5619    2.0845 C   0  0  0  0  0  0  0  0  0  0  0  0
   -2.0994   -0.7403    1.8170 O   0  0  0  0  0  0  0  0  0  0  0  0
   -2.1765   -0.1068    0.5953 C   0  0  0  0  0  0  0  0  0  0  0  0
   -1.2365    0.7887    0.3912 N   0  0  0  0  0  0  0  0  0  0  0  0
   -1.2885    1.3832   -0.7926 C   0  0  0  0  0  0  0  0  0  0  0  0
   -0.3223    2.3661   -1.1408 N   0  0  0  0  0  0  0  0  0  0  0  0
    0.0776    3.2138   -0.1420 N   0  0  0  0  0  0  0  0  0  0  0  0
    1.0937    2.8675    0.5981 C   0  0  0  0  0  0  0  0  0  0  0  0
    1.9798    1.7355    0.4948 C   0  0  0  0  0  0  0  0  0  0  0  0
    2.1839    0.7349   -0.4366 C   0  0  0  0  0  0  0  0  0  0  0  0
    3.2359   -0.0814    0.0551 C   0  0  0  0  0  0  0  0  0  0  0  0
    3.6269    0.4681    1.2582 C   0  0  0  0  0  0  0  0  0  0  0  0
    4.6145    0.1344    2.2765 C   0  0  0  0  0  0  0  0  0  0  0  0
    4.2079    0.1667    3.6244 C   0  0  0  0  0  0  0  0  0  0  0  0
    5.0745   -0.1957    4.6590 C   0  0  0  0  0  0  0  0  0  0  0  0
    6.3715   -0.6040    4.3737 C   0  0  0  0  0  0  0  0  0  0  0  0
    6.8076   -0.6355    3.0537 C   0  0  0  0  0  0  0  0  0  0  0  0
    5.9334   -0.2597    2.0162 C   0  0  0  0  0  0  0  0  0  0  0  0
    6.4782   -0.2633    0.6660 N   0  0  0  0  0  4  0  0  0  0  0  0
    7.1573   -1.2462    0.3336 O   0  0  0  0  0  0  0  0  0  0  0  0
    6.2777    0.7285   -0.0467 O   0  0  0  0  0  1  0  0  0  0  0  0
    2.8723    1.5730    1.5207 O   0  0  0  0  0  0  0  0  0  0  0  0
   -2.1906    1.1047   -1.7280 N   0  0  0  0  0  0  0  0  0  0  0  0
   -3.0967    0.1798   -1.4343 C   0  0  0  0  0  0  0  0  0  0  0  0
   -4.0830   -0.1138   -2.3806 N   0  0  0  0  0  0  0  0  0  0  0  0
   -3.6620    0.1012   -3.7760 C   0  0  0  0  0  0  0  0  0  0  0  0
   -4.8416   -0.1393   -4.7327 C   0  0  0  0  0  0  0  0  0  0  0  0
   -5.4397   -1.4279   -4.5295 O   0  0  0  0  0  0  0  0  0  0  0  0
   -5.9218   -1.5436   -3.1799 C   0  0  0  0  0  0  0  0  0  0  0  0
   -4.7787   -1.3928   -2.1631 C   0  0  0  0  0  0  0  0  0  0  0  0
   -3.1230   -0.4479   -0.2672 N   0  0  0  0  0  0  0  0  0  0  0  0
   -3.3124   -2.3808    1.3578 H   0  0  0  0  0  0  0  0  0  0  0  0
   -3.0837   -2.0124    3.0732 H   0  0  0  0  0  0  0  0  0  0  0  0
   -4.1429   -0.9654    2.1147 H   0  0  0  0  0  0  0  0  0  0  0  0
   -0.7646    2.8416   -1.9277 H   0  0  0  0  0  0  0  0  0  0  0  0
    1.3276    3.5592    1.4270 H   0  0  0  0  0  0  0  0  0  0  0  0
    1.6428    0.6039   -1.3635 H   0  0  0  0  0  0  0  0  0  0  0  0
    3.6466   -0.9642   -0.4164 H   0  0  0  0  0  0  0  0  0  0  0  0
    3.1925    0.4679    3.8773 H   0  0  0  0  0  0  0  0  0  0  0  0
    4.7278   -0.1668    5.6881 H   0  0  0  0  0  0  0  0  0  0  0  0
    7.0414   -0.8918    5.1794 H   0  0  0  0  0  0  0  0  0  0  0  0
    7.8263   -0.9453    2.8386 H   0  0  0  0  0  0  0  0  0  0  0  0
   -2.8508   -0.5975   -4.0218 H   0  0  0  0  0  0  0  0  0  0  0  0
   -3.3028    1.1244   -3.9368 H   0  0  0  0  0  0  0  0  0  0  0  0
   -5.6089    0.6374   -4.6130 H   0  0  0  0  0  0  0  0  0  0  0  0
   -4.4881   -0.0987   -5.7704 H   0  0  0  0  0  0  0  0  0  0  0  0
   -6.7006   -0.7912   -3.0140 H   0  0  0  0  0  0  0  0  0  0  0  0
   -6.3782   -2.5323   -3.0734 H   0  0  0  0  0  0  0  0  0  0  0  0
   -4.0694   -2.2220   -2.2913 H   0  0  0  0  0  0  0  0  0  0  0  0
   -5.2112   -1.4518   -1.1570 H   0  0  0  0  0  0  0  0  0  0  0  0
  1  2  1  0
  2  3  1  0
  3  4  2  0
  4  5  1  0
  5  6  1  0
  6  7  1  0
  7  8  2  3
  8  9  1  0
  9 10  2  0
 10 11  1  0
 11 12  2  0
 12 13  1  0
 13 14  2  0
 14 15  1  0
 15 16  2  0
 16 17  1  0
 17 18  2  0
 18 19  1  0
 19 20  2  0
 19 21  1  0
 12 22  1  0
  5 23  2  0
 23 24  1  0
 24 25  1  0
 25 26  1  0
 26 27  1  0
 27 28  1  0
 28 29  1  0
 29 30  1  0
 24 31  2  0
 31  3  1  0
 22  9  1  0
 30 25  1  0
 18 13  1  0
  1 32  1  0
  1 33  1  0
  1 34  1  0
  6 35  1  0
  8 36  1  0
 10 37  1  0
 11 38  1  0
 14 39  1  0
 15 40  1  0
 16 41  1  0
 17 42  1  0
 26 43  1  0
 26 44  1  0
 27 45  1  0
 27 46  1  0
 29 47  1  0
 29 48  1  0
 30 49  1  0
 30 50  1  0
M  CHG  2  19   1  21  -1
M  END
$$$$
