
     RDKit          3D

 46 48  0  0  0  0  0  0  0  0999 V2000
   -3.5872    3.0848   -1.3773 C   0  0  0  0  0  0  0  0  0  0  0  0
   -2.3454    3.8613   -1.7740 C   0  0  0  0  0  0  0  0  0  0  0  0
   -1.1728    3.1484   -1.3626 O   0  0  0  0  0  0  0  0  0  0  0  0
   -0.7508    3.3999   -0.1094 C   0  0  0  0  0  0  0  0  0  0  0  0
   -1.2223    4.1578    0.7181 O   0  0  0  0  0  0  0  0  0  0  0  0
    0.4200    2.5192    0.2101 C   0  0  0  0  0  0  0  0  0  0  0  0
    1.5719    2.5949   -0.3935 N   0  0  0  0  0  0  0  0  0  0  0  0
    2.3552    1.6188    0.1764 N   0  0  0  0  0  0  0  0  0  0  0  0
    1.7704    1.1529    1.4407 C   0  0  0  0  0  0  0  0  0  0  0  0
    2.0334   -0.2800    1.9047 C   0  0  0  0  0  0  0  0  0  0  0  0
    1.5850   -0.7047    2.9704 O   0  0  0  0  0  0  0  0  0  0  0  0
    2.8227   -1.2014    1.0612 C   0  0  0  0  0  0  0  0  0  0  0  0
    2.2497   -2.4254    0.7003 C   0  0  0  0  0  0  0  0  0  0  0  0
    2.9738   -3.3249   -0.0818 C   0  0  0  0  0  0  0  0  0  0  0  0
    4.2708   -3.0078   -0.4872 C   0  0  0  0  0  0  0  0  0  0  0  0
    4.8511   -1.7975   -0.1029 C   0  0  0  0  0  0  0  0  0  0  0  0
    4.1313   -0.8935    0.6801 C   0  0  0  0  0  0  0  0  0  0  0  0
    0.2735    1.4707    1.2743 C   0  0  0  0  0  0  0  0  0  0  0  0
   -0.6271    0.3385    0.8137 C   0  0  0  0  0  0  0  0  0  0  0  0
   -0.5001   -0.2492   -0.4552 C   0  0  0  0  0  0  0  0  0  0  0  0
   -1.3416   -1.2942   -0.8531 C   0  0  0  0  0  0  0  0  0  0  0  0
   -2.3213   -1.7742    0.0132 C   0  0  0  0  0  0  0  0  0  0  0  0
   -3.2024   -2.7863   -0.2484 O   0  0  0  0  0  0  0  0  0  0  0  0
   -3.1171   -3.3973   -1.5294 C   0  0  0  0  0  0  0  0  0  0  0  0
   -2.4480   -1.2004    1.2790 C   0  0  0  0  0  0  0  0  0  0  0  0
   -1.6110   -0.1555    1.6789 C   0  0  0  0  0  0  0  0  0  0  0  0
   -3.5542    2.0701   -1.7875 H   0  0  0  0  0  0  0  0  0  0  0  0
   -3.6559    2.9853   -0.2893 H   0  0  0  0  0  0  0  0  0  0  0  0
   -4.4899    3.5840   -1.7402 H   0  0  0  0  0  0  0  0  0  0  0  0
   -2.3001    3.9542   -2.8640 H   0  0  0  0  0  0  0  0  0  0  0  0
   -2.3609    4.8775   -1.3629 H   0  0  0  0  0  0  0  0  0  0  0  0
    3.3562    1.7927    0.0887 H   0  0  0  0  0  0  0  0  0  0  0  0
    2.2073    1.8105    2.2050 H   0  0  0  0  0  0  0  0  0  0  0  0
    1.2424   -2.6774    1.0268 H   0  0  0  0  0  0  0  0  0  0  0  0
    2.5294   -4.2747   -0.3687 H   0  0  0  0  0  0  0  0  0  0  0  0
    4.8358   -3.7118   -1.0940 H   0  0  0  0  0  0  0  0  0  0  0  0
    5.8691   -1.5651   -0.4067 H   0  0  0  0  0  0  0  0  0  0  0  0
    4.6069    0.0280    1.0009 H   0  0  0  0  0  0  0  0  0  0  0  0
   -0.1210    1.9318    2.1873 H   0  0  0  0  0  0  0  0  0  0  0  0
    0.2605    0.0957   -1.1557 H   0  0  0  0  0  0  0  0  0  0  0  0
   -1.2002   -1.7097   -1.8452 H   0  0  0  0  0  0  0  0  0  0  0  0
   -3.3229   -2.6748   -2.3260 H   0  0  0  0  0  0  0  0  0  0  0  0
   -3.8841   -4.1760   -1.5802 H   0  0  0  0  0  0  0  0  0  0  0  0
   -2.1441   -3.8787   -1.6731 H   0  0  0  0  0  0  0  0  0  0  0  0
   -3.2043   -1.5744    1.9653 H   0  0  0  0  0  0  0  0  0  0  0  0
   -1.7315    0.2574    2.6788 H   0  0  0  0  0  0  0  0  0  0  0  0
  1  2  1  0
  2  3  1  0
  3  4  1  0
  4  5  2  0
  4  6  1  0
  6  7  2  0
  7  8  1  0
  8  9  1  0
  9 10  1  0
 10 11  2  0
 10 12  1  0
 12 13  2  0
 13 14  1  0
 14 15  2  0
 15 16  1  0
 16 17  2  0
  9 18  1  0
 18 19  1  0
 19 20  2  0
 20 21  1  0
 21 22  2  0
 22 23  1  0
 23 24  1  0
 22 25  1  0
 25 26  2  0
 18  6  1  0
 26 19  1  0
 17 12  1  0
  1 27  1  0
  1 28  1  0
  1 29  1  0
  2 30  1  0
  2 31  1  0
  8 32  1  0
  9 33  1  0
 13 34  1  0
 14 35  1  0
 15 36  1  0
 16 37  1  0
 17 38  1  0
 18 39  1  0
 20 40  1  0
 21 41  1  0
 24 42  1  0
 24 43  1  0
 24 44  1  0
 25 45  1  0
 26 46  1  0
M  END
$$$$
