
     RDKit          3D

 47 49  0  0  0  0  0  0  0  0999 V2000
   -5.7832   -3.3059    1.1389 C   0  0  0  0  0  0  0  0  0  0  0  0
   -4.9900   -2.0191    1.2834 C   0  0  0  0  0  0  0  0  0  0  0  0
   -4.3202   -1.7732    0.0471 O   0  0  0  0  0  0  0  0  0  0  0  0
   -3.5792   -0.6276   -0.0440 C   0  0  0  0  0  0  0  0  0  0  0  0
   -3.0119   -0.4011   -1.3030 C   0  0  0  0  0  0  0  0  0  0  0  0
   -2.2302    0.7305   -1.5406 C   0  0  0  0  0  0  0  0  0  0  0  0
   -1.9991    1.6324   -0.5003 C   0  0  0  0  0  0  0  0  0  0  0  0
   -1.0240    3.0923   -0.7968 S   0  0  0  0  0  6  0  0  0  0  0  0
   -1.4360    4.0950    0.1626 O   0  0  0  0  0  0  0  0  0  0  0  0
   -1.0610    3.3605   -2.2191 O   0  0  0  0  0  0  0  0  0  0  0  0
    0.5539    2.6044   -0.4012 N   0  0  0  0  0  0  0  0  0  0  0  0
    0.8236    2.3196    1.0446 C   0  0  0  0  0  0  0  0  0  0  0  0
    2.3416    2.2393    1.2774 C   0  0  0  0  0  0  0  0  0  0  0  0
    2.9558    1.2423    0.3941 N   0  0  0  0  0  0  0  0  0  0  0  0
    3.0001   -0.0718    0.8690 C   0  0  0  0  0  0  0  0  0  0  0  0
    2.4742   -0.4201    1.9230 O   0  0  0  0  0  0  0  0  0  0  0  0
    3.7271   -1.0910    0.0761 C   0  0  0  0  0  0  0  0  0  0  0  0
    4.9544   -0.7984   -0.5174 C   0  0  0  0  0  0  0  0  0  0  0  0
    5.5820   -1.8073   -1.2237 C   0  0  0  0  0  0  0  0  0  0  0  0
    5.0767   -3.0524   -1.3585 N   0  0  0  0  0  0  0  0  0  0  0  0
    3.9024   -3.3138   -0.7423 C   0  0  0  0  0  0  0  0  0  0  0  0
    3.1947   -2.3760   -0.0150 C   0  0  0  0  0  0  0  0  0  0  0  0
    2.7081    1.5258   -1.0287 C   0  0  0  0  0  0  0  0  0  0  0  0
    1.1932    1.6050   -1.3101 C   0  0  0  0  0  0  0  0  0  0  0  0
   -2.5792    1.4295    0.7550 C   0  0  0  0  0  0  0  0  0  0  0  0
   -3.3622    0.2933    0.9832 C   0  0  0  0  0  0  0  0  0  0  0  0
   -6.5055   -3.2229    0.3192 H   0  0  0  0  0  0  0  0  0  0  0  0
   -6.3226   -3.5371    2.0622 H   0  0  0  0  0  0  0  0  0  0  0  0
   -5.1198   -4.1439    0.8968 H   0  0  0  0  0  0  0  0  0  0  0  0
   -5.6801   -1.1986    1.5126 H   0  0  0  0  0  0  0  0  0  0  0  0
   -4.2607   -2.1367    2.0936 H   0  0  0  0  0  0  0  0  0  0  0  0
   -3.1929   -1.1102   -2.1079 H   0  0  0  0  0  0  0  0  0  0  0  0
   -1.8159    0.8999   -2.5317 H   0  0  0  0  0  0  0  0  0  0  0  0
    0.4180    3.1196    1.6712 H   0  0  0  0  0  0  0  0  0  0  0  0
    0.3498    1.3733    1.3263 H   0  0  0  0  0  0  0  0  0  0  0  0
    2.8114    3.2050    1.0551 H   0  0  0  0  0  0  0  0  0  0  0  0
    2.5535    1.9999    2.3253 H   0  0  0  0  0  0  0  0  0  0  0  0
    5.4140    0.1783   -0.4244 H   0  0  0  0  0  0  0  0  0  0  0  0
    6.5381   -1.6411   -1.7120 H   0  0  0  0  0  0  0  0  0  0  0  0
    3.5379   -4.3322   -0.8512 H   0  0  0  0  0  0  0  0  0  0  0  0
    2.2605   -2.6383    0.4714 H   0  0  0  0  0  0  0  0  0  0  0  0
    3.1881    2.4841   -1.2587 H   0  0  0  0  0  0  0  0  0  0  0  0
    3.1481    0.7640   -1.6751 H   0  0  0  0  0  0  0  0  0  0  0  0
    0.7383    0.6212   -1.1500 H   0  0  0  0  0  0  0  0  0  0  0  0
    1.0508    1.8950   -2.3557 H   0  0  0  0  0  0  0  0  0  0  0  0
   -2.4309    2.1483    1.5583 H   0  0  0  0  0  0  0  0  0  0  0  0
   -3.7917    0.1601    1.9712 H   0  0  0  0  0  0  0  0  0  0  0  0
  1  2  1  0
  2  3  1  0
  3  4  1  0
  4  5  2  0
  5  6  1  0
  6  7  2  0
  7  8  1  0
  8  9  2  0
  8 10  2  0
  8 11  1  0
 11 12  1  0
 12 13  1  0
 13 14  1  0
 14 15  1  0
 15 16  2  0
 15 17  1  0
 17 18  2  0
 18 19  1  0
 19 20  2  0
 20 21  1  0
 21 22  2  0
 14 23  1  0
 23 24  1  0
  7 25  1  0
 25 26  2  0
 26  4  1  0
 24 11  1  0
 22 17  1  0
  1 27  1  0
  1 28  1  0
  1 29  1  0
  2 30  1  0
  2 31  1  0
  5 32  1  0
  6 33  1  0
 12 34  1  0
 12 35  1  0
 13 36  1  0
 13 37  1  0
 18 38  1  0
 19 39  1  0
 21 40  1  0
 22 41  1  0
 23 42  1  0
 23 43  1  0
 24 44  1  0
 24 45  1  0
 25 46  1  0
 26 47  1  0
M  END
$$$$
