
     RDKit          3D

 50 53  0  0  0  0  0  0  0  0999 V2000
   -1.9549   -1.8568   -3.1396 C   0  0  0  0  0  0  0  0  0  0  0  0
   -1.5858   -1.2650   -1.8948 O   0  0  0  0  0  0  0  0  0  0  0  0
   -0.6105   -1.9278   -1.2303 C   0  0  0  0  0  0  0  0  0  0  0  0
   -0.0153   -2.9201   -1.6241 O   0  0  0  0  0  0  0  0  0  0  0  0
   -0.2690   -1.2460    0.0391 C   0  0  0  0  0  0  0  0  0  0  0  0
   -1.1572   -0.7349    0.9293 C   0  0  0  0  0  0  0  0  0  0  0  0
   -2.6195   -0.8192    0.7892 C   0  0  0  0  0  0  0  0  0  0  0  0
   -3.2651   -2.0623    0.8380 C   0  0  0  0  0  0  0  0  0  0  0  0
   -4.6521   -2.1450    0.7048 C   0  0  0  0  0  0  0  0  0  0  0  0
   -5.4050   -0.9848    0.5231 C   0  0  0  0  0  0  0  0  0  0  0  0
   -4.7714    0.2616    0.4753 C   0  0  0  0  0  0  0  0  0  0  0  0
   -5.5470    1.4523    0.2852 C   0  0  0  0  0  0  0  0  0  0  0  0
   -6.1833    2.4110    0.1319 N   0  0  0  0  0  0  0  0  0  0  0  0
   -3.3807    0.3431    0.6115 C   0  0  0  0  0  0  0  0  0  0  0  0
   -0.6544   -0.0296    2.1907 C   0  0  0  0  0  0  0  0  0  0  0  0
    0.8798   -0.1711    2.3657 C   0  0  0  0  0  0  0  0  0  0  0  0
    1.2775   -1.6181    2.7070 C   0  0  0  0  0  0  0  0  0  0  0  0
    1.5891   -2.2758    1.3483 C   0  0  0  0  0  0  0  0  0  0  0  0
    1.2272   -1.2037    0.3138 C   0  0  0  0  0  0  0  0  0  0  0  0
    1.4949    0.0205    1.0613 N   0  0  0  0  0  0  0  0  0  0  0  0
    1.6778    1.2825    0.5495 C   0  0  0  0  0  0  0  0  0  0  0  0
    1.4605    2.2955    1.2075 O   0  0  0  0  0  0  0  0  0  0  0  0
    2.1091    1.3131   -0.7496 N   0  0  0  0  0  0  0  0  0  0  0  0
    2.3993    2.5695   -1.4033 C   0  0  0  0  0  0  0  0  0  0  0  0
    3.8253    2.9450   -1.1505 C   0  0  0  0  0  0  0  0  0  0  0  0
    4.9417    2.3119   -1.9434 C   0  0  0  0  0  0  0  0  0  0  0  0
    4.5939    3.7595   -2.1590 C   0  0  0  0  0  0  0  0  0  0  0  0
   -2.8425   -1.3371   -3.5110 H   0  0  0  0  0  0  0  0  0  0  0  0
   -1.1478   -1.7312   -3.8685 H   0  0  0  0  0  0  0  0  0  0  0  0
   -2.2028   -2.9162   -3.0136 H   0  0  0  0  0  0  0  0  0  0  0  0
   -2.6924   -2.9765    0.9823 H   0  0  0  0  0  0  0  0  0  0  0  0
   -5.1446   -3.1139    0.7426 H   0  0  0  0  0  0  0  0  0  0  0  0
   -6.4862   -1.0588    0.4186 H   0  0  0  0  0  0  0  0  0  0  0  0
   -2.8876    1.3137    0.5632 H   0  0  0  0  0  0  0  0  0  0  0  0
   -1.1632   -0.4220    3.0794 H   0  0  0  0  0  0  0  0  0  0  0  0
   -0.9037    1.0364    2.1148 H   0  0  0  0  0  0  0  0  0  0  0  0
    1.2520    0.5455    3.1053 H   0  0  0  0  0  0  0  0  0  0  0  0
    2.1835   -1.6263    3.3248 H   0  0  0  0  0  0  0  0  0  0  0  0
    0.4990   -2.1546    3.2591 H   0  0  0  0  0  0  0  0  0  0  0  0
    2.6621   -2.4975    1.2976 H   0  0  0  0  0  0  0  0  0  0  0  0
    1.0502   -3.2193    1.2117 H   0  0  0  0  0  0  0  0  0  0  0  0
    1.8262   -1.2709   -0.5977 H   0  0  0  0  0  0  0  0  0  0  0  0
    2.7004    0.5446   -1.0204 H   0  0  0  0  0  0  0  0  0  0  0  0
    1.7281    3.3531   -1.0374 H   0  0  0  0  0  0  0  0  0  0  0  0
    2.2075    2.4243   -2.4715 H   0  0  0  0  0  0  0  0  0  0  0  0
    4.0036    3.1617   -0.1019 H   0  0  0  0  0  0  0  0  0  0  0  0
    5.8658    2.0843   -1.4241 H   0  0  0  0  0  0  0  0  0  0  0  0
    4.6934    1.6140   -2.7343 H   0  0  0  0  0  0  0  0  0  0  0  0
    4.1106    4.0326   -3.0907 H   0  0  0  0  0  0  0  0  0  0  0  0
    5.2831    4.5088   -1.7832 H   0  0  0  0  0  0  0  0  0  0  0  0
  1  2  1  0
  2  3  1  0
  3  4  2  0
  3  5  1  0
  5  6  2  0
  6  7  1  0
  7  8  2  0
  8  9  1  0
  9 10  2  0
 10 11  1  0
 11 12  1  0
 12 13  3  0
 11 14  2  0
  6 15  1  0
 15 16  1  0
 16 17  1  0
 17 18  1  0
 18 19  1  0
 19 20  1  0
 20 21  1  0
 21 22  2  0
 21 23  1  0
 23 24  1  0
 24 25  1  0
 25 26  1  0
 26 27  1  0
 19  5  1  0
 27 25  1  0
 14  7  1  0
 20 16  1  0
  1 28  1  0
  1 29  1  0
  1 30  1  0
  8 31  1  0
  9 32  1  0
 10 33  1  0
 14 34  1  0
 15 35  1  0
 15 36  1  0
 16 37  1  0
 17 38  1  0
 17 39  1  0
 18 40  1  0
 18 41  1  0
 19 42  1  0
 23 43  1  0
 24 44  1  0
 24 45  1  0
 25 46  1  0
 26 47  1  0
 26 48  1  0
 27 49  1  0
 27 50  1  0
M  END
$$$$
