
     RDKit          3D

 34 36  0  0  0  0  0  0  0  0999 V2000
    0.3826   -2.5497   -0.0341 O   0  0  0  0  0  0  0  0  0  0  0  0
    0.5996   -1.3908    0.2933 C   0  0  0  0  0  0  0  0  0  0  0  0
    1.8387   -0.6455   -0.0697 C   0  0  0  0  0  0  0  0  0  0  0  0
    2.7813   -1.2030   -0.8406 C   0  0  0  0  0  0  0  0  0  0  0  0
    4.0564   -0.6184   -1.2528 C   0  0  0  0  0  0  0  0  0  0  0  0
    4.1501    0.6095   -1.9000 C   0  0  0  0  0  0  0  0  0  0  0  0
    5.4066    1.0658   -2.2916 C   0  0  0  0  0  0  0  0  0  0  0  0
    6.5247    0.2809   -2.0399 C   0  0  0  0  0  0  0  0  0  0  0  0
    6.3374   -0.9374   -1.4102 C   0  0  0  0  0  0  0  0  0  0  0  0
    5.1309   -1.4054   -1.0211 N   0  0  0  0  0  0  0  0  0  0  0  0
    1.8528    0.9059    0.6807 S   0  0  0  0  0  0  0  0  0  0  0  0
    0.3141    0.6414    1.4975 C   0  0  0  0  0  0  0  0  0  0  0  0
   -0.3164    1.7249    2.5974 S   0  0  0  0  0  0  0  0  0  0  0  0
   -0.2077   -0.5649    1.0680 N   0  0  0  0  0  0  0  0  0  0  0  0
   -1.3951   -1.1226    1.5904 N   0  0  0  0  0  0  0  0  0  0  0  0
   -2.6097   -0.5265    1.2099 C   0  0  0  0  0  0  0  0  0  0  0  0
   -3.4651   -0.3612    2.2505 N   0  0  0  0  0  0  0  0  0  0  0  0
   -4.6777    0.1943    2.0184 C   0  0  0  0  0  0  0  0  0  0  0  0
   -5.1162    0.5927    0.7692 C   0  0  0  0  0  0  0  0  0  0  0  0
   -6.4650    1.2196    0.6042 C   0  0  0  0  0  0  0  0  0  0  0  0
   -7.3914    0.7249    1.4697 F   0  0  0  0  0  0  0  0  0  0  0  0
   -6.9854    1.0418   -0.6409 F   0  0  0  0  0  0  0  0  0  0  0  0
   -6.4370    2.5635    0.8107 F   0  0  0  0  0  0  0  0  0  0  0  0
   -4.2377    0.4132   -0.3015 C   0  0  0  0  0  0  0  0  0  0  0  0
   -2.9772   -0.1569   -0.0911 C   0  0  0  0  0  0  0  0  0  0  0  0
   -1.9776   -0.3636   -1.4819 Cl  0  0  0  0  0  0  0  0  0  0  0  0
    2.6532   -2.2286   -1.1841 H   0  0  0  0  0  0  0  0  0  0  0  0
    3.2691    1.2058   -2.1110 H   0  0  0  0  0  0  0  0  0  0  0  0
    5.5096    2.0237   -2.7937 H   0  0  0  0  0  0  0  0  0  0  0  0
    7.5166    0.6067   -2.3323 H   0  0  0  0  0  0  0  0  0  0  0  0
    7.1776   -1.5921   -1.1967 H   0  0  0  0  0  0  0  0  0  0  0  0
   -1.4019   -1.1672    2.6102 H   0  0  0  0  0  0  0  0  0  0  0  0
   -5.3013    0.3072    2.9040 H   0  0  0  0  0  0  0  0  0  0  0  0
   -4.5388    0.7121   -1.3047 H   0  0  0  0  0  0  0  0  0  0  0  0
  1  2  2  0
  2  3  1  0
  3  4  2  3
  4  5  1  0
  5  6  2  0
  6  7  1  0
  7  8  2  0
  8  9  1  0
  9 10  2  0
  3 11  1  0
 11 12  1  0
 12 13  2  0
 12 14  1  0
 14 15  1  0
 15 16  1  0
 16 17  2  0
 17 18  1  0
 18 19  2  0
 19 20  1  0
 20 21  1  0
 20 22  1  0
 20 23  1  0
 19 24  1  0
 24 25  2  0
 25 26  1  0
 14  2  1  0
 25 16  1  0
 10  5  1  0
  4 27  1  0
  6 28  1  0
  7 29  1  0
  8 30  1  0
  9 31  1  0
 15 32  1  0
 18 33  1  0
 24 34  1  0
M  END
$$$$
