
     RDKit          3D

 33 35  0  0  0  0  0  0  0  0999 V2000
    3.8791    1.8974   -0.3315 C   0  0  0  0  0  0  0  0  0  0  0  0
    4.4152    0.6620    0.3170 C   0  0  0  0  0  0  0  0  0  0  0  0
    5.8141    0.4392    0.5532 C   0  0  0  0  0  0  0  0  0  0  0  0
    6.0676   -0.7696    1.1578 C   0  0  0  0  0  0  0  0  0  0  0  0
    4.6357   -1.6467    1.4475 S   0  0  0  0  0  0  0  0  0  0  0  0
    3.6581   -0.4129    0.7661 C   0  0  0  0  0  0  0  0  0  0  0  0
    2.2257   -0.6321    0.7418 C   0  0  0  0  0  0  0  0  0  0  0  0
    1.4150    0.2761    0.2905 N   0  0  0  0  0  0  0  0  0  0  0  0
    0.0695   -0.0072    0.2558 N   0  0  0  0  0  0  0  0  0  0  0  0
   -0.4877   -1.2400   -0.0663 C   0  0  0  0  0  0  0  0  0  0  0  0
    0.1567   -2.2702   -0.2435 O   0  0  0  0  0  0  0  0  0  0  0  0
   -1.9221   -1.2261   -0.2063 C   0  0  0  0  0  0  0  0  0  0  0  0
   -2.6147   -2.3469   -0.6323 N   0  0  0  0  0  0  0  0  0  0  0  0
   -3.9592   -2.1798   -0.7169 N   0  0  0  0  0  0  0  0  0  0  0  0
   -4.1052   -0.9261   -0.3215 C   0  0  0  0  0  0  0  0  0  0  0  0
   -2.9063   -0.2924    0.0049 C   0  0  0  0  0  0  0  0  0  0  0  0
   -3.1328    1.0954    0.4494 C   0  0  0  0  0  0  0  0  0  0  0  0
   -4.6847    1.1240    0.6664 C   0  0  0  0  0  0  0  0  0  0  0  0
   -5.2898   -0.0669   -0.1487 C   0  0  0  0  0  0  0  0  0  0  0  0
    3.3291    1.6466   -1.2441 H   0  0  0  0  0  0  0  0  0  0  0  0
    4.6888    2.5804   -0.6094 H   0  0  0  0  0  0  0  0  0  0  0  0
    3.2127    2.4330    0.3519 H   0  0  0  0  0  0  0  0  0  0  0  0
    6.5981    1.1386    0.2871 H   0  0  0  0  0  0  0  0  0  0  0  0
    7.0272   -1.1795    1.4417 H   0  0  0  0  0  0  0  0  0  0  0  0
    1.8612   -1.5866    1.1598 H   0  0  0  0  0  0  0  0  0  0  0  0
   -0.5068    0.8114    0.0996 H   0  0  0  0  0  0  0  0  0  0  0  0
   -2.2146   -3.2474   -0.8786 H   0  0  0  0  0  0  0  0  0  0  0  0
   -2.6037    1.3406    1.3742 H   0  0  0  0  0  0  0  0  0  0  0  0
   -2.8459    1.8042   -0.3341 H   0  0  0  0  0  0  0  0  0  0  0  0
   -5.1243    2.0856    0.3833 H   0  0  0  0  0  0  0  0  0  0  0  0
   -4.8957    0.9673    1.7327 H   0  0  0  0  0  0  0  0  0  0  0  0
   -5.6617    0.2821   -1.1172 H   0  0  0  0  0  0  0  0  0  0  0  0
   -6.0987   -0.5536    0.4023 H   0  0  0  0  0  0  0  0  0  0  0  0
  1  2  1  0
  2  3  1  0
  3  4  2  0
  4  5  1  0
  5  6  1  0
  6  7  1  0
  7  8  2  3
  8  9  1  0
  9 10  1  0
 10 11  2  0
 10 12  1  0
 12 13  1  0
 13 14  1  0
 14 15  2  0
 15 16  1  0
 16 17  1  0
 17 18  1  0
 18 19  1  0
  6  2  2  0
 16 12  2  0
 19 15  1  0
  1 20  1  0
  1 21  1  0
  1 22  1  0
  3 23  1  0
  4 24  1  0
  7 25  1  0
  9 26  1  0
 13 27  1  0
 17 28  1  0
 17 29  1  0
 18 30  1  0
 18 31  1  0
 19 32  1  0
 19 33  1  0
M  END
$$$$
