
     RDKit          3D

 41 42  0  0  0  0  0  0  0  0999 V2000
   -1.8802    3.5085   -0.1789 O   0  0  0  0  0  0  0  0  0  0  0  0
   -0.9081    2.8102    0.1038 C   0  0  0  0  0  0  0  0  0  0  0  0
    0.5260    3.3052   -0.0581 C   0  0  0  0  0  0  0  0  0  0  0  0
    1.4239    2.2039   -0.1804 O   0  0  0  0  0  0  0  0  0  0  0  0
    2.7204    2.6991   -0.3698 N   0  0  0  0  0  0  0  0  0  0  0  0
    3.5760    1.7637   -0.6555 C   0  0  0  0  0  0  0  0  0  0  0  0
    3.3528    0.3058   -0.7177 C   0  0  0  0  0  0  0  0  0  0  0  0
    2.6224   -0.3679    0.2708 C   0  0  0  0  0  0  0  0  0  0  0  0
    2.4424   -1.7526    0.1916 C   0  0  0  0  0  0  0  0  0  0  0  0
    3.0077   -2.4686   -0.8651 C   0  0  0  0  0  0  0  0  0  0  0  0
    3.7584   -1.7904   -1.8385 C   0  0  0  0  0  0  0  0  0  0  0  0
    4.3624   -2.5451   -2.9434 N   0  0  0  0  0  4  0  0  0  0  0  0
    4.9091   -1.8994   -3.8473 O   0  0  0  0  0  0  0  0  0  0  0  0
    4.2913   -3.7823   -2.9020 O   0  0  0  0  0  1  0  0  0  0  0  0
    3.9432   -0.4011   -1.7677 C   0  0  0  0  0  0  0  0  0  0  0  0
   -1.0137    1.5395    0.6424 N   0  0  0  0  0  0  0  0  0  0  0  0
   -2.2892    0.8515    0.7632 C   0  0  0  0  0  0  0  0  0  0  0  0
   -2.2384   -0.1449    1.9272 C   0  0  0  0  0  0  0  0  0  0  0  0
   -3.5387   -0.9355    2.0492 C   0  0  0  0  0  0  0  0  0  0  0  0
   -3.8949   -1.6351    0.7409 C   0  0  0  0  0  0  0  0  0  0  0  0
   -3.9455   -0.6532   -0.4273 C   0  0  0  0  0  0  0  0  0  0  0  0
   -2.6513    0.1480   -0.5519 C   0  0  0  0  0  0  0  0  0  0  0  0
    0.5783    3.9178   -0.9641 H   0  0  0  0  0  0  0  0  0  0  0  0
    0.7863    3.9020    0.8217 H   0  0  0  0  0  0  0  0  0  0  0  0
    4.5983    2.0945   -0.9111 H   0  0  0  0  0  0  0  0  0  0  0  0
    2.2052    0.1781    1.1147 H   0  0  0  0  0  0  0  0  0  0  0  0
    1.8682   -2.2746    0.9561 H   0  0  0  0  0  0  0  0  0  0  0  0
    2.8585   -3.5473   -0.9148 H   0  0  0  0  0  0  0  0  0  0  0  0
    4.5221    0.1288   -2.5231 H   0  0  0  0  0  0  0  0  0  0  0  0
   -0.1647    0.9802    0.6219 H   0  0  0  0  0  0  0  0  0  0  0  0
   -3.0592    1.6037    0.9786 H   0  0  0  0  0  0  0  0  0  0  0  0
   -1.4010   -0.8415    1.7895 H   0  0  0  0  0  0  0  0  0  0  0  0
   -2.0441    0.3898    2.8670 H   0  0  0  0  0  0  0  0  0  0  0  0
   -4.3518   -0.2580    2.3345 H   0  0  0  0  0  0  0  0  0  0  0  0
   -3.4459   -1.6772    2.8499 H   0  0  0  0  0  0  0  0  0  0  0  0
   -4.8636   -2.1376    0.8431 H   0  0  0  0  0  0  0  0  0  0  0  0
   -3.1528   -2.4136    0.5299 H   0  0  0  0  0  0  0  0  0  0  0  0
   -4.7869    0.0364   -0.2891 H   0  0  0  0  0  0  0  0  0  0  0  0
   -4.1318   -1.2015   -1.3600 H   0  0  0  0  0  0  0  0  0  0  0  0
   -2.7546    0.8852   -1.3581 H   0  0  0  0  0  0  0  0  0  0  0  0
   -1.8369   -0.5245   -0.8517 H   0  0  0  0  0  0  0  0  0  0  0  0
  1  2  2  0
  2  3  1  0
  3  4  1  0
  4  5  1  0
  5  6  2  3
  6  7  1  0
  7  8  2  0
  8  9  1  0
  9 10  2  0
 10 11  1  0
 11 12  1  0
 12 13  2  0
 12 14  1  0
 11 15  2  0
  2 16  1  0
 16 17  1  0
 17 18  1  0
 18 19  1  0
 19 20  1  0
 20 21  1  0
 21 22  1  0
 15  7  1  0
 22 17  1  0
  3 23  1  0
  3 24  1  0
  6 25  1  0
  8 26  1  0
  9 27  1  0
 10 28  1  0
 15 29  1  0
 16 30  1  0
 17 31  1  0
 18 32  1  0
 18 33  1  0
 19 34  1  0
 19 35  1  0
 20 36  1  0
 20 37  1  0
 21 38  1  0
 21 39  1  0
 22 40  1  0
 22 41  1  0
M  CHG  2  12   1  14  -1
M  END
$$$$
