
     RDKit          3D

 42 42  0  0  0  0  0  0  0  0999 V2000
   -0.6327   -3.4910    3.0905 C   0  0  0  0  0  0  0  0  0  0  0  0
   -0.7248   -2.6811    1.8052 C   0  0  0  0  0  0  0  0  0  0  0  0
   -1.7815   -1.5853    1.9136 C   0  0  0  0  0  0  0  0  0  0  0  0
   -2.0645   -0.8034    0.6193 C   0  0  0  0  0  0  0  0  0  0  0  0
   -0.9296    0.0251   -0.0332 C   0  0  0  0  0  0  0  0  0  0  0  0
   -1.5838    1.0807   -0.9093 C   0  0  0  0  0  0  0  0  0  0  0  0
   -2.3764    0.8043   -1.8038 O   0  0  0  0  0  0  0  0  0  0  0  0
   -1.1674    2.3389   -0.6216 O   0  0  0  0  0  0  0  0  0  0  0  0
   -1.7541    3.4025   -1.3883 C   0  0  0  0  0  0  0  0  0  0  0  0
   -3.0655    3.8360   -0.7612 C   0  0  0  0  0  0  0  0  0  0  0  0
   -0.0008   -0.8115   -0.9124 C   0  0  0  0  0  0  0  0  0  0  0  0
    1.3887   -0.2521   -0.6546 C   0  0  0  0  0  0  0  0  0  0  0  0
    1.8330    0.7640   -1.7175 C   0  0  0  0  0  0  0  0  0  0  0  0
    3.5187    1.4067   -1.4395 S   0  0  0  0  0  0  0  0  0  0  0  0
    4.4150   -0.0414   -1.7397 C   0  0  0  0  0  0  0  0  0  0  0  0
    4.6362   -0.4133   -2.9459 N   0  0  0  0  0  0  0  0  0  0  0  0
    4.8628   -0.7161   -0.6639 N   0  0  0  0  0  0  0  0  0  0  0  0
    1.3095    0.3610    0.6365 O   0  0  0  0  0  0  0  0  0  0  0  0
    0.0141    0.6124    0.9801 C   0  0  0  0  0  0  0  0  0  0  0  0
   -0.3019    1.2275    1.9866 O   0  0  0  0  0  0  0  0  0  0  0  0
    0.1337   -4.2666    2.9951 H   0  0  0  0  0  0  0  0  0  0  0  0
   -0.3659   -2.8519    3.9383 H   0  0  0  0  0  0  0  0  0  0  0  0
   -1.5853   -3.9813    3.3153 H   0  0  0  0  0  0  0  0  0  0  0  0
    0.2586   -2.2449    1.6055 H   0  0  0  0  0  0  0  0  0  0  0  0
   -0.9688   -3.3557    0.9770 H   0  0  0  0  0  0  0  0  0  0  0  0
   -1.5143   -0.8945    2.7209 H   0  0  0  0  0  0  0  0  0  0  0  0
   -2.7280   -2.0474    2.2248 H   0  0  0  0  0  0  0  0  0  0  0  0
   -2.8958   -0.1231    0.8558 H   0  0  0  0  0  0  0  0  0  0  0  0
   -2.4708   -1.5007   -0.1265 H   0  0  0  0  0  0  0  0  0  0  0  0
   -1.0443    4.2359   -1.3730 H   0  0  0  0  0  0  0  0  0  0  0  0
   -1.8858    3.1102   -2.4363 H   0  0  0  0  0  0  0  0  0  0  0  0
   -2.9147    4.1234    0.2846 H   0  0  0  0  0  0  0  0  0  0  0  0
   -3.7922    3.0174   -0.7645 H   0  0  0  0  0  0  0  0  0  0  0  0
   -3.4927    4.6846   -1.3028 H   0  0  0  0  0  0  0  0  0  0  0  0
   -0.2581   -0.8000   -1.9777 H   0  0  0  0  0  0  0  0  0  0  0  0
   -0.0180   -1.8649   -0.6182 H   0  0  0  0  0  0  0  0  0  0  0  0
    2.0971   -1.0851   -0.5992 H   0  0  0  0  0  0  0  0  0  0  0  0
    1.7845    0.3214   -2.7179 H   0  0  0  0  0  0  0  0  0  0  0  0
    1.1764    1.6383   -1.7090 H   0  0  0  0  0  0  0  0  0  0  0  0
    4.2237    0.2906   -3.5677 H   0  0  0  0  0  0  0  0  0  0  0  0
    5.0311   -0.1377    0.1508 H   0  0  0  0  0  0  0  0  0  0  0  0
    5.6345   -1.3321   -0.8931 H   0  0  0  0  0  0  0  0  0  0  0  0
  1  2  1  0
  2  3  1  0
  3  4  1  0
  4  5  1  0
  5  6  1  0
  6  7  2  0
  6  8  1  0
  8  9  1  0
  9 10  1  0
  5 11  1  0
 11 12  1  0
 12 13  1  0
 13 14  1  0
 14 15  1  0
 15 16  2  3
 15 17  1  0
 12 18  1  0
 18 19  1  0
 19 20  2  0
 19  5  1  0
  1 21  1  0
  1 22  1  0
  1 23  1  0
  2 24  1  0
  2 25  1  0
  3 26  1  0
  3 27  1  0
  4 28  1  0
  4 29  1  0
  9 30  1  0
  9 31  1  0
 10 32  1  0
 10 33  1  0
 10 34  1  0
 11 35  1  0
 11 36  1  0
 12 37  1  0
 13 38  1  0
 13 39  1  0
 16 40  1  0
 17 41  1  0
 17 42  1  0
M  END
$$$$
