
     RDKit          3D

 53 56  0  0  0  0  0  0  0  0999 V2000
   -6.6714   -0.0104   -0.3350 C   0  0  0  0  0  0  0  0  0  0  0  0
   -5.8423    1.1580    0.2409 C   0  0  0  0  0  0  0  0  0  0  0  0
   -5.9298    2.3643   -0.7183 C   0  0  0  0  0  0  0  0  0  0  0  0
   -6.5108    1.5796    1.5691 C   0  0  0  0  0  0  0  0  0  0  0  0
   -4.3739    0.7262    0.3938 C   0  0  0  0  0  0  0  0  0  0  0  0
   -3.7018    0.7437    1.6230 C   0  0  0  0  0  0  0  0  0  0  0  0
   -2.3621    0.3442    1.7265 C   0  0  0  0  0  0  0  0  0  0  0  0
   -1.6473   -0.0974    0.6032 C   0  0  0  0  0  0  0  0  0  0  0  0
   -0.2838   -0.4952    0.7655 N   0  0  0  0  0  0  0  0  0  0  0  0
    0.3430   -0.2348    1.9523 N   0  0  0  0  0  0  0  0  0  0  0  0
    1.6029   -0.6285    1.7860 C   0  0  0  0  0  0  0  0  0  0  0  0
    1.8266   -1.1788    0.5201 C   0  0  0  0  0  0  0  0  0  0  0  0
    0.5909   -1.1361   -0.1032 C   0  0  0  0  0  0  0  0  0  0  0  0
    0.3161   -1.7262   -1.4441 C   0  0  0  0  0  0  0  0  0  0  0  0
    1.4475   -2.6949   -1.8427 C   0  0  0  0  0  0  0  0  0  0  0  0
    2.8382   -2.0982   -1.5725 C   0  0  0  0  0  0  0  0  0  0  0  0
    3.0518   -1.7882   -0.0728 C   0  0  0  0  0  0  0  0  0  0  0  0
    4.1545   -0.8738    0.1106 N   0  0  0  0  0  0  0  0  0  0  0  0
    5.4686   -1.2820    0.0534 C   0  0  0  0  0  0  0  0  0  0  0  0
    5.8210   -2.4507   -0.0470 O   0  0  0  0  0  0  0  0  0  0  0  0
    6.4605   -0.1727    0.1124 C   0  0  0  0  0  0  0  0  0  0  0  0
    7.8187   -0.4504    0.1041 C   0  0  0  0  0  0  0  0  0  0  0  0
    8.7562    0.5310    0.1546 N   0  0  0  0  0  0  0  0  0  0  0  0
    8.2707    1.7933    0.2138 C   0  0  0  0  0  0  0  0  0  0  0  0
    6.9113    2.0701    0.2203 C   0  0  0  0  0  0  0  0  0  0  0  0
    5.9683    1.1005    0.1681 N   0  0  0  0  0  0  0  0  0  0  0  0
   -2.2988   -0.1039   -0.6295 C   0  0  0  0  0  0  0  0  0  0  0  0
   -3.6396    0.2987   -0.7277 C   0  0  0  0  0  0  0  0  0  0  0  0
   -7.7304    0.2604   -0.4198 H   0  0  0  0  0  0  0  0  0  0  0  0
   -6.3356   -0.3038   -1.3356 H   0  0  0  0  0  0  0  0  0  0  0  0
   -6.6040   -0.8962    0.3077 H   0  0  0  0  0  0  0  0  0  0  0  0
   -5.5736    2.1197   -1.7250 H   0  0  0  0  0  0  0  0  0  0  0  0
   -5.3279    3.2042   -0.3516 H   0  0  0  0  0  0  0  0  0  0  0  0
   -6.9637    2.7143   -0.8201 H   0  0  0  0  0  0  0  0  0  0  0  0
   -6.0026    2.4390    2.0219 H   0  0  0  0  0  0  0  0  0  0  0  0
   -7.5559    1.8716    1.4101 H   0  0  0  0  0  0  0  0  0  0  0  0
   -6.5122    0.7605    2.2977 H   0  0  0  0  0  0  0  0  0  0  0  0
   -4.1934    1.0671    2.5366 H   0  0  0  0  0  0  0  0  0  0  0  0
   -1.8923    0.3768    2.7089 H   0  0  0  0  0  0  0  0  0  0  0  0
    2.3035   -0.5065    2.6026 H   0  0  0  0  0  0  0  0  0  0  0  0
    0.2619   -0.9246   -2.1896 H   0  0  0  0  0  0  0  0  0  0  0  0
   -0.6276   -2.2808   -1.4498 H   0  0  0  0  0  0  0  0  0  0  0  0
    1.3504   -2.9488   -2.9043 H   0  0  0  0  0  0  0  0  0  0  0  0
    1.3452   -3.6314   -1.2791 H   0  0  0  0  0  0  0  0  0  0  0  0
    3.6148   -2.7891   -1.9215 H   0  0  0  0  0  0  0  0  0  0  0  0
    2.9494   -1.1817   -2.1683 H   0  0  0  0  0  0  0  0  0  0  0  0
    3.2763   -2.7235    0.4555 H   0  0  0  0  0  0  0  0  0  0  0  0
    3.9905    0.1297    0.0803 H   0  0  0  0  0  0  0  0  0  0  0  0
    8.1956   -1.4666    0.0573 H   0  0  0  0  0  0  0  0  0  0  0  0
    9.0108    2.5851    0.2565 H   0  0  0  0  0  0  0  0  0  0  0  0
    6.5447    3.0898    0.2686 H   0  0  0  0  0  0  0  0  0  0  0  0
   -1.8053   -0.3787   -1.5515 H   0  0  0  0  0  0  0  0  0  0  0  0
   -4.1038    0.2803   -1.7121 H   0  0  0  0  0  0  0  0  0  0  0  0
  1  2  1  0
  2  3  1  0
  2  4  1  0
  2  5  1  0
  5  6  2  0
  6  7  1  0
  7  8  2  0
  8  9  1  0
  9 10  1  0
 10 11  2  0
 11 12  1  0
 12 13  2  0
 13 14  1  0
 14 15  1  0
 15 16  1  0
 16 17  1  0
 17 18  1  0
 18 19  1  0
 19 20  2  0
 19 21  1  0
 21 22  2  0
 22 23  1  0
 23 24  2  0
 24 25  1  0
 25 26  2  0
  8 27  1  0
 27 28  2  0
 28  5  1  0
 13  9  1  0
 26 21  1  0
 17 12  1  0
  1 29  1  0
  1 30  1  0
  1 31  1  0
  3 32  1  0
  3 33  1  0
  3 34  1  0
  4 35  1  0
  4 36  1  0
  4 37  1  0
  6 38  1  0
  7 39  1  0
 11 40  1  0
 14 41  1  0
 14 42  1  0
 15 43  1  0
 15 44  1  0
 16 45  1  0
 16 46  1  0
 17 47  1  0
 18 48  1  0
 22 49  1  0
 24 50  1  0
 25 51  1  0
 27 52  1  0
 28 53  1  0
M  END
$$$$
