
     RDKit          3D

 64 64  0  0  0  0  0  0  0  0999 V2000
   -7.8481   -2.0064    2.2081 C   0  0  0  0  0  0  0  0  0  0  0  0
   -7.3245   -0.6443    2.6407 C   0  0  0  0  0  0  0  0  0  0  0  0
   -6.3684   -0.0087    1.6269 C   0  0  0  0  0  0  0  0  0  0  0  0
   -7.0448    0.3344    0.2971 C   0  0  0  0  0  0  0  0  0  0  0  0
   -6.1643    1.1777   -0.6299 C   0  0  0  0  0  0  0  0  0  0  0  0
   -4.9259    0.4312   -1.1328 C   0  0  0  0  0  0  0  0  0  0  0  0
   -4.1423    1.2808   -2.1394 C   0  0  0  0  0  0  0  0  0  0  0  0
   -2.8856    0.5771   -2.6640 C   0  0  0  0  0  0  0  0  0  0  0  0
   -1.5798    0.9990   -1.9785 C   0  0  0  0  0  0  0  0  0  0  0  0
   -1.5104    0.6419   -0.4937 C   0  0  0  0  0  0  0  0  0  0  0  0
   -0.1837    1.0267    0.1708 C   0  0  0  0  0  0  0  0  0  0  0  0
    1.0841    0.4042   -0.4259 C   0  0  0  0  0  0  0  0  0  0  0  0
    1.0892   -1.1240   -0.3982 C   0  0  0  0  0  0  0  0  0  0  0  0
    2.3204   -1.7601   -1.0549 C   0  0  0  0  0  0  0  0  0  0  0  0
    3.6513   -1.4521   -0.3625 C   0  0  0  0  0  0  0  0  0  0  0  0
    4.4056   -0.2961   -1.0134 C   0  0  0  0  0  0  0  0  0  0  0  0
    5.6814   -0.0757   -0.2845 N   0  0  0  0  0  4  0  0  0  0  0  0
    5.7085    0.7627    0.7806 C   0  0  0  0  0  0  0  0  0  0  0  0
    6.8897    0.9913    1.4768 C   0  0  0  0  0  0  0  0  0  0  0  0
    8.0484    0.3451    1.0597 C   0  0  0  0  0  0  0  0  0  0  0  0
    9.3089    0.5776    1.7875 C   0  0  0  0  0  0  0  0  0  0  0  0
   10.4047   -0.0084    1.4310 N   0  0  0  0  0  0  0  0  0  0  0  0
   11.4276    0.3993    2.2935 O   0  0  0  0  0  0  0  0  0  0  0  0
    8.0093   -0.5137   -0.0352 C   0  0  0  0  0  0  0  0  0  0  0  0
    6.8050   -0.7094   -0.6957 C   0  0  0  0  0  0  0  0  0  0  0  0
   -8.4624   -2.4417    3.0024 H   0  0  0  0  0  0  0  0  0  0  0  0
   -7.0227   -2.6955    2.0028 H   0  0  0  0  0  0  0  0  0  0  0  0
   -8.4696   -1.9332    1.3107 H   0  0  0  0  0  0  0  0  0  0  0  0
   -8.1691    0.0293    2.8320 H   0  0  0  0  0  0  0  0  0  0  0  0
   -6.7919   -0.7638    3.5923 H   0  0  0  0  0  0  0  0  0  0  0  0
   -5.9534    0.9043    2.0696 H   0  0  0  0  0  0  0  0  0  0  0  0
   -5.5267   -0.6892    1.4548 H   0  0  0  0  0  0  0  0  0  0  0  0
   -7.3355   -0.5856   -0.2253 H   0  0  0  0  0  0  0  0  0  0  0  0
   -7.9690    0.8940    0.4941 H   0  0  0  0  0  0  0  0  0  0  0  0
   -6.7726    1.4854   -1.4899 H   0  0  0  0  0  0  0  0  0  0  0  0
   -5.8603    2.0972   -0.1140 H   0  0  0  0  0  0  0  0  0  0  0  0
   -5.2334   -0.5069   -1.6115 H   0  0  0  0  0  0  0  0  0  0  0  0
   -4.2862    0.1627   -0.2879 H   0  0  0  0  0  0  0  0  0  0  0  0
   -3.8887    2.2556   -1.7050 H   0  0  0  0  0  0  0  0  0  0  0  0
   -4.8019    1.4825   -2.9940 H   0  0  0  0  0  0  0  0  0  0  0  0
   -2.9995   -0.5124   -2.6156 H   0  0  0  0  0  0  0  0  0  0  0  0
   -2.7825    0.8251   -3.7286 H   0  0  0  0  0  0  0  0  0  0  0  0
   -1.4351    2.0792   -2.1022 H   0  0  0  0  0  0  0  0  0  0  0  0
   -0.7592    0.5091   -2.5146 H   0  0  0  0  0  0  0  0  0  0  0  0
   -2.3047    1.1736    0.0430 H   0  0  0  0  0  0  0  0  0  0  0  0
   -1.7028   -0.4282   -0.3557 H   0  0  0  0  0  0  0  0  0  0  0  0
   -0.0766    2.1186    0.1372 H   0  0  0  0  0  0  0  0  0  0  0  0
   -0.2421    0.7573    1.2329 H   0  0  0  0  0  0  0  0  0  0  0  0
    1.2332    0.7625   -1.4507 H   0  0  0  0  0  0  0  0  0  0  0  0
    1.9300    0.7775    0.1623 H   0  0  0  0  0  0  0  0  0  0  0  0
    1.0093   -1.4712    0.6391 H   0  0  0  0  0  0  0  0  0  0  0  0
    0.2082   -1.5059   -0.9264 H   0  0  0  0  0  0  0  0  0  0  0  0
    2.3607   -1.4876   -2.1157 H   0  0  0  0  0  0  0  0  0  0  0  0
    2.1703   -2.8469   -1.0250 H   0  0  0  0  0  0  0  0  0  0  0  0
    3.4992   -1.2643    0.7069 H   0  0  0  0  0  0  0  0  0  0  0  0
    4.2852   -2.3464   -0.4234 H   0  0  0  0  0  0  0  0  0  0  0  0
    4.6494   -0.5128   -2.0598 H   0  0  0  0  0  0  0  0  0  0  0  0
    3.8501    0.6451   -0.9919 H   0  0  0  0  0  0  0  0  0  0  0  0
    4.7755    1.2416    1.0678 H   0  0  0  0  0  0  0  0  0  0  0  0
    6.8966    1.6654    2.3315 H   0  0  0  0  0  0  0  0  0  0  0  0
    9.2837    1.2703    2.6484 H   0  0  0  0  0  0  0  0  0  0  0  0
   12.2038   -0.0915    1.9598 H   0  0  0  0  0  0  0  0  0  0  0  0
    8.9066   -1.0290   -0.3746 H   0  0  0  0  0  0  0  0  0  0  0  0
    6.7277   -1.3739   -1.5521 H   0  0  0  0  0  0  0  0  0  0  0  0
  1  2  1  0
  2  3  1  0
  3  4  1  0
  4  5  1  0
  5  6  1  0
  6  7  1  0
  7  8  1  0
  8  9  1  0
  9 10  1  0
 10 11  1  0
 11 12  1  0
 12 13  1  0
 13 14  1  0
 14 15  1  0
 15 16  1  0
 16 17  1  0
 17 18  2  0
 18 19  1  0
 19 20  2  0
 20 21  1  0
 21 22  2  3
 22 23  1  0
 20 24  1  0
 24 25  2  0
 25 17  1  0
  1 26  1  0
  1 27  1  0
  1 28  1  0
  2 29  1  0
  2 30  1  0
  3 31  1  0
  3 32  1  0
  4 33  1  0
  4 34  1  0
  5 35  1  0
  5 36  1  0
  6 37  1  0
  6 38  1  0
  7 39  1  0
  7 40  1  0
  8 41  1  0
  8 42  1  0
  9 43  1  0
  9 44  1  0
 10 45  1  0
 10 46  1  0
 11 47  1  0
 11 48  1  0
 12 49  1  0
 12 50  1  0
 13 51  1  0
 13 52  1  0
 14 53  1  0
 14 54  1  0
 15 55  1  0
 15 56  1  0
 16 57  1  0
 16 58  1  0
 18 59  1  0
 19 60  1  0
 21 61  1  0
 23 62  1  0
 24 63  1  0
 25 64  1  0
M  CHG  1  17   1
M  END
$$$$
