
     RDKit          3D

 51 55  0  0  0  0  0  0  0  0999 V2000
   -1.4097    1.0698    2.0219 C   0  0  0  0  0  0  0  0  0  0  0  0
   -0.0227    1.0878    2.2150 C   0  0  0  0  0  0  0  0  0  0  0  0
    0.7896    0.4367    1.2741 C   0  0  0  0  0  0  0  0  0  0  0  0
    0.2412   -0.2145    0.1632 C   0  0  0  0  0  0  0  0  0  0  0  0
   -1.1594   -0.2116   -0.0096 C   0  0  0  0  0  0  0  0  0  0  0  0
   -1.9939    0.4269    0.9245 C   0  0  0  0  0  0  0  0  0  0  0  0
   -3.5054    0.4465    0.7554 C   0  0  0  0  0  0  0  0  0  0  0  0
   -3.9153    1.3674   -0.4101 C   0  0  0  0  0  0  0  0  0  0  0  0
   -5.3725    1.1439   -0.7953 C   0  0  0  0  0  0  0  0  0  0  0  0
   -5.6295   -0.2854   -1.2741 C   0  0  0  0  0  0  0  0  0  0  0  0
   -4.6113   -1.3018   -0.7569 C   0  0  0  0  0  0  0  0  0  0  0  0
   -4.1237   -0.9660    0.6496 C   0  0  0  0  0  0  0  0  0  0  0  0
    1.3220   -0.7543   -0.5862 C   0  0  0  0  0  0  0  0  0  0  0  0
    2.4864   -0.4668    0.0977 C   0  0  0  0  0  0  0  0  0  0  0  0
    2.1618    0.2998    1.1850 N   0  0  0  0  0  0  0  0  0  0  0  0
    3.1527    0.9197    2.0455 C   0  0  0  0  0  0  0  0  0  0  0  0
    4.0917    1.8497    1.2801 C   0  0  0  0  0  0  0  0  0  0  0  0
    5.1361    1.1228    0.4262 C   0  0  0  0  0  0  0  0  0  0  0  0
    4.6080    0.3635   -0.7088 N   0  0  0  0  0  0  0  0  0  0  0  0
    3.8750   -0.8395   -0.3025 C   0  0  0  0  0  0  0  0  0  0  0  0
    3.8002   -1.8599   -1.4732 C   0  0  0  0  0  0  0  0  0  0  0  0
    2.7123   -1.5223   -2.5097 C   0  0  0  0  0  0  0  0  0  0  0  0
    1.3114   -1.5099   -1.8707 C   0  0  0  0  0  0  0  0  0  0  0  0
   -2.0365    1.5773    2.7529 H   0  0  0  0  0  0  0  0  0  0  0  0
    0.3966    1.5978    3.0753 H   0  0  0  0  0  0  0  0  0  0  0  0
   -1.5794   -0.7088   -0.8777 H   0  0  0  0  0  0  0  0  0  0  0  0
   -3.9284    0.8837    1.6717 H   0  0  0  0  0  0  0  0  0  0  0  0
   -3.2845    1.2001   -1.2925 H   0  0  0  0  0  0  0  0  0  0  0  0
   -3.7638    2.4148   -0.1207 H   0  0  0  0  0  0  0  0  0  0  0  0
   -5.6713    1.8526   -1.5760 H   0  0  0  0  0  0  0  0  0  0  0  0
   -6.0091    1.3541    0.0736 H   0  0  0  0  0  0  0  0  0  0  0  0
   -6.6394   -0.5828   -0.9661 H   0  0  0  0  0  0  0  0  0  0  0  0
   -5.6265   -0.3143   -2.3706 H   0  0  0  0  0  0  0  0  0  0  0  0
   -5.0569   -2.3031   -0.7702 H   0  0  0  0  0  0  0  0  0  0  0  0
   -3.7573   -1.3377   -1.4431 H   0  0  0  0  0  0  0  0  0  0  0  0
   -4.9902   -1.0147    1.3234 H   0  0  0  0  0  0  0  0  0  0  0  0
   -3.4297   -1.7391    1.0005 H   0  0  0  0  0  0  0  0  0  0  0  0
    2.6309    1.4938    2.8163 H   0  0  0  0  0  0  0  0  0  0  0  0
    3.6994    0.1150    2.5503 H   0  0  0  0  0  0  0  0  0  0  0  0
    3.5153    2.5413    0.6524 H   0  0  0  0  0  0  0  0  0  0  0  0
    4.6312    2.4654    2.0107 H   0  0  0  0  0  0  0  0  0  0  0  0
    5.8075    1.8872    0.0161 H   0  0  0  0  0  0  0  0  0  0  0  0
    5.7631    0.4809    1.0577 H   0  0  0  0  0  0  0  0  0  0  0  0
    5.3891    0.0854   -1.3003 H   0  0  0  0  0  0  0  0  0  0  0  0
    4.3960   -1.3416    0.5228 H   0  0  0  0  0  0  0  0  0  0  0  0
    4.7742   -1.9485   -1.9700 H   0  0  0  0  0  0  0  0  0  0  0  0
    3.5816   -2.8537   -1.0580 H   0  0  0  0  0  0  0  0  0  0  0  0
    2.9254   -0.5426   -2.9555 H   0  0  0  0  0  0  0  0  0  0  0  0
    2.7330   -2.2557   -3.3237 H   0  0  0  0  0  0  0  0  0  0  0  0
    0.5940   -1.0696   -2.5720 H   0  0  0  0  0  0  0  0  0  0  0  0
    0.9906   -2.5398   -1.6730 H   0  0  0  0  0  0  0  0  0  0  0  0
  1  2  2  0
  2  3  1  0
  3  4  2  0
  4  5  1  0
  5  6  2  0
  6  7  1  0
  7  8  1  0
  8  9  1  0
  9 10  1  0
 10 11  1  0
 11 12  1  0
  4 13  1  0
 13 14  2  0
 14 15  1  0
 15 16  1  0
 16 17  1  0
 17 18  1  0
 18 19  1  0
 19 20  1  0
 20 21  1  0
 21 22  1  0
 22 23  1  0
  6  1  1  0
 12  7  1  0
 23 13  1  0
 15  3  1  0
 20 14  1  0
  1 24  1  0
  2 25  1  0
  5 26  1  0
  7 27  1  0
  8 28  1  0
  8 29  1  0
  9 30  1  0
  9 31  1  0
 10 32  1  0
 10 33  1  0
 11 34  1  0
 11 35  1  0
 12 36  1  0
 12 37  1  0
 16 38  1  0
 16 39  1  0
 17 40  1  0
 17 41  1  0
 18 42  1  0
 18 43  1  0
 19 44  1  0
 20 45  1  0
 21 46  1  0
 21 47  1  0
 22 48  1  0
 22 49  1  0
 23 50  1  0
 23 51  1  0
M  END
$$$$
