
     RDKit          3D

 49 51  0  0  0  0  0  0  0  0999 V2000
    6.2219   -0.4059   -2.5957 C   0  0  0  0  0  0  0  0  0  0  0  0
    6.0753   -0.2324   -1.1117 C   0  0  0  0  0  0  0  0  0  0  0  0
    7.2040   -0.2560   -0.2831 C   0  0  0  0  0  0  0  0  0  0  0  0
    7.0717   -0.1032    1.0975 C   0  0  0  0  0  0  0  0  0  0  0  0
    5.8090    0.0534    1.6602 C   0  0  0  0  0  0  0  0  0  0  0  0
    5.7624    0.2281    3.0176 O   0  0  0  0  0  0  0  0  0  0  0  0
    4.6621    0.0265    0.8557 C   0  0  0  0  0  0  0  0  0  0  0  0
    3.3266    0.1618    1.4899 C   0  0  0  0  0  0  0  0  0  0  0  0
    3.2363    0.7841    2.5481 O   0  0  0  0  0  0  0  0  0  0  0  0
    2.1063   -0.4381    0.9155 C   0  0  0  0  0  0  0  0  0  0  0  0
    2.1122   -1.6756    0.2867 C   0  0  0  0  0  0  0  0  0  0  0  0
    1.0093   -2.2503   -0.2507 N   0  0  0  0  0  0  0  0  0  0  0  0
   -0.1540   -1.5809   -0.1148 C   0  0  0  0  0  0  0  0  0  0  0  0
   -0.2704   -0.3567    0.5186 C   0  0  0  0  0  0  0  0  0  0  0  0
    0.8859    0.2269    1.0438 C   0  0  0  0  0  0  0  0  0  0  0  0
   -1.5952    0.3263    0.5402 C   0  0  0  0  0  0  0  0  0  0  0  0
   -2.7129   -0.5613    0.2632 N   0  0  0  0  0  0  0  0  0  0  0  0
   -4.0623   -0.0310    0.4531 C   0  0  0  0  0  0  0  0  0  0  0  0
   -4.5201    0.8308   -0.7294 C   0  0  0  0  0  0  0  0  0  0  0  0
   -5.9525    1.3864   -0.6204 C   0  0  0  0  0  0  0  0  0  0  0  0
   -6.1282    2.3094    0.5853 C   0  0  0  0  0  0  0  0  0  0  0  0
   -7.0065    0.2793   -0.6051 C   0  0  0  0  0  0  0  0  0  0  0  0
   -2.5560   -1.7211   -0.4703 C   0  0  0  0  0  0  0  0  0  0  0  0
   -3.4971   -2.3626   -0.9333 O   0  0  0  0  0  0  0  0  0  0  0  0
   -1.2847   -2.1688   -0.6438 N   0  0  0  0  0  0  0  0  0  0  0  0
    4.8033   -0.0962   -0.5348 C   0  0  0  0  0  0  0  0  0  0  0  0
    7.1853   -0.0174   -2.9420 H   0  0  0  0  0  0  0  0  0  0  0  0
    5.4396    0.1422   -3.1313 H   0  0  0  0  0  0  0  0  0  0  0  0
    6.1538   -1.4666   -2.8561 H   0  0  0  0  0  0  0  0  0  0  0  0
    8.1981   -0.3794   -0.7086 H   0  0  0  0  0  0  0  0  0  0  0  0
    7.9528   -0.0986    1.7340 H   0  0  0  0  0  0  0  0  0  0  0  0
    4.8568    0.5342    3.2492 H   0  0  0  0  0  0  0  0  0  0  0  0
    3.0156   -2.2727    0.1955 H   0  0  0  0  0  0  0  0  0  0  0  0
    0.8405    1.1919    1.5445 H   0  0  0  0  0  0  0  0  0  0  0  0
   -1.5995    1.1217   -0.2134 H   0  0  0  0  0  0  0  0  0  0  0  0
   -1.7603    0.7713    1.5281 H   0  0  0  0  0  0  0  0  0  0  0  0
   -4.0693    0.5404    1.3872 H   0  0  0  0  0  0  0  0  0  0  0  0
   -4.7448   -0.8769    0.5877 H   0  0  0  0  0  0  0  0  0  0  0  0
   -4.4391    0.2477   -1.6559 H   0  0  0  0  0  0  0  0  0  0  0  0
   -3.8287    1.6746   -0.8487 H   0  0  0  0  0  0  0  0  0  0  0  0
   -6.1271    1.9894   -1.5215 H   0  0  0  0  0  0  0  0  0  0  0  0
   -6.0588    1.7622    1.5307 H   0  0  0  0  0  0  0  0  0  0  0  0
   -7.1098    2.7948    0.5563 H   0  0  0  0  0  0  0  0  0  0  0  0
   -5.3672    3.0966    0.5878 H   0  0  0  0  0  0  0  0  0  0  0  0
   -6.9622   -0.3138    0.3138 H   0  0  0  0  0  0  0  0  0  0  0  0
   -6.8747   -0.3966   -1.4564 H   0  0  0  0  0  0  0  0  0  0  0  0
   -8.0125    0.7076   -0.6725 H   0  0  0  0  0  0  0  0  0  0  0  0
   -1.1691   -3.0555   -1.1105 H   0  0  0  0  0  0  0  0  0  0  0  0
    3.9342   -0.0700   -1.1883 H   0  0  0  0  0  0  0  0  0  0  0  0
  1  2  1  0
  2  3  2  0
  3  4  1  0
  4  5  2  0
  5  6  1  0
  5  7  1  0
  7  8  1  0
  8  9  2  0
  8 10  1  0
 10 11  2  0
 11 12  1  0
 12 13  2  0
 13 14  1  0
 14 15  2  0
 14 16  1  0
 16 17  1  0
 17 18  1  0
 18 19  1  0
 19 20  1  0
 20 21  1  0
 20 22  1  0
 17 23  1  0
 23 24  2  0
 23 25  1  0
  7 26  2  0
 26  2  1  0
 15 10  1  0
 25 13  1  0
  1 27  1  0
  1 28  1  0
  1 29  1  0
  3 30  1  0
  4 31  1  0
  6 32  1  0
 11 33  1  0
 15 34  1  0
 16 35  1  0
 16 36  1  0
 18 37  1  0
 18 38  1  0
 19 39  1  0
 19 40  1  0
 20 41  1  0
 21 42  1  0
 21 43  1  0
 21 44  1  0
 22 45  1  0
 22 46  1  0
 22 47  1  0
 25 48  1  0
 26 49  1  0
M  END
$$$$
