
     RDKit          3D

 69 73  0  0  0  0  0  0  0  0999 V2000
   -1.7910    6.2159    3.4128 C   0  0  0  0  0  0  0  0  0  0  0  0
   -1.5196    5.1774    2.3657 C   0  0  0  0  0  0  0  0  0  0  0  0
   -0.4366    4.3035    2.5092 C   0  0  0  0  0  0  0  0  0  0  0  0
   -0.1649    3.3434    1.5313 C   0  0  0  0  0  0  0  0  0  0  0  0
   -0.9673    3.2417    0.3879 C   0  0  0  0  0  0  0  0  0  0  0  0
   -0.6912    2.1856   -0.6637 C   0  0  0  0  0  0  0  0  0  0  0  0
   -1.4967    0.9794   -0.4739 N   0  0  0  0  0  0  0  0  0  0  0  0
   -2.7608    0.9542   -1.0776 C   0  0  0  0  0  0  0  0  0  0  0  0
   -3.1188    1.7688   -1.9328 O   0  0  0  0  0  0  0  0  0  0  0  0
   -3.6798   -0.2245   -0.6978 C   0  0  0  0  0  0  0  0  0  0  0  0
   -3.4042   -1.4225   -1.6245 C   0  0  0  0  0  0  0  0  0  0  0  0
   -4.3120   -2.6491   -1.4038 C   0  0  0  0  0  0  0  0  0  0  0  0
   -5.7890   -2.3318   -1.6356 C   0  0  0  0  0  0  0  0  0  0  0  0
   -3.8767   -3.7862   -2.3323 C   0  0  0  0  0  0  0  0  0  0  0  0
   -3.5296   -0.5617    0.7146 N   0  0  0  0  0  0  0  0  0  0  0  0
   -2.2121   -0.7176    1.1370 C   0  0  0  0  0  0  0  0  0  0  0  0
   -2.0429   -1.5912    2.1386 N   0  0  0  0  0  0  0  0  0  0  0  0
   -0.7930   -1.7303    2.5787 C   0  0  0  0  0  0  0  0  0  0  0  0
    0.2916   -1.1321    2.0745 N   0  0  0  0  0  0  0  0  0  0  0  0
    0.1095   -0.2813    1.0403 C   0  0  0  0  0  0  0  0  0  0  0  0
    1.2769    0.1723    0.3801 N   0  0  0  0  0  0  0  0  0  0  0  0
    1.4768   -0.6212   -0.8670 C   0  0  0  0  0  0  0  0  0  0  0  0
    2.9494   -0.6127   -1.3375 C   0  0  0  0  0  0  0  0  0  0  0  0
    3.8351   -1.1824   -0.3079 N   0  0  0  0  0  0  0  0  0  0  0  0
    5.0653   -1.7338   -0.6230 C   0  0  0  0  0  0  0  0  0  0  0  0
    5.7403   -2.5885    0.2645 C   0  0  0  0  0  0  0  0  0  0  0  0
    6.9838   -3.1534   -0.0468 C   0  0  0  0  0  0  0  0  0  0  0  0
    7.5897   -2.8756   -1.2654 C   0  0  0  0  0  0  0  0  0  0  0  0
    6.9483   -2.0376   -2.1687 C   0  0  0  0  0  0  0  0  0  0  0  0
    5.7039   -1.4796   -1.8482 C   0  0  0  0  0  0  0  0  0  0  0  0
    3.3994   -1.0149    1.0949 C   0  0  0  0  0  0  0  0  0  0  0  0
    2.4813    0.2186    1.2500 C   0  0  0  0  0  0  0  0  0  0  0  0
   -1.1739    0.0213    0.5562 C   0  0  0  0  0  0  0  0  0  0  0  0
   -2.0477    4.1235    0.2452 C   0  0  0  0  0  0  0  0  0  0  0  0
   -2.3175    5.0860    1.2211 C   0  0  0  0  0  0  0  0  0  0  0  0
   -1.0296    7.0013    3.3672 H   0  0  0  0  0  0  0  0  0  0  0  0
   -1.7804    5.7634    4.4096 H   0  0  0  0  0  0  0  0  0  0  0  0
   -2.7730    6.6799    3.2720 H   0  0  0  0  0  0  0  0  0  0  0  0
    0.2008    4.3619    3.3888 H   0  0  0  0  0  0  0  0  0  0  0  0
    0.6793    2.6730    1.6704 H   0  0  0  0  0  0  0  0  0  0  0  0
   -0.9205    2.6187   -1.6465 H   0  0  0  0  0  0  0  0  0  0  0  0
    0.3758    1.9765   -0.7231 H   0  0  0  0  0  0  0  0  0  0  0  0
   -4.7057    0.1336   -0.8396 H   0  0  0  0  0  0  0  0  0  0  0  0
   -2.3575   -1.7389   -1.5221 H   0  0  0  0  0  0  0  0  0  0  0  0
   -3.5049   -1.0869   -2.6660 H   0  0  0  0  0  0  0  0  0  0  0  0
   -4.1938   -3.0057   -0.3740 H   0  0  0  0  0  0  0  0  0  0  0  0
   -6.1636   -1.6140   -0.9007 H   0  0  0  0  0  0  0  0  0  0  0  0
   -5.9536   -1.9145   -2.6347 H   0  0  0  0  0  0  0  0  0  0  0  0
   -6.3992   -3.2370   -1.5436 H   0  0  0  0  0  0  0  0  0  0  0  0
   -4.4842   -4.6813   -2.1631 H   0  0  0  0  0  0  0  0  0  0  0  0
   -3.9783   -3.5015   -3.3850 H   0  0  0  0  0  0  0  0  0  0  0  0
   -2.8305   -4.0560   -2.1531 H   0  0  0  0  0  0  0  0  0  0  0  0
   -4.1127   -1.2956    1.1001 H   0  0  0  0  0  0  0  0  0  0  0  0
   -0.6383   -2.4048    3.4134 H   0  0  0  0  0  0  0  0  0  0  0  0
    1.1760   -1.6677   -0.7135 H   0  0  0  0  0  0  0  0  0  0  0  0
    0.8507   -0.2117   -1.6675 H   0  0  0  0  0  0  0  0  0  0  0  0
    3.2645    0.4133   -1.5630 H   0  0  0  0  0  0  0  0  0  0  0  0
    3.0003   -1.1997   -2.2622 H   0  0  0  0  0  0  0  0  0  0  0  0
    5.2936   -2.8561    1.2182 H   0  0  0  0  0  0  0  0  0  0  0  0
    7.4703   -3.8141    0.6654 H   0  0  0  0  0  0  0  0  0  0  0  0
    8.5548   -3.3102   -1.5099 H   0  0  0  0  0  0  0  0  0  0  0  0
    7.4131   -1.8096   -3.1242 H   0  0  0  0  0  0  0  0  0  0  0  0
    5.2530   -0.8145   -2.5792 H   0  0  0  0  0  0  0  0  0  0  0  0
    2.8793   -1.9230    1.4188 H   0  0  0  0  0  0  0  0  0  0  0  0
    4.2613   -0.8606    1.7553 H   0  0  0  0  0  0  0  0  0  0  0  0
    3.0492    1.1101    0.9511 H   0  0  0  0  0  0  0  0  0  0  0  0
    2.2269    0.3810    2.3053 H   0  0  0  0  0  0  0  0  0  0  0  0
   -2.6900    4.0663   -0.6327 H   0  0  0  0  0  0  0  0  0  0  0  0
   -3.1592    5.7605    1.0796 H   0  0  0  0  0  0  0  0  0  0  0  0
  1  2  1  0
  2  3  2  0
  3  4  1  0
  4  5  2  0
  5  6  1  0
  6  7  1  0
  7  8  1  0
  8  9  2  0
  8 10  1  0
 10 11  1  0
 11 12  1  0
 12 13  1  0
 12 14  1  0
 10 15  1  0
 15 16  1  0
 16 17  2  0
 17 18  1  0
 18 19  2  0
 19 20  1  0
 20 21  1  0
 21 22  1  0
 22 23  1  0
 23 24  1  0
 24 25  1  0
 25 26  2  0
 26 27  1  0
 27 28  2  0
 28 29  1  0
 29 30  2  0
 24 31  1  0
 31 32  1  0
 20 33  2  0
  5 34  1  0
 34 35  2  0
 35  2  1  0
 33  7  1  0
 33 16  1  0
 32 21  1  0
 30 25  1  0
  1 36  1  0
  1 37  1  0
  1 38  1  0
  3 39  1  0
  4 40  1  0
  6 41  1  0
  6 42  1  0
 10 43  1  0
 11 44  1  0
 11 45  1  0
 12 46  1  0
 13 47  1  0
 13 48  1  0
 13 49  1  0
 14 50  1  0
 14 51  1  0
 14 52  1  0
 15 53  1  0
 18 54  1  0
 22 55  1  0
 22 56  1  0
 23 57  1  0
 23 58  1  0
 26 59  1  0
 27 60  1  0
 28 61  1  0
 29 62  1  0
 30 63  1  0
 31 64  1  0
 31 65  1  0
 32 66  1  0
 32 67  1  0
 34 68  1  0
 35 69  1  0
M  END
$$$$
