
     RDKit          3D

 51 53  0  0  0  0  0  0  0  0999 V2000
   -8.9215   -0.8198   -0.7938 C   0  0  0  0  0  0  0  0  0  0  0  0
   -7.4595   -0.6046   -0.5141 C   0  0  0  0  0  0  0  0  0  0  0  0
   -7.0739    0.3755    0.4124 C   0  0  0  0  0  0  0  0  0  0  0  0
   -5.7249    0.6099    0.6968 C   0  0  0  0  0  0  0  0  0  0  0  0
   -4.7388   -0.1341    0.0555 C   0  0  0  0  0  0  0  0  0  0  0  0
   -3.3890   -0.0149    0.2396 O   0  0  0  0  0  0  0  0  0  0  0  0
   -2.9474    0.9544    1.1883 C   0  0  0  0  0  0  0  0  0  0  0  0
   -1.4678    0.8883    1.2278 C   0  0  0  0  0  0  0  0  0  0  0  0
   -0.5226   -0.0243    0.8316 C   0  0  0  0  0  0  0  0  0  0  0  0
    0.7289    0.5513    1.1918 C   0  0  0  0  0  0  0  0  0  0  0  0
    2.0471   -0.0589    0.9327 C   0  0  0  0  0  0  0  0  0  0  0  0
    2.1130   -1.0278    0.1703 O   0  0  0  0  0  0  0  0  0  0  0  0
    3.2163    0.4447    1.5336 N   0  0  0  0  0  0  0  0  0  0  0  0
    3.2660    1.6165    2.3959 C   0  0  0  0  0  0  0  0  0  0  0  0
    4.4986   -0.0601    1.0359 C   0  0  0  0  0  0  0  0  0  0  0  0
    4.9717    0.6936   -0.2115 C   0  0  0  0  0  0  0  0  0  0  0  0
    6.2894    0.1630   -0.7173 C   0  0  0  0  0  0  0  0  0  0  0  0
    6.3215   -0.9455   -1.5742 C   0  0  0  0  0  0  0  0  0  0  0  0
    7.5397   -1.4533   -2.0272 C   0  0  0  0  0  0  0  0  0  0  0  0
    8.7354   -0.8610   -1.6255 C   0  0  0  0  0  0  0  0  0  0  0  0
    8.7142    0.2388   -0.7695 C   0  0  0  0  0  0  0  0  0  0  0  0
    7.4968    0.7485   -0.3152 C   0  0  0  0  0  0  0  0  0  0  0  0
    0.5277    1.7553    1.7539 N   0  0  0  0  0  0  0  0  0  0  0  0
   -0.8368    1.9531    1.7873 O   0  0  0  0  0  0  0  0  0  0  0  0
   -5.1154   -1.1069   -0.8743 C   0  0  0  0  0  0  0  0  0  0  0  0
   -6.4659   -1.3489   -1.1759 C   0  0  0  0  0  0  0  0  0  0  0  0
   -6.8153   -2.4123   -2.1802 C   0  0  0  0  0  0  0  0  0  0  0  0
   -9.5503   -0.2490   -0.1017 H   0  0  0  0  0  0  0  0  0  0  0  0
   -9.1845   -1.8756   -0.6736 H   0  0  0  0  0  0  0  0  0  0  0  0
   -9.1629   -0.4961   -1.8114 H   0  0  0  0  0  0  0  0  0  0  0  0
   -7.8280    0.9684    0.9262 H   0  0  0  0  0  0  0  0  0  0  0  0
   -5.4880    1.3794    1.4234 H   0  0  0  0  0  0  0  0  0  0  0  0
   -3.2605    1.9586    0.8789 H   0  0  0  0  0  0  0  0  0  0  0  0
   -3.3400    0.7218    2.1852 H   0  0  0  0  0  0  0  0  0  0  0  0
   -0.6939   -0.9745    0.3460 H   0  0  0  0  0  0  0  0  0  0  0  0
    2.5062    1.5428    3.1769 H   0  0  0  0  0  0  0  0  0  0  0  0
    3.1149    2.5147    1.7909 H   0  0  0  0  0  0  0  0  0  0  0  0
    4.2391    1.6790    2.8925 H   0  0  0  0  0  0  0  0  0  0  0  0
    5.2392    0.0090    1.8419 H   0  0  0  0  0  0  0  0  0  0  0  0
    4.3988   -1.1286    0.8093 H   0  0  0  0  0  0  0  0  0  0  0  0
    5.0659    1.7648    0.0078 H   0  0  0  0  0  0  0  0  0  0  0  0
    4.2214    0.6238   -1.0092 H   0  0  0  0  0  0  0  0  0  0  0  0
    5.3951   -1.4206   -1.8923 H   0  0  0  0  0  0  0  0  0  0  0  0
    7.5546   -2.3121   -2.6927 H   0  0  0  0  0  0  0  0  0  0  0  0
    9.6835   -1.2571   -1.9788 H   0  0  0  0  0  0  0  0  0  0  0  0
    9.6471    0.6998   -0.4552 H   0  0  0  0  0  0  0  0  0  0  0  0
    7.4980    1.6060    0.3536 H   0  0  0  0  0  0  0  0  0  0  0  0
   -4.3370   -1.6829   -1.3706 H   0  0  0  0  0  0  0  0  0  0  0  0
   -5.9219   -2.8010   -2.6810 H   0  0  0  0  0  0  0  0  0  0  0  0
   -7.3131   -3.2512   -1.6835 H   0  0  0  0  0  0  0  0  0  0  0  0
   -7.4710   -2.0063   -2.9572 H   0  0  0  0  0  0  0  0  0  0  0  0
  1  2  1  0
  2  3  2  0
  3  4  1  0
  4  5  2  0
  5  6  1  0
  6  7  1  0
  7  8  1  0
  8  9  2  0
  9 10  1  0
 10 11  1  0
 11 12  2  0
 11 13  1  0
 13 14  1  0
 13 15  1  0
 15 16  1  0
 16 17  1  0
 17 18  2  0
 18 19  1  0
 19 20  2  0
 20 21  1  0
 21 22  2  0
 10 23  2  0
 23 24  1  0
  5 25  1  0
 25 26  2  0
 26 27  1  0
 26  2  1  0
 24  8  1  0
 22 17  1  0
  1 28  1  0
  1 29  1  0
  1 30  1  0
  3 31  1  0
  4 32  1  0
  7 33  1  0
  7 34  1  0
  9 35  1  0
 14 36  1  0
 14 37  1  0
 14 38  1  0
 15 39  1  0
 15 40  1  0
 16 41  1  0
 16 42  1  0
 18 43  1  0
 19 44  1  0
 20 45  1  0
 21 46  1  0
 22 47  1  0
 25 48  1  0
 27 49  1  0
 27 50  1  0
 27 51  1  0
M  END
$$$$
