
     RDKit          3D

 50 53  0  0  0  0  0  0  0  0999 V2000
    7.6843    1.8355    0.4833 C   0  0  0  0  0  0  0  0  0  0  0  0
    6.8165    1.1881   -0.4390 O   0  0  0  0  0  0  0  0  0  0  0  0
    5.5097    1.0503   -0.0627 C   0  0  0  0  0  0  0  0  0  0  0  0
    4.9492    1.4810    1.1359 C   0  0  0  0  0  0  0  0  0  0  0  0
    3.5870    1.2727    1.3897 C   0  0  0  0  0  0  0  0  0  0  0  0
    2.7632    0.6214    0.4539 C   0  0  0  0  0  0  0  0  0  0  0  0
    1.3803    0.4359    0.7672 N   0  0  0  0  0  0  0  0  0  0  0  0
    0.8586    1.0855    1.8504 N   0  0  0  0  0  0  0  0  0  0  0  0
   -0.4401    0.7996    1.8493 C   0  0  0  0  0  0  0  0  0  0  0  0
   -0.7973   -0.0493    0.7969 C   0  0  0  0  0  0  0  0  0  0  0  0
    0.3937   -0.3217    0.1467 C   0  0  0  0  0  0  0  0  0  0  0  0
    0.5341   -1.2968   -0.9761 C   0  0  0  0  0  0  0  0  0  0  0  0
   -0.7083   -2.2384   -1.0705 C   0  0  0  0  0  0  0  0  0  0  0  0
   -0.7195   -2.9022   -2.4608 C   0  0  0  0  0  0  0  0  0  0  0  0
   -0.6190   -3.3562   -0.0113 C   0  0  0  0  0  0  0  0  0  0  0  0
   -2.0223   -1.4217   -0.8947 C   0  0  0  0  0  0  0  0  0  0  0  0
   -2.1116   -0.6593    0.4495 C   0  0  0  0  0  0  0  0  0  0  0  0
   -3.0939    0.4025    0.3719 N   0  0  0  0  0  0  0  0  0  0  0  0
   -4.4390    0.1317    0.4800 C   0  0  0  0  0  0  0  0  0  0  0  0
   -4.8692   -0.9897    0.7306 O   0  0  0  0  0  0  0  0  0  0  0  0
   -5.3202    1.2657    0.2598 C   0  0  0  0  0  0  0  0  0  0  0  0
   -5.0460    2.6392    0.0646 C   0  0  0  0  0  0  0  0  0  0  0  0
   -6.1487    3.3730   -0.1089 N   0  0  0  0  0  0  0  0  0  0  0  0
   -7.1426    2.4762   -0.0097 N   0  0  0  0  0  0  0  0  0  0  0  0
   -6.7008    1.2068    0.2094 C   0  0  0  0  0  0  0  0  0  0  0  0
    3.3307    0.2070   -0.7532 C   0  0  0  0  0  0  0  0  0  0  0  0
    4.6936    0.4187   -1.0020 C   0  0  0  0  0  0  0  0  0  0  0  0
    8.6830    1.8665    0.0370 H   0  0  0  0  0  0  0  0  0  0  0  0
    7.7557    1.2731    1.4201 H   0  0  0  0  0  0  0  0  0  0  0  0
    7.3684    2.8682    0.6645 H   0  0  0  0  0  0  0  0  0  0  0  0
    5.5360    1.9832    1.8977 H   0  0  0  0  0  0  0  0  0  0  0  0
    3.1831    1.6222    2.3394 H   0  0  0  0  0  0  0  0  0  0  0  0
   -1.0695    1.2164    2.6259 H   0  0  0  0  0  0  0  0  0  0  0  0
    0.6233   -0.7284   -1.9104 H   0  0  0  0  0  0  0  0  0  0  0  0
    1.4361   -1.9069   -0.8546 H   0  0  0  0  0  0  0  0  0  0  0  0
   -1.5670   -3.5890   -2.5645 H   0  0  0  0  0  0  0  0  0  0  0  0
    0.1989   -3.4748   -2.6326 H   0  0  0  0  0  0  0  0  0  0  0  0
   -0.7993   -2.1543   -3.2576 H   0  0  0  0  0  0  0  0  0  0  0  0
   -1.4980   -4.0093   -0.0571 H   0  0  0  0  0  0  0  0  0  0  0  0
   -0.5526   -2.9622    1.0074 H   0  0  0  0  0  0  0  0  0  0  0  0
    0.2663   -3.9813   -0.1753 H   0  0  0  0  0  0  0  0  0  0  0  0
   -2.8962   -2.0784   -0.9974 H   0  0  0  0  0  0  0  0  0  0  0  0
   -2.0942   -0.7004   -1.7223 H   0  0  0  0  0  0  0  0  0  0  0  0
   -2.4057   -1.3558    1.2444 H   0  0  0  0  0  0  0  0  0  0  0  0
   -2.7946    1.2871   -0.0103 H   0  0  0  0  0  0  0  0  0  0  0  0
   -4.0902    3.1460    0.0430 H   0  0  0  0  0  0  0  0  0  0  0  0
   -8.0994    2.8029   -0.1017 H   0  0  0  0  0  0  0  0  0  0  0  0
   -7.3859    0.3764    0.3120 H   0  0  0  0  0  0  0  0  0  0  0  0
    2.7574   -0.2505   -1.5472 H   0  0  0  0  0  0  0  0  0  0  0  0
    5.1223    0.0937   -1.9478 H   0  0  0  0  0  0  0  0  0  0  0  0
  1  2  1  0
  2  3  1  0
  3  4  2  0
  4  5  1  0
  5  6  2  0
  6  7  1  0
  7  8  1  0
  8  9  2  0
  9 10  1  0
 10 11  2  0
 11 12  1  0
 12 13  1  0
 13 14  1  0
 13 15  1  0
 13 16  1  0
 16 17  1  0
 17 18  1  0
 18 19  1  0
 19 20  2  0
 19 21  1  0
 21 22  1  0
 22 23  2  0
 23 24  1  0
 24 25  1  0
  6 26  1  0
 26 27  2  0
 27  3  1  0
 11  7  1  0
 25 21  2  0
 17 10  1  0
  1 28  1  0
  1 29  1  0
  1 30  1  0
  4 31  1  0
  5 32  1  0
  9 33  1  0
 12 34  1  0
 12 35  1  0
 14 36  1  0
 14 37  1  0
 14 38  1  0
 15 39  1  0
 15 40  1  0
 15 41  1  0
 16 42  1  0
 16 43  1  0
 17 44  1  0
 18 45  1  0
 22 46  1  0
 24 47  1  0
 25 48  1  0
 26 49  1  0
 27 50  1  0
M  END
$$$$
