
     RDKit          3D

 55 57  0  0  0  0  0  0  0  0999 V2000
   -2.7041   -3.9567    1.4913 C   0  0  0  0  0  0  0  0  0  0  0  0
   -2.2502   -2.5411    1.7891 C   0  0  0  0  0  0  0  0  0  0  0  0
   -1.1452   -2.2409    0.9421 O   0  0  0  0  0  0  0  0  0  0  0  0
   -0.6354   -0.9151    1.1149 C   0  0  0  0  0  0  0  0  0  0  0  0
    0.7203   -0.9122    0.6386 O   0  0  0  0  0  0  0  0  0  0  0  0
    1.3158    0.3367    0.6179 C   0  0  0  0  0  0  0  0  0  0  0  0
    2.8211    0.3883    0.5120 C   0  0  0  0  0  0  0  0  0  0  0  0
    3.4262    1.4528    0.5219 O   0  0  0  0  0  0  0  0  0  0  0  0
    3.3533   -0.8806    0.4086 N   0  0  0  0  0  0  0  0  0  0  0  0
    4.7060   -1.2492    0.2951 C   0  0  0  0  0  0  0  0  0  0  0  0
    4.9896   -2.6174    0.1950 C   0  0  0  0  0  0  0  0  0  0  0  0
    6.3080   -3.0660    0.0798 C   0  0  0  0  0  0  0  0  0  0  0  0
    7.3555   -2.1493    0.0638 C   0  0  0  0  0  0  0  0  0  0  0  0
    7.0829   -0.7869    0.1630 C   0  0  0  0  0  0  0  0  0  0  0  0
    5.7631   -0.3380    0.2783 C   0  0  0  0  0  0  0  0  0  0  0  0
    0.6230    1.4852    0.6844 C   0  0  0  0  0  0  0  0  0  0  0  0
   -0.8821    1.5173    0.7262 C   0  0  0  0  0  0  0  0  0  0  0  0
   -1.5139    2.6925   -0.0030 C   0  0  0  0  0  0  0  0  0  0  0  0
   -0.9267    3.2868   -1.1324 C   0  0  0  0  0  0  0  0  0  0  0  0
   -1.5447    4.3610   -1.7768 C   0  0  0  0  0  0  0  0  0  0  0  0
   -2.7594    4.8540   -1.3069 C   0  0  0  0  0  0  0  0  0  0  0  0
   -3.3587    4.2740   -0.1921 C   0  0  0  0  0  0  0  0  0  0  0  0
   -2.7416    3.2016    0.4549 C   0  0  0  0  0  0  0  0  0  0  0  0
   -1.4919    0.1355    0.3628 C   0  0  0  0  0  0  0  0  0  0  0  0
   -1.5402   -0.2039   -1.1535 C   0  0  0  0  0  0  0  0  0  0  0  0
   -2.7619    0.2959   -1.9420 C   0  0  0  0  0  0  0  0  0  0  0  0
   -4.1223   -0.0402   -1.3401 C   0  0  0  0  0  0  0  0  0  0  0  0
   -4.2051   -1.4089   -0.9714 O   0  0  0  0  0  0  0  0  0  0  0  0
   -1.8878   -4.6671    1.6588 H   0  0  0  0  0  0  0  0  0  0  0  0
   -3.5510   -4.2363    2.1242 H   0  0  0  0  0  0  0  0  0  0  0  0
   -3.0004   -4.0532    0.4414 H   0  0  0  0  0  0  0  0  0  0  0  0
   -3.0765   -1.8479    1.6095 H   0  0  0  0  0  0  0  0  0  0  0  0
   -1.9416   -2.4650    2.8373 H   0  0  0  0  0  0  0  0  0  0  0  0
   -0.6039   -0.6958    2.1917 H   0  0  0  0  0  0  0  0  0  0  0  0
    2.6700   -1.6319    0.4091 H   0  0  0  0  0  0  0  0  0  0  0  0
    4.1888   -3.3523    0.2048 H   0  0  0  0  0  0  0  0  0  0  0  0
    6.5151   -4.1300    0.0025 H   0  0  0  0  0  0  0  0  0  0  0  0
    8.3822   -2.4940   -0.0257 H   0  0  0  0  0  0  0  0  0  0  0  0
    7.8965   -0.0661    0.1512 H   0  0  0  0  0  0  0  0  0  0  0  0
    5.5944    0.7315    0.3535 H   0  0  0  0  0  0  0  0  0  0  0  0
    1.1529    2.4363    0.7094 H   0  0  0  0  0  0  0  0  0  0  0  0
   -1.1046    1.6904    1.7918 H   0  0  0  0  0  0  0  0  0  0  0  0
    0.0157    2.9169   -1.5314 H   0  0  0  0  0  0  0  0  0  0  0  0
   -1.0757    4.8117   -2.6479 H   0  0  0  0  0  0  0  0  0  0  0  0
   -3.2374    5.6909   -1.8092 H   0  0  0  0  0  0  0  0  0  0  0  0
   -4.3062    4.6587    0.1764 H   0  0  0  0  0  0  0  0  0  0  0  0
   -3.2280    2.7651    1.3249 H   0  0  0  0  0  0  0  0  0  0  0  0
   -2.5096    0.0940    0.7616 H   0  0  0  0  0  0  0  0  0  0  0  0
   -1.5187   -1.2934   -1.2813 H   0  0  0  0  0  0  0  0  0  0  0  0
   -0.6343    0.1609   -1.6530 H   0  0  0  0  0  0  0  0  0  0  0  0
   -2.7065   -0.1699   -2.9350 H   0  0  0  0  0  0  0  0  0  0  0  0
   -2.7071    1.3719   -2.1191 H   0  0  0  0  0  0  0  0  0  0  0  0
   -4.3224    0.5645   -0.4511 H   0  0  0  0  0  0  0  0  0  0  0  0
   -4.9179    0.1717   -2.0620 H   0  0  0  0  0  0  0  0  0  0  0  0
   -3.9670   -1.9367   -1.7536 H   0  0  0  0  0  0  0  0  0  0  0  0
  1  2  1  0
  2  3  1  0
  3  4  1  0
  4  5  1  0
  5  6  1  0
  6  7  1  0
  7  8  2  0
  7  9  1  0
  9 10  1  0
 10 11  2  0
 11 12  1  0
 12 13  2  0
 13 14  1  0
 14 15  2  0
  6 16  2  0
 16 17  1  0
 17 18  1  0
 18 19  2  0
 19 20  1  0
 20 21  2  0
 21 22  1  0
 22 23  2  0
 17 24  1  0
 24 25  1  0
 25 26  1  0
 26 27  1  0
 27 28  1  0
 24  4  1  0
 15 10  1  0
 23 18  1  0
  1 29  1  0
  1 30  1  0
  1 31  1  0
  2 32  1  0
  2 33  1  0
  4 34  1  0
  9 35  1  0
 11 36  1  0
 12 37  1  0
 13 38  1  0
 14 39  1  0
 15 40  1  0
 16 41  1  0
 17 42  1  0
 19 43  1  0
 20 44  1  0
 21 45  1  0
 22 46  1  0
 23 47  1  0
 24 48  1  0
 25 49  1  0
 25 50  1  0
 26 51  1  0
 26 52  1  0
 27 53  1  0
 27 54  1  0
 28 55  1  0
M  END
$$$$
