
     RDKit          3D

 37 40  0  0  0  0  0  0  0  0999 V2000
    6.0223    0.0901   -0.1081 C   0  0  0  0  0  0  0  0  0  0  0  0
    4.7655   -0.5204    0.1547 O   0  0  0  0  0  0  0  0  0  0  0  0
    3.6455    0.2041   -0.1569 C   0  0  0  0  0  0  0  0  0  0  0  0
    3.6281    1.4835   -0.7038 C   0  0  0  0  0  0  0  0  0  0  0  0
    2.4184    2.1338   -0.9697 C   0  0  0  0  0  0  0  0  0  0  0  0
    1.2307    1.4544   -0.6756 C   0  0  0  0  0  0  0  0  0  0  0  0
   -0.0686    1.8610   -0.8184 N   0  0  0  0  0  0  0  0  0  0  0  0
   -0.9555    0.8989   -0.3850 C   0  0  0  0  0  0  0  0  0  0  0  0
   -2.3632    0.9505   -0.3286 C   0  0  0  0  0  0  0  0  0  0  0  0
   -3.1321    2.1680   -0.7777 C   0  0  0  0  0  0  0  0  0  0  0  0
   -3.0331   -0.1883    0.1985 C   0  0  0  0  0  0  0  0  0  0  0  0
   -4.4367   -0.2192    0.3431 C   0  0  0  0  0  0  0  0  0  0  0  0
   -5.0632   -1.3352    0.8700 C   0  0  0  0  0  0  0  0  0  0  0  0
   -4.4034   -2.4284    1.2705 N   0  0  0  0  0  0  0  0  0  0  0  0
   -3.0571   -2.3940    1.1255 C   0  0  0  0  0  0  0  0  0  0  0  0
   -2.2993   -1.3302    0.5954 C   0  0  0  0  0  0  0  0  0  0  0  0
   -0.8718   -1.3729    0.4578 C   0  0  0  0  0  0  0  0  0  0  0  0
   -0.1195   -2.6326    0.8168 C   0  0  0  0  0  0  0  0  0  0  0  0
   -0.1956   -0.2028    0.0093 C   0  0  0  0  0  0  0  0  0  0  0  0
    1.1953    0.1684   -0.1456 C   0  0  0  0  0  0  0  0  0  0  0  0
    2.4373   -0.4515    0.1251 C   0  0  0  0  0  0  0  0  0  0  0  0
    6.8049   -0.6130    0.1931 H   0  0  0  0  0  0  0  0  0  0  0  0
    6.1484    0.2900   -1.1773 H   0  0  0  0  0  0  0  0  0  0  0  0
    6.1494    1.0027    0.4835 H   0  0  0  0  0  0  0  0  0  0  0  0
    4.5452    2.0162   -0.9331 H   0  0  0  0  0  0  0  0  0  0  0  0
    2.4099    3.1358   -1.3869 H   0  0  0  0  0  0  0  0  0  0  0  0
   -0.3364    2.7660   -1.1732 H   0  0  0  0  0  0  0  0  0  0  0  0
   -3.8464    1.8982   -1.5625 H   0  0  0  0  0  0  0  0  0  0  0  0
   -3.6668    2.6116    0.0685 H   0  0  0  0  0  0  0  0  0  0  0  0
   -2.4806    2.9419   -1.1923 H   0  0  0  0  0  0  0  0  0  0  0  0
   -5.0599    0.6204    0.0549 H   0  0  0  0  0  0  0  0  0  0  0  0
   -6.1420   -1.3699    0.9872 H   0  0  0  0  0  0  0  0  0  0  0  0
   -2.5827   -3.3034    1.4838 H   0  0  0  0  0  0  0  0  0  0  0  0
    0.8182   -2.7079    0.2640 H   0  0  0  0  0  0  0  0  0  0  0  0
   -0.6757   -3.5313    0.5339 H   0  0  0  0  0  0  0  0  0  0  0  0
    0.0897   -2.6546    1.8901 H   0  0  0  0  0  0  0  0  0  0  0  0
    2.4806   -1.4400    0.5690 H   0  0  0  0  0  0  0  0  0  0  0  0
  1  2  1  0
  2  3  1  0
  3  4  2  0
  4  5  1  0
  5  6  2  0
  6  7  1  0
  7  8  1  0
  8  9  2  0
  9 10  1  0
  9 11  1  0
 11 12  2  0
 12 13  1  0
 13 14  2  0
 14 15  1  0
 15 16  2  0
 16 17  1  0
 17 18  1  0
 17 19  2  0
 19 20  1  0
 20 21  2  0
 21  3  1  0
 20  6  1  0
 19  8  1  0
 16 11  1  0
  1 22  1  0
  1 23  1  0
  1 24  1  0
  4 25  1  0
  5 26  1  0
  7 27  1  0
 10 28  1  0
 10 29  1  0
 10 30  1  0
 12 31  1  0
 13 32  1  0
 15 33  1  0
 18 34  1  0
 18 35  1  0
 18 36  1  0
 21 37  1  0
M  END
$$$$
