
     RDKit          3D

 71 74  0  0  0  0  0  0  0  0999 V2000
   -8.1205   -0.2451   -1.0858 C   0  0  0  0  0  0  0  0  0  0  0  0
   -7.0006   -0.8954   -0.2821 C   0  0  0  0  0  0  0  0  0  0  0  0
   -5.9993    0.1220    0.3221 C   0  0  0  0  0  0  0  0  0  0  0  0
   -6.6615    1.1400    1.2727 C   0  0  0  0  0  0  0  0  0  0  0  0
   -7.1065    0.5023    2.5839 C   0  0  0  0  0  0  0  0  0  0  0  0
   -5.9383   -0.2251    3.2359 C   0  0  0  0  0  0  0  0  0  0  0  0
   -5.2436   -1.1815    2.2648 C   0  0  0  0  0  0  0  0  0  0  0  0
   -4.8474   -0.4955    1.0260 N   0  0  0  0  0  0  0  0  0  0  0  0
   -4.0401   -1.3531    0.1446 C   0  0  0  0  0  0  0  0  0  0  0  0
   -2.5997   -1.5452    0.6350 C   0  0  0  0  0  0  0  0  0  0  0  0
   -1.8484   -0.2215    0.7657 C   0  0  0  0  0  0  0  0  0  0  0  0
   -0.4712   -0.4259    1.1799 N   0  0  0  0  0  0  0  0  0  0  0  0
    0.5037   -0.8103    0.2778 C   0  0  0  0  0  0  0  0  0  0  0  0
    0.2944   -0.9157   -0.9280 O   0  0  0  0  0  0  0  0  0  0  0  0
    1.8814   -1.0211    0.9175 C   0  0  0  0  0  0  0  0  0  0  0  0
    2.7548   -1.8221    0.0692 N   0  0  0  0  0  0  0  0  0  0  0  0
    2.6953   -3.2024    0.2119 C   0  0  0  0  0  0  0  0  0  0  0  0
    2.0184   -3.7668    1.0725 O   0  0  0  0  0  0  0  0  0  0  0  0
    3.4709   -3.9898   -0.8360 C   0  0  0  0  0  0  0  0  0  0  0  0
    4.6398   -3.3999   -1.3743 O   0  0  0  0  0  0  0  0  0  0  0  0
    4.4860   -2.0638   -1.6284 C   0  0  0  0  0  0  0  0  0  0  0  0
    5.3470   -1.5367   -2.5949 C   0  0  0  0  0  0  0  0  0  0  0  0
    5.2986   -0.1816   -2.9075 C   0  0  0  0  0  0  0  0  0  0  0  0
    4.4025    0.6433   -2.2252 C   0  0  0  0  0  0  0  0  0  0  0  0
    4.3253    2.3783   -2.6289 S   0  0  0  0  0  6  0  0  0  0  0  0
    4.8182    2.5300   -3.9810 O   0  0  0  0  0  0  0  0  0  0  0  0
    3.0151    2.8574   -2.2446 O   0  0  0  0  0  0  0  0  0  0  0  0
    5.4543    3.0724   -1.5798 N   0  0  0  0  0  0  0  0  0  0  0  0
    6.9017    2.8125   -1.8090 C   0  0  0  0  0  0  0  0  0  0  0  0
    7.5205    2.0966   -0.6035 C   0  0  0  0  0  0  0  0  0  0  0  0
    7.4022    2.8273    0.6256 O   0  0  0  0  0  0  0  0  0  0  0  0
    6.2759    3.7157    0.6598 C   0  0  0  0  0  0  0  0  0  0  0  0
    5.0824    3.1922   -0.1450 C   0  0  0  0  0  0  0  0  0  0  0  0
    3.5257    0.1154   -1.2661 C   0  0  0  0  0  0  0  0  0  0  0  0
    3.5714   -1.2468   -0.9433 C   0  0  0  0  0  0  0  0  0  0  0  0
   -8.8096    0.3085   -0.4420 H   0  0  0  0  0  0  0  0  0  0  0  0
   -8.7040   -1.0141   -1.6027 H   0  0  0  0  0  0  0  0  0  0  0  0
   -7.7191    0.4384   -1.8403 H   0  0  0  0  0  0  0  0  0  0  0  0
   -6.4701   -1.5737   -0.9603 H   0  0  0  0  0  0  0  0  0  0  0  0
   -7.4506   -1.5216    0.4954 H   0  0  0  0  0  0  0  0  0  0  0  0
   -5.5932    0.7112   -0.5120 H   0  0  0  0  0  0  0  0  0  0  0  0
   -5.9384    1.9365    1.4972 H   0  0  0  0  0  0  0  0  0  0  0  0
   -7.5107    1.6381    0.7941 H   0  0  0  0  0  0  0  0  0  0  0  0
   -7.9291   -0.1991    2.4036 H   0  0  0  0  0  0  0  0  0  0  0  0
   -7.4893    1.2729    3.2624 H   0  0  0  0  0  0  0  0  0  0  0  0
   -5.2109    0.5130    3.5981 H   0  0  0  0  0  0  0  0  0  0  0  0
   -6.2904   -0.7791    4.1135 H   0  0  0  0  0  0  0  0  0  0  0  0
   -5.8940   -2.0390    2.0548 H   0  0  0  0  0  0  0  0  0  0  0  0
   -4.3626   -1.5770    2.7817 H   0  0  0  0  0  0  0  0  0  0  0  0
   -4.5094   -2.3366    0.0173 H   0  0  0  0  0  0  0  0  0  0  0  0
   -3.9789   -0.9027   -0.8549 H   0  0  0  0  0  0  0  0  0  0  0  0
   -2.5774   -2.0827    1.5899 H   0  0  0  0  0  0  0  0  0  0  0  0
   -2.0786   -2.1933   -0.0811 H   0  0  0  0  0  0  0  0  0  0  0  0
   -2.3091    0.4207    1.5230 H   0  0  0  0  0  0  0  0  0  0  0  0
   -1.8514    0.3163   -0.1890 H   0  0  0  0  0  0  0  0  0  0  0  0
   -0.2974   -0.5414    2.1699 H   0  0  0  0  0  0  0  0  0  0  0  0
    2.3367   -0.0519    1.1434 H   0  0  0  0  0  0  0  0  0  0  0  0
    1.7428   -1.5327    1.8775 H   0  0  0  0  0  0  0  0  0  0  0  0
    2.7840   -4.2341   -1.6556 H   0  0  0  0  0  0  0  0  0  0  0  0
    3.7787   -4.9337   -0.3724 H   0  0  0  0  0  0  0  0  0  0  0  0
    6.0455   -2.1908   -3.1116 H   0  0  0  0  0  0  0  0  0  0  0  0
    5.9500    0.2161   -3.6823 H   0  0  0  0  0  0  0  0  0  0  0  0
    7.3869    3.7844   -1.9582 H   0  0  0  0  0  0  0  0  0  0  0  0
    7.0711    2.2252   -2.7153 H   0  0  0  0  0  0  0  0  0  0  0  0
    8.5864    1.9183   -0.7770 H   0  0  0  0  0  0  0  0  0  0  0  0
    7.0475    1.1196   -0.4526 H   0  0  0  0  0  0  0  0  0  0  0  0
    5.9955    3.8483    1.7095 H   0  0  0  0  0  0  0  0  0  0  0  0
    6.6035    4.6911    0.2814 H   0  0  0  0  0  0  0  0  0  0  0  0
    4.7887    2.2137    0.2467 H   0  0  0  0  0  0  0  0  0  0  0  0
    4.2440    3.8886   -0.0449 H   0  0  0  0  0  0  0  0  0  0  0  0
    2.8045    0.7824   -0.8032 H   0  0  0  0  0  0  0  0  0  0  0  0
  1  2  1  0
  2  3  1  0
  3  4  1  0
  4  5  1  0
  5  6  1  0
  6  7  1  0
  7  8  1  0
  8  9  1  0
  9 10  1  0
 10 11  1  0
 11 12  1  0
 12 13  1  0
 13 14  2  0
 13 15  1  0
 15 16  1  0
 16 17  1  0
 17 18  2  0
 17 19  1  0
 19 20  1  0
 20 21  1  0
 21 22  2  0
 22 23  1  0
 23 24  2  0
 24 25  1  0
 25 26  2  0
 25 27  2  0
 25 28  1  0
 28 29  1  0
 29 30  1  0
 30 31  1  0
 31 32  1  0
 32 33  1  0
 24 34  1  0
 34 35  2  0
  8  3  1  0
 35 16  1  0
 35 21  1  0
 33 28  1  0
  1 36  1  0
  1 37  1  0
  1 38  1  0
  2 39  1  0
  2 40  1  0
  3 41  1  0
  4 42  1  0
  4 43  1  0
  5 44  1  0
  5 45  1  0
  6 46  1  0
  6 47  1  0
  7 48  1  0
  7 49  1  0
  9 50  1  0
  9 51  1  0
 10 52  1  0
 10 53  1  0
 11 54  1  0
 11 55  1  0
 12 56  1  0
 15 57  1  0
 15 58  1  0
 19 59  1  0
 19 60  1  0
 22 61  1  0
 23 62  1  0
 29 63  1  0
 29 64  1  0
 30 65  1  0
 30 66  1  0
 32 67  1  0
 32 68  1  0
 33 69  1  0
 33 70  1  0
 34 71  1  0
M  END
$$$$
