
     RDKit          3D

 41 44  0  0  0  0  0  0  0  0999 V2000
   -5.5212   -1.1251   -1.9077 C   0  0  0  0  0  0  0  0  0  0  0  0
   -5.4142   -1.2962   -0.3904 C   0  0  0  0  0  0  0  0  0  0  0  0
   -6.6920   -0.8183    0.3039 C   0  0  0  0  0  0  0  0  0  0  0  0
   -4.1837   -0.6001    0.1637 C   0  0  0  0  0  0  0  0  0  0  0  0
   -3.1803   -1.3527    0.7903 C   0  0  0  0  0  0  0  0  0  0  0  0
   -2.0356   -0.7350    1.3029 C   0  0  0  0  0  0  0  0  0  0  0  0
   -1.8682    0.6473    1.1889 C   0  0  0  0  0  0  0  0  0  0  0  0
   -0.6945    1.3250    1.7446 C   0  0  0  0  0  0  0  0  0  0  0  0
    0.5761    1.1804    1.3390 C   0  0  0  0  0  0  0  0  0  0  0  0
    1.8869    2.0817    2.1083 S   0  0  0  0  0  0  0  0  0  0  0  0
    3.0083    1.3562    1.0377 C   0  0  0  0  0  0  0  0  0  0  0  0
    4.2950    1.4270    0.8573 N   0  0  0  0  0  0  0  0  0  0  0  0
    4.4842    0.5437   -0.2014 C   0  0  0  0  0  0  0  0  0  0  0  0
    5.8054    0.2894   -0.7650 C   0  0  0  0  0  0  0  0  0  0  0  0
    6.9300    0.9353   -0.2461 C   0  0  0  0  0  0  0  0  0  0  0  0
    8.1652    0.6656   -0.8098 C   0  0  0  0  0  0  0  0  0  0  0  0
    8.3500   -0.1894   -1.8374 N   0  0  0  0  0  0  0  0  0  0  0  0
    7.2506   -0.8028   -2.3242 C   0  0  0  0  0  0  0  0  0  0  0  0
    5.9740   -0.5998   -1.8293 C   0  0  0  0  0  0  0  0  0  0  0  0
    3.3532   -0.0453   -0.6488 N   0  0  0  0  0  0  0  0  0  0  0  0
    2.4365    0.5028    0.1686 N   0  0  0  0  0  0  0  0  0  0  0  0
    1.0725    0.3058    0.2233 C   0  0  0  0  0  0  0  0  0  0  0  0
    0.4798   -0.4486   -0.5235 O   0  0  0  0  0  0  0  0  0  0  0  0
   -2.8688    1.4066    0.5757 C   0  0  0  0  0  0  0  0  0  0  0  0
   -4.0138    0.7882    0.0647 C   0  0  0  0  0  0  0  0  0  0  0  0
   -6.3653   -1.7016   -2.3014 H   0  0  0  0  0  0  0  0  0  0  0  0
   -5.6723   -0.0782   -2.1926 H   0  0  0  0  0  0  0  0  0  0  0  0
   -4.6119   -1.4787   -2.4066 H   0  0  0  0  0  0  0  0  0  0  0  0
   -5.3247   -2.3728   -0.1933 H   0  0  0  0  0  0  0  0  0  0  0  0
   -6.6208   -0.9511    1.3893 H   0  0  0  0  0  0  0  0  0  0  0  0
   -7.5577   -1.3901   -0.0476 H   0  0  0  0  0  0  0  0  0  0  0  0
   -6.8926    0.2410    0.1098 H   0  0  0  0  0  0  0  0  0  0  0  0
   -3.2778   -2.4325    0.8811 H   0  0  0  0  0  0  0  0  0  0  0  0
   -1.2782   -1.3505    1.7818 H   0  0  0  0  0  0  0  0  0  0  0  0
   -0.9329    2.0160    2.5520 H   0  0  0  0  0  0  0  0  0  0  0  0
    6.8520    1.6349    0.5799 H   0  0  0  0  0  0  0  0  0  0  0  0
    9.0664    1.1450   -0.4382 H   0  0  0  0  0  0  0  0  0  0  0  0
    7.4278   -1.4851   -3.1507 H   0  0  0  0  0  0  0  0  0  0  0  0
    5.1325   -1.1266   -2.2683 H   0  0  0  0  0  0  0  0  0  0  0  0
   -2.7682    2.4854    0.4828 H   0  0  0  0  0  0  0  0  0  0  0  0
   -4.7718    1.4032   -0.4151 H   0  0  0  0  0  0  0  0  0  0  0  0
  1  2  1  0
  2  3  1  0
  2  4  1  0
  4  5  2  0
  5  6  1  0
  6  7  2  0
  7  8  1  0
  8  9  2  3
  9 10  1  0
 10 11  1  0
 11 12  2  0
 12 13  1  0
 13 14  1  0
 14 15  2  0
 15 16  1  0
 16 17  2  0
 17 18  1  0
 18 19  2  0
 13 20  2  0
 20 21  1  0
 21 22  1  0
 22 23  2  0
  7 24  1  0
 24 25  2  0
 25  4  1  0
 22  9  1  0
 21 11  1  0
 19 14  1  0
  1 26  1  0
  1 27  1  0
  1 28  1  0
  2 29  1  0
  3 30  1  0
  3 31  1  0
  3 32  1  0
  5 33  1  0
  6 34  1  0
  8 35  1  0
 15 36  1  0
 16 37  1  0
 18 38  1  0
 19 39  1  0
 24 40  1  0
 25 41  1  0
M  END
$$$$
