
     RDKit          3D

 49 52  0  0  0  0  0  0  0  0999 V2000
   -0.0561   -0.3496    4.0488 O   0  0  0  0  0  0  0  0  0  0  0  0
    0.7475   -0.5363    3.1379 C   0  0  0  0  0  0  0  0  0  0  0  0
    2.1743   -1.0121    3.4321 C   0  0  0  0  0  0  0  0  0  0  0  0
    2.7936   -1.6699    2.2785 N   0  0  0  0  0  0  0  0  0  0  0  0
    3.2944   -0.8465    1.2878 N   0  0  0  0  0  0  0  0  0  0  0  0
    3.8326   -1.4048    0.2453 C   0  0  0  0  0  0  0  0  0  0  0  0
    4.3734   -0.5350   -0.8378 C   0  0  0  0  0  0  0  0  0  0  0  0
    4.9407    0.6994   -0.4850 C   0  0  0  0  0  0  0  0  0  0  0  0
    5.4451    1.5482   -1.4724 C   0  0  0  0  0  0  0  0  0  0  0  0
    5.3719    1.1663   -2.8065 C   0  0  0  0  0  0  0  0  0  0  0  0
    5.8548    1.9800   -3.7537 F   0  0  0  0  0  0  0  0  0  0  0  0
    4.7982   -0.0462   -3.1737 C   0  0  0  0  0  0  0  0  0  0  0  0
    4.2928   -0.9002   -2.1897 C   0  0  0  0  0  0  0  0  0  0  0  0
    3.9553   -2.8669    0.0628 C   0  0  0  0  0  0  0  0  0  0  0  0
    3.4248   -3.6409    1.0103 C   0  0  0  0  0  0  0  0  0  0  0  0
    2.7653   -3.0551    2.1937 C   0  0  0  0  0  0  0  0  0  0  0  0
    2.2538   -3.8027    3.0210 O   0  0  0  0  0  0  0  0  0  0  0  0
    0.5495   -0.2201    1.8049 N   0  0  0  0  0  0  0  0  0  0  0  0
   -0.6072    0.2716    1.1804 C   0  0  0  0  0  0  0  0  0  0  0  0
   -0.5246    0.5435   -0.1902 C   0  0  0  0  0  0  0  0  0  0  0  0
   -1.6349    1.0288   -0.8878 C   0  0  0  0  0  0  0  0  0  0  0  0
   -2.8477    1.2402   -0.2236 C   0  0  0  0  0  0  0  0  0  0  0  0
   -4.0032    1.7562   -1.0095 C   0  0  0  0  0  0  0  0  0  0  0  0
   -3.8043    2.4133   -2.0264 O   0  0  0  0  0  0  0  0  0  0  0  0
   -5.2608    1.4221   -0.5416 N   0  0  0  0  0  0  0  0  0  0  0  0
   -6.4509    1.8047   -1.2339 C   0  0  0  0  0  0  0  0  0  0  0  0
   -7.2055    0.8025   -2.0627 C   0  0  0  0  0  0  0  0  0  0  0  0
   -7.7967    1.3088   -0.7796 C   0  0  0  0  0  0  0  0  0  0  0  0
   -2.9287    0.9869    1.1499 C   0  0  0  0  0  0  0  0  0  0  0  0
   -1.8135    0.4995    1.8444 C   0  0  0  0  0  0  0  0  0  0  0  0
    2.7832   -0.1445    3.7077 H   0  0  0  0  0  0  0  0  0  0  0  0
    2.1388   -1.7039    4.2797 H   0  0  0  0  0  0  0  0  0  0  0  0
    4.9977    1.0044    0.5583 H   0  0  0  0  0  0  0  0  0  0  0  0
    5.8903    2.5030   -1.2095 H   0  0  0  0  0  0  0  0  0  0  0  0
    4.7412   -0.3130   -4.2249 H   0  0  0  0  0  0  0  0  0  0  0  0
    3.8207   -1.8279   -2.5008 H   0  0  0  0  0  0  0  0  0  0  0  0
    4.4715   -3.2868   -0.7892 H   0  0  0  0  0  0  0  0  0  0  0  0
    3.4646   -4.7221    0.9689 H   0  0  0  0  0  0  0  0  0  0  0  0
    1.3788   -0.3521    1.2258 H   0  0  0  0  0  0  0  0  0  0  0  0
    0.4042    0.3880   -0.7334 H   0  0  0  0  0  0  0  0  0  0  0  0
   -1.5517    1.2413   -1.9521 H   0  0  0  0  0  0  0  0  0  0  0  0
   -5.3464    0.7513    0.2106 H   0  0  0  0  0  0  0  0  0  0  0  0
   -6.4145    2.8250   -1.6125 H   0  0  0  0  0  0  0  0  0  0  0  0
   -6.8420   -0.2175   -2.0937 H   0  0  0  0  0  0  0  0  0  0  0  0
   -7.6325    1.1487   -2.9970 H   0  0  0  0  0  0  0  0  0  0  0  0
   -8.6333    1.9955   -0.8428 H   0  0  0  0  0  0  0  0  0  0  0  0
   -7.8491    0.6245    0.0583 H   0  0  0  0  0  0  0  0  0  0  0  0
   -3.8372    1.1863    1.7108 H   0  0  0  0  0  0  0  0  0  0  0  0
   -1.9184    0.3144    2.9095 H   0  0  0  0  0  0  0  0  0  0  0  0
  1  2  2  0
  2  3  1  0
  3  4  1  0
  4  5  1  0
  5  6  2  0
  6  7  1  0
  7  8  2  0
  8  9  1  0
  9 10  2  0
 10 11  1  0
 10 12  1  0
 12 13  2  0
  6 14  1  0
 14 15  2  0
 15 16  1  0
 16 17  2  0
  2 18  1  0
 18 19  1  0
 19 20  2  0
 20 21  1  0
 21 22  2  0
 22 23  1  0
 23 24  2  0
 23 25  1  0
 25 26  1  0
 26 27  1  0
 27 28  1  0
 22 29  1  0
 29 30  2  0
 16  4  1  0
 30 19  1  0
 13  7  1  0
 28 26  1  0
  3 31  1  0
  3 32  1  0
  8 33  1  0
  9 34  1  0
 12 35  1  0
 13 36  1  0
 14 37  1  0
 15 38  1  0
 18 39  1  0
 20 40  1  0
 21 41  1  0
 25 42  1  0
 26 43  1  0
 27 44  1  0
 27 45  1  0
 28 46  1  0
 28 47  1  0
 29 48  1  0
 30 49  1  0
M  END
$$$$
