
     RDKit          3D

 36 38  0  0  0  0  0  0  0  0999 V2000
    2.2290    0.9447    3.2574 N   0  0  0  0  0  0  0  0  0  0  0  0
    1.5396    0.5174    2.4268 C   0  0  0  0  0  0  0  0  0  0  0  0
    0.7091   -0.0226    1.3914 C   0  0  0  0  0  0  0  0  0  0  0  0
   -0.2993    0.7525    0.7923 C   0  0  0  0  0  0  0  0  0  0  0  0
   -0.5712    2.1414    1.1889 C   0  0  0  0  0  0  0  0  0  0  0  0
   -1.2932    2.4284    2.3576 C   0  0  0  0  0  0  0  0  0  0  0  0
   -1.5513    3.7498    2.7286 C   0  0  0  0  0  0  0  0  0  0  0  0
   -1.0941    4.7996    1.9351 C   0  0  0  0  0  0  0  0  0  0  0  0
   -0.3795    4.5307    0.7700 C   0  0  0  0  0  0  0  0  0  0  0  0
   -0.1203    3.2099    0.3981 C   0  0  0  0  0  0  0  0  0  0  0  0
   -1.0706    0.1784   -0.2320 C   0  0  0  0  0  0  0  0  0  0  0  0
   -0.8282   -1.1303   -0.6262 C   0  0  0  0  0  0  0  0  0  0  0  0
   -1.5695   -1.8377   -1.6849 C   0  0  0  0  0  0  0  0  0  0  0  0
   -1.5014   -3.1833   -2.0159 C   0  0  0  0  0  0  0  0  0  0  0  0
   -2.3514   -3.5404   -3.1017 C   0  0  0  0  0  0  0  0  0  0  0  0
   -3.0484   -2.4566   -3.5807 C   0  0  0  0  0  0  0  0  0  0  0  0
   -2.6747   -1.0275   -2.7247 S   0  0  0  0  0  0  0  0  0  0  0  0
    0.1362   -1.8794   -0.0441 N   0  0  0  0  0  0  0  0  0  0  0  0
    0.8910   -1.3270    0.9359 C   0  0  0  0  0  0  0  0  0  0  0  0
    2.1385   -2.4390    1.5672 S   0  0  0  0  0  0  0  0  0  0  0  0
    3.5560   -1.8900    0.5695 C   0  0  0  0  0  0  0  0  0  0  0  0
    3.2379   -1.8726   -0.9018 C   0  0  0  0  0  0  0  0  0  0  0  0
    2.9502   -0.8800   -1.5543 O   0  0  0  0  0  0  0  0  0  0  0  0
    3.2806   -3.0887   -1.4793 O   0  0  0  0  0  0  0  0  0  0  0  0
   -1.6613    1.6238    2.9913 H   0  0  0  0  0  0  0  0  0  0  0  0
   -2.1071    3.9595    3.6392 H   0  0  0  0  0  0  0  0  0  0  0  0
   -1.2925    5.8279    2.2266 H   0  0  0  0  0  0  0  0  0  0  0  0
   -0.0202    5.3496    0.1518 H   0  0  0  0  0  0  0  0  0  0  0  0
    0.4432    3.0205   -0.5139 H   0  0  0  0  0  0  0  0  0  0  0  0
   -1.8545    0.7683   -0.6991 H   0  0  0  0  0  0  0  0  0  0  0  0
   -0.8626   -3.8840   -1.4893 H   0  0  0  0  0  0  0  0  0  0  0  0
   -2.4447   -4.5402   -3.5076 H   0  0  0  0  0  0  0  0  0  0  0  0
   -3.7603   -2.4340   -4.3945 H   0  0  0  0  0  0  0  0  0  0  0  0
    3.8641   -0.8845    0.8734 H   0  0  0  0  0  0  0  0  0  0  0  0
    4.4105   -2.5512    0.7448 H   0  0  0  0  0  0  0  0  0  0  0  0
    2.9706   -2.9333   -2.3960 H   0  0  0  0  0  0  0  0  0  0  0  0
  1  2  3  0
  2  3  1  0
  3  4  2  0
  4  5  1  0
  5  6  2  0
  6  7  1  0
  7  8  2  0
  8  9  1  0
  9 10  2  0
  4 11  1  0
 11 12  2  0
 12 13  1  0
 13 14  2  0
 14 15  1  0
 15 16  2  0
 16 17  1  0
 12 18  1  0
 18 19  2  0
 19 20  1  0
 20 21  1  0
 21 22  1  0
 22 23  2  0
 22 24  1  0
 19  3  1  0
 10  5  1  0
 17 13  1  0
  6 25  1  0
  7 26  1  0
  8 27  1  0
  9 28  1  0
 10 29  1  0
 11 30  1  0
 14 31  1  0
 15 32  1  0
 16 33  1  0
 21 34  1  0
 21 35  1  0
 24 36  1  0
M  END
$$$$
