
     RDKit          3D

 34 36  0  0  0  0  0  0  0  0999 V2000
    5.3691    0.1807    1.4812 C   0  0  0  0  0  0  0  0  0  0  0  0
    4.1998    0.0676    0.6303 N   0  0  0  0  0  0  0  0  0  0  0  0
    3.0203    0.8131    1.0342 C   0  0  0  0  0  0  0  0  0  0  0  0
    1.8142    0.4968    0.2187 C   0  0  0  0  0  0  0  0  0  0  0  0
    0.5191    0.8242    0.6281 C   0  0  0  0  0  0  0  0  0  0  0  0
   -0.5574    0.5607   -0.2215 C   0  0  0  0  0  0  0  0  0  0  0  0
   -1.9269    0.9349    0.1985 C   0  0  0  0  0  0  0  0  0  0  0  0
   -2.0702    1.8546    1.0026 O   0  0  0  0  0  0  0  0  0  0  0  0
   -3.1333    0.2709   -0.3482 C   0  0  0  0  0  0  0  0  0  0  0  0
   -4.2157    1.0852   -0.7067 C   0  0  0  0  0  0  0  0  0  0  0  0
   -5.3809    0.5159   -1.2218 C   0  0  0  0  0  0  0  0  0  0  0  0
   -5.4739   -0.8679   -1.3683 C   0  0  0  0  0  0  0  0  0  0  0  0
   -4.4085   -1.6879   -0.9905 C   0  0  0  0  0  0  0  0  0  0  0  0
   -3.2437   -1.1186   -0.4736 C   0  0  0  0  0  0  0  0  0  0  0  0
   -2.2194   -1.9281   -0.0718 O   0  0  0  0  0  0  0  0  0  0  0  0
   -0.2779    0.0168   -1.4686 C   0  0  0  0  0  0  0  0  0  0  0  0
    0.9710   -0.2988   -1.8961 N   0  0  0  0  0  0  0  0  0  0  0  0
    1.9818   -0.0606   -1.0364 C   0  0  0  0  0  0  0  0  0  0  0  0
    3.2561   -0.3916   -1.4530 N   0  0  0  0  0  0  0  0  0  0  0  0
    4.3690   -0.3596   -0.6723 C   0  0  0  0  0  0  0  0  0  0  0  0
    5.4476   -0.7310   -1.1310 O   0  0  0  0  0  0  0  0  0  0  0  0
    6.1477   -0.5271    1.1828 H   0  0  0  0  0  0  0  0  0  0  0  0
    5.7647    1.1977    1.4025 H   0  0  0  0  0  0  0  0  0  0  0  0
    5.0844   -0.0262    2.5167 H   0  0  0  0  0  0  0  0  0  0  0  0
    3.2516    1.8809    0.9436 H   0  0  0  0  0  0  0  0  0  0  0  0
    2.8235    0.5800    2.0870 H   0  0  0  0  0  0  0  0  0  0  0  0
    0.3452    1.2870    1.5973 H   0  0  0  0  0  0  0  0  0  0  0  0
   -4.1520    2.1647   -0.5823 H   0  0  0  0  0  0  0  0  0  0  0  0
   -6.2173    1.1519   -1.5023 H   0  0  0  0  0  0  0  0  0  0  0  0
   -6.3845   -1.3092   -1.7675 H   0  0  0  0  0  0  0  0  0  0  0  0
   -4.5096   -2.7639   -1.0999 H   0  0  0  0  0  0  0  0  0  0  0  0
   -2.4881   -2.8590   -0.1576 H   0  0  0  0  0  0  0  0  0  0  0  0
   -1.0579   -0.1805   -2.1977 H   0  0  0  0  0  0  0  0  0  0  0  0
    3.3524   -0.7734   -2.3814 H   0  0  0  0  0  0  0  0  0  0  0  0
  1  2  1  0
  2  3  1  0
  3  4  1  0
  4  5  2  0
  5  6  1  0
  6  7  1  0
  7  8  2  0
  7  9  1  0
  9 10  2  0
 10 11  1  0
 11 12  2  0
 12 13  1  0
 13 14  2  0
 14 15  1  0
  6 16  2  0
 16 17  1  0
 17 18  2  0
 18 19  1  0
 19 20  1  0
 20 21  2  0
 20  2  1  0
 18  4  1  0
 14  9  1  0
  1 22  1  0
  1 23  1  0
  1 24  1  0
  3 25  1  0
  3 26  1  0
  5 27  1  0
 10 28  1  0
 11 29  1  0
 12 30  1  0
 13 31  1  0
 15 32  1  0
 16 33  1  0
 19 34  1  0
M  END
$$$$
