
     RDKit          3D

 54 56  0  0  0  0  0  0  0  0999 V2000
   -5.7669    0.9152    1.9258 C   0  0  0  0  0  0  0  0  0  0  0  0
   -5.1358   -0.3876    1.4347 C   0  0  0  0  0  0  0  0  0  0  0  0
   -4.7704   -1.2843    2.6174 C   0  0  0  0  0  0  0  0  0  0  0  0
   -3.9418   -0.1434    0.4883 C   0  0  0  0  0  0  0  0  0  0  0  0
   -2.7125    0.5064    1.1442 C   0  0  0  0  0  0  0  0  0  0  0  0
   -1.6696    0.8725    0.1696 N   0  0  0  0  0  0  0  0  0  0  0  0
   -0.7118    1.8136    0.7766 C   0  0  0  0  0  0  0  0  0  0  0  0
    0.6558    1.8471    0.0873 C   0  0  0  0  0  0  0  0  0  0  0  0
    0.5215    1.5268   -1.4012 C   0  0  0  0  0  0  0  0  0  0  0  0
    1.7851    1.6638   -2.1197 N   0  0  0  0  0  0  0  0  0  0  0  0
    1.8763    2.6496   -3.0418 N   0  0  0  0  0  0  0  0  0  0  0  0
    3.1254    2.5575   -3.4917 C   0  0  0  0  0  0  0  0  0  0  0  0
    3.8412    1.5247   -2.8687 C   0  0  0  0  0  0  0  0  0  0  0  0
    2.9597    0.9463   -1.9808 C   0  0  0  0  0  0  0  0  0  0  0  0
    3.1190   -0.1141   -1.1049 N   0  0  0  0  0  0  0  0  0  0  0  0
    4.2807   -0.8650   -1.0156 C   0  0  0  0  0  0  0  0  0  0  0  0
    5.3006   -0.7065   -1.6810 O   0  0  0  0  0  0  0  0  0  0  0  0
    4.2289   -1.9665    0.0412 C   0  0  0  0  0  0  0  0  0  0  0  0
    4.0786   -1.4096    1.4465 C   0  0  0  0  0  0  0  0  0  0  0  0
    2.6169   -1.6296    1.7965 C   0  0  0  0  0  0  0  0  0  0  0  0
    1.9816   -2.1515    0.6192 O   0  0  0  0  0  0  0  0  0  0  0  0
    3.0018   -2.8330   -0.1300 C   0  0  0  0  0  0  0  0  0  0  0  0
   -0.1701    0.1753   -1.6396 C   0  0  0  0  0  0  0  0  0  0  0  0
   -0.9971   -0.2785   -0.4321 C   0  0  0  0  0  0  0  0  0  0  0  0
   -6.0330    1.5624    1.0837 H   0  0  0  0  0  0  0  0  0  0  0  0
   -5.0943    1.4713    2.5859 H   0  0  0  0  0  0  0  0  0  0  0  0
   -6.6839    0.7092    2.4895 H   0  0  0  0  0  0  0  0  0  0  0  0
   -5.8989   -0.9164    0.8481 H   0  0  0  0  0  0  0  0  0  0  0  0
   -4.1022   -0.7758    3.3194 H   0  0  0  0  0  0  0  0  0  0  0  0
   -5.6705   -1.5742    3.1698 H   0  0  0  0  0  0  0  0  0  0  0  0
   -4.2773   -2.2010    2.2776 H   0  0  0  0  0  0  0  0  0  0  0  0
   -3.6618   -1.1117    0.0580 H   0  0  0  0  0  0  0  0  0  0  0  0
   -4.2797    0.4819   -0.3478 H   0  0  0  0  0  0  0  0  0  0  0  0
   -2.2930   -0.1559    1.9118 H   0  0  0  0  0  0  0  0  0  0  0  0
   -3.0428    1.4198    1.6514 H   0  0  0  0  0  0  0  0  0  0  0  0
   -1.1541    2.8169    0.7397 H   0  0  0  0  0  0  0  0  0  0  0  0
   -0.5417    1.5807    1.8362 H   0  0  0  0  0  0  0  0  0  0  0  0
    1.1188    2.8313    0.2334 H   0  0  0  0  0  0  0  0  0  0  0  0
    1.3163    1.1229    0.5779 H   0  0  0  0  0  0  0  0  0  0  0  0
   -0.1379    2.2986   -1.8275 H   0  0  0  0  0  0  0  0  0  0  0  0
    3.4633    3.2464   -4.2555 H   0  0  0  0  0  0  0  0  0  0  0  0
    4.8677    1.2417   -3.0537 H   0  0  0  0  0  0  0  0  0  0  0  0
    2.3253   -0.4173   -0.5500 H   0  0  0  0  0  0  0  0  0  0  0  0
    5.1455   -2.5580   -0.0642 H   0  0  0  0  0  0  0  0  0  0  0  0
    4.3497   -0.3497    1.5212 H   0  0  0  0  0  0  0  0  0  0  0  0
    4.7145   -1.9536    2.1544 H   0  0  0  0  0  0  0  0  0  0  0  0
    2.1108   -0.7068    2.0960 H   0  0  0  0  0  0  0  0  0  0  0  0
    2.5055   -2.3609    2.6040 H   0  0  0  0  0  0  0  0  0  0  0  0
    3.1446   -3.8253    0.3140 H   0  0  0  0  0  0  0  0  0  0  0  0
    2.6732   -2.9516   -1.1668 H   0  0  0  0  0  0  0  0  0  0  0  0
    0.5387   -0.6191   -1.8970 H   0  0  0  0  0  0  0  0  0  0  0  0
   -0.8268    0.2760   -2.5139 H   0  0  0  0  0  0  0  0  0  0  0  0
   -1.7103   -1.0250   -0.7972 H   0  0  0  0  0  0  0  0  0  0  0  0
   -0.3626   -0.7860    0.3051 H   0  0  0  0  0  0  0  0  0  0  0  0
  1  2  1  0
  2  3  1  0
  2  4  1  0
  4  5  1  0
  5  6  1  0
  6  7  1  0
  7  8  1  0
  8  9  1  0
  9 10  1  0
 10 11  1  0
 11 12  2  0
 12 13  1  0
 13 14  2  0
 14 15  1  0
 15 16  1  0
 16 17  2  0
 16 18  1  0
 18 19  1  0
 19 20  1  0
 20 21  1  0
 21 22  1  0
  9 23  1  0
 23 24  1  0
 24  6  1  0
 14 10  1  0
 22 18  1  0
  1 25  1  0
  1 26  1  0
  1 27  1  0
  2 28  1  0
  3 29  1  0
  3 30  1  0
  3 31  1  0
  4 32  1  0
  4 33  1  0
  5 34  1  0
  5 35  1  0
  7 36  1  0
  7 37  1  0
  8 38  1  0
  8 39  1  0
  9 40  1  0
 12 41  1  0
 13 42  1  0
 15 43  1  0
 18 44  1  0
 19 45  1  0
 19 46  1  0
 20 47  1  0
 20 48  1  0
 22 49  1  0
 22 50  1  0
 23 51  1  0
 23 52  1  0
 24 53  1  0
 24 54  1  0
M  END
$$$$
