
     RDKit          3D

 37 39  0  0  0  0  0  0  0  0999 V2000
    2.6607    1.7136    0.6442 O   0  0  0  0  0  0  0  0  0  0  0  0
    2.0621    0.7856    1.1922 C   0  0  0  0  0  0  0  0  0  0  0  0
    2.7021   -0.5967    1.2080 C   0  0  0  0  0  0  0  0  0  0  0  0
    2.2697   -1.3694   -0.0020 C   0  0  0  0  0  0  0  0  0  0  0  0
    2.4757   -1.0581   -1.3327 C   0  0  0  0  0  0  0  0  0  0  0  0
    1.9560   -2.0520   -2.2101 C   0  0  0  0  0  0  0  0  0  0  0  0
    1.3643   -3.0868   -1.5223 C   0  0  0  0  0  0  0  0  0  0  0  0
    1.4393   -2.8582    0.1698 S   0  0  0  0  0  0  0  0  0  0  0  0
    0.8495    0.9334    1.8595 N   0  0  0  0  0  0  0  0  0  0  0  0
    0.2862   -0.0233    2.7704 C   0  0  0  0  0  0  0  0  0  0  0  0
   -0.9124    0.7013    3.3495 C   0  0  0  0  0  0  0  0  0  0  0  0
   -1.1933    1.8129    2.4213 N   0  0  0  0  0  0  0  0  0  0  0  0
   -0.1477    1.8841    1.6553 C   0  0  0  0  0  0  0  0  0  0  0  0
   -0.0290    3.0717    0.4086 S   0  0  0  0  0  0  0  0  0  0  0  0
   -1.5955    2.7788   -0.4534 C   0  0  0  0  0  0  0  0  0  0  0  0
   -1.7357    1.3838   -1.0201 C   0  0  0  0  0  0  0  0  0  0  0  0
   -2.5342    0.4496   -0.3319 C   0  0  0  0  0  0  0  0  0  0  0  0
   -2.6868   -0.8555   -0.8023 C   0  0  0  0  0  0  0  0  0  0  0  0
   -2.0494   -1.2500   -1.9734 C   0  0  0  0  0  0  0  0  0  0  0  0
   -1.2604   -0.3381   -2.6728 C   0  0  0  0  0  0  0  0  0  0  0  0
   -1.0997    0.9691   -2.2008 C   0  0  0  0  0  0  0  0  0  0  0  0
   -0.1095    2.0320   -3.1349 Cl  0  0  0  0  0  0  0  0  0  0  0  0
    2.4988   -1.1287    2.1405 H   0  0  0  0  0  0  0  0  0  0  0  0
    3.7907   -0.4599    1.1791 H   0  0  0  0  0  0  0  0  0  0  0  0
    2.9802   -0.1554   -1.6627 H   0  0  0  0  0  0  0  0  0  0  0  0
    2.0133   -2.0063   -3.2907 H   0  0  0  0  0  0  0  0  0  0  0  0
    0.8914   -3.9686   -1.9321 H   0  0  0  0  0  0  0  0  0  0  0  0
   -0.0251   -0.9092    2.2075 H   0  0  0  0  0  0  0  0  0  0  0  0
    1.0045   -0.3179    3.5409 H   0  0  0  0  0  0  0  0  0  0  0  0
   -1.7777    0.0371    3.4373 H   0  0  0  0  0  0  0  0  0  0  0  0
   -0.6886    1.1103    4.3411 H   0  0  0  0  0  0  0  0  0  0  0  0
   -1.6936    3.5147   -1.2593 H   0  0  0  0  0  0  0  0  0  0  0  0
   -2.4237    2.9968    0.2313 H   0  0  0  0  0  0  0  0  0  0  0  0
   -3.0443    0.7390    0.5864 H   0  0  0  0  0  0  0  0  0  0  0  0
   -3.3061   -1.5616   -0.2543 H   0  0  0  0  0  0  0  0  0  0  0  0
   -2.1654   -2.2650   -2.3437 H   0  0  0  0  0  0  0  0  0  0  0  0
   -0.7664   -0.6532   -3.5884 H   0  0  0  0  0  0  0  0  0  0  0  0
  1  2  2  0
  2  3  1  0
  3  4  1  0
  4  5  2  0
  5  6  1  0
  6  7  2  0
  7  8  1  0
  2  9  1  0
  9 10  1  0
 10 11  1  0
 11 12  1  0
 12 13  2  0
 13 14  1  0
 14 15  1  0
 15 16  1  0
 16 17  2  0
 17 18  1  0
 18 19  2  0
 19 20  1  0
 20 21  2  0
 21 22  1  0
  8  4  1  0
 13  9  1  0
 21 16  1  0
  3 23  1  0
  3 24  1  0
  5 25  1  0
  6 26  1  0
  7 27  1  0
 10 28  1  0
 10 29  1  0
 11 30  1  0
 11 31  1  0
 15 32  1  0
 15 33  1  0
 17 34  1  0
 18 35  1  0
 19 36  1  0
 20 37  1  0
M  END
$$$$
