
     RDKit          3D

 58 61  0  0  0  0  0  0  0  0999 V2000
    1.7967   -0.6967   -2.3530 O   0  0  0  0  0  0  0  0  0  0  0  0
    1.9546    0.0973   -1.4288 C   0  0  0  0  0  0  0  0  0  0  0  0
    3.1991    0.1798   -0.5657 C   0  0  0  0  0  0  0  0  0  0  0  0
    4.2470   -0.8571   -0.9731 C   0  0  0  0  0  0  0  0  0  0  0  0
    5.5525   -0.8446   -0.1549 C   0  0  0  0  0  0  0  0  0  0  0  0
    5.3242   -1.1598    1.3315 C   0  0  0  0  0  0  0  0  0  0  0  0
    6.6447   -1.2065    2.0994 C   0  0  0  0  0  0  0  0  0  0  0  0
    7.4410    0.0841    1.9277 C   0  0  0  0  0  0  0  0  0  0  0  0
    7.6574    0.4220    0.4553 C   0  0  0  0  0  0  0  0  0  0  0  0
    6.3368    0.4673   -0.3127 C   0  0  0  0  0  0  0  0  0  0  0  0
    0.9924    1.0283   -1.0749 N   0  0  0  0  0  0  0  0  0  0  0  0
   -0.2988    0.8304   -1.6283 N   0  0  0  0  0  0  0  0  0  0  0  0
   -1.3297    0.7419   -0.7091 C   0  0  0  0  0  0  0  0  0  0  0  0
   -1.1759    0.9929    0.4806 O   0  0  0  0  0  0  0  0  0  0  0  0
   -2.5034    0.3567   -1.3070 N   0  0  0  0  0  0  0  0  0  0  0  0
   -3.7866    0.2472   -0.6045 C   0  0  0  0  0  0  0  0  0  0  0  0
   -4.2562    1.6171   -0.0562 C   0  0  0  0  0  0  0  0  0  0  0  0
   -5.6305    1.4850    0.6238 C   0  0  0  0  0  0  0  0  0  0  0  0
   -6.6586    0.9815   -0.4019 C   0  0  0  0  0  0  0  0  0  0  0  0
   -6.2290   -0.3899   -0.9469 C   0  0  0  0  0  0  0  0  0  0  0  0
   -6.1311   -1.3914    0.2140 C   0  0  0  0  0  0  0  0  0  0  0  0
   -5.0995   -0.9021    1.2421 C   0  0  0  0  0  0  0  0  0  0  0  0
   -5.5300    0.4738    1.7787 C   0  0  0  0  0  0  0  0  0  0  0  0
   -3.7249   -0.7723    0.5621 C   0  0  0  0  0  0  0  0  0  0  0  0
   -4.8515   -0.2577   -1.6157 C   0  0  0  0  0  0  0  0  0  0  0  0
    3.6023    1.1931   -0.6622 H   0  0  0  0  0  0  0  0  0  0  0  0
    2.8918    0.0246    0.4736 H   0  0  0  0  0  0  0  0  0  0  0  0
    3.8021   -1.8587   -0.9043 H   0  0  0  0  0  0  0  0  0  0  0  0
    4.4975   -0.7145   -2.0328 H   0  0  0  0  0  0  0  0  0  0  0  0
    6.1786   -1.6497   -0.5665 H   0  0  0  0  0  0  0  0  0  0  0  0
    4.6806   -0.3998    1.7902 H   0  0  0  0  0  0  0  0  0  0  0  0
    4.8102   -2.1225    1.4362 H   0  0  0  0  0  0  0  0  0  0  0  0
    6.4463   -1.3781    3.1634 H   0  0  0  0  0  0  0  0  0  0  0  0
    7.2430   -2.0551    1.7454 H   0  0  0  0  0  0  0  0  0  0  0  0
    8.4099   -0.0105    2.4307 H   0  0  0  0  0  0  0  0  0  0  0  0
    6.9069    0.9087    2.4156 H   0  0  0  0  0  0  0  0  0  0  0  0
    8.1664    1.3890    0.3701 H   0  0  0  0  0  0  0  0  0  0  0  0
    8.3179   -0.3275    0.0017 H   0  0  0  0  0  0  0  0  0  0  0  0
    5.7463    1.3141    0.0567 H   0  0  0  0  0  0  0  0  0  0  0  0
    6.5417    0.6564   -1.3730 H   0  0  0  0  0  0  0  0  0  0  0  0
    0.9776    1.3831   -0.1172 H   0  0  0  0  0  0  0  0  0  0  0  0
   -0.3069    0.1230   -2.3632 H   0  0  0  0  0  0  0  0  0  0  0  0
   -2.5524    0.6083   -2.2847 H   0  0  0  0  0  0  0  0  0  0  0  0
   -4.3121    2.3507   -0.8712 H   0  0  0  0  0  0  0  0  0  0  0  0
   -3.5348    2.0164    0.6667 H   0  0  0  0  0  0  0  0  0  0  0  0
   -5.9443    2.4602    1.0127 H   0  0  0  0  0  0  0  0  0  0  0  0
   -6.7497    1.7005   -1.2253 H   0  0  0  0  0  0  0  0  0  0  0  0
   -7.6480    0.9058    0.0657 H   0  0  0  0  0  0  0  0  0  0  0  0
   -6.9637   -0.7434   -1.6789 H   0  0  0  0  0  0  0  0  0  0  0  0
   -7.1112   -1.5080    0.6925 H   0  0  0  0  0  0  0  0  0  0  0  0
   -5.8426   -2.3793   -0.1658 H   0  0  0  0  0  0  0  0  0  0  0  0
   -5.0354   -1.6178    2.0695 H   0  0  0  0  0  0  0  0  0  0  0  0
   -4.8081    0.8279    2.5249 H   0  0  0  0  0  0  0  0  0  0  0  0
   -6.4982    0.3901    2.2875 H   0  0  0  0  0  0  0  0  0  0  0  0
   -3.3975   -1.7520    0.1897 H   0  0  0  0  0  0  0  0  0  0  0  0
   -2.9876   -0.4684    1.3140 H   0  0  0  0  0  0  0  0  0  0  0  0
   -4.9212    0.4329   -2.4670 H   0  0  0  0  0  0  0  0  0  0  0  0
   -4.5464   -1.2267   -2.0329 H   0  0  0  0  0  0  0  0  0  0  0  0
  1  2  2  0
  2  3  1  0
  3  4  1  0
  4  5  1  0
  5  6  1  0
  6  7  1  0
  7  8  1  0
  8  9  1  0
  9 10  1  0
  2 11  1  0
 11 12  1  0
 12 13  1  0
 13 14  2  0
 13 15  1  0
 15 16  1  0
 16 17  1  0
 17 18  1  0
 18 19  1  0
 19 20  1  0
 20 21  1  0
 21 22  1  0
 22 23  1  0
 22 24  1  0
 20 25  1  0
 10  5  1  0
 24 16  1  0
 25 16  1  0
 23 18  1  0
  3 26  1  0
  3 27  1  0
  4 28  1  0
  4 29  1  0
  5 30  1  0
  6 31  1  0
  6 32  1  0
  7 33  1  0
  7 34  1  0
  8 35  1  0
  8 36  1  0
  9 37  1  0
  9 38  1  0
 10 39  1  0
 10 40  1  0
 11 41  1  0
 12 42  1  0
 15 43  1  0
 17 44  1  0
 17 45  1  0
 18 46  1  0
 19 47  1  0
 19 48  1  0
 20 49  1  0
 21 50  1  0
 21 51  1  0
 22 52  1  0
 23 53  1  0
 23 54  1  0
 24 55  1  0
 24 56  1  0
 25 57  1  0
 25 58  1  0
M  END
$$$$
