
     RDKit          3D

 45 47  0  0  0  0  0  0  0  0999 V2000
    6.5387    1.6645   -0.7638 C   0  0  0  0  0  0  0  0  0  0  0  0
    6.0006    0.3570   -0.6282 O   0  0  0  0  0  0  0  0  0  0  0  0
    4.6754    0.2484   -0.2873 C   0  0  0  0  0  0  0  0  0  0  0  0
    3.8135    1.3329   -0.1075 C   0  0  0  0  0  0  0  0  0  0  0  0
    2.4737    1.1266    0.2392 C   0  0  0  0  0  0  0  0  0  0  0  0
    1.9784   -0.1635    0.4169 C   0  0  0  0  0  0  0  0  0  0  0  0
    0.6355   -0.4421    0.7457 N   0  0  0  0  0  0  0  0  0  0  0  0
   -0.3135    0.4440    1.2057 C   0  0  0  0  0  0  0  0  0  0  0  0
   -0.0808    1.5928    1.5701 O   0  0  0  0  0  0  0  0  0  0  0  0
   -1.6039   -0.0975    1.2583 N   0  0  0  0  0  0  0  0  0  0  0  0
   -2.6606    0.7367    1.8272 C   0  0  0  0  0  0  0  0  0  0  0  0
   -3.3867    1.5020    0.7267 C   0  0  0  0  0  0  0  0  0  0  0  0
   -3.9132    0.5381   -0.3411 C   0  0  0  0  0  0  0  0  0  0  0  0
   -2.8064   -0.3872   -0.8574 C   0  0  0  0  0  0  0  0  0  0  0  0
   -2.0986   -1.0885    0.2991 C   0  0  0  0  0  0  0  0  0  0  0  0
   -4.4379    1.3067   -1.4386 O   0  0  0  0  0  0  0  0  0  0  0  0
   -5.7239    0.7486   -1.7017 C   0  0  0  0  0  0  0  0  0  0  0  0
   -6.1691    0.2559   -0.3536 C   0  0  0  0  0  0  0  0  0  0  0  0
   -4.9697   -0.2707    0.2139 O   0  0  0  0  0  0  0  0  0  0  0  0
    2.8374   -1.2544    0.2259 C   0  0  0  0  0  0  0  0  0  0  0  0
    4.1819   -1.0597   -0.1197 C   0  0  0  0  0  0  0  0  0  0  0  0
    5.0865   -2.0739   -0.3212 O   0  0  0  0  0  0  0  0  0  0  0  0
    4.6526   -3.4056   -0.0906 C   0  0  0  0  0  0  0  0  0  0  0  0
    6.0545    2.2076   -1.5820 H   0  0  0  0  0  0  0  0  0  0  0  0
    6.4704    2.2206    0.1771 H   0  0  0  0  0  0  0  0  0  0  0  0
    7.5994    1.5651   -1.0139 H   0  0  0  0  0  0  0  0  0  0  0  0
    4.1465    2.3577   -0.2317 H   0  0  0  0  0  0  0  0  0  0  0  0
    1.8373    1.9993    0.3550 H   0  0  0  0  0  0  0  0  0  0  0  0
    0.4036   -1.4119    0.8926 H   0  0  0  0  0  0  0  0  0  0  0  0
   -2.2476    1.4347    2.5633 H   0  0  0  0  0  0  0  0  0  0  0  0
   -3.3520    0.0773    2.3652 H   0  0  0  0  0  0  0  0  0  0  0  0
   -2.7110    2.2321    0.2633 H   0  0  0  0  0  0  0  0  0  0  0  0
   -4.2130    2.0735    1.1658 H   0  0  0  0  0  0  0  0  0  0  0  0
   -2.0836    0.1949   -1.4434 H   0  0  0  0  0  0  0  0  0  0  0  0
   -3.2265   -1.1405   -1.5347 H   0  0  0  0  0  0  0  0  0  0  0  0
   -2.7852   -1.7557    0.8331 H   0  0  0  0  0  0  0  0  0  0  0  0
   -1.2930   -1.7076   -0.1023 H   0  0  0  0  0  0  0  0  0  0  0  0
   -6.3914    1.4987   -2.1326 H   0  0  0  0  0  0  0  0  0  0  0  0
   -5.5984   -0.0762   -2.4114 H   0  0  0  0  0  0  0  0  0  0  0  0
   -6.9429   -0.5138   -0.4058 H   0  0  0  0  0  0  0  0  0  0  0  0
   -6.5160    1.0770    0.2830 H   0  0  0  0  0  0  0  0  0  0  0  0
    2.4425   -2.2558    0.3514 H   0  0  0  0  0  0  0  0  0  0  0  0
    3.8646   -3.6907   -0.7952 H   0  0  0  0  0  0  0  0  0  0  0  0
    5.5054   -4.0698   -0.2606 H   0  0  0  0  0  0  0  0  0  0  0  0
    4.3265   -3.5427    0.9457 H   0  0  0  0  0  0  0  0  0  0  0  0
  1  2  1  0
  2  3  1  0
  3  4  2  0
  4  5  1  0
  5  6  2  0
  6  7  1  0
  7  8  1  0
  8  9  2  0
  8 10  1  0
 10 11  1  0
 11 12  1  0
 12 13  1  0
 13 14  1  0
 14 15  1  0
 13 16  1  0
 16 17  1  0
 17 18  1  0
 18 19  1  0
  6 20  1  0
 20 21  2  0
 21 22  1  0
 22 23  1  0
 21  3  1  0
 15 10  1  0
 19 13  1  0
  1 24  1  0
  1 25  1  0
  1 26  1  0
  4 27  1  0
  5 28  1  0
  7 29  1  0
 11 30  1  0
 11 31  1  0
 12 32  1  0
 12 33  1  0
 14 34  1  0
 14 35  1  0
 15 36  1  0
 15 37  1  0
 17 38  1  0
 17 39  1  0
 18 40  1  0
 18 41  1  0
 20 42  1  0
 23 43  1  0
 23 44  1  0
 23 45  1  0
M  END
$$$$
