
     RDKit          3D

 36 38  0  0  0  0  0  0  0  0999 V2000
   -0.6638    0.2378   -3.0248 C   0  0  0  0  0  0  0  0  0  0  0  0
   -1.0839    1.3249   -2.0446 C   0  0  0  0  0  0  0  0  0  0  0  0
   -1.5223    0.7614   -0.7628 N   0  0  0  0  0  0  0  0  0  0  0  0
   -0.6567    0.4722    0.2786 C   0  0  0  0  0  0  0  0  0  0  0  0
    0.7690    0.8457    0.1083 C   0  0  0  0  0  0  0  0  0  0  0  0
    1.6927   -0.1170    0.2311 C   0  0  0  0  0  0  0  0  0  0  0  0
    3.0866    0.1320    0.1041 C   0  0  0  0  0  0  0  0  0  0  0  0
    3.8036    1.3166   -0.0720 C   0  0  0  0  0  0  0  0  0  0  0  0
    5.1845    0.9994   -0.1354 C   0  0  0  0  0  0  0  0  0  0  0  0
    5.2404   -0.3619    0.0050 C   0  0  0  0  0  0  0  0  0  0  0  0
    6.3408   -1.2721    0.0240 N   0  0  0  0  0  4  0  0  0  0  0  0
    7.4664   -0.7703   -0.1035 O   0  0  0  0  0  0  0  0  0  0  0  0
    6.0963   -2.4772    0.1610 O   0  0  0  0  0  1  0  0  0  0  0  0
    4.0049   -0.8996    0.1485 O   0  0  0  0  0  0  0  0  0  0  0  0
   -1.0199   -0.0896    1.3893 N   0  0  0  0  0  0  0  0  0  0  0  0
   -2.3636   -0.4322    1.5617 C   0  0  0  0  0  0  0  0  0  0  0  0
   -2.7614   -1.0226    2.7637 C   0  0  0  0  0  0  0  0  0  0  0  0
   -4.0957   -1.3821    2.9737 C   0  0  0  0  0  0  0  0  0  0  0  0
   -5.0455   -1.1534    1.9786 C   0  0  0  0  0  0  0  0  0  0  0  0
   -4.6596   -0.5652    0.7749 C   0  0  0  0  0  0  0  0  0  0  0  0
   -3.3200   -0.2081    0.5773 C   0  0  0  0  0  0  0  0  0  0  0  0
   -2.8724    0.4105   -0.6809 C   0  0  0  0  0  0  0  0  0  0  0  0
   -3.6839    0.5782   -1.5891 O   0  0  0  0  0  0  0  0  0  0  0  0
   -1.4915   -0.4486   -3.2310 H   0  0  0  0  0  0  0  0  0  0  0  0
   -0.3468    0.6841   -3.9725 H   0  0  0  0  0  0  0  0  0  0  0  0
    0.1683   -0.3541   -2.6314 H   0  0  0  0  0  0  0  0  0  0  0  0
   -0.2562    2.0228   -1.8920 H   0  0  0  0  0  0  0  0  0  0  0  0
   -1.8998    1.9099   -2.4851 H   0  0  0  0  0  0  0  0  0  0  0  0
    0.9935    1.8869   -0.0754 H   0  0  0  0  0  0  0  0  0  0  0  0
    1.3928   -1.1432    0.4350 H   0  0  0  0  0  0  0  0  0  0  0  0
    3.3759    2.3080   -0.1413 H   0  0  0  0  0  0  0  0  0  0  0  0
    6.0212    1.6725   -0.2632 H   0  0  0  0  0  0  0  0  0  0  0  0
   -2.0226   -1.2034    3.5406 H   0  0  0  0  0  0  0  0  0  0  0  0
   -4.3909   -1.8415    3.9140 H   0  0  0  0  0  0  0  0  0  0  0  0
   -6.0836   -1.4338    2.1399 H   0  0  0  0  0  0  0  0  0  0  0  0
   -5.3968   -0.3868   -0.0046 H   0  0  0  0  0  0  0  0  0  0  0  0
  1  2  1  0
  2  3  1  0
  3  4  1  0
  4  5  1  0
  5  6  2  3
  6  7  1  0
  7  8  2  0
  8  9  1  0
  9 10  2  0
 10 11  1  0
 11 12  2  0
 11 13  1  0
 10 14  1  0
  4 15  2  0
 15 16  1  0
 16 17  2  0
 17 18  1  0
 18 19  2  0
 19 20  1  0
 20 21  2  0
 21 22  1  0
 22 23  2  0
 22  3  1  0
 14  7  1  0
 21 16  1  0
  1 24  1  0
  1 25  1  0
  1 26  1  0
  2 27  1  0
  2 28  1  0
  5 29  1  0
  6 30  1  0
  8 31  1  0
  9 32  1  0
 17 33  1  0
 18 34  1  0
 19 35  1  0
 20 36  1  0
M  CHG  2  11   1  13  -1
M  END
$$$$
