
     RDKit          3D

 71 76  0  0  0  0  0  0  0  0999 V2000
   11.6045   -0.0616   -1.1882 C   0  0  0  0  0  0  0  0  0  0  0  0
   10.8023   -0.5698   -0.1295 O   0  0  0  0  0  0  0  0  0  0  0  0
    9.4500   -0.4235   -0.2572 C   0  0  0  0  0  0  0  0  0  0  0  0
    8.7847    0.2136   -1.2975 C   0  0  0  0  0  0  0  0  0  0  0  0
    7.3821    0.2897   -1.2984 C   0  0  0  0  0  0  0  0  0  0  0  0
    6.5985   -0.2644   -0.2734 C   0  0  0  0  0  0  0  0  0  0  0  0
    5.2149   -0.1888   -0.2855 N   0  0  0  0  0  0  0  0  0  0  0  0
    4.3893   -1.1322    0.4893 C   0  0  0  0  0  0  0  0  0  0  0  0
    3.0084   -1.3439   -0.1578 C   0  0  0  0  0  0  0  0  0  0  0  0
    2.2739   -0.0980   -0.4084 N   0  0  0  0  0  0  0  0  0  0  0  0
    0.9031   -0.1866   -0.6185 C   0  0  0  0  0  0  0  0  0  0  0  0
    0.3417   -1.2842   -0.6136 O   0  0  0  0  0  0  0  0  0  0  0  0
    0.1066    1.1086   -0.8171 C   0  0  0  0  0  0  0  0  0  0  0  0
    0.0160    1.9130    0.4786 C   0  0  0  0  0  0  0  0  0  0  0  0
   -0.8479    1.2104    1.5237 C   0  0  0  0  0  0  0  0  0  0  0  0
   -2.0809    0.5019    0.9508 C   0  0  0  0  0  0  0  0  0  0  0  0
   -2.3751    0.9824   -0.3969 N   0  0  0  0  0  0  0  0  0  0  0  0
   -3.6394    0.6574   -0.9351 C   0  0  0  0  0  0  0  0  0  0  0  0
   -3.8696    0.9726   -2.2512 N   0  0  0  0  0  0  0  0  0  0  0  0
   -5.0676    0.7116   -2.8106 C   0  0  0  0  0  0  0  0  0  0  0  0
   -6.1444    0.1491   -2.2419 N   0  0  0  0  0  0  0  0  0  0  0  0
   -5.9000   -0.1537   -0.9575 C   0  0  0  0  0  0  0  0  0  0  0  0
   -4.7280    0.0559   -0.2431 C   0  0  0  0  0  0  0  0  0  0  0  0
   -4.8877   -0.4040    1.0550 N   0  0  0  0  0  0  0  0  0  0  0  0
   -6.1189   -0.8702    1.1302 C   0  0  0  0  0  0  0  0  0  0  0  0
   -6.7652   -0.7385   -0.0743 N   0  0  0  0  0  0  0  0  0  0  0  0
   -8.1239   -1.1455   -0.3571 C   0  0  0  0  0  0  0  0  0  0  0  0
   -9.1567   -0.4229    0.5049 C   0  0  0  0  0  0  0  0  0  0  0  0
   -9.2342   -0.9409    1.9430 C   0  0  0  0  0  0  0  0  0  0  0  0
   -7.9884   -0.6788    2.7928 C   0  0  0  0  0  0  0  0  0  0  0  0
   -6.7559   -1.4603    2.3410 C   0  0  0  0  0  0  0  0  0  0  0  0
   -1.2978    0.8395   -1.3947 C   0  0  0  0  0  0  0  0  0  0  0  0
    3.1019    1.1091   -0.5354 C   0  0  0  0  0  0  0  0  0  0  0  0
    4.5082    0.8145   -1.0962 C   0  0  0  0  0  0  0  0  0  0  0  0
    7.2984   -0.8973    0.7643 C   0  0  0  0  0  0  0  0  0  0  0  0
    8.6980   -0.9756    0.7751 C   0  0  0  0  0  0  0  0  0  0  0  0
   11.3747   -0.5634   -2.1342 H   0  0  0  0  0  0  0  0  0  0  0  0
   11.4961    1.0244   -1.2800 H   0  0  0  0  0  0  0  0  0  0  0  0
   12.6508   -0.2713   -0.9457 H   0  0  0  0  0  0  0  0  0  0  0  0
    9.3171    0.6611   -2.1297 H   0  0  0  0  0  0  0  0  0  0  0  0
    6.9127    0.7782   -2.1478 H   0  0  0  0  0  0  0  0  0  0  0  0
    4.8712   -2.1148    0.5589 H   0  0  0  0  0  0  0  0  0  0  0  0
    4.2635   -0.7392    1.5057 H   0  0  0  0  0  0  0  0  0  0  0  0
    3.1273   -1.8378   -1.1306 H   0  0  0  0  0  0  0  0  0  0  0  0
    2.4050   -2.0050    0.4752 H   0  0  0  0  0  0  0  0  0  0  0  0
    0.6357    1.6906   -1.5796 H   0  0  0  0  0  0  0  0  0  0  0  0
   -0.4251    2.8935    0.2538 H   0  0  0  0  0  0  0  0  0  0  0  0
    1.0001    2.1164    0.9103 H   0  0  0  0  0  0  0  0  0  0  0  0
   -0.2471    0.4774    2.0763 H   0  0  0  0  0  0  0  0  0  0  0  0
   -1.1634    1.9538    2.2667 H   0  0  0  0  0  0  0  0  0  0  0  0
   -2.8977    0.7187    1.6463 H   0  0  0  0  0  0  0  0  0  0  0  0
   -1.9227   -0.5838    0.9422 H   0  0  0  0  0  0  0  0  0  0  0  0
   -5.1717    0.9945   -3.8541 H   0  0  0  0  0  0  0  0  0  0  0  0
   -8.3293   -0.9346   -1.4126 H   0  0  0  0  0  0  0  0  0  0  0  0
   -8.1768   -2.2326   -0.2266 H   0  0  0  0  0  0  0  0  0  0  0  0
   -8.9662    0.6575    0.5084 H   0  0  0  0  0  0  0  0  0  0  0  0
  -10.1430   -0.5685    0.0465 H   0  0  0  0  0  0  0  0  0  0  0  0
   -9.4578   -2.0151    1.9366 H   0  0  0  0  0  0  0  0  0  0  0  0
  -10.0866   -0.4524    2.4319 H   0  0  0  0  0  0  0  0  0  0  0  0
   -7.7766    0.3972    2.8205 H   0  0  0  0  0  0  0  0  0  0  0  0
   -8.2219   -0.9801    3.8217 H   0  0  0  0  0  0  0  0  0  0  0  0
   -6.0197   -1.4505    3.1548 H   0  0  0  0  0  0  0  0  0  0  0  0
   -7.0066   -2.5122    2.1593 H   0  0  0  0  0  0  0  0  0  0  0  0
   -1.3489   -0.1400   -1.8873 H   0  0  0  0  0  0  0  0  0  0  0  0
   -1.4586    1.5930   -2.1784 H   0  0  0  0  0  0  0  0  0  0  0  0
    2.6163    1.8559   -1.1648 H   0  0  0  0  0  0  0  0  0  0  0  0
    3.1961    1.5291    0.4728 H   0  0  0  0  0  0  0  0  0  0  0  0
    5.0605    1.7618   -1.1112 H   0  0  0  0  0  0  0  0  0  0  0  0
    4.4223    0.4482   -2.1264 H   0  0  0  0  0  0  0  0  0  0  0  0
    6.7691   -1.3283    1.6093 H   0  0  0  0  0  0  0  0  0  0  0  0
    9.2001   -1.4714    1.6019 H   0  0  0  0  0  0  0  0  0  0  0  0
  1  2  1  0
  2  3  1  0
  3  4  2  0
  4  5  1  0
  5  6  2  0
  6  7  1  0
  7  8  1  0
  8  9  1  0
  9 10  1  0
 10 11  1  0
 11 12  2  0
 11 13  1  0
 13 14  1  0
 14 15  1  0
 15 16  1  0
 16 17  1  0
 17 18  1  0
 18 19  2  0
 19 20  1  0
 20 21  2  0
 21 22  1  0
 22 23  2  0
 23 24  1  0
 24 25  2  0
 25 26  1  0
 26 27  1  0
 27 28  1  0
 28 29  1  0
 29 30  1  0
 30 31  1  0
 17 32  1  0
 10 33  1  0
 33 34  1  0
  6 35  1  0
 35 36  2  0
 36  3  1  0
 34  7  1  0
 32 13  1  0
 23 18  1  0
 31 25  1  0
 26 22  1  0
  1 37  1  0
  1 38  1  0
  1 39  1  0
  4 40  1  0
  5 41  1  0
  8 42  1  0
  8 43  1  0
  9 44  1  0
  9 45  1  0
 13 46  1  0
 14 47  1  0
 14 48  1  0
 15 49  1  0
 15 50  1  0
 16 51  1  0
 16 52  1  0
 20 53  1  0
 27 54  1  0
 27 55  1  0
 28 56  1  0
 28 57  1  0
 29 58  1  0
 29 59  1  0
 30 60  1  0
 30 61  1  0
 31 62  1  0
 31 63  1  0
 32 64  1  0
 32 65  1  0
 33 66  1  0
 33 67  1  0
 34 68  1  0
 34 69  1  0
 35 70  1  0
 36 71  1  0
M  END
$$$$
