
     RDKit          3D

 40 43  0  0  0  0  0  0  0  0999 V2000
    7.7716    0.7331    0.9399 C   0  0  0  0  0  0  0  0  0  0  0  0
    6.5665    1.3724    1.3419 O   0  0  0  0  0  0  0  0  0  0  0  0
    5.3974    0.8086    0.9122 C   0  0  0  0  0  0  0  0  0  0  0  0
    5.2766   -0.3342    0.1252 C   0  0  0  0  0  0  0  0  0  0  0  0
    4.0084   -0.8035   -0.2432 C   0  0  0  0  0  0  0  0  0  0  0  0
    2.8396   -0.1432    0.1660 C   0  0  0  0  0  0  0  0  0  0  0  0
    1.5193   -0.6519   -0.2296 C   0  0  0  0  0  0  0  0  0  0  0  0
    0.2357   -0.1362    0.1086 C   0  0  0  0  0  0  0  0  0  0  0  0
   -0.6899   -0.9592   -0.4974 C   0  0  0  0  0  0  0  0  0  0  0  0
   -2.0878   -0.9457   -0.5160 N   0  0  0  0  0  0  0  0  0  0  0  0
   -2.7704   -1.8235   -1.3703 C   0  0  0  0  0  0  0  0  0  0  0  0
   -2.2364   -2.7509   -1.9896 O   0  0  0  0  0  0  0  0  0  0  0  0
   -4.1103   -1.6228   -1.5483 N   0  0  0  0  0  0  0  0  0  0  0  0
   -4.8151   -0.5881   -0.9463 C   0  0  0  0  0  0  0  0  0  0  0  0
   -6.1753   -0.4236   -1.2154 C   0  0  0  0  0  0  0  0  0  0  0  0
   -6.8848    0.5921   -0.5761 C   0  0  0  0  0  0  0  0  0  0  0  0
   -6.2357    1.4300    0.3288 C   0  0  0  0  0  0  0  0  0  0  0  0
   -4.8745    1.2536    0.5914 C   0  0  0  0  0  0  0  0  0  0  0  0
   -4.1434    0.2434   -0.0508 C   0  0  0  0  0  0  0  0  0  0  0  0
   -2.7641    0.0628    0.2216 N   0  0  0  0  0  0  0  0  0  0  0  0
   -2.3521    0.2751    1.5425 O   0  0  0  0  0  0  0  0  0  0  0  0
    0.0645   -1.8849   -1.1679 N   0  0  0  0  0  0  0  0  0  0  0  0
    1.3885   -1.7390   -1.0088 N   0  0  0  0  0  0  0  0  0  0  0  0
    2.9741    1.0052    0.9567 C   0  0  0  0  0  0  0  0  0  0  0  0
    4.2414    1.4732    1.3243 C   0  0  0  0  0  0  0  0  0  0  0  0
    7.8774    0.7390   -0.1500 H   0  0  0  0  0  0  0  0  0  0  0  0
    7.8302   -0.2852    1.3382 H   0  0  0  0  0  0  0  0  0  0  0  0
    8.6073    1.3024    1.3581 H   0  0  0  0  0  0  0  0  0  0  0  0
    6.1419   -0.8880   -0.2223 H   0  0  0  0  0  0  0  0  0  0  0  0
    3.9399   -1.6988   -0.8594 H   0  0  0  0  0  0  0  0  0  0  0  0
    0.0156    0.7323    0.7114 H   0  0  0  0  0  0  0  0  0  0  0  0
   -4.5679   -2.2516   -2.1932 H   0  0  0  0  0  0  0  0  0  0  0  0
   -6.6911   -1.0777   -1.9125 H   0  0  0  0  0  0  0  0  0  0  0  0
   -7.9440    0.7292   -0.7802 H   0  0  0  0  0  0  0  0  0  0  0  0
   -6.7858    2.2227    0.8300 H   0  0  0  0  0  0  0  0  0  0  0  0
   -4.3760    1.9175    1.2944 H   0  0  0  0  0  0  0  0  0  0  0  0
   -2.3368   -0.6329    1.8935 H   0  0  0  0  0  0  0  0  0  0  0  0
   -0.2862   -2.6455   -1.7459 H   0  0  0  0  0  0  0  0  0  0  0  0
    2.1053    1.5586    1.3005 H   0  0  0  0  0  0  0  0  0  0  0  0
    4.3262    2.3669    1.9381 H   0  0  0  0  0  0  0  0  0  0  0  0
  1  2  1  0
  2  3  1  0
  3  4  2  0
  4  5  1  0
  5  6  2  0
  6  7  1  0
  7  8  1  0
  8  9  2  0
  9 10  1  0
 10 11  1  0
 11 12  2  0
 11 13  1  0
 13 14  1  0
 14 15  2  0
 15 16  1  0
 16 17  2  0
 17 18  1  0
 18 19  2  0
 19 20  1  0
 20 21  1  0
  9 22  1  0
 22 23  1  0
  6 24  1  0
 24 25  2  0
 25  3  1  0
 23  7  2  0
 20 10  1  0
 19 14  1  0
  1 26  1  0
  1 27  1  0
  1 28  1  0
  4 29  1  0
  5 30  1  0
  8 31  1  0
 13 32  1  0
 15 33  1  0
 16 34  1  0
 17 35  1  0
 18 36  1  0
 21 37  1  0
 22 38  1  0
 24 39  1  0
 25 40  1  0
M  END
$$$$
