
     RDKit          3D

 58 62  0  0  0  0  0  0  0  0999 V2000
   -6.4680   -1.6102    0.8850 C   0  0  0  0  0  0  0  0  0  0  0  0
   -5.7905   -1.3109   -0.4527 C   0  0  0  0  0  0  0  0  0  0  0  0
   -6.1353    0.0969   -0.9850 C   0  0  0  0  0  0  0  0  0  0  0  0
   -4.9460    0.8938   -0.5659 C   0  0  0  0  0  0  0  0  0  0  0  0
   -4.8011    2.2729   -0.5859 C   0  0  0  0  0  0  0  0  0  0  0  0
   -3.5798    2.8129   -0.1784 C   0  0  0  0  0  0  0  0  0  0  0  0
   -2.5314    1.9757    0.2388 C   0  0  0  0  0  0  0  0  0  0  0  0
   -2.6893    0.5866    0.2474 C   0  0  0  0  0  0  0  0  0  0  0  0
   -3.8973    0.0608   -0.1753 C   0  0  0  0  0  0  0  0  0  0  0  0
   -4.2878   -1.3232   -0.2269 N   0  0  0  0  0  0  0  0  0  0  0  0
   -3.4735   -2.2999   -1.3854 S   0  0  0  0  0  6  0  0  0  0  0  0
   -3.4403   -1.5820   -2.6438 O   0  0  0  0  0  0  0  0  0  0  0  0
   -4.0386   -3.6329   -1.3114 O   0  0  0  0  0  0  0  0  0  0  0  0
   -1.8202   -2.4266   -0.7569 C   0  0  0  0  0  0  0  0  0  0  0  0
   -1.6175   -3.0426    0.4869 C   0  0  0  0  0  0  0  0  0  0  0  0
   -0.3250   -3.1553    1.0009 C   0  0  0  0  0  0  0  0  0  0  0  0
    0.7561   -2.6551    0.2740 C   0  0  0  0  0  0  0  0  0  0  0  0
    0.5405   -2.0343   -0.9664 C   0  0  0  0  0  0  0  0  0  0  0  0
    1.6867   -1.5262   -1.7530 C   0  0  0  0  0  0  0  0  0  0  0  0
    1.8277   -1.9492   -2.8997 O   0  0  0  0  0  0  0  0  0  0  0  0
    2.5604   -0.6238   -1.1447 N   0  0  0  0  0  0  0  0  0  0  0  0
    3.6914   -0.1550   -1.9556 C   0  0  0  0  0  0  0  0  0  0  0  0
    4.8539    0.3778   -1.1012 C   0  0  0  0  0  0  0  0  0  0  0  0
    4.3745    1.3524   -0.1013 N   0  0  0  0  0  0  0  0  0  0  0  0
    5.4007    1.9567    0.6307 C   0  0  0  0  0  0  0  0  0  0  0  0
    5.1104    2.5055    1.8274 N   0  0  0  0  0  0  0  0  0  0  0  0
    6.1042    3.1217    2.4953 C   0  0  0  0  0  0  0  0  0  0  0  0
    7.3893    3.2173    2.0239 C   0  0  0  0  0  0  0  0  0  0  0  0
    7.6027    2.6259    0.8044 C   0  0  0  0  0  0  0  0  0  0  0  0
    6.6392    2.0019    0.1014 N   0  0  0  0  0  0  0  0  0  0  0  0
    3.2538    0.8889    0.7304 C   0  0  0  0  0  0  0  0  0  0  0  0
    2.1049    0.3551   -0.1426 C   0  0  0  0  0  0  0  0  0  0  0  0
   -0.7457   -1.9359   -1.5020 C   0  0  0  0  0  0  0  0  0  0  0  0
   -7.5569   -1.5945    0.7799 H   0  0  0  0  0  0  0  0  0  0  0  0
   -6.1762   -2.6015    1.2469 H   0  0  0  0  0  0  0  0  0  0  0  0
   -6.1852   -0.8803    1.6554 H   0  0  0  0  0  0  0  0  0  0  0  0
   -6.1145   -2.0704   -1.1723 H   0  0  0  0  0  0  0  0  0  0  0  0
   -7.0716    0.4861   -0.5726 H   0  0  0  0  0  0  0  0  0  0  0  0
   -6.1909    0.0873   -2.0792 H   0  0  0  0  0  0  0  0  0  0  0  0
   -5.6136    2.9210   -0.9092 H   0  0  0  0  0  0  0  0  0  0  0  0
   -3.4412    3.8936   -0.1793 H   0  0  0  0  0  0  0  0  0  0  0  0
   -1.5921    2.4160    0.5663 H   0  0  0  0  0  0  0  0  0  0  0  0
   -1.8835   -0.0394    0.6079 H   0  0  0  0  0  0  0  0  0  0  0  0
   -2.4627   -3.4379    1.0486 H   0  0  0  0  0  0  0  0  0  0  0  0
   -0.1608   -3.6406    1.9607 H   0  0  0  0  0  0  0  0  0  0  0  0
    1.7667   -2.7614    0.6640 H   0  0  0  0  0  0  0  0  0  0  0  0
    4.0556   -0.9692   -2.5963 H   0  0  0  0  0  0  0  0  0  0  0  0
    3.3114    0.6394   -2.6149 H   0  0  0  0  0  0  0  0  0  0  0  0
    5.3406   -0.4677   -0.5909 H   0  0  0  0  0  0  0  0  0  0  0  0
    5.5813    0.8325   -1.7890 H   0  0  0  0  0  0  0  0  0  0  0  0
    5.8186    3.5548    3.4511 H   0  0  0  0  0  0  0  0  0  0  0  0
    8.1731    3.7186    2.5709 H   0  0  0  0  0  0  0  0  0  0  0  0
    8.5833    2.6396    0.3317 H   0  0  0  0  0  0  0  0  0  0  0  0
    3.5933    0.0896    1.4042 H   0  0  0  0  0  0  0  0  0  0  0  0
    2.8447    1.7044    1.3410 H   0  0  0  0  0  0  0  0  0  0  0  0
    1.6438    1.1841   -0.7007 H   0  0  0  0  0  0  0  0  0  0  0  0
    1.3254   -0.0610    0.5027 H   0  0  0  0  0  0  0  0  0  0  0  0
   -0.8975   -1.4829   -2.4811 H   0  0  0  0  0  0  0  0  0  0  0  0
  1  2  1  0
  2  3  1  0
  3  4  1  0
  4  5  2  0
  5  6  1  0
  6  7  2  0
  7  8  1  0
  8  9  2  0
  9 10  1  0
 10 11  1  0
 11 12  2  0
 11 13  2  0
 11 14  1  0
 14 15  2  0
 15 16  1  0
 16 17  2  0
 17 18  1  0
 18 19  1  0
 19 20  2  0
 19 21  1  0
 21 22  1  0
 22 23  1  0
 23 24  1  0
 24 25  1  0
 25 26  2  0
 26 27  1  0
 27 28  2  0
 28 29  1  0
 29 30  2  0
 24 31  1  0
 31 32  1  0
 18 33  2  0
 10  2  1  0
 33 14  1  0
  9  4  1  0
 32 21  1  0
 30 25  1  0
  1 34  1  0
  1 35  1  0
  1 36  1  0
  2 37  1  0
  3 38  1  0
  3 39  1  0
  5 40  1  0
  6 41  1  0
  7 42  1  0
  8 43  1  0
 15 44  1  0
 16 45  1  0
 17 46  1  0
 22 47  1  0
 22 48  1  0
 23 49  1  0
 23 50  1  0
 27 51  1  0
 28 52  1  0
 29 53  1  0
 31 54  1  0
 31 55  1  0
 32 56  1  0
 32 57  1  0
 33 58  1  0
M  END
$$$$
