
     RDKit          3D

 46 48  0  0  0  0  0  0  0  0999 V2000
   -0.9059    1.2794    1.7873 O   0  0  0  0  0  0  0  0  0  0  0  0
   -1.2182    1.6135    0.6485 C   0  0  0  0  0  0  0  0  0  0  0  0
   -2.5144    1.5951    0.1776 N   0  0  0  0  0  0  0  0  0  0  0  0
   -3.5838    1.0282    0.9847 C   0  0  0  0  0  0  0  0  0  0  0  0
   -3.6136   -0.5052    0.8784 C   0  0  0  0  0  0  0  0  0  0  0  0
   -4.6902   -1.1321    1.7540 C   0  0  0  0  0  0  0  0  0  0  0  0
   -5.8612   -1.2624    0.8103 C   0  0  0  0  0  0  0  0  0  0  0  0
   -5.1725   -1.5866   -0.4953 C   0  0  0  0  0  0  0  0  0  0  0  0
   -3.9339   -0.8624   -0.4896 O   0  0  0  0  0  0  0  0  0  0  0  0
   -0.1675    2.0218   -0.3248 C   0  0  0  0  0  0  0  0  0  0  0  0
   -0.4420    2.8773   -1.3965 C   0  0  0  0  0  0  0  0  0  0  0  0
    0.5829    3.2510   -2.2705 C   0  0  0  0  0  0  0  0  0  0  0  0
    1.8884    2.7711   -2.0928 C   0  0  0  0  0  0  0  0  0  0  0  0
    3.1912    3.4308   -3.3062 Br  0  0  0  0  0  0  0  0  0  0  0  0
    2.1613    1.9036   -1.0297 C   0  0  0  0  0  0  0  0  0  0  0  0
    3.7862    1.2387   -0.7710 S   0  0  0  0  0  6  0  0  0  0  0  0
    4.5041    2.1998    0.0367 O   0  0  0  0  0  0  0  0  0  0  0  0
    4.3037    0.7491   -2.0314 O   0  0  0  0  0  0  0  0  0  0  0  0
    3.5323   -0.1583    0.1863 N   0  0  0  0  0  0  0  0  0  0  0  0
    2.8743   -1.3154   -0.5160 C   0  0  0  0  0  0  0  0  0  0  0  0
    3.8877   -2.4207   -0.8256 C   0  0  0  0  0  0  0  0  0  0  0  0
    4.4834   -2.9762    0.3563 O   0  0  0  0  0  0  0  0  0  0  0  0
    4.6157   -2.0275    1.4247 C   0  0  0  0  0  0  0  0  0  0  0  0
    4.7631   -0.5849    0.9335 C   0  0  0  0  0  0  0  0  0  0  0  0
    1.1377    1.5527   -0.1331 C   0  0  0  0  0  0  0  0  0  0  0  0
   -2.6590    1.5465   -0.8228 H   0  0  0  0  0  0  0  0  0  0  0  0
   -4.5143    1.4635    0.6030 H   0  0  0  0  0  0  0  0  0  0  0  0
   -3.4471    1.3406    2.0269 H   0  0  0  0  0  0  0  0  0  0  0  0
   -2.6283   -0.9221    1.1180 H   0  0  0  0  0  0  0  0  0  0  0  0
   -4.3667   -2.1320    2.0694 H   0  0  0  0  0  0  0  0  0  0  0  0
   -4.9166   -0.5562    2.6559 H   0  0  0  0  0  0  0  0  0  0  0  0
   -6.5827   -2.0262    1.1110 H   0  0  0  0  0  0  0  0  0  0  0  0
   -6.3867   -0.3023    0.7324 H   0  0  0  0  0  0  0  0  0  0  0  0
   -5.7658   -1.2986   -1.3686 H   0  0  0  0  0  0  0  0  0  0  0  0
   -4.9376   -2.6544   -0.5669 H   0  0  0  0  0  0  0  0  0  0  0  0
   -1.4355    3.2938   -1.5435 H   0  0  0  0  0  0  0  0  0  0  0  0
    0.3547    3.9379   -3.0833 H   0  0  0  0  0  0  0  0  0  0  0  0
    2.0940   -1.6952    0.1547 H   0  0  0  0  0  0  0  0  0  0  0  0
    2.3776   -0.9929   -1.4364 H   0  0  0  0  0  0  0  0  0  0  0  0
    4.6943   -2.0466   -1.4669 H   0  0  0  0  0  0  0  0  0  0  0  0
    3.3993   -3.2416   -1.3607 H   0  0  0  0  0  0  0  0  0  0  0  0
    3.7362   -2.1259    2.0716 H   0  0  0  0  0  0  0  0  0  0  0  0
    5.4907   -2.3190    2.0144 H   0  0  0  0  0  0  0  0  0  0  0  0
    5.6372   -0.5141    0.2769 H   0  0  0  0  0  0  0  0  0  0  0  0
    4.9008    0.0809    1.7916 H   0  0  0  0  0  0  0  0  0  0  0  0
    1.3466    0.9205    0.7272 H   0  0  0  0  0  0  0  0  0  0  0  0
  1  2  2  0
  2  3  1  0
  3  4  1  0
  4  5  1  0
  5  6  1  0
  6  7  1  0
  7  8  1  0
  8  9  1  0
  2 10  1  0
 10 11  2  0
 11 12  1  0
 12 13  2  0
 13 14  1  0
 13 15  1  0
 15 16  1  0
 16 17  2  0
 16 18  2  0
 16 19  1  0
 19 20  1  0
 20 21  1  0
 21 22  1  0
 22 23  1  0
 23 24  1  0
 15 25  2  0
  9  5  1  0
 25 10  1  0
 24 19  1  0
  3 26  1  0
  4 27  1  0
  4 28  1  0
  5 29  1  0
  6 30  1  0
  6 31  1  0
  7 32  1  0
  7 33  1  0
  8 34  1  0
  8 35  1  0
 11 36  1  0
 12 37  1  0
 20 38  1  0
 20 39  1  0
 21 40  1  0
 21 41  1  0
 23 42  1  0
 23 43  1  0
 24 44  1  0
 24 45  1  0
 25 46  1  0
M  END
$$$$
