
     RDKit          3D

 62 65  0  0  0  0  0  0  0  0999 V2000
   -6.0579   -2.2427    2.3207 C   0  0  0  0  0  0  0  0  0  0  0  0
   -5.6363   -0.7843    2.3061 C   0  0  0  0  0  0  0  0  0  0  0  0
   -4.1759   -0.6220    2.6812 C   0  0  0  0  0  0  0  0  0  0  0  0
   -3.8848   -0.2812    3.8314 O   0  0  0  0  0  0  0  0  0  0  0  0
   -3.2044   -0.8814    1.7254 N   0  0  0  0  0  0  0  0  0  0  0  0
   -3.4501   -1.2472    0.3355 C   0  0  0  0  0  0  0  0  0  0  0  0
   -1.7951   -0.7453    2.1196 C   0  0  0  0  0  0  0  0  0  0  0  0
   -1.3201    0.7119    2.2533 C   0  0  0  0  0  0  0  0  0  0  0  0
   -1.3351    1.5033    0.9593 C   0  0  0  0  0  0  0  0  0  0  0  0
   -2.3556    2.4657    0.8225 C   0  0  0  0  0  0  0  0  0  0  0  0
   -2.4375    3.1900   -0.3453 C   0  0  0  0  0  0  0  0  0  0  0  0
   -1.5650    2.9957   -1.3898 C   0  0  0  0  0  0  0  0  0  0  0  0
   -0.5498    2.0534   -1.3181 C   0  0  0  0  0  0  0  0  0  0  0  0
    0.3723    1.8347   -2.3075 O   0  0  0  0  0  0  0  0  0  0  0  0
   -0.0722    2.0257   -3.6465 C   0  0  0  0  0  0  0  0  0  0  0  0
   -0.4185    1.3113   -0.1165 C   0  0  0  0  0  0  0  0  0  0  0  0
    0.6930    0.3199   -0.0674 C   0  0  0  0  0  0  0  0  0  0  0  0
    1.1433   -0.1891    1.0385 N   0  0  0  0  0  0  0  0  0  0  0  0
    2.1308   -1.1321    0.9391 N   0  0  0  0  0  0  0  0  0  0  0  0
    2.1964   -2.1249   -0.0272 C   0  0  0  0  0  0  0  0  0  0  0  0
    1.4154   -2.3048   -0.9539 O   0  0  0  0  0  0  0  0  0  0  0  0
    3.3077   -3.0900    0.2054 C   0  0  0  0  0  0  0  0  0  0  0  0
    4.0058   -3.7050   -0.9825 C   0  0  0  0  0  0  0  0  0  0  0  0
    4.7621   -2.7565   -0.0869 C   0  0  0  0  0  0  0  0  0  0  0  0
    5.1763   -1.3800   -0.5590 C   0  0  0  0  0  0  0  0  0  0  0  0
    5.3045   -0.3217    0.3570 C   0  0  0  0  0  0  0  0  0  0  0  0
    5.6896    0.9589   -0.0488 C   0  0  0  0  0  0  0  0  0  0  0  0
    5.9746    1.2071   -1.3870 C   0  0  0  0  0  0  0  0  0  0  0  0
    5.8817    0.1739   -2.3129 C   0  0  0  0  0  0  0  0  0  0  0  0
    5.4914   -1.1038   -1.8997 C   0  0  0  0  0  0  0  0  0  0  0  0
   -1.8364    3.8436   -2.4239 O   0  0  0  0  0  0  0  0  0  0  0  0
   -2.9460    4.5977   -1.8998 C   0  0  0  0  0  0  0  0  0  0  0  0
   -3.3612    4.1571   -0.5956 O   0  0  0  0  0  0  0  0  0  0  0  0
   -5.5108   -2.8344    1.5812 H   0  0  0  0  0  0  0  0  0  0  0  0
   -5.8699   -2.6908    3.3015 H   0  0  0  0  0  0  0  0  0  0  0  0
   -7.1274   -2.3313    2.1045 H   0  0  0  0  0  0  0  0  0  0  0  0
   -6.2312   -0.2303    3.0430 H   0  0  0  0  0  0  0  0  0  0  0  0
   -5.8435   -0.3087    1.3432 H   0  0  0  0  0  0  0  0  0  0  0  0
   -2.9757   -2.2145    0.1436 H   0  0  0  0  0  0  0  0  0  0  0  0
   -3.0068   -0.4938   -0.3200 H   0  0  0  0  0  0  0  0  0  0  0  0
   -4.5086   -1.3303    0.0929 H   0  0  0  0  0  0  0  0  0  0  0  0
   -1.6753   -1.2347    3.0943 H   0  0  0  0  0  0  0  0  0  0  0  0
   -1.1838   -1.3135    1.4113 H   0  0  0  0  0  0  0  0  0  0  0  0
   -1.9476    1.2256    2.9934 H   0  0  0  0  0  0  0  0  0  0  0  0
   -0.3186    0.7492    2.6951 H   0  0  0  0  0  0  0  0  0  0  0  0
   -3.0745    2.6426    1.6181 H   0  0  0  0  0  0  0  0  0  0  0  0
    0.5969    1.4594   -4.3006 H   0  0  0  0  0  0  0  0  0  0  0  0
   -1.0869    1.6429   -3.8048 H   0  0  0  0  0  0  0  0  0  0  0  0
    0.0073    3.0792   -3.9309 H   0  0  0  0  0  0  0  0  0  0  0  0
    1.1577    0.0611   -1.0342 H   0  0  0  0  0  0  0  0  0  0  0  0
    2.6704   -1.2602    1.7877 H   0  0  0  0  0  0  0  0  0  0  0  0
    3.1151   -3.7661    1.0338 H   0  0  0  0  0  0  0  0  0  0  0  0
    3.6862   -3.3853   -1.9687 H   0  0  0  0  0  0  0  0  0  0  0  0
    4.2531   -4.7596   -0.9318 H   0  0  0  0  0  0  0  0  0  0  0  0
    5.4922   -3.2314    0.5680 H   0  0  0  0  0  0  0  0  0  0  0  0
    5.0975   -0.4932    1.4098 H   0  0  0  0  0  0  0  0  0  0  0  0
    5.7677    1.7591    0.6821 H   0  0  0  0  0  0  0  0  0  0  0  0
    6.2742    2.2018   -1.7062 H   0  0  0  0  0  0  0  0  0  0  0  0
    6.1145    0.3572   -3.3577 H   0  0  0  0  0  0  0  0  0  0  0  0
    5.4338   -1.8939   -2.6444 H   0  0  0  0  0  0  0  0  0  0  0  0
   -2.6568    5.6539   -1.8405 H   0  0  0  0  0  0  0  0  0  0  0  0
   -3.7923    4.5023   -2.5908 H   0  0  0  0  0  0  0  0  0  0  0  0
  1  2  1  0
  2  3  1  0
  3  4  2  0
  3  5  1  0
  5  6  1  0
  5  7  1  0
  7  8  1  0
  8  9  1  0
  9 10  2  0
 10 11  1  0
 11 12  2  0
 12 13  1  0
 13 14  1  0
 14 15  1  0
 13 16  2  0
 16 17  1  0
 17 18  2  3
 18 19  1  0
 19 20  1  0
 20 21  2  0
 20 22  1  0
 22 23  1  0
 23 24  1  0
 24 25  1  0
 25 26  2  0
 26 27  1  0
 27 28  2  0
 28 29  1  0
 29 30  2  0
 12 31  1  0
 31 32  1  0
 32 33  1  0
 16  9  1  0
 24 22  1  0
 30 25  1  0
 33 11  1  0
  1 34  1  0
  1 35  1  0
  1 36  1  0
  2 37  1  0
  2 38  1  0
  6 39  1  0
  6 40  1  0
  6 41  1  0
  7 42  1  0
  7 43  1  0
  8 44  1  0
  8 45  1  0
 10 46  1  0
 15 47  1  0
 15 48  1  0
 15 49  1  0
 17 50  1  0
 19 51  1  0
 22 52  1  0
 23 53  1  0
 23 54  1  0
 24 55  1  0
 26 56  1  0
 27 57  1  0
 28 58  1  0
 29 59  1  0
 30 60  1  0
 32 61  1  0
 32 62  1  0
M  END
$$$$
