
     RDKit          3D

 44 46  0  0  0  0  0  0  0  0999 V2000
    4.0163    1.8018   -2.5518 C   0  0  0  0  0  0  0  0  0  0  0  0
    3.1193    1.4270   -1.4619 N   0  0  0  0  0  0  0  0  0  0  0  0
    2.8967   -0.0334   -1.4491 C   0  0  0  0  0  0  0  0  0  0  0  0
    1.6145   -0.4485   -0.7039 C   0  0  0  0  0  0  0  0  0  0  0  0
    0.4225    0.1573   -1.3087 N   0  0  0  0  0  0  0  0  0  0  0  0
   -0.8443   -0.4058   -1.3181 C   0  0  0  0  0  0  0  0  0  0  0  0
   -1.7772    0.0221   -1.9926 O   0  0  0  0  0  0  0  0  0  0  0  0
   -1.0908   -1.6004   -0.4864 C   0  0  0  0  0  0  0  0  0  0  0  0
   -1.1696   -2.8300   -1.1575 C   0  0  0  0  0  0  0  0  0  0  0  0
   -1.4076   -3.9992   -0.4398 C   0  0  0  0  0  0  0  0  0  0  0  0
   -1.5792   -3.9393    0.9408 C   0  0  0  0  0  0  0  0  0  0  0  0
   -1.5211   -2.7096    1.6051 C   0  0  0  0  0  0  0  0  0  0  0  0
   -1.2843   -1.5091    0.9072 C   0  0  0  0  0  0  0  0  0  0  0  0
   -1.2412   -0.2352    1.6553 C   0  0  0  0  0  0  0  0  0  0  0  0
   -0.1696   -0.0375    2.5550 C   0  0  0  0  0  0  0  0  0  0  0  0
   -0.0162    1.1535    3.2681 C   0  0  0  0  0  0  0  0  0  0  0  0
   -0.9348    2.1815    3.1038 C   0  0  0  0  0  0  0  0  0  0  0  0
   -2.0128    2.0101    2.2376 C   0  0  0  0  0  0  0  0  0  0  0  0
   -2.1853    0.8082    1.5236 C   0  0  0  0  0  0  0  0  0  0  0  0
   -3.3991    0.7548    0.6683 C   0  0  0  0  0  0  0  0  0  0  0  0
   -3.9779    1.7247    0.2103 O   0  0  0  0  0  0  0  0  0  0  0  0
   -3.8872   -0.4844    0.5045 O   0  0  0  0  0  0  0  0  0  0  0  0
    0.6357    1.4068   -2.0381 C   0  0  0  0  0  0  0  0  0  0  0  0
    1.8513    2.1880   -1.5077 C   0  0  0  0  0  0  0  0  0  0  0  0
    4.2711    2.8657   -2.4909 H   0  0  0  0  0  0  0  0  0  0  0  0
    4.9600    1.2494   -2.4817 H   0  0  0  0  0  0  0  0  0  0  0  0
    3.5737    1.6084   -3.5355 H   0  0  0  0  0  0  0  0  0  0  0  0
    3.7596   -0.5183   -0.9785 H   0  0  0  0  0  0  0  0  0  0  0  0
    2.8263   -0.4181   -2.4759 H   0  0  0  0  0  0  0  0  0  0  0  0
    1.5245   -1.5387   -0.7047 H   0  0  0  0  0  0  0  0  0  0  0  0
    1.6652   -0.1131    0.3367 H   0  0  0  0  0  0  0  0  0  0  0  0
   -1.0514   -2.8687   -2.2379 H   0  0  0  0  0  0  0  0  0  0  0  0
   -1.4708   -4.9533   -0.9570 H   0  0  0  0  0  0  0  0  0  0  0  0
   -1.7759   -4.8487    1.5037 H   0  0  0  0  0  0  0  0  0  0  0  0
   -1.6849   -2.6886    2.6816 H   0  0  0  0  0  0  0  0  0  0  0  0
    0.5759   -0.8202    2.6907 H   0  0  0  0  0  0  0  0  0  0  0  0
    0.8265    1.2783    3.9436 H   0  0  0  0  0  0  0  0  0  0  0  0
   -0.8178    3.1143    3.6495 H   0  0  0  0  0  0  0  0  0  0  0  0
   -2.7323    2.8198    2.1220 H   0  0  0  0  0  0  0  0  0  0  0  0
   -4.6167   -0.3596   -0.1373 H   0  0  0  0  0  0  0  0  0  0  0  0
    0.7800    1.1483   -3.0941 H   0  0  0  0  0  0  0  0  0  0  0  0
   -0.2652    2.0271   -1.9699 H   0  0  0  0  0  0  0  0  0  0  0  0
    1.6311    2.4899   -0.4752 H   0  0  0  0  0  0  0  0  0  0  0  0
    1.9631    3.1226   -2.0711 H   0  0  0  0  0  0  0  0  0  0  0  0
  1  2  1  0
  2  3  1  0
  3  4  1  0
  4  5  1  0
  5  6  1  0
  6  7  2  0
  6  8  1  0
  8  9  2  0
  9 10  1  0
 10 11  2  0
 11 12  1  0
 12 13  2  0
 13 14  1  0
 14 15  2  0
 15 16  1  0
 16 17  2  0
 17 18  1  0
 18 19  2  0
 19 20  1  0
 20 21  2  0
 20 22  1  0
  5 23  1  0
 23 24  1  0
 24  2  1  0
 13  8  1  0
 19 14  1  0
  1 25  1  0
  1 26  1  0
  1 27  1  0
  3 28  1  0
  3 29  1  0
  4 30  1  0
  4 31  1  0
  9 32  1  0
 10 33  1  0
 11 34  1  0
 12 35  1  0
 15 36  1  0
 16 37  1  0
 17 38  1  0
 18 39  1  0
 22 40  1  0
 23 41  1  0
 23 42  1  0
 24 43  1  0
 24 44  1  0
M  END
$$$$
