
     RDKit          3D

 34 36  0  0  0  0  0  0  0  0999 V2000
   -0.7792    1.1716    0.7782 O   0  0  0  0  0  0  0  0  0  0  0  0
   -1.4570    0.9021   -0.2070 C   0  0  0  0  0  0  0  0  0  0  0  0
   -1.1252    1.1991   -1.5250 N   0  0  0  0  0  0  0  0  0  0  0  0
   -0.0270    1.8512   -2.0011 C   0  0  0  0  0  0  0  0  0  0  0  0
   -0.1951    2.7815   -3.3817 S   0  0  0  0  0  0  0  0  0  0  0  0
    1.1727    1.8104   -1.3763 N   0  0  0  0  0  0  0  0  0  0  0  0
    1.8076    0.7410   -0.7058 C   0  0  0  0  0  0  0  0  0  0  0  0
    1.3480   -0.5972   -0.7815 C   0  0  0  0  0  0  0  0  0  0  0  0
    2.0203   -1.6428   -0.1326 C   0  0  0  0  0  0  0  0  0  0  0  0
    3.1537   -1.3080    0.5646 C   0  0  0  0  0  0  0  0  0  0  0  0
    4.0209   -2.1119    1.2951 N   0  0  0  0  0  0  0  0  0  0  0  0
    5.0420   -1.3088    1.8231 C   0  0  0  0  0  0  0  0  0  0  0  0
    5.9726   -1.6777    2.5165 O   0  0  0  0  0  0  0  0  0  0  0  0
    4.7840    0.0016    1.3951 N   0  0  0  0  0  0  0  0  0  0  0  0
    3.6253   -0.0001    0.6252 C   0  0  0  0  0  0  0  0  0  0  0  0
    2.9850    1.0424   -0.0036 C   0  0  0  0  0  0  0  0  0  0  0  0
   -2.8072    0.3098    0.0057 C   0  0  0  0  0  0  0  0  0  0  0  0
   -3.5122    0.7555    1.1377 C   0  0  0  0  0  0  0  0  0  0  0  0
   -4.7893    0.2685    1.4205 C   0  0  0  0  0  0  0  0  0  0  0  0
   -5.3728   -0.6754    0.5807 C   0  0  0  0  0  0  0  0  0  0  0  0
   -4.6759   -1.1388   -0.5361 C   0  0  0  0  0  0  0  0  0  0  0  0
   -3.3933   -0.6551   -0.8253 C   0  0  0  0  0  0  0  0  0  0  0  0
   -2.5996   -1.3365   -2.2006 Cl  0  0  0  0  0  0  0  0  0  0  0  0
   -1.8979    1.2105   -2.1785 H   0  0  0  0  0  0  0  0  0  0  0  0
    1.7792    2.5912   -1.6033 H   0  0  0  0  0  0  0  0  0  0  0  0
    0.4731   -0.8502   -1.3715 H   0  0  0  0  0  0  0  0  0  0  0  0
    1.6609   -2.6624   -0.1915 H   0  0  0  0  0  0  0  0  0  0  0  0
    3.9534   -3.1044    1.4469 H   0  0  0  0  0  0  0  0  0  0  0  0
    5.3586    0.7923    1.6353 H   0  0  0  0  0  0  0  0  0  0  0  0
    3.3673    2.0531    0.0652 H   0  0  0  0  0  0  0  0  0  0  0  0
   -3.0639    1.4899    1.8065 H   0  0  0  0  0  0  0  0  0  0  0  0
   -5.3241    0.6239    2.2987 H   0  0  0  0  0  0  0  0  0  0  0  0
   -6.3666   -1.0594    0.8007 H   0  0  0  0  0  0  0  0  0  0  0  0
   -5.1383   -1.8894   -1.1741 H   0  0  0  0  0  0  0  0  0  0  0  0
  1  2  2  0
  2  3  1  0
  3  4  1  0
  4  5  2  0
  4  6  1  0
  6  7  1  0
  7  8  2  0
  8  9  1  0
  9 10  2  0
 10 11  1  0
 11 12  1  0
 12 13  2  0
 12 14  1  0
 14 15  1  0
 15 16  2  0
  2 17  1  0
 17 18  2  0
 18 19  1  0
 19 20  2  0
 20 21  1  0
 21 22  2  0
 22 23  1  0
 16  7  1  0
 22 17  1  0
 15 10  1  0
  3 24  1  0
  6 25  1  0
  8 26  1  0
  9 27  1  0
 11 28  1  0
 14 29  1  0
 16 30  1  0
 18 31  1  0
 19 32  1  0
 20 33  1  0
 21 34  1  0
M  END
$$$$
