
     RDKit          3D

 40 42  0  0  0  0  0  0  0  0999 V2000
    5.8284   -0.5418   -0.9809 C   0  0  0  0  0  0  0  0  0  0  0  0
    5.3343    0.2222    0.2380 C   0  0  0  0  0  0  0  0  0  0  0  0
    3.8293    0.2187    0.3291 C   0  0  0  0  0  0  0  0  0  0  0  0
    3.1610   -0.8049    1.0127 C   0  0  0  0  0  0  0  0  0  0  0  0
    1.7645   -0.8192    1.0860 C   0  0  0  0  0  0  0  0  0  0  0  0
    1.0197    0.1903    0.4687 C   0  0  0  0  0  0  0  0  0  0  0  0
   -0.4608    0.2045    0.5250 C   0  0  0  0  0  0  0  0  0  0  0  0
   -1.1748    1.2105    0.1157 N   0  0  0  0  0  0  0  0  0  0  0  0
   -2.6190    0.8152    0.3288 N   0  0  0  0  0  0  0  0  0  0  0  0
   -3.5167    1.7792    1.4264 S   0  0  0  0  0  6  0  0  0  0  0  0
   -3.3026    3.3969    0.7172 C   0  0  0  0  0  0  0  0  0  0  0  0
   -4.9122    1.4084    1.3086 O   0  0  0  0  0  0  0  0  0  0  0  0
   -2.8473    1.7316    2.7115 O   0  0  0  0  0  0  0  0  0  0  0  0
   -2.6682   -0.6396    0.6497 C   0  0  0  0  0  0  0  0  0  0  0  0
   -3.0360   -1.4119   -0.5963 C   0  0  0  0  0  0  0  0  0  0  0  0
   -2.8069   -1.1070   -1.9268 C   0  0  0  0  0  0  0  0  0  0  0  0
   -3.3017   -2.1070   -2.8119 C   0  0  0  0  0  0  0  0  0  0  0  0
   -3.8922   -3.1481   -2.1334 C   0  0  0  0  0  0  0  0  0  0  0  0
   -3.8469   -2.9196   -0.4409 S   0  0  0  0  0  0  0  0  0  0  0  0
   -1.2420   -0.9478    1.1055 C   0  0  0  0  0  0  0  0  0  0  0  0
    1.6833    1.2138   -0.2174 C   0  0  0  0  0  0  0  0  0  0  0  0
    3.0785    1.2254   -0.2895 C   0  0  0  0  0  0  0  0  0  0  0  0
    6.9221   -0.5228   -1.0216 H   0  0  0  0  0  0  0  0  0  0  0  0
    5.5081   -1.5888   -0.9503 H   0  0  0  0  0  0  0  0  0  0  0  0
    5.4466   -0.1008   -1.9079 H   0  0  0  0  0  0  0  0  0  0  0  0
    5.6993    1.2558    0.2008 H   0  0  0  0  0  0  0  0  0  0  0  0
    5.7600   -0.2168    1.1485 H   0  0  0  0  0  0  0  0  0  0  0  0
    3.7268   -1.5991    1.4961 H   0  0  0  0  0  0  0  0  0  0  0  0
    1.2872   -1.6242    1.6366 H   0  0  0  0  0  0  0  0  0  0  0  0
   -3.6715    3.3844   -0.3100 H   0  0  0  0  0  0  0  0  0  0  0  0
   -3.8882    4.1020    1.3114 H   0  0  0  0  0  0  0  0  0  0  0  0
   -2.2477    3.6727    0.7557 H   0  0  0  0  0  0  0  0  0  0  0  0
   -3.3812   -0.8653    1.4510 H   0  0  0  0  0  0  0  0  0  0  0  0
   -2.3098   -0.1993   -2.2508 H   0  0  0  0  0  0  0  0  0  0  0  0
   -3.2314   -2.0618   -3.8918 H   0  0  0  0  0  0  0  0  0  0  0  0
   -4.3520   -4.0338   -2.5502 H   0  0  0  0  0  0  0  0  0  0  0  0
   -1.1656   -0.8905    2.1972 H   0  0  0  0  0  0  0  0  0  0  0  0
   -0.8726   -1.9172    0.7605 H   0  0  0  0  0  0  0  0  0  0  0  0
    1.1228    2.0088   -0.7046 H   0  0  0  0  0  0  0  0  0  0  0  0
    3.5754    2.0270   -0.8321 H   0  0  0  0  0  0  0  0  0  0  0  0
  1  2  1  0
  2  3  1  0
  3  4  2  0
  4  5  1  0
  5  6  2  0
  6  7  1  0
  7  8  2  0
  8  9  1  0
  9 10  1  0
 10 11  1  0
 10 12  2  0
 10 13  2  0
  9 14  1  0
 14 15  1  0
 15 16  2  0
 16 17  1  0
 17 18  2  0
 18 19  1  0
 14 20  1  0
  6 21  1  0
 21 22  2  0
 22  3  1  0
 20  7  1  0
 19 15  1  0
  1 23  1  0
  1 24  1  0
  1 25  1  0
  2 26  1  0
  2 27  1  0
  4 28  1  0
  5 29  1  0
 11 30  1  0
 11 31  1  0
 11 32  1  0
 14 33  1  0
 16 34  1  0
 17 35  1  0
 18 36  1  0
 20 37  1  0
 20 38  1  0
 21 39  1  0
 22 40  1  0
M  END
$$$$
