
     RDKit          3D

 40 42  0  0  0  0  0  0  0  0999 V2000
    2.2233   -3.5221    0.5343 C   0  0  0  0  0  0  0  0  0  0  0  0
    1.8111   -2.1702    0.3146 O   0  0  0  0  0  0  0  0  0  0  0  0
    0.4515   -2.0158    0.2203 C   0  0  0  0  0  0  0  0  0  0  0  0
   -0.3372   -2.9494    0.3134 O   0  0  0  0  0  0  0  0  0  0  0  0
    0.0334   -0.6244    0.0014 C   0  0  0  0  0  0  0  0  0  0  0  0
    0.8910    0.4701   -0.0943 C   0  0  0  0  0  0  0  0  0  0  0  0
    2.2780    0.4475   -0.0128 N   0  0  0  0  0  0  0  0  0  0  0  0
    3.1657    1.5106   -0.1236 C   0  0  0  0  0  0  0  0  0  0  0  0
    2.8500    2.6755   -0.3407 O   0  0  0  0  0  0  0  0  0  0  0  0
    4.5633    1.1161    0.0397 C   0  0  0  0  0  0  0  0  0  0  0  0
    5.2002   -0.0889    0.2997 C   0  0  0  0  0  0  0  0  0  0  0  0
    6.5923    0.1771    0.3456 C   0  0  0  0  0  0  0  0  0  0  0  0
    6.7304    1.5229    0.1134 C   0  0  0  0  0  0  0  0  0  0  0  0
    5.5175    2.0977   -0.0714 O   0  0  0  0  0  0  0  0  0  0  0  0
    0.0547    1.9333   -0.3174 S   0  0  0  0  0  0  0  0  0  0  0  0
   -1.4565    1.1712   -0.2878 C   0  0  0  0  0  0  0  0  0  0  0  0
   -1.3450   -0.1969   -0.1399 C   0  0  0  0  0  0  0  0  0  0  0  0
   -2.5806   -1.0487   -0.0999 C   0  0  0  0  0  0  0  0  0  0  0  0
   -3.7872   -0.3030   -0.6933 C   0  0  0  0  0  0  0  0  0  0  0  0
   -3.8891    1.0802   -0.1997 N   0  0  0  0  0  0  0  0  0  0  0  0
   -5.0945    1.7187    0.0608 C   0  0  0  0  0  0  0  0  0  0  0  0
   -6.3181    0.8528    0.2171 C   0  0  0  0  0  0  0  0  0  0  0  0
   -5.1853    2.9411    0.1766 O   0  0  0  0  0  0  0  0  0  0  0  0
   -2.7282    1.9523   -0.4292 C   0  0  0  0  0  0  0  0  0  0  0  0
    1.8000   -3.9076    1.4674 H   0  0  0  0  0  0  0  0  0  0  0  0
    1.9391   -4.1516   -0.3148 H   0  0  0  0  0  0  0  0  0  0  0  0
    3.3131   -3.5305    0.6221 H   0  0  0  0  0  0  0  0  0  0  0  0
    2.6700   -0.4726    0.1406 H   0  0  0  0  0  0  0  0  0  0  0  0
    4.7344   -1.0524    0.4464 H   0  0  0  0  0  0  0  0  0  0  0  0
    7.3953   -0.5237    0.5273 H   0  0  0  0  0  0  0  0  0  0  0  0
    7.5775    2.1925    0.0509 H   0  0  0  0  0  0  0  0  0  0  0  0
   -2.7887   -1.3073    0.9455 H   0  0  0  0  0  0  0  0  0  0  0  0
   -2.4371   -1.9794   -0.6583 H   0  0  0  0  0  0  0  0  0  0  0  0
   -4.6940   -0.8750   -0.4843 H   0  0  0  0  0  0  0  0  0  0  0  0
   -3.6967   -0.2391   -1.7853 H   0  0  0  0  0  0  0  0  0  0  0  0
   -6.1391    0.0689    0.9575 H   0  0  0  0  0  0  0  0  0  0  0  0
   -6.5974    0.4202   -0.7469 H   0  0  0  0  0  0  0  0  0  0  0  0
   -7.1514    1.4666    0.5737 H   0  0  0  0  0  0  0  0  0  0  0  0
   -2.8154    2.3566   -1.4450 H   0  0  0  0  0  0  0  0  0  0  0  0
   -2.7505    2.7870    0.2811 H   0  0  0  0  0  0  0  0  0  0  0  0
  1  2  1  0
  2  3  1  0
  3  4  2  0
  3  5  1  0
  5  6  2  0
  6  7  1  0
  7  8  1  0
  8  9  2  0
  8 10  1  0
 10 11  2  0
 11 12  1  0
 12 13  2  0
 13 14  1  0
  6 15  1  0
 15 16  1  0
 16 17  2  0
 17 18  1  0
 18 19  1  0
 19 20  1  0
 20 21  1  0
 21 22  1  0
 21 23  2  0
 20 24  1  0
 17  5  1  0
 14 10  1  0
 24 16  1  0
  1 25  1  0
  1 26  1  0
  1 27  1  0
  7 28  1  0
 11 29  1  0
 12 30  1  0
 13 31  1  0
 18 32  1  0
 18 33  1  0
 19 34  1  0
 19 35  1  0
 22 36  1  0
 22 37  1  0
 22 38  1  0
 24 39  1  0
 24 40  1  0
M  END
$$$$
