
     RDKit          3D

 53 56  0  0  0  0  0  0  0  0999 V2000
    4.7425   -3.9942    0.4800 C   0  0  0  0  0  0  0  0  0  0  0  0
    3.4411   -3.4072    0.4836 O   0  0  0  0  0  0  0  0  0  0  0  0
    3.1894   -2.4565   -0.4677 C   0  0  0  0  0  0  0  0  0  0  0  0
    4.0479   -2.0873   -1.5002 C   0  0  0  0  0  0  0  0  0  0  0  0
    3.6716   -1.0892   -2.4085 C   0  0  0  0  0  0  0  0  0  0  0  0
    2.4279   -0.4571   -2.3031 C   0  0  0  0  0  0  0  0  0  0  0  0
    1.9883    0.5473   -3.1232 O   0  0  0  0  0  0  0  0  0  0  0  0
    2.8024    0.8978   -4.2290 C   0  0  0  0  0  0  0  0  0  0  0  0
    1.5445   -0.8419   -1.2802 C   0  0  0  0  0  0  0  0  0  0  0  0
    0.1832   -0.2005   -1.1293 C   0  0  0  0  0  0  0  0  0  0  0  0
    0.2778    1.0510   -0.3629 N   0  0  0  0  0  0  0  0  0  0  0  0
   -1.0248    1.5999   -0.1245 N   0  0  0  0  0  0  0  0  0  0  0  0
   -1.7579    1.2374    1.0077 C   0  0  0  0  0  0  0  0  0  0  0  0
   -1.1456    0.3192    1.9986 C   0  0  0  0  0  0  0  0  0  0  0  0
    0.0020    0.6930    2.7032 C   0  0  0  0  0  0  0  0  0  0  0  0
    0.5492   -0.1824    3.6399 C   0  0  0  0  0  0  0  0  0  0  0  0
   -0.0548   -1.4209    3.8759 C   0  0  0  0  0  0  0  0  0  0  0  0
   -1.2209   -1.7910    3.1913 C   0  0  0  0  0  0  0  0  0  0  0  0
   -1.8450   -3.1355    3.4214 C   0  0  0  0  0  0  0  0  0  0  0  0
   -1.7620   -0.9107    2.2462 C   0  0  0  0  0  0  0  0  0  0  0  0
   -2.9677    1.6514    1.2221 N   0  0  0  0  0  0  0  0  0  0  0  0
   -3.5480    2.5350    0.3016 C   0  0  0  0  0  0  0  0  0  0  0  0
   -4.8385    3.0061    0.5512 C   0  0  0  0  0  0  0  0  0  0  0  0
   -5.4615    3.8889   -0.3361 C   0  0  0  0  0  0  0  0  0  0  0  0
   -4.7971    4.3069   -1.4899 C   0  0  0  0  0  0  0  0  0  0  0  0
   -3.5074    3.8489   -1.7494 C   0  0  0  0  0  0  0  0  0  0  0  0
   -2.8915    2.9698   -0.8494 C   0  0  0  0  0  0  0  0  0  0  0  0
   -1.5290    2.4705   -1.0947 C   0  0  0  0  0  0  0  0  0  0  0  0
   -0.9124    2.8122   -2.1042 O   0  0  0  0  0  0  0  0  0  0  0  0
    1.9445   -1.8306   -0.3620 C   0  0  0  0  0  0  0  0  0  0  0  0
    4.8048   -4.6871    1.3268 H   0  0  0  0  0  0  0  0  0  0  0  0
    5.5189   -3.2311    0.6139 H   0  0  0  0  0  0  0  0  0  0  0  0
    4.9068   -4.5740   -0.4357 H   0  0  0  0  0  0  0  0  0  0  0  0
    5.0224   -2.5506   -1.6270 H   0  0  0  0  0  0  0  0  0  0  0  0
    4.3784   -0.8255   -3.1868 H   0  0  0  0  0  0  0  0  0  0  0  0
    2.2984    1.7058   -4.7734 H   0  0  0  0  0  0  0  0  0  0  0  0
    3.7740    1.2792   -3.8999 H   0  0  0  0  0  0  0  0  0  0  0  0
    2.9216    0.0518   -4.9147 H   0  0  0  0  0  0  0  0  0  0  0  0
   -0.2610   -0.0250   -2.1176 H   0  0  0  0  0  0  0  0  0  0  0  0
   -0.4868   -0.9108   -0.6279 H   0  0  0  0  0  0  0  0  0  0  0  0
    0.7644    1.7177   -0.9746 H   0  0  0  0  0  0  0  0  0  0  0  0
    0.4708    1.6542    2.5228 H   0  0  0  0  0  0  0  0  0  0  0  0
    1.4431    0.1019    4.1928 H   0  0  0  0  0  0  0  0  0  0  0  0
    0.3902   -2.0973    4.6022 H   0  0  0  0  0  0  0  0  0  0  0  0
   -2.9226   -3.1121    3.2122 H   0  0  0  0  0  0  0  0  0  0  0  0
   -1.7252   -3.4461    4.4687 H   0  0  0  0  0  0  0  0  0  0  0  0
   -1.3728   -3.8813    2.7676 H   0  0  0  0  0  0  0  0  0  0  0  0
   -2.6612   -1.1820    1.6946 H   0  0  0  0  0  0  0  0  0  0  0  0
   -5.3575    2.6849    1.4519 H   0  0  0  0  0  0  0  0  0  0  0  0
   -6.4653    4.2487   -0.1253 H   0  0  0  0  0  0  0  0  0  0  0  0
   -5.2828    4.9902   -2.1831 H   0  0  0  0  0  0  0  0  0  0  0  0
   -2.9856    4.1714   -2.6479 H   0  0  0  0  0  0  0  0  0  0  0  0
    1.2792   -2.1133    0.4519 H   0  0  0  0  0  0  0  0  0  0  0  0
  1  2  1  0
  2  3  1  0
  3  4  2  0
  4  5  1  0
  5  6  2  0
  6  7  1  0
  7  8  1  0
  6  9  1  0
  9 10  1  0
 10 11  1  0
 11 12  1  0
 12 13  1  0
 13 14  1  0
 14 15  2  0
 15 16  1  0
 16 17  2  0
 17 18  1  0
 18 19  1  0
 18 20  2  0
 13 21  2  0
 21 22  1  0
 22 23  2  0
 23 24  1  0
 24 25  2  0
 25 26  1  0
 26 27  2  0
 27 28  1  0
 28 29  2  0
  9 30  2  0
 30  3  1  0
 28 12  1  0
 20 14  1  0
 27 22  1  0
  1 31  1  0
  1 32  1  0
  1 33  1  0
  4 34  1  0
  5 35  1  0
  8 36  1  0
  8 37  1  0
  8 38  1  0
 10 39  1  0
 10 40  1  0
 11 41  1  0
 15 42  1  0
 16 43  1  0
 17 44  1  0
 19 45  1  0
 19 46  1  0
 19 47  1  0
 20 48  1  0
 23 49  1  0
 24 50  1  0
 25 51  1  0
 26 52  1  0
 30 53  1  0
M  END
$$$$
