
     RDKit          3D

 50 50  0  0  0  0  0  0  0  0999 V2000
    9.2802    1.9092    0.5364 C   0  0  0  0  0  0  0  0  0  0  0  0
    7.9863    1.7062    0.8407 C   0  0  0  0  0  0  0  0  0  0  0  0
    6.9627    2.7919    0.6466 C   0  0  0  0  0  0  0  0  0  0  0  0
    7.5047    0.4115    1.4524 C   0  0  0  0  0  0  0  0  0  0  0  0
    6.7439   -0.6608    0.2054 S   0  0  0  0  0  0  0  0  0  0  0  0
    5.0693   -0.2322    0.3433 C   0  0  0  0  0  0  0  0  0  0  0  0
    4.5417    0.5131    1.2940 N   0  0  0  0  0  0  0  0  0  0  0  0
    3.1891    0.5954    1.0371 N   0  0  0  0  0  0  0  0  0  0  0  0
    2.9829   -0.1112   -0.0517 C   0  0  0  0  0  0  0  0  0  0  0  0
    1.7193   -0.3801   -0.7760 C   0  0  0  0  0  0  0  0  0  0  0  0
    1.1255   -1.7286   -0.3661 C   0  0  0  0  0  0  0  0  0  0  0  0
   -0.1434   -2.0955   -1.1408 C   0  0  0  0  0  0  0  0  0  0  0  0
   -1.3293   -1.1437   -0.9610 C   0  0  0  0  0  0  0  0  0  0  0  0
   -1.8182   -1.0496    0.4838 C   0  0  0  0  0  0  0  0  0  0  0  0
   -2.9950   -0.2204    0.5920 N   0  0  0  0  0  0  0  0  0  0  0  0
   -4.2507   -0.6793    0.3305 C   0  0  0  0  0  0  0  0  0  0  0  0
   -4.5275   -1.8282    0.0263 O   0  0  0  0  0  0  0  0  0  0  0  0
   -5.1196    0.3489    0.4553 O   0  0  0  0  0  0  0  0  0  0  0  0
   -6.5382    0.1502    0.2265 C   0  0  0  0  0  0  0  0  0  0  0  0
   -7.1680    1.5320    0.4617 C   0  0  0  0  0  0  0  0  0  0  0  0
   -6.8155   -0.2735   -1.2206 C   0  0  0  0  0  0  0  0  0  0  0  0
   -7.1326   -0.8372    1.2371 C   0  0  0  0  0  0  0  0  0  0  0  0
    4.1258   -0.6675   -0.5527 O   0  0  0  0  0  0  0  0  0  0  0  0
    9.6253    2.8493    0.1150 H   0  0  0  0  0  0  0  0  0  0  0  0
   10.0293    1.1375    0.6888 H   0  0  0  0  0  0  0  0  0  0  0  0
    6.4211    2.9790    1.5802 H   0  0  0  0  0  0  0  0  0  0  0  0
    7.4237    3.7379    0.3426 H   0  0  0  0  0  0  0  0  0  0  0  0
    6.2430    2.5141   -0.1285 H   0  0  0  0  0  0  0  0  0  0  0  0
    8.3572   -0.1446    1.8600 H   0  0  0  0  0  0  0  0  0  0  0  0
    6.8449    0.6002    2.3058 H   0  0  0  0  0  0  0  0  0  0  0  0
    1.9045   -0.3620   -1.8562 H   0  0  0  0  0  0  0  0  0  0  0  0
    1.0147    0.4293   -0.5559 H   0  0  0  0  0  0  0  0  0  0  0  0
    1.8686   -2.5181   -0.5413 H   0  0  0  0  0  0  0  0  0  0  0  0
    0.9268   -1.7406    0.7122 H   0  0  0  0  0  0  0  0  0  0  0  0
    0.0974   -2.1534   -2.2097 H   0  0  0  0  0  0  0  0  0  0  0  0
   -0.4523   -3.1044   -0.8404 H   0  0  0  0  0  0  0  0  0  0  0  0
   -2.1488   -1.5006   -1.5981 H   0  0  0  0  0  0  0  0  0  0  0  0
   -1.0780   -0.1440   -1.3345 H   0  0  0  0  0  0  0  0  0  0  0  0
   -2.0526   -2.0467    0.8721 H   0  0  0  0  0  0  0  0  0  0  0  0
   -1.0570   -0.5988    1.1269 H   0  0  0  0  0  0  0  0  0  0  0  0
   -2.9151    0.7700    0.7735 H   0  0  0  0  0  0  0  0  0  0  0  0
   -6.7407    2.2761   -0.2207 H   0  0  0  0  0  0  0  0  0  0  0  0
   -8.2534    1.5152    0.3182 H   0  0  0  0  0  0  0  0  0  0  0  0
   -6.9584    1.8886    1.4770 H   0  0  0  0  0  0  0  0  0  0  0  0
   -6.3062    0.3945   -1.9249 H   0  0  0  0  0  0  0  0  0  0  0  0
   -7.8884   -0.2596   -1.4411 H   0  0  0  0  0  0  0  0  0  0  0  0
   -6.4520   -1.2848   -1.4280 H   0  0  0  0  0  0  0  0  0  0  0  0
   -6.8492   -0.5647    2.2596 H   0  0  0  0  0  0  0  0  0  0  0  0
   -8.2260   -0.8630    1.1742 H   0  0  0  0  0  0  0  0  0  0  0  0
   -6.7720   -1.8568    1.0728 H   0  0  0  0  0  0  0  0  0  0  0  0
  1  2  2  0
  2  3  1  0
  2  4  1  0
  4  5  1  0
  5  6  1  0
  6  7  2  0
  7  8  1  0
  8  9  2  0
  9 10  1  0
 10 11  1  0
 11 12  1  0
 12 13  1  0
 13 14  1  0
 14 15  1  0
 15 16  1  0
 16 17  2  0
 16 18  1  0
 18 19  1  0
 19 20  1  0
 19 21  1  0
 19 22  1  0
  9 23  1  0
 23  6  1  0
  1 24  1  0
  1 25  1  0
  3 26  1  0
  3 27  1  0
  3 28  1  0
  4 29  1  0
  4 30  1  0
 10 31  1  0
 10 32  1  0
 11 33  1  0
 11 34  1  0
 12 35  1  0
 12 36  1  0
 13 37  1  0
 13 38  1  0
 14 39  1  0
 14 40  1  0
 15 41  1  0
 20 42  1  0
 20 43  1  0
 20 44  1  0
 21 45  1  0
 21 46  1  0
 21 47  1  0
 22 48  1  0
 22 49  1  0
 22 50  1  0
M  END
$$$$
