
     RDKit          3D

 33 35  0  0  0  0  0  0  0  0999 V2000
    4.2001    1.6545   -0.6886 C   0  0  0  0  0  0  0  0  0  0  0  0
    3.3977    0.5489   -0.1306 C   0  0  0  0  0  0  0  0  0  0  0  0
    3.6560   -0.4429    0.7837 C   0  0  0  0  0  0  0  0  0  0  0  0
    2.4638   -1.1977    0.8874 C   0  0  0  0  0  0  0  0  0  0  0  0
    1.5279   -0.6417    0.0200 C   0  0  0  0  0  0  0  0  0  0  0  0
    0.1650   -1.0232   -0.2433 C   0  0  0  0  0  0  0  0  0  0  0  0
   -0.9601   -0.1210    0.0710 C   0  0  0  0  0  0  0  0  0  0  0  0
   -2.2211   -0.4853   -0.2239 C   0  0  0  0  0  0  0  0  0  0  0  0
   -2.4586   -1.7057   -0.8014 N   0  0  0  0  0  0  0  0  0  0  0  0
   -1.4874   -2.6228   -1.1261 C   0  0  0  0  0  0  0  0  0  0  0  0
   -2.0152   -4.0633   -1.8130 S   0  0  0  0  0  0  0  0  0  0  0  0
   -0.0684   -2.2262   -0.8280 C   0  0  0  0  0  0  0  0  0  0  0  0
    0.9813   -3.1267   -1.1895 C   0  0  0  0  0  0  0  0  0  0  0  0
    1.8453   -3.8539   -1.4603 N   0  0  0  0  0  0  0  0  0  0  0  0
   -3.4268    0.3815    0.0337 C   0  0  0  0  0  0  0  0  0  0  0  0
   -3.0669    1.8334    0.3448 C   0  0  0  0  0  0  0  0  0  0  0  0
   -1.8964    1.9020    1.3153 C   0  0  0  0  0  0  0  0  0  0  0  0
   -0.6601    1.2068    0.7376 C   0  0  0  0  0  0  0  0  0  0  0  0
    2.1222    0.4434   -0.5859 O   0  0  0  0  0  0  0  0  0  0  0  0
    3.7275    2.6175   -0.4724 H   0  0  0  0  0  0  0  0  0  0  0  0
    4.2929    1.5503   -1.7740 H   0  0  0  0  0  0  0  0  0  0  0  0
    5.2069    1.6648   -0.2597 H   0  0  0  0  0  0  0  0  0  0  0  0
    4.5868   -0.6050    1.3093 H   0  0  0  0  0  0  0  0  0  0  0  0
    2.3014   -2.0597    1.5209 H   0  0  0  0  0  0  0  0  0  0  0  0
   -3.4154   -1.9745   -1.0148 H   0  0  0  0  0  0  0  0  0  0  0  0
   -4.0957    0.3673   -0.8356 H   0  0  0  0  0  0  0  0  0  0  0  0
   -3.9865   -0.0434    0.8765 H   0  0  0  0  0  0  0  0  0  0  0  0
   -2.8044    2.3568   -0.5834 H   0  0  0  0  0  0  0  0  0  0  0  0
   -3.9379    2.3480    0.7659 H   0  0  0  0  0  0  0  0  0  0  0  0
   -1.6573    2.9466    1.5446 H   0  0  0  0  0  0  0  0  0  0  0  0
   -2.1781    1.4245    2.2626 H   0  0  0  0  0  0  0  0  0  0  0  0
    0.0558    1.0751    1.5579 H   0  0  0  0  0  0  0  0  0  0  0  0
   -0.1942    1.8716   -0.0010 H   0  0  0  0  0  0  0  0  0  0  0  0
  1  2  1  0
  2  3  2  0
  3  4  1  0
  4  5  2  0
  5  6  1  0
  6  7  1  0
  7  8  2  0
  8  9  1  0
  9 10  1  0
 10 11  2  0
 10 12  1  0
 12 13  1  0
 13 14  3  0
  8 15  1  0
 15 16  1  0
 16 17  1  0
 17 18  1  0
  5 19  1  0
 19  2  1  0
 12  6  2  0
 18  7  1  0
  1 20  1  0
  1 21  1  0
  1 22  1  0
  3 23  1  0
  4 24  1  0
  9 25  1  0
 15 26  1  0
 15 27  1  0
 16 28  1  0
 16 29  1  0
 17 30  1  0
 17 31  1  0
 18 32  1  0
 18 33  1  0
M  END
$$$$
