
     RDKit          3D

 30 31  0  0  0  0  0  0  0  0999 V2000
   -3.6493    0.4327   -1.5838 C   0  0  0  0  0  0  0  0  0  0  0  0
   -2.5339    0.8072   -0.6766 C   0  0  0  0  0  0  0  0  0  0  0  0
   -2.7956    1.1437    0.5942 N   0  0  0  0  0  0  0  0  0  0  0  0
   -1.5874    1.4444    1.1162 N   0  0  0  0  0  0  0  0  0  0  0  0
   -1.5218    1.8967    2.4886 C   0  0  0  0  0  0  0  0  0  0  0  0
   -0.5543    1.2604    0.2320 C   0  0  0  0  0  0  0  0  0  0  0  0
    1.1010    1.5045    0.7136 S   0  0  0  0  0  0  0  0  0  0  0  0
    1.6598   -0.2013    0.6184 C   0  0  0  0  0  0  0  0  0  0  0  0
    1.2512   -1.1039    1.6129 C   0  0  0  0  0  0  0  0  0  0  0  0
    1.6941   -2.4263    1.5946 C   0  0  0  0  0  0  0  0  0  0  0  0
    2.5673   -2.8498    0.5980 C   0  0  0  0  0  0  0  0  0  0  0  0
    2.9863   -1.9557   -0.3890 C   0  0  0  0  0  0  0  0  0  0  0  0
    2.5058   -0.6402   -0.4221 C   0  0  0  0  0  0  0  0  0  0  0  0
    3.0476    0.2515   -1.3678 N   0  0  0  0  0  0  0  0  0  0  0  0
   -1.1469    0.8881   -0.9589 C   0  0  0  0  0  0  0  0  0  0  0  0
   -0.5065    0.6385   -2.2112 N   0  0  0  0  0  4  0  0  0  0  0  0
    0.4967    1.3108   -2.4857 O   0  0  0  0  0  0  0  0  0  0  0  0
   -1.0232   -0.2144   -2.9436 O   0  0  0  0  0  1  0  0  0  0  0  0
   -3.6058   -0.6351   -1.8206 H   0  0  0  0  0  0  0  0  0  0  0  0
   -3.5958    1.0014   -2.5175 H   0  0  0  0  0  0  0  0  0  0  0  0
   -4.6231    0.6366   -1.1262 H   0  0  0  0  0  0  0  0  0  0  0  0
   -0.9829    1.1496    3.0757 H   0  0  0  0  0  0  0  0  0  0  0  0
   -1.0112    2.8623    2.5153 H   0  0  0  0  0  0  0  0  0  0  0  0
   -2.5356    2.0115    2.8824 H   0  0  0  0  0  0  0  0  0  0  0  0
    0.5973   -0.7831    2.4190 H   0  0  0  0  0  0  0  0  0  0  0  0
    1.3757   -3.1190    2.3696 H   0  0  0  0  0  0  0  0  0  0  0  0
    2.9381   -3.8717    0.5954 H   0  0  0  0  0  0  0  0  0  0  0  0
    3.6965   -2.2948   -1.1393 H   0  0  0  0  0  0  0  0  0  0  0  0
    3.3249   -0.1921   -2.2376 H   0  0  0  0  0  0  0  0  0  0  0  0
    2.4310    1.0474   -1.5460 H   0  0  0  0  0  0  0  0  0  0  0  0
  1  2  1  0
  2  3  2  0
  3  4  1  0
  4  5  1  0
  4  6  1  0
  6  7  1  0
  7  8  1  0
  8  9  2  0
  9 10  1  0
 10 11  2  0
 11 12  1  0
 12 13  2  0
 13 14  1  0
  6 15  2  0
 15 16  1  0
 16 17  2  0
 16 18  1  0
 15  2  1  0
 13  8  1  0
  1 19  1  0
  1 20  1  0
  1 21  1  0
  5 22  1  0
  5 23  1  0
  5 24  1  0
  9 25  1  0
 10 26  1  0
 11 27  1  0
 12 28  1  0
 14 29  1  0
 14 30  1  0
M  CHG  2  16   1  18  -1
M  END
$$$$
