
     RDKit          3D

 43 45  0  0  0  0  0  0  0  0999 V2000
   -5.5238   -1.7405    1.5817 C   0  0  0  0  0  0  0  0  0  0  0  0
   -4.9127   -1.1988    0.3711 N   0  0  0  0  0  0  0  0  0  0  0  0
   -4.4648    0.1980    0.5496 C   0  0  0  0  0  0  0  0  0  0  0  0
   -2.9520    0.3734    0.8173 C   0  0  0  0  0  0  0  0  0  0  0  0
   -2.1485   -0.2246   -0.2679 N   0  0  0  0  0  0  0  0  0  0  0  0
   -0.8362    0.1623   -0.4847 C   0  0  0  0  0  0  0  0  0  0  0  0
   -0.0360    0.5482    0.6093 C   0  0  0  0  0  0  0  0  0  0  0  0
    1.3098    0.9258    0.4718 C   0  0  0  0  0  0  0  0  0  0  0  0
    1.9125    0.9284   -0.7855 C   0  0  0  0  0  0  0  0  0  0  0  0
    3.3201    1.3533   -0.9807 C   0  0  0  0  0  0  0  0  0  0  0  0
    3.6227    1.9548   -2.0066 O   0  0  0  0  0  0  0  0  0  0  0  0
    4.3664    1.0735    0.0327 C   0  0  0  0  0  0  0  0  0  0  0  0
    4.3984   -0.1362    0.7384 C   0  0  0  0  0  0  0  0  0  0  0  0
    5.4128   -0.3707    1.6717 C   0  0  0  0  0  0  0  0  0  0  0  0
    6.3941    0.5973    1.8879 C   0  0  0  0  0  0  0  0  0  0  0  0
    7.7658    0.2744    3.1495 Br  0  0  0  0  0  0  0  0  0  0  0  0
    6.3782    1.7955    1.1747 C   0  0  0  0  0  0  0  0  0  0  0  0
    5.3673    2.0308    0.2399 C   0  0  0  0  0  0  0  0  0  0  0  0
    1.1556    0.5909   -1.9034 C   0  0  0  0  0  0  0  0  0  0  0  0
   -0.1895    0.2155   -1.7371 C   0  0  0  0  0  0  0  0  0  0  0  0
   -0.9157   -0.0292   -2.9623 N   0  0  0  0  0  4  0  0  0  0  0  0
   -1.6128    0.8920   -3.4062 O   0  0  0  0  0  0  0  0  0  0  0  0
   -0.7480   -1.1333   -3.4983 O   0  0  0  0  0  1  0  0  0  0  0  0
   -2.7758   -1.3501   -0.9909 C   0  0  0  0  0  0  0  0  0  0  0  0
   -3.8117   -2.0702   -0.0944 C   0  0  0  0  0  0  0  0  0  0  0  0
   -6.4031   -1.1505    1.8653 H   0  0  0  0  0  0  0  0  0  0  0  0
   -4.8282   -1.7507    2.4280 H   0  0  0  0  0  0  0  0  0  0  0  0
   -5.8749   -2.7650    1.4109 H   0  0  0  0  0  0  0  0  0  0  0  0
   -4.7061    0.7297   -0.3814 H   0  0  0  0  0  0  0  0  0  0  0  0
   -5.0408    0.7050    1.3356 H   0  0  0  0  0  0  0  0  0  0  0  0
   -2.6943   -0.0966    1.7751 H   0  0  0  0  0  0  0  0  0  0  0  0
   -2.7427    1.4483    0.8933 H   0  0  0  0  0  0  0  0  0  0  0  0
   -0.4488    0.5438    1.6159 H   0  0  0  0  0  0  0  0  0  0  0  0
    1.8587    1.2303    1.3595 H   0  0  0  0  0  0  0  0  0  0  0  0
    3.6606   -0.9131    0.5568 H   0  0  0  0  0  0  0  0  0  0  0  0
    5.4377   -1.3139    2.2130 H   0  0  0  0  0  0  0  0  0  0  0  0
    7.1497    2.5459    1.3297 H   0  0  0  0  0  0  0  0  0  0  0  0
    5.3626    2.9597   -0.3285 H   0  0  0  0  0  0  0  0  0  0  0  0
    1.5992    0.6369   -2.8971 H   0  0  0  0  0  0  0  0  0  0  0  0
   -3.2738   -0.9788   -1.8940 H   0  0  0  0  0  0  0  0  0  0  0  0
   -2.0203   -2.0877   -1.2858 H   0  0  0  0  0  0  0  0  0  0  0  0
   -3.2702   -2.4922    0.7647 H   0  0  0  0  0  0  0  0  0  0  0  0
   -4.2415   -2.9119   -0.6496 H   0  0  0  0  0  0  0  0  0  0  0  0
  1  2  1  0
  2  3  1  0
  3  4  1  0
  4  5  1  0
  5  6  1  0
  6  7  2  0
  7  8  1  0
  8  9  2  0
  9 10  1  0
 10 11  2  0
 10 12  1  0
 12 13  2  0
 13 14  1  0
 14 15  2  0
 15 16  1  0
 15 17  1  0
 17 18  2  0
  9 19  1  0
 19 20  2  0
 20 21  1  0
 21 22  2  0
 21 23  1  0
  5 24  1  0
 24 25  1  0
 25  2  1  0
 20  6  1  0
 18 12  1  0
  1 26  1  0
  1 27  1  0
  1 28  1  0
  3 29  1  0
  3 30  1  0
  4 31  1  0
  4 32  1  0
  7 33  1  0
  8 34  1  0
 13 35  1  0
 14 36  1  0
 17 37  1  0
 18 38  1  0
 19 39  1  0
 24 40  1  0
 24 41  1  0
 25 42  1  0
 25 43  1  0
M  CHG  2  21   1  23  -1
M  END
$$$$
