
     RDKit          3D

 50 52  0  0  0  0  0  0  0  0999 V2000
   -3.3614   -1.3448   -3.3544 C   0  0  0  0  0  0  0  0  0  0  0  0
   -3.9495   -0.2861   -2.6110 O   0  0  0  0  0  0  0  0  0  0  0  0
   -3.4568   -0.0416   -1.3557 C   0  0  0  0  0  0  0  0  0  0  0  0
   -2.4313   -0.7625   -0.7483 C   0  0  0  0  0  0  0  0  0  0  0  0
   -1.9997   -0.3991    0.5330 C   0  0  0  0  0  0  0  0  0  0  0  0
   -0.9129   -1.1572    1.1801 C   0  0  0  0  0  0  0  0  0  0  0  0
   -1.2134   -1.8598    2.1407 O   0  0  0  0  0  0  0  0  0  0  0  0
    0.3787   -1.0262    0.6844 N   0  0  0  0  0  0  0  0  0  0  0  0
    1.3888   -1.9957    1.1308 C   0  0  0  0  0  0  0  0  0  0  0  0
    2.8018   -1.3925    1.2222 C   0  0  0  0  0  0  0  0  0  0  0  0
    3.1417   -0.6997   -0.0453 N   0  0  0  0  0  0  0  0  0  0  0  0
    4.5127   -0.3837   -0.1307 C   0  0  0  0  0  0  0  0  0  0  0  0
    5.0078    0.8824    0.2256 C   0  0  0  0  0  0  0  0  0  0  0  0
    6.3738    1.1699    0.1482 C   0  0  0  0  0  0  0  0  0  0  0  0
    6.9412    2.7315    0.5989 Cl  0  0  0  0  0  0  0  0  0  0  0  0
    7.2809    0.2077   -0.2836 C   0  0  0  0  0  0  0  0  0  0  0  0
    6.8185   -1.0562   -0.6428 C   0  0  0  0  0  0  0  0  0  0  0  0
    5.4517   -1.3501   -0.5675 C   0  0  0  0  0  0  0  0  0  0  0  0
    4.9538   -2.9334   -1.0691 Cl  0  0  0  0  0  0  0  0  0  0  0  0
    2.1752    0.3688   -0.3678 C   0  0  0  0  0  0  0  0  0  0  0  0
    0.7575   -0.2242   -0.4928 C   0  0  0  0  0  0  0  0  0  0  0  0
   -2.5984    0.6477    1.2416 C   0  0  0  0  0  0  0  0  0  0  0  0
   -3.6269    1.3766    0.6487 C   0  0  0  0  0  0  0  0  0  0  0  0
   -4.2753    2.4340    1.2318 O   0  0  0  0  0  0  0  0  0  0  0  0
   -3.8862    2.7965    2.5498 C   0  0  0  0  0  0  0  0  0  0  0  0
   -4.0525    1.0198   -0.6462 C   0  0  0  0  0  0  0  0  0  0  0  0
   -5.0315    1.7706   -1.2618 O   0  0  0  0  0  0  0  0  0  0  0  0
   -6.3160    1.2209   -0.9725 C   0  0  0  0  0  0  0  0  0  0  0  0
   -2.2984   -1.1561   -3.5374 H   0  0  0  0  0  0  0  0  0  0  0  0
   -3.5127   -2.3078   -2.8559 H   0  0  0  0  0  0  0  0  0  0  0  0
   -3.8632   -1.3906   -4.3257 H   0  0  0  0  0  0  0  0  0  0  0  0
   -1.9515   -1.6036   -1.2368 H   0  0  0  0  0  0  0  0  0  0  0  0
    1.3809   -2.8118    0.3976 H   0  0  0  0  0  0  0  0  0  0  0  0
    1.1120   -2.4241    2.0997 H   0  0  0  0  0  0  0  0  0  0  0  0
    2.8405   -0.6758    2.0532 H   0  0  0  0  0  0  0  0  0  0  0  0
    3.5108   -2.1980    1.4463 H   0  0  0  0  0  0  0  0  0  0  0  0
    4.3375    1.6560    0.5869 H   0  0  0  0  0  0  0  0  0  0  0  0
    8.3422    0.4338   -0.3437 H   0  0  0  0  0  0  0  0  0  0  0  0
    7.5236   -1.8088   -0.9867 H   0  0  0  0  0  0  0  0  0  0  0  0
    2.4401    0.8531   -1.3152 H   0  0  0  0  0  0  0  0  0  0  0  0
    2.1665    1.1310    0.4215 H   0  0  0  0  0  0  0  0  0  0  0  0
    0.0481    0.5931   -0.6482 H   0  0  0  0  0  0  0  0  0  0  0  0
    0.7041   -0.8914   -1.3614 H   0  0  0  0  0  0  0  0  0  0  0  0
   -2.2382    0.8645    2.2418 H   0  0  0  0  0  0  0  0  0  0  0  0
   -4.0653    1.9773    3.2539 H   0  0  0  0  0  0  0  0  0  0  0  0
   -2.8410    3.1215    2.5772 H   0  0  0  0  0  0  0  0  0  0  0  0
   -4.5059    3.6432    2.8604 H   0  0  0  0  0  0  0  0  0  0  0  0
   -6.4088    0.1984   -1.3546 H   0  0  0  0  0  0  0  0  0  0  0  0
   -6.5288    1.2441    0.1018 H   0  0  0  0  0  0  0  0  0  0  0  0
   -7.0650    1.8383   -1.4775 H   0  0  0  0  0  0  0  0  0  0  0  0
  1  2  1  0
  2  3  1  0
  3  4  2  0
  4  5  1  0
  5  6  1  0
  6  7  2  0
  6  8  1  0
  8  9  1  0
  9 10  1  0
 10 11  1  0
 11 12  1  0
 12 13  2  0
 13 14  1  0
 14 15  1  0
 14 16  2  0
 16 17  1  0
 17 18  2  0
 18 19  1  0
 11 20  1  0
 20 21  1  0
  5 22  2  0
 22 23  1  0
 23 24  1  0
 24 25  1  0
 23 26  2  0
 26 27  1  0
 27 28  1  0
 26  3  1  0
 21  8  1  0
 18 12  1  0
  1 29  1  0
  1 30  1  0
  1 31  1  0
  4 32  1  0
  9 33  1  0
  9 34  1  0
 10 35  1  0
 10 36  1  0
 13 37  1  0
 16 38  1  0
 17 39  1  0
 20 40  1  0
 20 41  1  0
 21 42  1  0
 21 43  1  0
 22 44  1  0
 25 45  1  0
 25 46  1  0
 25 47  1  0
 28 48  1  0
 28 49  1  0
 28 50  1  0
M  END
$$$$
