
     RDKit          3D

 42 44  0  0  0  0  0  0  0  0999 V2000
    4.2678    0.4316   -0.3620 C   0  0  0  0  0  0  0  0  0  0  0  0
    3.8256    0.3000    1.0933 C   0  0  0  0  0  0  0  0  0  0  0  0
    5.0443    0.2274    2.0124 C   0  0  0  0  0  0  0  0  0  0  0  0
    2.8401   -1.2313    1.3298 S   0  0  0  0  0  0  0  0  0  0  0  0
    1.2510   -0.7576    0.6576 C   0  0  0  0  0  0  0  0  0  0  0  0
    0.2909   -1.7351    0.4987 C   0  0  0  0  0  0  0  0  0  0  0  0
   -0.9321   -1.3535   -0.0132 C   0  0  0  0  0  0  0  0  0  0  0  0
   -1.9441   -2.2649   -0.2256 N   0  0  0  0  0  0  0  0  0  0  0  0
   -2.0841   -3.4940    0.5499 C   0  0  0  0  0  0  0  0  0  0  0  0
   -3.5905   -3.7593    0.5738 C   0  0  0  0  0  0  0  0  0  0  0  0
   -4.1031   -3.0402   -0.6635 C   0  0  0  0  0  0  0  0  0  0  0  0
   -3.2404   -1.7831   -0.6949 C   0  0  0  0  0  0  0  0  0  0  0  0
   -1.1488   -0.0735   -0.3581 N   0  0  0  0  0  0  0  0  0  0  0  0
   -0.1715    0.8210   -0.1441 C   0  0  0  0  0  0  0  0  0  0  0  0
   -0.4107    2.2117   -0.5450 C   0  0  0  0  0  0  0  0  0  0  0  0
    0.5574    2.8757   -1.3309 C   0  0  0  0  0  0  0  0  0  0  0  0
    0.3796    4.1946   -1.7569 C   0  0  0  0  0  0  0  0  0  0  0  0
   -0.7721    4.8867   -1.4023 C   0  0  0  0  0  0  0  0  0  0  0  0
   -1.7389    4.2614   -0.6171 C   0  0  0  0  0  0  0  0  0  0  0  0
   -1.5619    2.9375   -0.1877 C   0  0  0  0  0  0  0  0  0  0  0  0
   -2.7992    2.2892    0.8385 Cl  0  0  0  0  0  0  0  0  0  0  0  0
    1.0422    0.5271    0.3442 N   0  0  0  0  0  0  0  0  0  0  0  0
    4.8634    1.3415   -0.4962 H   0  0  0  0  0  0  0  0  0  0  0  0
    4.8882   -0.4156   -0.6761 H   0  0  0  0  0  0  0  0  0  0  0  0
    3.4158    0.5008   -1.0455 H   0  0  0  0  0  0  0  0  0  0  0  0
    3.2352    1.1735    1.3891 H   0  0  0  0  0  0  0  0  0  0  0  0
    5.6886   -0.6265    1.7733 H   0  0  0  0  0  0  0  0  0  0  0  0
    5.6508    1.1346    1.9120 H   0  0  0  0  0  0  0  0  0  0  0  0
    4.7464    0.1511    3.0642 H   0  0  0  0  0  0  0  0  0  0  0  0
    0.5022   -2.7647    0.7521 H   0  0  0  0  0  0  0  0  0  0  0  0
   -1.5557   -4.3096    0.0442 H   0  0  0  0  0  0  0  0  0  0  0  0
   -1.7066   -3.4053    1.5748 H   0  0  0  0  0  0  0  0  0  0  0  0
   -4.0326   -3.3128    1.4729 H   0  0  0  0  0  0  0  0  0  0  0  0
   -3.8267   -4.8271    0.5747 H   0  0  0  0  0  0  0  0  0  0  0  0
   -3.9182   -3.6505   -1.5557 H   0  0  0  0  0  0  0  0  0  0  0  0
   -5.1719   -2.8153   -0.6130 H   0  0  0  0  0  0  0  0  0  0  0  0
   -3.1880   -1.3663   -1.7063 H   0  0  0  0  0  0  0  0  0  0  0  0
   -3.6517   -1.0305   -0.0107 H   0  0  0  0  0  0  0  0  0  0  0  0
    1.4656    2.3489   -1.6227 H   0  0  0  0  0  0  0  0  0  0  0  0
    1.1414    4.6760   -2.3654 H   0  0  0  0  0  0  0  0  0  0  0  0
   -0.9163    5.9131   -1.7300 H   0  0  0  0  0  0  0  0  0  0  0  0
   -2.6315    4.8136   -0.3324 H   0  0  0  0  0  0  0  0  0  0  0  0
  1  2  1  0
  2  3  1  0
  2  4  1  0
  4  5  1  0
  5  6  2  0
  6  7  1  0
  7  8  1  0
  8  9  1  0
  9 10  1  0
 10 11  1  0
 11 12  1  0
  7 13  2  0
 13 14  1  0
 14 15  1  0
 15 16  2  0
 16 17  1  0
 17 18  2  0
 18 19  1  0
 19 20  2  0
 20 21  1  0
 14 22  2  0
 22  5  1  0
 12  8  1  0
 20 15  1  0
  1 23  1  0
  1 24  1  0
  1 25  1  0
  2 26  1  0
  3 27  1  0
  3 28  1  0
  3 29  1  0
  6 30  1  0
  9 31  1  0
  9 32  1  0
 10 33  1  0
 10 34  1  0
 11 35  1  0
 11 36  1  0
 12 37  1  0
 12 38  1  0
 16 39  1  0
 17 40  1  0
 18 41  1  0
 19 42  1  0
M  END
$$$$
