
     RDKit          3D

 45 48  0  0  0  0  0  0  0  0999 V2000
    5.9899   -2.8688    1.1501 C   0  0  0  0  0  0  0  0  0  0  0  0
    5.0146   -2.1817    1.9233 O   0  0  0  0  0  0  0  0  0  0  0  0
    4.2944   -1.2090    1.2867 C   0  0  0  0  0  0  0  0  0  0  0  0
    3.3559   -0.5572    2.0887 C   0  0  0  0  0  0  0  0  0  0  0  0
    2.5512    0.4582    1.5660 C   0  0  0  0  0  0  0  0  0  0  0  0
    2.6763    0.8421    0.2254 C   0  0  0  0  0  0  0  0  0  0  0  0
    1.7908    1.9261   -0.3530 C   0  0  0  0  0  0  0  0  0  0  0  0
    0.5207    1.3956   -0.8275 N   0  0  0  0  0  0  0  0  0  0  0  0
    0.4806    0.9340   -2.1434 C   0  0  0  0  0  0  0  0  0  0  0  0
    1.4164    0.9784   -2.9357 O   0  0  0  0  0  0  0  0  0  0  0  0
   -0.7867    0.4170   -2.5066 C   0  0  0  0  0  0  0  0  0  0  0  0
   -1.2148   -0.0777   -3.7039 N   0  0  0  0  0  0  0  0  0  0  0  0
   -2.5360   -0.3954   -3.5473 C   0  0  0  0  0  0  0  0  0  0  0  0
   -2.9530   -0.1383   -2.3252 N   0  0  0  0  0  0  0  0  0  0  0  0
   -1.8570    0.3489   -1.6660 C   0  0  0  0  0  0  0  0  0  0  0  0
   -1.7613    0.7946   -0.3602 N   0  0  0  0  0  0  0  0  0  0  0  0
   -2.9411    0.7780    0.4429 C   0  0  0  0  0  0  0  0  0  0  0  0
   -3.3555    1.9799    1.0481 C   0  0  0  0  0  0  0  0  0  0  0  0
   -4.5193    2.0436    1.8163 C   0  0  0  0  0  0  0  0  0  0  0  0
   -5.2886    0.9025    2.0010 C   0  0  0  0  0  0  0  0  0  0  0  0
   -4.8805   -0.3052    1.4380 C   0  0  0  0  0  0  0  0  0  0  0  0
   -3.6975   -0.3928    0.6781 C   0  0  0  0  0  0  0  0  0  0  0  0
   -3.2946   -1.7596    0.1921 C   0  0  0  0  0  0  0  0  0  0  0  0
   -0.5659    1.3939    0.0792 C   0  0  0  0  0  0  0  0  0  0  0  0
   -0.4388    1.8858    1.2060 O   0  0  0  0  0  0  0  0  0  0  0  0
    3.6152    0.1804   -0.5779 C   0  0  0  0  0  0  0  0  0  0  0  0
    4.4203   -0.8364   -0.0509 C   0  0  0  0  0  0  0  0  0  0  0  0
    5.5247   -3.4146    0.3226 H   0  0  0  0  0  0  0  0  0  0  0  0
    6.7620   -2.1822    0.7873 H   0  0  0  0  0  0  0  0  0  0  0  0
    6.4761   -3.6023    1.8005 H   0  0  0  0  0  0  0  0  0  0  0  0
    3.2474   -0.8437    3.1322 H   0  0  0  0  0  0  0  0  0  0  0  0
    1.8249    0.9440    2.2159 H   0  0  0  0  0  0  0  0  0  0  0  0
    2.3163    2.4244   -1.1774 H   0  0  0  0  0  0  0  0  0  0  0  0
    1.6272    2.7042    0.4025 H   0  0  0  0  0  0  0  0  0  0  0  0
   -0.6620   -0.1669   -4.5472 H   0  0  0  0  0  0  0  0  0  0  0  0
   -3.1372   -0.8014   -4.3507 H   0  0  0  0  0  0  0  0  0  0  0  0
   -2.7848    2.8944    0.9037 H   0  0  0  0  0  0  0  0  0  0  0  0
   -4.8241    2.9865    2.2618 H   0  0  0  0  0  0  0  0  0  0  0  0
   -6.1991    0.9474    2.5923 H   0  0  0  0  0  0  0  0  0  0  0  0
   -5.4832   -1.1950    1.6100 H   0  0  0  0  0  0  0  0  0  0  0  0
   -3.8216   -2.0093   -0.7330 H   0  0  0  0  0  0  0  0  0  0  0  0
   -3.5453   -2.5183    0.9425 H   0  0  0  0  0  0  0  0  0  0  0  0
   -2.2150   -1.8376    0.0340 H   0  0  0  0  0  0  0  0  0  0  0  0
    3.7264    0.4496   -1.6272 H   0  0  0  0  0  0  0  0  0  0  0  0
    5.1319   -1.3163   -0.7142 H   0  0  0  0  0  0  0  0  0  0  0  0
  1  2  1  0
  2  3  1  0
  3  4  2  0
  4  5  1  0
  5  6  2  0
  6  7  1  0
  7  8  1  0
  8  9  1  0
  9 10  2  0
  9 11  1  0
 11 12  1  0
 12 13  1  0
 13 14  2  0
 14 15  1  0
 15 16  1  0
 16 17  1  0
 17 18  2  0
 18 19  1  0
 19 20  2  0
 20 21  1  0
 21 22  2  0
 22 23  1  0
 16 24  1  0
 24 25  2  0
  6 26  1  0
 26 27  2  0
 27  3  1  0
 24  8  1  0
 15 11  2  0
 22 17  1  0
  1 28  1  0
  1 29  1  0
  1 30  1  0
  4 31  1  0
  5 32  1  0
  7 33  1  0
  7 34  1  0
 12 35  1  0
 13 36  1  0
 18 37  1  0
 19 38  1  0
 20 39  1  0
 21 40  1  0
 23 41  1  0
 23 42  1  0
 23 43  1  0
 26 44  1  0
 27 45  1  0
M  END
$$$$
