
     RDKit          3D

 45 46  0  0  0  0  0  0  0  0999 V2000
    5.1277   -2.6506    1.4840 C   0  0  0  0  0  0  0  0  0  0  0  0
    4.2154   -2.5340    0.2982 C   0  0  0  0  0  0  0  0  0  0  0  0
    4.4735   -3.2420   -0.8791 C   0  0  0  0  0  0  0  0  0  0  0  0
    3.6135   -3.1250   -1.9691 C   0  0  0  0  0  0  0  0  0  0  0  0
    2.5019   -2.2842   -1.8950 C   0  0  0  0  0  0  0  0  0  0  0  0
    2.2479   -1.5354   -0.7394 C   0  0  0  0  0  0  0  0  0  0  0  0
    1.0902   -0.7239   -0.7411 N   0  0  0  0  0  0  0  0  0  0  0  0
    0.7490    0.3889    0.0212 C   0  0  0  0  0  0  0  0  0  0  0  0
    1.8681    1.4024    0.7665 S   0  0  0  0  0  0  0  0  0  0  0  0
   -0.6499    0.6182    0.0435 N   0  0  0  0  0  0  0  0  0  0  0  0
   -1.2527    1.8446    0.6174 C   0  0  0  0  0  0  0  0  0  0  0  0
   -1.6006    1.6963    2.1155 C   0  0  0  0  0  0  0  0  0  0  0  0
   -2.2185    2.8997    2.7124 N   0  0  0  0  0  0  0  0  0  0  0  0
   -3.5620    3.1454    2.1886 C   0  0  0  0  0  0  0  0  0  0  0  0
   -2.2791    2.7545    4.1690 C   0  0  0  0  0  0  0  0  0  0  0  0
   -1.6200   -0.4118   -0.3610 C   0  0  0  0  0  0  0  0  0  0  0  0
   -1.9878   -0.2776   -1.8128 C   0  0  0  0  0  0  0  0  0  0  0  0
   -1.6330    0.6819   -2.7451 C   0  0  0  0  0  0  0  0  0  0  0  0
   -2.1963    0.4330   -4.0293 C   0  0  0  0  0  0  0  0  0  0  0  0
   -2.9625   -0.7123   -4.0435 C   0  0  0  0  0  0  0  0  0  0  0  0
   -3.0031   -1.4775   -2.5163 S   0  0  0  0  0  0  0  0  0  0  0  0
    3.0969   -1.6863    0.3598 C   0  0  0  0  0  0  0  0  0  0  0  0
    5.6668   -1.7101    1.6373 H   0  0  0  0  0  0  0  0  0  0  0  0
    4.5516   -2.8886    2.3829 H   0  0  0  0  0  0  0  0  0  0  0  0
    5.8658   -3.4467    1.3436 H   0  0  0  0  0  0  0  0  0  0  0  0
    5.3413   -3.8931   -0.9519 H   0  0  0  0  0  0  0  0  0  0  0  0
    3.8117   -3.6865   -2.8782 H   0  0  0  0  0  0  0  0  0  0  0  0
    1.8504   -2.2080   -2.7610 H   0  0  0  0  0  0  0  0  0  0  0  0
    0.5105   -0.8395   -1.5633 H   0  0  0  0  0  0  0  0  0  0  0  0
   -0.5795    2.6966    0.4735 H   0  0  0  0  0  0  0  0  0  0  0  0
   -2.1479    2.0686    0.0261 H   0  0  0  0  0  0  0  0  0  0  0  0
   -0.6688    1.4735    2.6516 H   0  0  0  0  0  0  0  0  0  0  0  0
   -2.2488    0.8208    2.2669 H   0  0  0  0  0  0  0  0  0  0  0  0
   -3.5289    3.3851    1.1218 H   0  0  0  0  0  0  0  0  0  0  0  0
   -4.2330    2.2897    2.3326 H   0  0  0  0  0  0  0  0  0  0  0  0
   -4.0139    4.0184    2.6770 H   0  0  0  0  0  0  0  0  0  0  0  0
   -2.9001    1.9027    4.4766 H   0  0  0  0  0  0  0  0  0  0  0  0
   -1.2748    2.6086    4.5834 H   0  0  0  0  0  0  0  0  0  0  0  0
   -2.6804    3.6632    4.6326 H   0  0  0  0  0  0  0  0  0  0  0  0
   -2.5174   -0.3218    0.2619 H   0  0  0  0  0  0  0  0  0  0  0  0
   -1.1984   -1.4046   -0.1657 H   0  0  0  0  0  0  0  0  0  0  0  0
   -0.9812    1.5227   -2.5211 H   0  0  0  0  0  0  0  0  0  0  0  0
   -2.0383    1.0585   -4.9011 H   0  0  0  0  0  0  0  0  0  0  0  0
   -3.5000   -1.1401   -4.8797 H   0  0  0  0  0  0  0  0  0  0  0  0
    2.8946   -1.1735    1.2945 H   0  0  0  0  0  0  0  0  0  0  0  0
  1  2  1  0
  2  3  2  0
  3  4  1  0
  4  5  2  0
  5  6  1  0
  6  7  1  0
  7  8  1  0
  8  9  2  0
  8 10  1  0
 10 11  1  0
 11 12  1  0
 12 13  1  0
 13 14  1  0
 13 15  1  0
 10 16  1  0
 16 17  1  0
 17 18  2  0
 18 19  1  0
 19 20  2  0
 20 21  1  0
  6 22  2  0
 22  2  1  0
 21 17  1  0
  1 23  1  0
  1 24  1  0
  1 25  1  0
  3 26  1  0
  4 27  1  0
  5 28  1  0
  7 29  1  0
 11 30  1  0
 11 31  1  0
 12 32  1  0
 12 33  1  0
 14 34  1  0
 14 35  1  0
 14 36  1  0
 15 37  1  0
 15 38  1  0
 15 39  1  0
 16 40  1  0
 16 41  1  0
 18 42  1  0
 19 43  1  0
 20 44  1  0
 22 45  1  0
M  END
$$$$
