
     RDKit          3D

 52 55  0  0  0  0  0  0  0  0999 V2000
   -6.3843   -0.9808   -0.4951 C   0  0  0  0  0  0  0  0  0  0  0  0
   -5.5922   -1.6914    0.5915 C   0  0  0  0  0  0  0  0  0  0  0  0
   -4.0756   -1.5716    0.4211 C   0  0  0  0  0  0  0  0  0  0  0  0
   -3.5601   -0.1358    0.5755 C   0  0  0  0  0  0  0  0  0  0  0  0
   -2.0727   -0.0477    0.5006 C   0  0  0  0  0  0  0  0  0  0  0  0
   -1.2577   -1.0836    0.3817 N   0  0  0  0  0  0  0  0  0  0  0  0
    0.0315   -0.6269    0.3228 N   0  0  0  0  0  0  0  0  0  0  0  0
   -0.0190    0.6824    0.3809 C   0  0  0  0  0  0  0  0  0  0  0  0
    1.0655    1.6158    0.3748 C   0  0  0  0  0  0  0  0  0  0  0  0
    2.3767    1.1202    0.1795 N   0  0  0  0  0  0  0  0  0  0  0  0
    3.5128    1.7336    0.8961 C   0  0  0  0  0  0  0  0  0  0  0  0
    2.7766    0.5333   -1.3741 S   0  0  0  0  0  6  0  0  0  0  0  0
    3.7962    1.4059   -1.9255 O   0  0  0  0  0  0  0  0  0  0  0  0
    1.5712    0.2654   -2.1287 O   0  0  0  0  0  0  0  0  0  0  0  0
    3.5549   -1.0259   -1.0123 C   0  0  0  0  0  0  0  0  0  0  0  0
    4.9497   -1.1190   -0.9865 C   0  0  0  0  0  0  0  0  0  0  0  0
    5.5556   -2.3503   -0.7284 C   0  0  0  0  0  0  0  0  0  0  0  0
    4.7756   -3.4955   -0.5206 C   0  0  0  0  0  0  0  0  0  0  0  0
    5.4261   -4.8122   -0.2122 C   0  0  0  0  0  0  0  0  0  0  0  0
    3.3789   -3.3898   -0.5581 C   0  0  0  0  0  0  0  0  0  0  0  0
    2.7674   -2.1616   -0.8170 C   0  0  0  0  0  0  0  0  0  0  0  0
    0.8723    2.8740    0.6253 N   0  0  0  0  0  0  0  0  0  0  0  0
   -0.4562    3.3260    0.8000 C   0  0  0  0  0  0  0  0  0  0  0  0
   -0.6467    4.6928    1.0158 C   0  0  0  0  0  0  0  0  0  0  0  0
   -1.9284    5.2134    1.1905 C   0  0  0  0  0  0  0  0  0  0  0  0
   -3.0346    4.3670    1.1507 C   0  0  0  0  0  0  0  0  0  0  0  0
   -2.8705    2.9956    0.9369 C   0  0  0  0  0  0  0  0  0  0  0  0
   -1.5866    2.4757    0.7599 C   0  0  0  0  0  0  0  0  0  0  0  0
   -1.3114    1.1064    0.5530 N   0  0  0  0  0  0  0  0  0  0  0  0
   -6.0827   -1.3239   -1.4897 H   0  0  0  0  0  0  0  0  0  0  0  0
   -6.2496    0.1037   -0.4464 H   0  0  0  0  0  0  0  0  0  0  0  0
   -7.4529   -1.1864   -0.3755 H   0  0  0  0  0  0  0  0  0  0  0  0
   -5.8595   -2.7548    0.5773 H   0  0  0  0  0  0  0  0  0  0  0  0
   -5.8895   -1.3034    1.5727 H   0  0  0  0  0  0  0  0  0  0  0  0
   -3.5986   -2.2130    1.1736 H   0  0  0  0  0  0  0  0  0  0  0  0
   -3.7837   -1.9710   -0.5586 H   0  0  0  0  0  0  0  0  0  0  0  0
   -3.9875    0.4833   -0.2201 H   0  0  0  0  0  0  0  0  0  0  0  0
   -3.8949    0.2530    1.5438 H   0  0  0  0  0  0  0  0  0  0  0  0
    4.4003    1.0974    0.8622 H   0  0  0  0  0  0  0  0  0  0  0  0
    3.2529    1.8570    1.9529 H   0  0  0  0  0  0  0  0  0  0  0  0
    3.7492    2.7180    0.4815 H   0  0  0  0  0  0  0  0  0  0  0  0
    5.5710   -0.2449   -1.1675 H   0  0  0  0  0  0  0  0  0  0  0  0
    6.6414   -2.4136   -0.6990 H   0  0  0  0  0  0  0  0  0  0  0  0
    5.5431   -4.9270    0.8699 H   0  0  0  0  0  0  0  0  0  0  0  0
    4.8244   -5.6436   -0.5944 H   0  0  0  0  0  0  0  0  0  0  0  0
    6.4120   -4.8815   -0.6842 H   0  0  0  0  0  0  0  0  0  0  0  0
    2.7548   -4.2660   -0.3928 H   0  0  0  0  0  0  0  0  0  0  0  0
    1.6821   -2.1053   -0.8661 H   0  0  0  0  0  0  0  0  0  0  0  0
    0.2143    5.3567    1.0435 H   0  0  0  0  0  0  0  0  0  0  0  0
   -2.0624    6.2800    1.3549 H   0  0  0  0  0  0  0  0  0  0  0  0
   -4.0326    4.7794    1.2864 H   0  0  0  0  0  0  0  0  0  0  0  0
   -3.7664    2.3903    0.9157 H   0  0  0  0  0  0  0  0  0  0  0  0
  1  2  1  0
  2  3  1  0
  3  4  1  0
  4  5  1  0
  5  6  2  0
  6  7  1  0
  7  8  2  0
  8  9  1  0
  9 10  1  0
 10 11  1  0
 10 12  1  0
 12 13  2  0
 12 14  2  0
 12 15  1  0
 15 16  2  0
 16 17  1  0
 17 18  2  0
 18 19  1  0
 18 20  1  0
 20 21  2  0
  9 22  2  0
 22 23  1  0
 23 24  2  0
 24 25  1  0
 25 26  2  0
 26 27  1  0
 27 28  2  0
 28 29  1  0
 29  5  1  0
 29  8  1  0
 21 15  1  0
 28 23  1  0
  1 30  1  0
  1 31  1  0
  1 32  1  0
  2 33  1  0
  2 34  1  0
  3 35  1  0
  3 36  1  0
  4 37  1  0
  4 38  1  0
 11 39  1  0
 11 40  1  0
 11 41  1  0
 16 42  1  0
 17 43  1  0
 19 44  1  0
 19 45  1  0
 19 46  1  0
 20 47  1  0
 21 48  1  0
 24 49  1  0
 25 50  1  0
 26 51  1  0
 27 52  1  0
M  END
$$$$
