
     RDKit          3D

 44 46  0  0  0  0  0  0  0  0999 V2000
    6.2084   -3.0323   -0.9519 C   0  0  0  0  0  0  0  0  0  0  0  0
    5.2639   -1.8867   -1.1705 C   0  0  0  0  0  0  0  0  0  0  0  0
    4.5340   -1.3591   -0.0982 C   0  0  0  0  0  0  0  0  0  0  0  0
    3.6288   -0.3131   -0.3014 C   0  0  0  0  0  0  0  0  0  0  0  0
    3.4354    0.2098   -1.5861 C   0  0  0  0  0  0  0  0  0  0  0  0
    2.4872    1.3219   -1.8607 C   0  0  0  0  0  0  0  0  0  0  0  0
    2.4388    1.9226   -2.9215 O   0  0  0  0  0  0  0  0  0  0  0  0
    1.6889    1.5459   -0.7873 O   0  0  0  0  0  0  0  0  0  0  0  0
    0.7512    2.6103   -0.9872 C   0  0  0  0  0  0  0  0  0  0  0  0
   -0.1980    2.7533    0.2021 C   0  0  0  0  0  0  0  0  0  0  0  0
   -0.9723    3.7001    0.3080 O   0  0  0  0  0  0  0  0  0  0  0  0
   -0.1093    1.7328    1.1257 N   0  0  0  0  0  0  0  0  0  0  0  0
   -1.0388    1.6002    2.2358 C   0  0  0  0  0  0  0  0  0  0  0  0
   -2.0845    0.5039    1.9900 C   0  0  0  0  0  0  0  0  0  0  0  0
   -2.9610    0.3161    3.2260 C   0  0  0  0  0  0  0  0  0  0  0  0
   -3.8609   -0.7843    3.0426 O   0  0  0  0  0  0  0  0  0  0  0  0
   -4.4737   -0.7258    1.8169 C   0  0  0  0  0  0  0  0  0  0  0  0
   -5.5960   -1.5317    1.6365 C   0  0  0  0  0  0  0  0  0  0  0  0
   -6.2827   -1.5043    0.4215 C   0  0  0  0  0  0  0  0  0  0  0  0
   -5.8451   -0.6727   -0.6110 C   0  0  0  0  0  0  0  0  0  0  0  0
   -4.7129    0.1242   -0.4348 C   0  0  0  0  0  0  0  0  0  0  0  0
   -4.0186    0.0850    0.7725 C   0  0  0  0  0  0  0  0  0  0  0  0
   -2.9021    0.8742    0.8672 O   0  0  0  0  0  0  0  0  0  0  0  0
    4.1602   -0.3208   -2.6604 C   0  0  0  0  0  0  0  0  0  0  0  0
    5.0628   -1.3672   -2.4544 C   0  0  0  0  0  0  0  0  0  0  0  0
    6.7097   -2.9422    0.0175 H   0  0  0  0  0  0  0  0  0  0  0  0
    5.6604   -3.9790   -0.9826 H   0  0  0  0  0  0  0  0  0  0  0  0
    6.9879   -3.0519   -1.7204 H   0  0  0  0  0  0  0  0  0  0  0  0
    4.6699   -1.7590    0.9047 H   0  0  0  0  0  0  0  0  0  0  0  0
    3.0903    0.0854    0.5536 H   0  0  0  0  0  0  0  0  0  0  0  0
    0.1370    2.4100   -1.8724 H   0  0  0  0  0  0  0  0  0  0  0  0
    1.2951    3.5552   -1.0959 H   0  0  0  0  0  0  0  0  0  0  0  0
    0.5122    0.9652    0.8968 H   0  0  0  0  0  0  0  0  0  0  0  0
   -0.4347    1.3556    3.1158 H   0  0  0  0  0  0  0  0  0  0  0  0
   -1.5310    2.5631    2.4103 H   0  0  0  0  0  0  0  0  0  0  0  0
   -1.5755   -0.4360    1.7342 H   0  0  0  0  0  0  0  0  0  0  0  0
   -3.5517    1.2144    3.4480 H   0  0  0  0  0  0  0  0  0  0  0  0
   -2.3476    0.0888    4.1043 H   0  0  0  0  0  0  0  0  0  0  0  0
   -5.9421   -2.1701    2.4442 H   0  0  0  0  0  0  0  0  0  0  0  0
   -7.1632   -2.1263    0.2821 H   0  0  0  0  0  0  0  0  0  0  0  0
   -6.3840   -0.6470   -1.5545 H   0  0  0  0  0  0  0  0  0  0  0  0
   -4.3674    0.7683   -1.2387 H   0  0  0  0  0  0  0  0  0  0  0  0
    4.0227    0.0756   -3.6651 H   0  0  0  0  0  0  0  0  0  0  0  0
    5.6085   -1.7720   -3.3042 H   0  0  0  0  0  0  0  0  0  0  0  0
  1  2  1  0
  2  3  2  0
  3  4  1  0
  4  5  2  0
  5  6  1  0
  6  7  2  0
  6  8  1  0
  8  9  1  0
  9 10  1  0
 10 11  2  0
 10 12  1  0
 12 13  1  0
 13 14  1  0
 14 15  1  0
 15 16  1  0
 16 17  1  0
 17 18  2  0
 18 19  1  0
 19 20  2  0
 20 21  1  0
 21 22  2  0
 22 23  1  0
  5 24  1  0
 24 25  2  0
 25  2  1  0
 23 14  1  0
 22 17  1  0
  1 26  1  0
  1 27  1  0
  1 28  1  0
  3 29  1  0
  4 30  1  0
  9 31  1  0
  9 32  1  0
 12 33  1  0
 13 34  1  0
 13 35  1  0
 14 36  1  0
 15 37  1  0
 15 38  1  0
 18 39  1  0
 19 40  1  0
 20 41  1  0
 21 42  1  0
 24 43  1  0
 25 44  1  0
M  END
$$$$
