
     RDKit          3D

 56 59  0  0  0  0  0  0  0  0999 V2000
    5.9345   -3.0695    0.7541 C   0  0  0  0  0  0  0  0  0  0  0  0
    5.4879   -1.7592    0.1299 C   0  0  0  0  0  0  0  0  0  0  0  0
    4.1508   -1.9345   -0.3531 O   0  0  0  0  0  0  0  0  0  0  0  0
    3.5444   -0.7197   -0.5597 C   0  0  0  0  0  0  0  0  0  0  0  0
    2.5492   -0.3486    0.3479 C   0  0  0  0  0  0  0  0  0  0  0  0
    1.8859    0.8702    0.1952 C   0  0  0  0  0  0  0  0  0  0  0  0
    0.8867    1.2956    1.1751 C   0  0  0  0  0  0  0  0  0  0  0  0
   -0.4167    0.9807    1.1667 C   0  0  0  0  0  0  0  0  0  0  0  0
   -1.4867    1.5319    2.3906 S   0  0  0  0  0  0  0  0  0  0  0  0
   -2.8841    0.7721    1.6477 C   0  0  0  0  0  0  0  0  0  0  0  0
   -4.1038    0.8930    2.0681 N   0  0  0  0  0  0  0  0  0  0  0  0
   -4.4050    1.6565    3.2030 C   0  0  0  0  0  0  0  0  0  0  0  0
   -4.6893    3.0201    3.0830 C   0  0  0  0  0  0  0  0  0  0  0  0
   -5.0068    3.7781    4.2121 C   0  0  0  0  0  0  0  0  0  0  0  0
   -5.0565    3.1712    5.4672 C   0  0  0  0  0  0  0  0  0  0  0  0
   -4.7996    1.8066    5.5909 C   0  0  0  0  0  0  0  0  0  0  0  0
   -4.4802    1.0508    4.4605 C   0  0  0  0  0  0  0  0  0  0  0  0
   -2.5074    0.0604    0.5167 N   0  0  0  0  0  0  0  0  0  0  0  0
   -3.4295   -0.7202   -0.2680 C   0  0  0  0  0  0  0  0  0  0  0  0
   -3.2292   -0.9205   -1.6449 C   0  0  0  0  0  0  0  0  0  0  0  0
   -4.1129   -1.6907   -2.4104 C   0  0  0  0  0  0  0  0  0  0  0  0
   -5.2162   -2.2891   -1.8119 C   0  0  0  0  0  0  0  0  0  0  0  0
   -5.4377   -2.1099   -0.4511 C   0  0  0  0  0  0  0  0  0  0  0  0
   -4.5552   -1.3323    0.3091 C   0  0  0  0  0  0  0  0  0  0  0  0
   -1.1559    0.1422    0.1763 C   0  0  0  0  0  0  0  0  0  0  0  0
   -0.5866   -0.3989   -0.7637 O   0  0  0  0  0  0  0  0  0  0  0  0
    2.2080    1.6983   -0.8844 C   0  0  0  0  0  0  0  0  0  0  0  0
    3.1823    1.3085   -1.8121 C   0  0  0  0  0  0  0  0  0  0  0  0
    3.8468    0.0879   -1.6637 C   0  0  0  0  0  0  0  0  0  0  0  0
    4.8217   -0.3543   -2.5176 O   0  0  0  0  0  0  0  0  0  0  0  0
    4.6313   -0.0221   -3.8882 C   0  0  0  0  0  0  0  0  0  0  0  0
    5.5827   -0.8119   -4.7673 C   0  0  0  0  0  0  0  0  0  0  0  0
    5.3245   -1.2697   -5.8705 O   0  0  0  0  0  0  0  0  0  0  0  0
    6.8307   -0.9235   -4.2673 O   0  0  0  0  0  0  0  0  0  0  0  0
    5.9192   -3.8767    0.0127 H   0  0  0  0  0  0  0  0  0  0  0  0
    6.9451   -2.9842    1.1610 H   0  0  0  0  0  0  0  0  0  0  0  0
    5.2526   -3.3637    1.5584 H   0  0  0  0  0  0  0  0  0  0  0  0
    5.5327   -0.9669    0.8884 H   0  0  0  0  0  0  0  0  0  0  0  0
    6.1619   -1.5074   -0.6985 H   0  0  0  0  0  0  0  0  0  0  0  0
    2.3067   -1.0161    1.1701 H   0  0  0  0  0  0  0  0  0  0  0  0
    1.2922    1.9226    1.9677 H   0  0  0  0  0  0  0  0  0  0  0  0
   -4.6638    3.4923    2.1030 H   0  0  0  0  0  0  0  0  0  0  0  0
   -5.2173    4.8380    4.1121 H   0  0  0  0  0  0  0  0  0  0  0  0
   -5.3060    3.7607    6.3464 H   0  0  0  0  0  0  0  0  0  0  0  0
   -4.8494    1.3298    6.5673 H   0  0  0  0  0  0  0  0  0  0  0  0
   -4.2916   -0.0140    4.5591 H   0  0  0  0  0  0  0  0  0  0  0  0
   -2.3955   -0.4592   -2.1707 H   0  0  0  0  0  0  0  0  0  0  0  0
   -3.9277   -1.8263   -3.4728 H   0  0  0  0  0  0  0  0  0  0  0  0
   -5.8990   -2.8936   -2.4022 H   0  0  0  0  0  0  0  0  0  0  0  0
   -6.2925   -2.5823    0.0281 H   0  0  0  0  0  0  0  0  0  0  0  0
   -4.7585   -1.2592    1.3743 H   0  0  0  0  0  0  0  0  0  0  0  0
    1.7055    2.6537   -1.0143 H   0  0  0  0  0  0  0  0  0  0  0  0
    3.4125    1.9844   -2.6293 H   0  0  0  0  0  0  0  0  0  0  0  0
    3.6100   -0.2729   -4.2013 H   0  0  0  0  0  0  0  0  0  0  0  0
    4.8396    1.0388   -4.0664 H   0  0  0  0  0  0  0  0  0  0  0  0
    7.3154   -1.4474   -4.9381 H   0  0  0  0  0  0  0  0  0  0  0  0
  1  2  1  0
  2  3  1  0
  3  4  1  0
  4  5  2  0
  5  6  1  0
  6  7  1  0
  7  8  2  3
  8  9  1  0
  9 10  1  0
 10 11  2  3
 11 12  1  0
 12 13  2  0
 13 14  1  0
 14 15  2  0
 15 16  1  0
 16 17  2  0
 10 18  1  0
 18 19  1  0
 19 20  2  0
 20 21  1  0
 21 22  2  0
 22 23  1  0
 23 24  2  0
 18 25  1  0
 25 26  2  0
  6 27  2  0
 27 28  1  0
 28 29  2  0
 29 30  1  0
 30 31  1  0
 31 32  1  0
 32 33  2  0
 32 34  1  0
 29  4  1  0
 25  8  1  0
 17 12  1  0
 24 19  1  0
  1 35  1  0
  1 36  1  0
  1 37  1  0
  2 38  1  0
  2 39  1  0
  5 40  1  0
  7 41  1  0
 13 42  1  0
 14 43  1  0
 15 44  1  0
 16 45  1  0
 17 46  1  0
 20 47  1  0
 21 48  1  0
 22 49  1  0
 23 50  1  0
 24 51  1  0
 27 52  1  0
 28 53  1  0
 31 54  1  0
 31 55  1  0
 34 56  1  0
M  END
$$$$
