
     RDKit          3D

 36 39  0  0  0  0  0  0  0  0999 V2000
   -6.1381   -0.1592   -2.6388 C   0  0  0  0  0  0  0  0  0  0  0  0
   -5.0119   -0.0951   -1.6370 C   0  0  0  0  0  0  0  0  0  0  0  0
   -5.3839   -0.0686   -0.1917 C   0  0  0  0  0  0  0  0  0  0  0  0
   -4.3744   -0.0079    0.6973 C   0  0  0  0  0  0  0  0  0  0  0  0
   -4.6668    0.0213    2.1655 C   0  0  0  0  0  0  0  0  0  0  0  0
   -3.0551    0.0230    0.2053 N   0  0  0  0  0  0  0  0  0  0  0  0
   -1.8198    0.0877    0.8217 C   0  0  0  0  0  0  0  0  0  0  0  0
   -1.3889    0.1799    2.6773 Br  0  0  0  0  0  0  0  0  0  0  0  0
   -0.8774    0.0699   -0.1880 C   0  0  0  0  0  0  0  0  0  0  0  0
    0.6127    0.1125   -0.1166 C   0  0  0  0  0  0  0  0  0  0  0  0
    1.2872   -1.5364    0.2449 S   0  0  0  0  0  0  0  0  0  0  0  0
    2.9974   -1.1704    0.2743 C   0  0  0  0  0  0  0  0  0  0  0  0
    3.4464    0.0608    0.2079 N   0  0  0  0  0  0  0  0  0  0  0  0
    4.8306    0.0549    0.2540 C   0  0  0  0  0  0  0  0  0  0  0  0
    5.6639    1.1908    0.2014 C   0  0  0  0  0  0  0  0  0  0  0  0
    7.0532    1.0380    0.2588 C   0  0  0  0  0  0  0  0  0  0  0  0
    7.6190   -0.2284    0.3680 C   0  0  0  0  0  0  0  0  0  0  0  0
    6.8148   -1.3711    0.4223 C   0  0  0  0  0  0  0  0  0  0  0  0
    5.4210   -1.2060    0.3635 C   0  0  0  0  0  0  0  0  0  0  0  0
    4.1812   -2.3994    0.4069 S   0  0  0  0  0  0  0  0  0  0  0  0
   -1.5002    0.0211   -1.4111 N   0  0  0  0  0  0  0  0  0  0  0  0
   -2.7937   -0.0105   -1.1727 C   0  0  0  0  0  0  0  0  0  0  0  0
   -3.7979   -0.0665   -2.0923 N   0  0  0  0  0  0  0  0  0  0  0  0
   -6.0900    0.7174   -3.2914 H   0  0  0  0  0  0  0  0  0  0  0  0
   -7.1142   -0.1804   -2.1477 H   0  0  0  0  0  0  0  0  0  0  0  0
   -6.0288   -1.0623   -3.2464 H   0  0  0  0  0  0  0  0  0  0  0  0
   -6.4300   -0.0981    0.0835 H   0  0  0  0  0  0  0  0  0  0  0  0
   -4.2241   -0.8431    2.6697 H   0  0  0  0  0  0  0  0  0  0  0  0
   -5.7442   -0.0181    2.3644 H   0  0  0  0  0  0  0  0  0  0  0  0
   -4.2987    0.9464    2.6191 H   0  0  0  0  0  0  0  0  0  0  0  0
    1.0124    0.4609   -1.0756 H   0  0  0  0  0  0  0  0  0  0  0  0
    0.9280    0.8248    0.6533 H   0  0  0  0  0  0  0  0  0  0  0  0
    5.2193    2.1773    0.1153 H   0  0  0  0  0  0  0  0  0  0  0  0
    7.6924    1.9169    0.2169 H   0  0  0  0  0  0  0  0  0  0  0  0
    8.7013   -0.3331    0.4111 H   0  0  0  0  0  0  0  0  0  0  0  0
    7.2576   -2.3590    0.5069 H   0  0  0  0  0  0  0  0  0  0  0  0
  1  2  1  0
  2  3  1  0
  3  4  2  0
  4  5  1  0
  4  6  1  0
  6  7  1  0
  7  8  1  0
  7  9  2  0
  9 10  1  0
 10 11  1  0
 11 12  1  0
 12 13  2  0
 13 14  1  0
 14 15  2  0
 15 16  1  0
 16 17  2  0
 17 18  1  0
 18 19  2  0
 19 20  1  0
  9 21  1  0
 21 22  2  0
 22 23  1  0
 23  2  2  0
 22  6  1  0
 20 12  1  0
 19 14  1  0
  1 24  1  0
  1 25  1  0
  1 26  1  0
  3 27  1  0
  5 28  1  0
  5 29  1  0
  5 30  1  0
 10 31  1  0
 10 32  1  0
 15 33  1  0
 16 34  1  0
 17 35  1  0
 18 36  1  0
M  END
$$$$
