
     RDKit          3D

 36 37  0  0  0  0  0  0  0  0999 V2000
   -2.9907    2.2219    1.4742 C   0  0  0  0  0  0  0  0  0  0  0  0
   -2.0606    1.4437    0.6145 C   0  0  0  0  0  0  0  0  0  0  0  0
   -0.7976    1.1612    1.1126 N   0  0  0  0  0  0  0  0  0  0  0  0
   -0.0952    0.5306    0.2092 C   0  0  0  0  0  0  0  0  0  0  0  0
    1.1937    0.0747    0.2561 N   0  0  0  0  0  0  0  0  0  0  0  0
    2.0731    0.1786    1.3036 C   0  0  0  0  0  0  0  0  0  0  0  0
    1.8485    0.8564    2.8167 S   0  0  0  0  0  0  0  0  0  0  0  0
    3.3265   -0.3622    1.0647 N   0  0  0  0  0  0  0  0  0  0  0  0
    3.8148   -0.9902   -0.0733 C   0  0  0  0  0  0  0  0  0  0  0  0
    3.1273   -1.1614   -1.0796 O   0  0  0  0  0  0  0  0  0  0  0  0
    5.1908   -1.4192    0.0436 C   0  0  0  0  0  0  0  0  0  0  0  0
    6.0252   -2.0650   -0.8484 C   0  0  0  0  0  0  0  0  0  0  0  0
    7.2691   -2.2326   -0.1939 C   0  0  0  0  0  0  0  0  0  0  0  0
    7.1216   -1.6809    1.0565 C   0  0  0  0  0  0  0  0  0  0  0  0
    5.8671   -1.1847    1.2134 O   0  0  0  0  0  0  0  0  0  0  0  0
   -0.8795    0.2111   -1.2716 S   0  0  0  0  0  0  0  0  0  0  0  0
   -2.2991    0.9530   -0.6596 C   0  0  0  0  0  0  0  0  0  0  0  0
   -3.4813    1.0363   -1.4886 C   0  0  0  0  0  0  0  0  0  0  0  0
   -3.4460    1.5412   -2.6110 O   0  0  0  0  0  0  0  0  0  0  0  0
   -4.6831    0.5436   -0.9592 N   0  0  0  0  0  0  0  0  0  0  0  0
   -5.8935    0.7314   -1.7402 C   0  0  0  0  0  0  0  0  0  0  0  0
   -4.7557   -0.4704    0.0849 C   0  0  0  0  0  0  0  0  0  0  0  0
   -2.4326    2.9012    2.1266 H   0  0  0  0  0  0  0  0  0  0  0  0
   -3.5774    1.5478    2.1052 H   0  0  0  0  0  0  0  0  0  0  0  0
   -3.6777    2.8260    0.8737 H   0  0  0  0  0  0  0  0  0  0  0  0
    1.5204   -0.3801   -0.5933 H   0  0  0  0  0  0  0  0  0  0  0  0
    3.9778   -0.2788    1.8376 H   0  0  0  0  0  0  0  0  0  0  0  0
    5.7575   -2.3734   -1.8505 H   0  0  0  0  0  0  0  0  0  0  0  0
    8.1636   -2.6979   -0.5848 H   0  0  0  0  0  0  0  0  0  0  0  0
    7.7806   -1.5676    1.9068 H   0  0  0  0  0  0  0  0  0  0  0  0
   -6.0259   -0.1324   -2.3984 H   0  0  0  0  0  0  0  0  0  0  0  0
   -6.7496    0.8165   -1.0645 H   0  0  0  0  0  0  0  0  0  0  0  0
   -5.8371    1.6387   -2.3485 H   0  0  0  0  0  0  0  0  0  0  0  0
   -5.4785   -0.1447    0.8384 H   0  0  0  0  0  0  0  0  0  0  0  0
   -3.7966   -0.6650    0.5651 H   0  0  0  0  0  0  0  0  0  0  0  0
   -5.0998   -1.4071   -0.3652 H   0  0  0  0  0  0  0  0  0  0  0  0
  1  2  1  0
  2  3  1  0
  3  4  2  0
  4  5  1  0
  5  6  1  0
  6  7  2  0
  6  8  1  0
  8  9  1  0
  9 10  2  0
  9 11  1  0
 11 12  2  0
 12 13  1  0
 13 14  2  0
 14 15  1  0
  4 16  1  0
 16 17  1  0
 17 18  1  0
 18 19  2  0
 18 20  1  0
 20 21  1  0
 20 22  1  0
 17  2  2  0
 15 11  1  0
  1 23  1  0
  1 24  1  0
  1 25  1  0
  5 26  1  0
  8 27  1  0
 12 28  1  0
 13 29  1  0
 14 30  1  0
 21 31  1  0
 21 32  1  0
 21 33  1  0
 22 34  1  0
 22 35  1  0
 22 36  1  0
M  END
$$$$
