
     RDKit          3D

 43 46  0  0  0  0  0  0  0  0999 V2000
   -0.2900    1.2733    2.9763 O   0  0  0  0  0  0  0  0  0  0  0  0
   -0.4865    0.7050    1.5933 P   0  0  0  0  0  5  0  0  0  0  0  0
   -1.0830   -0.8487    1.3971 N   0  0  0  0  0  0  0  0  0  0  0  0
   -2.4712   -1.0698    1.1685 C   0  0  0  0  0  0  0  0  0  0  0  0
   -3.4708   -0.6498    2.0605 C   0  0  0  0  0  0  0  0  0  0  0  0
   -3.1082    0.0617    3.5874 Cl  0  0  0  0  0  0  0  0  0  0  0  0
   -4.8235   -0.8417    1.7663 C   0  0  0  0  0  0  0  0  0  0  0  0
   -5.2095   -1.4539    0.5818 C   0  0  0  0  0  0  0  0  0  0  0  0
   -4.2427   -1.8906   -0.3125 C   0  0  0  0  0  0  0  0  0  0  0  0
   -2.8926   -1.7035   -0.0190 C   0  0  0  0  0  0  0  0  0  0  0  0
   -1.7409   -2.2612   -1.1747 Cl  0  0  0  0  0  0  0  0  0  0  0  0
   -1.0714    1.8676    0.3705 C   0  0  0  0  0  0  0  0  0  0  0  0
   -0.9939    1.6108   -1.0092 C   0  0  0  0  0  0  0  0  0  0  0  0
   -1.4886    2.5392   -1.9263 C   0  0  0  0  0  0  0  0  0  0  0  0
   -2.0805    3.7259   -1.4788 C   0  0  0  0  0  0  0  0  0  0  0  0
   -2.1729    3.9915   -0.1160 C   0  0  0  0  0  0  0  0  0  0  0  0
   -1.6702    3.0652    0.8003 C   0  0  0  0  0  0  0  0  0  0  0  0
    1.0915    0.1769    0.9221 C   0  0  0  0  0  0  0  0  0  0  0  0
    1.1984   -0.8082    0.0391 N   0  0  0  0  0  0  0  0  0  0  0  0
    2.5298   -0.9966   -0.2585 C   0  0  0  0  0  0  0  0  0  0  0  0
    3.4086   -0.1423    0.3708 C   0  0  0  0  0  0  0  0  0  0  0  0
    2.5670    0.9390    1.3798 S   0  0  0  0  0  0  0  0  0  0  0  0
    4.8875   -0.1372    0.1848 C   0  0  0  0  0  0  0  0  0  0  0  0
    5.3375   -1.4213   -0.5352 C   0  0  0  0  0  0  0  0  0  0  0  0
    4.3948   -1.7928   -1.6968 C   0  0  0  0  0  0  0  0  0  0  0  0
    2.9729   -2.0708   -1.1910 C   0  0  0  0  0  0  0  0  0  0  0  0
   -0.5481   -1.3600    0.6846 H   0  0  0  0  0  0  0  0  0  0  0  0
   -5.5886   -0.5225    2.4660 H   0  0  0  0  0  0  0  0  0  0  0  0
   -6.2616   -1.5968    0.3606 H   0  0  0  0  0  0  0  0  0  0  0  0
   -4.5464   -2.3712   -1.2386 H   0  0  0  0  0  0  0  0  0  0  0  0
   -0.5461    0.6886   -1.3821 H   0  0  0  0  0  0  0  0  0  0  0  0
   -1.4145    2.3350   -2.9950 H   0  0  0  0  0  0  0  0  0  0  0  0
   -2.4718    4.4399   -2.2003 H   0  0  0  0  0  0  0  0  0  0  0  0
   -2.6405    4.9111    0.2400 H   0  0  0  0  0  0  0  0  0  0  0  0
   -1.7537    3.2773    1.8646 H   0  0  0  0  0  0  0  0  0  0  0  0
    5.1766    0.7478   -0.3976 H   0  0  0  0  0  0  0  0  0  0  0  0
    5.4030   -0.0731    1.1512 H   0  0  0  0  0  0  0  0  0  0  0  0
    6.3600   -1.3009   -0.9040 H   0  0  0  0  0  0  0  0  0  0  0  0
    5.3493   -2.2412    0.1982 H   0  0  0  0  0  0  0  0  0  0  0  0
    4.7725   -2.6717   -2.2309 H   0  0  0  0  0  0  0  0  0  0  0  0
    4.3725   -0.9526   -2.4099 H   0  0  0  0  0  0  0  0  0  0  0  0
    2.9600   -3.0243   -0.6547 H   0  0  0  0  0  0  0  0  0  0  0  0
    2.2858   -2.1530   -2.0326 H   0  0  0  0  0  0  0  0  0  0  0  0
  1  2  2  0
  2  3  1  0
  3  4  1  0
  4  5  2  0
  5  6  1  0
  5  7  1  0
  7  8  2  0
  8  9  1  0
  9 10  2  0
 10 11  1  0
  2 12  1  0
 12 13  2  0
 13 14  1  0
 14 15  2  0
 15 16  1  0
 16 17  2  0
  2 18  1  0
 18 19  2  0
 19 20  1  0
 20 21  2  0
 21 22  1  0
 21 23  1  0
 23 24  1  0
 24 25  1  0
 25 26  1  0
 10  4  1  0
 17 12  1  0
 22 18  1  0
 26 20  1  0
  3 27  1  0
  7 28  1  0
  8 29  1  0
  9 30  1  0
 13 31  1  0
 14 32  1  0
 15 33  1  0
 16 34  1  0
 17 35  1  0
 23 36  1  0
 23 37  1  0
 24 38  1  0
 24 39  1  0
 25 40  1  0
 25 41  1  0
 26 42  1  0
 26 43  1  0
M  END
$$$$
