
     RDKit          3D

 69 71  0  0  0  0  0  0  0  0999 V2000
    7.1882    2.8608    2.0283 C   0  0  0  0  0  0  0  0  0  0  0  0
    6.1423    1.7701    1.8601 C   0  0  0  0  0  0  0  0  0  0  0  0
    4.7504    2.2660    2.2519 C   0  0  0  0  0  0  0  0  0  0  0  0
    3.6787    1.1732    2.2014 C   0  0  0  0  0  0  0  0  0  0  0  0
    3.4637    0.5036    0.8397 C   0  0  0  0  0  0  0  0  0  0  0  0
    3.0375    1.4783   -0.2601 C   0  0  0  0  0  0  0  0  0  0  0  0
    2.8267    0.8106   -1.6230 C   0  0  0  0  0  0  0  0  0  0  0  0
    1.7022   -0.2271   -1.6306 C   0  0  0  0  0  0  0  0  0  0  0  0
    1.4165   -0.7273   -3.0504 C   0  0  0  0  0  0  0  0  0  0  0  0
    0.3958   -1.8629   -3.0670 C   0  0  0  0  0  0  0  0  0  0  0  0
   -0.8461   -1.4528   -2.4659 O   0  0  0  0  0  0  0  0  0  0  0  0
   -1.7536   -0.8790   -3.3094 C   0  0  0  0  0  0  0  0  0  0  0  0
   -1.5648   -0.6442   -4.4945 O   0  0  0  0  0  0  0  0  0  0  0  0
   -3.0315   -0.5079   -2.5694 C   0  0  0  0  0  0  0  0  0  0  0  0
   -3.3540   -1.4553   -1.4774 N   0  0  0  0  0  0  0  0  0  0  0  0
   -2.9286   -1.3454   -0.1967 C   0  0  0  0  0  0  0  0  0  0  0  0
   -2.0214   -0.2734    0.3911 C   0  0  0  0  0  0  0  0  0  0  0  0
   -2.8022    0.6045    1.1880 O   0  0  0  0  0  0  0  0  0  0  0  0
   -2.1499    1.6634    1.7548 C   0  0  0  0  0  0  0  0  0  0  0  0
   -2.9767    2.5458    2.4574 C   0  0  0  0  0  0  0  0  0  0  0  0
   -2.4436    3.6745    3.0842 C   0  0  0  0  0  0  0  0  0  0  0  0
   -1.0769    3.9219    3.0089 C   0  0  0  0  0  0  0  0  0  0  0  0
   -0.4111    5.3079    3.7763 Cl  0  0  0  0  0  0  0  0  0  0  0  0
   -0.2439    3.0478    2.3140 C   0  0  0  0  0  0  0  0  0  0  0  0
   -0.7778    1.9150    1.6886 C   0  0  0  0  0  0  0  0  0  0  0  0
   -3.4912   -2.3637    0.4975 N   0  0  0  0  0  4  0  0  0  0  0  0
   -3.3713   -2.5253    1.9463 C   0  0  0  0  0  0  0  0  0  0  0  0
   -4.2142   -3.1866   -0.3588 C   0  0  0  0  0  0  0  0  0  0  0  0
   -4.9322   -4.3593   -0.1325 C   0  0  0  0  0  0  0  0  0  0  0  0
   -5.5432   -4.9371   -1.2534 C   0  0  0  0  0  0  0  0  0  0  0  0
   -5.4379   -4.3610   -2.5326 C   0  0  0  0  0  0  0  0  0  0  0  0
   -4.7195   -3.1783   -2.7499 C   0  0  0  0  0  0  0  0  0  0  0  0
   -4.1164   -2.6107   -1.6286 C   0  0  0  0  0  0  0  0  0  0  0  0
    8.1758    2.4854    1.7443 H   0  0  0  0  0  0  0  0  0  0  0  0
    7.2401    3.1985    3.0671 H   0  0  0  0  0  0  0  0  0  0  0  0
    6.9585    3.7239    1.3970 H   0  0  0  0  0  0  0  0  0  0  0  0
    6.1484    1.4383    0.8170 H   0  0  0  0  0  0  0  0  0  0  0  0
    6.4187    0.9092    2.4791 H   0  0  0  0  0  0  0  0  0  0  0  0
    4.4616    3.1091    1.6135 H   0  0  0  0  0  0  0  0  0  0  0  0
    4.7852    2.6585    3.2763 H   0  0  0  0  0  0  0  0  0  0  0  0
    3.9341    0.3948    2.9311 H   0  0  0  0  0  0  0  0  0  0  0  0
    2.7288    1.6051    2.5373 H   0  0  0  0  0  0  0  0  0  0  0  0
    2.6891   -0.2599    0.9722 H   0  0  0  0  0  0  0  0  0  0  0  0
    4.3713   -0.0283    0.5356 H   0  0  0  0  0  0  0  0  0  0  0  0
    3.8051    2.2496   -0.3860 H   0  0  0  0  0  0  0  0  0  0  0  0
    2.1186    1.9946    0.0386 H   0  0  0  0  0  0  0  0  0  0  0  0
    2.5978    1.5953   -2.3547 H   0  0  0  0  0  0  0  0  0  0  0  0
    3.7624    0.3403   -1.9485 H   0  0  0  0  0  0  0  0  0  0  0  0
    1.9779   -1.0805   -1.0008 H   0  0  0  0  0  0  0  0  0  0  0  0
    0.7946    0.2154   -1.2046 H   0  0  0  0  0  0  0  0  0  0  0  0
    2.3449   -1.0794   -3.5153 H   0  0  0  0  0  0  0  0  0  0  0  0
    1.0445    0.1113   -3.6512 H   0  0  0  0  0  0  0  0  0  0  0  0
    0.7675   -2.7103   -2.4798 H   0  0  0  0  0  0  0  0  0  0  0  0
    0.2363   -2.2325   -4.0873 H   0  0  0  0  0  0  0  0  0  0  0  0
   -3.8632   -0.5042   -3.2810 H   0  0  0  0  0  0  0  0  0  0  0  0
   -2.9346    0.5022   -2.1622 H   0  0  0  0  0  0  0  0  0  0  0  0
   -1.2756   -0.8133    0.9826 H   0  0  0  0  0  0  0  0  0  0  0  0
   -1.5551    0.2471   -0.4470 H   0  0  0  0  0  0  0  0  0  0  0  0
   -4.0471    2.3613    2.5198 H   0  0  0  0  0  0  0  0  0  0  0  0
   -3.0977    4.3536    3.6256 H   0  0  0  0  0  0  0  0  0  0  0  0
    0.8240    3.2457    2.2585 H   0  0  0  0  0  0  0  0  0  0  0  0
   -0.0870    1.2609    1.1677 H   0  0  0  0  0  0  0  0  0  0  0  0
   -3.8872   -1.6966    2.4381 H   0  0  0  0  0  0  0  0  0  0  0  0
   -3.8139   -3.4670    2.2768 H   0  0  0  0  0  0  0  0  0  0  0  0
   -2.3137   -2.5245    2.2225 H   0  0  0  0  0  0  0  0  0  0  0  0
   -5.0154   -4.8058    0.8502 H   0  0  0  0  0  0  0  0  0  0  0  0
   -6.1158   -5.8575   -1.1331 H   0  0  0  0  0  0  0  0  0  0  0  0
   -5.9306   -4.8483   -3.3751 H   0  0  0  0  0  0  0  0  0  0  0  0
   -4.6423   -2.7379   -3.7365 H   0  0  0  0  0  0  0  0  0  0  0  0
  1  2  1  0
  2  3  1  0
  3  4  1  0
  4  5  1  0
  5  6  1  0
  6  7  1  0
  7  8  1  0
  8  9  1  0
  9 10  1  0
 10 11  1  0
 11 12  1  0
 12 13  2  0
 12 14  1  0
 14 15  1  0
 15 16  1  0
 16 17  1  0
 17 18  1  0
 18 19  1  0
 19 20  2  0
 20 21  1  0
 21 22  2  0
 22 23  1  0
 22 24  1  0
 24 25  2  0
 16 26  2  0
 26 27  1  0
 26 28  1  0
 28 29  2  0
 29 30  1  0
 30 31  2  0
 31 32  1  0
 32 33  2  0
 33 15  1  0
 25 19  1  0
 33 28  1  0
  1 34  1  0
  1 35  1  0
  1 36  1  0
  2 37  1  0
  2 38  1  0
  3 39  1  0
  3 40  1  0
  4 41  1  0
  4 42  1  0
  5 43  1  0
  5 44  1  0
  6 45  1  0
  6 46  1  0
  7 47  1  0
  7 48  1  0
  8 49  1  0
  8 50  1  0
  9 51  1  0
  9 52  1  0
 10 53  1  0
 10 54  1  0
 14 55  1  0
 14 56  1  0
 17 57  1  0
 17 58  1  0
 20 59  1  0
 21 60  1  0
 24 61  1  0
 25 62  1  0
 27 63  1  0
 27 64  1  0
 27 65  1  0
 29 66  1  0
 30 67  1  0
 31 68  1  0
 32 69  1  0
M  CHG  1  26   1
M  END
$$$$
