
     RDKit          3D

 32 32  0  0  0  0  0  0  0  0999 V2000
    4.7200    0.4055   -1.4626 C   0  0  0  0  0  0  0  0  0  0  0  0
    4.9225    0.2346    0.0334 C   0  0  0  0  0  0  0  0  0  0  0  0
    4.1621   -1.2990    0.6416 S   0  0  0  0  0  0  0  0  0  0  0  0
    2.4770   -0.8466    0.7513 C   0  0  0  0  0  0  0  0  0  0  0  0
    2.0369    0.3666    0.5028 N   0  0  0  0  0  0  0  0  0  0  0  0
    0.6718    0.4656    0.6689 N   0  0  0  0  0  0  0  0  0  0  0  0
    0.1197   -0.6707    1.0314 C   0  0  0  0  0  0  0  0  0  0  0  0
   -1.1988   -0.8900    1.2350 N   0  0  0  0  0  0  0  0  0  0  0  0
   -2.2349    0.1020    0.8155 C   0  0  0  0  0  0  0  0  0  0  0  0
   -2.0098    0.3256   -0.6379 N   0  0  0  0  0  0  0  0  0  0  0  0
   -2.2493   -0.6268   -1.5889 C   0  0  0  0  0  0  0  0  0  0  0  0
   -1.8135   -0.2439   -2.9767 C   0  0  0  0  0  0  0  0  0  0  0  0
   -2.7495   -1.7139   -1.3338 O   0  0  0  0  0  0  0  0  0  0  0  0
   -2.1881    1.4571    1.5892 C   0  0  0  0  0  0  0  0  0  0  0  0
   -3.3051    2.1979    1.3855 F   0  0  0  0  0  0  0  0  0  0  0  0
   -2.0454    1.2969    2.9241 F   0  0  0  0  0  0  0  0  0  0  0  0
   -1.1584    2.2371    1.1717 F   0  0  0  0  0  0  0  0  0  0  0  0
   -3.6633   -0.4156    1.1992 C   0  0  0  0  0  0  0  0  0  0  0  0
   -3.8006   -1.7452    0.9674 F   0  0  0  0  0  0  0  0  0  0  0  0
   -3.9328   -0.2543    2.5181 F   0  0  0  0  0  0  0  0  0  0  0  0
   -4.6411    0.2179    0.5107 F   0  0  0  0  0  0  0  0  0  0  0  0
    1.2514   -1.9591    1.1897 S   0  0  0  0  0  0  0  0  0  0  0  0
    5.1454   -0.4343   -2.0224 H   0  0  0  0  0  0  0  0  0  0  0  0
    5.2235    1.3167   -1.8027 H   0  0  0  0  0  0  0  0  0  0  0  0
    3.6618    0.4972   -1.7268 H   0  0  0  0  0  0  0  0  0  0  0  0
    4.5414    1.1012    0.5830 H   0  0  0  0  0  0  0  0  0  0  0  0
    5.9959    0.1725    0.2416 H   0  0  0  0  0  0  0  0  0  0  0  0
   -1.5159   -1.8513    1.0960 H   0  0  0  0  0  0  0  0  0  0  0  0
   -1.2952    1.0170   -0.8481 H   0  0  0  0  0  0  0  0  0  0  0  0
   -1.6667    0.8362   -3.0654 H   0  0  0  0  0  0  0  0  0  0  0  0
   -0.8753   -0.7535   -3.2108 H   0  0  0  0  0  0  0  0  0  0  0  0
   -2.5858   -0.5435   -3.6905 H   0  0  0  0  0  0  0  0  0  0  0  0
  1  2  1  0
  2  3  1  0
  3  4  1  0
  4  5  2  0
  5  6  1  0
  6  7  2  0
  7  8  1  0
  8  9  1  0
  9 10  1  0
 10 11  1  0
 11 12  1  0
 11 13  2  0
  9 14  1  0
 14 15  1  0
 14 16  1  0
 14 17  1  0
  9 18  1  0
 18 19  1  0
 18 20  1  0
 18 21  1  0
  7 22  1  0
 22  4  1  0
  1 23  1  0
  1 24  1  0
  1 25  1  0
  2 26  1  0
  2 27  1  0
  8 28  1  0
 10 29  1  0
 12 30  1  0
 12 31  1  0
 12 32  1  0
M  END
$$$$
