
     RDKit          3D

 48 48  0  0  0  0  0  0  0  0999 V2000
    3.2058    0.1180   -1.6556 C   0  0  0  0  0  0  0  0  0  0  0  0
    3.3329    0.2603   -0.1339 C   0  0  0  0  0  0  0  0  0  0  0  0
    2.5586    1.4953    0.3641 C   0  0  0  0  0  0  0  0  0  0  0  0
    1.1230    1.3628    0.2019 N   0  0  0  0  0  0  0  0  0  0  0  0
    0.3642    0.6468    1.1065 C   0  0  0  0  0  0  0  0  0  0  0  0
    0.8270    0.1334    2.1190 O   0  0  0  0  0  0  0  0  0  0  0  0
   -1.0774    0.4819    0.7737 C   0  0  0  0  0  0  0  0  0  0  0  0
   -1.7479   -0.6434    1.2546 C   0  0  0  0  0  0  0  0  0  0  0  0
   -3.1020   -0.8355    0.9617 C   0  0  0  0  0  0  0  0  0  0  0  0
   -3.8280    0.0931    0.1899 C   0  0  0  0  0  0  0  0  0  0  0  0
   -5.3180   -0.1523   -0.1101 C   0  0  0  0  0  0  0  0  0  0  0  0
   -5.9707    0.9490   -0.9759 C   0  0  0  0  0  0  0  0  0  0  0  0
   -6.1090   -0.2215    1.2140 C   0  0  0  0  0  0  0  0  0  0  0  0
   -5.4821   -1.4861   -0.8705 C   0  0  0  0  0  0  0  0  0  0  0  0
   -3.1381    1.2285   -0.2685 C   0  0  0  0  0  0  0  0  0  0  0  0
   -1.7808    1.4251    0.0208 C   0  0  0  0  0  0  0  0  0  0  0  0
    4.8107    0.3865    0.3054 C   0  0  0  0  0  0  0  0  0  0  0  0
    5.6848   -0.7179   -0.1324 N   0  0  0  0  0  0  0  0  0  0  0  0
    5.3342   -1.9817    0.5216 C   0  0  0  0  0  0  0  0  0  0  0  0
    7.0853   -0.3911    0.1507 C   0  0  0  0  0  0  0  0  0  0  0  0
    3.7167   -0.7809   -2.0150 H   0  0  0  0  0  0  0  0  0  0  0  0
    2.1570    0.0335   -1.9582 H   0  0  0  0  0  0  0  0  0  0  0  0
    3.6379    0.9825   -2.1711 H   0  0  0  0  0  0  0  0  0  0  0  0
    2.8929   -0.6310    0.3289 H   0  0  0  0  0  0  0  0  0  0  0  0
    2.7634    1.6666    1.4275 H   0  0  0  0  0  0  0  0  0  0  0  0
    2.8628    2.3944   -0.1833 H   0  0  0  0  0  0  0  0  0  0  0  0
    0.7326    1.5696   -0.7072 H   0  0  0  0  0  0  0  0  0  0  0  0
   -1.2187   -1.3784    1.8581 H   0  0  0  0  0  0  0  0  0  0  0  0
   -3.5849   -1.7287    1.3535 H   0  0  0  0  0  0  0  0  0  0  0  0
   -5.4793    1.0392   -1.9517 H   0  0  0  0  0  0  0  0  0  0  0  0
   -5.9320    1.9269   -0.4819 H   0  0  0  0  0  0  0  0  0  0  0  0
   -7.0276    0.7271   -1.1666 H   0  0  0  0  0  0  0  0  0  0  0  0
   -5.9892    0.7014    1.7937 H   0  0  0  0  0  0  0  0  0  0  0  0
   -5.7830   -1.0529    1.8486 H   0  0  0  0  0  0  0  0  0  0  0  0
   -7.1802   -0.3617    1.0276 H   0  0  0  0  0  0  0  0  0  0  0  0
   -5.1455   -2.3449   -0.2794 H   0  0  0  0  0  0  0  0  0  0  0  0
   -4.9054   -1.4820   -1.8030 H   0  0  0  0  0  0  0  0  0  0  0  0
   -6.5322   -1.6675   -1.1284 H   0  0  0  0  0  0  0  0  0  0  0  0
   -3.6385    1.9952   -0.8542 H   0  0  0  0  0  0  0  0  0  0  0  0
   -1.3011    2.3354   -0.3271 H   0  0  0  0  0  0  0  0  0  0  0  0
    5.1982    1.3249   -0.1151 H   0  0  0  0  0  0  0  0  0  0  0  0
    4.8591    0.4926    1.3978 H   0  0  0  0  0  0  0  0  0  0  0  0
    4.3338   -2.3159    0.2305 H   0  0  0  0  0  0  0  0  0  0  0  0
    6.0192   -2.7783    0.2087 H   0  0  0  0  0  0  0  0  0  0  0  0
    5.3737   -1.9069    1.6143 H   0  0  0  0  0  0  0  0  0  0  0  0
    7.3820    0.5228   -0.3758 H   0  0  0  0  0  0  0  0  0  0  0  0
    7.2686   -0.2484    1.2219 H   0  0  0  0  0  0  0  0  0  0  0  0
    7.7474   -1.1861   -0.2105 H   0  0  0  0  0  0  0  0  0  0  0  0
  1  2  1  0
  2  3  1  0
  3  4  1  0
  4  5  1  0
  5  6  2  0
  5  7  1  0
  7  8  2  0
  8  9  1  0
  9 10  2  0
 10 11  1  0
 11 12  1  0
 11 13  1  0
 11 14  1  0
 10 15  1  0
 15 16  2  0
  2 17  1  0
 17 18  1  0
 18 19  1  0
 18 20  1  0
 16  7  1  0
  1 21  1  0
  1 22  1  0
  1 23  1  0
  2 24  1  0
  3 25  1  0
  3 26  1  0
  4 27  1  0
  8 28  1  0
  9 29  1  0
 12 30  1  0
 12 31  1  0
 12 32  1  0
 13 33  1  0
 13 34  1  0
 13 35  1  0
 14 36  1  0
 14 37  1  0
 14 38  1  0
 15 39  1  0
 16 40  1  0
 17 41  1  0
 17 42  1  0
 19 43  1  0
 19 44  1  0
 19 45  1  0
 20 46  1  0
 20 47  1  0
 20 48  1  0
M  END
$$$$
