
     RDKit          3D

 32 34  0  0  0  0  0  0  0  0999 V2000
    6.0958   -0.0193   -1.4106 C   0  0  0  0  0  0  0  0  0  0  0  0
    4.7132    0.2058   -0.8701 C   0  0  0  0  0  0  0  0  0  0  0  0
    4.4583    1.2850   -0.0103 C   0  0  0  0  0  0  0  0  0  0  0  0
    3.1886    1.5078    0.5388 C   0  0  0  0  0  0  0  0  0  0  0  0
    2.1907    0.5957    0.1950 C   0  0  0  0  0  0  0  0  0  0  0  0
    0.8671    0.4990    0.5403 N   0  0  0  0  0  0  0  0  0  0  0  0
    0.3312   -0.6040   -0.0900 C   0  0  0  0  0  0  0  0  0  0  0  0
   -1.0361   -0.9359    0.1201 C   0  0  0  0  0  0  0  0  0  0  0  0
   -1.3318   -2.2111    0.6892 C   0  0  0  0  0  0  0  0  0  0  0  0
   -1.6105   -3.2284    1.1750 N   0  0  0  0  0  0  0  0  0  0  0  0
   -1.9731   -0.0344   -0.2356 C   0  0  0  0  0  0  0  0  0  0  0  0
   -3.3848   -0.1791   -0.0994 C   0  0  0  0  0  0  0  0  0  0  0  0
   -4.2269   -1.2918   -0.1008 C   0  0  0  0  0  0  0  0  0  0  0  0
   -5.5651   -0.8448    0.0564 C   0  0  0  0  0  0  0  0  0  0  0  0
   -5.4748    0.5187    0.1318 C   0  0  0  0  0  0  0  0  0  0  0  0
   -6.4670    1.5345    0.2859 N   0  0  0  0  0  4  0  0  0  0  0  0
   -7.6412    1.1476    0.3565 O   0  0  0  0  0  0  0  0  0  0  0  0
   -6.0858    2.7108    0.3393 O   0  0  0  0  0  1  0  0  0  0  0  0
   -4.1896    0.9379    0.0315 O   0  0  0  0  0  0  0  0  0  0  0  0
    1.2544   -1.2236   -0.7972 N   0  0  0  0  0  0  0  0  0  0  0  0
    2.4065   -0.4920   -0.6403 C   0  0  0  0  0  0  0  0  0  0  0  0
    3.6839   -0.7009   -1.1799 C   0  0  0  0  0  0  0  0  0  0  0  0
    6.6728   -0.6368   -0.7155 H   0  0  0  0  0  0  0  0  0  0  0  0
    6.6172    0.9325   -1.5568 H   0  0  0  0  0  0  0  0  0  0  0  0
    6.0584   -0.5212   -2.3832 H   0  0  0  0  0  0  0  0  0  0  0  0
    5.2636    1.9735    0.2433 H   0  0  0  0  0  0  0  0  0  0  0  0
    3.0031    2.3471    1.2001 H   0  0  0  0  0  0  0  0  0  0  0  0
    0.3782    1.1267    1.1623 H   0  0  0  0  0  0  0  0  0  0  0  0
   -1.6626    0.9214   -0.6557 H   0  0  0  0  0  0  0  0  0  0  0  0
   -3.9235   -2.3251   -0.2159 H   0  0  0  0  0  0  0  0  0  0  0  0
   -6.4670   -1.4403    0.0996 H   0  0  0  0  0  0  0  0  0  0  0  0
    3.8568   -1.5555   -1.8255 H   0  0  0  0  0  0  0  0  0  0  0  0
  1  2  1  0
  2  3  2  0
  3  4  1  0
  4  5  2  0
  5  6  1  0
  6  7  1  0
  7  8  1  0
  8  9  1  0
  9 10  3  0
  8 11  2  3
 11 12  1  0
 12 13  2  0
 13 14  1  0
 14 15  2  0
 15 16  1  0
 16 17  2  0
 16 18  1  0
 15 19  1  0
  7 20  2  0
 20 21  1  0
 21 22  2  0
 22  2  1  0
 21  5  1  0
 19 12  1  0
  1 23  1  0
  1 24  1  0
  1 25  1  0
  3 26  1  0
  4 27  1  0
  6 28  1  0
 11 29  1  0
 13 30  1  0
 14 31  1  0
 22 32  1  0
M  CHG  2  16   1  18  -1
M  END
$$$$
