
     RDKit          3D

 40 43  0  0  0  0  0  0  0  0999 V2000
   -3.9971    2.1834    3.0305 C   0  0  0  0  0  0  0  0  0  0  0  0
   -4.0508    0.7270    3.3201 C   0  0  0  0  0  0  0  0  0  0  0  0
   -5.2545    0.1895    3.7686 N   0  0  0  0  0  0  0  0  0  0  0  0
   -5.1588   -1.1061    4.0096 N   0  0  0  0  0  0  0  0  0  0  0  0
   -3.6325   -1.7083    3.7081 S   0  0  0  0  0  0  0  0  0  0  0  0
   -3.0221   -0.1958    3.1764 C   0  0  0  0  0  0  0  0  0  0  0  0
   -1.6777    0.0238    2.7555 C   0  0  0  0  0  0  0  0  0  0  0  0
   -0.9655    1.0750    3.1227 N   0  0  0  0  0  0  0  0  0  0  0  0
    0.3028    0.9420    2.6033 N   0  0  0  0  0  0  0  0  0  0  0  0
    0.3309   -0.1699    1.9052 C   0  0  0  0  0  0  0  0  0  0  0  0
    1.7203   -0.8313    1.1183 S   0  0  0  0  0  0  0  0  0  0  0  0
    2.3423    0.6568    0.2865 C   0  0  0  0  0  0  0  0  0  0  0  0
    1.6785    0.7983   -1.0691 C   0  0  0  0  0  0  0  0  0  0  0  0
    0.4873    1.0815   -1.1964 O   0  0  0  0  0  0  0  0  0  0  0  0
    2.4979    0.6039   -2.2975 C   0  0  0  0  0  0  0  0  0  0  0  0
    3.5660   -0.2988   -2.3430 C   0  0  0  0  0  0  0  0  0  0  0  0
    4.3097   -0.4428   -3.5198 C   0  0  0  0  0  0  0  0  0  0  0  0
    3.9891    0.3083   -4.6563 C   0  0  0  0  0  0  0  0  0  0  0  0
    4.7639    0.1676   -5.8548 C   0  0  0  0  0  0  0  0  0  0  0  0
    5.3984    0.0553   -6.8186 N   0  0  0  0  0  0  0  0  0  0  0  0
    2.9108    1.1981   -4.6152 C   0  0  0  0  0  0  0  0  0  0  0  0
    2.1639    1.3398   -3.4420 C   0  0  0  0  0  0  0  0  0  0  0  0
   -0.9054   -0.7534    1.9264 N   0  0  0  0  0  0  0  0  0  0  0  0
   -1.3118   -1.9829    1.2042 C   0  0  0  0  0  0  0  0  0  0  0  0
   -1.2418   -2.0832   -0.3054 C   0  0  0  0  0  0  0  0  0  0  0  0
   -2.5745   -2.0765    0.3740 C   0  0  0  0  0  0  0  0  0  0  0  0
   -3.2683    2.6763    3.6804 H   0  0  0  0  0  0  0  0  0  0  0  0
   -3.7138    2.3587    1.9880 H   0  0  0  0  0  0  0  0  0  0  0  0
   -4.9713    2.6550    3.1987 H   0  0  0  0  0  0  0  0  0  0  0  0
    3.4280    0.5812    0.1903 H   0  0  0  0  0  0  0  0  0  0  0  0
    2.1537    1.5676    0.8628 H   0  0  0  0  0  0  0  0  0  0  0  0
    3.8276   -0.9142   -1.4861 H   0  0  0  0  0  0  0  0  0  0  0  0
    5.1410   -1.1458   -3.5434 H   0  0  0  0  0  0  0  0  0  0  0  0
    2.6457    1.7869   -5.4927 H   0  0  0  0  0  0  0  0  0  0  0  0
    1.3231    2.0319   -3.4230 H   0  0  0  0  0  0  0  0  0  0  0  0
   -1.0282   -2.8762    1.7559 H   0  0  0  0  0  0  0  0  0  0  0  0
   -0.8981   -3.0142   -0.7423 H   0  0  0  0  0  0  0  0  0  0  0  0
   -0.9826   -1.2042   -0.8870 H   0  0  0  0  0  0  0  0  0  0  0  0
   -3.1307   -3.0082    0.4009 H   0  0  0  0  0  0  0  0  0  0  0  0
   -3.1955   -1.1963    0.2432 H   0  0  0  0  0  0  0  0  0  0  0  0
  1  2  1  0
  2  3  1  0
  3  4  2  0
  4  5  1  0
  5  6  1  0
  6  7  1  0
  7  8  2  0
  8  9  1  0
  9 10  2  0
 10 11  1  0
 11 12  1  0
 12 13  1  0
 13 14  2  0
 13 15  1  0
 15 16  2  0
 16 17  1  0
 17 18  2  0
 18 19  1  0
 19 20  3  0
 18 21  1  0
 21 22  2  0
 10 23  1  0
 23 24  1  0
 24 25  1  0
 25 26  1  0
  6  2  2  0
 23  7  1  0
 26 24  1  0
 22 15  1  0
  1 27  1  0
  1 28  1  0
  1 29  1  0
 12 30  1  0
 12 31  1  0
 16 32  1  0
 17 33  1  0
 21 34  1  0
 22 35  1  0
 24 36  1  0
 25 37  1  0
 25 38  1  0
 26 39  1  0
 26 40  1  0
M  END
$$$$
