
     RDKit          3D

 45 47  0  0  0  0  0  0  0  0999 V2000
   -4.3994   -0.0700    3.7840 C   0  0  0  0  0  0  0  0  0  0  0  0
   -3.6811    0.0830    2.5653 O   0  0  0  0  0  0  0  0  0  0  0  0
   -4.4151    0.0544    1.4004 C   0  0  0  0  0  0  0  0  0  0  0  0
   -5.8019   -0.1092    1.3319 C   0  0  0  0  0  0  0  0  0  0  0  0
   -6.4446   -0.1236    0.0924 C   0  0  0  0  0  0  0  0  0  0  0  0
   -5.7069    0.0237   -1.0794 C   0  0  0  0  0  0  0  0  0  0  0  0
   -4.3212    0.1863   -1.0214 C   0  0  0  0  0  0  0  0  0  0  0  0
   -3.6668    0.2037    0.2116 C   0  0  0  0  0  0  0  0  0  0  0  0
   -2.2702    0.3604    0.3556 N   0  0  0  0  0  0  0  0  0  0  0  0
   -1.3169    0.5236   -0.6297 C   0  0  0  0  0  0  0  0  0  0  0  0
   -1.5234    0.5774   -1.8373 O   0  0  0  0  0  0  0  0  0  0  0  0
    0.0944    0.6289   -0.0521 C   0  0  0  0  0  0  0  0  0  0  0  0
    1.1010    1.0501   -1.1282 C   0  0  0  0  0  0  0  0  0  0  0  0
    2.5179    1.1364   -0.5690 C   0  0  0  0  0  0  0  0  0  0  0  0
    2.8160    0.0144    0.3511 N   0  0  0  0  0  0  0  0  0  0  0  0
    4.4588   -0.2794    0.6672 S   0  0  0  0  0  6  0  0  0  0  0  0
    5.1005    1.0060    0.8561 O   0  0  0  0  0  0  0  0  0  0  0  0
    4.5667   -1.3262    1.6597 O   0  0  0  0  0  0  0  0  0  0  0  0
    5.2146   -0.9219   -0.8179 C   0  0  0  0  0  0  0  0  0  0  0  0
    6.0755   -0.3420   -1.7325 C   0  0  0  0  0  0  0  0  0  0  0  0
    6.4257   -1.2292   -2.7904 C   0  0  0  0  0  0  0  0  0  0  0  0
    5.8239   -2.4595   -2.6473 C   0  0  0  0  0  0  0  0  0  0  0  0
    4.8465   -2.5371   -1.2454 S   0  0  0  0  0  0  0  0  0  0  0  0
    1.9152   -1.1441    0.2416 C   0  0  0  0  0  0  0  0  0  0  0  0
    0.5046   -0.6962    0.6182 C   0  0  0  0  0  0  0  0  0  0  0  0
   -5.1169    0.7450    3.9249 H   0  0  0  0  0  0  0  0  0  0  0  0
   -4.8918   -1.0467    3.8322 H   0  0  0  0  0  0  0  0  0  0  0  0
   -3.6772   -0.0212    4.6046 H   0  0  0  0  0  0  0  0  0  0  0  0
   -6.4125   -0.2272    2.2204 H   0  0  0  0  0  0  0  0  0  0  0  0
   -7.5232   -0.2504    0.0405 H   0  0  0  0  0  0  0  0  0  0  0  0
   -6.2077    0.0120   -2.0445 H   0  0  0  0  0  0  0  0  0  0  0  0
   -3.7811    0.2979   -1.9560 H   0  0  0  0  0  0  0  0  0  0  0  0
   -1.9662    0.3554    1.3249 H   0  0  0  0  0  0  0  0  0  0  0  0
    0.0703    1.4199    0.7107 H   0  0  0  0  0  0  0  0  0  0  0  0
    0.8196    2.0178   -1.5612 H   0  0  0  0  0  0  0  0  0  0  0  0
    1.0824    0.3327   -1.9597 H   0  0  0  0  0  0  0  0  0  0  0  0
    2.6262    2.0714   -0.0067 H   0  0  0  0  0  0  0  0  0  0  0  0
    3.2261    1.1592   -1.4038 H   0  0  0  0  0  0  0  0  0  0  0  0
    6.4351    0.6760   -1.6333 H   0  0  0  0  0  0  0  0  0  0  0  0
    7.0886   -0.9803   -3.6106 H   0  0  0  0  0  0  0  0  0  0  0  0
    5.9137   -3.3208   -3.2959 H   0  0  0  0  0  0  0  0  0  0  0  0
    2.2136   -1.9485    0.9208 H   0  0  0  0  0  0  0  0  0  0  0  0
    1.9305   -1.5447   -0.7777 H   0  0  0  0  0  0  0  0  0  0  0  0
    0.4514   -0.5604    1.7066 H   0  0  0  0  0  0  0  0  0  0  0  0
   -0.1945   -1.5069    0.3792 H   0  0  0  0  0  0  0  0  0  0  0  0
  1  2  1  0
  2  3  1  0
  3  4  2  0
  4  5  1  0
  5  6  2  0
  6  7  1  0
  7  8  2  0
  8  9  1  0
  9 10  1  0
 10 11  2  0
 10 12  1  0
 12 13  1  0
 13 14  1  0
 14 15  1  0
 15 16  1  0
 16 17  2  0
 16 18  2  0
 16 19  1  0
 19 20  2  0
 20 21  1  0
 21 22  2  0
 22 23  1  0
 15 24  1  0
 24 25  1  0
  8  3  1  0
 25 12  1  0
 23 19  1  0
  1 26  1  0
  1 27  1  0
  1 28  1  0
  4 29  1  0
  5 30  1  0
  6 31  1  0
  7 32  1  0
  9 33  1  0
 12 34  1  0
 13 35  1  0
 13 36  1  0
 14 37  1  0
 14 38  1  0
 20 39  1  0
 21 40  1  0
 22 41  1  0
 24 42  1  0
 24 43  1  0
 25 44  1  0
 25 45  1  0
M  END
$$$$
