
     RDKit          3D

 42 44  0  0  0  0  0  0  0  0999 V2000
   -0.4664    5.1921   -2.5362 C   0  0  0  0  0  0  0  0  0  0  0  0
   -0.8859    3.9403   -3.0592 O   0  0  0  0  0  0  0  0  0  0  0  0
   -1.0071    2.8964   -2.1814 C   0  0  0  0  0  0  0  0  0  0  0  0
   -0.9035    2.9989   -0.7912 C   0  0  0  0  0  0  0  0  0  0  0  0
   -1.0543    1.8652    0.0233 C   0  0  0  0  0  0  0  0  0  0  0  0
   -0.9599    2.0224    1.4823 C   0  0  0  0  0  0  0  0  0  0  0  0
   -0.0571    1.4239    2.2835 C   0  0  0  0  0  0  0  0  0  0  0  0
   -0.0341    1.6698    3.6813 C   0  0  0  0  0  0  0  0  0  0  0  0
   -0.0549    1.8628    4.8253 N   0  0  0  0  0  0  0  0  0  0  0  0
    0.9944    0.5400    1.7259 C   0  0  0  0  0  0  0  0  0  0  0  0
    1.9660    1.0120    1.1440 O   0  0  0  0  0  0  0  0  0  0  0  0
    0.7529   -0.8949    1.8881 C   0  0  0  0  0  0  0  0  0  0  0  0
   -0.2076   -1.5109    2.6769 C   0  0  0  0  0  0  0  0  0  0  0  0
   -0.0896   -2.8689    2.5320 N   0  0  0  0  0  0  0  0  0  0  0  0
    0.9079   -3.1655    1.6367 C   0  0  0  0  0  0  0  0  0  0  0  0
    1.3576   -4.4070    1.1708 C   0  0  0  0  0  0  0  0  0  0  0  0
    2.4082   -4.4126    0.2496 C   0  0  0  0  0  0  0  0  0  0  0  0
    2.9858   -3.2231   -0.1846 C   0  0  0  0  0  0  0  0  0  0  0  0
    2.5250   -1.9915    0.2938 C   0  0  0  0  0  0  0  0  0  0  0  0
    1.4644   -1.9539    1.2248 C   0  0  0  0  0  0  0  0  0  0  0  0
   -1.3238    0.6180   -0.5584 C   0  0  0  0  0  0  0  0  0  0  0  0
   -1.4030    0.4957   -1.9442 C   0  0  0  0  0  0  0  0  0  0  0  0
   -1.6399   -0.6729   -2.6250 O   0  0  0  0  0  0  0  0  0  0  0  0
   -1.3135   -1.8729   -1.9281 C   0  0  0  0  0  0  0  0  0  0  0  0
   -1.2635    1.6395   -2.7410 C   0  0  0  0  0  0  0  0  0  0  0  0
   -1.3728    1.5106   -4.1050 O   0  0  0  0  0  0  0  0  0  0  0  0
    0.5037    5.1089   -2.0349 H   0  0  0  0  0  0  0  0  0  0  0  0
   -0.3484    5.8834   -3.3761 H   0  0  0  0  0  0  0  0  0  0  0  0
   -1.2237    5.6106   -1.8654 H   0  0  0  0  0  0  0  0  0  0  0  0
   -0.7049    3.9562   -0.3192 H   0  0  0  0  0  0  0  0  0  0  0  0
   -1.6904    2.7106    1.9068 H   0  0  0  0  0  0  0  0  0  0  0  0
   -0.9615   -1.1154    3.3454 H   0  0  0  0  0  0  0  0  0  0  0  0
   -0.6541   -3.5598    3.0088 H   0  0  0  0  0  0  0  0  0  0  0  0
    0.9139   -5.3376    1.5100 H   0  0  0  0  0  0  0  0  0  0  0  0
    2.7830   -5.3605   -0.1304 H   0  0  0  0  0  0  0  0  0  0  0  0
    3.8047   -3.2466   -0.8997 H   0  0  0  0  0  0  0  0  0  0  0  0
    2.9863   -1.0699   -0.0542 H   0  0  0  0  0  0  0  0  0  0  0  0
   -1.4857   -0.2451    0.0779 H   0  0  0  0  0  0  0  0  0  0  0  0
   -1.3550   -2.6969   -2.6468 H   0  0  0  0  0  0  0  0  0  0  0  0
   -2.0479   -2.0789   -1.1431 H   0  0  0  0  0  0  0  0  0  0  0  0
   -0.2979   -1.8363   -1.5207 H   0  0  0  0  0  0  0  0  0  0  0  0
   -1.5476    0.5638   -4.2609 H   0  0  0  0  0  0  0  0  0  0  0  0
  1  2  1  0
  2  3  1  0
  3  4  2  0
  4  5  1  0
  5  6  1  0
  6  7  2  3
  7  8  1  0
  8  9  3  0
  7 10  1  0
 10 11  2  0
 10 12  1  0
 12 13  2  0
 13 14  1  0
 14 15  1  0
 15 16  2  0
 16 17  1  0
 17 18  2  0
 18 19  1  0
 19 20  2  0
  5 21  2  0
 21 22  1  0
 22 23  1  0
 23 24  1  0
 22 25  2  0
 25 26  1  0
 25  3  1  0
 20 12  1  0
 20 15  1  0
  1 27  1  0
  1 28  1  0
  1 29  1  0
  4 30  1  0
  6 31  1  0
 13 32  1  0
 14 33  1  0
 16 34  1  0
 17 35  1  0
 18 36  1  0
 19 37  1  0
 21 38  1  0
 24 39  1  0
 24 40  1  0
 24 41  1  0
 26 42  1  0
M  END
$$$$
