
     RDKit          3D

 43 45  0  0  0  0  0  0  0  0999 V2000
    4.7053    1.5230    2.1604 C   0  0  0  0  0  0  0  0  0  0  0  0
    4.5878    0.5310    1.0380 C   0  0  0  0  0  0  0  0  0  0  0  0
    5.5636   -0.4491    0.8468 C   0  0  0  0  0  0  0  0  0  0  0  0
    5.4266   -1.3876   -0.1759 C   0  0  0  0  0  0  0  0  0  0  0  0
    4.3089   -1.3681   -1.0205 C   0  0  0  0  0  0  0  0  0  0  0  0
    4.1876   -2.3844   -2.1231 C   0  0  0  0  0  0  0  0  0  0  0  0
    3.3303   -0.3775   -0.8417 C   0  0  0  0  0  0  0  0  0  0  0  0
    2.2591   -0.4346   -1.6921 O   0  0  0  0  0  0  0  0  0  0  0  0
    1.5567    0.7764   -1.9717 C   0  0  0  0  0  0  0  0  0  0  0  0
    0.2363    0.7112   -1.3051 C   0  0  0  0  0  0  0  0  0  0  0  0
   -0.2182    0.2517   -0.0933 C   0  0  0  0  0  0  0  0  0  0  0  0
   -1.6148    0.5086   -0.1022 C   0  0  0  0  0  0  0  0  0  0  0  0
   -2.5465    0.2572    1.0052 C   0  0  0  0  0  0  0  0  0  0  0  0
   -2.1188    0.2069    2.1603 O   0  0  0  0  0  0  0  0  0  0  0  0
   -3.9115    0.1086    0.7403 N   0  0  0  0  0  0  0  0  0  0  0  0
   -4.4599   -0.4518   -0.4956 C   0  0  0  0  0  0  0  0  0  0  0  0
   -5.7757    0.2421   -0.8293 C   0  0  0  0  0  0  0  0  0  0  0  0
   -6.7058    0.1924    0.2817 N   0  0  0  0  0  0  0  0  0  0  0  0
   -6.2930    0.3191    1.5870 C   0  0  0  0  0  0  0  0  0  0  0  0
   -7.1263    0.5301    2.4658 O   0  0  0  0  0  0  0  0  0  0  0  0
   -4.8115    0.0505    1.8941 C   0  0  0  0  0  0  0  0  0  0  0  0
   -1.9685    1.1122   -1.2507 N   0  0  0  0  0  0  0  0  0  0  0  0
   -0.8148    1.2163   -2.0034 O   0  0  0  0  0  0  0  0  0  0  0  0
    3.4648    0.5511    0.1965 C   0  0  0  0  0  0  0  0  0  0  0  0
    4.4803    2.5337    1.8031 H   0  0  0  0  0  0  0  0  0  0  0  0
    4.0085    1.2619    2.9644 H   0  0  0  0  0  0  0  0  0  0  0  0
    5.7203    1.5398    2.5718 H   0  0  0  0  0  0  0  0  0  0  0  0
    6.4329   -0.4953    1.4980 H   0  0  0  0  0  0  0  0  0  0  0  0
    6.2004   -2.1391   -0.3074 H   0  0  0  0  0  0  0  0  0  0  0  0
    3.2167   -2.8871   -2.0791 H   0  0  0  0  0  0  0  0  0  0  0  0
    4.9576   -3.1585   -2.0412 H   0  0  0  0  0  0  0  0  0  0  0  0
    4.3013   -1.8964   -3.0954 H   0  0  0  0  0  0  0  0  0  0  0  0
    1.4157    0.8088   -3.0583 H   0  0  0  0  0  0  0  0  0  0  0  0
    2.1095    1.6834   -1.7056 H   0  0  0  0  0  0  0  0  0  0  0  0
    0.3591   -0.2068    0.6960 H   0  0  0  0  0  0  0  0  0  0  0  0
   -4.6310   -1.5194   -0.3056 H   0  0  0  0  0  0  0  0  0  0  0  0
   -3.7739   -0.3957   -1.3402 H   0  0  0  0  0  0  0  0  0  0  0  0
   -5.6075    1.2996   -1.0596 H   0  0  0  0  0  0  0  0  0  0  0  0
   -6.2599   -0.2267   -1.6908 H   0  0  0  0  0  0  0  0  0  0  0  0
   -7.6750    0.4463    0.1332 H   0  0  0  0  0  0  0  0  0  0  0  0
   -4.4794    0.7747    2.6460 H   0  0  0  0  0  0  0  0  0  0  0  0
   -4.7350   -0.9542    2.3223 H   0  0  0  0  0  0  0  0  0  0  0  0
    2.6977    1.2954    0.3885 H   0  0  0  0  0  0  0  0  0  0  0  0
  1  2  1  0
  2  3  2  0
  3  4  1  0
  4  5  2  0
  5  6  1  0
  5  7  1  0
  7  8  1  0
  8  9  1  0
  9 10  1  0
 10 11  2  0
 11 12  1  0
 12 13  1  0
 13 14  2  0
 13 15  1  0
 15 16  1  0
 16 17  1  0
 17 18  1  0
 18 19  1  0
 19 20  2  0
 19 21  1  0
 12 22  2  0
 22 23  1  0
  7 24  2  0
 24  2  1  0
 23 10  1  0
 21 15  1  0
  1 25  1  0
  1 26  1  0
  1 27  1  0
  3 28  1  0
  4 29  1  0
  6 30  1  0
  6 31  1  0
  6 32  1  0
  9 33  1  0
  9 34  1  0
 11 35  1  0
 16 36  1  0
 16 37  1  0
 17 38  1  0
 17 39  1  0
 18 40  1  0
 21 41  1  0
 21 42  1  0
 24 43  1  0
M  END
$$$$
