
     RDKit          3D

 63 67  0  0  0  0  0  0  0  0999 V2000
   -2.3276    0.1731   -1.0719 O   0  0  0  0  0  0  0  0  0  0  0  0
   -2.4500   -0.4956   -0.0520 C   0  0  0  0  0  0  0  0  0  0  0  0
   -3.6537   -1.0011    0.3900 N   0  0  0  0  0  0  0  0  0  0  0  0
   -4.8878   -0.7724   -0.3493 C   0  0  0  0  0  0  0  0  0  0  0  0
   -5.1080   -1.9392   -1.3218 C   0  0  0  0  0  0  0  0  0  0  0  0
   -6.3466   -1.7113   -2.1754 C   0  0  0  0  0  0  0  0  0  0  0  0
   -7.6010   -1.3261   -1.3767 C   0  0  0  0  0  0  0  0  0  0  0  0
   -7.3741   -0.9335    0.0652 C   0  0  0  0  0  0  0  0  0  0  0  0
   -8.4927   -0.7989    0.9027 C   0  0  0  0  0  0  0  0  0  0  0  0
   -8.3513   -0.3454    2.2163 C   0  0  0  0  0  0  0  0  0  0  0  0
   -7.0945    0.0004    2.6979 C   0  0  0  0  0  0  0  0  0  0  0  0
   -5.9762   -0.1292    1.8752 C   0  0  0  0  0  0  0  0  0  0  0  0
   -6.0927   -0.6290    0.5621 C   0  0  0  0  0  0  0  0  0  0  0  0
   -1.2592   -0.7675    0.7989 C   0  0  0  0  0  0  0  0  0  0  0  0
   -1.1346   -1.9389    1.5643 C   0  0  0  0  0  0  0  0  0  0  0  0
    0.0134   -2.1586    2.3397 C   0  0  0  0  0  0  0  0  0  0  0  0
    1.0453   -1.2176    2.3525 C   0  0  0  0  0  0  0  0  0  0  0  0
    0.9219   -0.0594    1.5764 C   0  0  0  0  0  0  0  0  0  0  0  0
    2.2387    1.1311    1.5303 S   0  0  0  0  0  6  0  0  0  0  0  0
    1.6944    2.3736    2.0312 O   0  0  0  0  0  0  0  0  0  0  0  0
    3.4056    0.5228    2.1304 O   0  0  0  0  0  0  0  0  0  0  0  0
    2.5257    1.2799   -0.1372 N   0  0  0  0  0  0  0  0  0  0  0  0
    3.1641    0.1047   -0.8185 C   0  0  0  0  0  0  0  0  0  0  0  0
    4.7035    0.0851   -0.6582 C   0  0  0  0  0  0  0  0  0  0  0  0
    5.3047    1.3729   -1.0743 N   0  0  0  0  0  0  0  0  0  0  0  0
    6.7093    1.4419   -1.1721 C   0  0  0  0  0  0  0  0  0  0  0  0
    7.5716    0.4615   -0.6589 C   0  0  0  0  0  0  0  0  0  0  0  0
    8.9670    0.5824   -0.7593 C   0  0  0  0  0  0  0  0  0  0  0  0
    9.5327    1.6900   -1.3859 C   0  0  0  0  0  0  0  0  0  0  0  0
    8.6987    2.6572   -1.9331 C   0  0  0  0  0  0  0  0  0  0  0  0
    7.3059    2.5251   -1.8369 C   0  0  0  0  0  0  0  0  0  0  0  0
    4.6988    2.5399   -0.3745 C   0  0  0  0  0  0  0  0  0  0  0  0
    3.1741    2.5526   -0.5806 C   0  0  0  0  0  0  0  0  0  0  0  0
   -0.2219    0.1723    0.7985 C   0  0  0  0  0  0  0  0  0  0  0  0
   -3.7150   -1.5189    1.2530 H   0  0  0  0  0  0  0  0  0  0  0  0
   -4.7900    0.1624   -0.9160 H   0  0  0  0  0  0  0  0  0  0  0  0
   -5.2083   -2.8771   -0.7645 H   0  0  0  0  0  0  0  0  0  0  0  0
   -4.2351   -2.0646   -1.9744 H   0  0  0  0  0  0  0  0  0  0  0  0
   -6.5569   -2.6139   -2.7774 H   0  0  0  0  0  0  0  0  0  0  0  0
   -6.1362   -0.9184   -2.9125 H   0  0  0  0  0  0  0  0  0  0  0  0
   -8.0775   -0.4625   -1.8851 H   0  0  0  0  0  0  0  0  0  0  0  0
   -8.3350   -2.1542   -1.4124 H   0  0  0  0  0  0  0  0  0  0  0  0
   -9.4877   -1.0321    0.5276 H   0  0  0  0  0  0  0  0  0  0  0  0
   -9.2222   -0.2406    2.8560 H   0  0  0  0  0  0  0  0  0  0  0  0
   -6.9886    0.3793    3.7148 H   0  0  0  0  0  0  0  0  0  0  0  0
   -5.0105    0.1816    2.2682 H   0  0  0  0  0  0  0  0  0  0  0  0
   -1.9078   -2.7031    1.5493 H   0  0  0  0  0  0  0  0  0  0  0  0
    0.1096   -3.0724    2.9251 H   0  0  0  0  0  0  0  0  0  0  0  0
    1.9364   -1.3986    2.9584 H   0  0  0  0  0  0  0  0  0  0  0  0
    2.7275   -0.8325   -0.4609 H   0  0  0  0  0  0  0  0  0  0  0  0
    2.9173    0.1605   -1.8835 H   0  0  0  0  0  0  0  0  0  0  0  0
    4.9765   -0.1448    0.3805 H   0  0  0  0  0  0  0  0  0  0  0  0
    5.0918   -0.7215   -1.2988 H   0  0  0  0  0  0  0  0  0  0  0  0
    7.1782   -0.4149   -0.1510 H   0  0  0  0  0  0  0  0  0  0  0  0
    9.6064   -0.1841   -0.3319 H   0  0  0  0  0  0  0  0  0  0  0  0
   10.6178    1.7974   -1.4489 H   0  0  0  0  0  0  0  0  0  0  0  0
    9.1253    3.5257   -2.4328 H   0  0  0  0  0  0  0  0  0  0  0  0
    6.6844    3.2830   -2.3057 H   0  0  0  0  0  0  0  0  0  0  0  0
    4.9374    2.4966    0.6988 H   0  0  0  0  0  0  0  0  0  0  0  0
    5.0903    3.4912   -0.7547 H   0  0  0  0  0  0  0  0  0  0  0  0
    2.9449    2.6753   -1.6450 H   0  0  0  0  0  0  0  0  0  0  0  0
    2.7292    3.4124   -0.0704 H   0  0  0  0  0  0  0  0  0  0  0  0
   -0.3052    1.0802    0.1992 H   0  0  0  0  0  0  0  0  0  0  0  0
  1  2  2  0
  2  3  1  0
  3  4  1  0
  4  5  1  0
  5  6  1  0
  6  7  1  0
  7  8  1  0
  8  9  2  0
  9 10  1  0
 10 11  2  0
 11 12  1  0
 12 13  2  0
  2 14  1  0
 14 15  2  0
 15 16  1  0
 16 17  2  0
 17 18  1  0
 18 19  1  0
 19 20  2  0
 19 21  2  0
 19 22  1  0
 22 23  1  0
 23 24  1  0
 24 25  1  0
 25 26  1  0
 26 27  2  0
 27 28  1  0
 28 29  2  0
 29 30  1  0
 30 31  2  0
 25 32  1  0
 32 33  1  0
 18 34  2  0
 13  4  1  0
 34 14  1  0
 13  8  1  0
 33 22  1  0
 31 26  1  0
  3 35  1  0
  4 36  1  0
  5 37  1  0
  5 38  1  0
  6 39  1  0
  6 40  1  0
  7 41  1  0
  7 42  1  0
  9 43  1  0
 10 44  1  0
 11 45  1  0
 12 46  1  0
 15 47  1  0
 16 48  1  0
 17 49  1  0
 23 50  1  0
 23 51  1  0
 24 52  1  0
 24 53  1  0
 27 54  1  0
 28 55  1  0
 29 56  1  0
 30 57  1  0
 31 58  1  0
 32 59  1  0
 32 60  1  0
 33 61  1  0
 33 62  1  0
 34 63  1  0
M  END
$$$$
