
     RDKit          3D

 57 60  0  0  0  0  0  0  0  0999 V2000
   -6.3398   -0.1160   -0.7693 C   0  0  0  0  0  0  0  0  0  0  0  0
   -5.6286    0.8966    0.0456 C   0  0  0  0  0  0  0  0  0  0  0  0
   -6.2865    1.9639    0.5135 N   0  0  0  0  0  0  0  0  0  0  0  0
   -5.3544    2.7065    1.2105 O   0  0  0  0  0  0  0  0  0  0  0  0
   -4.1501    2.0799    1.1658 C   0  0  0  0  0  0  0  0  0  0  0  0
   -3.0348    2.7554    1.8545 C   0  0  0  0  0  0  0  0  0  0  0  0
   -4.2633    0.9161    0.4362 C   0  0  0  0  0  0  0  0  0  0  0  0
   -3.1997   -0.0710    0.1198 C   0  0  0  0  0  0  0  0  0  0  0  0
   -2.1887    0.5249   -0.7116 O   0  0  0  0  0  0  0  0  0  0  0  0
   -2.1586   -0.0460   -1.9544 C   0  0  0  0  0  0  0  0  0  0  0  0
   -2.7178    0.6754   -3.0089 C   0  0  0  0  0  0  0  0  0  0  0  0
   -2.7189    0.1358   -4.2963 C   0  0  0  0  0  0  0  0  0  0  0  0
   -2.1551   -1.1201   -4.5323 C   0  0  0  0  0  0  0  0  0  0  0  0
   -1.5741   -1.8348   -3.4835 C   0  0  0  0  0  0  0  0  0  0  0  0
   -1.5542   -1.2836   -2.1976 C   0  0  0  0  0  0  0  0  0  0  0  0
   -0.9350   -2.0664   -1.1127 C   0  0  0  0  0  0  0  0  0  0  0  0
   -1.4891   -3.1127   -0.7854 O   0  0  0  0  0  0  0  0  0  0  0  0
    0.2230   -1.5876   -0.5155 N   0  0  0  0  0  0  0  0  0  0  0  0
    0.9706   -0.4005   -0.9539 C   0  0  0  0  0  0  0  0  0  0  0  0
    2.4675   -0.4546   -0.5872 C   0  0  0  0  0  0  0  0  0  0  0  0
    2.6698   -0.7085    0.8518 N   0  0  0  0  0  0  0  0  0  0  0  0
    3.7475   -0.1671    1.5330 C   0  0  0  0  0  0  0  0  0  0  0  0
    3.7112    0.0645    2.9164 C   0  0  0  0  0  0  0  0  0  0  0  0
    4.7965    0.6141    3.6078 C   0  0  0  0  0  0  0  0  0  0  0  0
    5.9640    0.9377    2.9279 C   0  0  0  0  0  0  0  0  0  0  0  0
    6.0544    0.7081    1.5521 C   0  0  0  0  0  0  0  0  0  0  0  0
    7.3119    1.0603    0.8005 C   0  0  0  0  0  0  0  0  0  0  0  0
    8.4432    0.8631    1.5343 F   0  0  0  0  0  0  0  0  0  0  0  0
    7.4808    0.3352   -0.3408 F   0  0  0  0  0  0  0  0  0  0  0  0
    7.3387    2.3672    0.4184 F   0  0  0  0  0  0  0  0  0  0  0  0
    4.9426    0.1686    0.8747 C   0  0  0  0  0  0  0  0  0  0  0  0
    1.6024   -1.4353    1.5635 C   0  0  0  0  0  0  0  0  0  0  0  0
    0.7917   -2.3290    0.6099 C   0  0  0  0  0  0  0  0  0  0  0  0
   -7.3527    0.2114   -1.0264 H   0  0  0  0  0  0  0  0  0  0  0  0
   -5.8016   -0.3062   -1.7041 H   0  0  0  0  0  0  0  0  0  0  0  0
   -6.4170   -1.0594   -0.2206 H   0  0  0  0  0  0  0  0  0  0  0  0
   -3.3866    3.2895    2.7428 H   0  0  0  0  0  0  0  0  0  0  0  0
   -2.5573    3.4770    1.1854 H   0  0  0  0  0  0  0  0  0  0  0  0
   -2.2784    2.0323    2.1736 H   0  0  0  0  0  0  0  0  0  0  0  0
   -3.6358   -0.9773   -0.3221 H   0  0  0  0  0  0  0  0  0  0  0  0
   -2.7061   -0.3825    1.0494 H   0  0  0  0  0  0  0  0  0  0  0  0
   -3.1647    1.6490   -2.8265 H   0  0  0  0  0  0  0  0  0  0  0  0
   -3.1658    0.6925   -5.1168 H   0  0  0  0  0  0  0  0  0  0  0  0
   -2.1721   -1.5437   -5.5338 H   0  0  0  0  0  0  0  0  0  0  0  0
   -1.1402   -2.8159   -3.6654 H   0  0  0  0  0  0  0  0  0  0  0  0
    0.8628   -0.2658   -2.0344 H   0  0  0  0  0  0  0  0  0  0  0  0
    0.5113    0.4623   -0.4576 H   0  0  0  0  0  0  0  0  0  0  0  0
    2.9578   -1.2533   -1.1576 H   0  0  0  0  0  0  0  0  0  0  0  0
    2.9115    0.5025   -0.8897 H   0  0  0  0  0  0  0  0  0  0  0  0
    2.8162   -0.1575    3.4909 H   0  0  0  0  0  0  0  0  0  0  0  0
    4.7217    0.7880    4.6784 H   0  0  0  0  0  0  0  0  0  0  0  0
    6.8043    1.3630    3.4741 H   0  0  0  0  0  0  0  0  0  0  0  0
    5.0393   -0.0167   -0.1930 H   0  0  0  0  0  0  0  0  0  0  0  0
    2.0271   -2.0781    2.3448 H   0  0  0  0  0  0  0  0  0  0  0  0
    0.9284   -0.7112    2.0385 H   0  0  0  0  0  0  0  0  0  0  0  0
    1.4371   -3.1058    0.1814 H   0  0  0  0  0  0  0  0  0  0  0  0
   -0.0063   -2.8342    1.1657 H   0  0  0  0  0  0  0  0  0  0  0  0
  1  2  1  0
  2  3  2  0
  3  4  1  0
  4  5  1  0
  5  6  1  0
  5  7  2  0
  7  8  1  0
  8  9  1  0
  9 10  1  0
 10 11  2  0
 11 12  1  0
 12 13  2  0
 13 14  1  0
 14 15  2  0
 15 16  1  0
 16 17  2  0
 16 18  1  0
 18 19  1  0
 19 20  1  0
 20 21  1  0
 21 22  1  0
 22 23  2  0
 23 24  1  0
 24 25  2  0
 25 26  1  0
 26 27  1  0
 27 28  1  0
 27 29  1  0
 27 30  1  0
 26 31  2  0
 21 32  1  0
 32 33  1  0
  7  2  1  0
 15 10  1  0
 33 18  1  0
 31 22  1  0
  1 34  1  0
  1 35  1  0
  1 36  1  0
  6 37  1  0
  6 38  1  0
  6 39  1  0
  8 40  1  0
  8 41  1  0
 11 42  1  0
 12 43  1  0
 13 44  1  0
 14 45  1  0
 19 46  1  0
 19 47  1  0
 20 48  1  0
 20 49  1  0
 23 50  1  0
 24 51  1  0
 25 52  1  0
 31 53  1  0
 32 54  1  0
 32 55  1  0
 33 56  1  0
 33 57  1  0
M  END
$$$$
