
     RDKit          3D

 53 54  0  0  0  0  0  0  0  0999 V2000
    6.4200    0.8935    2.1238 C   0  0  0  0  0  0  0  0  0  0  0  0
    5.6818   -0.2404    1.4204 C   0  0  0  0  0  0  0  0  0  0  0  0
    4.2546    0.0425    1.2341 N   0  0  0  0  0  0  0  0  0  0  0  0
    3.5247    0.1805    2.5093 C   0  0  0  0  0  0  0  0  0  0  0  0
    1.9977   -0.0814    2.4056 C   0  0  0  0  0  0  0  0  0  0  0  0
    1.3928    0.1721    1.0822 N   0  0  0  0  0  0  0  0  0  0  0  0
    1.4662    1.6278    0.7593 C   0  0  0  0  0  0  0  0  0  0  0  0
    0.4633    2.0123   -0.3441 C   0  0  0  0  0  0  0  0  0  0  0  0
    0.5866    3.0568   -0.9779 O   0  0  0  0  0  0  0  0  0  0  0  0
   -0.5640    1.1001   -0.4674 N   0  0  0  0  0  0  0  0  0  0  0  0
   -1.6562    1.1027   -1.3505 C   0  0  0  0  0  0  0  0  0  0  0  0
   -1.9121    2.1236   -2.2675 C   0  0  0  0  0  0  0  0  0  0  0  0
   -3.0186    2.0512   -3.1359 C   0  0  0  0  0  0  0  0  0  0  0  0
   -3.2634    3.1596   -4.1307 C   0  0  0  0  0  0  0  0  0  0  0  0
   -3.1835    4.3997   -3.5738 F   0  0  0  0  0  0  0  0  0  0  0  0
   -2.3684    3.1474   -5.1564 F   0  0  0  0  0  0  0  0  0  0  0  0
   -4.4949    3.0976   -4.7134 F   0  0  0  0  0  0  0  0  0  0  0  0
   -3.8609    0.9293   -3.0828 C   0  0  0  0  0  0  0  0  0  0  0  0
   -3.6162   -0.0928   -2.1672 C   0  0  0  0  0  0  0  0  0  0  0  0
   -2.5325    0.0085   -1.2945 C   0  0  0  0  0  0  0  0  0  0  0  0
   -2.2726   -1.0119   -0.4127 O   0  0  0  0  0  0  0  0  0  0  0  0
   -3.2162   -1.0243    0.6733 C   0  0  0  0  0  0  0  0  0  0  0  0
   -3.6889   -2.4578    0.9070 C   0  0  0  0  0  0  0  0  0  0  0  0
   -4.6336   -2.8180   -0.1072 O   0  0  0  0  0  0  0  0  0  0  0  0
   -5.0614   -4.1663    0.0315 C   0  0  0  0  0  0  0  0  0  0  0  0
    2.1302   -0.6239    0.0626 C   0  0  0  0  0  0  0  0  0  0  0  0
    3.6099   -0.9699    0.3862 C   0  0  0  0  0  0  0  0  0  0  0  0
    6.0876    1.0147    3.1595 H   0  0  0  0  0  0  0  0  0  0  0  0
    6.2748    1.8439    1.5993 H   0  0  0  0  0  0  0  0  0  0  0  0
    7.4944    0.6829    2.1446 H   0  0  0  0  0  0  0  0  0  0  0  0
    6.1528   -0.3724    0.4383 H   0  0  0  0  0  0  0  0  0  0  0  0
    5.8297   -1.1760    1.9741 H   0  0  0  0  0  0  0  0  0  0  0  0
    3.6738    1.2037    2.8744 H   0  0  0  0  0  0  0  0  0  0  0  0
    3.9253   -0.5019    3.2701 H   0  0  0  0  0  0  0  0  0  0  0  0
    1.4721    0.4923    3.1792 H   0  0  0  0  0  0  0  0  0  0  0  0
    1.8107   -1.1354    2.6531 H   0  0  0  0  0  0  0  0  0  0  0  0
    2.4686    1.9374    0.4447 H   0  0  0  0  0  0  0  0  0  0  0  0
    1.1761    2.2212    1.6354 H   0  0  0  0  0  0  0  0  0  0  0  0
   -0.4624    0.2747    0.1232 H   0  0  0  0  0  0  0  0  0  0  0  0
   -1.2604    2.9918   -2.3329 H   0  0  0  0  0  0  0  0  0  0  0  0
   -4.7107    0.8454   -3.7587 H   0  0  0  0  0  0  0  0  0  0  0  0
   -4.2633   -0.9660   -2.1359 H   0  0  0  0  0  0  0  0  0  0  0  0
   -2.6814   -0.6683    1.5608 H   0  0  0  0  0  0  0  0  0  0  0  0
   -4.0764   -0.3645    0.5011 H   0  0  0  0  0  0  0  0  0  0  0  0
   -4.1806   -2.5270    1.8834 H   0  0  0  0  0  0  0  0  0  0  0  0
   -2.8389   -3.1488    0.8721 H   0  0  0  0  0  0  0  0  0  0  0  0
   -4.2138   -4.8498   -0.0769 H   0  0  0  0  0  0  0  0  0  0  0  0
   -5.5462   -4.3168    1.0008 H   0  0  0  0  0  0  0  0  0  0  0  0
   -5.7857   -4.3806   -0.7589 H   0  0  0  0  0  0  0  0  0  0  0  0
    2.0844   -0.1296   -0.9162 H   0  0  0  0  0  0  0  0  0  0  0  0
    1.5890   -1.5701   -0.0650 H   0  0  0  0  0  0  0  0  0  0  0  0
    4.1475   -1.0692   -0.5647 H   0  0  0  0  0  0  0  0  0  0  0  0
    3.6489   -1.9495    0.8818 H   0  0  0  0  0  0  0  0  0  0  0  0
  1  2  1  0
  2  3  1  0
  3  4  1  0
  4  5  1  0
  5  6  1  0
  6  7  1  0
  7  8  1  0
  8  9  2  0
  8 10  1  0
 10 11  1  0
 11 12  2  0
 12 13  1  0
 13 14  1  0
 14 15  1  0
 14 16  1  0
 14 17  1  0
 13 18  2  0
 18 19  1  0
 19 20  2  0
 20 21  1  0
 21 22  1  0
 22 23  1  0
 23 24  1  0
 24 25  1  0
  6 26  1  0
 26 27  1  0
 27  3  1  0
 20 11  1  0
  1 28  1  0
  1 29  1  0
  1 30  1  0
  2 31  1  0
  2 32  1  0
  4 33  1  0
  4 34  1  0
  5 35  1  0
  5 36  1  0
  7 37  1  0
  7 38  1  0
 10 39  1  0
 12 40  1  0
 18 41  1  0
 19 42  1  0
 22 43  1  0
 22 44  1  0
 23 45  1  0
 23 46  1  0
 25 47  1  0
 25 48  1  0
 25 49  1  0
 26 50  1  0
 26 51  1  0
 27 52  1  0
 27 53  1  0
M  END
$$$$
