
     RDKit          3D

 42 44  0  0  0  0  0  0  0  0999 V2000
    5.8784    0.6032   -0.1704 C   0  0  0  0  0  0  0  0  0  0  0  0
    5.1082   -0.5561    0.4428 C   0  0  0  0  0  0  0  0  0  0  0  0
    3.6193   -0.3244    0.4009 C   0  0  0  0  0  0  0  0  0  0  0  0
    2.8678   -0.7366   -0.7053 C   0  0  0  0  0  0  0  0  0  0  0  0
    1.4910   -0.5077   -0.7530 C   0  0  0  0  0  0  0  0  0  0  0  0
    0.8362    0.1420    0.3053 C   0  0  0  0  0  0  0  0  0  0  0  0
   -0.6724    0.3898    0.2791 C   0  0  0  0  0  0  0  0  0  0  0  0
   -1.4428   -0.9527    0.2362 C   0  0  0  0  0  0  0  0  0  0  0  0
   -1.1160   -1.7658    1.4745 C   0  0  0  0  0  0  0  0  0  0  0  0
   -0.8315   -2.9543    1.4908 O   0  0  0  0  0  0  0  0  0  0  0  0
   -1.2412   -1.0935    2.6364 O   0  0  0  0  0  0  0  0  0  0  0  0
   -2.9318   -0.7368    0.0497 C   0  0  0  0  0  0  0  0  0  0  0  0
   -3.8713   -1.7173    0.4196 C   0  0  0  0  0  0  0  0  0  0  0  0
   -5.2373   -1.5130    0.2159 C   0  0  0  0  0  0  0  0  0  0  0  0
   -5.6857   -0.3383   -0.3782 C   0  0  0  0  0  0  0  0  0  0  0  0
   -4.7649    0.6270   -0.7816 C   0  0  0  0  0  0  0  0  0  0  0  0
   -3.3898    0.4302   -0.5792 C   0  0  0  0  0  0  0  0  0  0  0  0
   -2.4455    1.4680   -1.0819 C   0  0  0  0  0  0  0  0  0  0  0  0
   -2.8936    2.4186   -1.7185 O   0  0  0  0  0  0  0  0  0  0  0  0
   -1.0825    1.3033   -0.8091 N   0  0  0  0  0  0  0  0  0  0  0  0
   -0.2285    2.4457   -1.1230 C   0  0  0  0  0  0  0  0  0  0  0  0
    1.5958    0.5638    1.4071 C   0  0  0  0  0  0  0  0  0  0  0  0
    2.9727    0.3340    1.4530 C   0  0  0  0  0  0  0  0  0  0  0  0
    5.6033    0.7521   -1.2201 H   0  0  0  0  0  0  0  0  0  0  0  0
    5.6810    1.5385    0.3643 H   0  0  0  0  0  0  0  0  0  0  0  0
    6.9546    0.4080   -0.1262 H   0  0  0  0  0  0  0  0  0  0  0  0
    5.3520   -1.4850   -0.0872 H   0  0  0  0  0  0  0  0  0  0  0  0
    5.4289   -0.7066    1.4809 H   0  0  0  0  0  0  0  0  0  0  0  0
    3.3520   -1.2365   -1.5416 H   0  0  0  0  0  0  0  0  0  0  0  0
    0.9363   -0.8267   -1.6334 H   0  0  0  0  0  0  0  0  0  0  0  0
   -0.9498    0.9304    1.1962 H   0  0  0  0  0  0  0  0  0  0  0  0
   -1.1100   -1.5409   -0.6300 H   0  0  0  0  0  0  0  0  0  0  0  0
   -1.0363   -1.7653    3.3221 H   0  0  0  0  0  0  0  0  0  0  0  0
   -3.5550   -2.6592    0.8656 H   0  0  0  0  0  0  0  0  0  0  0  0
   -5.9513   -2.2772    0.5143 H   0  0  0  0  0  0  0  0  0  0  0  0
   -6.7482   -0.1783   -0.5427 H   0  0  0  0  0  0  0  0  0  0  0  0
   -5.1226    1.5333   -1.2675 H   0  0  0  0  0  0  0  0  0  0  0  0
   -0.1597    3.0871   -0.2390 H   0  0  0  0  0  0  0  0  0  0  0  0
    0.7665    2.1122   -1.4240 H   0  0  0  0  0  0  0  0  0  0  0  0
   -0.6377    3.0346   -1.9492 H   0  0  0  0  0  0  0  0  0  0  0  0
    1.1213    1.0761    2.2419 H   0  0  0  0  0  0  0  0  0  0  0  0
    3.5400    0.6741    2.3168 H   0  0  0  0  0  0  0  0  0  0  0  0
  1  2  1  0
  2  3  1  0
  3  4  2  0
  4  5  1  0
  5  6  2  0
  6  7  1  0
  7  8  1  0
  8  9  1  0
  9 10  2  0
  9 11  1  0
  8 12  1  0
 12 13  2  0
 13 14  1  0
 14 15  2  0
 15 16  1  0
 16 17  2  0
 17 18  1  0
 18 19  2  0
 18 20  1  0
 20 21  1  0
  6 22  1  0
 22 23  2  0
 23  3  1  0
 20  7  1  0
 17 12  1  0
  1 24  1  0
  1 25  1  0
  1 26  1  0
  2 27  1  0
  2 28  1  0
  4 29  1  0
  5 30  1  0
  7 31  1  0
  8 32  1  0
 11 33  1  0
 13 34  1  0
 14 35  1  0
 15 36  1  0
 16 37  1  0
 21 38  1  0
 21 39  1  0
 21 40  1  0
 22 41  1  0
 23 42  1  0
M  END
$$$$
