
     RDKit          3D

 64 68  0  0  0  0  0  0  0  0999 V2000
    0.8284   -2.2250   -1.4300 O   0  0  0  0  0  0  0  0  0  0  0  0
    1.2475   -1.6913   -0.4003 C   0  0  0  0  0  0  0  0  0  0  0  0
    0.3026   -1.4039    0.7790 C   0  0  0  0  0  0  0  0  0  0  0  0
   -1.0286   -2.1609    0.6395 C   0  0  0  0  0  0  0  0  0  0  0  0
   -1.9843   -1.5940   -0.4163 C   0  0  0  0  0  0  0  0  0  0  0  0
   -1.8629   -0.0732   -0.6048 C   0  0  0  0  0  0  0  0  0  0  0  0
   -3.1633    0.5761   -1.1096 C   0  0  0  0  0  0  0  0  0  0  0  0
   -4.2071    0.5634   -0.0858 N   0  0  0  0  0  0  0  0  0  0  0  0
   -5.3264    1.3895   -0.0887 C   0  0  0  0  0  0  0  0  0  0  0  0
   -5.1738    2.6888   -0.4961 N   0  0  0  0  0  0  0  0  0  0  0  0
   -6.1569    3.6400   -0.5399 C   0  0  0  0  0  0  0  0  0  0  0  0
   -5.7278    5.1847   -1.0330 S   0  0  0  0  0  0  0  0  0  0  0  0
   -7.4258    3.2842   -0.1813 N   0  0  0  0  0  0  0  0  0  0  0  0
   -7.6127    2.0694    0.2244 C   0  0  0  0  0  0  0  0  0  0  0  0
   -8.9878    1.6664    0.6348 C   0  0  0  0  0  0  0  0  0  0  0  0
   -9.2375    0.4284    1.0793 C   0  0  0  0  0  0  0  0  0  0  0  0
   -8.2037   -0.5710    1.1814 C   0  0  0  0  0  0  0  0  0  0  0  0
   -6.9387   -0.3069    0.8235 C   0  0  0  0  0  0  0  0  0  0  0  0
   -6.5567    1.0044    0.3229 C   0  0  0  0  0  0  0  0  0  0  0  0
   -1.3251    0.5958    0.6633 C   0  0  0  0  0  0  0  0  0  0  0  0
    0.0913    0.1091    0.9778 C   0  0  0  0  0  0  0  0  0  0  0  0
    2.5772   -1.3119   -0.2810 N   0  0  0  0  0  0  0  0  0  0  0  0
    3.2203   -0.8099    0.9414 C   0  0  0  0  0  0  0  0  0  0  0  0
    4.7495   -1.0117    0.9571 C   0  0  0  0  0  0  0  0  0  0  0  0
    5.3778   -0.4199   -0.2331 N   0  0  0  0  0  0  0  0  0  0  0  0
    6.7210   -0.0698   -0.2517 C   0  0  0  0  0  0  0  0  0  0  0  0
    7.6266   -0.5230    0.7248 C   0  0  0  0  0  0  0  0  0  0  0  0
    8.9802   -0.1633    0.7033 C   0  0  0  0  0  0  0  0  0  0  0  0
    9.4515    0.6664   -0.3007 C   0  0  0  0  0  0  0  0  0  0  0  0
   10.7458    1.0115   -0.3247 F   0  0  0  0  0  0  0  0  0  0  0  0
    8.5944    1.1432   -1.2777 C   0  0  0  0  0  0  0  0  0  0  0  0
    7.2432    0.7772   -1.2478 C   0  0  0  0  0  0  0  0  0  0  0  0
    4.6024   -0.4568   -1.4888 C   0  0  0  0  0  0  0  0  0  0  0  0
    3.4620   -1.4899   -1.4366 C   0  0  0  0  0  0  0  0  0  0  0  0
    0.7843   -1.8172    1.6727 H   0  0  0  0  0  0  0  0  0  0  0  0
   -0.8500   -3.2233    0.4308 H   0  0  0  0  0  0  0  0  0  0  0  0
   -1.5388   -2.1281    1.6124 H   0  0  0  0  0  0  0  0  0  0  0  0
   -3.0022   -1.8894   -0.1392 H   0  0  0  0  0  0  0  0  0  0  0  0
   -1.7984   -2.0793   -1.3827 H   0  0  0  0  0  0  0  0  0  0  0  0
   -1.1190    0.0899   -1.3986 H   0  0  0  0  0  0  0  0  0  0  0  0
   -2.9309    1.6008   -1.4196 H   0  0  0  0  0  0  0  0  0  0  0  0
   -3.5256    0.0463   -1.9988 H   0  0  0  0  0  0  0  0  0  0  0  0
   -4.4279   -0.3819    0.2063 H   0  0  0  0  0  0  0  0  0  0  0  0
   -4.2464    3.0146   -0.7242 H   0  0  0  0  0  0  0  0  0  0  0  0
   -9.7618    2.4209    0.5594 H   0  0  0  0  0  0  0  0  0  0  0  0
  -10.2428    0.1476    1.3796 H   0  0  0  0  0  0  0  0  0  0  0  0
   -8.4824   -1.5511    1.5586 H   0  0  0  0  0  0  0  0  0  0  0  0
   -6.1948   -1.0877    0.9188 H   0  0  0  0  0  0  0  0  0  0  0  0
   -1.3100    1.6866    0.5472 H   0  0  0  0  0  0  0  0  0  0  0  0
   -1.9811    0.3806    1.5165 H   0  0  0  0  0  0  0  0  0  0  0  0
    0.7882    0.6838    0.3569 H   0  0  0  0  0  0  0  0  0  0  0  0
    0.3226    0.3732    2.0169 H   0  0  0  0  0  0  0  0  0  0  0  0
    2.9978    0.2620    0.9984 H   0  0  0  0  0  0  0  0  0  0  0  0
    2.7869   -1.2929    1.8205 H   0  0  0  0  0  0  0  0  0  0  0  0
    4.9806   -2.0833    0.9935 H   0  0  0  0  0  0  0  0  0  0  0  0
    5.1308   -0.5462    1.8739 H   0  0  0  0  0  0  0  0  0  0  0  0
    7.3017   -1.1899    1.5183 H   0  0  0  0  0  0  0  0  0  0  0  0
    9.6623   -0.5315    1.4622 H   0  0  0  0  0  0  0  0  0  0  0  0
    8.9735    1.7998   -2.0538 H   0  0  0  0  0  0  0  0  0  0  0  0
    6.5935    1.1917   -2.0144 H   0  0  0  0  0  0  0  0  0  0  0  0
    4.1819    0.5400   -1.6680 H   0  0  0  0  0  0  0  0  0  0  0  0
    5.2418   -0.7165   -2.3412 H   0  0  0  0  0  0  0  0  0  0  0  0
    2.8860   -1.4419   -2.3671 H   0  0  0  0  0  0  0  0  0  0  0  0
    3.8777   -2.5023   -1.3600 H   0  0  0  0  0  0  0  0  0  0  0  0
  1  2  2  0
  2  3  1  0
  3  4  1  0
  4  5  1  0
  5  6  1  0
  6  7  1  0
  7  8  1  0
  8  9  1  0
  9 10  1  0
 10 11  1  0
 11 12  2  0
 11 13  1  0
 13 14  2  0
 14 15  1  0
 15 16  2  0
 16 17  1  0
 17 18  2  0
 18 19  1  0
  6 20  1  0
 20 21  1  0
  2 22  1  0
 22 23  1  0
 23 24  1  0
 24 25  1  0
 25 26  1  0
 26 27  2  0
 27 28  1  0
 28 29  2  0
 29 30  1  0
 29 31  1  0
 31 32  2  0
 25 33  1  0
 33 34  1  0
 21  3  1  0
 34 22  1  0
 19  9  2  0
 32 26  1  0
 19 14  1  0
  3 35  1  0
  4 36  1  0
  4 37  1  0
  5 38  1  0
  5 39  1  0
  6 40  1  0
  7 41  1  0
  7 42  1  0
  8 43  1  0
 10 44  1  0
 15 45  1  0
 16 46  1  0
 17 47  1  0
 18 48  1  0
 20 49  1  0
 20 50  1  0
 21 51  1  0
 21 52  1  0
 23 53  1  0
 23 54  1  0
 24 55  1  0
 24 56  1  0
 27 57  1  0
 28 58  1  0
 31 59  1  0
 32 60  1  0
 33 61  1  0
 33 62  1  0
 34 63  1  0
 34 64  1  0
M  END
$$$$
