
     RDKit          3D

 42 45  0  0  0  0  0  0  0  0999 V2000
    5.8136    2.8799   -1.3956 O   0  0  0  0  0  0  0  0  0  0  0  0
    6.5155    1.9076   -1.1824 C   0  0  0  0  0  0  0  0  0  0  0  0
    7.8344    1.9398   -1.4516 O   0  0  0  0  0  0  0  0  0  0  0  0
    6.0754    0.5608   -0.6791 C   0  0  0  0  0  0  0  0  0  0  0  0
    4.7529    0.6704    0.0846 C   0  0  0  0  0  0  0  0  0  0  0  0
    4.9977    1.1141    1.5284 C   0  0  0  0  0  0  0  0  0  0  0  0
    5.8021    1.9610    1.8857 O   0  0  0  0  0  0  0  0  0  0  0  0
    4.2016    0.5202    2.4414 O   0  0  0  0  0  0  0  0  0  0  0  0
    3.9007   -0.5491    0.0315 N   0  0  0  0  0  0  0  0  0  0  0  0
    2.5409   -0.3657   -0.1962 C   0  0  0  0  0  0  0  0  0  0  0  0
    2.0073    0.7207   -0.3661 O   0  0  0  0  0  0  0  0  0  0  0  0
    1.8113   -1.6657   -0.1771 C   0  0  0  0  0  0  0  0  0  0  0  0
    0.5171   -1.9390   -0.3937 C   0  0  0  0  0  0  0  0  0  0  0  0
   -0.5064   -1.0231   -0.7551 C   0  0  0  0  0  0  0  0  0  0  0  0
   -0.5228    0.0731   -1.6036 C   0  0  0  0  0  0  0  0  0  0  0  0
   -1.8374    0.6000   -1.6125 C   0  0  0  0  0  0  0  0  0  0  0  0
   -2.6052   -0.2039   -0.7902 C   0  0  0  0  0  0  0  0  0  0  0  0
   -4.0036   -0.1209   -0.4520 C   0  0  0  0  0  0  0  0  0  0  0  0
   -4.5830   -1.0036    0.3338 N   0  0  0  0  0  0  0  0  0  0  0  0
   -5.9215   -0.6925    0.4957 C   0  0  0  0  0  0  0  0  0  0  0  0
   -6.8505   -1.4161    1.2705 C   0  0  0  0  0  0  0  0  0  0  0  0
   -8.1794   -0.9860    1.3455 C   0  0  0  0  0  0  0  0  0  0  0  0
   -8.5909    0.1524    0.6596 C   0  0  0  0  0  0  0  0  0  0  0  0
   -7.6888    0.8877   -0.1158 C   0  0  0  0  0  0  0  0  0  0  0  0
   -6.3568    0.4461   -0.1836 C   0  0  0  0  0  0  0  0  0  0  0  0
   -5.0286    1.1251   -1.0407 S   0  0  0  0  0  0  0  0  0  0  0  0
   -1.7921   -1.1910   -0.2948 O   0  0  0  0  0  0  0  0  0  0  0  0
    2.9213   -2.9244    0.2405 S   0  0  0  0  0  0  0  0  0  0  0  0
    4.2868   -1.8280    0.3778 C   0  0  0  0  0  0  0  0  0  0  0  0
    5.7782   -2.3867    0.8742 S   0  0  0  0  0  0  0  0  0  0  0  0
    8.0011    2.8561   -1.7595 H   0  0  0  0  0  0  0  0  0  0  0  0
    6.8737    0.1755   -0.0365 H   0  0  0  0  0  0  0  0  0  0  0  0
    5.9704   -0.0875   -1.5562 H   0  0  0  0  0  0  0  0  0  0  0  0
    4.1610    1.4849   -0.3479 H   0  0  0  0  0  0  0  0  0  0  0  0
    4.4491    0.9416    3.2929 H   0  0  0  0  0  0  0  0  0  0  0  0
    0.1673   -2.9605   -0.2544 H   0  0  0  0  0  0  0  0  0  0  0  0
    0.3202    0.4602   -2.1594 H   0  0  0  0  0  0  0  0  0  0  0  0
   -2.1775    1.4648   -2.1651 H   0  0  0  0  0  0  0  0  0  0  0  0
   -6.5239   -2.3035    1.8038 H   0  0  0  0  0  0  0  0  0  0  0  0
   -8.8924   -1.5475    1.9448 H   0  0  0  0  0  0  0  0  0  0  0  0
   -9.6276    0.4762    0.7267 H   0  0  0  0  0  0  0  0  0  0  0  0
   -8.0115    1.7761   -0.6502 H   0  0  0  0  0  0  0  0  0  0  0  0
  1  2  2  0
  2  3  1  0
  2  4  1  0
  4  5  1  0
  5  6  1  0
  6  7  2  0
  6  8  1  0
  5  9  1  0
  9 10  1  0
 10 11  2  0
 10 12  1  0
 12 13  2  3
 13 14  1  0
 14 15  2  0
 15 16  1  0
 16 17  2  0
 17 18  1  0
 18 19  2  0
 19 20  1  0
 20 21  2  0
 21 22  1  0
 22 23  2  0
 23 24  1  0
 24 25  2  0
 25 26  1  0
 17 27  1  0
 12 28  1  0
 28 29  1  0
 29 30  2  0
 29  9  1  0
 27 14  1  0
 26 18  1  0
 25 20  1  0
  3 31  1  0
  4 32  1  0
  4 33  1  0
  5 34  1  0
  8 35  1  0
 13 36  1  0
 15 37  1  0
 16 38  1  0
 21 39  1  0
 22 40  1  0
 23 41  1  0
 24 42  1  0
M  END
$$$$
