
     RDKit          3D

 57 59  0  0  0  0  0  0  0  0999 V2000
   -3.0198   -4.3094   -0.5886 C   0  0  0  0  0  0  0  0  0  0  0  0
   -2.1011   -3.2612    0.0136 C   0  0  0  0  0  0  0  0  0  0  0  0
   -1.5404   -2.3229   -1.0526 C   0  0  0  0  0  0  0  0  0  0  0  0
   -0.6605   -1.3660   -0.4609 O   0  0  0  0  0  0  0  0  0  0  0  0
   -1.1669   -0.1550   -0.0609 C   0  0  0  0  0  0  0  0  0  0  0  0
   -2.5289    0.1488    0.0411 C   0  0  0  0  0  0  0  0  0  0  0  0
   -2.9697    1.4114    0.4705 C   0  0  0  0  0  0  0  0  0  0  0  0
   -4.3593    1.6392    0.5721 N   0  0  0  0  0  0  0  0  0  0  0  0
   -4.8671    1.2736    1.9097 C   0  0  0  0  0  0  0  0  0  0  0  0
   -5.6722   -0.0144    1.8251 C   0  0  0  0  0  0  0  0  0  0  0  0
   -4.8015    2.9446    0.0529 C   0  0  0  0  0  0  0  0  0  0  0  0
   -6.2578    2.8754   -0.3867 C   0  0  0  0  0  0  0  0  0  0  0  0
   -2.0131    2.3734    0.8144 C   0  0  0  0  0  0  0  0  0  0  0  0
   -0.6500    2.0835    0.7298 C   0  0  0  0  0  0  0  0  0  0  0  0
   -0.2201    0.8247    0.2915 C   0  0  0  0  0  0  0  0  0  0  0  0
    1.2297    0.5778    0.2262 C   0  0  0  0  0  0  0  0  0  0  0  0
    1.9507    0.4642   -0.9081 C   0  0  0  0  0  0  0  0  0  0  0  0
    1.3453    0.5904   -2.1975 C   0  0  0  0  0  0  0  0  0  0  0  0
    0.9469    0.6872   -3.2841 N   0  0  0  0  0  0  0  0  0  0  0  0
    3.3563    0.2321   -0.7778 C   0  0  0  0  0  0  0  0  0  0  0  0
    4.1072    0.1211    0.3061 N   0  0  0  0  0  0  0  0  0  0  0  0
    5.3904   -0.0907   -0.1331 C   0  0  0  0  0  0  0  0  0  0  0  0
    6.5718   -0.2804    0.5994 C   0  0  0  0  0  0  0  0  0  0  0  0
    7.7822   -0.4673   -0.0916 C   0  0  0  0  0  0  0  0  0  0  0  0
    9.0524   -0.7062    0.6726 C   0  0  0  0  0  0  0  0  0  0  0  0
    7.7893   -0.4841   -1.4952 C   0  0  0  0  0  0  0  0  0  0  0  0
    6.6182   -0.2977   -2.2418 C   0  0  0  0  0  0  0  0  0  0  0  0
    5.4405   -0.1055   -1.5191 C   0  0  0  0  0  0  0  0  0  0  0  0
    4.1407    0.0981   -1.9070 N   0  0  0  0  0  0  0  0  0  0  0  0
   -3.8961   -3.8412   -1.0491 H   0  0  0  0  0  0  0  0  0  0  0  0
   -3.3706   -4.9982    0.1860 H   0  0  0  0  0  0  0  0  0  0  0  0
   -2.5009   -4.8943   -1.3546 H   0  0  0  0  0  0  0  0  0  0  0  0
   -1.2708   -3.7502    0.5388 H   0  0  0  0  0  0  0  0  0  0  0  0
   -2.6434   -2.6933    0.7782 H   0  0  0  0  0  0  0  0  0  0  0  0
   -0.9284   -2.9098   -1.7490 H   0  0  0  0  0  0  0  0  0  0  0  0
   -2.3193   -1.8546   -1.6662 H   0  0  0  0  0  0  0  0  0  0  0  0
   -3.2908   -0.5807   -0.2111 H   0  0  0  0  0  0  0  0  0  0  0  0
   -5.5151    2.0663    2.3060 H   0  0  0  0  0  0  0  0  0  0  0  0
   -4.0594    1.1514    2.6439 H   0  0  0  0  0  0  0  0  0  0  0  0
   -5.0456   -0.8552    1.5153 H   0  0  0  0  0  0  0  0  0  0  0  0
   -6.4928    0.0769    1.1065 H   0  0  0  0  0  0  0  0  0  0  0  0
   -6.1009   -0.2565    2.8018 H   0  0  0  0  0  0  0  0  0  0  0  0
   -4.2084    3.2269   -0.8265 H   0  0  0  0  0  0  0  0  0  0  0  0
   -4.6764    3.7316    0.8063 H   0  0  0  0  0  0  0  0  0  0  0  0
   -6.4054    2.0817   -1.1267 H   0  0  0  0  0  0  0  0  0  0  0  0
   -6.5620    3.8254   -0.8380 H   0  0  0  0  0  0  0  0  0  0  0  0
   -6.9247    2.6755    0.4576 H   0  0  0  0  0  0  0  0  0  0  0  0
   -2.3174    3.3525    1.1725 H   0  0  0  0  0  0  0  0  0  0  0  0
    0.0720    2.8473    1.0113 H   0  0  0  0  0  0  0  0  0  0  0  0
    1.7106    0.4895    1.1998 H   0  0  0  0  0  0  0  0  0  0  0  0
    6.5327   -0.2770    1.6836 H   0  0  0  0  0  0  0  0  0  0  0  0
    9.2036   -1.7801    0.8176 H   0  0  0  0  0  0  0  0  0  0  0  0
    9.9136   -0.2948    0.1357 H   0  0  0  0  0  0  0  0  0  0  0  0
    9.0183   -0.2187    1.6522 H   0  0  0  0  0  0  0  0  0  0  0  0
    8.7263   -0.6434   -2.0277 H   0  0  0  0  0  0  0  0  0  0  0  0
    6.6357   -0.3042   -3.3267 H   0  0  0  0  0  0  0  0  0  0  0  0
    3.8228    0.1425   -2.8653 H   0  0  0  0  0  0  0  0  0  0  0  0
  1  2  1  0
  2  3  1  0
  3  4  1  0
  4  5  1  0
  5  6  2  0
  6  7  1  0
  7  8  1  0
  8  9  1  0
  9 10  1  0
  8 11  1  0
 11 12  1  0
  7 13  2  0
 13 14  1  0
 14 15  2  0
 15 16  1  0
 16 17  2  3
 17 18  1  0
 18 19  3  0
 17 20  1  0
 20 21  2  0
 21 22  1  0
 22 23  2  0
 23 24  1  0
 24 25  1  0
 24 26  2  0
 26 27  1  0
 27 28  2  0
 28 29  1  0
 15  5  1  0
 29 20  1  0
 28 22  1  0
  1 30  1  0
  1 31  1  0
  1 32  1  0
  2 33  1  0
  2 34  1  0
  3 35  1  0
  3 36  1  0
  6 37  1  0
  9 38  1  0
  9 39  1  0
 10 40  1  0
 10 41  1  0
 10 42  1  0
 11 43  1  0
 11 44  1  0
 12 45  1  0
 12 46  1  0
 12 47  1  0
 13 48  1  0
 14 49  1  0
 16 50  1  0
 23 51  1  0
 25 52  1  0
 25 53  1  0
 25 54  1  0
 26 55  1  0
 27 56  1  0
 29 57  1  0
M  END
$$$$
