
     RDKit          3D

 48 50  0  0  0  0  0  0  0  0999 V2000
    3.0507    1.5544    0.5877 C   0  0  0  0  0  0  0  0  0  0  0  0
    1.7398    1.2702    0.6208 C   0  0  0  0  0  0  0  0  0  0  0  0
    0.7393    1.9503    1.4551 C   0  0  0  0  0  0  0  0  0  0  0  0
    0.9813    3.1078    2.3450 C   0  0  0  0  0  0  0  0  0  0  0  0
    2.0417    3.7036    2.4562 O   0  0  0  0  0  0  0  0  0  0  0  0
   -0.1550    3.4254    3.0322 O   0  0  0  0  0  0  0  0  0  0  0  0
   -0.0016    4.5346    3.9220 C   0  0  0  0  0  0  0  0  0  0  0  0
   -0.4449    1.3321    1.2642 C   0  0  0  0  0  0  0  0  0  0  0  0
   -1.6561    1.6171    1.8268 O   0  0  0  0  0  0  0  0  0  0  0  0
   -0.3037    0.2440    0.2942 C   0  0  0  0  0  0  0  0  0  0  0  0
   -1.2771   -0.5575   -0.1816 C   0  0  0  0  0  0  0  0  0  0  0  0
   -2.6923   -0.5574    0.1945 C   0  0  0  0  0  0  0  0  0  0  0  0
   -3.6257    0.1246   -0.5952 C   0  0  0  0  0  0  0  0  0  0  0  0
   -4.9800    0.1142   -0.2520 C   0  0  0  0  0  0  0  0  0  0  0  0
   -5.3929   -0.5819    0.8803 C   0  0  0  0  0  0  0  0  0  0  0  0
   -6.7048   -0.6184    1.2514 O   0  0  0  0  0  0  0  0  0  0  0  0
   -4.4768   -1.2648    1.6721 C   0  0  0  0  0  0  0  0  0  0  0  0
   -3.1237   -1.2540    1.3292 C   0  0  0  0  0  0  0  0  0  0  0  0
    1.0558    0.2541   -0.0689 N   0  0  0  0  0  0  0  0  0  0  0  0
    1.6620   -0.6600   -0.9711 C   0  0  0  0  0  0  0  0  0  0  0  0
    1.6424   -2.0404   -0.7179 C   0  0  0  0  0  0  0  0  0  0  0  0
    2.2493   -2.9483   -1.5957 C   0  0  0  0  0  0  0  0  0  0  0  0
    2.1964   -4.4211   -1.3166 C   0  0  0  0  0  0  0  0  0  0  0  0
    2.8593   -2.4669   -2.7602 C   0  0  0  0  0  0  0  0  0  0  0  0
    2.8806   -1.0961   -3.0438 C   0  0  0  0  0  0  0  0  0  0  0  0
    3.5700   -0.5844   -4.2737 C   0  0  0  0  0  0  0  0  0  0  0  0
    2.2943   -0.2025   -2.1375 C   0  0  0  0  0  0  0  0  0  0  0  0
    3.7386    0.9817   -0.0245 H   0  0  0  0  0  0  0  0  0  0  0  0
    3.4968    2.3489    1.1747 H   0  0  0  0  0  0  0  0  0  0  0  0
    0.7555    4.3155    4.6814 H   0  0  0  0  0  0  0  0  0  0  0  0
    0.2563    5.4399    3.3637 H   0  0  0  0  0  0  0  0  0  0  0  0
   -0.9587    4.6986    4.4246 H   0  0  0  0  0  0  0  0  0  0  0  0
   -1.5309    2.3573    2.4497 H   0  0  0  0  0  0  0  0  0  0  0  0
   -1.0426   -1.2974   -0.9420 H   0  0  0  0  0  0  0  0  0  0  0  0
   -3.3001    0.6711   -1.4768 H   0  0  0  0  0  0  0  0  0  0  0  0
   -5.6882    0.6512   -0.8741 H   0  0  0  0  0  0  0  0  0  0  0  0
   -7.2183   -0.0956    0.6145 H   0  0  0  0  0  0  0  0  0  0  0  0
   -4.8128   -1.8012    2.5544 H   0  0  0  0  0  0  0  0  0  0  0  0
   -2.4093   -1.7835    1.9539 H   0  0  0  0  0  0  0  0  0  0  0  0
    1.1629   -2.4069    0.1876 H   0  0  0  0  0  0  0  0  0  0  0  0
    3.0599   -4.9339   -1.7532 H   0  0  0  0  0  0  0  0  0  0  0  0
    2.2154   -4.6146   -0.2389 H   0  0  0  0  0  0  0  0  0  0  0  0
    1.2814   -4.8488   -1.7377 H   0  0  0  0  0  0  0  0  0  0  0  0
    3.3228   -3.1667   -3.4533 H   0  0  0  0  0  0  0  0  0  0  0  0
    4.6216   -0.3760   -4.0535 H   0  0  0  0  0  0  0  0  0  0  0  0
    3.5166   -1.3176   -5.0855 H   0  0  0  0  0  0  0  0  0  0  0  0
    3.0948    0.3339   -4.6347 H   0  0  0  0  0  0  0  0  0  0  0  0
    2.3100    0.8649   -2.3479 H   0  0  0  0  0  0  0  0  0  0  0  0
  1  2  2  0
  2  3  1  0
  3  4  1  0
  4  5  2  0
  4  6  1  0
  6  7  1  0
  3  8  2  0
  8  9  1  0
  8 10  1  0
 10 11  2  3
 11 12  1  0
 12 13  2  0
 13 14  1  0
 14 15  2  0
 15 16  1  0
 15 17  1  0
 17 18  2  0
 10 19  1  0
 19 20  1  0
 20 21  2  0
 21 22  1  0
 22 23  1  0
 22 24  2  0
 24 25  1  0
 25 26  1  0
 25 27  2  0
 19  2  1  0
 27 20  1  0
 18 12  1  0
  1 28  1  0
  1 29  1  0
  7 30  1  0
  7 31  1  0
  7 32  1  0
  9 33  1  0
 11 34  1  0
 13 35  1  0
 14 36  1  0
 16 37  1  0
 17 38  1  0
 18 39  1  0
 21 40  1  0
 23 41  1  0
 23 42  1  0
 23 43  1  0
 24 44  1  0
 26 45  1  0
 26 46  1  0
 26 47  1  0
 27 48  1  0
M  END
$$$$
