
     RDKit          3D

 51 53  0  0  0  0  0  0  0  0999 V2000
    9.2456   -2.1309    0.4171 C   0  0  0  0  0  0  0  0  0  0  0  0
    8.7480   -0.8143    0.6184 O   0  0  0  0  0  0  0  0  0  0  0  0
    7.3213   -0.7769    0.5376 C   0  0  0  0  0  0  0  0  0  0  0  0
    6.8528    0.6691    0.7044 C   0  0  0  0  0  0  0  0  0  0  0  0
    5.4171    0.7922    0.8519 N   0  0  0  0  0  0  0  0  0  0  0  0
    4.5431    0.6217   -0.2029 C   0  0  0  0  0  0  0  0  0  0  0  0
    4.9609    0.3351   -1.3228 O   0  0  0  0  0  0  0  0  0  0  0  0
    3.1221    0.7947    0.1092 C   0  0  0  0  0  0  0  0  0  0  0  0
    2.6327    1.3572    1.6566 S   0  0  0  0  0  0  0  0  0  0  0  0
    0.9892    1.3422    1.2373 C   0  0  0  0  0  0  0  0  0  0  0  0
    0.0400    1.7216    2.1291 N   0  0  0  0  0  0  0  0  0  0  0  0
   -1.1685    1.6718    1.6701 C   0  0  0  0  0  0  0  0  0  0  0  0
   -1.5279    1.3087    0.3877 N   0  0  0  0  0  0  0  0  0  0  0  0
   -2.9326    1.2812    0.0081 C   0  0  0  0  0  0  0  0  0  0  0  0
   -3.5512   -0.0845    0.3387 C   0  0  0  0  0  0  0  0  0  0  0  0
   -2.9125   -0.9399    0.9558 O   0  0  0  0  0  0  0  0  0  0  0  0
   -4.8783   -0.2837   -0.0379 N   0  0  0  0  0  0  0  0  0  0  0  0
   -5.5338   -1.5391    0.3348 C   0  0  0  0  0  0  0  0  0  0  0  0
   -6.9909   -1.3077    0.7182 C   0  0  0  0  0  0  0  0  0  0  0  0
   -7.7923   -0.6522   -0.4074 C   0  0  0  0  0  0  0  0  0  0  0  0
   -6.9128    0.0728   -1.4240 C   0  0  0  0  0  0  0  0  0  0  0  0
   -5.6795    0.6943   -0.7776 C   0  0  0  0  0  0  0  0  0  0  0  0
   -0.5831    0.8887   -0.5463 C   0  0  0  0  0  0  0  0  0  0  0  0
   -0.8798    0.5555   -1.6910 O   0  0  0  0  0  0  0  0  0  0  0  0
    0.7902    0.9160   -0.0571 C   0  0  0  0  0  0  0  0  0  0  0  0
    2.0245    0.5626   -0.7205 C   0  0  0  0  0  0  0  0  0  0  0  0
    2.1199    0.0360   -2.1212 C   0  0  0  0  0  0  0  0  0  0  0  0
    8.9752   -2.4949   -0.5790 H   0  0  0  0  0  0  0  0  0  0  0  0
   10.3359   -2.1022    0.4942 H   0  0  0  0  0  0  0  0  0  0  0  0
    8.8584   -2.8083    1.1847 H   0  0  0  0  0  0  0  0  0  0  0  0
    6.8995   -1.4018    1.3339 H   0  0  0  0  0  0  0  0  0  0  0  0
    6.9931   -1.1773   -0.4284 H   0  0  0  0  0  0  0  0  0  0  0  0
    7.3124    1.1155    1.5933 H   0  0  0  0  0  0  0  0  0  0  0  0
    7.1759    1.2668   -0.1560 H   0  0  0  0  0  0  0  0  0  0  0  0
    5.0312    1.0211    1.7594 H   0  0  0  0  0  0  0  0  0  0  0  0
   -2.0138    1.9438    2.3228 H   0  0  0  0  0  0  0  0  0  0  0  0
   -3.0183    1.4785   -1.0635 H   0  0  0  0  0  0  0  0  0  0  0  0
   -3.4738    2.0511    0.5685 H   0  0  0  0  0  0  0  0  0  0  0  0
   -5.0078   -2.0166    1.1681 H   0  0  0  0  0  0  0  0  0  0  0  0
   -5.4622   -2.2140   -0.5263 H   0  0  0  0  0  0  0  0  0  0  0  0
   -7.4630   -2.2526    1.0091 H   0  0  0  0  0  0  0  0  0  0  0  0
   -7.0254   -0.6558    1.6009 H   0  0  0  0  0  0  0  0  0  0  0  0
   -8.3881   -1.4092   -0.9314 H   0  0  0  0  0  0  0  0  0  0  0  0
   -8.5104    0.0509    0.0325 H   0  0  0  0  0  0  0  0  0  0  0  0
   -7.4981    0.8399   -1.9432 H   0  0  0  0  0  0  0  0  0  0  0  0
   -6.5890   -0.6452   -2.1886 H   0  0  0  0  0  0  0  0  0  0  0  0
   -5.0656    1.1624   -1.5520 H   0  0  0  0  0  0  0  0  0  0  0  0
   -5.9727    1.4762   -0.0670 H   0  0  0  0  0  0  0  0  0  0  0  0
    2.8792   -0.7486   -2.1965 H   0  0  0  0  0  0  0  0  0  0  0  0
    1.1845   -0.4177   -2.4563 H   0  0  0  0  0  0  0  0  0  0  0  0
    2.3788    0.8457   -2.8108 H   0  0  0  0  0  0  0  0  0  0  0  0
  1  2  1  0
  2  3  1  0
  3  4  1  0
  4  5  1  0
  5  6  1  0
  6  7  2  0
  6  8  1  0
  8  9  1  0
  9 10  1  0
 10 11  1  0
 11 12  2  0
 12 13  1  0
 13 14  1  0
 14 15  1  0
 15 16  2  0
 15 17  1  0
 17 18  1  0
 18 19  1  0
 19 20  1  0
 20 21  1  0
 21 22  1  0
 13 23  1  0
 23 24  2  0
 23 25  1  0
 25 26  1  0
 26 27  1  0
 26  8  2  0
 25 10  2  0
 22 17  1  0
  1 28  1  0
  1 29  1  0
  1 30  1  0
  3 31  1  0
  3 32  1  0
  4 33  1  0
  4 34  1  0
  5 35  1  0
 12 36  1  0
 14 37  1  0
 14 38  1  0
 18 39  1  0
 18 40  1  0
 19 41  1  0
 19 42  1  0
 20 43  1  0
 20 44  1  0
 21 45  1  0
 21 46  1  0
 22 47  1  0
 22 48  1  0
 27 49  1  0
 27 50  1  0
 27 51  1  0
M  END
$$$$
