
     RDKit          3D

 57 60  0  0  0  0  0  0  0  0999 V2000
   -6.1450    1.9390   -2.4461 C   0  0  0  0  0  0  0  0  0  0  0  0
   -4.7420    1.4302   -2.2956 C   0  0  0  0  0  0  0  0  0  0  0  0
   -4.4716    0.0631   -2.4355 C   0  0  0  0  0  0  0  0  0  0  0  0
   -3.1736   -0.4262   -2.2642 C   0  0  0  0  0  0  0  0  0  0  0  0
   -2.1325    0.4511   -1.9454 C   0  0  0  0  0  0  0  0  0  0  0  0
   -0.8077   -0.0406   -1.7604 N   0  0  0  0  0  0  0  0  0  0  0  0
    0.3437    0.5056   -2.3244 C   0  0  0  0  0  0  0  0  0  0  0  0
    0.3555    1.6129   -3.3224 C   0  0  0  0  0  0  0  0  0  0  0  0
    1.4253   -0.2244   -1.8756 C   0  0  0  0  0  0  0  0  0  0  0  0
    0.9487   -1.2115   -0.9787 C   0  0  0  0  0  0  0  0  0  0  0  0
    1.7619   -2.1151   -0.1911 C   0  0  0  0  0  0  0  0  0  0  0  0
    2.2848   -2.9730   -0.9556 O   0  0  0  0  0  1  0  0  0  0  0  0
    1.9003   -1.9480    1.1569 C   0  0  0  0  0  0  0  0  0  0  0  0
    1.3094   -0.7229    1.8680 C   0  0  0  0  0  0  0  0  0  0  0  0
    0.3766   -0.9200    3.2604 S   0  0  0  0  0  0  0  0  0  0  0  0
    1.7541    0.4758    1.3111 N   0  0  0  0  0  0  0  0  0  0  0  0
    1.3475    1.8231    1.4621 C   0  0  0  0  0  0  0  0  0  0  0  0
    0.2636    2.2717    2.2199 C   0  0  0  0  0  0  0  0  0  0  0  0
   -0.0559    3.6355    2.2773 C   0  0  0  0  0  0  0  0  0  0  0  0
    0.7055    4.5580    1.5716 C   0  0  0  0  0  0  0  0  0  0  0  0
    0.3851    5.8571    1.6460 F   0  0  0  0  0  0  0  0  0  0  0  0
    1.7749    4.1302    0.7958 C   0  0  0  0  0  0  0  0  0  0  0  0
    2.7196    5.2585   -0.0985 Cl  0  0  0  0  0  0  0  0  0  0  0  0
    2.0893    2.7696    0.7346 C   0  0  0  0  0  0  0  0  0  0  0  0
    2.6893   -2.9879    1.9623 N   0  0  0  0  0  4  0  0  0  0  0  0
    2.6217   -4.3050    1.6494 C   0  0  0  0  0  0  0  0  0  0  0  0
    3.3109   -5.2558    2.3965 C   0  0  0  0  0  0  0  0  0  0  0  0
    4.0793   -4.8513    3.4781 C   0  0  0  0  0  0  0  0  0  0  0  0
    4.1481   -3.5010    3.7861 C   0  0  0  0  0  0  0  0  0  0  0  0
    3.4435   -2.5852    3.0107 C   0  0  0  0  0  0  0  0  0  0  0  0
   -0.4380   -1.1239   -0.9569 C   0  0  0  0  0  0  0  0  0  0  0  0
   -1.4134   -1.9587   -0.1929 C   0  0  0  0  0  0  0  0  0  0  0  0
   -2.3957    1.8180   -1.7991 C   0  0  0  0  0  0  0  0  0  0  0  0
   -3.6968    2.3013   -1.9661 C   0  0  0  0  0  0  0  0  0  0  0  0
   -6.6522    1.4316   -3.2734 H   0  0  0  0  0  0  0  0  0  0  0  0
   -6.1560    3.0112   -2.6671 H   0  0  0  0  0  0  0  0  0  0  0  0
   -6.7071    1.7660   -1.5231 H   0  0  0  0  0  0  0  0  0  0  0  0
   -5.2695   -0.6318   -2.6884 H   0  0  0  0  0  0  0  0  0  0  0  0
   -2.9880   -1.4847   -2.4266 H   0  0  0  0  0  0  0  0  0  0  0  0
    0.3093    2.5856   -2.8223 H   0  0  0  0  0  0  0  0  0  0  0  0
   -0.4739    1.5310   -4.0313 H   0  0  0  0  0  0  0  0  0  0  0  0
    1.2824    1.5892   -3.9070 H   0  0  0  0  0  0  0  0  0  0  0  0
    2.4582   -0.0706   -2.1623 H   0  0  0  0  0  0  0  0  0  0  0  0
    2.3972    0.3487    0.5292 H   0  0  0  0  0  0  0  0  0  0  0  0
   -0.3915    1.5980    2.7579 H   0  0  0  0  0  0  0  0  0  0  0  0
   -0.9016    3.9762    2.8669 H   0  0  0  0  0  0  0  0  0  0  0  0
    2.9247    2.4572    0.1116 H   0  0  0  0  0  0  0  0  0  0  0  0
    1.9840   -4.6041    0.8219 H   0  0  0  0  0  0  0  0  0  0  0  0
    3.2348   -6.3066    2.1300 H   0  0  0  0  0  0  0  0  0  0  0  0
    4.6221   -5.5842    4.0712 H   0  0  0  0  0  0  0  0  0  0  0  0
    4.7529   -3.1570    4.6214 H   0  0  0  0  0  0  0  0  0  0  0  0
    3.5053   -1.5207    3.2101 H   0  0  0  0  0  0  0  0  0  0  0  0
   -0.9197   -2.5565    0.5787 H   0  0  0  0  0  0  0  0  0  0  0  0
   -2.1607   -1.3391    0.3130 H   0  0  0  0  0  0  0  0  0  0  0  0
   -1.9177   -2.6670   -0.8567 H   0  0  0  0  0  0  0  0  0  0  0  0
   -1.6118    2.5134   -1.5120 H   0  0  0  0  0  0  0  0  0  0  0  0
   -3.8880    3.3641   -1.8308 H   0  0  0  0  0  0  0  0  0  0  0  0
  1  2  1  0
  2  3  2  0
  3  4  1  0
  4  5  2  0
  5  6  1  0
  6  7  1  0
  7  8  1  0
  7  9  2  0
  9 10  1  0
 10 11  1  0
 11 12  1  0
 11 13  2  3
 13 14  1  0
 14 15  2  0
 14 16  1  0
 16 17  1  0
 17 18  2  0
 18 19  1  0
 19 20  2  0
 20 21  1  0
 20 22  1  0
 22 23  1  0
 22 24  2  0
 13 25  1  0
 25 26  2  0
 26 27  1  0
 27 28  2  0
 28 29  1  0
 29 30  2  0
 10 31  2  0
 31 32  1  0
  5 33  1  0
 33 34  2  0
 34  2  1  0
 31  6  1  0
 24 17  1  0
 30 25  1  0
  1 35  1  0
  1 36  1  0
  1 37  1  0
  3 38  1  0
  4 39  1  0
  8 40  1  0
  8 41  1  0
  8 42  1  0
  9 43  1  0
 16 44  1  0
 18 45  1  0
 19 46  1  0
 24 47  1  0
 26 48  1  0
 27 49  1  0
 28 50  1  0
 29 51  1  0
 30 52  1  0
 32 53  1  0
 32 54  1  0
 32 55  1  0
 33 56  1  0
 34 57  1  0
M  CHG  2  12  -1  25   1
M  END
$$$$
