
     RDKit          3D

 45 49  0  0  0  0  0  0  0  0999 V2000
   -1.4980    2.7620    0.3419 O   0  0  0  0  0  0  0  0  0  0  0  0
   -1.3880    1.5400    0.2308 C   0  0  0  0  0  0  0  0  0  0  0  0
   -0.0185    0.9622    0.2068 C   0  0  0  0  0  0  0  0  0  0  0  0
    1.1576    1.6413    0.6117 C   0  0  0  0  0  0  0  0  0  0  0  0
    2.1960    0.7721    0.3885 C   0  0  0  0  0  0  0  0  0  0  0  0
    3.5372    0.8977    0.6023 N   0  0  0  0  0  0  0  0  0  0  0  0
    4.3035   -0.1095    0.2802 C   0  0  0  0  0  0  0  0  0  0  0  0
    5.7483   -0.0113    0.4849 C   0  0  0  0  0  0  0  0  0  0  0  0
    6.7707   -0.8139    0.0031 C   0  0  0  0  0  0  0  0  0  0  0  0
    8.0627   -0.3878    0.4339 C   0  0  0  0  0  0  0  0  0  0  0  0
    7.9959    0.7290    1.2325 C   0  0  0  0  0  0  0  0  0  0  0  0
    6.3897    1.2589    1.4559 S   0  0  0  0  0  0  0  0  0  0  0  0
    3.7612   -1.3873   -0.2989 C   0  0  0  0  0  0  0  0  0  0  0  0
    2.4294   -1.4608   -0.4912 C   0  0  0  0  0  0  0  0  0  0  0  0
    1.7392   -2.6481   -1.0429 C   0  0  0  0  0  0  0  0  0  0  0  0
    0.8264   -3.1715   -0.1866 F   0  0  0  0  0  0  0  0  0  0  0  0
    2.6211   -3.6541   -1.3056 F   0  0  0  0  0  0  0  0  0  0  0  0
    1.1089   -2.3927   -2.2153 F   0  0  0  0  0  0  0  0  0  0  0  0
    1.6275   -0.3790   -0.1532 N   0  0  0  0  0  0  0  0  0  0  0  0
    0.2849   -0.2592   -0.2697 N   0  0  0  0  0  0  0  0  0  0  0  0
   -2.4961    0.6655    0.1416 N   0  0  0  0  0  0  0  0  0  0  0  0
   -2.3857   -0.7235    0.6033 C   0  0  0  0  0  0  0  0  0  0  0  0
   -3.6450   -1.2162    1.2941 C   0  0  0  0  0  0  0  0  0  0  0  0
   -4.8051   -1.1409    0.3254 C   0  0  0  0  0  0  0  0  0  0  0  0
   -4.8958    0.2276   -0.2940 C   0  0  0  0  0  0  0  0  0  0  0  0
   -6.1354    0.6178   -0.8359 C   0  0  0  0  0  0  0  0  0  0  0  0
   -6.2865    1.8578   -1.4455 C   0  0  0  0  0  0  0  0  0  0  0  0
   -5.1962    2.7112   -1.5331 C   0  0  0  0  0  0  0  0  0  0  0  0
   -3.9561    2.3259   -1.0109 C   0  0  0  0  0  0  0  0  0  0  0  0
   -3.7772    1.0872   -0.3738 C   0  0  0  0  0  0  0  0  0  0  0  0
    1.2312    2.6426    1.0130 H   0  0  0  0  0  0  0  0  0  0  0  0
    6.6245   -1.6692   -0.6442 H   0  0  0  0  0  0  0  0  0  0  0  0
    8.9933   -0.8743    0.1671 H   0  0  0  0  0  0  0  0  0  0  0  0
    8.8141    1.2652    1.6938 H   0  0  0  0  0  0  0  0  0  0  0  0
    4.4287   -2.2061   -0.5298 H   0  0  0  0  0  0  0  0  0  0  0  0
   -2.1508   -1.3509   -0.2651 H   0  0  0  0  0  0  0  0  0  0  0  0
   -1.5698   -0.8109    1.3282 H   0  0  0  0  0  0  0  0  0  0  0  0
   -3.5108   -2.2467    1.6409 H   0  0  0  0  0  0  0  0  0  0  0  0
   -3.8497   -0.5973    2.1774 H   0  0  0  0  0  0  0  0  0  0  0  0
   -5.7311   -1.3793    0.8621 H   0  0  0  0  0  0  0  0  0  0  0  0
   -4.6814   -1.8811   -0.4746 H   0  0  0  0  0  0  0  0  0  0  0  0
   -6.9912   -0.0518   -0.7826 H   0  0  0  0  0  0  0  0  0  0  0  0
   -7.2477    2.1537   -1.8564 H   0  0  0  0  0  0  0  0  0  0  0  0
   -5.2982    3.6795   -2.0164 H   0  0  0  0  0  0  0  0  0  0  0  0
   -3.1374    3.0260   -1.1445 H   0  0  0  0  0  0  0  0  0  0  0  0
  1  2  2  0
  2  3  1  0
  3  4  1  0
  4  5  2  0
  5  6  1  0
  6  7  2  0
  7  8  1  0
  8  9  2  0
  9 10  1  0
 10 11  2  0
 11 12  1  0
  7 13  1  0
 13 14  2  0
 14 15  1  0
 15 16  1  0
 15 17  1  0
 15 18  1  0
 14 19  1  0
 19 20  1  0
  2 21  1  0
 21 22  1  0
 22 23  1  0
 23 24  1  0
 24 25  1  0
 25 26  2  0
 26 27  1  0
 27 28  2  0
 28 29  1  0
 29 30  2  0
 20  3  2  0
 30 21  1  0
 19  5  1  0
 30 25  1  0
 12  8  1  0
  4 31  1  0
  9 32  1  0
 10 33  1  0
 11 34  1  0
 13 35  1  0
 22 36  1  0
 22 37  1  0
 23 38  1  0
 23 39  1  0
 24 40  1  0
 24 41  1  0
 26 42  1  0
 27 43  1  0
 28 44  1  0
 29 45  1  0
M  END
$$$$
