
     RDKit          3D

 46 48  0  0  0  0  0  0  0  0999 V2000
   -3.8274   -0.0163   -1.4174 C   0  0  0  0  0  0  0  0  0  0  0  0
   -3.6001    0.3944    0.0155 C   0  0  0  0  0  0  0  0  0  0  0  0
   -4.6151    0.5225    0.8986 C   0  0  0  0  0  0  0  0  0  0  0  0
   -6.0335    0.2956    0.6081 C   0  0  0  0  0  0  0  0  0  0  0  0
   -6.8304    1.3410    0.1298 C   0  0  0  0  0  0  0  0  0  0  0  0
   -8.1807    1.1217   -0.1489 C   0  0  0  0  0  0  0  0  0  0  0  0
   -8.7381   -0.1412    0.0490 C   0  0  0  0  0  0  0  0  0  0  0  0
   -7.9471   -1.1865    0.5251 C   0  0  0  0  0  0  0  0  0  0  0  0
   -6.5967   -0.9696    0.8047 C   0  0  0  0  0  0  0  0  0  0  0  0
   -2.2402    0.6645    0.4985 C   0  0  0  0  0  0  0  0  0  0  0  0
   -1.0409    0.6452   -0.1049 C   0  0  0  0  0  0  0  0  0  0  0  0
   -0.6173    0.2886   -1.7368 S   0  0  0  0  0  0  0  0  0  0  0  0
    1.1057    0.5219   -1.4678 C   0  0  0  0  0  0  0  0  0  0  0  0
    2.2551    0.3620   -2.6625 S   0  0  0  0  0  0  0  0  0  0  0  0
    1.2946    0.8749   -0.1514 N   0  0  0  0  0  0  0  0  0  0  0  0
    2.6740    1.0539    0.4635 N   0  0  0  0  0  0  0  0  0  0  0  0
    3.2526   -0.3733    1.2139 S   0  0  0  0  0  6  0  0  0  0  0  0
    3.3627   -0.0775    2.6252 O   0  0  0  0  0  0  0  0  0  0  0  0
    2.4719   -1.4911    0.7259 O   0  0  0  0  0  0  0  0  0  0  0  0
    4.8902   -0.4804    0.5454 C   0  0  0  0  0  0  0  0  0  0  0  0
    5.1449   -1.3180   -0.5422 C   0  0  0  0  0  0  0  0  0  0  0  0
    6.4422   -1.4120   -1.0488 C   0  0  0  0  0  0  0  0  0  0  0  0
    7.4863   -0.6763   -0.4721 C   0  0  0  0  0  0  0  0  0  0  0  0
    8.8857   -0.8077   -0.9986 C   0  0  0  0  0  0  0  0  0  0  0  0
    7.2222    0.1347    0.6400 C   0  0  0  0  0  0  0  0  0  0  0  0
    5.9268    0.2353    1.1506 C   0  0  0  0  0  0  0  0  0  0  0  0
    0.1904    0.9760    0.6737 C   0  0  0  0  0  0  0  0  0  0  0  0
    0.2155    1.3151    1.8493 O   0  0  0  0  0  0  0  0  0  0  0  0
   -3.2930   -0.9448   -1.6426 H   0  0  0  0  0  0  0  0  0  0  0  0
   -3.5030    0.7741   -2.1018 H   0  0  0  0  0  0  0  0  0  0  0  0
   -4.8784   -0.2090   -1.6523 H   0  0  0  0  0  0  0  0  0  0  0  0
   -4.4350    0.8151    1.9318 H   0  0  0  0  0  0  0  0  0  0  0  0
   -6.4046    2.3288   -0.0294 H   0  0  0  0  0  0  0  0  0  0  0  0
   -8.7973    1.9360   -0.5204 H   0  0  0  0  0  0  0  0  0  0  0  0
   -9.7895   -0.3112   -0.1682 H   0  0  0  0  0  0  0  0  0  0  0  0
   -8.3815   -2.1709    0.6784 H   0  0  0  0  0  0  0  0  0  0  0  0
   -5.9877   -1.7914    1.1732 H   0  0  0  0  0  0  0  0  0  0  0  0
   -2.2175    0.9301    1.5605 H   0  0  0  0  0  0  0  0  0  0  0  0
    2.6514    1.7736    1.1976 H   0  0  0  0  0  0  0  0  0  0  0  0
    4.3479   -1.8986   -1.0013 H   0  0  0  0  0  0  0  0  0  0  0  0
    6.6346   -2.0654   -1.8977 H   0  0  0  0  0  0  0  0  0  0  0  0
    9.4042   -1.6219   -0.4833 H   0  0  0  0  0  0  0  0  0  0  0  0
    9.4472    0.1206   -0.8500 H   0  0  0  0  0  0  0  0  0  0  0  0
    8.8807   -1.0151   -2.0738 H   0  0  0  0  0  0  0  0  0  0  0  0
    8.0277    0.6897    1.1168 H   0  0  0  0  0  0  0  0  0  0  0  0
    5.7403    0.8631    2.0188 H   0  0  0  0  0  0  0  0  0  0  0  0
  1  2  1  0
  2  3  2  3
  3  4  1  0
  4  5  2  0
  5  6  1  0
  6  7  2  0
  7  8  1  0
  8  9  2  0
  2 10  1  0
 10 11  2  3
 11 12  1  0
 12 13  1  0
 13 14  2  0
 13 15  1  0
 15 16  1  0
 16 17  1  0
 17 18  2  0
 17 19  2  0
 17 20  1  0
 20 21  2  0
 21 22  1  0
 22 23  2  0
 23 24  1  0
 23 25  1  0
 25 26  2  0
 15 27  1  0
 27 28  2  0
  9  4  1  0
 27 11  1  0
 26 20  1  0
  1 29  1  0
  1 30  1  0
  1 31  1  0
  3 32  1  0
  5 33  1  0
  6 34  1  0
  7 35  1  0
  8 36  1  0
  9 37  1  0
 10 38  1  0
 16 39  1  0
 21 40  1  0
 22 41  1  0
 24 42  1  0
 24 43  1  0
 24 44  1  0
 25 45  1  0
 26 46  1  0
M  END
$$$$
