
     RDKit          3D

 43 45  0  0  0  0  0  0  0  0999 V2000
    2.5957    1.7745    1.5874 O   0  0  0  0  0  0  0  0  0  0  0  0
    2.6552    1.0514    0.5897 C   0  0  0  0  0  0  0  0  0  0  0  0
    4.0092    0.5244    0.0589 C   0  0  0  0  0  0  0  0  0  0  0  0
    4.3594    1.1696   -1.2808 C   0  0  0  0  0  0  0  0  0  0  0  0
    5.8333    1.4683   -1.1569 C   0  0  0  0  0  0  0  0  0  0  0  0
    5.9695    1.7488    0.3183 C   0  0  0  0  0  0  0  0  0  0  0  0
    5.0991    0.8104    0.9541 O   0  0  0  0  0  0  0  0  0  0  0  0
    1.5024    0.7133   -0.1241 N   0  0  0  0  0  0  0  0  0  0  0  0
    1.3756   -0.5098   -0.9338 C   0  0  0  0  0  0  0  0  0  0  0  0
    0.7158   -1.6206   -0.0923 C   0  0  0  0  0  0  0  0  0  0  0  0
   -0.5830   -1.1641    0.4574 N   0  0  0  0  0  0  0  0  0  0  0  0
   -1.8220   -1.5079   -0.1321 C   0  0  0  0  0  0  0  0  0  0  0  0
   -1.9625   -2.3019   -1.6063 S   0  0  0  0  0  0  0  0  0  0  0  0
   -2.8842   -1.1802    0.7014 N   0  0  0  0  0  0  0  0  0  0  0  0
   -4.2609   -1.0170    0.4385 C   0  0  0  0  0  0  0  0  0  0  0  0
   -4.7812   -0.6720   -0.8124 C   0  0  0  0  0  0  0  0  0  0  0  0
   -6.1579   -0.4926   -0.9825 C   0  0  0  0  0  0  0  0  0  0  0  0
   -7.0107   -0.6410    0.1027 C   0  0  0  0  0  0  0  0  0  0  0  0
   -8.3280   -0.4652   -0.0612 F   0  0  0  0  0  0  0  0  0  0  0  0
   -6.5123   -0.9558    1.3591 C   0  0  0  0  0  0  0  0  0  0  0  0
   -5.1370   -1.1345    1.5282 C   0  0  0  0  0  0  0  0  0  0  0  0
   -0.4445    0.0788    1.2600 C   0  0  0  0  0  0  0  0  0  0  0  0
    0.2156    1.1827    0.4098 C   0  0  0  0  0  0  0  0  0  0  0  0
    3.9692   -0.5664   -0.0095 H   0  0  0  0  0  0  0  0  0  0  0  0
    3.8000    2.1010   -1.4320 H   0  0  0  0  0  0  0  0  0  0  0  0
    4.1377    0.5177   -2.1311 H   0  0  0  0  0  0  0  0  0  0  0  0
    6.4110    0.5756   -1.4238 H   0  0  0  0  0  0  0  0  0  0  0  0
    6.1662    2.2977   -1.7859 H   0  0  0  0  0  0  0  0  0  0  0  0
    6.9912    1.6132    0.6829 H   0  0  0  0  0  0  0  0  0  0  0  0
    5.6334    2.7605    0.5707 H   0  0  0  0  0  0  0  0  0  0  0  0
    2.3398   -0.8518   -1.3102 H   0  0  0  0  0  0  0  0  0  0  0  0
    0.7517   -0.2597   -1.7995 H   0  0  0  0  0  0  0  0  0  0  0  0
    0.6112   -2.5393   -0.6740 H   0  0  0  0  0  0  0  0  0  0  0  0
    1.3521   -1.8601    0.7689 H   0  0  0  0  0  0  0  0  0  0  0  0
   -2.6437   -1.2792    1.6802 H   0  0  0  0  0  0  0  0  0  0  0  0
   -4.1390   -0.5027   -1.6700 H   0  0  0  0  0  0  0  0  0  0  0  0
   -6.5639   -0.2290   -1.9540 H   0  0  0  0  0  0  0  0  0  0  0  0
   -7.1938   -1.0594    2.1972 H   0  0  0  0  0  0  0  0  0  0  0  0
   -4.7638   -1.3818    2.5188 H   0  0  0  0  0  0  0  0  0  0  0  0
    0.1797   -0.1652    2.1274 H   0  0  0  0  0  0  0  0  0  0  0  0
   -1.4067    0.4442    1.6260 H   0  0  0  0  0  0  0  0  0  0  0  0
   -0.4207    1.4307   -0.4482 H   0  0  0  0  0  0  0  0  0  0  0  0
    0.3419    2.0941    1.0025 H   0  0  0  0  0  0  0  0  0  0  0  0
  1  2  2  0
  2  3  1  0
  3  4  1  0
  4  5  1  0
  5  6  1  0
  6  7  1  0
  2  8  1  0
  8  9  1  0
  9 10  1  0
 10 11  1  0
 11 12  1  0
 12 13  2  0
 12 14  1  0
 14 15  1  0
 15 16  2  0
 16 17  1  0
 17 18  2  0
 18 19  1  0
 18 20  1  0
 20 21  2  0
 11 22  1  0
 22 23  1  0
  7  3  1  0
 23  8  1  0
 21 15  1  0
  3 24  1  0
  4 25  1  0
  4 26  1  0
  5 27  1  0
  5 28  1  0
  6 29  1  0
  6 30  1  0
  9 31  1  0
  9 32  1  0
 10 33  1  0
 10 34  1  0
 14 35  1  0
 16 36  1  0
 17 37  1  0
 20 38  1  0
 21 39  1  0
 22 40  1  0
 22 41  1  0
 23 42  1  0
 23 43  1  0
M  END
$$$$
