
     RDKit          3D

 53 56  0  0  0  0  0  0  0  0999 V2000
   -1.1553   -1.7560    1.4314 C   0  0  0  0  0  0  0  0  0  0  0  0
   -0.4054   -1.5747    0.1161 C   0  0  0  0  0  0  0  0  0  0  0  0
    0.0509   -0.1782   -0.0479 N   0  0  0  0  0  0  0  0  0  0  0  0
    1.2355    0.3044    0.5191 C   0  0  0  0  0  0  0  0  0  0  0  0
    1.5512    1.4996    0.4614 O   0  0  0  0  0  0  0  0  0  0  0  0
    2.1739   -0.6707    1.2165 C   0  0  0  0  0  0  0  0  0  0  0  0
    3.3777   -1.3024    0.0091 S   0  0  0  0  0  0  0  0  0  0  0  0
    4.2709   -2.3897    1.0154 C   0  0  0  0  0  0  0  0  0  0  0  0
    3.9833   -2.7044    2.2591 N   0  0  0  0  0  0  0  0  0  0  0  0
    4.9328   -3.6001    2.6983 N   0  0  0  0  0  0  0  0  0  0  0  0
    5.7758   -3.8095    1.7093 C   0  0  0  0  0  0  0  0  0  0  0  0
    6.9352   -4.6240    1.5898 C   0  0  0  0  0  0  0  0  0  0  0  0
    7.6167   -4.6445    0.4273 C   0  0  0  0  0  0  0  0  0  0  0  0
    7.1951   -3.8492   -0.7166 C   0  0  0  0  0  0  0  0  0  0  0  0
    6.1002   -3.0768   -0.6069 C   0  0  0  0  0  0  0  0  0  0  0  0
    5.3980   -3.0593    0.6005 N   0  0  0  0  0  0  0  0  0  0  0  0
   -0.7410    0.6517   -0.8727 C   0  0  0  0  0  0  0  0  0  0  0  0
   -1.2809    1.8459   -0.4995 C   0  0  0  0  0  0  0  0  0  0  0  0
   -1.0530    2.3706    0.7761 N   0  0  0  0  0  0  0  0  0  0  0  0
   -2.1032    2.5469   -1.3911 N   0  0  0  0  0  0  0  0  0  0  0  0
   -2.8719    3.7210   -0.9596 C   0  0  0  0  0  0  0  0  0  0  0  0
   -4.2433    3.3598   -0.4239 C   0  0  0  0  0  0  0  0  0  0  0  0
   -4.4174    2.9934    0.9182 C   0  0  0  0  0  0  0  0  0  0  0  0
   -5.6810    2.6515    1.4042 C   0  0  0  0  0  0  0  0  0  0  0  0
   -6.7843    2.6678    0.5537 C   0  0  0  0  0  0  0  0  0  0  0  0
   -6.6249    3.0227   -0.7839 C   0  0  0  0  0  0  0  0  0  0  0  0
   -5.3621    3.3649   -1.2707 C   0  0  0  0  0  0  0  0  0  0  0  0
   -2.3487    2.1189   -2.6882 C   0  0  0  0  0  0  0  0  0  0  0  0
   -3.0318    2.7272   -3.5115 O   0  0  0  0  0  0  0  0  0  0  0  0
   -1.7796    0.9420   -3.0534 N   0  0  0  0  0  0  0  0  0  0  0  0
   -0.9753    0.1772   -2.2761 C   0  0  0  0  0  0  0  0  0  0  0  0
   -0.4456   -0.8345   -2.7329 O   0  0  0  0  0  0  0  0  0  0  0  0
   -1.4645   -2.7989    1.5502 H   0  0  0  0  0  0  0  0  0  0  0  0
   -2.0537   -1.1298    1.4530 H   0  0  0  0  0  0  0  0  0  0  0  0
   -0.5429   -1.4801    2.2944 H   0  0  0  0  0  0  0  0  0  0  0  0
   -1.0852   -1.8665   -0.6898 H   0  0  0  0  0  0  0  0  0  0  0  0
    0.4479   -2.2560    0.0657 H   0  0  0  0  0  0  0  0  0  0  0  0
    1.6364   -1.4833    1.7054 H   0  0  0  0  0  0  0  0  0  0  0  0
    2.7012   -0.1204    2.0043 H   0  0  0  0  0  0  0  0  0  0  0  0
    7.2472   -5.2150    2.4436 H   0  0  0  0  0  0  0  0  0  0  0  0
    8.5049   -5.2601    0.3168 H   0  0  0  0  0  0  0  0  0  0  0  0
    7.7751   -3.8967   -1.6325 H   0  0  0  0  0  0  0  0  0  0  0  0
    5.7327   -2.4605   -1.4179 H   0  0  0  0  0  0  0  0  0  0  0  0
   -0.2133    1.9537    1.1805 H   0  0  0  0  0  0  0  0  0  0  0  0
   -0.8568    3.3656    0.7157 H   0  0  0  0  0  0  0  0  0  0  0  0
   -2.9921    4.4066   -1.8091 H   0  0  0  0  0  0  0  0  0  0  0  0
   -2.3230    4.3119   -0.2191 H   0  0  0  0  0  0  0  0  0  0  0  0
   -3.5666    2.9661    1.5953 H   0  0  0  0  0  0  0  0  0  0  0  0
   -5.8019    2.3689    2.4466 H   0  0  0  0  0  0  0  0  0  0  0  0
   -7.7672    2.4002    0.9318 H   0  0  0  0  0  0  0  0  0  0  0  0
   -7.4827    3.0308   -1.4512 H   0  0  0  0  0  0  0  0  0  0  0  0
   -5.2544    3.6325   -2.3206 H   0  0  0  0  0  0  0  0  0  0  0  0
   -1.9336    0.6395   -4.0020 H   0  0  0  0  0  0  0  0  0  0  0  0
  1  2  1  0
  2  3  1  0
  3  4  1  0
  4  5  2  0
  4  6  1  0
  6  7  1  0
  7  8  1  0
  8  9  2  0
  9 10  1  0
 10 11  2  0
 11 12  1  0
 12 13  2  0
 13 14  1  0
 14 15  2  0
 15 16  1  0
  3 17  1  0
 17 18  2  0
 18 19  1  0
 18 20  1  0
 20 21  1  0
 21 22  1  0
 22 23  2  0
 23 24  1  0
 24 25  2  0
 25 26  1  0
 26 27  2  0
 20 28  1  0
 28 29  2  0
 28 30  1  0
 30 31  1  0
 31 32  2  0
 16  8  1  0
 31 17  1  0
 16 11  1  0
 27 22  1  0
  1 33  1  0
  1 34  1  0
  1 35  1  0
  2 36  1  0
  2 37  1  0
  6 38  1  0
  6 39  1  0
 12 40  1  0
 13 41  1  0
 14 42  1  0
 15 43  1  0
 19 44  1  0
 19 45  1  0
 21 46  1  0
 21 47  1  0
 23 48  1  0
 24 49  1  0
 25 50  1  0
 26 51  1  0
 27 52  1  0
 30 53  1  0
M  END
$$$$
