
     RDKit          3D

 45 48  0  0  0  0  0  0  0  0999 V2000
   -4.9621   -2.6466    1.2104 C   0  0  0  0  0  0  0  0  0  0  0  0
   -4.4671   -1.3364    1.7907 C   0  0  0  0  0  0  0  0  0  0  0  0
   -3.1732   -1.0650    1.2384 O   0  0  0  0  0  0  0  0  0  0  0  0
   -2.6032    0.0817    1.6954 C   0  0  0  0  0  0  0  0  0  0  0  0
   -3.0914    0.8506    2.5085 O   0  0  0  0  0  0  0  0  0  0  0  0
   -1.3019    0.2936    1.0265 C   0  0  0  0  0  0  0  0  0  0  0  0
   -1.1430    1.6323    0.4113 C   0  0  0  0  0  0  0  0  0  0  0  0
   -0.1997    2.3823    0.6179 O   0  0  0  0  0  0  0  0  0  0  0  0
   -2.2331    1.9066   -0.3538 O   0  0  0  0  0  0  0  0  0  0  0  0
   -2.2897    3.2314   -0.9013 C   0  0  0  0  0  0  0  0  0  0  0  0
   -1.5359    3.3020   -2.2157 C   0  0  0  0  0  0  0  0  0  0  0  0
   -0.2774   -0.5928    1.1492 C   0  0  0  0  0  0  0  0  0  0  0  0
   -0.3366   -1.6734    2.2034 C   0  0  0  0  0  0  0  0  0  0  0  0
    0.7705   -2.3021    2.6763 C   0  0  0  0  0  0  0  0  0  0  0  0
    0.6608   -3.5793    4.0350 Br  0  0  0  0  0  0  0  0  0  0  0  0
    2.0545   -2.0038    2.1101 C   0  0  0  0  0  0  0  0  0  0  0  0
    3.2838   -2.4622    2.3731 N   0  0  0  0  0  0  0  0  0  0  0  0
    4.1036   -1.9002    1.3823 O   0  0  0  0  0  0  0  0  0  0  0  0
    3.3439   -1.1400    0.5351 C   0  0  0  0  0  0  0  0  0  0  0  0
    3.7165   -0.4739   -0.6390 C   0  0  0  0  0  0  0  0  0  0  0  0
    5.0542   -0.4752   -1.0758 C   0  0  0  0  0  0  0  0  0  0  0  0
    5.3848    0.1746   -2.2599 C   0  0  0  0  0  0  0  0  0  0  0  0
    4.3937    0.8176   -2.9985 C   0  0  0  0  0  0  0  0  0  0  0  0
    3.0604    0.8098   -2.5644 C   0  0  0  0  0  0  0  0  0  0  0  0
    2.6720    0.1557   -1.3726 C   0  0  0  0  0  0  0  0  0  0  0  0
    1.3306    0.0933   -0.8731 C   0  0  0  0  0  0  0  0  0  0  0  0
    0.2740    0.4899   -1.6583 O   0  0  0  0  0  0  0  0  0  0  0  0
    1.0131   -0.4524    0.3847 C   0  0  0  0  0  0  0  0  0  0  0  0
    2.0603   -1.1314    1.0098 C   0  0  0  0  0  0  0  0  0  0  0  0
   -5.0198   -2.5873    0.1185 H   0  0  0  0  0  0  0  0  0  0  0  0
   -4.2685   -3.4598    1.4489 H   0  0  0  0  0  0  0  0  0  0  0  0
   -5.9510   -2.8987    1.6034 H   0  0  0  0  0  0  0  0  0  0  0  0
   -4.3946   -1.4188    2.8810 H   0  0  0  0  0  0  0  0  0  0  0  0
   -5.1580   -0.5282    1.5258 H   0  0  0  0  0  0  0  0  0  0  0  0
   -3.3472    3.4571   -1.0740 H   0  0  0  0  0  0  0  0  0  0  0  0
   -1.9170    3.9731   -0.1852 H   0  0  0  0  0  0  0  0  0  0  0  0
   -1.8880    2.5282   -2.9055 H   0  0  0  0  0  0  0  0  0  0  0  0
   -1.6672    4.2813   -2.6846 H   0  0  0  0  0  0  0  0  0  0  0  0
   -0.4654    3.1344   -2.0637 H   0  0  0  0  0  0  0  0  0  0  0  0
   -1.2937   -1.9107    2.6583 H   0  0  0  0  0  0  0  0  0  0  0  0
    5.8302   -0.9746   -0.5001 H   0  0  0  0  0  0  0  0  0  0  0  0
    6.4158    0.1865   -2.6047 H   0  0  0  0  0  0  0  0  0  0  0  0
    4.6591    1.3383   -3.9162 H   0  0  0  0  0  0  0  0  0  0  0  0
    2.3392    1.3586   -3.1645 H   0  0  0  0  0  0  0  0  0  0  0  0
    0.5635    0.5339   -2.5832 H   0  0  0  0  0  0  0  0  0  0  0  0
  1  2  1  0
  2  3  1  0
  3  4  1  0
  4  5  2  0
  4  6  1  0
  6  7  1  0
  7  8  2  0
  7  9  1  0
  9 10  1  0
 10 11  1  0
  6 12  2  3
 12 13  1  0
 13 14  2  0
 14 15  1  0
 14 16  1  0
 16 17  2  0
 17 18  1  0
 18 19  1  0
 19 20  1  0
 20 21  2  0
 21 22  1  0
 22 23  2  0
 23 24  1  0
 24 25  2  0
 25 26  1  0
 26 27  1  0
 26 28  2  0
 28 29  1  0
 28 12  1  0
 29 16  1  0
 29 19  2  0
 25 20  1  0
  1 30  1  0
  1 31  1  0
  1 32  1  0
  2 33  1  0
  2 34  1  0
 10 35  1  0
 10 36  1  0
 11 37  1  0
 11 38  1  0
 11 39  1  0
 13 40  1  0
 21 41  1  0
 22 42  1  0
 23 43  1  0
 24 44  1  0
 27 45  1  0
M  END
$$$$
