
     RDKit          3D

 40 42  0  0  0  0  0  0  0  0999 V2000
    2.4345    3.5336    2.0397 C   0  0  0  0  0  0  0  0  0  0  0  0
    2.3594    2.3421    2.9793 C   0  0  0  0  0  0  0  0  0  0  0  0
    0.6371    1.8126    3.2670 S   0  0  0  0  0  0  0  0  0  0  0  0
    0.2592    0.9609    1.7405 C   0  0  0  0  0  0  0  0  0  0  0  0
   -1.0550    0.6373    1.4793 C   0  0  0  0  0  0  0  0  0  0  0  0
   -1.3264   -0.0338    0.3042 C   0  0  0  0  0  0  0  0  0  0  0  0
   -2.6281   -0.3772   -0.0428 N   0  0  0  0  0  0  0  0  0  0  0  0
   -2.8225   -0.9556   -1.3832 C   0  0  0  0  0  0  0  0  0  0  0  0
   -4.3225   -1.1841   -1.6258 C   0  0  0  0  0  0  0  0  0  0  0  0
   -4.9349   -2.0829   -0.6871 O   0  0  0  0  0  0  0  0  0  0  0  0
   -4.2189   -2.1868    0.5507 C   0  0  0  0  0  0  0  0  0  0  0  0
   -3.5528   -0.8723    0.9935 C   0  0  0  0  0  0  0  0  0  0  0  0
   -0.3331   -0.3245   -0.5524 N   0  0  0  0  0  0  0  0  0  0  0  0
    0.9249    0.0190   -0.2200 C   0  0  0  0  0  0  0  0  0  0  0  0
    2.0054   -0.3208   -1.1702 C   0  0  0  0  0  0  0  0  0  0  0  0
    3.3505    0.0076   -0.9044 C   0  0  0  0  0  0  0  0  0  0  0  0
    4.3755   -0.3125   -1.8029 C   0  0  0  0  0  0  0  0  0  0  0  0
    4.0729   -0.9703   -2.9902 C   0  0  0  0  0  0  0  0  0  0  0  0
    5.3293   -1.3649   -4.0962 Cl  0  0  0  0  0  0  0  0  0  0  0  0
    2.7570   -1.3099   -3.2855 C   0  0  0  0  0  0  0  0  0  0  0  0
    1.7364   -0.9872   -2.3831 C   0  0  0  0  0  0  0  0  0  0  0  0
    1.2644    0.6497    0.9129 N   0  0  0  0  0  0  0  0  0  0  0  0
    3.4766    3.8511    1.9275 H   0  0  0  0  0  0  0  0  0  0  0  0
    2.0549    3.2971    1.0410 H   0  0  0  0  0  0  0  0  0  0  0  0
    1.8706    4.3872    2.4311 H   0  0  0  0  0  0  0  0  0  0  0  0
    2.7723    2.6329    3.9511 H   0  0  0  0  0  0  0  0  0  0  0  0
    2.9690    1.5095    2.6149 H   0  0  0  0  0  0  0  0  0  0  0  0
   -1.8428    0.9254    2.1621 H   0  0  0  0  0  0  0  0  0  0  0  0
   -2.4408   -0.2751   -2.1536 H   0  0  0  0  0  0  0  0  0  0  0  0
   -2.2909   -1.9125   -1.4615 H   0  0  0  0  0  0  0  0  0  0  0  0
   -4.4855   -1.5945   -2.6274 H   0  0  0  0  0  0  0  0  0  0  0  0
   -4.8649   -0.2332   -1.5685 H   0  0  0  0  0  0  0  0  0  0  0  0
   -4.9295   -2.5212    1.3133 H   0  0  0  0  0  0  0  0  0  0  0  0
   -3.4674   -2.9775    0.4390 H   0  0  0  0  0  0  0  0  0  0  0  0
   -3.0527   -1.0525    1.9517 H   0  0  0  0  0  0  0  0  0  0  0  0
   -4.3224   -0.1075    1.1489 H   0  0  0  0  0  0  0  0  0  0  0  0
    3.6127    0.5226    0.0189 H   0  0  0  0  0  0  0  0  0  0  0  0
    5.4016   -0.0445   -1.5660 H   0  0  0  0  0  0  0  0  0  0  0  0
    2.5136   -1.8240   -4.2114 H   0  0  0  0  0  0  0  0  0  0  0  0
    0.7133   -1.2632   -2.6360 H   0  0  0  0  0  0  0  0  0  0  0  0
  1  2  1  0
  2  3  1  0
  3  4  1  0
  4  5  2  0
  5  6  1  0
  6  7  1  0
  7  8  1  0
  8  9  1  0
  9 10  1  0
 10 11  1  0
 11 12  1  0
  6 13  2  0
 13 14  1  0
 14 15  1  0
 15 16  2  0
 16 17  1  0
 17 18  2  0
 18 19  1  0
 18 20  1  0
 20 21  2  0
 14 22  2  0
 22  4  1  0
 12  7  1  0
 21 15  1  0
  1 23  1  0
  1 24  1  0
  1 25  1  0
  2 26  1  0
  2 27  1  0
  5 28  1  0
  8 29  1  0
  8 30  1  0
  9 31  1  0
  9 32  1  0
 11 33  1  0
 11 34  1  0
 12 35  1  0
 12 36  1  0
 16 37  1  0
 17 38  1  0
 20 39  1  0
 21 40  1  0
M  END
$$$$
