
     RDKit          3D

 42 44  0  0  0  0  0  0  0  0999 V2000
    7.8535   -2.1571   -0.8191 C   0  0  0  0  0  0  0  0  0  0  0  0
    7.2626   -1.1995   -1.6888 O   0  0  0  0  0  0  0  0  0  0  0  0
    5.9900   -0.7957   -1.3950 C   0  0  0  0  0  0  0  0  0  0  0  0
    5.4599    0.1475   -2.2791 C   0  0  0  0  0  0  0  0  0  0  0  0
    4.1681    0.6474   -2.0985 C   0  0  0  0  0  0  0  0  0  0  0  0
    3.3869    0.1956   -1.0308 C   0  0  0  0  0  0  0  0  0  0  0  0
    2.0102    0.7479   -0.8699 C   0  0  0  0  0  0  0  0  0  0  0  0
    1.8191    1.9116   -1.1983 O   0  0  0  0  0  0  0  0  0  0  0  0
    1.0805   -0.1641   -0.3992 N   0  0  0  0  0  0  0  0  0  0  0  0
   -0.2565    0.0860   -0.1097 C   0  0  0  0  0  0  0  0  0  0  0  0
   -0.9014    1.6617   -0.1574 S   0  0  0  0  0  0  0  0  0  0  0  0
   -2.4471    1.1311    0.3083 C   0  0  0  0  0  0  0  0  0  0  0  0
   -2.4930   -0.2357    0.4988 C   0  0  0  0  0  0  0  0  0  0  0  0
   -1.2148   -0.8386    0.2697 C   0  0  0  0  0  0  0  0  0  0  0  0
   -0.9380   -2.2365    0.4140 C   0  0  0  0  0  0  0  0  0  0  0  0
   -0.6827   -3.3629    0.5251 N   0  0  0  0  0  0  0  0  0  0  0  0
   -3.7668   -0.8991    0.9219 C   0  0  0  0  0  0  0  0  0  0  0  0
   -4.9771   -0.0088    0.5937 C   0  0  0  0  0  0  0  0  0  0  0  0
   -4.7693    1.3903    1.0080 N   0  0  0  0  0  0  0  0  0  0  0  0
   -5.7817    2.2047    1.5005 C   0  0  0  0  0  0  0  0  0  0  0  0
   -7.0412    1.5321    1.9826 C   0  0  0  0  0  0  0  0  0  0  0  0
   -5.6734    3.4296    1.5623 O   0  0  0  0  0  0  0  0  0  0  0  0
   -3.5925    2.0855    0.4609 C   0  0  0  0  0  0  0  0  0  0  0  0
    3.9208   -0.7359   -0.1308 C   0  0  0  0  0  0  0  0  0  0  0  0
    5.2176   -1.2325   -0.3173 C   0  0  0  0  0  0  0  0  0  0  0  0
    7.9488   -1.7625    0.1985 H   0  0  0  0  0  0  0  0  0  0  0  0
    7.2908   -3.0964   -0.8258 H   0  0  0  0  0  0  0  0  0  0  0  0
    8.8610   -2.3688   -1.1897 H   0  0  0  0  0  0  0  0  0  0  0  0
    6.0605    0.5008   -3.1144 H   0  0  0  0  0  0  0  0  0  0  0  0
    3.7750    1.3880   -2.7925 H   0  0  0  0  0  0  0  0  0  0  0  0
    1.3791   -1.1296   -0.3304 H   0  0  0  0  0  0  0  0  0  0  0  0
   -3.7244   -1.0713    2.0047 H   0  0  0  0  0  0  0  0  0  0  0  0
   -3.8856   -1.8711    0.4312 H   0  0  0  0  0  0  0  0  0  0  0  0
   -5.8671   -0.4385    1.0588 H   0  0  0  0  0  0  0  0  0  0  0  0
   -5.1584    0.0084   -0.4886 H   0  0  0  0  0  0  0  0  0  0  0  0
   -7.5819    1.0961    1.1386 H   0  0  0  0  0  0  0  0  0  0  0  0
   -7.6885    2.2755    2.4585 H   0  0  0  0  0  0  0  0  0  0  0  0
   -6.8028    0.7683    2.7274 H   0  0  0  0  0  0  0  0  0  0  0  0
   -3.8772    2.4972   -0.5149 H   0  0  0  0  0  0  0  0  0  0  0  0
   -3.3186    2.9149    1.1230 H   0  0  0  0  0  0  0  0  0  0  0  0
    3.3575   -1.0653    0.7382 H   0  0  0  0  0  0  0  0  0  0  0  0
    5.5980   -1.9500    0.4026 H   0  0  0  0  0  0  0  0  0  0  0  0
  1  2  1  0
  2  3  1  0
  3  4  2  0
  4  5  1  0
  5  6  2  0
  6  7  1  0
  7  8  2  0
  7  9  1  0
  9 10  1  0
 10 11  1  0
 11 12  1  0
 12 13  2  0
 13 14  1  0
 14 15  1  0
 15 16  3  0
 13 17  1  0
 17 18  1  0
 18 19  1  0
 19 20  1  0
 20 21  1  0
 20 22  2  0
 19 23  1  0
  6 24  1  0
 24 25  2  0
 25  3  1  0
 14 10  2  0
 23 12  1  0
  1 26  1  0
  1 27  1  0
  1 28  1  0
  4 29  1  0
  5 30  1  0
  9 31  1  0
 17 32  1  0
 17 33  1  0
 18 34  1  0
 18 35  1  0
 21 36  1  0
 21 37  1  0
 21 38  1  0
 23 39  1  0
 23 40  1  0
 24 41  1  0
 25 42  1  0
M  END
$$$$
