
     RDKit          3D

 45 47  0  0  0  0  0  0  0  0999 V2000
    6.8153    0.7915    1.2176 C   0  0  0  0  0  0  0  0  0  0  0  0
    5.3599    0.9500    0.8900 C   0  0  0  0  0  0  0  0  0  0  0  0
    4.8215    0.3589   -0.2587 C   0  0  0  0  0  0  0  0  0  0  0  0
    3.4588    0.4792   -0.5492 C   0  0  0  0  0  0  0  0  0  0  0  0
    2.6166    1.1920    0.3107 C   0  0  0  0  0  0  0  0  0  0  0  0
    1.1563    1.3423    0.0325 C   0  0  0  0  0  0  0  0  0  0  0  0
    0.3421    1.5788    1.0184 N   0  0  0  0  0  0  0  0  0  0  0  0
   -1.0044    1.7011    0.7592 N   0  0  0  0  0  0  0  0  0  0  0  0
   -1.8917    1.6904    1.9219 C   0  0  0  0  0  0  0  0  0  0  0  0
   -2.5114    0.3181    2.1962 C   0  0  0  0  0  0  0  0  0  0  0  0
   -2.6980   -0.0910    3.3424 O   0  0  0  0  0  0  0  0  0  0  0  0
   -2.9697   -0.3647    1.0908 N   0  0  0  0  0  0  0  0  0  0  0  0
   -3.7440   -1.5786    1.2364 C   0  0  0  0  0  0  0  0  0  0  0  0
   -3.7723   -2.3601   -0.0544 C   0  0  0  0  0  0  0  0  0  0  0  0
   -2.7575   -3.2706   -0.3451 C   0  0  0  0  0  0  0  0  0  0  0  0
   -2.7848   -3.9440   -1.5636 C   0  0  0  0  0  0  0  0  0  0  0  0
   -3.8136   -3.6851   -2.4611 C   0  0  0  0  0  0  0  0  0  0  0  0
   -4.7757   -2.7565   -2.1020 C   0  0  0  0  0  0  0  0  0  0  0  0
   -4.7756   -2.0885   -0.9276 N   0  0  0  0  0  0  0  0  0  0  0  0
   -1.5334    1.8863   -0.5099 C   0  0  0  0  0  0  0  0  0  0  0  0
   -2.7424    1.9257   -0.7386 O   0  0  0  0  0  0  0  0  0  0  0  0
   -0.5205    2.0851   -1.6011 C   0  0  0  0  0  0  0  0  0  0  0  0
    0.6602    1.1692   -1.3835 C   0  0  0  0  0  0  0  0  0  0  0  0
    3.1486    1.7620    1.4731 C   0  0  0  0  0  0  0  0  0  0  0  0
    4.5102    1.6390    1.7616 C   0  0  0  0  0  0  0  0  0  0  0  0
    6.9647   -0.0950    1.8414 H   0  0  0  0  0  0  0  0  0  0  0  0
    7.1923    1.6707    1.7512 H   0  0  0  0  0  0  0  0  0  0  0  0
    7.4118    0.6866    0.3050 H   0  0  0  0  0  0  0  0  0  0  0  0
    5.4614   -0.2055   -0.9339 H   0  0  0  0  0  0  0  0  0  0  0  0
    3.0778   -0.0104   -1.4402 H   0  0  0  0  0  0  0  0  0  0  0  0
   -1.3172    1.9984    2.8025 H   0  0  0  0  0  0  0  0  0  0  0  0
   -2.7062    2.4068    1.7690 H   0  0  0  0  0  0  0  0  0  0  0  0
   -3.1693    0.1895    0.2595 H   0  0  0  0  0  0  0  0  0  0  0  0
   -3.3371   -2.1898    2.0502 H   0  0  0  0  0  0  0  0  0  0  0  0
   -4.7623   -1.2905    1.5218 H   0  0  0  0  0  0  0  0  0  0  0  0
   -1.9556   -3.4498    0.3644 H   0  0  0  0  0  0  0  0  0  0  0  0
   -2.0083   -4.6624   -1.8102 H   0  0  0  0  0  0  0  0  0  0  0  0
   -3.8649   -4.1922   -3.4184 H   0  0  0  0  0  0  0  0  0  0  0  0
   -5.5973   -2.5151   -2.7708 H   0  0  0  0  0  0  0  0  0  0  0  0
   -0.2146    3.1375   -1.5902 H   0  0  0  0  0  0  0  0  0  0  0  0
   -0.9871    1.8710   -2.5684 H   0  0  0  0  0  0  0  0  0  0  0  0
    0.3688    0.1201   -1.5127 H   0  0  0  0  0  0  0  0  0  0  0  0
    1.4391    1.4101   -2.1130 H   0  0  0  0  0  0  0  0  0  0  0  0
    2.5084    2.3055    2.1649 H   0  0  0  0  0  0  0  0  0  0  0  0
    4.9013    2.0837    2.6743 H   0  0  0  0  0  0  0  0  0  0  0  0
  1  2  1  0
  2  3  2  0
  3  4  1  0
  4  5  2  0
  5  6  1  0
  6  7  2  0
  7  8  1  0
  8  9  1  0
  9 10  1  0
 10 11  2  0
 10 12  1  0
 12 13  1  0
 13 14  1  0
 14 15  2  0
 15 16  1  0
 16 17  2  0
 17 18  1  0
 18 19  2  0
  8 20  1  0
 20 21  2  0
 20 22  1  0
 22 23  1  0
  5 24  1  0
 24 25  2  0
 25  2  1  0
 23  6  1  0
 19 14  1  0
  1 26  1  0
  1 27  1  0
  1 28  1  0
  3 29  1  0
  4 30  1  0
  9 31  1  0
  9 32  1  0
 12 33  1  0
 13 34  1  0
 13 35  1  0
 15 36  1  0
 16 37  1  0
 17 38  1  0
 18 39  1  0
 22 40  1  0
 22 41  1  0
 23 42  1  0
 23 43  1  0
 24 44  1  0
 25 45  1  0
M  END
$$$$
