
     RDKit          3D

 57 60  0  0  0  0  0  0  0  0999 V2000
    6.4797    4.2621    0.4414 C   0  0  0  0  0  0  0  0  0  0  0  0
    5.3453    3.2482    0.3752 C   0  0  0  0  0  0  0  0  0  0  0  0
    5.7712    1.8226    0.7684 C   0  0  0  0  0  0  0  0  0  0  0  0
    6.2228    1.7265    2.2244 C   0  0  0  0  0  0  0  0  0  0  0  0
    4.6830    0.8805    0.5491 N   0  0  0  0  0  0  0  0  0  0  0  0
    4.3434    0.4520   -0.7167 C   0  0  0  0  0  0  0  0  0  0  0  0
    4.9267    0.7803   -1.7429 O   0  0  0  0  0  0  0  0  0  0  0  0
    3.1602   -0.4400   -0.7955 C   0  0  0  0  0  0  0  0  0  0  0  0
    2.2947   -0.3164   -1.8840 C   0  0  0  0  0  0  0  0  0  0  0  0
    1.1896   -1.1621   -1.9979 C   0  0  0  0  0  0  0  0  0  0  0  0
    0.9516   -2.1576   -1.0401 C   0  0  0  0  0  0  0  0  0  0  0  0
   -0.2118   -3.1036   -1.1928 C   0  0  0  0  0  0  0  0  0  0  0  0
   -1.6027   -2.7341   -0.0903 S   0  0  0  0  0  0  0  0  0  0  0  0
   -2.5834   -1.7062   -1.0799 C   0  0  0  0  0  0  0  0  0  0  0  0
   -2.1591   -1.0351   -2.1261 N   0  0  0  0  0  0  0  0  0  0  0  0
   -3.2557   -0.3548   -2.5911 C   0  0  0  0  0  0  0  0  0  0  0  0
   -3.3597    0.5284   -3.6660 C   0  0  0  0  0  0  0  0  0  0  0  0
   -4.6237    1.0491   -3.8939 C   0  0  0  0  0  0  0  0  0  0  0  0
   -5.7277    0.7461   -3.1713 N   0  0  0  0  0  0  0  0  0  0  0  0
   -5.6259   -0.1137   -2.1323 C   0  0  0  0  0  0  0  0  0  0  0  0
   -4.3835   -0.6520   -1.8315 C   0  0  0  0  0  0  0  0  0  0  0  0
   -3.9252   -1.5045   -0.8487 N   0  0  0  0  0  0  0  0  0  0  0  0
   -4.7510   -2.1253    0.1729 C   0  0  0  0  0  0  0  0  0  0  0  0
   -4.6926   -1.3920    1.4885 C   0  0  0  0  0  0  0  0  0  0  0  0
   -5.2959   -0.1339    1.6410 C   0  0  0  0  0  0  0  0  0  0  0  0
   -5.2539    0.5295    2.8700 C   0  0  0  0  0  0  0  0  0  0  0  0
   -4.6127   -0.0609    3.9493 C   0  0  0  0  0  0  0  0  0  0  0  0
   -4.5864    0.5746    5.1310 F   0  0  0  0  0  0  0  0  0  0  0  0
   -4.0076   -1.3065    3.8215 C   0  0  0  0  0  0  0  0  0  0  0  0
   -4.0490   -1.9718    2.5943 C   0  0  0  0  0  0  0  0  0  0  0  0
    1.8274   -2.2728    0.0498 C   0  0  0  0  0  0  0  0  0  0  0  0
    2.9269   -1.4197    0.1731 C   0  0  0  0  0  0  0  0  0  0  0  0
    6.1740    5.1970   -0.0307 H   0  0  0  0  0  0  0  0  0  0  0  0
    7.3601    3.8962   -0.0904 H   0  0  0  0  0  0  0  0  0  0  0  0
    6.7666    4.4814    1.4711 H   0  0  0  0  0  0  0  0  0  0  0  0
    4.5153    3.5840    1.0083 H   0  0  0  0  0  0  0  0  0  0  0  0
    4.9654    3.2397   -0.6524 H   0  0  0  0  0  0  0  0  0  0  0  0
    6.6045    1.5122    0.1281 H   0  0  0  0  0  0  0  0  0  0  0  0
    7.1147    2.3286    2.4047 H   0  0  0  0  0  0  0  0  0  0  0  0
    5.4377    2.0591    2.9081 H   0  0  0  0  0  0  0  0  0  0  0  0
    6.4625    0.6915    2.4857 H   0  0  0  0  0  0  0  0  0  0  0  0
    3.9774    0.7973    1.2675 H   0  0  0  0  0  0  0  0  0  0  0  0
    2.4791    0.4414   -2.6423 H   0  0  0  0  0  0  0  0  0  0  0  0
    0.5162   -1.0436   -2.8447 H   0  0  0  0  0  0  0  0  0  0  0  0
    0.1386   -4.1132   -0.9437 H   0  0  0  0  0  0  0  0  0  0  0  0
   -0.5450   -3.1628   -2.2320 H   0  0  0  0  0  0  0  0  0  0  0  0
   -2.5037    0.7961   -4.2738 H   0  0  0  0  0  0  0  0  0  0  0  0
   -4.7885    1.7528   -4.7066 H   0  0  0  0  0  0  0  0  0  0  0  0
   -6.5313   -0.3314   -1.5890 H   0  0  0  0  0  0  0  0  0  0  0  0
   -5.7876   -2.1527   -0.1843 H   0  0  0  0  0  0  0  0  0  0  0  0
   -4.4409   -3.1748    0.2713 H   0  0  0  0  0  0  0  0  0  0  0  0
   -5.8075    0.3477    0.8100 H   0  0  0  0  0  0  0  0  0  0  0  0
   -5.7191    1.5040    2.9904 H   0  0  0  0  0  0  0  0  0  0  0  0
   -3.5107   -1.7498    4.6777 H   0  0  0  0  0  0  0  0  0  0  0  0
   -3.5694   -2.9465    2.5127 H   0  0  0  0  0  0  0  0  0  0  0  0
    1.6652   -3.0417    0.8011 H   0  0  0  0  0  0  0  0  0  0  0  0
    3.6115   -1.5497    1.0043 H   0  0  0  0  0  0  0  0  0  0  0  0
  1  2  1  0
  2  3  1  0
  3  4  1  0
  3  5  1  0
  5  6  1  0
  6  7  2  0
  6  8  1  0
  8  9  2  0
  9 10  1  0
 10 11  2  0
 11 12  1  0
 12 13  1  0
 13 14  1  0
 14 15  2  0
 15 16  1  0
 16 17  2  0
 17 18  1  0
 18 19  2  0
 19 20  1  0
 20 21  2  0
 21 22  1  0
 22 23  1  0
 23 24  1  0
 24 25  2  0
 25 26  1  0
 26 27  2  0
 27 28  1  0
 27 29  1  0
 29 30  2  0
 11 31  1  0
 31 32  2  0
 32  8  1  0
 22 14  1  0
 30 24  1  0
 21 16  1  0
  1 33  1  0
  1 34  1  0
  1 35  1  0
  2 36  1  0
  2 37  1  0
  3 38  1  0
  4 39  1  0
  4 40  1  0
  4 41  1  0
  5 42  1  0
  9 43  1  0
 10 44  1  0
 12 45  1  0
 12 46  1  0
 17 47  1  0
 18 48  1  0
 20 49  1  0
 23 50  1  0
 23 51  1  0
 25 52  1  0
 26 53  1  0
 29 54  1  0
 30 55  1  0
 31 56  1  0
 32 57  1  0
M  END
$$$$
