
     RDKit          3D

 34 35  0  0  0  0  0  0  0  0999 V2000
   -3.4999   -3.1537    0.0480 C   0  0  0  0  0  0  0  0  0  0  0  0
   -2.6780   -2.5196   -0.9350 O   0  0  0  0  0  0  0  0  0  0  0  0
   -3.1262   -1.2525   -1.1909 C   0  0  0  0  0  0  0  0  0  0  0  0
   -4.1875   -1.0773   -2.0815 C   0  0  0  0  0  0  0  0  0  0  0  0
   -4.6128    0.2116   -2.4107 C   0  0  0  0  0  0  0  0  0  0  0  0
   -3.9667    1.3197   -1.8604 C   0  0  0  0  0  0  0  0  0  0  0  0
   -4.4950    2.9042   -2.2718 Cl  0  0  0  0  0  0  0  0  0  0  0  0
   -2.8943    1.1552   -0.9865 C   0  0  0  0  0  0  0  0  0  0  0  0
   -2.4683   -0.1387   -0.6602 C   0  0  0  0  0  0  0  0  0  0  0  0
   -1.3469   -0.3107    0.2775 C   0  0  0  0  0  0  0  0  0  0  0  0
   -1.4442   -0.8921    1.3459 O   0  0  0  0  0  0  0  0  0  0  0  0
   -0.2617    0.2932   -0.2891 O   0  0  0  0  0  0  0  0  0  0  0  0
    0.8230    0.2651    0.6072 N   0  0  0  0  0  0  0  0  0  0  0  0
    1.9050    0.7338    0.0600 C   0  0  0  0  0  0  0  0  0  0  0  0
    1.9632    1.1711   -1.2452 N   0  0  0  0  0  0  0  0  0  0  0  0
    3.1483    0.7787    0.8974 C   0  0  0  0  0  0  0  0  0  0  0  0
    3.2398   -0.0117    2.0516 C   0  0  0  0  0  0  0  0  0  0  0  0
    4.3959    0.0188    2.8366 C   0  0  0  0  0  0  0  0  0  0  0  0
    5.4582    0.8433    2.4717 C   0  0  0  0  0  0  0  0  0  0  0  0
    6.8817    0.8823    3.4368 Cl  0  0  0  0  0  0  0  0  0  0  0  0
    5.3740    1.6411    1.3311 C   0  0  0  0  0  0  0  0  0  0  0  0
    4.2187    1.6113    0.5436 C   0  0  0  0  0  0  0  0  0  0  0  0
   -3.6373   -2.5240    0.9340 H   0  0  0  0  0  0  0  0  0  0  0  0
   -4.4719   -3.4232   -0.3787 H   0  0  0  0  0  0  0  0  0  0  0  0
   -2.9987   -4.0749    0.3596 H   0  0  0  0  0  0  0  0  0  0  0  0
   -4.6756   -1.9402   -2.5275 H   0  0  0  0  0  0  0  0  0  0  0  0
   -5.4426    0.3448   -3.1008 H   0  0  0  0  0  0  0  0  0  0  0  0
   -2.3978    2.0219   -0.5564 H   0  0  0  0  0  0  0  0  0  0  0  0
    2.8234    0.9495   -1.7347 H   0  0  0  0  0  0  0  0  0  0  0  0
    1.1495    0.8752   -1.7748 H   0  0  0  0  0  0  0  0  0  0  0  0
    2.4127   -0.6560    2.3452 H   0  0  0  0  0  0  0  0  0  0  0  0
    4.4560   -0.5993    3.7286 H   0  0  0  0  0  0  0  0  0  0  0  0
    6.1986    2.2932    1.0549 H   0  0  0  0  0  0  0  0  0  0  0  0
    4.1577    2.2600   -0.3258 H   0  0  0  0  0  0  0  0  0  0  0  0
  1  2  1  0
  2  3  1  0
  3  4  2  0
  4  5  1  0
  5  6  2  0
  6  7  1  0
  6  8  1  0
  8  9  2  0
  9 10  1  0
 10 11  2  0
 10 12  1  0
 12 13  1  0
 13 14  2  3
 14 15  1  0
 14 16  1  0
 16 17  2  0
 17 18  1  0
 18 19  2  0
 19 20  1  0
 19 21  1  0
 21 22  2  0
  9  3  1  0
 22 16  1  0
  1 23  1  0
  1 24  1  0
  1 25  1  0
  4 26  1  0
  5 27  1  0
  8 28  1  0
 15 29  1  0
 15 30  1  0
 17 31  1  0
 18 32  1  0
 21 33  1  0
 22 34  1  0
M  END
$$$$
