
     RDKit          3D

 41 44  0  0  0  0  0  0  0  0999 V2000
    6.0914    1.0162   -1.5818 C   0  0  0  0  0  0  0  0  0  0  0  0
    4.8477    0.6988   -2.3977 C   0  0  0  0  0  0  0  0  0  0  0  0
    3.6325    0.5236   -1.5227 C   0  0  0  0  0  0  0  0  0  0  0  0
    3.3078   -0.7344   -0.9996 C   0  0  0  0  0  0  0  0  0  0  0  0
    2.1910   -0.8961   -0.1731 C   0  0  0  0  0  0  0  0  0  0  0  0
    1.3835    0.2024    0.1400 C   0  0  0  0  0  0  0  0  0  0  0  0
    0.1810    0.0706    1.0215 C   0  0  0  0  0  0  0  0  0  0  0  0
   -0.2512    1.1243    1.6523 N   0  0  0  0  0  0  0  0  0  0  0  0
   -1.3240    0.9884    2.4667 C   0  0  0  0  0  0  0  0  0  0  0  0
   -1.7775    1.7895    3.4072 N   0  0  0  0  0  0  0  0  0  0  0  0
   -2.8566    1.1223    3.9159 C   0  0  0  0  0  0  0  0  0  0  0  0
   -3.1164   -0.0629    3.3562 N   0  0  0  0  0  0  0  0  0  0  0  0
   -2.1554   -0.0982    2.4142 N   0  0  0  0  0  0  0  0  0  0  0  0
   -1.9492   -1.2228    1.5200 C   0  0  0  0  0  0  0  0  0  0  0  0
   -2.9449   -1.1712    0.3709 C   0  0  0  0  0  0  0  0  0  0  0  0
   -4.2693   -1.6000    0.6012 C   0  0  0  0  0  0  0  0  0  0  0  0
   -5.2255   -1.5574   -0.4168 C   0  0  0  0  0  0  0  0  0  0  0  0
   -6.9894   -2.1420   -0.0720 Br  0  0  0  0  0  0  0  0  0  0  0  0
   -4.8896   -1.0864   -1.6823 C   0  0  0  0  0  0  0  0  0  0  0  0
   -3.5882   -0.6534   -1.9254 C   0  0  0  0  0  0  0  0  0  0  0  0
   -2.6354   -0.6963   -0.9075 C   0  0  0  0  0  0  0  0  0  0  0  0
   -1.4001   -0.2741   -1.1988 F   0  0  0  0  0  0  0  0  0  0  0  0
   -0.4578   -1.3103    1.1756 C   0  0  0  0  0  0  0  0  0  0  0  0
    1.7158    1.4642   -0.3674 C   0  0  0  0  0  0  0  0  0  0  0  0
    2.8315    1.6231   -1.1931 C   0  0  0  0  0  0  0  0  0  0  0  0
    6.9561    1.1378   -2.2418 H   0  0  0  0  0  0  0  0  0  0  0  0
    6.3166    0.2130   -0.8719 H   0  0  0  0  0  0  0  0  0  0  0  0
    5.9668    1.9430   -1.0115 H   0  0  0  0  0  0  0  0  0  0  0  0
    4.6664    1.5002   -3.1244 H   0  0  0  0  0  0  0  0  0  0  0  0
    5.0126   -0.2120   -2.9861 H   0  0  0  0  0  0  0  0  0  0  0  0
    3.9297   -1.5976   -1.2286 H   0  0  0  0  0  0  0  0  0  0  0  0
    1.9879   -1.8846    0.2264 H   0  0  0  0  0  0  0  0  0  0  0  0
   -3.4645    1.5110    4.7229 H   0  0  0  0  0  0  0  0  0  0  0  0
   -2.1804   -2.1258    2.1034 H   0  0  0  0  0  0  0  0  0  0  0  0
   -4.5587   -1.9549    1.5906 H   0  0  0  0  0  0  0  0  0  0  0  0
   -5.6290   -1.0475   -2.4778 H   0  0  0  0  0  0  0  0  0  0  0  0
   -3.3065   -0.2769   -2.9047 H   0  0  0  0  0  0  0  0  0  0  0  0
   -0.3009   -1.9326    0.2891 H   0  0  0  0  0  0  0  0  0  0  0  0
    0.0727   -1.7899    2.0101 H   0  0  0  0  0  0  0  0  0  0  0  0
    1.1080    2.3340   -0.1252 H   0  0  0  0  0  0  0  0  0  0  0  0
    3.0714    2.6138   -1.5738 H   0  0  0  0  0  0  0  0  0  0  0  0
  1  2  1  0
  2  3  1  0
  3  4  2  0
  4  5  1  0
  5  6  2  0
  6  7  1  0
  7  8  2  0
  8  9  1  0
  9 10  2  0
 10 11  1  0
 11 12  2  0
 12 13  1  0
 13 14  1  0
 14 15  1  0
 15 16  2  0
 16 17  1  0
 17 18  1  0
 17 19  2  0
 19 20  1  0
 20 21  2  0
 21 22  1  0
 14 23  1  0
  6 24  1  0
 24 25  2  0
 25  3  1  0
 23  7  1  0
 13  9  1  0
 21 15  1  0
  1 26  1  0
  1 27  1  0
  1 28  1  0
  2 29  1  0
  2 30  1  0
  4 31  1  0
  5 32  1  0
 11 33  1  0
 14 34  1  0
 16 35  1  0
 19 36  1  0
 20 37  1  0
 23 38  1  0
 23 39  1  0
 24 40  1  0
 25 41  1  0
M  END
$$$$
