
     RDKit          3D

 60 64  0  0  0  0  0  0  0  0999 V2000
   -5.6090   -4.2820    1.6454 C   0  0  0  0  0  0  0  0  0  0  0  0
   -4.5233   -3.3960    1.1129 C   0  0  0  0  0  0  0  0  0  0  0  0
   -4.6827   -2.0080    1.1204 C   0  0  0  0  0  0  0  0  0  0  0  0
   -3.6777   -1.1723    0.6227 C   0  0  0  0  0  0  0  0  0  0  0  0
   -2.4885   -1.6941    0.1068 C   0  0  0  0  0  0  0  0  0  0  0  0
   -1.4393   -0.9118   -0.3898 N   0  0  0  0  0  0  0  0  0  0  0  0
   -1.2109    0.4583   -0.5048 C   0  0  0  0  0  0  0  0  0  0  0  0
   -0.0434    0.7730   -1.0422 N   0  0  0  0  0  0  0  0  0  0  0  0
    0.2016    2.0753   -1.1080 C   0  0  0  0  0  0  0  0  0  0  0  0
    1.3613    2.5064   -1.7278 O   0  0  0  0  0  0  0  0  0  0  0  0
    2.5087    1.8038   -1.4181 C   0  0  0  0  0  0  0  0  0  0  0  0
    3.4917    1.7443   -2.3912 C   0  0  0  0  0  0  0  0  0  0  0  0
    4.6893    1.1138   -2.0789 C   0  0  0  0  0  0  0  0  0  0  0  0
    4.8371    0.5837   -0.8122 C   0  0  0  0  0  0  0  0  0  0  0  0
    6.0514    0.0066   -0.5178 O   0  0  0  0  0  0  0  0  0  0  0  0
    5.9847   -0.9897    0.5100 C   0  0  0  0  0  0  0  0  0  0  0  0
    5.6530   -2.3352   -0.0917 C   0  0  0  0  0  0  0  0  0  0  0  0
    6.6033   -3.0181   -0.8654 C   0  0  0  0  0  0  0  0  0  0  0  0
    6.2930   -4.2527   -1.4414 C   0  0  0  0  0  0  0  0  0  0  0  0
    5.0303   -4.8136   -1.2526 C   0  0  0  0  0  0  0  0  0  0  0  0
    4.0750   -4.1395   -0.4927 C   0  0  0  0  0  0  0  0  0  0  0  0
    4.3824   -2.9006    0.0823 C   0  0  0  0  0  0  0  0  0  0  0  0
    3.8728    0.6837    0.1284 N   0  0  0  0  0  0  0  0  0  0  0  0
    2.6946    1.3080   -0.1733 N   0  0  0  0  0  0  0  0  0  0  0  0
   -0.6384    3.0440   -0.7710 N   0  0  0  0  0  0  0  0  0  0  0  0
   -1.7902    2.6468   -0.2509 C   0  0  0  0  0  0  0  0  0  0  0  0
   -2.7287    3.6203    0.1128 N   0  0  0  0  0  0  0  0  0  0  0  0
   -3.7318    3.1602    1.0827 C   0  0  0  0  0  0  0  0  0  0  0  0
   -4.7636    4.2698    1.3508 C   0  0  0  0  0  0  0  0  0  0  0  0
   -4.1324    5.4926    1.7595 O   0  0  0  0  0  0  0  0  0  0  0  0
   -3.2425    5.9526    0.7342 C   0  0  0  0  0  0  0  0  0  0  0  0
   -2.1341    4.9272    0.4467 C   0  0  0  0  0  0  0  0  0  0  0  0
   -2.1019    1.3612   -0.1047 N   0  0  0  0  0  0  0  0  0  0  0  0
   -2.3493   -3.0905    0.0917 C   0  0  0  0  0  0  0  0  0  0  0  0
   -3.3516   -3.9335    0.5807 C   0  0  0  0  0  0  0  0  0  0  0  0
   -5.2699   -5.3207    1.7356 H   0  0  0  0  0  0  0  0  0  0  0  0
   -6.4767   -4.2612    0.9766 H   0  0  0  0  0  0  0  0  0  0  0  0
   -5.9159   -3.9476    2.6439 H   0  0  0  0  0  0  0  0  0  0  0  0
   -5.5941   -1.5616    1.5177 H   0  0  0  0  0  0  0  0  0  0  0  0
   -3.8490   -0.1021    0.6511 H   0  0  0  0  0  0  0  0  0  0  0  0
   -0.6298   -1.4082   -0.7320 H   0  0  0  0  0  0  0  0  0  0  0  0
    3.3351    2.1897   -3.3653 H   0  0  0  0  0  0  0  0  0  0  0  0
    5.4899    1.0361   -2.8053 H   0  0  0  0  0  0  0  0  0  0  0  0
    5.3146   -0.7278    1.3392 H   0  0  0  0  0  0  0  0  0  0  0  0
    6.9841   -1.0476    0.9620 H   0  0  0  0  0  0  0  0  0  0  0  0
    7.5899   -2.5884   -1.0267 H   0  0  0  0  0  0  0  0  0  0  0  0
    7.0352   -4.7758   -2.0402 H   0  0  0  0  0  0  0  0  0  0  0  0
    4.7895   -5.7739   -1.7018 H   0  0  0  0  0  0  0  0  0  0  0  0
    3.0892   -4.5748   -0.3513 H   0  0  0  0  0  0  0  0  0  0  0  0
    3.6234   -2.3797    0.6639 H   0  0  0  0  0  0  0  0  0  0  0  0
   -4.2745    2.2836    0.7102 H   0  0  0  0  0  0  0  0  0  0  0  0
   -3.2384    2.8958    2.0264 H   0  0  0  0  0  0  0  0  0  0  0  0
   -5.3793    4.4639    0.4591 H   0  0  0  0  0  0  0  0  0  0  0  0
   -5.4386    3.9581    2.1594 H   0  0  0  0  0  0  0  0  0  0  0  0
   -2.7983    6.8928    1.0751 H   0  0  0  0  0  0  0  0  0  0  0  0
   -3.8210    6.1685   -0.1691 H   0  0  0  0  0  0  0  0  0  0  0  0
   -1.5213    5.3162   -0.3780 H   0  0  0  0  0  0  0  0  0  0  0  0
   -1.4984    4.8234    1.3403 H   0  0  0  0  0  0  0  0  0  0  0  0
   -1.4368   -3.5412   -0.2960 H   0  0  0  0  0  0  0  0  0  0  0  0
   -3.2001   -5.0102    0.5520 H   0  0  0  0  0  0  0  0  0  0  0  0
  1  2  1  0
  2  3  2  0
  3  4  1  0
  4  5  2  0
  5  6  1  0
  6  7  1  0
  7  8  2  0
  8  9  1  0
  9 10  1  0
 10 11  1  0
 11 12  2  0
 12 13  1  0
 13 14  2  0
 14 15  1  0
 15 16  1  0
 16 17  1  0
 17 18  2  0
 18 19  1  0
 19 20  2  0
 20 21  1  0
 21 22  2  0
 14 23  1  0
 23 24  2  0
  9 25  2  0
 25 26  1  0
 26 27  1  0
 27 28  1  0
 28 29  1  0
 29 30  1  0
 30 31  1  0
 31 32  1  0
 26 33  2  0
  5 34  1  0
 34 35  2  0
 35  2  1  0
 33  7  1  0
 24 11  1  0
 32 27  1  0
 22 17  1  0
  1 36  1  0
  1 37  1  0
  1 38  1  0
  3 39  1  0
  4 40  1  0
  6 41  1  0
 12 42  1  0
 13 43  1  0
 16 44  1  0
 16 45  1  0
 18 46  1  0
 19 47  1  0
 20 48  1  0
 21 49  1  0
 22 50  1  0
 28 51  1  0
 28 52  1  0
 29 53  1  0
 29 54  1  0
 31 55  1  0
 31 56  1  0
 32 57  1  0
 32 58  1  0
 34 59  1  0
 35 60  1  0
M  END
$$$$
