
     RDKit          3D

 45 48  0  0  0  0  0  0  0  0999 V2000
    4.4664    0.7446   -1.4428 O   0  0  0  0  0  0  0  0  0  0  0  0
    3.5162    0.4464   -0.7299 C   0  0  0  0  0  0  0  0  0  0  0  0
    2.4022   -0.2846   -1.0982 N   0  0  0  0  0  0  0  0  0  0  0  0
    2.1243   -0.9119   -2.3419 C   0  0  0  0  0  0  0  0  0  0  0  0
    3.0625   -0.9095   -3.3840 C   0  0  0  0  0  0  0  0  0  0  0  0
    2.7909   -1.5192   -4.6115 C   0  0  0  0  0  0  0  0  0  0  0  0
    1.5762   -2.1526   -4.8198 C   0  0  0  0  0  0  0  0  0  0  0  0
    0.6327   -2.1800   -3.7944 C   0  0  0  0  0  0  0  0  0  0  0  0
    0.8809   -1.5685   -2.5455 C   0  0  0  0  0  0  0  0  0  0  0  0
   -0.1849   -1.6752   -1.5441 C   0  0  0  0  0  0  0  0  0  0  0  0
   -1.3545   -2.2798   -1.6218 N   0  0  0  0  0  0  0  0  0  0  0  0
   -1.9757   -2.0996   -0.4040 N   0  0  0  0  0  0  0  0  0  0  0  0
   -1.1546   -1.3865    0.3376 C   0  0  0  0  0  0  0  0  0  0  0  0
   -1.4464   -0.8776    1.9693 S   0  0  0  0  0  0  0  0  0  0  0  0
   -3.2344   -1.1411    2.1075 C   0  0  0  0  0  0  0  0  0  0  0  0
   -4.0462   -0.0374    1.4739 C   0  0  0  0  0  0  0  0  0  0  0  0
   -4.6364   -0.2201    0.2135 C   0  0  0  0  0  0  0  0  0  0  0  0
   -5.3886    0.7990   -0.3726 C   0  0  0  0  0  0  0  0  0  0  0  0
   -5.5607    2.0075    0.2984 C   0  0  0  0  0  0  0  0  0  0  0  0
   -6.4957    3.2611   -0.4214 Cl  0  0  0  0  0  0  0  0  0  0  0  0
   -4.9778    2.2080    1.5484 C   0  0  0  0  0  0  0  0  0  0  0  0
   -4.2238    1.1886    2.1352 C   0  0  0  0  0  0  0  0  0  0  0  0
    0.0113   -1.0909   -0.3188 O   0  0  0  0  0  0  0  0  0  0  0  0
    3.5119    0.9366    0.6822 C   0  0  0  0  0  0  0  0  0  0  0  0
    2.8888    0.2272    1.7206 C   0  0  0  0  0  0  0  0  0  0  0  0
    2.9202    0.7263    3.0258 C   0  0  0  0  0  0  0  0  0  0  0  0
    3.5825    1.9235    3.3024 C   0  0  0  0  0  0  0  0  0  0  0  0
    4.2152    2.6261    2.2768 C   0  0  0  0  0  0  0  0  0  0  0  0
    4.1840    2.1326    0.9709 C   0  0  0  0  0  0  0  0  0  0  0  0
    1.6496   -0.3152   -0.4246 H   0  0  0  0  0  0  0  0  0  0  0  0
    4.0330   -0.4386   -3.2750 H   0  0  0  0  0  0  0  0  0  0  0  0
    3.5380   -1.4956   -5.4006 H   0  0  0  0  0  0  0  0  0  0  0  0
    1.3630   -2.6300   -5.7731 H   0  0  0  0  0  0  0  0  0  0  0  0
   -0.3108   -2.6938   -3.9751 H   0  0  0  0  0  0  0  0  0  0  0  0
   -3.4826   -1.1846    3.1753 H   0  0  0  0  0  0  0  0  0  0  0  0
   -3.5206   -2.1185    1.7036 H   0  0  0  0  0  0  0  0  0  0  0  0
   -4.5121   -1.1574   -0.3264 H   0  0  0  0  0  0  0  0  0  0  0  0
   -5.8377    0.6433   -1.3508 H   0  0  0  0  0  0  0  0  0  0  0  0
   -5.1104    3.1486    2.0741 H   0  0  0  0  0  0  0  0  0  0  0  0
   -3.7740    1.3575    3.1131 H   0  0  0  0  0  0  0  0  0  0  0  0
    2.4006   -0.7274    1.5433 H   0  0  0  0  0  0  0  0  0  0  0  0
    2.4386    0.1747    3.8310 H   0  0  0  0  0  0  0  0  0  0  0  0
    3.6146    2.3053    4.3204 H   0  0  0  0  0  0  0  0  0  0  0  0
    4.7390    3.5549    2.4929 H   0  0  0  0  0  0  0  0  0  0  0  0
    4.6850    2.6840    0.1766 H   0  0  0  0  0  0  0  0  0  0  0  0
  1  2  2  0
  2  3  1  0
  3  4  1  0
  4  5  2  0
  5  6  1  0
  6  7  2  0
  7  8  1  0
  8  9  2  0
  9 10  1  0
 10 11  2  0
 11 12  1  0
 12 13  2  0
 13 14  1  0
 14 15  1  0
 15 16  1  0
 16 17  2  0
 17 18  1  0
 18 19  2  0
 19 20  1  0
 19 21  1  0
 21 22  2  0
 13 23  1  0
  2 24  1  0
 24 25  2  0
 25 26  1  0
 26 27  2  0
 27 28  1  0
 28 29  2  0
  9  4  1  0
 23 10  1  0
 29 24  1  0
 22 16  1  0
  3 30  1  0
  5 31  1  0
  6 32  1  0
  7 33  1  0
  8 34  1  0
 15 35  1  0
 15 36  1  0
 17 37  1  0
 18 38  1  0
 21 39  1  0
 22 40  1  0
 25 41  1  0
 26 42  1  0
 27 43  1  0
 28 44  1  0
 29 45  1  0
M  END
$$$$
