
     RDKit          3D

 38 39  0  0  0  0  0  0  0  0999 V2000
    5.9716    1.8765   -0.5941 C   0  0  0  0  0  0  0  0  0  0  0  0
    4.8479    0.9342   -0.2831 C   0  0  0  0  0  0  0  0  0  0  0  0
    3.5318    1.3961   -0.2102 C   0  0  0  0  0  0  0  0  0  0  0  0
    2.4845    0.5228    0.1112 C   0  0  0  0  0  0  0  0  0  0  0  0
    2.7226   -0.8263    0.3857 C   0  0  0  0  0  0  0  0  0  0  0  0
    1.7196   -1.7539    0.6900 N   0  0  0  0  0  0  0  0  0  0  0  0
    0.3296   -1.6890    0.7627 C   0  0  0  0  0  0  0  0  0  0  0  0
   -0.2576   -2.7962    1.1853 N   0  0  0  0  0  0  0  0  0  0  0  0
   -1.5772   -2.7089    1.2366 C   0  0  0  0  0  0  0  0  0  0  0  0
   -2.3971   -4.1109    1.7705 Cl  0  0  0  0  0  0  0  0  0  0  0  0
   -2.3414   -1.6807    0.9136 N   0  0  0  0  0  0  0  0  0  0  0  0
   -1.6646   -0.6296    0.5019 C   0  0  0  0  0  0  0  0  0  0  0  0
   -2.3017    0.5387    0.1360 N   0  0  0  0  0  0  0  0  0  0  0  0
   -3.6494    0.5610   -0.4416 C   0  0  0  0  0  0  0  0  0  0  0  0
   -4.7158    0.1937    0.6006 C   0  0  0  0  0  0  0  0  0  0  0  0
   -3.9099    2.0159   -0.8869 C   0  0  0  0  0  0  0  0  0  0  0  0
   -3.7481   -0.3446   -1.6777 C   0  0  0  0  0  0  0  0  0  0  0  0
   -0.3407   -0.5951    0.4101 N   0  0  0  0  0  0  0  0  0  0  0  0
    4.0509   -1.2763    0.3161 C   0  0  0  0  0  0  0  0  0  0  0  0
    5.1018   -0.4098   -0.0053 C   0  0  0  0  0  0  0  0  0  0  0  0
    6.3555    2.3192    0.3301 H   0  0  0  0  0  0  0  0  0  0  0  0
    5.6356    2.6794   -1.2586 H   0  0  0  0  0  0  0  0  0  0  0  0
    6.7892    1.3551   -1.1031 H   0  0  0  0  0  0  0  0  0  0  0  0
    3.3050    2.4423   -0.4034 H   0  0  0  0  0  0  0  0  0  0  0  0
    1.4812    0.9339    0.1536 H   0  0  0  0  0  0  0  0  0  0  0  0
    2.0300   -2.6673    0.9893 H   0  0  0  0  0  0  0  0  0  0  0  0
   -1.6121    1.0952   -0.3600 H   0  0  0  0  0  0  0  0  0  0  0  0
   -4.5877    0.7761    1.5203 H   0  0  0  0  0  0  0  0  0  0  0  0
   -4.6867   -0.8650    0.8739 H   0  0  0  0  0  0  0  0  0  0  0  0
   -5.7236    0.3908    0.2168 H   0  0  0  0  0  0  0  0  0  0  0  0
   -3.8358    2.7079   -0.0396 H   0  0  0  0  0  0  0  0  0  0  0  0
   -4.9074    2.1276   -1.3265 H   0  0  0  0  0  0  0  0  0  0  0  0
   -3.1771    2.3392   -1.6357 H   0  0  0  0  0  0  0  0  0  0  0  0
   -3.6394   -1.4036   -1.4217 H   0  0  0  0  0  0  0  0  0  0  0  0
   -4.7195   -0.2302   -2.1723 H   0  0  0  0  0  0  0  0  0  0  0  0
   -2.9683   -0.1025   -2.4091 H   0  0  0  0  0  0  0  0  0  0  0  0
    4.2862   -2.3194    0.5142 H   0  0  0  0  0  0  0  0  0  0  0  0
    6.1178   -0.7963   -0.0390 H   0  0  0  0  0  0  0  0  0  0  0  0
  1  2  1  0
  2  3  2  0
  3  4  1  0
  4  5  2  0
  5  6  1  0
  6  7  1  0
  7  8  2  0
  8  9  1  0
  9 10  1  0
  9 11  2  0
 11 12  1  0
 12 13  1  0
 13 14  1  0
 14 15  1  0
 14 16  1  0
 14 17  1  0
 12 18  2  0
  5 19  1  0
 19 20  2  0
 20  2  1  0
 18  7  1  0
  1 21  1  0
  1 22  1  0
  1 23  1  0
  3 24  1  0
  4 25  1  0
  6 26  1  0
 13 27  1  0
 15 28  1  0
 15 29  1  0
 15 30  1  0
 16 31  1  0
 16 32  1  0
 16 33  1  0
 17 34  1  0
 17 35  1  0
 17 36  1  0
 19 37  1  0
 20 38  1  0
M  END
$$$$
