
     RDKit          3D

 56 59  0  0  0  0  0  0  0  0999 V2000
   -1.2016    0.9335   -4.1297 C   0  0  0  0  0  0  0  0  0  0  0  0
   -0.6796   -0.2214   -3.2974 C   0  0  0  0  0  0  0  0  0  0  0  0
   -0.7384    0.1171   -1.9031 O   0  0  0  0  0  0  0  0  0  0  0  0
   -1.9079   -0.1865   -1.2664 C   0  0  0  0  0  0  0  0  0  0  0  0
   -2.8497   -0.7484   -1.8144 O   0  0  0  0  0  0  0  0  0  0  0  0
   -1.9285    0.2315    0.1402 C   0  0  0  0  0  0  0  0  0  0  0  0
   -0.9839    1.0518    0.7529 C   0  0  0  0  0  0  0  0  0  0  0  0
    0.1803    1.5760    0.2022 N   0  0  0  0  0  0  0  0  0  0  0  0
    0.9534    2.6001    0.7330 C   0  0  0  0  0  0  0  0  0  0  0  0
    0.6104    3.3750    1.6261 O   0  0  0  0  0  0  0  0  0  0  0  0
    2.2627    2.8483   -0.0181 C   0  0  0  0  0  0  0  0  0  0  0  0
    3.0121    1.6215   -0.2889 N   0  0  0  0  0  0  0  0  0  0  0  0
    3.8464    1.1911    0.7163 N   0  0  0  0  0  0  0  0  0  0  0  0
    4.5526    0.1157    0.5297 C   0  0  0  0  0  0  0  0  0  0  0  0
    5.4553   -0.3181    1.6711 C   0  0  0  0  0  0  0  0  0  0  0  0
    5.2881   -1.3244    2.3280 O   0  0  0  0  0  0  0  0  0  0  0  0
    6.4837    0.5174    1.8406 O   0  0  0  0  0  0  0  0  0  0  0  0
    4.5221   -0.6813   -0.7029 C   0  0  0  0  0  0  0  0  0  0  0  0
    5.2985   -1.8309   -0.8912 C   0  0  0  0  0  0  0  0  0  0  0  0
    5.2195   -2.5322   -2.0973 C   0  0  0  0  0  0  0  0  0  0  0  0
    4.3729   -2.0893   -3.1127 C   0  0  0  0  0  0  0  0  0  0  0  0
    3.5989   -0.9444   -2.9238 C   0  0  0  0  0  0  0  0  0  0  0  0
    3.6741   -0.2425   -1.7142 C   0  0  0  0  0  0  0  0  0  0  0  0
    2.8508    0.9627   -1.5004 C   0  0  0  0  0  0  0  0  0  0  0  0
    2.0512    1.3232   -2.3610 O   0  0  0  0  0  0  0  0  0  0  0  0
   -1.3417    1.3358    2.3945 S   0  0  0  0  0  0  0  0  0  0  0  0
   -2.7673    0.4308    2.3238 C   0  0  0  0  0  0  0  0  0  0  0  0
   -2.9749   -0.1315    1.0812 C   0  0  0  0  0  0  0  0  0  0  0  0
   -4.1857   -0.9806    0.8011 C   0  0  0  0  0  0  0  0  0  0  0  0
   -4.9001   -1.4235    2.0888 C   0  0  0  0  0  0  0  0  0  0  0  0
   -5.0407   -0.2641    3.0957 C   0  0  0  0  0  0  0  0  0  0  0  0
   -5.8443   -0.7006    4.3187 C   0  0  0  0  0  0  0  0  0  0  0  0
   -3.6521    0.2603    3.5203 C   0  0  0  0  0  0  0  0  0  0  0  0
   -2.2516    1.1394   -3.8982 H   0  0  0  0  0  0  0  0  0  0  0  0
   -1.1155    0.7129   -5.1978 H   0  0  0  0  0  0  0  0  0  0  0  0
   -0.6417    1.8487   -3.9113 H   0  0  0  0  0  0  0  0  0  0  0  0
   -1.2237   -1.1481   -3.5123 H   0  0  0  0  0  0  0  0  0  0  0  0
    0.3696   -0.4093   -3.5423 H   0  0  0  0  0  0  0  0  0  0  0  0
    0.4054    1.2680   -0.7428 H   0  0  0  0  0  0  0  0  0  0  0  0
    2.0268    3.3630   -0.9557 H   0  0  0  0  0  0  0  0  0  0  0  0
    2.8974    3.5079    0.5845 H   0  0  0  0  0  0  0  0  0  0  0  0
    6.9545    0.1824    2.6309 H   0  0  0  0  0  0  0  0  0  0  0  0
    5.9645   -2.2058   -0.1182 H   0  0  0  0  0  0  0  0  0  0  0  0
    5.8189   -3.4284   -2.2447 H   0  0  0  0  0  0  0  0  0  0  0  0
    4.3147   -2.6371   -4.0510 H   0  0  0  0  0  0  0  0  0  0  0  0
    2.9415   -0.6022   -3.7202 H   0  0  0  0  0  0  0  0  0  0  0  0
   -4.8822   -0.4000    0.1836 H   0  0  0  0  0  0  0  0  0  0  0  0
   -3.9031   -1.8753    0.2356 H   0  0  0  0  0  0  0  0  0  0  0  0
   -5.8859   -1.8283    1.8298 H   0  0  0  0  0  0  0  0  0  0  0  0
   -4.3337   -2.2418    2.5540 H   0  0  0  0  0  0  0  0  0  0  0  0
   -5.5882    0.5518    2.6032 H   0  0  0  0  0  0  0  0  0  0  0  0
   -5.9584    0.1295    5.0237 H   0  0  0  0  0  0  0  0  0  0  0  0
   -6.8463   -1.0327    4.0265 H   0  0  0  0  0  0  0  0  0  0  0  0
   -5.3539   -1.5275    4.8439 H   0  0  0  0  0  0  0  0  0  0  0  0
   -3.1763   -0.4496    4.2093 H   0  0  0  0  0  0  0  0  0  0  0  0
   -3.7694    1.2106    4.0552 H   0  0  0  0  0  0  0  0  0  0  0  0
  1  2  1  0
  2  3  1  0
  3  4  1  0
  4  5  2  0
  4  6  1  0
  6  7  2  0
  7  8  1  0
  8  9  1  0
  9 10  2  0
  9 11  1  0
 11 12  1  0
 12 13  1  0
 13 14  2  0
 14 15  1  0
 15 16  2  0
 15 17  1  0
 14 18  1  0
 18 19  2  0
 19 20  1  0
 20 21  2  0
 21 22  1  0
 22 23  2  0
 23 24  1  0
 24 25  2  0
  7 26  1  0
 26 27  1  0
 27 28  2  0
 28 29  1  0
 29 30  1  0
 30 31  1  0
 31 32  1  0
 31 33  1  0
 28  6  1  0
 24 12  1  0
 33 27  1  0
 23 18  1  0
  1 34  1  0
  1 35  1  0
  1 36  1  0
  2 37  1  0
  2 38  1  0
  8 39  1  0
 11 40  1  0
 11 41  1  0
 17 42  1  0
 19 43  1  0
 20 44  1  0
 21 45  1  0
 22 46  1  0
 29 47  1  0
 29 48  1  0
 30 49  1  0
 30 50  1  0
 31 51  1  0
 32 52  1  0
 32 53  1  0
 32 54  1  0
 33 55  1  0
 33 56  1  0
M  END
$$$$
