
     RDKit          3D

 52 54  0  0  0  0  0  0  0  0999 V2000
    1.7776   -1.3425   -1.3000 O   0  0  0  0  0  0  0  0  0  0  0  0
    1.6558   -0.8516   -0.1847 C   0  0  0  0  0  0  0  0  0  0  0  0
    2.3766   -1.1477    0.9569 N   0  0  0  0  0  0  0  0  0  0  0  0
    3.3670   -2.1344    1.1213 C   0  0  0  0  0  0  0  0  0  0  0  0
    3.6136   -3.1439    0.1919 C   0  0  0  0  0  0  0  0  0  0  0  0
    4.6002   -4.1050    0.4442 C   0  0  0  0  0  0  0  0  0  0  0  0
    5.3629   -4.0499    1.6114 C   0  0  0  0  0  0  0  0  0  0  0  0
    5.1276   -3.0420    2.5455 C   0  0  0  0  0  0  0  0  0  0  0  0
    4.1276   -2.0939    2.3026 C   0  0  0  0  0  0  0  0  0  0  0  0
    0.6660    0.2460    0.0839 C   0  0  0  0  0  0  0  0  0  0  0  0
    0.4612    1.1919   -0.8568 C   0  0  0  0  0  0  0  0  0  0  0  0
   -0.4627    2.3586   -0.6317 C   0  0  0  0  0  0  0  0  0  0  0  0
    0.1674    3.6906   -1.0209 C   0  0  0  0  0  0  0  0  0  0  0  0
    1.3523    4.1445   -0.4117 C   0  0  0  0  0  0  0  0  0  0  0  0
    1.8877    5.3955   -0.7265 C   0  0  0  0  0  0  0  0  0  0  0  0
    1.2517    6.2066   -1.6620 C   0  0  0  0  0  0  0  0  0  0  0  0
    0.0810    5.7687   -2.2847 C   0  0  0  0  0  0  0  0  0  0  0  0
   -0.4587    4.5182   -1.9653 C   0  0  0  0  0  0  0  0  0  0  0  0
   -0.9575    2.4038    0.8268 C   0  0  0  0  0  0  0  0  0  0  0  0
   -1.1847    0.9862    1.3434 C   0  0  0  0  0  0  0  0  0  0  0  0
   -2.2285    0.3805    0.5745 O   0  0  0  0  0  0  0  0  0  0  0  0
   -2.5813   -0.9248    1.0356 C   0  0  0  0  0  0  0  0  0  0  0  0
   -3.6872   -1.4379    0.1225 C   0  0  0  0  0  0  0  0  0  0  0  0
   -4.1432   -2.8402    0.4939 C   0  0  0  0  0  0  0  0  0  0  0  0
   -5.2685   -3.3223   -0.4216 C   0  0  0  0  0  0  0  0  0  0  0  0
   -5.5925   -4.6609   -0.0837 O   0  0  0  0  0  0  0  0  0  0  0  0
    0.0480    0.2487    1.3233 O   0  0  0  0  0  0  0  0  0  0  0  0
    2.1984   -0.5423    1.7493 H   0  0  0  0  0  0  0  0  0  0  0  0
    3.0444   -3.2197   -0.7395 H   0  0  0  0  0  0  0  0  0  0  0  0
    4.7801   -4.8947   -0.2875 H   0  0  0  0  0  0  0  0  0  0  0  0
    6.1324   -4.7987    1.7990 H   0  0  0  0  0  0  0  0  0  0  0  0
    5.7183   -2.9961    3.4656 H   0  0  0  0  0  0  0  0  0  0  0  0
    3.9520   -1.3190    3.0497 H   0  0  0  0  0  0  0  0  0  0  0  0
    0.9771    1.1323   -1.8124 H   0  0  0  0  0  0  0  0  0  0  0  0
   -1.3336    2.1810   -1.2812 H   0  0  0  0  0  0  0  0  0  0  0  0
    1.8657    3.5313    0.3270 H   0  0  0  0  0  0  0  0  0  0  0  0
    2.7944    5.7372   -0.2234 H   0  0  0  0  0  0  0  0  0  0  0  0
    1.6654    7.1853   -1.9004 H   0  0  0  0  0  0  0  0  0  0  0  0
   -0.4131    6.4001   -3.0165 H   0  0  0  0  0  0  0  0  0  0  0  0
   -1.3760    4.2010   -2.4588 H   0  0  0  0  0  0  0  0  0  0  0  0
   -0.2197    2.8926    1.4745 H   0  0  0  0  0  0  0  0  0  0  0  0
   -1.8838    2.9913    0.8825 H   0  0  0  0  0  0  0  0  0  0  0  0
   -1.5103    1.0373    2.3882 H   0  0  0  0  0  0  0  0  0  0  0  0
   -1.7125   -1.5946    0.9938 H   0  0  0  0  0  0  0  0  0  0  0  0
   -2.9375   -0.8670    2.0679 H   0  0  0  0  0  0  0  0  0  0  0  0
   -4.5297   -0.7418    0.1556 H   0  0  0  0  0  0  0  0  0  0  0  0
   -3.3360   -1.4207   -0.9150 H   0  0  0  0  0  0  0  0  0  0  0  0
   -3.3044   -3.5410    0.4298 H   0  0  0  0  0  0  0  0  0  0  0  0
   -4.4834   -2.8732    1.5361 H   0  0  0  0  0  0  0  0  0  0  0  0
   -4.9604   -3.2866   -1.4749 H   0  0  0  0  0  0  0  0  0  0  0  0
   -6.1646   -2.6988   -0.2959 H   0  0  0  0  0  0  0  0  0  0  0  0
   -6.3227   -4.9379   -0.6697 H   0  0  0  0  0  0  0  0  0  0  0  0
  1  2  2  0
  2  3  1  0
  3  4  1  0
  4  5  2  0
  5  6  1  0
  6  7  2  0
  7  8  1  0
  8  9  2  0
  2 10  1  0
 10 11  2  0
 11 12  1  0
 12 13  1  0
 13 14  2  0
 14 15  1  0
 15 16  2  0
 16 17  1  0
 17 18  2  0
 12 19  1  0
 19 20  1  0
 20 21  1  0
 21 22  1  0
 22 23  1  0
 23 24  1  0
 24 25  1  0
 25 26  1  0
 20 27  1  0
  9  4  1  0
 27 10  1  0
 18 13  1  0
  3 28  1  0
  5 29  1  0
  6 30  1  0
  7 31  1  0
  8 32  1  0
  9 33  1  0
 11 34  1  0
 12 35  1  0
 14 36  1  0
 15 37  1  0
 16 38  1  0
 17 39  1  0
 18 40  1  0
 19 41  1  0
 19 42  1  0
 20 43  1  0
 22 44  1  0
 22 45  1  0
 23 46  1  0
 23 47  1  0
 24 48  1  0
 24 49  1  0
 25 50  1  0
 25 51  1  0
 26 52  1  0
M  END
$$$$
