
     RDKit          3D

 42 45  0  0  0  0  0  0  0  0999 V2000
   -2.9410    3.9914    0.0299 C   0  0  0  0  0  0  0  0  0  0  0  0
   -1.8702    2.9400    0.0579 C   0  0  0  0  0  0  0  0  0  0  0  0
   -0.6171    3.2228    0.6334 C   0  0  0  0  0  0  0  0  0  0  0  0
    0.4090    2.2690    0.6473 C   0  0  0  0  0  0  0  0  0  0  0  0
    0.1702    1.0262    0.0868 C   0  0  0  0  0  0  0  0  0  0  0  0
   -1.0623    0.7577   -0.5190 C   0  0  0  0  0  0  0  0  0  0  0  0
   -2.0879    1.6938   -0.5395 C   0  0  0  0  0  0  0  0  0  0  0  0
   -1.0884   -0.6405   -1.0742 C   0  0  0  0  0  0  0  0  0  0  0  0
   -1.8724   -1.5599   -0.1220 C   0  0  0  0  0  0  0  0  0  0  0  0
   -1.5544   -2.9853   -0.2395 N   0  0  0  0  0  0  0  0  0  0  0  0
   -2.0586   -3.5775   -1.4737 C   0  0  0  0  0  0  0  0  0  0  0  0
   -0.1182   -3.1942   -0.0372 C   0  0  0  0  0  0  0  0  0  0  0  0
    0.7570   -2.4379   -1.0305 C   0  0  0  0  0  0  0  0  0  0  0  0
    0.4284   -0.9440   -1.1247 C   0  0  0  0  0  0  0  0  0  0  0  0
    1.0385   -0.0850   -0.0791 N   0  0  0  0  0  0  0  0  0  0  0  0
    2.4124   -0.0721    0.1499 C   0  0  0  0  0  0  0  0  0  0  0  0
    3.1959   -0.5240   -0.6886 O   0  0  0  0  0  0  0  0  0  0  0  0
    2.8884    0.3976    1.4400 C   0  0  0  0  0  0  0  0  0  0  0  0
    4.1627    0.7471    1.8518 C   0  0  0  0  0  0  0  0  0  0  0  0
    4.0741    1.0821    3.2247 C   0  0  0  0  0  0  0  0  0  0  0  0
    2.7579    0.8984    3.5780 C   0  0  0  0  0  0  0  0  0  0  0  0
    2.0327    1.1897    5.3115 Br  0  0  0  0  0  0  0  0  0  0  0  0
    2.0350    0.4735    2.5094 O   0  0  0  0  0  0  0  0  0  0  0  0
   -3.9366    3.5353    0.0325 H   0  0  0  0  0  0  0  0  0  0  0  0
   -2.8364    4.6077   -0.8682 H   0  0  0  0  0  0  0  0  0  0  0  0
   -2.8773    4.6363    0.9126 H   0  0  0  0  0  0  0  0  0  0  0  0
   -0.4311    4.2003    1.0750 H   0  0  0  0  0  0  0  0  0  0  0  0
    1.3620    2.5405    1.0832 H   0  0  0  0  0  0  0  0  0  0  0  0
   -3.0392    1.4597   -1.0087 H   0  0  0  0  0  0  0  0  0  0  0  0
   -1.5091   -0.6690   -2.0857 H   0  0  0  0  0  0  0  0  0  0  0  0
   -2.9501   -1.4025   -0.2642 H   0  0  0  0  0  0  0  0  0  0  0  0
   -1.6919   -1.2699    0.9232 H   0  0  0  0  0  0  0  0  0  0  0  0
   -3.1496   -3.4863   -1.5187 H   0  0  0  0  0  0  0  0  0  0  0  0
   -1.8346   -4.6496   -1.5037 H   0  0  0  0  0  0  0  0  0  0  0  0
   -1.6458   -3.1169   -2.3768 H   0  0  0  0  0  0  0  0  0  0  0  0
    0.1460   -2.8880    0.9834 H   0  0  0  0  0  0  0  0  0  0  0  0
    0.1112   -4.2659   -0.0878 H   0  0  0  0  0  0  0  0  0  0  0  0
    0.6219   -2.8810   -2.0255 H   0  0  0  0  0  0  0  0  0  0  0  0
    1.8081   -2.6041   -0.7738 H   0  0  0  0  0  0  0  0  0  0  0  0
    0.8437   -0.5731   -2.0745 H   0  0  0  0  0  0  0  0  0  0  0  0
    5.0436    0.7510    1.2234 H   0  0  0  0  0  0  0  0  0  0  0  0
    4.8736    1.4064    3.8759 H   0  0  0  0  0  0  0  0  0  0  0  0
  1  2  1  0
  2  3  2  0
  3  4  1  0
  4  5  2  0
  5  6  1  0
  6  7  2  0
  6  8  1  0
  8  9  1  0
  9 10  1  0
 10 11  1  0
 10 12  1  0
 12 13  1  0
 13 14  1  0
 14 15  1  0
 15 16  1  0
 16 17  2  0
 16 18  1  0
 18 19  2  0
 19 20  1  0
 20 21  2  0
 21 22  1  0
 21 23  1  0
  7  2  1  0
 14  8  1  0
 23 18  1  0
 15  5  1  0
  1 24  1  0
  1 25  1  0
  1 26  1  0
  3 27  1  0
  4 28  1  0
  7 29  1  0
  8 30  1  0
  9 31  1  0
  9 32  1  0
 11 33  1  0
 11 34  1  0
 11 35  1  0
 12 36  1  0
 12 37  1  0
 13 38  1  0
 13 39  1  0
 14 40  1  0
 19 41  1  0
 20 42  1  0
M  END
$$$$
