
     RDKit          3D

 26 28  0  0  0  0  0  0  0  0999 V2000
    1.8460    0.8779    3.3544 O   0  0  0  0  0  0  0  0  0  0  0  0
    1.3697    0.2413    2.4177 C   0  0  0  0  0  0  0  0  0  0  0  0
    2.1583   -0.1428    1.2511 C   0  0  0  0  0  0  0  0  0  0  0  0
    3.3158    0.4748    0.8083 C   0  0  0  0  0  0  0  0  0  0  0  0
    3.8678   -0.1501   -0.3466 C   0  0  0  0  0  0  0  0  0  0  0  0
    3.1328   -1.2456   -0.7373 C   0  0  0  0  0  0  0  0  0  0  0  0
    1.7979   -1.5197    0.2922 S   0  0  0  0  0  0  0  0  0  0  0  0
   -0.0462   -0.1460    2.4154 C   0  0  0  0  0  0  0  0  0  0  0  0
   -0.5735   -0.8051    3.4577 N   0  0  0  0  0  0  0  0  0  0  0  0
   -1.9269   -0.9567    3.1844 O   0  0  0  0  0  0  0  0  0  0  0  0
   -2.1903   -0.3313    1.9241 N   0  0  0  0  0  4  0  0  0  0  0  0
   -3.3906   -0.2564    1.5828 O   0  0  0  0  0  1  0  0  0  0  0  0
   -1.0405    0.1278    1.4410 C   0  0  0  0  0  0  0  0  0  0  0  0
   -0.9403    0.8960    0.2374 C   0  0  0  0  0  0  0  0  0  0  0  0
   -0.2525    1.9122    0.2415 O   0  0  0  0  0  0  0  0  0  0  0  0
   -1.6301    0.4268   -0.9560 C   0  0  0  0  0  0  0  0  0  0  0  0
   -2.0514    1.2094   -2.0175 C   0  0  0  0  0  0  0  0  0  0  0  0
   -2.6579    0.4476   -3.0573 C   0  0  0  0  0  0  0  0  0  0  0  0
   -2.6546   -0.8990   -2.7750 C   0  0  0  0  0  0  0  0  0  0  0  0
   -1.9102   -1.2364   -1.2751 S   0  0  0  0  0  0  0  0  0  0  0  0
    3.7399    1.3484    1.2928 H   0  0  0  0  0  0  0  0  0  0  0  0
    4.7625    0.1837   -0.8589 H   0  0  0  0  0  0  0  0  0  0  0  0
    3.3243   -1.9068   -1.5720 H   0  0  0  0  0  0  0  0  0  0  0  0
   -1.9354    2.2879   -2.0398 H   0  0  0  0  0  0  0  0  0  0  0  0
   -3.0703    0.8660   -3.9679 H   0  0  0  0  0  0  0  0  0  0  0  0
   -3.0447   -1.7038   -3.3839 H   0  0  0  0  0  0  0  0  0  0  0  0
  1  2  2  0
  2  3  1  0
  3  4  2  0
  4  5  1  0
  5  6  2  0
  6  7  1  0
  2  8  1  0
  8  9  2  0
  9 10  1  0
 10 11  1  0
 11 12  1  0
 11 13  2  0
 13 14  1  0
 14 15  2  0
 14 16  1  0
 16 17  2  0
 17 18  1  0
 18 19  2  0
 19 20  1  0
  7  3  1  0
 13  8  1  0
 20 16  1  0
  4 21  1  0
  5 22  1  0
  6 23  1  0
 17 24  1  0
 18 25  1  0
 19 26  1  0
M  CHG  2  11   1  12  -1
M  END
$$$$
