
     RDKit          3D

 79 86  0  0  0  0  0  0  0  0999 V2000
    2.6039   -7.2298    1.9719 C   0  0  0  0  0  0  0  0  0  0  0  0
    1.7644   -6.1000    2.1755 O   0  0  0  0  0  0  0  0  0  0  0  0
    2.0083   -4.9988    1.3953 C   0  0  0  0  0  0  0  0  0  0  0  0
    3.1940   -4.7779    0.6816 C   0  0  0  0  0  0  0  0  0  0  0  0
    3.3623   -3.6211   -0.0933 C   0  0  0  0  0  0  0  0  0  0  0  0
    2.3540   -2.6575   -0.1556 C   0  0  0  0  0  0  0  0  0  0  0  0
    1.1785   -2.8788    0.5609 C   0  0  0  0  0  0  0  0  0  0  0  0
    0.9932   -4.0333    1.3418 C   0  0  0  0  0  0  0  0  0  0  0  0
   -0.1762   -4.2856    2.0555 O   0  0  0  0  0  0  0  0  0  0  0  0
   -1.0910   -3.2592    2.0669 C   0  0  0  0  0  0  0  0  0  0  0  0
   -0.9499   -2.2391    3.0046 C   0  0  0  0  0  0  0  0  0  0  0  0
   -1.6743   -1.0634    2.8377 C   0  0  0  0  0  0  0  0  0  0  0  0
   -2.5397   -0.9120    1.7420 C   0  0  0  0  0  0  0  0  0  0  0  0
   -2.7516   -1.9936    0.8753 C   0  0  0  0  0  0  0  0  0  0  0  0
   -2.0383   -3.1782    1.0455 C   0  0  0  0  0  0  0  0  0  0  0  0
   -3.2351    0.4066    1.5010 C   0  0  0  0  0  0  0  0  0  0  0  0
   -2.2668    1.5829    1.1407 C   0  0  0  0  0  0  0  0  0  0  0  0
   -2.4037    2.0048   -0.3241 C   0  0  0  0  0  0  0  0  0  0  0  0
   -3.5460    2.7769   -0.6581 C   0  0  0  0  0  0  0  0  0  0  0  0
   -3.7571    3.2267   -1.9686 C   0  0  0  0  0  0  0  0  0  0  0  0
   -2.7908    3.0058   -2.9455 C   0  0  0  0  0  0  0  0  0  0  0  0
   -2.8717    3.4422   -4.2432 O   0  0  0  0  0  0  0  0  0  0  0  0
   -4.0851    4.0588   -4.6523 C   0  0  0  0  0  0  0  0  0  0  0  0
   -1.6153    2.3244   -2.5914 C   0  0  0  0  0  0  0  0  0  0  0  0
   -1.4279    1.7835   -1.3090 C   0  0  0  0  0  0  0  0  0  0  0  0
   -0.2753    1.0771   -1.0107 O   0  0  0  0  0  0  0  0  0  0  0  0
    0.8058    1.3376   -1.8322 C   0  0  0  0  0  0  0  0  0  0  0  0
    0.6250    1.9879   -3.0527 C   0  0  0  0  0  0  0  0  0  0  0  0
    1.7113    2.3782   -3.8327 C   0  0  0  0  0  0  0  0  0  0  0  0
    3.0045    2.1614   -3.3673 C   0  0  0  0  0  0  0  0  0  0  0  0
    3.2126    1.4704   -2.1665 C   0  0  0  0  0  0  0  0  0  0  0  0
    2.1065    0.9846   -1.4302 C   0  0  0  0  0  0  0  0  0  0  0  0
    2.3736   -0.0265   -0.3165 C   0  0  0  0  0  0  0  0  0  0  0  0
    2.4592   -1.4290   -1.0253 C   0  0  0  0  0  0  0  0  0  0  0  0
    3.5620    0.4087    0.4537 N   0  0  0  0  0  0  0  0  0  0  0  0
    3.7704   -0.3459    1.6822 C   0  0  0  0  0  0  0  0  0  0  0  0
    4.7675    0.4412   -0.3787 C   0  0  0  0  0  0  0  0  0  0  0  0
    4.6157    1.3458   -1.6148 C   0  0  0  0  0  0  0  0  0  0  0  0
   -0.6231    2.2622   -3.5426 O   0  0  0  0  0  0  0  0  0  0  0  0
   -4.5325    3.1265    0.4324 C   0  0  0  0  0  0  0  0  0  0  0  0
   -3.8683    3.3400    1.8112 C   0  0  0  0  0  0  0  0  0  0  0  0
   -2.5080    2.8035    1.9468 N   0  0  0  0  0  0  0  0  0  0  0  0
   -2.0849    2.6989    3.3343 C   0  0  0  0  0  0  0  0  0  0  0  0
    2.1843   -8.0655    2.5406 H   0  0  0  0  0  0  0  0  0  0  0  0
    2.6263   -7.5254    0.9170 H   0  0  0  0  0  0  0  0  0  0  0  0
    3.6130   -7.0416    2.3528 H   0  0  0  0  0  0  0  0  0  0  0  0
    4.0126   -5.4907    0.7085 H   0  0  0  0  0  0  0  0  0  0  0  0
    4.2887   -3.4840   -0.6475 H   0  0  0  0  0  0  0  0  0  0  0  0
    0.3991   -2.1275    0.4751 H   0  0  0  0  0  0  0  0  0  0  0  0
   -0.2208   -2.3288    3.8041 H   0  0  0  0  0  0  0  0  0  0  0  0
   -1.5216   -0.2493    3.5408 H   0  0  0  0  0  0  0  0  0  0  0  0
   -3.4383   -1.9051    0.0366 H   0  0  0  0  0  0  0  0  0  0  0  0
   -2.1455   -3.9916    0.3338 H   0  0  0  0  0  0  0  0  0  0  0  0
   -4.0008    0.2735    0.7261 H   0  0  0  0  0  0  0  0  0  0  0  0
   -3.7961    0.6198    2.4198 H   0  0  0  0  0  0  0  0  0  0  0  0
   -1.2238    1.2848    1.3031 H   0  0  0  0  0  0  0  0  0  0  0  0
   -4.6597    3.7885   -2.1840 H   0  0  0  0  0  0  0  0  0  0  0  0
   -4.0047    4.2800   -5.7211 H   0  0  0  0  0  0  0  0  0  0  0  0
   -4.2397    5.0072   -4.1273 H   0  0  0  0  0  0  0  0  0  0  0  0
   -4.9394    3.3866   -4.5151 H   0  0  0  0  0  0  0  0  0  0  0  0
    1.5454    2.8941   -4.7742 H   0  0  0  0  0  0  0  0  0  0  0  0
    3.8488    2.5347   -3.9421 H   0  0  0  0  0  0  0  0  0  0  0  0
    1.5148   -0.0054    0.3654 H   0  0  0  0  0  0  0  0  0  0  0  0
    1.6328   -1.5103   -1.7486 H   0  0  0  0  0  0  0  0  0  0  0  0
    3.3573   -1.4998   -1.6515 H   0  0  0  0  0  0  0  0  0  0  0  0
    4.5074    0.1665    2.3111 H   0  0  0  0  0  0  0  0  0  0  0  0
    2.8494   -0.4020    2.2733 H   0  0  0  0  0  0  0  0  0  0  0  0
    4.1395   -1.3601    1.5065 H   0  0  0  0  0  0  0  0  0  0  0  0
    5.0525   -0.5687   -0.6984 H   0  0  0  0  0  0  0  0  0  0  0  0
    5.6192    0.8131    0.2063 H   0  0  0  0  0  0  0  0  0  0  0  0
    4.9339    2.3578   -1.3330 H   0  0  0  0  0  0  0  0  0  0  0  0
    5.2924    0.9931   -2.4019 H   0  0  0  0  0  0  0  0  0  0  0  0
   -5.0863    4.0359    0.1677 H   0  0  0  0  0  0  0  0  0  0  0  0
   -5.2643    2.3115    0.4956 H   0  0  0  0  0  0  0  0  0  0  0  0
   -3.8187    4.4193    2.0044 H   0  0  0  0  0  0  0  0  0  0  0  0
   -4.5399    2.9271    2.5753 H   0  0  0  0  0  0  0  0  0  0  0  0
   -2.1506    3.6755    3.8275 H   0  0  0  0  0  0  0  0  0  0  0  0
   -2.6914    1.9911    3.9082 H   0  0  0  0  0  0  0  0  0  0  0  0
   -1.0362    2.3885    3.3994 H   0  0  0  0  0  0  0  0  0  0  0  0
  1  2  1  0
  2  3  1  0
  3  4  2  0
  4  5  1  0
  5  6  2  0
  6  7  1  0
  7  8  2  0
  8  9  1  0
  9 10  1  0
 10 11  2  0
 11 12  1  0
 12 13  2  0
 13 14  1  0
 14 15  2  0
 13 16  1  0
 16 17  1  0
 17 18  1  0
 18 19  2  0
 19 20  1  0
 20 21  2  0
 21 22  1  0
 22 23  1  0
 21 24  1  0
 24 25  2  0
 25 26  1  0
 26 27  1  0
 27 28  2  0
 28 29  1  0
 29 30  2  0
 30 31  1  0
 31 32  2  0
 32 33  1  0
 33 34  1  0
 33 35  1  0
 35 36  1  0
 35 37  1  0
 37 38  1  0
 28 39  1  0
 19 40  1  0
 40 41  1  0
 41 42  1  0
 42 43  1  0
  8  3  1  0
 15 10  1  0
 42 17  1  0
 34  6  1  0
 25 18  1  0
 32 27  1  0
 39 24  1  0
 38 31  1  0
  1 44  1  0
  1 45  1  0
  1 46  1  0
  4 47  1  0
  5 48  1  0
  7 49  1  0
 11 50  1  0
 12 51  1  0
 14 52  1  0
 15 53  1  0
 16 54  1  0
 16 55  1  0
 17 56  1  0
 20 57  1  0
 23 58  1  0
 23 59  1  0
 23 60  1  0
 29 61  1  0
 30 62  1  0
 33 63  1  0
 34 64  1  0
 34 65  1  0
 36 66  1  0
 36 67  1  0
 36 68  1  0
 37 69  1  0
 37 70  1  0
 38 71  1  0
 38 72  1  0
 40 73  1  0
 40 74  1  0
 41 75  1  0
 41 76  1  0
 43 77  1  0
 43 78  1  0
 43 79  1  0
M  END
$$$$
