
     RDKit          3D

 47 48  0  0  0  0  0  0  0  0999 V2000
   -3.4685    5.0493   -0.6032 C   0  0  0  0  0  0  0  0  0  0  0  0
   -3.6964    4.0056    0.8589 S   0  0  0  0  0  0  0  0  0  0  0  0
   -2.0545    3.2129    0.9186 C   0  0  0  0  0  0  0  0  0  0  0  0
   -1.9234    2.1179   -0.1381 C   0  0  0  0  0  0  0  0  0  0  0  0
   -0.5992    1.3628    0.0087 C   0  0  0  0  0  0  0  0  0  0  0  0
    0.5148    2.2454   -0.4196 N   0  0  0  0  0  0  0  0  0  0  0  0
    1.9607    2.1645    0.4347 S   0  0  0  0  0  6  0  0  0  0  0  0
    1.6432    2.4315    1.8212 O   0  0  0  0  0  0  0  0  0  0  0  0
    2.9257    2.9556   -0.2936 O   0  0  0  0  0  0  0  0  0  0  0  0
    2.4379    0.4609    0.2974 C   0  0  0  0  0  0  0  0  0  0  0  0
    2.8872   -0.0257   -0.9319 C   0  0  0  0  0  0  0  0  0  0  0  0
    3.2370   -1.3714   -1.0513 C   0  0  0  0  0  0  0  0  0  0  0  0
    3.1641   -2.2264    0.0570 C   0  0  0  0  0  0  0  0  0  0  0  0
    3.5067   -3.6805   -0.0863 C   0  0  0  0  0  0  0  0  0  0  0  0
    2.7214   -1.7212    1.2869 C   0  0  0  0  0  0  0  0  0  0  0  0
    2.3671   -0.3770    1.4131 C   0  0  0  0  0  0  0  0  0  0  0  0
   -0.5964    0.1460   -0.9319 C   0  0  0  0  0  0  0  0  0  0  0  0
   -0.1906    0.2649   -2.0932 O   0  0  0  0  0  0  0  0  0  0  0  0
   -1.0527   -1.0522   -0.4369 N   0  0  0  0  0  0  0  0  0  0  0  0
   -1.0036   -2.2620   -1.2404 C   0  0  0  0  0  0  0  0  0  0  0  0
   -1.2033   -3.3912   -0.2400 C   0  0  0  0  0  0  0  0  0  0  0  0
   -2.0811   -2.7485    0.8261 C   0  0  0  0  0  0  0  0  0  0  0  0
   -1.5295   -1.3327    0.9090 C   0  0  0  0  0  0  0  0  0  0  0  0
   -4.3554    5.6751   -0.7351 H   0  0  0  0  0  0  0  0  0  0  0  0
   -2.6012    5.7022   -0.4763 H   0  0  0  0  0  0  0  0  0  0  0  0
   -3.3447    4.4385   -1.5004 H   0  0  0  0  0  0  0  0  0  0  0  0
   -1.2789    3.9778    0.8105 H   0  0  0  0  0  0  0  0  0  0  0  0
   -1.9460    2.7776    1.9178 H   0  0  0  0  0  0  0  0  0  0  0  0
   -2.7570    1.4107   -0.0414 H   0  0  0  0  0  0  0  0  0  0  0  0
   -1.9931    2.5468   -1.1458 H   0  0  0  0  0  0  0  0  0  0  0  0
   -0.4615    1.0487    1.0468 H   0  0  0  0  0  0  0  0  0  0  0  0
    0.6676    2.2434   -1.4343 H   0  0  0  0  0  0  0  0  0  0  0  0
    2.9507    0.6269   -1.7999 H   0  0  0  0  0  0  0  0  0  0  0  0
    3.5673   -1.7494   -2.0170 H   0  0  0  0  0  0  0  0  0  0  0  0
    4.2794   -3.8266   -0.8483 H   0  0  0  0  0  0  0  0  0  0  0  0
    3.8971   -4.0845    0.8536 H   0  0  0  0  0  0  0  0  0  0  0  0
    2.6152   -4.2471   -0.3722 H   0  0  0  0  0  0  0  0  0  0  0  0
    2.6566   -2.3730    2.1559 H   0  0  0  0  0  0  0  0  0  0  0  0
    2.0376    0.0029    2.3775 H   0  0  0  0  0  0  0  0  0  0  0  0
   -1.8260   -2.2167   -1.9628 H   0  0  0  0  0  0  0  0  0  0  0  0
   -0.0565   -2.3403   -1.7828 H   0  0  0  0  0  0  0  0  0  0  0  0
   -1.6551   -4.2790   -0.6903 H   0  0  0  0  0  0  0  0  0  0  0  0
   -0.2400   -3.6791    0.1982 H   0  0  0  0  0  0  0  0  0  0  0  0
   -3.1230   -2.7269    0.4843 H   0  0  0  0  0  0  0  0  0  0  0  0
   -2.0443   -3.2723    1.7850 H   0  0  0  0  0  0  0  0  0  0  0  0
   -0.6738   -1.2804    1.5901 H   0  0  0  0  0  0  0  0  0  0  0  0
   -2.2817   -0.6040    1.2214 H   0  0  0  0  0  0  0  0  0  0  0  0
  1  2  1  0
  2  3  1  0
  3  4  1  0
  4  5  1  0
  5  6  1  0
  6  7  1  0
  7  8  2  0
  7  9  2  0
  7 10  1  0
 10 11  2  0
 11 12  1  0
 12 13  2  0
 13 14  1  0
 13 15  1  0
 15 16  2  0
  5 17  1  0
 17 18  2  0
 17 19  1  0
 19 20  1  0
 20 21  1  0
 21 22  1  0
 22 23  1  0
 16 10  1  0
 23 19  1  0
  1 24  1  0
  1 25  1  0
  1 26  1  0
  3 27  1  0
  3 28  1  0
  4 29  1  0
  4 30  1  0
  5 31  1  0
  6 32  1  0
 11 33  1  0
 12 34  1  0
 14 35  1  0
 14 36  1  0
 14 37  1  0
 15 38  1  0
 16 39  1  0
 20 40  1  0
 20 41  1  0
 21 42  1  0
 21 43  1  0
 22 44  1  0
 22 45  1  0
 23 46  1  0
 23 47  1  0
M  END
$$$$
