
     RDKit          3D

 48 50  0  0  0  0  0  0  0  0999 V2000
   -1.6155    4.2400    0.2642 C   0  0  0  0  0  0  0  0  0  0  0  0
   -0.9320    2.8969    0.0855 C   0  0  0  0  0  0  0  0  0  0  0  0
   -1.7656    1.8488    0.6060 O   0  0  0  0  0  0  0  0  0  0  0  0
   -2.6519    1.3108   -0.2613 C   0  0  0  0  0  0  0  0  0  0  0  0
   -2.8697    1.6708   -1.4058 O   0  0  0  0  0  0  0  0  0  0  0  0
   -3.4247    0.2536    0.3909 C   0  0  0  0  0  0  0  0  0  0  0  0
   -4.7550    0.1104    0.0758 C   0  0  0  0  0  0  0  0  0  0  0  0
   -5.5599   -0.8190    0.6348 N   0  0  0  0  0  0  0  0  0  0  0  0
   -5.0018   -1.6358    1.5439 C   0  0  0  0  0  0  0  0  0  0  0  0
   -6.0717   -2.8491    2.2749 S   0  0  0  0  0  0  0  0  0  0  0  0
   -4.9248   -3.6497    3.4222 C   0  0  0  0  0  0  0  0  0  0  0  0
   -3.7122   -1.5967    1.9059 N   0  0  0  0  0  0  0  0  0  0  0  0
   -2.9418   -0.6638    1.2984 C   0  0  0  0  0  0  0  0  0  0  0  0
   -1.6124   -0.6796    1.6683 O   0  0  0  0  0  0  0  0  0  0  0  0
   -0.7821   -1.3909    0.8271 C   0  0  0  0  0  0  0  0  0  0  0  0
   -1.0282   -2.7163    0.4690 C   0  0  0  0  0  0  0  0  0  0  0  0
   -0.1297   -3.3806   -0.3625 C   0  0  0  0  0  0  0  0  0  0  0  0
    1.0114   -2.7220   -0.8282 C   0  0  0  0  0  0  0  0  0  0  0  0
    1.2699   -1.3945   -0.4645 C   0  0  0  0  0  0  0  0  0  0  0  0
    2.4433   -0.7993   -0.9746 N   0  0  0  0  0  0  0  0  0  0  0  0
    2.8109    0.5315   -0.8800 C   0  0  0  0  0  0  0  0  0  0  0  0
    2.1410    1.4465   -0.4163 O   0  0  0  0  0  0  0  0  0  0  0  0
    4.1443    0.8597   -1.4600 C   0  0  0  0  0  0  0  0  0  0  0  0
    5.2230   -0.0317   -1.3818 C   0  0  0  0  0  0  0  0  0  0  0  0
    6.4594    0.3203   -1.9315 C   0  0  0  0  0  0  0  0  0  0  0  0
    6.6192    1.5613   -2.5481 C   0  0  0  0  0  0  0  0  0  0  0  0
    8.1433    1.9896   -3.2183 Cl  0  0  0  0  0  0  0  0  0  0  0  0
    5.5562    2.4595   -2.6158 C   0  0  0  0  0  0  0  0  0  0  0  0
    4.3200    2.1113   -2.0667 C   0  0  0  0  0  0  0  0  0  0  0  0
    0.3757   -0.7427    0.3853 C   0  0  0  0  0  0  0  0  0  0  0  0
   -0.9784    5.0512   -0.0993 H   0  0  0  0  0  0  0  0  0  0  0  0
   -1.8396    4.4173    1.3217 H   0  0  0  0  0  0  0  0  0  0  0  0
   -2.5689    4.2730   -0.2730 H   0  0  0  0  0  0  0  0  0  0  0  0
    0.0000    2.8804    0.6604 H   0  0  0  0  0  0  0  0  0  0  0  0
   -0.6722    2.7144   -0.9638 H   0  0  0  0  0  0  0  0  0  0  0  0
   -5.2397    0.7590   -0.6506 H   0  0  0  0  0  0  0  0  0  0  0  0
   -5.4562   -4.4391    3.9610 H   0  0  0  0  0  0  0  0  0  0  0  0
   -4.5417   -2.9343    4.1550 H   0  0  0  0  0  0  0  0  0  0  0  0
   -4.0905   -4.1069    2.8832 H   0  0  0  0  0  0  0  0  0  0  0  0
   -1.9011   -3.2442    0.8434 H   0  0  0  0  0  0  0  0  0  0  0  0
   -0.3163   -4.4133   -0.6472 H   0  0  0  0  0  0  0  0  0  0  0  0
    1.6910   -3.2640   -1.4808 H   0  0  0  0  0  0  0  0  0  0  0  0
    3.0206   -1.3960   -1.5524 H   0  0  0  0  0  0  0  0  0  0  0  0
    5.1282   -0.9865   -0.8707 H   0  0  0  0  0  0  0  0  0  0  0  0
    7.2965   -0.3701   -1.8650 H   0  0  0  0  0  0  0  0  0  0  0  0
    5.6820    3.4306   -3.0873 H   0  0  0  0  0  0  0  0  0  0  0  0
    3.4928    2.8173   -2.1132 H   0  0  0  0  0  0  0  0  0  0  0  0
    0.5548    0.2718    0.7235 H   0  0  0  0  0  0  0  0  0  0  0  0
  1  2  1  0
  2  3  1  0
  3  4  1  0
  4  5  2  0
  4  6  1  0
  6  7  2  0
  7  8  1  0
  8  9  2  0
  9 10  1  0
 10 11  1  0
  9 12  1  0
 12 13  2  0
 13 14  1  0
 14 15  1  0
 15 16  2  0
 16 17  1  0
 17 18  2  0
 18 19  1  0
 19 20  1  0
 20 21  1  0
 21 22  2  0
 21 23  1  0
 23 24  2  0
 24 25  1  0
 25 26  2  0
 26 27  1  0
 26 28  1  0
 28 29  2  0
 19 30  2  0
 13  6  1  0
 30 15  1  0
 29 23  1  0
  1 31  1  0
  1 32  1  0
  1 33  1  0
  2 34  1  0
  2 35  1  0
  7 36  1  0
 11 37  1  0
 11 38  1  0
 11 39  1  0
 16 40  1  0
 17 41  1  0
 18 42  1  0
 20 43  1  0
 24 44  1  0
 25 45  1  0
 28 46  1  0
 29 47  1  0
 30 48  1  0
M  END
$$$$
