
     RDKit          3D

 51 54  0  0  0  0  0  0  0  0999 V2000
   -2.5051   -4.1305   -2.4961 C   0  0  0  0  0  0  0  0  0  0  0  0
   -1.8607   -3.0485   -3.1588 O   0  0  0  0  0  0  0  0  0  0  0  0
   -1.6492   -1.9134   -2.4256 C   0  0  0  0  0  0  0  0  0  0  0  0
   -1.1304   -0.8374   -3.1557 C   0  0  0  0  0  0  0  0  0  0  0  0
   -0.8578    0.3813   -2.5320 C   0  0  0  0  0  0  0  0  0  0  0  0
   -1.0888    0.5113   -1.1621 C   0  0  0  0  0  0  0  0  0  0  0  0
   -0.8156    1.7959   -0.4851 C   0  0  0  0  0  0  0  0  0  0  0  0
   -1.8276    2.5683   -0.2498 N   0  0  0  0  0  0  0  0  0  0  0  0
   -1.6051    3.7946    0.3833 C   0  0  0  0  0  0  0  0  0  0  0  0
   -2.6905    4.6463    0.6032 C   0  0  0  0  0  0  0  0  0  0  0  0
   -2.5123    5.8793    1.2368 C   0  0  0  0  0  0  0  0  0  0  0  0
   -1.2418    6.2704    1.6584 C   0  0  0  0  0  0  0  0  0  0  0  0
   -0.1511    5.4286    1.4448 C   0  0  0  0  0  0  0  0  0  0  0  0
   -0.3425    4.1971    0.8065 C   0  0  0  0  0  0  0  0  0  0  0  0
    0.7827    3.2779    0.5710 C   0  0  0  0  0  0  0  0  0  0  0  0
    1.8960    3.5594    1.0091 O   0  0  0  0  0  0  0  0  0  0  0  0
    0.4950    2.1056   -0.1280 N   0  0  0  0  0  0  0  0  0  0  0  0
    1.6185    1.1804   -0.3198 C   0  0  0  0  0  0  0  0  0  0  0  0
    1.8468    0.2827    0.8990 C   0  0  0  0  0  0  0  0  0  0  0  0
    2.8314   -0.7100    0.5722 O   0  0  0  0  0  0  0  0  0  0  0  0
    2.3002   -1.9695    0.6532 C   0  0  0  0  0  0  0  0  0  0  0  0
    1.7743   -2.5408   -0.5066 C   0  0  0  0  0  0  0  0  0  0  0  0
    1.2377   -3.8260   -0.4631 C   0  0  0  0  0  0  0  0  0  0  0  0
    1.2367   -4.5379    0.7357 C   0  0  0  0  0  0  0  0  0  0  0  0
    1.7865   -3.9712    1.8889 C   0  0  0  0  0  0  0  0  0  0  0  0
    2.3422   -2.6844    1.8574 C   0  0  0  0  0  0  0  0  0  0  0  0
    2.9303   -2.0872    3.1023 C   0  0  0  0  0  0  0  0  0  0  0  0
   -1.6243   -0.5464   -0.4254 C   0  0  0  0  0  0  0  0  0  0  0  0
   -1.8993   -1.7621   -1.0593 C   0  0  0  0  0  0  0  0  0  0  0  0
   -2.6459   -4.9330   -3.2267 H   0  0  0  0  0  0  0  0  0  0  0  0
   -1.8823   -4.5238   -1.6857 H   0  0  0  0  0  0  0  0  0  0  0  0
   -3.4945   -3.8373   -2.1289 H   0  0  0  0  0  0  0  0  0  0  0  0
   -0.9459   -0.9510   -4.2213 H   0  0  0  0  0  0  0  0  0  0  0  0
   -0.4731    1.2159   -3.1112 H   0  0  0  0  0  0  0  0  0  0  0  0
   -3.6821    4.3413    0.2784 H   0  0  0  0  0  0  0  0  0  0  0  0
   -3.3667    6.5312    1.4016 H   0  0  0  0  0  0  0  0  0  0  0  0
   -1.1018    7.2286    2.1528 H   0  0  0  0  0  0  0  0  0  0  0  0
    0.8412    5.7291    1.7732 H   0  0  0  0  0  0  0  0  0  0  0  0
    1.4678    0.5681   -1.2121 H   0  0  0  0  0  0  0  0  0  0  0  0
    2.5335    1.7529   -0.5195 H   0  0  0  0  0  0  0  0  0  0  0  0
    0.9011   -0.1553    1.2439 H   0  0  0  0  0  0  0  0  0  0  0  0
    2.2416    0.8739    1.7324 H   0  0  0  0  0  0  0  0  0  0  0  0
    1.7808   -1.9897   -1.4427 H   0  0  0  0  0  0  0  0  0  0  0  0
    0.8229   -4.2694   -1.3649 H   0  0  0  0  0  0  0  0  0  0  0  0
    0.8174   -5.5400    0.7721 H   0  0  0  0  0  0  0  0  0  0  0  0
    1.7872   -4.5464    2.8126 H   0  0  0  0  0  0  0  0  0  0  0  0
    3.8692   -1.5697    2.8796 H   0  0  0  0  0  0  0  0  0  0  0  0
    3.1588   -2.8608    3.8433 H   0  0  0  0  0  0  0  0  0  0  0  0
    2.2253   -1.3794    3.5490 H   0  0  0  0  0  0  0  0  0  0  0  0
   -1.8292   -0.4287    0.6356 H   0  0  0  0  0  0  0  0  0  0  0  0
   -2.3016   -2.5700   -0.4572 H   0  0  0  0  0  0  0  0  0  0  0  0
  1  2  1  0
  2  3  1  0
  3  4  2  0
  4  5  1  0
  5  6  2  0
  6  7  1  0
  7  8  2  0
  8  9  1  0
  9 10  2  0
 10 11  1  0
 11 12  2  0
 12 13  1  0
 13 14  2  0
 14 15  1  0
 15 16  2  0
 15 17  1  0
 17 18  1  0
 18 19  1  0
 19 20  1  0
 20 21  1  0
 21 22  2  0
 22 23  1  0
 23 24  2  0
 24 25  1  0
 25 26  2  0
 26 27  1  0
  6 28  1  0
 28 29  2  0
 29  3  1  0
 17  7  1  0
 26 21  1  0
 14  9  1  0
  1 30  1  0
  1 31  1  0
  1 32  1  0
  4 33  1  0
  5 34  1  0
 10 35  1  0
 11 36  1  0
 12 37  1  0
 13 38  1  0
 18 39  1  0
 18 40  1  0
 19 41  1  0
 19 42  1  0
 22 43  1  0
 23 44  1  0
 24 45  1  0
 25 46  1  0
 27 47  1  0
 27 48  1  0
 27 49  1  0
 28 50  1  0
 29 51  1  0
M  END
$$$$
