
     RDKit          3D

 43 44  0  0  0  0  0  0  0  0999 V2000
   -4.7331    3.7325   -0.0581 C   0  0  0  0  0  0  0  0  0  0  0  0
   -4.9524    2.2337   -0.1245 C   0  0  0  0  0  0  0  0  0  0  0  0
   -3.6730    1.5939   -0.1065 O   0  0  0  0  0  0  0  0  0  0  0  0
   -3.7165    0.2288   -0.1690 C   0  0  0  0  0  0  0  0  0  0  0  0
   -4.7585   -0.4158   -0.2215 O   0  0  0  0  0  0  0  0  0  0  0  0
   -2.3826   -0.3956   -0.1663 C   0  0  0  0  0  0  0  0  0  0  0  0
   -1.2657    0.3425   -0.2442 N   0  0  0  0  0  0  0  0  0  0  0  0
   -0.2269   -0.5279   -0.2314 N   0  0  0  0  0  0  0  0  0  0  0  0
    1.0992    0.0025   -0.1391 C   0  0  0  0  0  0  0  0  0  0  0  0
    1.3018    1.3676   -0.3988 C   0  0  0  0  0  0  0  0  0  0  0  0
    2.5808    1.9269   -0.3159 C   0  0  0  0  0  0  0  0  0  0  0  0
    3.6796    1.1472    0.0435 C   0  0  0  0  0  0  0  0  0  0  0  0
    4.8659    1.8219    0.0803 O   0  0  0  0  0  0  0  0  0  0  0  0
    6.0335    1.1465    0.5439 C   0  0  0  0  0  0  0  0  0  0  0  0
    6.7383    0.4372   -0.5993 C   0  0  0  0  0  0  0  0  0  0  0  0
    3.4825   -0.2032    0.3222 C   0  0  0  0  0  0  0  0  0  0  0  0
    2.2009   -0.7718    0.2386 C   0  0  0  0  0  0  0  0  0  0  0  0
   -0.6827   -1.8393   -0.3027 C   0  0  0  0  0  0  0  0  0  0  0  0
    0.1755   -3.0343   -0.5328 C   0  0  0  0  0  0  0  0  0  0  0  0
   -2.0666   -1.7816   -0.1483 C   0  0  0  0  0  0  0  0  0  0  0  0
   -2.9632   -2.9318   -0.0603 C   0  0  0  0  0  0  0  0  0  0  0  0
   -4.0436   -2.9452    0.9919 C   0  0  0  0  0  0  0  0  0  0  0  0
   -2.8163   -3.9105   -0.7927 O   0  0  0  0  0  0  0  0  0  0  0  0
   -4.1867    4.0022    0.8517 H   0  0  0  0  0  0  0  0  0  0  0  0
   -5.6869    4.2673   -0.0691 H   0  0  0  0  0  0  0  0  0  0  0  0
   -4.1277    4.0714   -0.9053 H   0  0  0  0  0  0  0  0  0  0  0  0
   -5.5413    1.9077    0.7401 H   0  0  0  0  0  0  0  0  0  0  0  0
   -5.4814    1.9782   -1.0494 H   0  0  0  0  0  0  0  0  0  0  0  0
    0.4739    2.0155   -0.6831 H   0  0  0  0  0  0  0  0  0  0  0  0
    2.7174    2.9839   -0.5327 H   0  0  0  0  0  0  0  0  0  0  0  0
    5.8260    0.4788    1.3873 H   0  0  0  0  0  0  0  0  0  0  0  0
    6.7036    1.9212    0.9340 H   0  0  0  0  0  0  0  0  0  0  0  0
    7.6719   -0.0168   -0.2550 H   0  0  0  0  0  0  0  0  0  0  0  0
    6.1100   -0.3461   -1.0334 H   0  0  0  0  0  0  0  0  0  0  0  0
    6.9666    1.1429   -1.4049 H   0  0  0  0  0  0  0  0  0  0  0  0
    4.3025   -0.8513    0.6126 H   0  0  0  0  0  0  0  0  0  0  0  0
    2.1108   -1.8136    0.5198 H   0  0  0  0  0  0  0  0  0  0  0  0
    0.5615   -3.4200    0.4156 H   0  0  0  0  0  0  0  0  0  0  0  0
    1.0072   -2.8104   -1.2075 H   0  0  0  0  0  0  0  0  0  0  0  0
   -0.3813   -3.8443   -1.0114 H   0  0  0  0  0  0  0  0  0  0  0  0
   -5.0235   -2.8750    0.5140 H   0  0  0  0  0  0  0  0  0  0  0  0
   -3.9813   -3.8863    1.5469 H   0  0  0  0  0  0  0  0  0  0  0  0
   -3.9182   -2.1294    1.7082 H   0  0  0  0  0  0  0  0  0  0  0  0
  1  2  1  0
  2  3  1  0
  3  4  1  0
  4  5  2  0
  4  6  1  0
  6  7  2  0
  7  8  1  0
  8  9  1  0
  9 10  2  0
 10 11  1  0
 11 12  2  0
 12 13  1  0
 13 14  1  0
 14 15  1  0
 12 16  1  0
 16 17  2  0
  8 18  1  0
 18 19  1  0
 18 20  2  0
 20 21  1  0
 21 22  1  0
 21 23  2  0
 20  6  1  0
 17  9  1  0
  1 24  1  0
  1 25  1  0
  1 26  1  0
  2 27  1  0
  2 28  1  0
 10 29  1  0
 11 30  1  0
 14 31  1  0
 14 32  1  0
 15 33  1  0
 15 34  1  0
 15 35  1  0
 16 36  1  0
 17 37  1  0
 19 38  1  0
 19 39  1  0
 19 40  1  0
 22 41  1  0
 22 42  1  0
 22 43  1  0
M  END
$$$$
