
     RDKit          3D

 58 61  0  0  0  0  0  0  0  0999 V2000
    8.3959    2.8044    0.0187 C   0  0  0  0  0  0  0  0  0  0  0  0
    7.4323    1.7216   -0.3671 C   0  0  0  0  0  0  0  0  0  0  0  0
    6.3650    1.9976   -1.2286 C   0  0  0  0  0  0  0  0  0  0  0  0
    5.4506    0.9974   -1.5655 C   0  0  0  0  0  0  0  0  0  0  0  0
    5.5837   -0.2960   -1.0429 C   0  0  0  0  0  0  0  0  0  0  0  0
    4.5777   -1.3617   -1.3920 C   0  0  0  0  0  0  0  0  0  0  0  0
    3.3944   -1.2324   -0.5708 N   0  0  0  0  0  0  0  0  0  0  0  0
    2.2499   -0.6235   -1.0397 C   0  0  0  0  0  0  0  0  0  0  0  0
    2.1155   -0.2547   -2.2014 O   0  0  0  0  0  0  0  0  0  0  0  0
    1.1681   -0.4516    0.0303 C   0  0  0  0  0  0  0  0  0  0  0  0
    0.6424   -1.8148    0.5231 C   0  0  0  0  0  0  0  0  0  0  0  0
   -0.6861   -2.1906   -0.1294 C   0  0  0  0  0  0  0  0  0  0  0  0
   -1.7993   -1.1641    0.1622 C   0  0  0  0  0  0  0  0  0  0  0  0
   -2.6426   -1.5962    1.3769 C   0  0  0  0  0  0  0  0  0  0  0  0
   -3.7780   -0.7097    1.5867 N   0  0  0  0  0  0  0  0  0  0  0  0
   -4.9451   -0.6393    0.8377 C   0  0  0  0  0  0  0  0  0  0  0  0
   -5.2629   -1.6787    0.0039 N   0  0  0  0  0  0  0  0  0  0  0  0
   -6.3699   -1.7588   -0.7976 C   0  0  0  0  0  0  0  0  0  0  0  0
   -6.5591   -3.1409   -1.7288 S   0  0  0  0  0  0  0  0  0  0  0  0
   -7.2533   -0.7180   -0.7988 N   0  0  0  0  0  0  0  0  0  0  0  0
   -6.9961    0.2830   -0.0199 C   0  0  0  0  0  0  0  0  0  0  0  0
   -7.9469    1.4305   -0.0067 C   0  0  0  0  0  0  0  0  0  0  0  0
   -7.7362    2.4887    0.7864 C   0  0  0  0  0  0  0  0  0  0  0  0
   -6.5962    2.5719    1.6649 C   0  0  0  0  0  0  0  0  0  0  0  0
   -5.6824    1.5922    1.7173 C   0  0  0  0  0  0  0  0  0  0  0  0
   -5.8051    0.4042    0.8877 C   0  0  0  0  0  0  0  0  0  0  0  0
   -1.2368    0.2593    0.3501 C   0  0  0  0  0  0  0  0  0  0  0  0
    0.0371    0.4699   -0.4595 C   0  0  0  0  0  0  0  0  0  0  0  0
    6.6395   -0.5646   -0.1623 C   0  0  0  0  0  0  0  0  0  0  0  0
    7.5543    0.4367    0.1738 C   0  0  0  0  0  0  0  0  0  0  0  0
    8.5191    3.5260   -0.7957 H   0  0  0  0  0  0  0  0  0  0  0  0
    8.0315    3.3308    0.9061 H   0  0  0  0  0  0  0  0  0  0  0  0
    9.3853    2.3879    0.2353 H   0  0  0  0  0  0  0  0  0  0  0  0
    6.2370    2.9942   -1.6451 H   0  0  0  0  0  0  0  0  0  0  0  0
    4.6255    1.2312   -2.2374 H   0  0  0  0  0  0  0  0  0  0  0  0
    4.3252   -1.3135   -2.4571 H   0  0  0  0  0  0  0  0  0  0  0  0
    4.9951   -2.3568   -1.2026 H   0  0  0  0  0  0  0  0  0  0  0  0
    3.5182   -1.3272    0.4274 H   0  0  0  0  0  0  0  0  0  0  0  0
    1.6585    0.0434    0.8806 H   0  0  0  0  0  0  0  0  0  0  0  0
    0.4989   -1.7684    1.6103 H   0  0  0  0  0  0  0  0  0  0  0  0
    1.3662   -2.6176    0.3441 H   0  0  0  0  0  0  0  0  0  0  0  0
   -0.5348   -2.2525   -1.2154 H   0  0  0  0  0  0  0  0  0  0  0  0
   -0.9883   -3.1947    0.1901 H   0  0  0  0  0  0  0  0  0  0  0  0
   -2.4548   -1.1534   -0.7193 H   0  0  0  0  0  0  0  0  0  0  0  0
   -2.9883   -2.6299    1.2633 H   0  0  0  0  0  0  0  0  0  0  0  0
   -2.0247   -1.5832    2.2828 H   0  0  0  0  0  0  0  0  0  0  0  0
   -3.5250    0.1612    2.0413 H   0  0  0  0  0  0  0  0  0  0  0  0
   -4.6520   -2.4794   -0.0285 H   0  0  0  0  0  0  0  0  0  0  0  0
   -8.8050    1.3626   -0.6648 H   0  0  0  0  0  0  0  0  0  0  0  0
   -8.4363    3.3191    0.7871 H   0  0  0  0  0  0  0  0  0  0  0  0
   -6.5021    3.4545    2.2912 H   0  0  0  0  0  0  0  0  0  0  0  0
   -4.8477    1.6885    2.4004 H   0  0  0  0  0  0  0  0  0  0  0  0
   -1.0203    0.4542    1.4083 H   0  0  0  0  0  0  0  0  0  0  0  0
   -1.9921    0.9940    0.0462 H   0  0  0  0  0  0  0  0  0  0  0  0
   -0.1871    0.3018   -1.5202 H   0  0  0  0  0  0  0  0  0  0  0  0
    0.3620    1.5144   -0.3783 H   0  0  0  0  0  0  0  0  0  0  0  0
    6.7594   -1.5559    0.2685 H   0  0  0  0  0  0  0  0  0  0  0  0
    8.3660    0.2067    0.8605 H   0  0  0  0  0  0  0  0  0  0  0  0
  1  2  1  0
  2  3  2  0
  3  4  1  0
  4  5  2  0
  5  6  1  0
  6  7  1  0
  7  8  1  0
  8  9  2  0
  8 10  1  0
 10 11  1  0
 11 12  1  0
 12 13  1  0
 13 14  1  0
 14 15  1  0
 15 16  1  0
 16 17  1  0
 17 18  1  0
 18 19  2  0
 18 20  1  0
 20 21  2  0
 21 22  1  0
 22 23  2  0
 23 24  1  0
 24 25  2  0
 25 26  1  0
 13 27  1  0
 27 28  1  0
  5 29  1  0
 29 30  2  0
 30  2  1  0
 28 10  1  0
 26 16  2  0
 26 21  1  0
  1 31  1  0
  1 32  1  0
  1 33  1  0
  3 34  1  0
  4 35  1  0
  6 36  1  0
  6 37  1  0
  7 38  1  0
 10 39  1  0
 11 40  1  0
 11 41  1  0
 12 42  1  0
 12 43  1  0
 13 44  1  0
 14 45  1  0
 14 46  1  0
 15 47  1  0
 17 48  1  0
 22 49  1  0
 23 50  1  0
 24 51  1  0
 25 52  1  0
 27 53  1  0
 27 54  1  0
 28 55  1  0
 28 56  1  0
 29 57  1  0
 30 58  1  0
M  END
$$$$
