
     RDKit          3D

 52 55  0  0  0  0  0  0  0  0999 V2000
   -3.5821   -1.8866    0.9381 C   0  0  0  0  0  0  0  0  0  0  0  0
   -3.2845   -0.5131    1.1800 O   0  0  0  0  0  0  0  0  0  0  0  0
   -4.2812    0.1632    1.8588 C   0  0  0  0  0  0  0  0  0  0  0  0
   -5.3868   -0.5383    2.2216 N   0  0  0  0  0  0  0  0  0  0  0  0
   -6.3619    0.1321    2.8716 C   0  0  0  0  0  0  0  0  0  0  0  0
   -6.2922    1.4774    3.1798 C   0  0  0  0  0  0  0  0  0  0  0  0
   -5.1509    2.1781    2.8006 C   0  0  0  0  0  0  0  0  0  0  0  0
   -4.1098    1.5220    2.1276 C   0  0  0  0  0  0  0  0  0  0  0  0
   -2.9177    2.3311    1.7443 C   0  0  0  0  0  0  0  0  0  0  0  0
   -2.9415    3.5521    1.8741 O   0  0  0  0  0  0  0  0  0  0  0  0
   -1.8178    1.6678    1.2567 N   0  0  0  0  0  0  0  0  0  0  0  0
   -0.6612    2.3686    0.7356 C   0  0  0  0  0  0  0  0  0  0  0  0
   -0.9092    2.8516   -0.7122 C   0  0  0  0  0  0  0  0  0  0  0  0
   -0.8515    1.6917   -1.7245 C   0  0  0  0  0  0  0  0  0  0  0  0
    0.5196    0.9857   -1.7312 C   0  0  0  0  0  0  0  0  0  0  0  0
    1.0176    0.7838   -0.3408 C   0  0  0  0  0  0  0  0  0  0  0  0
    0.4798    1.4110    0.7704 C   0  0  0  0  0  0  0  0  0  0  0  0
    1.2043    0.9074    1.8529 C   0  0  0  0  0  0  0  0  0  0  0  0
    2.1235    0.0229    1.4761 N   0  0  0  0  0  0  0  0  0  0  0  0
    2.0566   -0.0229    0.1105 N   0  0  0  0  0  0  0  0  0  0  0  0
    2.9982   -0.8362   -0.5975 C   0  0  0  0  0  0  0  0  0  0  0  0
    3.1575   -0.7794   -1.9864 C   0  0  0  0  0  0  0  0  0  0  0  0
    4.1029   -1.5901   -2.6369 C   0  0  0  0  0  0  0  0  0  0  0  0
    4.2449   -1.5456   -4.1313 C   0  0  0  0  0  0  0  0  0  0  0  0
    4.8793   -2.4812   -1.8883 C   0  0  0  0  0  0  0  0  0  0  0  0
    4.7395   -2.5550   -0.4999 C   0  0  0  0  0  0  0  0  0  0  0  0
    5.6085   -3.4821    0.2973 C   0  0  0  0  0  0  0  0  0  0  0  0
    3.8123   -1.7191    0.1372 C   0  0  0  0  0  0  0  0  0  0  0  0
   -2.7371   -2.3170    0.3919 H   0  0  0  0  0  0  0  0  0  0  0  0
   -4.4730   -1.9944    0.3097 H   0  0  0  0  0  0  0  0  0  0  0  0
   -3.6880   -2.4412    1.8771 H   0  0  0  0  0  0  0  0  0  0  0  0
   -7.2305   -0.4614    3.1451 H   0  0  0  0  0  0  0  0  0  0  0  0
   -7.1041    1.9723    3.7018 H   0  0  0  0  0  0  0  0  0  0  0  0
   -5.0730    3.2388    3.0321 H   0  0  0  0  0  0  0  0  0  0  0  0
   -1.8920    0.6715    1.0738 H   0  0  0  0  0  0  0  0  0  0  0  0
   -0.4568    3.2351    1.3748 H   0  0  0  0  0  0  0  0  0  0  0  0
   -0.1400    3.5865   -0.9841 H   0  0  0  0  0  0  0  0  0  0  0  0
   -1.8779    3.3588   -0.7910 H   0  0  0  0  0  0  0  0  0  0  0  0
   -1.0695    2.0662   -2.7311 H   0  0  0  0  0  0  0  0  0  0  0  0
   -1.6367    0.9631   -1.4842 H   0  0  0  0  0  0  0  0  0  0  0  0
    1.2288    1.6164   -2.2794 H   0  0  0  0  0  0  0  0  0  0  0  0
    0.4116    0.0320   -2.2573 H   0  0  0  0  0  0  0  0  0  0  0  0
    1.0885    1.1300    2.9063 H   0  0  0  0  0  0  0  0  0  0  0  0
    2.5907   -0.0936   -2.6001 H   0  0  0  0  0  0  0  0  0  0  0  0
    3.9085   -0.5839   -4.5323 H   0  0  0  0  0  0  0  0  0  0  0  0
    3.6482   -2.3431   -4.5853 H   0  0  0  0  0  0  0  0  0  0  0  0
    5.2921   -1.6715   -4.4261 H   0  0  0  0  0  0  0  0  0  0  0  0
    5.6043   -3.1196   -2.3902 H   0  0  0  0  0  0  0  0  0  0  0  0
    5.1846   -3.6704    1.2898 H   0  0  0  0  0  0  0  0  0  0  0  0
    6.6047   -3.0472    0.4229 H   0  0  0  0  0  0  0  0  0  0  0  0
    5.7004   -4.4496   -0.2068 H   0  0  0  0  0  0  0  0  0  0  0  0
    3.7199   -1.7746    1.2214 H   0  0  0  0  0  0  0  0  0  0  0  0
  1  2  1  0
  2  3  1  0
  3  4  2  0
  4  5  1  0
  5  6  2  0
  6  7  1  0
  7  8  2  0
  8  9  1  0
  9 10  2  0
  9 11  1  0
 11 12  1  0
 12 13  1  0
 13 14  1  0
 14 15  1  0
 15 16  1  0
 16 17  2  0
 17 18  1  0
 18 19  2  0
 19 20  1  0
 20 21  1  0
 21 22  2  0
 22 23  1  0
 23 24  1  0
 23 25  2  0
 25 26  1  0
 26 27  1  0
 26 28  2  0
  8  3  1  0
 17 12  1  0
 28 21  1  0
 20 16  1  0
  1 29  1  0
  1 30  1  0
  1 31  1  0
  5 32  1  0
  6 33  1  0
  7 34  1  0
 11 35  1  0
 12 36  1  0
 13 37  1  0
 13 38  1  0
 14 39  1  0
 14 40  1  0
 15 41  1  0
 15 42  1  0
 18 43  1  0
 22 44  1  0
 24 45  1  0
 24 46  1  0
 24 47  1  0
 25 48  1  0
 27 49  1  0
 27 50  1  0
 27 51  1  0
 28 52  1  0
M  END
$$$$
