
     RDKit          3D

 39 39  0  0  0  0  0  0  0  0999 V2000
   -2.9919   -2.3692    1.5732 C   0  0  0  0  0  0  0  0  0  0  0  0
   -2.1462   -1.6857    0.6477 O   0  0  0  0  0  0  0  0  0  0  0  0
   -2.7697   -0.6739   -0.0311 C   0  0  0  0  0  0  0  0  0  0  0  0
   -3.9589   -0.4040    0.0802 O   0  0  0  0  0  0  0  0  0  0  0  0
   -1.8083    0.0099   -1.0236 C   0  0  0  0  0  0  0  0  0  0  0  0
   -2.0635   -0.4961   -2.4516 C   0  0  0  0  0  0  0  0  0  0  0  0
   -2.7486    0.5264   -3.3625 C   0  0  0  0  0  0  0  0  0  0  0  0
   -4.5519    0.6113   -3.1398 S   0  0  0  0  0  0  0  0  0  0  0  0
   -4.6711    2.1065   -2.1259 C   0  0  0  0  0  0  0  0  0  0  0  0
   -0.4093   -0.2634   -0.6591 N   0  0  0  0  0  0  0  0  0  0  0  0
    0.2156    0.5357    0.2625 C   0  0  0  0  0  0  0  0  0  0  0  0
   -0.2654    1.5583    0.7290 O   0  0  0  0  0  0  0  0  0  0  0  0
    1.4382    0.0373    0.6012 N   0  0  0  0  0  0  0  0  0  0  0  0
    2.3178    0.7932    1.4672 C   0  0  0  0  0  0  0  0  0  0  0  0
    3.6723    0.1317    1.5985 C   0  0  0  0  0  0  0  0  0  0  0  0
    4.5064    0.4646    2.6633 C   0  0  0  0  0  0  0  0  0  0  0  0
    5.7613   -0.1325    2.7453 C   0  0  0  0  0  0  0  0  0  0  0  0
    6.1531   -1.0350    1.7640 C   0  0  0  0  0  0  0  0  0  0  0  0
    5.2709   -1.3045    0.7319 C   0  0  0  0  0  0  0  0  0  0  0  0
    4.0468   -0.7425    0.6220 N   0  0  0  0  0  0  0  0  0  0  0  0
   -3.8085   -2.8715    1.0453 H   0  0  0  0  0  0  0  0  0  0  0  0
   -2.3917   -3.1274    2.0836 H   0  0  0  0  0  0  0  0  0  0  0  0
   -3.3823   -1.6747    2.3237 H   0  0  0  0  0  0  0  0  0  0  0  0
   -1.9663    1.0903   -0.9431 H   0  0  0  0  0  0  0  0  0  0  0  0
   -2.6199   -1.4423   -2.4494 H   0  0  0  0  0  0  0  0  0  0  0  0
   -1.0984   -0.7245   -2.9253 H   0  0  0  0  0  0  0  0  0  0  0  0
   -2.5943    0.2102   -4.4004 H   0  0  0  0  0  0  0  0  0  0  0  0
   -2.2942    1.5184   -3.2700 H   0  0  0  0  0  0  0  0  0  0  0  0
   -4.1391    1.9880   -1.1807 H   0  0  0  0  0  0  0  0  0  0  0  0
   -4.2670    2.9648   -2.6692 H   0  0  0  0  0  0  0  0  0  0  0  0
   -5.7236    2.3035   -1.9052 H   0  0  0  0  0  0  0  0  0  0  0  0
   -0.1883   -1.2422   -0.5252 H   0  0  0  0  0  0  0  0  0  0  0  0
    1.9235   -0.5100   -0.0990 H   0  0  0  0  0  0  0  0  0  0  0  0
    1.8310    0.8788    2.4452 H   0  0  0  0  0  0  0  0  0  0  0  0
    2.4446    1.7980    1.0485 H   0  0  0  0  0  0  0  0  0  0  0  0
    4.1888    1.1759    3.4194 H   0  0  0  0  0  0  0  0  0  0  0  0
    6.4292    0.1069    3.5681 H   0  0  0  0  0  0  0  0  0  0  0  0
    7.1245   -1.5152    1.8011 H   0  0  0  0  0  0  0  0  0  0  0  0
    5.5344   -2.0002   -0.0598 H   0  0  0  0  0  0  0  0  0  0  0  0
  1  2  1  0
  2  3  1  0
  3  4  2  0
  3  5  1  0
  5  6  1  0
  6  7  1  0
  7  8  1  0
  8  9  1  0
  5 10  1  0
 10 11  1  0
 11 12  2  0
 11 13  1  0
 13 14  1  0
 14 15  1  0
 15 16  2  0
 16 17  1  0
 17 18  2  0
 18 19  1  0
 19 20  2  0
 20 15  1  0
  1 21  1  0
  1 22  1  0
  1 23  1  0
  5 24  1  0
  6 25  1  0
  6 26  1  0
  7 27  1  0
  7 28  1  0
  9 29  1  0
  9 30  1  0
  9 31  1  0
 10 32  1  0
 13 33  1  0
 14 34  1  0
 14 35  1  0
 16 36  1  0
 17 37  1  0
 18 38  1  0
 19 39  1  0
M  END
$$$$
