
     RDKit          3D

 45 47  0  0  0  0  0  0  0  0999 V2000
    1.2809    2.8427   -1.5879 O   0  0  0  0  0  0  0  0  0  0  0  0
    1.2384    2.0669   -0.6329 C   0  0  0  0  0  0  0  0  0  0  0  0
    2.4136    1.8438    0.3191 C   0  0  0  0  0  0  0  0  0  0  0  0
    3.7970    2.9995    0.0524 S   0  0  0  0  0  0  0  0  0  0  0  0
    4.6897    2.1015   -1.2015 C   0  0  0  0  0  0  0  0  0  0  0  0
    4.3462    2.2250   -2.5510 C   0  0  0  0  0  0  0  0  0  0  0  0
    5.0538    1.5177   -3.5265 C   0  0  0  0  0  0  0  0  0  0  0  0
    6.1119    0.6927   -3.1502 C   0  0  0  0  0  0  0  0  0  0  0  0
    7.0692   -0.2663   -4.4674 Br  0  0  0  0  0  0  0  0  0  0  0  0
    6.4713    0.5720   -1.8091 C   0  0  0  0  0  0  0  0  0  0  0  0
    5.7610    1.2795   -0.8356 C   0  0  0  0  0  0  0  0  0  0  0  0
    0.0857    1.3301   -0.3627 N   0  0  0  0  0  0  0  0  0  0  0  0
   -0.0578    0.3732    0.7381 C   0  0  0  0  0  0  0  0  0  0  0  0
   -1.2486   -0.5763    0.5434 C   0  0  0  0  0  0  0  0  0  0  0  0
   -2.5343    0.1775    0.4046 N   0  0  0  0  0  0  0  0  0  0  0  0
   -3.8702   -0.7556   -0.1142 S   0  0  0  0  0  6  0  0  0  0  0  0
   -5.0526    0.0752   -0.0373 O   0  0  0  0  0  0  0  0  0  0  0  0
   -3.4813   -1.3975   -1.3527 O   0  0  0  0  0  0  0  0  0  0  0  0
   -4.0046   -1.9906    1.1517 C   0  0  0  0  0  0  0  0  0  0  0  0
   -3.7374   -3.3304    0.8573 C   0  0  0  0  0  0  0  0  0  0  0  0
   -3.8456   -4.2863    1.8673 C   0  0  0  0  0  0  0  0  0  0  0  0
   -4.2219   -3.9024    3.1566 C   0  0  0  0  0  0  0  0  0  0  0  0
   -4.4961   -2.5632    3.4420 C   0  0  0  0  0  0  0  0  0  0  0  0
   -4.3914   -1.6013    2.4381 C   0  0  0  0  0  0  0  0  0  0  0  0
   -2.3946    1.4783   -0.3409 C   0  0  0  0  0  0  0  0  0  0  0  0
   -1.1131    1.5501   -1.1790 C   0  0  0  0  0  0  0  0  0  0  0  0
    2.0642    2.0081    1.3431 H   0  0  0  0  0  0  0  0  0  0  0  0
    2.7701    0.8137    0.2281 H   0  0  0  0  0  0  0  0  0  0  0  0
    3.5271    2.8744   -2.8554 H   0  0  0  0  0  0  0  0  0  0  0  0
    4.7720    1.6224   -4.5710 H   0  0  0  0  0  0  0  0  0  0  0  0
    7.3015   -0.0633   -1.5118 H   0  0  0  0  0  0  0  0  0  0  0  0
    6.0547    1.1880    0.2074 H   0  0  0  0  0  0  0  0  0  0  0  0
    0.8625   -0.2093    0.8395 H   0  0  0  0  0  0  0  0  0  0  0  0
   -0.1888    0.9595    1.6554 H   0  0  0  0  0  0  0  0  0  0  0  0
   -1.3116   -1.2343    1.4158 H   0  0  0  0  0  0  0  0  0  0  0  0
   -1.0749   -1.1926   -0.3461 H   0  0  0  0  0  0  0  0  0  0  0  0
   -3.4526   -3.6364   -0.1465 H   0  0  0  0  0  0  0  0  0  0  0  0
   -3.6435   -5.3329    1.6502 H   0  0  0  0  0  0  0  0  0  0  0  0
   -4.3101   -4.6517    3.9402 H   0  0  0  0  0  0  0  0  0  0  0  0
   -4.7973   -2.2720    4.4457 H   0  0  0  0  0  0  0  0  0  0  0  0
   -4.6131   -0.5586    2.6565 H   0  0  0  0  0  0  0  0  0  0  0  0
   -3.2556    1.6610   -0.9921 H   0  0  0  0  0  0  0  0  0  0  0  0
   -2.3928    2.2761    0.4119 H   0  0  0  0  0  0  0  0  0  0  0  0
   -1.0618    2.5192   -1.6855 H   0  0  0  0  0  0  0  0  0  0  0  0
   -1.1192    0.7730   -1.9524 H   0  0  0  0  0  0  0  0  0  0  0  0
  1  2  2  0
  2  3  1  0
  3  4  1  0
  4  5  1  0
  5  6  2  0
  6  7  1  0
  7  8  2  0
  8  9  1  0
  8 10  1  0
 10 11  2  0
  2 12  1  0
 12 13  1  0
 13 14  1  0
 14 15  1  0
 15 16  1  0
 16 17  2  0
 16 18  2  0
 16 19  1  0
 19 20  2  0
 20 21  1  0
 21 22  2  0
 22 23  1  0
 23 24  2  0
 15 25  1  0
 25 26  1  0
 11  5  1  0
 26 12  1  0
 24 19  1  0
  3 27  1  0
  3 28  1  0
  6 29  1  0
  7 30  1  0
 10 31  1  0
 11 32  1  0
 13 33  1  0
 13 34  1  0
 14 35  1  0
 14 36  1  0
 20 37  1  0
 21 38  1  0
 22 39  1  0
 23 40  1  0
 24 41  1  0
 25 42  1  0
 25 43  1  0
 26 44  1  0
 26 45  1  0
M  END
$$$$
