
     RDKit          3D

 51 55  0  0  0  0  0  0  0  0999 V2000
    2.0103   -1.9493    1.0950 C   0  0  0  0  0  0  0  0  0  0  0  0
    1.5185   -0.5213    0.8817 C   0  0  0  0  0  0  0  0  0  0  0  0
    2.0613    0.1002   -0.3431 N   0  0  0  0  0  0  0  0  0  0  0  0
    1.6127   -0.2545   -1.6258 C   0  0  0  0  0  0  0  0  0  0  0  0
    0.3590   -0.2208   -2.1184 C   0  0  0  0  0  0  0  0  0  0  0  0
   -0.8301    0.2831   -1.4196 C   0  0  0  0  0  0  0  0  0  0  0  0
   -0.8022    1.5954   -0.9384 C   0  0  0  0  0  0  0  0  0  0  0  0
   -1.9010    2.1285   -0.2940 C   0  0  0  0  0  0  0  0  0  0  0  0
   -3.0357    1.3478   -0.1259 C   0  0  0  0  0  0  0  0  0  0  0  0
   -4.1476    1.8847    0.5424 C   0  0  0  0  0  0  0  0  0  0  0  0
   -5.3012    1.1248    0.7499 C   0  0  0  0  0  0  0  0  0  0  0  0
   -6.4949    1.7231    1.4381 C   0  0  0  0  0  0  0  0  0  0  0  0
   -5.3445   -0.1784    0.2607 C   0  0  0  0  0  0  0  0  0  0  0  0
   -4.2431   -0.7248   -0.4100 C   0  0  0  0  0  0  0  0  0  0  0  0
   -3.0654    0.0178   -0.6269 C   0  0  0  0  0  0  0  0  0  0  0  0
   -1.9599   -0.4804   -1.2850 N   0  0  0  0  0  4  0  0  0  0  0  0
   -1.9863   -1.8643   -1.8514 C   0  0  0  0  0  0  0  0  0  0  0  0
   -1.5693   -2.8664   -0.7926 C   0  0  0  0  0  0  0  0  0  0  0  0
    2.8950   -0.6865   -2.7765 S   0  0  0  0  0  0  0  0  0  0  0  0
    4.1018   -0.1745   -1.5634 C   0  0  0  0  0  0  0  0  0  0  0  0
    5.4658   -0.1794   -1.7773 C   0  0  0  0  0  0  0  0  0  0  0  0
    6.3050    0.2521   -0.7555 C   0  0  0  0  0  0  0  0  0  0  0  0
    5.7441    0.7206    0.4537 C   0  0  0  0  0  0  0  0  0  0  0  0
    6.6329    1.3247    1.8031 S   0  0  0  0  0  0  0  0  0  0  0  0
    5.2161    1.7012    2.6617 C   0  0  0  0  0  0  0  0  0  0  0  0
    4.0848    1.3602    1.9586 C   0  0  0  0  0  0  0  0  0  0  0  0
    4.3594    0.7440    0.6848 C   0  0  0  0  0  0  0  0  0  0  0  0
    3.5072    0.2360   -0.3373 C   0  0  0  0  0  0  0  0  0  0  0  0
    1.5008   -2.3952    1.9553 H   0  0  0  0  0  0  0  0  0  0  0  0
    3.0857   -1.9831    1.2943 H   0  0  0  0  0  0  0  0  0  0  0  0
    1.8112   -2.5773    0.2210 H   0  0  0  0  0  0  0  0  0  0  0  0
    0.4252   -0.5482    0.8264 H   0  0  0  0  0  0  0  0  0  0  0  0
    1.7298    0.0822    1.7658 H   0  0  0  0  0  0  0  0  0  0  0  0
    0.1939   -0.4791   -3.1628 H   0  0  0  0  0  0  0  0  0  0  0  0
    0.0878    2.2129   -1.0654 H   0  0  0  0  0  0  0  0  0  0  0  0
   -1.8570    3.1526    0.0761 H   0  0  0  0  0  0  0  0  0  0  0  0
   -4.1221    2.9105    0.9137 H   0  0  0  0  0  0  0  0  0  0  0  0
   -6.1841    2.4518    2.1942 H   0  0  0  0  0  0  0  0  0  0  0  0
   -7.0778    0.9513    1.9516 H   0  0  0  0  0  0  0  0  0  0  0  0
   -7.1365    2.2228    0.7060 H   0  0  0  0  0  0  0  0  0  0  0  0
   -6.2409   -0.7832    0.4012 H   0  0  0  0  0  0  0  0  0  0  0  0
   -4.3585   -1.7525   -0.7396 H   0  0  0  0  0  0  0  0  0  0  0  0
   -2.9851   -2.0689   -2.2458 H   0  0  0  0  0  0  0  0  0  0  0  0
   -1.3310   -1.9246   -2.7227 H   0  0  0  0  0  0  0  0  0  0  0  0
   -2.2229   -2.8267    0.0836 H   0  0  0  0  0  0  0  0  0  0  0  0
   -1.6058   -3.8820   -1.1983 H   0  0  0  0  0  0  0  0  0  0  0  0
   -0.5491   -2.6755   -0.4507 H   0  0  0  0  0  0  0  0  0  0  0  0
    5.8859   -0.5148   -2.7212 H   0  0  0  0  0  0  0  0  0  0  0  0
    7.3836    0.2530   -0.8970 H   0  0  0  0  0  0  0  0  0  0  0  0
    5.2766    2.1656    3.6369 H   0  0  0  0  0  0  0  0  0  0  0  0
    3.0975    1.5648    2.3476 H   0  0  0  0  0  0  0  0  0  0  0  0
  1  2  1  0
  2  3  1  0
  3  4  1  0
  4  5  2  3
  5  6  1  0
  6  7  2  0
  7  8  1  0
  8  9  2  0
  9 10  1  0
 10 11  2  0
 11 12  1  0
 11 13  1  0
 13 14  2  0
 14 15  1  0
 15 16  2  0
 16 17  1  0
 17 18  1  0
  4 19  1  0
 19 20  1  0
 20 21  2  0
 21 22  1  0
 22 23  2  0
 23 24  1  0
 24 25  1  0
 25 26  2  0
 26 27  1  0
 27 28  2  0
 28  3  1  0
 16  6  1  0
 28 20  1  0
 15  9  1  0
 27 23  1  0
  1 29  1  0
  1 30  1  0
  1 31  1  0
  2 32  1  0
  2 33  1  0
  5 34  1  0
  7 35  1  0
  8 36  1  0
 10 37  1  0
 12 38  1  0
 12 39  1  0
 12 40  1  0
 13 41  1  0
 14 42  1  0
 17 43  1  0
 17 44  1  0
 18 45  1  0
 18 46  1  0
 18 47  1  0
 21 48  1  0
 22 49  1  0
 25 50  1  0
 26 51  1  0
M  CHG  1  16   1
M  END
$$$$
