
     RDKit          3D

 52 55  0  0  0  0  0  0  0  0999 V2000
    6.0435    1.3683    6.0430 N   0  0  0  0  0  0  0  0  0  0  0  0
    6.9249    1.2558    4.6114 S   0  0  0  0  0  6  0  0  0  0  0  0
    7.8347    0.1424    4.7374 O   0  0  0  0  0  0  0  0  0  0  0  0
    7.3727    2.5990    4.3238 O   0  0  0  0  0  0  0  0  0  0  0  0
    5.6568    0.8214    3.4516 C   0  0  0  0  0  0  0  0  0  0  0  0
    5.3610   -0.5263    3.2317 C   0  0  0  0  0  0  0  0  0  0  0  0
    4.3678   -0.8714    2.3140 C   0  0  0  0  0  0  0  0  0  0  0  0
    3.6767    0.1245    1.6089 C   0  0  0  0  0  0  0  0  0  0  0  0
    2.5936   -0.2437    0.6247 C   0  0  0  0  0  0  0  0  0  0  0  0
    1.2208   -0.3246    1.2956 C   0  0  0  0  0  0  0  0  0  0  0  0
    0.1728   -0.6661    0.3532 N   0  0  0  0  0  0  0  0  0  0  0  0
   -0.3698    0.2781   -0.4907 C   0  0  0  0  0  0  0  0  0  0  0  0
   -0.0421    1.4570   -0.5095 O   0  0  0  0  0  0  0  0  0  0  0  0
   -1.4617   -0.2041   -1.3635 C   0  0  0  0  0  0  0  0  0  0  0  0
   -2.6793    0.4680   -1.2454 C   0  0  0  0  0  0  0  0  0  0  0  0
   -3.7566    0.0240   -1.9914 C   0  0  0  0  0  0  0  0  0  0  0  0
   -5.0961    0.6498   -1.9346 C   0  0  0  0  0  0  0  0  0  0  0  0
   -5.5764    1.2980   -0.7808 C   0  0  0  0  0  0  0  0  0  0  0  0
   -6.8455    1.8875   -0.7497 C   0  0  0  0  0  0  0  0  0  0  0  0
   -7.6663    1.8390   -1.8721 C   0  0  0  0  0  0  0  0  0  0  0  0
   -7.2219    1.1982   -3.0236 C   0  0  0  0  0  0  0  0  0  0  0  0
   -5.9536    0.6100   -3.0510 C   0  0  0  0  0  0  0  0  0  0  0  0
   -3.6366   -1.0335   -2.8335 N   0  0  0  0  0  0  0  0  0  0  0  0
   -2.4550   -1.6576   -2.9723 C   0  0  0  0  0  0  0  0  0  0  0  0
   -2.3740   -2.7191   -3.8639 C   0  0  0  0  0  0  0  0  0  0  0  0
   -1.1810   -3.4100   -4.0874 C   0  0  0  0  0  0  0  0  0  0  0  0
   -0.0312   -3.0305   -3.4112 C   0  0  0  0  0  0  0  0  0  0  0  0
   -0.0870   -1.9713   -2.5075 C   0  0  0  0  0  0  0  0  0  0  0  0
   -1.3025   -1.2807   -2.2614 C   0  0  0  0  0  0  0  0  0  0  0  0
    3.9889    1.4732    1.8381 C   0  0  0  0  0  0  0  0  0  0  0  0
    4.9825    1.8247    2.7527 C   0  0  0  0  0  0  0  0  0  0  0  0
    6.0775    2.3344    6.3730 H   0  0  0  0  0  0  0  0  0  0  0  0
    5.0861    1.0311    5.9512 H   0  0  0  0  0  0  0  0  0  0  0  0
    5.9014   -1.3078    3.7627 H   0  0  0  0  0  0  0  0  0  0  0  0
    4.1437   -1.9229    2.1448 H   0  0  0  0  0  0  0  0  0  0  0  0
    2.8364   -1.2040    0.1514 H   0  0  0  0  0  0  0  0  0  0  0  0
    2.5808    0.4877   -0.1934 H   0  0  0  0  0  0  0  0  0  0  0  0
    0.9651    0.6307    1.7692 H   0  0  0  0  0  0  0  0  0  0  0  0
    1.2154   -1.0944    2.0752 H   0  0  0  0  0  0  0  0  0  0  0  0
   -0.2045   -1.6063    0.3603 H   0  0  0  0  0  0  0  0  0  0  0  0
   -2.7611    1.3238   -0.5830 H   0  0  0  0  0  0  0  0  0  0  0  0
   -4.9748    1.3417    0.1239 H   0  0  0  0  0  0  0  0  0  0  0  0
   -7.1923    2.3805    0.1549 H   0  0  0  0  0  0  0  0  0  0  0  0
   -8.6521    2.2957   -1.8483 H   0  0  0  0  0  0  0  0  0  0  0  0
   -7.8583    1.1518   -3.9034 H   0  0  0  0  0  0  0  0  0  0  0  0
   -5.6283    0.1139   -3.9647 H   0  0  0  0  0  0  0  0  0  0  0  0
   -3.2686   -3.0136   -4.4090 H   0  0  0  0  0  0  0  0  0  0  0  0
   -1.1551   -4.2320   -4.7983 H   0  0  0  0  0  0  0  0  0  0  0  0
    0.9073   -3.5486   -3.5924 H   0  0  0  0  0  0  0  0  0  0  0  0
    0.8343   -1.6734   -2.0113 H   0  0  0  0  0  0  0  0  0  0  0  0
    3.4621    2.2571    1.2947 H   0  0  0  0  0  0  0  0  0  0  0  0
    5.2248    2.8742    2.9063 H   0  0  0  0  0  0  0  0  0  0  0  0
  1  2  1  0
  2  3  2  0
  2  4  2  0
  2  5  1  0
  5  6  2  0
  6  7  1  0
  7  8  2  0
  8  9  1  0
  9 10  1  0
 10 11  1  0
 11 12  1  0
 12 13  2  0
 12 14  1  0
 14 15  2  0
 15 16  1  0
 16 17  1  0
 17 18  2  0
 18 19  1  0
 19 20  2  0
 20 21  1  0
 21 22  2  0
 16 23  2  0
 23 24  1  0
 24 25  2  0
 25 26  1  0
 26 27  2  0
 27 28  1  0
 28 29  2  0
  8 30  1  0
 30 31  2  0
 31  5  1  0
 29 14  1  0
 22 17  1  0
 29 24  1  0
  1 32  1  0
  1 33  1  0
  6 34  1  0
  7 35  1  0
  9 36  1  0
  9 37  1  0
 10 38  1  0
 10 39  1  0
 11 40  1  0
 15 41  1  0
 18 42  1  0
 19 43  1  0
 20 44  1  0
 21 45  1  0
 22 46  1  0
 25 47  1  0
 26 48  1  0
 27 49  1  0
 28 50  1  0
 30 51  1  0
 31 52  1  0
M  END
$$$$
