
     RDKit          3D

 52 55  0  0  0  0  0  0  0  0999 V2000
    7.3394    0.6069   -1.1110 C   0  0  0  0  0  0  0  0  0  0  0  0
    6.5370    1.8764   -0.8705 C   0  0  0  0  0  0  0  0  0  0  0  0
    5.0547    1.6035   -0.8314 C   0  0  0  0  0  0  0  0  0  0  0  0
    4.2927    1.6449   -2.0061 C   0  0  0  0  0  0  0  0  0  0  0  0
    2.9206    1.3757   -1.9752 C   0  0  0  0  0  0  0  0  0  0  0  0
    2.2962    1.0556   -0.7657 C   0  0  0  0  0  0  0  0  0  0  0  0
    0.8455    0.7627   -0.6954 C   0  0  0  0  0  0  0  0  0  0  0  0
    0.2162    0.5530    0.4213 N   0  0  0  0  0  0  0  0  0  0  0  0
   -1.0880    0.2933    0.1093 N   0  0  0  0  0  0  0  0  0  0  0  0
   -2.0491    0.1679    1.1103 C   0  0  0  0  0  0  0  0  0  0  0  0
   -3.4084   -0.0522    0.8286 C   0  0  0  0  0  0  0  0  0  0  0  0
   -4.3627   -0.1734    1.8469 C   0  0  0  0  0  0  0  0  0  0  0  0
   -3.9641   -0.0685    3.1776 C   0  0  0  0  0  0  0  0  0  0  0  0
   -5.1554   -0.2114    4.4798 S   0  0  0  0  0  6  0  0  0  0  0  0
   -5.4067    1.4058    4.8828 N   0  0  0  0  0  0  0  0  0  0  0  0
   -6.4067   -0.6632    3.9152 O   0  0  0  0  0  0  0  0  0  0  0  0
   -4.5299   -0.8609    5.6063 O   0  0  0  0  0  0  0  0  0  0  0  0
   -2.6243    0.1343    3.4978 C   0  0  0  0  0  0  0  0  0  0  0  0
   -1.6857    0.2551    2.4681 C   0  0  0  0  0  0  0  0  0  0  0  0
   -1.3218    0.1915   -1.3328 C   0  0  0  0  0  0  0  0  0  0  0  0
   -1.5976   -1.2310   -1.8038 C   0  0  0  0  0  0  0  0  0  0  0  0
   -2.4546   -1.4409   -2.8999 C   0  0  0  0  0  0  0  0  0  0  0  0
   -2.7064   -2.7322   -3.3673 C   0  0  0  0  0  0  0  0  0  0  0  0
   -2.1001   -3.8175   -2.7473 C   0  0  0  0  0  0  0  0  0  0  0  0
   -2.3426   -5.0547   -3.1994 F   0  0  0  0  0  0  0  0  0  0  0  0
   -1.2444   -3.6372   -1.6690 C   0  0  0  0  0  0  0  0  0  0  0  0
   -0.9900   -2.3473   -1.2002 C   0  0  0  0  0  0  0  0  0  0  0  0
   -0.0155    0.7210   -1.9278 C   0  0  0  0  0  0  0  0  0  0  0  0
    3.0547    1.0087    0.4092 C   0  0  0  0  0  0  0  0  0  0  0  0
    4.4250    1.2779    0.3758 C   0  0  0  0  0  0  0  0  0  0  0  0
    7.0705    0.1416   -2.0654 H   0  0  0  0  0  0  0  0  0  0  0  0
    7.1663   -0.1288   -0.3182 H   0  0  0  0  0  0  0  0  0  0  0  0
    8.4098    0.8346   -1.1345 H   0  0  0  0  0  0  0  0  0  0  0  0
    6.8515    2.3410    0.0720 H   0  0  0  0  0  0  0  0  0  0  0  0
    6.7566    2.6085   -1.6572 H   0  0  0  0  0  0  0  0  0  0  0  0
    4.7659    1.8878   -2.9555 H   0  0  0  0  0  0  0  0  0  0  0  0
    2.3656    1.4245   -2.9068 H   0  0  0  0  0  0  0  0  0  0  0  0
   -3.7554   -0.1442   -0.1965 H   0  0  0  0  0  0  0  0  0  0  0  0
   -5.4033   -0.3543    1.5867 H   0  0  0  0  0  0  0  0  0  0  0  0
   -6.3731    1.6516    4.6625 H   0  0  0  0  0  0  0  0  0  0  0  0
   -4.7412    2.0367    4.4374 H   0  0  0  0  0  0  0  0  0  0  0  0
   -2.2979    0.1932    4.5338 H   0  0  0  0  0  0  0  0  0  0  0  0
   -0.6415    0.4123    2.7334 H   0  0  0  0  0  0  0  0  0  0  0  0
   -2.1484    0.8488   -1.6315 H   0  0  0  0  0  0  0  0  0  0  0  0
   -2.9341   -0.5999   -3.3966 H   0  0  0  0  0  0  0  0  0  0  0  0
   -3.3701   -2.8997   -4.2097 H   0  0  0  0  0  0  0  0  0  0  0  0
   -0.7822   -4.4983   -1.1969 H   0  0  0  0  0  0  0  0  0  0  0  0
   -0.3205   -2.2172   -0.3504 H   0  0  0  0  0  0  0  0  0  0  0  0
   -0.1409    1.7427   -2.3022 H   0  0  0  0  0  0  0  0  0  0  0  0
    0.4115    0.0861   -2.7087 H   0  0  0  0  0  0  0  0  0  0  0  0
    2.5856    0.7591    1.3589 H   0  0  0  0  0  0  0  0  0  0  0  0
    4.9972    1.2303    1.3001 H   0  0  0  0  0  0  0  0  0  0  0  0
  1  2  1  0
  2  3  1  0
  3  4  2  0
  4  5  1  0
  5  6  2  0
  6  7  1  0
  7  8  2  0
  8  9  1  0
  9 10  1  0
 10 11  2  0
 11 12  1  0
 12 13  2  0
 13 14  1  0
 14 15  1  0
 14 16  2  0
 14 17  2  0
 13 18  1  0
 18 19  2  0
  9 20  1  0
 20 21  1  0
 21 22  2  0
 22 23  1  0
 23 24  2  0
 24 25  1  0
 24 26  1  0
 26 27  2  0
 20 28  1  0
  6 29  1  0
 29 30  2  0
 30  3  1  0
 28  7  1  0
 19 10  1  0
 27 21  1  0
  1 31  1  0
  1 32  1  0
  1 33  1  0
  2 34  1  0
  2 35  1  0
  4 36  1  0
  5 37  1  0
 11 38  1  0
 12 39  1  0
 15 40  1  0
 15 41  1  0
 18 42  1  0
 19 43  1  0
 20 44  1  0
 22 45  1  0
 23 46  1  0
 26 47  1  0
 27 48  1  0
 28 49  1  0
 28 50  1  0
 29 51  1  0
 30 52  1  0
M  END
$$$$
