
     RDKit          3D

 43 45  0  0  0  0  0  0  0  0999 V2000
   -2.7600   -3.7765   -1.8575 C   0  0  0  0  0  0  0  0  0  0  0  0
   -2.7884   -2.2520   -1.7763 C   0  0  0  0  0  0  0  0  0  0  0  0
   -4.0892   -1.6972   -2.3511 C   0  0  0  0  0  0  0  0  0  0  0  0
   -1.3696   -1.5905   -2.7385 S   0  0  0  0  0  0  0  0  0  0  0  0
   -0.5383   -0.6122   -1.4991 C   0  0  0  0  0  0  0  0  0  0  0  0
    0.8371   -0.5237   -1.5403 C   0  0  0  0  0  0  0  0  0  0  0  0
    1.4554    0.2417   -0.5731 C   0  0  0  0  0  0  0  0  0  0  0  0
    2.8375    0.3892   -0.5535 N   0  0  0  0  0  0  0  0  0  0  0  0
    3.3901    1.3640    0.4015 C   0  0  0  0  0  0  0  0  0  0  0  0
    4.9062    1.4850    0.1775 C   0  0  0  0  0  0  0  0  0  0  0  0
    5.6257    0.2525    0.3524 O   0  0  0  0  0  0  0  0  0  0  0  0
    4.7948   -0.9106    0.2480 C   0  0  0  0  0  0  0  0  0  0  0  0
    3.6912   -0.7847   -0.8174 C   0  0  0  0  0  0  0  0  0  0  0  0
    0.7224    0.8913    0.3467 N   0  0  0  0  0  0  0  0  0  0  0  0
   -0.6187    0.7630    0.3094 C   0  0  0  0  0  0  0  0  0  0  0  0
   -1.4074    1.4566    1.3488 C   0  0  0  0  0  0  0  0  0  0  0  0
   -2.8158    1.4821    1.3098 C   0  0  0  0  0  0  0  0  0  0  0  0
   -3.5655    2.1260    2.3004 C   0  0  0  0  0  0  0  0  0  0  0  0
   -2.9184    2.7570    3.3581 C   0  0  0  0  0  0  0  0  0  0  0  0
   -3.8354    3.5348    4.5847 Cl  0  0  0  0  0  0  0  0  0  0  0  0
   -1.5309    2.7554    3.4275 C   0  0  0  0  0  0  0  0  0  0  0  0
   -0.7853    2.1132    2.4301 C   0  0  0  0  0  0  0  0  0  0  0  0
   -1.2854    0.0277   -0.5925 N   0  0  0  0  0  0  0  0  0  0  0  0
   -3.6018   -4.2041   -1.3007 H   0  0  0  0  0  0  0  0  0  0  0  0
   -2.8320   -4.1365   -2.8890 H   0  0  0  0  0  0  0  0  0  0  0  0
   -1.8374   -4.1741   -1.4180 H   0  0  0  0  0  0  0  0  0  0  0  0
   -2.7206   -1.9712   -0.7215 H   0  0  0  0  0  0  0  0  0  0  0  0
   -4.1228   -0.6045   -2.2786 H   0  0  0  0  0  0  0  0  0  0  0  0
   -4.2263   -1.9792   -3.4007 H   0  0  0  0  0  0  0  0  0  0  0  0
   -4.9477   -2.0884   -1.7930 H   0  0  0  0  0  0  0  0  0  0  0  0
    1.4037   -1.0217   -2.3167 H   0  0  0  0  0  0  0  0  0  0  0  0
    3.1968    1.0344    1.4298 H   0  0  0  0  0  0  0  0  0  0  0  0
    2.9310    2.3493    0.2560 H   0  0  0  0  0  0  0  0  0  0  0  0
    5.1098    1.8357   -0.8405 H   0  0  0  0  0  0  0  0  0  0  0  0
    5.3371    2.2172    0.8682 H   0  0  0  0  0  0  0  0  0  0  0  0
    4.3563   -1.1022    1.2349 H   0  0  0  0  0  0  0  0  0  0  0  0
    5.4450   -1.7605    0.0144 H   0  0  0  0  0  0  0  0  0  0  0  0
    3.1201   -1.7199   -0.8253 H   0  0  0  0  0  0  0  0  0  0  0  0
    4.1496   -0.6533   -1.8035 H   0  0  0  0  0  0  0  0  0  0  0  0
   -3.3452    0.9931    0.4926 H   0  0  0  0  0  0  0  0  0  0  0  0
   -4.6497    2.1251    2.2389 H   0  0  0  0  0  0  0  0  0  0  0  0
   -1.0190    3.2462    4.2509 H   0  0  0  0  0  0  0  0  0  0  0  0
    0.3013    2.1223    2.5064 H   0  0  0  0  0  0  0  0  0  0  0  0
  1  2  1  0
  2  3  1  0
  2  4  1  0
  4  5  1  0
  5  6  2  0
  6  7  1  0
  7  8  1  0
  8  9  1  0
  9 10  1  0
 10 11  1  0
 11 12  1  0
 12 13  1  0
  7 14  2  0
 14 15  1  0
 15 16  1  0
 16 17  2  0
 17 18  1  0
 18 19  2  0
 19 20  1  0
 19 21  1  0
 21 22  2  0
 15 23  2  0
 23  5  1  0
 13  8  1  0
 22 16  1  0
  1 24  1  0
  1 25  1  0
  1 26  1  0
  2 27  1  0
  3 28  1  0
  3 29  1  0
  3 30  1  0
  6 31  1  0
  9 32  1  0
  9 33  1  0
 10 34  1  0
 10 35  1  0
 12 36  1  0
 12 37  1  0
 13 38  1  0
 13 39  1  0
 17 40  1  0
 18 41  1  0
 21 42  1  0
 22 43  1  0
M  END
$$$$
