
     RDKit          3D

 39 41  0  0  0  0  0  0  0  0999 V2000
   -6.7095    0.2723   -2.3320 C   0  0  0  0  0  0  0  0  0  0  0  0
   -5.4382   -0.3100   -2.5898 O   0  0  0  0  0  0  0  0  0  0  0  0
   -4.4365   -0.0184   -1.7066 C   0  0  0  0  0  0  0  0  0  0  0  0
   -4.5427    0.7921   -0.5800 C   0  0  0  0  0  0  0  0  0  0  0  0
   -3.4290    1.0105    0.2455 C   0  0  0  0  0  0  0  0  0  0  0  0
   -2.1898    0.4208   -0.0398 C   0  0  0  0  0  0  0  0  0  0  0  0
   -1.0458    0.6462    0.8029 N   0  0  0  0  0  0  0  0  0  0  0  0
   -0.8462    1.7170    1.6923 C   0  0  0  0  0  0  0  0  0  0  0  0
   -1.7194    2.7126    1.8373 O   0  0  0  0  0  0  0  0  0  0  0  0
    0.3844    1.5703    2.3014 C   0  0  0  0  0  0  0  0  0  0  0  0
    0.9781    0.4179    1.7744 C   0  0  0  0  0  0  0  0  0  0  0  0
    2.2032   -0.0636    2.0910 N   0  0  0  0  0  0  0  0  0  0  0  0
    3.0176   -0.6685    1.0989 N   0  0  0  0  0  0  0  0  0  0  0  0
    4.3957   -0.5701    1.2962 C   0  0  0  0  0  0  0  0  0  0  0  0
    4.8504   -0.1642    2.3674 O   0  0  0  0  0  0  0  0  0  0  0  0
    5.2008   -0.9456    0.1498 C   0  0  0  0  0  0  0  0  0  0  0  0
    4.8965   -1.5018   -1.0826 C   0  0  0  0  0  0  0  0  0  0  0  0
    6.1187   -1.6384   -1.7869 C   0  0  0  0  0  0  0  0  0  0  0  0
    7.0967   -1.1629   -0.9485 C   0  0  0  0  0  0  0  0  0  0  0  0
    6.5551   -0.7442    0.2218 O   0  0  0  0  0  0  0  0  0  0  0  0
    0.0867   -0.1720    0.9057 C   0  0  0  0  0  0  0  0  0  0  0  0
    0.2004   -1.3618    0.3105 O   0  0  0  0  0  0  0  0  0  0  0  0
   -2.0946   -0.3947   -1.1751 C   0  0  0  0  0  0  0  0  0  0  0  0
   -3.2079   -0.6087   -1.9973 C   0  0  0  0  0  0  0  0  0  0  0  0
   -6.6577    1.3656   -2.3671 H   0  0  0  0  0  0  0  0  0  0  0  0
   -7.1162   -0.0745   -1.3763 H   0  0  0  0  0  0  0  0  0  0  0  0
   -7.3928   -0.0537   -3.1221 H   0  0  0  0  0  0  0  0  0  0  0  0
   -5.4771    1.2692   -0.3040 H   0  0  0  0  0  0  0  0  0  0  0  0
   -3.5807    1.6238    1.1281 H   0  0  0  0  0  0  0  0  0  0  0  0
   -1.3433    3.3487    2.4713 H   0  0  0  0  0  0  0  0  0  0  0  0
    0.8141    2.2503    3.0240 H   0  0  0  0  0  0  0  0  0  0  0  0
    2.7825    0.4402    2.7775 H   0  0  0  0  0  0  0  0  0  0  0  0
    2.6634   -0.5947    0.1487 H   0  0  0  0  0  0  0  0  0  0  0  0
    3.9161   -1.7871   -1.4377 H   0  0  0  0  0  0  0  0  0  0  0  0
    6.2696   -2.0378   -2.7803 H   0  0  0  0  0  0  0  0  0  0  0  0
    8.1704   -1.0607   -1.0286 H   0  0  0  0  0  0  0  0  0  0  0  0
    0.8959   -1.8263    0.8180 H   0  0  0  0  0  0  0  0  0  0  0  0
   -1.1595   -0.8574   -1.4740 H   0  0  0  0  0  0  0  0  0  0  0  0
   -3.1096   -1.2402   -2.8769 H   0  0  0  0  0  0  0  0  0  0  0  0
  1  2  1  0
  2  3  1  0
  3  4  2  0
  4  5  1  0
  5  6  2  0
  6  7  1  0
  7  8  1  0
  8  9  1  0
  8 10  2  0
 10 11  1  0
 11 12  1  0
 12 13  1  0
 13 14  1  0
 14 15  2  0
 14 16  1  0
 16 17  2  0
 17 18  1  0
 18 19  2  0
 19 20  1  0
 11 21  2  0
 21 22  1  0
  6 23  1  0
 23 24  2  0
 24  3  1  0
 21  7  1  0
 20 16  1  0
  1 25  1  0
  1 26  1  0
  1 27  1  0
  4 28  1  0
  5 29  1  0
  9 30  1  0
 10 31  1  0
 12 32  1  0
 13 33  1  0
 17 34  1  0
 18 35  1  0
 19 36  1  0
 22 37  1  0
 23 38  1  0
 24 39  1  0
M  END
$$$$
