
     RDKit          3D

 51 53  0  0  0  0  0  0  0  0999 V2000
   -5.9208    0.1341   -1.5583 C   0  0  0  0  0  0  0  0  0  0  0  0
   -4.7678    0.9552   -1.4491 O   0  0  0  0  0  0  0  0  0  0  0  0
   -3.7156    0.4826   -0.7043 C   0  0  0  0  0  0  0  0  0  0  0  0
   -3.7086   -0.7439   -0.0331 C   0  0  0  0  0  0  0  0  0  0  0  0
   -2.5893   -1.1503    0.7117 C   0  0  0  0  0  0  0  0  0  0  0  0
   -1.4422   -0.3379    0.7659 C   0  0  0  0  0  0  0  0  0  0  0  0
   -1.4680    0.9060    0.1067 C   0  0  0  0  0  0  0  0  0  0  0  0
   -2.5832    1.3140   -0.6357 C   0  0  0  0  0  0  0  0  0  0  0  0
   -2.6661    2.5085   -1.3091 O   0  0  0  0  0  0  0  0  0  0  0  0
   -1.4647    3.2474   -1.4788 C   0  0  0  0  0  0  0  0  0  0  0  0
   -0.2271   -0.7586    1.5980 C   0  0  0  0  0  0  0  0  0  0  0  0
    1.1094   -0.4435    0.9295 C   0  0  0  0  0  0  0  0  0  0  0  0
    1.9985    0.4735    1.5189 C   0  0  0  0  0  0  0  0  0  0  0  0
    3.2182    0.7764    0.9089 C   0  0  0  0  0  0  0  0  0  0  0  0
    4.1382    1.6645    1.4047 O   0  0  0  0  0  0  0  0  0  0  0  0
    3.9856    2.0709    2.7573 C   0  0  0  0  0  0  0  0  0  0  0  0
    3.5372    0.1649   -0.3156 C   0  0  0  0  0  0  0  0  0  0  0  0
    4.7558    0.4345   -0.9013 O   0  0  0  0  0  0  0  0  0  0  0  0
    4.6164    1.5074   -1.8311 C   0  0  0  0  0  0  0  0  0  0  0  0
    2.6776   -0.7735   -0.9111 C   0  0  0  0  0  0  0  0  0  0  0  0
    3.1026   -1.3279   -2.0907 O   0  0  0  0  0  0  0  0  0  0  0  0
    2.2952   -2.3514   -2.6563 C   0  0  0  0  0  0  0  0  0  0  0  0
    1.4658   -1.0655   -0.2832 C   0  0  0  0  0  0  0  0  0  0  0  0
   -0.2339   -2.1878    1.9650 N   0  0  0  0  0  0  0  0  0  0  0  0
   -1.5344   -2.5822    2.4981 C   0  0  0  0  0  0  0  0  0  0  0  0
   -2.6065   -2.4874    1.4113 C   0  0  0  0  0  0  0  0  0  0  0  0
   -6.6472    0.6593   -2.1863 H   0  0  0  0  0  0  0  0  0  0  0  0
   -5.6849   -0.8164   -2.0476 H   0  0  0  0  0  0  0  0  0  0  0  0
   -6.3843   -0.0278   -0.5797 H   0  0  0  0  0  0  0  0  0  0  0  0
   -4.5658   -1.4086   -0.0718 H   0  0  0  0  0  0  0  0  0  0  0  0
   -0.5987    1.5506    0.1845 H   0  0  0  0  0  0  0  0  0  0  0  0
   -1.1205    3.6580   -0.5241 H   0  0  0  0  0  0  0  0  0  0  0  0
   -0.6862    2.6413   -1.9538 H   0  0  0  0  0  0  0  0  0  0  0  0
   -1.6810    4.0897   -2.1432 H   0  0  0  0  0  0  0  0  0  0  0  0
   -0.2933   -0.1814    2.5315 H   0  0  0  0  0  0  0  0  0  0  0  0
    1.7116    0.9479    2.4519 H   0  0  0  0  0  0  0  0  0  0  0  0
    3.1135    2.7225    2.8726 H   0  0  0  0  0  0  0  0  0  0  0  0
    4.8715    2.6498    3.0346 H   0  0  0  0  0  0  0  0  0  0  0  0
    3.9271    1.2093    3.4305 H   0  0  0  0  0  0  0  0  0  0  0  0
    3.9206    1.2535   -2.6379 H   0  0  0  0  0  0  0  0  0  0  0  0
    5.5975    1.6912   -2.2788 H   0  0  0  0  0  0  0  0  0  0  0  0
    4.2961    2.4280   -1.3309 H   0  0  0  0  0  0  0  0  0  0  0  0
    2.1886   -3.1980   -1.9699 H   0  0  0  0  0  0  0  0  0  0  0  0
    1.3186   -1.9595   -2.9584 H   0  0  0  0  0  0  0  0  0  0  0  0
    2.7993   -2.7151   -3.5568 H   0  0  0  0  0  0  0  0  0  0  0  0
    0.7650   -1.7779   -0.7105 H   0  0  0  0  0  0  0  0  0  0  0  0
    0.4918   -2.3420    2.6625 H   0  0  0  0  0  0  0  0  0  0  0  0
   -1.7989   -1.9597    3.3624 H   0  0  0  0  0  0  0  0  0  0  0  0
   -1.4799   -3.6165    2.8553 H   0  0  0  0  0  0  0  0  0  0  0  0
   -2.4446   -3.2706    0.6600 H   0  0  0  0  0  0  0  0  0  0  0  0
   -3.5885   -2.6576    1.8684 H   0  0  0  0  0  0  0  0  0  0  0  0
  1  2  1  0
  2  3  1  0
  3  4  2  0
  4  5  1  0
  5  6  2  0
  6  7  1  0
  7  8  2  0
  8  9  1  0
  9 10  1  0
  6 11  1  0
 11 12  1  0
 12 13  2  0
 13 14  1  0
 14 15  1  0
 15 16  1  0
 14 17  2  0
 17 18  1  0
 18 19  1  0
 17 20  1  0
 20 21  1  0
 21 22  1  0
 20 23  2  0
 11 24  1  0
 24 25  1  0
 25 26  1  0
  8  3  1  0
 23 12  1  0
 26  5  1  0
  1 27  1  0
  1 28  1  0
  1 29  1  0
  4 30  1  0
  7 31  1  0
 10 32  1  0
 10 33  1  0
 10 34  1  0
 11 35  1  0
 13 36  1  0
 16 37  1  0
 16 38  1  0
 16 39  1  0
 19 40  1  0
 19 41  1  0
 19 42  1  0
 22 43  1  0
 22 44  1  0
 22 45  1  0
 23 46  1  0
 24 47  1  0
 25 48  1  0
 25 49  1  0
 26 50  1  0
 26 51  1  0
M  END
$$$$
