
     RDKit          3D

 43 45  0  0  0  0  0  0  0  0999 V2000
    6.6754   -1.6874    1.0527 C   0  0  0  0  0  0  0  0  0  0  0  0
    5.7809   -0.7417    0.3060 C   0  0  0  0  0  0  0  0  0  0  0  0
    6.3241    0.3227   -0.4169 C   0  0  0  0  0  0  0  0  0  0  0  0
    5.4895    1.2174   -1.0863 C   0  0  0  0  0  0  0  0  0  0  0  0
    4.0967    1.0681   -1.0361 C   0  0  0  0  0  0  0  0  0  0  0  0
    3.2159    2.0464   -1.7627 C   0  0  0  0  0  0  0  0  0  0  0  0
    3.5412    0.0108   -0.2945 C   0  0  0  0  0  0  0  0  0  0  0  0
    2.1719   -0.0497   -0.2900 O   0  0  0  0  0  0  0  0  0  0  0  0
    1.5603   -1.1014    0.4521 C   0  0  0  0  0  0  0  0  0  0  0  0
    0.0958   -0.9524    0.2872 C   0  0  0  0  0  0  0  0  0  0  0  0
   -0.7232   -0.4293   -0.6822 C   0  0  0  0  0  0  0  0  0  0  0  0
   -2.0443   -0.6186   -0.1936 C   0  0  0  0  0  0  0  0  0  0  0  0
   -3.2822   -0.2464   -0.8992 C   0  0  0  0  0  0  0  0  0  0  0  0
   -3.2466   -0.0621   -2.1180 O   0  0  0  0  0  0  0  0  0  0  0  0
   -4.4819   -0.0928   -0.1950 N   0  0  0  0  0  0  0  0  0  0  0  0
   -5.7317   -0.0101   -0.9466 C   0  0  0  0  0  0  0  0  0  0  0  0
   -6.6085    1.1110   -0.3995 C   0  0  0  0  0  0  0  0  0  0  0  0
   -6.8426    0.9543    1.0180 N   0  0  0  0  0  0  0  0  0  0  0  0
   -5.8603    0.5291    1.8748 C   0  0  0  0  0  0  0  0  0  0  0  0
   -6.0240    0.6396    3.0886 O   0  0  0  0  0  0  0  0  0  0  0  0
   -4.6124   -0.1411    1.2699 C   0  0  0  0  0  0  0  0  0  0  0  0
   -2.0083   -1.2600    0.9862 N   0  0  0  0  0  0  0  0  0  0  0  0
   -0.6751   -1.4521    1.2874 O   0  0  0  0  0  0  0  0  0  0  0  0
    4.3865   -0.8837    0.3734 C   0  0  0  0  0  0  0  0  0  0  0  0
    6.7817   -1.3604    2.0913 H   0  0  0  0  0  0  0  0  0  0  0  0
    7.6689   -1.7327    0.5960 H   0  0  0  0  0  0  0  0  0  0  0  0
    6.2648   -2.7025    1.0381 H   0  0  0  0  0  0  0  0  0  0  0  0
    7.4016    0.4632   -0.4659 H   0  0  0  0  0  0  0  0  0  0  0  0
    5.9346    2.0359   -1.6472 H   0  0  0  0  0  0  0  0  0  0  0  0
    3.8058    2.7720   -2.3322 H   0  0  0  0  0  0  0  0  0  0  0  0
    2.5997    2.6032   -1.0494 H   0  0  0  0  0  0  0  0  0  0  0  0
    2.5677    1.5215   -2.4715 H   0  0  0  0  0  0  0  0  0  0  0  0
    1.8644   -2.0775    0.0577 H   0  0  0  0  0  0  0  0  0  0  0  0
    1.8221   -1.0186    1.5130 H   0  0  0  0  0  0  0  0  0  0  0  0
   -0.4233    0.0328   -1.6119 H   0  0  0  0  0  0  0  0  0  0  0  0
   -5.5538    0.1467   -2.0140 H   0  0  0  0  0  0  0  0  0  0  0  0
   -6.2340   -0.9786   -0.8346 H   0  0  0  0  0  0  0  0  0  0  0  0
   -7.5806    1.1276   -0.9003 H   0  0  0  0  0  0  0  0  0  0  0  0
   -6.1238    2.0830   -0.5427 H   0  0  0  0  0  0  0  0  0  0  0  0
   -7.5988    1.4580    1.4661 H   0  0  0  0  0  0  0  0  0  0  0  0
   -3.7490    0.3594    1.7193 H   0  0  0  0  0  0  0  0  0  0  0  0
   -4.6349   -1.1962    1.5650 H   0  0  0  0  0  0  0  0  0  0  0  0
    3.9896   -1.7071    0.9587 H   0  0  0  0  0  0  0  0  0  0  0  0
  1  2  1  0
  2  3  2  0
  3  4  1  0
  4  5  2  0
  5  6  1  0
  5  7  1  0
  7  8  1  0
  8  9  1  0
  9 10  1  0
 10 11  2  0
 11 12  1  0
 12 13  1  0
 13 14  2  0
 13 15  1  0
 15 16  1  0
 16 17  1  0
 17 18  1  0
 18 19  1  0
 19 20  2  0
 19 21  1  0
 12 22  2  0
 22 23  1  0
  7 24  2  0
 24  2  1  0
 23 10  1  0
 21 15  1  0
  1 25  1  0
  1 26  1  0
  1 27  1  0
  3 28  1  0
  4 29  1  0
  6 30  1  0
  6 31  1  0
  6 32  1  0
  9 33  1  0
  9 34  1  0
 11 35  1  0
 16 36  1  0
 16 37  1  0
 17 38  1  0
 17 39  1  0
 18 40  1  0
 21 41  1  0
 21 42  1  0
 24 43  1  0
M  END
$$$$
