
     RDKit          3D

 38 40  0  0  0  0  0  0  0  0999 V2000
    1.0012   -1.1312    1.4644 O   0  0  0  0  0  0  0  0  0  0  0  0
    1.5755   -0.6844    0.4746 C   0  0  0  0  0  0  0  0  0  0  0  0
    1.1825   -0.9879   -0.8167 N   0  0  0  0  0  0  0  0  0  0  0  0
   -0.0571   -1.6481   -0.9545 N   0  0  0  0  0  0  0  0  0  0  0  0
   -0.9381   -1.1148   -1.8840 C   0  0  0  0  0  0  0  0  0  0  0  0
   -0.5710   -0.3258   -2.7542 O   0  0  0  0  0  0  0  0  0  0  0  0
   -2.3587   -1.6833   -1.7732 C   0  0  0  0  0  0  0  0  0  0  0  0
   -3.3940   -0.7566   -2.3984 C   0  0  0  0  0  0  0  0  0  0  0  0
   -3.5608    0.4530   -1.6495 O   0  0  0  0  0  0  0  0  0  0  0  0
   -3.5963    0.2227   -0.3011 C   0  0  0  0  0  0  0  0  0  0  0  0
   -4.0445    1.2714    0.4999 C   0  0  0  0  0  0  0  0  0  0  0  0
   -4.1177    1.1086    1.8840 C   0  0  0  0  0  0  0  0  0  0  0  0
   -3.7388   -0.1019    2.4654 C   0  0  0  0  0  0  0  0  0  0  0  0
   -3.2787   -1.1480    1.6642 C   0  0  0  0  0  0  0  0  0  0  0  0
   -3.1965   -0.9808    0.2829 C   0  0  0  0  0  0  0  0  0  0  0  0
   -2.7071   -2.0407   -0.4337 O   0  0  0  0  0  0  0  0  0  0  0  0
    2.7235    0.2519    0.6218 C   0  0  0  0  0  0  0  0  0  0  0  0
    2.8412    0.9692    1.8221 C   0  0  0  0  0  0  0  0  0  0  0  0
    3.9005    1.8579    2.0191 C   0  0  0  0  0  0  0  0  0  0  0  0
    4.8583    2.0323    1.0208 C   0  0  0  0  0  0  0  0  0  0  0  0
    4.7504    1.3059   -0.1732 C   0  0  0  0  0  0  0  0  0  0  0  0
    5.7666    1.4780   -1.2199 N   0  0  0  0  0  4  0  0  0  0  0  0
    6.7168    2.2365   -0.9831 O   0  0  0  0  0  0  0  0  0  0  0  0
    5.6098    0.8536   -2.2784 O   0  0  0  0  0  1  0  0  0  0  0  0
    3.6883    0.4120   -0.3803 C   0  0  0  0  0  0  0  0  0  0  0  0
    1.4186   -0.3734   -1.5963 H   0  0  0  0  0  0  0  0  0  0  0  0
   -0.4517   -2.0013   -0.0775 H   0  0  0  0  0  0  0  0  0  0  0  0
   -2.3452   -2.6174   -2.3487 H   0  0  0  0  0  0  0  0  0  0  0  0
   -3.1137   -0.4765   -3.4193 H   0  0  0  0  0  0  0  0  0  0  0  0
   -4.3715   -1.2532   -2.4495 H   0  0  0  0  0  0  0  0  0  0  0  0
   -4.3431    2.2121    0.0453 H   0  0  0  0  0  0  0  0  0  0  0  0
   -4.4714    1.9252    2.5083 H   0  0  0  0  0  0  0  0  0  0  0  0
   -3.7955   -0.2291    3.5436 H   0  0  0  0  0  0  0  0  0  0  0  0
   -2.9724   -2.0854    2.1207 H   0  0  0  0  0  0  0  0  0  0  0  0
    2.1007    0.8377    2.6109 H   0  0  0  0  0  0  0  0  0  0  0  0
    3.9778    2.4110    2.9531 H   0  0  0  0  0  0  0  0  0  0  0  0
    5.6792    2.7272    1.1894 H   0  0  0  0  0  0  0  0  0  0  0  0
    3.6330   -0.1672   -1.2988 H   0  0  0  0  0  0  0  0  0  0  0  0
  1  2  2  0
  2  3  1  0
  3  4  1  0
  4  5  1  0
  5  6  2  0
  5  7  1  0
  7  8  1  0
  8  9  1  0
  9 10  1  0
 10 11  2  0
 11 12  1  0
 12 13  2  0
 13 14  1  0
 14 15  2  0
 15 16  1  0
  2 17  1  0
 17 18  2  0
 18 19  1  0
 19 20  2  0
 20 21  1  0
 21 22  1  0
 22 23  2  0
 22 24  1  0
 21 25  2  0
 16  7  1  0
 25 17  1  0
 15 10  1  0
  3 26  1  0
  4 27  1  0
  7 28  1  0
  8 29  1  0
  8 30  1  0
 11 31  1  0
 12 32  1  0
 13 33  1  0
 14 34  1  0
 18 35  1  0
 19 36  1  0
 20 37  1  0
 25 38  1  0
M  CHG  2  22   1  24  -1
M  END
$$$$
