
     RDKit          3D

 59 62  0  0  0  0  0  0  0  0999 V2000
   10.3342    4.0269   -0.0149 C   0  0  0  0  0  0  0  0  0  0  0  0
    9.2601    3.1041    0.5327 C   0  0  0  0  0  0  0  0  0  0  0  0
    8.4468    2.6809   -0.5590 O   0  0  0  0  0  0  0  0  0  0  0  0
    7.4279    1.8139   -0.2761 C   0  0  0  0  0  0  0  0  0  0  0  0
    7.0611    1.3612    0.9912 C   0  0  0  0  0  0  0  0  0  0  0  0
    5.9874    0.4751    1.1397 C   0  0  0  0  0  0  0  0  0  0  0  0
    5.2704    0.0282    0.0229 C   0  0  0  0  0  0  0  0  0  0  0  0
    4.1015   -0.9127    0.1811 C   0  0  0  0  0  0  0  0  0  0  0  0
    2.7632   -0.1800    0.0553 C   0  0  0  0  0  0  0  0  0  0  0  0
    1.6242   -1.0477    0.2941 N   0  0  0  0  0  0  0  0  0  0  0  0
    1.1998   -1.9545   -0.6557 C   0  0  0  0  0  0  0  0  0  0  0  0
    1.8157   -2.1824   -1.6930 O   0  0  0  0  0  0  0  0  0  0  0  0
   -0.0771   -2.6966   -0.2962 C   0  0  0  0  0  0  0  0  0  0  0  0
   -1.2599   -1.7860   -0.0582 C   0  0  0  0  0  0  0  0  0  0  0  0
   -1.9302   -1.7938    1.1722 C   0  0  0  0  0  0  0  0  0  0  0  0
   -3.0106   -0.9351    1.3920 C   0  0  0  0  0  0  0  0  0  0  0  0
   -3.4458   -0.0696    0.3871 C   0  0  0  0  0  0  0  0  0  0  0  0
   -4.5156    0.7980    0.6328 N   0  0  0  0  0  0  0  0  0  0  0  0
   -5.6666    0.5084    0.1424 C   0  0  0  0  0  0  0  0  0  0  0  0
   -6.0857   -0.5627   -0.6001 N   0  0  0  0  0  0  0  0  0  0  0  0
   -7.5216   -0.7423   -0.7080 C   0  0  0  0  0  0  0  0  0  0  0  0
   -8.0753   -1.5514    0.4545 C   0  0  0  0  0  0  0  0  0  0  0  0
   -9.7725   -1.0503    0.5345 S   0  0  0  0  0  6  0  0  0  0  0  0
  -10.1709   -0.9493    1.9208 O   0  0  0  0  0  0  0  0  0  0  0  0
  -10.5082   -1.8498   -0.4240 O   0  0  0  0  0  0  0  0  0  0  0  0
   -9.5709    0.5808   -0.1507 C   0  0  0  0  0  0  0  0  0  0  0  0
   -8.1372    0.6662   -0.6439 C   0  0  0  0  0  0  0  0  0  0  0  0
   -7.0171    1.5990    0.4655 S   0  0  0  0  0  0  0  0  0  0  0  0
   -2.7762   -0.0567   -0.8384 C   0  0  0  0  0  0  0  0  0  0  0  0
   -1.6985   -0.9152   -1.0660 C   0  0  0  0  0  0  0  0  0  0  0  0
    5.6423    0.4858   -1.2462 C   0  0  0  0  0  0  0  0  0  0  0  0
    6.7113    1.3730   -1.3905 C   0  0  0  0  0  0  0  0  0  0  0  0
    9.8817    4.8978   -0.5009 H   0  0  0  0  0  0  0  0  0  0  0  0
   10.9957    4.3728    0.7844 H   0  0  0  0  0  0  0  0  0  0  0  0
   10.9335    3.5142   -0.7751 H   0  0  0  0  0  0  0  0  0  0  0  0
    9.7382    2.2401    1.0084 H   0  0  0  0  0  0  0  0  0  0  0  0
    8.6584    3.6530    1.2662 H   0  0  0  0  0  0  0  0  0  0  0  0
    7.5850    1.6797    1.8858 H   0  0  0  0  0  0  0  0  0  0  0  0
    5.7170    0.1366    2.1376 H   0  0  0  0  0  0  0  0  0  0  0  0
    4.1817   -1.7100   -0.5685 H   0  0  0  0  0  0  0  0  0  0  0  0
    4.1579   -1.4184    1.1539 H   0  0  0  0  0  0  0  0  0  0  0  0
    2.6537    0.2626   -0.9414 H   0  0  0  0  0  0  0  0  0  0  0  0
    2.7016    0.6326    0.7871 H   0  0  0  0  0  0  0  0  0  0  0  0
    0.9618   -0.7674    1.0087 H   0  0  0  0  0  0  0  0  0  0  0  0
    0.1315   -3.3102    0.5886 H   0  0  0  0  0  0  0  0  0  0  0  0
   -0.3242   -3.3879   -1.1112 H   0  0  0  0  0  0  0  0  0  0  0  0
   -1.6139   -2.4583    1.9736 H   0  0  0  0  0  0  0  0  0  0  0  0
   -3.5135   -0.9314    2.3559 H   0  0  0  0  0  0  0  0  0  0  0  0
   -5.4750   -1.3726   -0.6220 H   0  0  0  0  0  0  0  0  0  0  0  0
   -7.7787   -1.2213   -1.6601 H   0  0  0  0  0  0  0  0  0  0  0  0
   -7.6018   -1.3148    1.4124 H   0  0  0  0  0  0  0  0  0  0  0  0
   -8.0154   -2.6288    0.2813 H   0  0  0  0  0  0  0  0  0  0  0  0
  -10.2728    0.6621   -0.9863 H   0  0  0  0  0  0  0  0  0  0  0  0
   -9.8273    1.3281    0.6041 H   0  0  0  0  0  0  0  0  0  0  0  0
   -8.0873    1.1643   -1.6187 H   0  0  0  0  0  0  0  0  0  0  0  0
   -3.0923    0.6327   -1.6171 H   0  0  0  0  0  0  0  0  0  0  0  0
   -1.1932   -0.8871   -2.0304 H   0  0  0  0  0  0  0  0  0  0  0  0
    5.1020    0.1550   -2.1321 H   0  0  0  0  0  0  0  0  0  0  0  0
    6.9898    1.7216   -2.3823 H   0  0  0  0  0  0  0  0  0  0  0  0
  1  2  1  0
  2  3  1  0
  3  4  1  0
  4  5  2  0
  5  6  1  0
  6  7  2  0
  7  8  1  0
  8  9  1  0
  9 10  1  0
 10 11  1  0
 11 12  2  0
 11 13  1  0
 13 14  1  0
 14 15  2  0
 15 16  1  0
 16 17  2  0
 17 18  1  0
 18 19  2  3
 19 20  1  0
 20 21  1  0
 21 22  1  0
 22 23  1  0
 23 24  2  0
 23 25  2  0
 23 26  1  0
 26 27  1  0
 27 28  1  0
 17 29  1  0
 29 30  2  0
  7 31  1  0
 31 32  2  0
 32  4  1  0
 30 14  1  0
 28 19  1  0
 27 21  1  0
  1 33  1  0
  1 34  1  0
  1 35  1  0
  2 36  1  0
  2 37  1  0
  5 38  1  0
  6 39  1  0
  8 40  1  0
  8 41  1  0
  9 42  1  0
  9 43  1  0
 10 44  1  0
 13 45  1  0
 13 46  1  0
 15 47  1  0
 16 48  1  0
 20 49  1  0
 21 50  1  0
 22 51  1  0
 22 52  1  0
 26 53  1  0
 26 54  1  0
 27 55  1  0
 29 56  1  0
 30 57  1  0
 31 58  1  0
 32 59  1  0
M  END
$$$$
