
     RDKit          3D

 44 46  0  0  0  0  0  0  0  0999 V2000
    5.0105   -0.2935    0.0869 C   0  0  0  0  0  0  0  0  0  0  0  0
    3.6961    0.2932   -0.4450 C   0  0  0  0  0  0  0  0  0  0  0  0
    2.9808   -0.7285   -1.3386 C   0  0  0  0  0  0  0  0  0  0  0  0
    4.0297    1.5429   -1.2828 C   0  0  0  0  0  0  0  0  0  0  0  0
    2.7559    0.6912    0.7177 C   0  0  0  0  0  0  0  0  0  0  0  0
    2.1488    1.7661    0.6898 O   0  0  0  0  0  0  0  0  0  0  0  0
    2.6320   -0.2871    1.8841 C   0  0  0  0  0  0  0  0  0  0  0  0
    1.1629    0.0135    2.9136 S   0  0  0  0  0  0  0  0  0  0  0  0
   -0.1262   -0.2012    1.6848 C   0  0  0  0  0  0  0  0  0  0  0  0
    0.1469   -1.1349    0.7315 N   0  0  0  0  0  0  0  0  0  0  0  0
   -0.8159   -1.3525   -0.1747 C   0  0  0  0  0  0  0  0  0  0  0  0
   -2.0405   -0.7047   -0.1986 C   0  0  0  0  0  0  0  0  0  0  0  0
   -2.3224    0.2488    0.7714 C   0  0  0  0  0  0  0  0  0  0  0  0
   -3.6121    0.9376    0.7663 C   0  0  0  0  0  0  0  0  0  0  0  0
   -3.9593    2.1302    0.1641 C   0  0  0  0  0  0  0  0  0  0  0  0
   -5.3235    2.4765    0.3986 C   0  0  0  0  0  0  0  0  0  0  0  0
   -5.9687    1.5333    1.1660 C   0  0  0  0  0  0  0  0  0  0  0  0
   -4.9367    0.2409    1.6018 S   0  0  0  0  0  0  0  0  0  0  0  0
   -1.3360    0.5112    1.7435 C   0  0  0  0  0  0  0  0  0  0  0  0
   -1.5678    1.4897    2.7669 C   0  0  0  0  0  0  0  0  0  0  0  0
   -1.7788    2.2843    3.5870 N   0  0  0  0  0  0  0  0  0  0  0  0
   -2.8593   -1.1632   -1.3646 C   0  0  0  0  0  0  0  0  0  0  0  0
   -2.1551   -2.4802   -1.7293 C   0  0  0  0  0  0  0  0  0  0  0  0
   -0.6869   -2.3187   -1.3198 C   0  0  0  0  0  0  0  0  0  0  0  0
    5.4664    0.3672    0.8298 H   0  0  0  0  0  0  0  0  0  0  0  0
    5.7337   -0.4403   -0.7185 H   0  0  0  0  0  0  0  0  0  0  0  0
    4.8565   -1.2660    0.5629 H   0  0  0  0  0  0  0  0  0  0  0  0
    2.0434   -0.3200   -1.7298 H   0  0  0  0  0  0  0  0  0  0  0  0
    2.7318   -1.6421   -0.7906 H   0  0  0  0  0  0  0  0  0  0  0  0
    3.6058   -1.0138   -2.1941 H   0  0  0  0  0  0  0  0  0  0  0  0
    3.1248    1.9972   -1.7037 H   0  0  0  0  0  0  0  0  0  0  0  0
    4.6951    1.2974   -2.1186 H   0  0  0  0  0  0  0  0  0  0  0  0
    4.5247    2.3068   -0.6716 H   0  0  0  0  0  0  0  0  0  0  0  0
    2.6101   -1.3160    1.5209 H   0  0  0  0  0  0  0  0  0  0  0  0
    3.5138   -0.1673    2.5206 H   0  0  0  0  0  0  0  0  0  0  0  0
   -3.2679    2.7351   -0.4139 H   0  0  0  0  0  0  0  0  0  0  0  0
   -5.8030    3.3736    0.0291 H   0  0  0  0  0  0  0  0  0  0  0  0
   -6.9987    1.5432    1.4962 H   0  0  0  0  0  0  0  0  0  0  0  0
   -3.9080   -1.3419   -1.1096 H   0  0  0  0  0  0  0  0  0  0  0  0
   -2.7921   -0.4362   -2.1811 H   0  0  0  0  0  0  0  0  0  0  0  0
   -2.6042   -3.2979   -1.1482 H   0  0  0  0  0  0  0  0  0  0  0  0
   -2.2692   -2.7357   -2.7867 H   0  0  0  0  0  0  0  0  0  0  0  0
   -0.2414   -3.2698   -1.0109 H   0  0  0  0  0  0  0  0  0  0  0  0
   -0.0960   -1.8685   -2.1230 H   0  0  0  0  0  0  0  0  0  0  0  0
  1  2  1  0
  2  3  1  0
  2  4  1  0
  2  5  1  0
  5  6  2  0
  5  7  1  0
  7  8  1  0
  8  9  1  0
  9 10  2  0
 10 11  1  0
 11 12  2  0
 12 13  1  0
 13 14  1  0
 14 15  2  0
 15 16  1  0
 16 17  2  0
 17 18  1  0
 13 19  2  0
 19 20  1  0
 20 21  3  0
 12 22  1  0
 22 23  1  0
 23 24  1  0
 19  9  1  0
 24 11  1  0
 18 14  1  0
  1 25  1  0
  1 26  1  0
  1 27  1  0
  3 28  1  0
  3 29  1  0
  3 30  1  0
  4 31  1  0
  4 32  1  0
  4 33  1  0
  7 34  1  0
  7 35  1  0
 15 36  1  0
 16 37  1  0
 17 38  1  0
 22 39  1  0
 22 40  1  0
 23 41  1  0
 23 42  1  0
 24 43  1  0
 24 44  1  0
M  END
$$$$
