
     RDKit          3D

 61 63  0  0  0  0  0  0  0  0999 V2000
   -4.6588    1.6145    1.3741 C   0  0  0  0  0  0  0  0  0  0  0  0
   -3.3780    0.9743    0.8598 C   0  0  0  0  0  0  0  0  0  0  0  0
   -3.3252    0.9766   -0.6687 C   0  0  0  0  0  0  0  0  0  0  0  0
   -2.0978    0.2592   -1.2237 C   0  0  0  0  0  0  0  0  0  0  0  0
   -0.8618    0.9682   -0.9531 N   0  0  0  0  0  0  0  0  0  0  0  0
    0.2903    0.6447   -1.6415 C   0  0  0  0  0  0  0  0  0  0  0  0
    0.3207   -0.1652   -2.5682 O   0  0  0  0  0  0  0  0  0  0  0  0
    1.5541    1.3779   -1.1712 C   0  0  0  0  0  0  0  0  0  0  0  0
    1.5989    2.7611   -1.8370 C   0  0  0  0  0  0  0  0  0  0  0  0
    2.4890    3.7322   -1.0958 C   0  0  0  0  0  0  0  0  0  0  0  0
    3.8798    3.6895   -1.2590 C   0  0  0  0  0  0  0  0  0  0  0  0
    4.7029    4.5710   -0.5574 C   0  0  0  0  0  0  0  0  0  0  0  0
    4.1444    5.5035    0.3152 C   0  0  0  0  0  0  0  0  0  0  0  0
    2.7623    5.5539    0.4876 C   0  0  0  0  0  0  0  0  0  0  0  0
    1.9370    4.6725   -0.2127 C   0  0  0  0  0  0  0  0  0  0  0  0
    2.7302    0.5671   -1.5927 N   0  0  0  0  0  0  0  0  0  0  0  0
    3.4111   -0.4948   -0.4838 S   0  0  0  0  0  6  0  0  0  0  0  0
    4.4894   -1.1750   -1.1659 O   0  0  0  0  0  0  0  0  0  0  0  0
    3.6211    0.2104    0.7595 O   0  0  0  0  0  0  0  0  0  0  0  0
    2.1220   -1.6852   -0.2108 C   0  0  0  0  0  0  0  0  0  0  0  0
    2.0705   -2.8470   -0.9795 C   0  0  0  0  0  0  0  0  0  0  0  0
    1.0424   -3.7731   -0.7671 C   0  0  0  0  0  0  0  0  0  0  0  0
    0.0531   -3.5458    0.2039 C   0  0  0  0  0  0  0  0  0  0  0  0
    0.1334   -2.3804    0.9645 C   0  0  0  0  0  0  0  0  0  0  0  0
    1.1776   -1.4624    0.7880 C   0  0  0  0  0  0  0  0  0  0  0  0
   -0.9236   -2.0824    1.9393 C   0  0  0  0  0  0  0  0  0  0  0  0
   -0.9294   -0.9804    2.4834 O   0  0  0  0  0  0  0  0  0  0  0  0
   -1.8789   -3.0639    2.1429 N   0  0  0  0  0  0  0  0  0  0  0  0
   -2.9198   -2.8137    3.1235 C   0  0  0  0  0  0  0  0  0  0  0  0
   -1.9990   -4.2249    1.3867 C   0  0  0  0  0  0  0  0  0  0  0  0
   -2.9398   -5.0039    1.5576 O   0  0  0  0  0  0  0  0  0  0  0  0
   -1.0189   -4.4509    0.4239 N   0  0  0  0  0  0  0  0  0  0  0  0
   -1.1117   -5.6640   -0.3796 C   0  0  0  0  0  0  0  0  0  0  0  0
   -4.7725    2.6344    0.9941 H   0  0  0  0  0  0  0  0  0  0  0  0
   -4.6474    1.6572    2.4665 H   0  0  0  0  0  0  0  0  0  0  0  0
   -5.5345    1.0339    1.0690 H   0  0  0  0  0  0  0  0  0  0  0  0
   -2.5219    1.5209    1.2705 H   0  0  0  0  0  0  0  0  0  0  0  0
   -3.3206   -0.0545    1.2327 H   0  0  0  0  0  0  0  0  0  0  0  0
   -4.2211    0.4756   -1.0541 H   0  0  0  0  0  0  0  0  0  0  0  0
   -3.3508    2.0085   -1.0384 H   0  0  0  0  0  0  0  0  0  0  0  0
   -2.2006    0.1521   -2.3091 H   0  0  0  0  0  0  0  0  0  0  0  0
   -2.0073   -0.7468   -0.8028 H   0  0  0  0  0  0  0  0  0  0  0  0
   -0.7555    1.3765   -0.0315 H   0  0  0  0  0  0  0  0  0  0  0  0
    1.5234    1.4853   -0.0818 H   0  0  0  0  0  0  0  0  0  0  0  0
    1.9421    2.6829   -2.8771 H   0  0  0  0  0  0  0  0  0  0  0  0
    0.5904    3.1910   -1.8969 H   0  0  0  0  0  0  0  0  0  0  0  0
    4.3331    2.9599   -1.9277 H   0  0  0  0  0  0  0  0  0  0  0  0
    5.7812    4.5245   -0.6873 H   0  0  0  0  0  0  0  0  0  0  0  0
    4.7876    6.1857    0.8646 H   0  0  0  0  0  0  0  0  0  0  0  0
    2.3280    6.2779    1.1719 H   0  0  0  0  0  0  0  0  0  0  0  0
    0.8618    4.7277   -0.0624 H   0  0  0  0  0  0  0  0  0  0  0  0
    2.6101    0.1347   -2.5135 H   0  0  0  0  0  0  0  0  0  0  0  0
    2.8167   -3.0392   -1.7480 H   0  0  0  0  0  0  0  0  0  0  0  0
    1.0366   -4.6624   -1.3914 H   0  0  0  0  0  0  0  0  0  0  0  0
    1.2345   -0.5728    1.4130 H   0  0  0  0  0  0  0  0  0  0  0  0
   -3.8568   -2.6082    2.5939 H   0  0  0  0  0  0  0  0  0  0  0  0
   -2.6826   -1.9649    3.7702 H   0  0  0  0  0  0  0  0  0  0  0  0
   -3.0587   -3.7030    3.7471 H   0  0  0  0  0  0  0  0  0  0  0  0
   -1.9772   -6.2754   -0.1104 H   0  0  0  0  0  0  0  0  0  0  0  0
   -1.2105   -5.3933   -1.4358 H   0  0  0  0  0  0  0  0  0  0  0  0
   -0.2151   -6.2720   -0.2232 H   0  0  0  0  0  0  0  0  0  0  0  0
  1  2  1  0
  2  3  1  0
  3  4  1  0
  4  5  1  0
  5  6  1  0
  6  7  2  0
  6  8  1  0
  8  9  1  0
  9 10  1  0
 10 11  2  0
 11 12  1  0
 12 13  2  0
 13 14  1  0
 14 15  2  0
  8 16  1  0
 16 17  1  0
 17 18  2  0
 17 19  2  0
 17 20  1  0
 20 21  2  0
 21 22  1  0
 22 23  2  0
 23 24  1  0
 24 25  2  0
 24 26  1  0
 26 27  2  0
 26 28  1  0
 28 29  1  0
 28 30  1  0
 30 31  2  0
 30 32  1  0
 32 33  1  0
 15 10  1  0
 25 20  1  0
 32 23  1  0
  1 34  1  0
  1 35  1  0
  1 36  1  0
  2 37  1  0
  2 38  1  0
  3 39  1  0
  3 40  1  0
  4 41  1  0
  4 42  1  0
  5 43  1  0
  8 44  1  0
  9 45  1  0
  9 46  1  0
 11 47  1  0
 12 48  1  0
 13 49  1  0
 14 50  1  0
 15 51  1  0
 16 52  1  0
 21 53  1  0
 22 54  1  0
 25 55  1  0
 29 56  1  0
 29 57  1  0
 29 58  1  0
 33 59  1  0
 33 60  1  0
 33 61  1  0
M  END
$$$$
