
     RDKit          3D

 50 52  0  0  0  0  0  0  0  0999 V2000
    2.0520   -2.3819   -1.3763 O   0  0  0  0  0  0  0  0  0  0  0  0
    2.2952   -1.0078   -1.0516 C   0  0  0  0  0  0  0  0  0  0  0  0
    3.6082   -0.5725   -1.7176 C   0  0  0  0  0  0  0  0  0  0  0  0
    3.9545    0.7486   -1.3002 O   0  0  0  0  0  0  0  0  0  0  0  0
    5.2005    1.1881   -1.8488 C   0  0  0  0  0  0  0  0  0  0  0  0
    6.3051    0.6976   -0.9662 C   0  0  0  0  0  0  0  0  0  0  0  0
    6.4355    0.8360    0.4028 C   0  0  0  0  0  0  0  0  0  0  0  0
    7.6316    0.2424    0.8980 C   0  0  0  0  0  0  0  0  0  0  0  0
    8.3784   -0.3259   -0.1091 C   0  0  0  0  0  0  0  0  0  0  0  0
    7.6388   -0.1417   -1.6395 S   0  0  0  0  0  0  0  0  0  0  0  0
    1.1125   -0.1329   -1.5363 C   0  0  0  0  0  0  0  0  0  0  0  0
   -0.1889   -0.4478   -0.9008 N   0  0  0  0  0  0  0  0  0  0  0  0
   -1.2829    0.2466   -1.6193 C   0  0  0  0  0  0  0  0  0  0  0  0
   -2.6716   -0.0181   -0.9945 C   0  0  0  0  0  0  0  0  0  0  0  0
   -2.6836    0.3818    0.4286 N   0  0  0  0  0  0  0  0  0  0  0  0
   -3.9144    0.4095    1.1019 C   0  0  0  0  0  0  0  0  0  0  0  0
   -4.0164    1.0939    2.3246 C   0  0  0  0  0  0  0  0  0  0  0  0
   -5.2190    1.1681    3.0323 C   0  0  0  0  0  0  0  0  0  0  0  0
   -6.3608    0.5572    2.5260 C   0  0  0  0  0  0  0  0  0  0  0  0
   -6.3044   -0.1308    1.3086 C   0  0  0  0  0  0  0  0  0  0  0  0
   -7.5382   -0.7743    0.7300 C   0  0  0  0  0  0  0  0  0  0  0  0
   -8.4629   -1.1110    1.6734 F   0  0  0  0  0  0  0  0  0  0  0  0
   -8.1842    0.0396   -0.1503 F   0  0  0  0  0  0  0  0  0  0  0  0
   -7.2725   -1.9241    0.0483 F   0  0  0  0  0  0  0  0  0  0  0  0
   -5.0839   -0.1849    0.6060 C   0  0  0  0  0  0  0  0  0  0  0  0
   -1.6001   -0.2839    1.1923 C   0  0  0  0  0  0  0  0  0  0  0  0
   -0.2247   -0.0416    0.5217 C   0  0  0  0  0  0  0  0  0  0  0  0
    2.5785   -2.9188   -0.7607 H   0  0  0  0  0  0  0  0  0  0  0  0
    2.4031   -0.9191    0.0347 H   0  0  0  0  0  0  0  0  0  0  0  0
    4.4010   -1.2778   -1.4411 H   0  0  0  0  0  0  0  0  0  0  0  0
    3.5068   -0.6060   -2.8095 H   0  0  0  0  0  0  0  0  0  0  0  0
    5.1950    2.2835   -1.8326 H   0  0  0  0  0  0  0  0  0  0  0  0
    5.2991    0.8736   -2.8941 H   0  0  0  0  0  0  0  0  0  0  0  0
    5.6980    1.3385    1.0180 H   0  0  0  0  0  0  0  0  0  0  0  0
    7.9294    0.2339    1.9393 H   0  0  0  0  0  0  0  0  0  0  0  0
    9.3258   -0.8402   -0.0218 H   0  0  0  0  0  0  0  0  0  0  0  0
    1.0085   -0.3082   -2.6156 H   0  0  0  0  0  0  0  0  0  0  0  0
    1.3461    0.9307   -1.4016 H   0  0  0  0  0  0  0  0  0  0  0  0
   -1.3116   -0.0963   -2.6606 H   0  0  0  0  0  0  0  0  0  0  0  0
   -1.0987    1.3295   -1.6337 H   0  0  0  0  0  0  0  0  0  0  0  0
   -2.9145   -1.0839   -1.0962 H   0  0  0  0  0  0  0  0  0  0  0  0
   -3.4120    0.5631   -1.5578 H   0  0  0  0  0  0  0  0  0  0  0  0
   -3.1479    1.6106    2.7266 H   0  0  0  0  0  0  0  0  0  0  0  0
   -5.2607    1.7132    3.9718 H   0  0  0  0  0  0  0  0  0  0  0  0
   -7.2954    0.6237    3.0801 H   0  0  0  0  0  0  0  0  0  0  0  0
   -5.0673   -0.7245   -0.3381 H   0  0  0  0  0  0  0  0  0  0  0  0
   -1.7973   -1.3629    1.2476 H   0  0  0  0  0  0  0  0  0  0  0  0
   -1.5365    0.0932    2.2193 H   0  0  0  0  0  0  0  0  0  0  0  0
    0.5174   -0.6087    1.0932 H   0  0  0  0  0  0  0  0  0  0  0  0
    0.0293    1.0227    0.6163 H   0  0  0  0  0  0  0  0  0  0  0  0
  1  2  1  0
  2  3  1  0
  3  4  1  0
  4  5  1  0
  5  6  1  0
  6  7  2  0
  7  8  1  0
  8  9  2  0
  9 10  1  0
  2 11  1  0
 11 12  1  0
 12 13  1  0
 13 14  1  0
 14 15  1  0
 15 16  1  0
 16 17  2  0
 17 18  1  0
 18 19  2  0
 19 20  1  0
 20 21  1  0
 21 22  1  0
 21 23  1  0
 21 24  1  0
 20 25  2  0
 15 26  1  0
 26 27  1  0
 10  6  1  0
 27 12  1  0
 25 16  1  0
  1 28  1  0
  2 29  1  0
  3 30  1  0
  3 31  1  0
  5 32  1  0
  5 33  1  0
  7 34  1  0
  8 35  1  0
  9 36  1  0
 11 37  1  0
 11 38  1  0
 13 39  1  0
 13 40  1  0
 14 41  1  0
 14 42  1  0
 17 43  1  0
 18 44  1  0
 19 45  1  0
 25 46  1  0
 26 47  1  0
 26 48  1  0
 27 49  1  0
 27 50  1  0
M  END
$$$$
