
     RDKit          3D

 44 46  0  0  0  0  0  0  0  0999 V2000
    6.3231   -0.7227   -2.9552 C   0  0  0  0  0  0  0  0  0  0  0  0
    5.6285    0.5164   -2.9073 O   0  0  0  0  0  0  0  0  0  0  0  0
    5.2683    0.9116   -1.5844 C   0  0  0  0  0  0  0  0  0  0  0  0
    4.0050    0.1985   -1.1135 C   0  0  0  0  0  0  0  0  0  0  0  0
    3.5800    0.6916    0.2705 C   0  0  0  0  0  0  0  0  0  0  0  0
    2.3849   -0.0150    0.7576 N   0  0  0  0  0  0  0  0  0  0  0  0
    2.4811   -1.1904    1.5021 C   0  0  0  0  0  0  0  0  0  0  0  0
    3.8871   -1.9733    1.9811 S   0  0  0  0  0  0  0  0  0  0  0  0
    1.3059   -1.7751    1.8897 N   0  0  0  0  0  0  0  0  0  0  0  0
    0.0461   -1.2762    1.5737 C   0  0  0  0  0  0  0  0  0  0  0  0
   -1.0966   -1.9329    2.0107 C   0  0  0  0  0  0  0  0  0  0  0  0
   -2.3583   -1.4198    1.6800 C   0  0  0  0  0  0  0  0  0  0  0  0
   -2.5168   -0.2527    0.9111 C   0  0  0  0  0  0  0  0  0  0  0  0
   -3.7676    0.2440    0.5955 N   0  0  0  0  0  0  0  0  0  0  0  0
   -4.9730   -0.6031    0.6078 C   0  0  0  0  0  0  0  0  0  0  0  0
   -5.9939   -0.0923   -0.4234 C   0  0  0  0  0  0  0  0  0  0  0  0
   -6.4165    1.2601   -0.2051 O   0  0  0  0  0  0  0  0  0  0  0  0
   -5.4078    2.0780    0.4043 C   0  0  0  0  0  0  0  0  0  0  0  0
   -3.9670    1.6229    0.1152 C   0  0  0  0  0  0  0  0  0  0  0  0
   -1.3377    0.3831    0.4914 C   0  0  0  0  0  0  0  0  0  0  0  0
   -0.0709   -0.1240    0.8195 C   0  0  0  0  0  0  0  0  0  0  0  0
    1.1591    0.5503    0.3672 C   0  0  0  0  0  0  0  0  0  0  0  0
    1.0601    1.5619   -0.3252 O   0  0  0  0  0  0  0  0  0  0  0  0
    6.6069   -0.9144   -3.9937 H   0  0  0  0  0  0  0  0  0  0  0  0
    7.2339   -0.6775   -2.3505 H   0  0  0  0  0  0  0  0  0  0  0  0
    5.6859   -1.5441   -2.6176 H   0  0  0  0  0  0  0  0  0  0  0  0
    5.0832    1.9909   -1.6186 H   0  0  0  0  0  0  0  0  0  0  0  0
    6.1057    0.7478   -0.8958 H   0  0  0  0  0  0  0  0  0  0  0  0
    4.1665   -0.8846   -1.0963 H   0  0  0  0  0  0  0  0  0  0  0  0
    3.2014    0.3600   -1.8427 H   0  0  0  0  0  0  0  0  0  0  0  0
    4.4020    0.5760    0.9840 H   0  0  0  0  0  0  0  0  0  0  0  0
    3.3711    1.7676    0.2278 H   0  0  0  0  0  0  0  0  0  0  0  0
    1.3844   -2.6258    2.4362 H   0  0  0  0  0  0  0  0  0  0  0  0
   -1.0323   -2.8361    2.6107 H   0  0  0  0  0  0  0  0  0  0  0  0
   -3.2287   -1.9472    2.0629 H   0  0  0  0  0  0  0  0  0  0  0  0
   -5.4117   -0.5768    1.6119 H   0  0  0  0  0  0  0  0  0  0  0  0
   -4.7338   -1.6420    0.3537 H   0  0  0  0  0  0  0  0  0  0  0  0
   -6.8892   -0.7222   -0.4089 H   0  0  0  0  0  0  0  0  0  0  0  0
   -5.5727   -0.1488   -1.4342 H   0  0  0  0  0  0  0  0  0  0  0  0
   -5.5572    3.1026    0.0490 H   0  0  0  0  0  0  0  0  0  0  0  0
   -5.5938    2.0774    1.4849 H   0  0  0  0  0  0  0  0  0  0  0  0
   -3.7734    1.6575   -0.9633 H   0  0  0  0  0  0  0  0  0  0  0  0
   -3.2880    2.3191    0.6205 H   0  0  0  0  0  0  0  0  0  0  0  0
   -1.3834    1.2794   -0.1221 H   0  0  0  0  0  0  0  0  0  0  0  0
  1  2  1  0
  2  3  1  0
  3  4  1  0
  4  5  1  0
  5  6  1  0
  6  7  1  0
  7  8  2  0
  7  9  1  0
  9 10  1  0
 10 11  2  0
 11 12  1  0
 12 13  2  0
 13 14  1  0
 14 15  1  0
 15 16  1  0
 16 17  1  0
 17 18  1  0
 18 19  1  0
 13 20  1  0
 20 21  2  0
 21 22  1  0
 22 23  2  0
 22  6  1  0
 21 10  1  0
 19 14  1  0
  1 24  1  0
  1 25  1  0
  1 26  1  0
  3 27  1  0
  3 28  1  0
  4 29  1  0
  4 30  1  0
  5 31  1  0
  5 32  1  0
  9 33  1  0
 11 34  1  0
 12 35  1  0
 15 36  1  0
 15 37  1  0
 16 38  1  0
 16 39  1  0
 18 40  1  0
 18 41  1  0
 19 42  1  0
 19 43  1  0
 20 44  1  0
M  END
$$$$
