
     RDKit          3D

 49 52  0  0  0  0  0  0  0  0999 V2000
    4.9647   -1.6101    2.0829 C   0  0  0  0  0  0  0  0  0  0  0  0
    5.7131   -0.9390    0.9680 C   0  0  0  0  0  0  0  0  0  0  0  0
    6.6095   -1.6727    0.1771 C   0  0  0  0  0  0  0  0  0  0  0  0
    7.3049   -1.0507   -0.8624 C   0  0  0  0  0  0  0  0  0  0  0  0
    8.4057   -1.9653   -1.8184 Cl  0  0  0  0  0  0  0  0  0  0  0  0
    7.1204    0.3046   -1.1298 C   0  0  0  0  0  0  0  0  0  0  0  0
    6.2244    1.0435   -0.3584 C   0  0  0  0  0  0  0  0  0  0  0  0
    5.5102    0.4162    0.6674 C   0  0  0  0  0  0  0  0  0  0  0  0
    4.6501    1.1661    1.4312 O   0  0  0  0  0  0  0  0  0  0  0  0
    3.4088    1.4424    1.0093 C   0  0  0  0  0  0  0  0  0  0  0  0
    2.6654    2.2713    1.7119 N   0  0  0  0  0  0  0  0  0  0  0  0
    1.4237    2.4074    1.1256 C   0  0  0  0  0  0  0  0  0  0  0  0
    1.2180    1.6736   -0.0241 C   0  0  0  0  0  0  0  0  0  0  0  0
    0.0014    1.5986   -0.8942 C   0  0  0  0  0  0  0  0  0  0  0  0
   -0.7169    0.3233   -0.7534 N   0  0  0  0  0  0  0  0  0  0  0  0
   -1.2813    0.1550    0.6074 C   0  0  0  0  0  0  0  0  0  0  0  0
   -2.5528   -0.7230    0.6738 C   0  0  0  0  0  0  0  0  0  0  0  0
   -3.6225   -0.1291   -0.1433 N   0  0  0  0  0  0  0  0  0  0  0  0
   -4.9593   -0.4278    0.0706 C   0  0  0  0  0  0  0  0  0  0  0  0
   -5.9853    0.3535   -0.4884 C   0  0  0  0  0  0  0  0  0  0  0  0
   -7.3398    0.0680   -0.2747 C   0  0  0  0  0  0  0  0  0  0  0  0
   -7.7069   -1.0152    0.5132 C   0  0  0  0  0  0  0  0  0  0  0  0
   -6.7187   -1.8056    1.0860 C   0  0  0  0  0  0  0  0  0  0  0  0
   -5.3667   -1.5104    0.8672 C   0  0  0  0  0  0  0  0  0  0  0  0
   -3.1958    0.5891   -1.3557 C   0  0  0  0  0  0  0  0  0  0  0  0
   -1.7679    0.1750   -1.7833 C   0  0  0  0  0  0  0  0  0  0  0  0
    2.6425    0.7913   -0.3899 S   0  0  0  0  0  0  0  0  0  0  0  0
    5.0102   -1.0072    2.9957 H   0  0  0  0  0  0  0  0  0  0  0  0
    5.3962   -2.5884    2.3198 H   0  0  0  0  0  0  0  0  0  0  0  0
    3.9184   -1.7585    1.7988 H   0  0  0  0  0  0  0  0  0  0  0  0
    6.7713   -2.7301    0.3735 H   0  0  0  0  0  0  0  0  0  0  0  0
    7.6700    0.7886   -1.9324 H   0  0  0  0  0  0  0  0  0  0  0  0
    6.0821    2.1027   -0.5564 H   0  0  0  0  0  0  0  0  0  0  0  0
    0.6937    3.0609    1.5884 H   0  0  0  0  0  0  0  0  0  0  0  0
   -0.6642    2.4464   -0.6840 H   0  0  0  0  0  0  0  0  0  0  0  0
    0.3337    1.7225   -1.9339 H   0  0  0  0  0  0  0  0  0  0  0  0
   -0.5153   -0.2877    1.2544 H   0  0  0  0  0  0  0  0  0  0  0  0
   -1.5440    1.1329    1.0346 H   0  0  0  0  0  0  0  0  0  0  0  0
   -2.8552   -0.7789    1.7265 H   0  0  0  0  0  0  0  0  0  0  0  0
   -2.3323   -1.7393    0.3254 H   0  0  0  0  0  0  0  0  0  0  0  0
   -5.7462    1.2262   -1.0894 H   0  0  0  0  0  0  0  0  0  0  0  0
   -8.1023    0.7000   -0.7216 H   0  0  0  0  0  0  0  0  0  0  0  0
   -8.7559   -1.2405    0.6820 H   0  0  0  0  0  0  0  0  0  0  0  0
   -6.9920   -2.6572    1.7031 H   0  0  0  0  0  0  0  0  0  0  0  0
   -4.6335   -2.1696    1.3226 H   0  0  0  0  0  0  0  0  0  0  0  0
   -3.2293    1.6688   -1.1676 H   0  0  0  0  0  0  0  0  0  0  0  0
   -3.8628    0.3687   -2.1982 H   0  0  0  0  0  0  0  0  0  0  0  0
   -1.4969    0.6988   -2.7084 H   0  0  0  0  0  0  0  0  0  0  0  0
   -1.7946   -0.8891   -2.0545 H   0  0  0  0  0  0  0  0  0  0  0  0
  1  2  1  0
  2  3  2  0
  3  4  1  0
  4  5  1  0
  4  6  2  0
  6  7  1  0
  7  8  2  0
  8  9  1  0
  9 10  1  0
 10 11  2  0
 11 12  1  0
 12 13  2  0
 13 14  1  0
 14 15  1  0
 15 16  1  0
 16 17  1  0
 17 18  1  0
 18 19  1  0
 19 20  2  0
 20 21  1  0
 21 22  2  0
 22 23  1  0
 23 24  2  0
 18 25  1  0
 25 26  1  0
 13 27  1  0
  8  2  1  0
 27 10  1  0
 26 15  1  0
 24 19  1  0
  1 28  1  0
  1 29  1  0
  1 30  1  0
  3 31  1  0
  6 32  1  0
  7 33  1  0
 12 34  1  0
 14 35  1  0
 14 36  1  0
 16 37  1  0
 16 38  1  0
 17 39  1  0
 17 40  1  0
 20 41  1  0
 21 42  1  0
 22 43  1  0
 23 44  1  0
 24 45  1  0
 25 46  1  0
 25 47  1  0
 26 48  1  0
 26 49  1  0
M  END
$$$$
