
     RDKit          3D

 49 51  0  0  0  0  0  0  0  0999 V2000
   -8.3652    2.9431    3.3798 C   0  0  0  0  0  0  0  0  0  0  0  0
   -7.7144    1.6797    3.3685 O   0  0  0  0  0  0  0  0  0  0  0  0
   -6.4663    1.6338    2.8142 C   0  0  0  0  0  0  0  0  0  0  0  0
   -5.8932    0.3627    2.7678 C   0  0  0  0  0  0  0  0  0  0  0  0
   -4.6208    0.1737    2.2196 C   0  0  0  0  0  0  0  0  0  0  0  0
   -3.8985    1.2579    1.7079 C   0  0  0  0  0  0  0  0  0  0  0  0
   -2.6293    0.9840    1.1563 N   0  0  0  0  0  0  0  0  0  0  0  0
   -1.7392    1.8913    0.6109 C   0  0  0  0  0  0  0  0  0  0  0  0
   -1.8623    3.1082    0.5650 O   0  0  0  0  0  0  0  0  0  0  0  0
   -0.5092    1.2565    0.0537 C   0  0  0  0  0  0  0  0  0  0  0  0
    0.7438    1.8077    0.4477 C   0  0  0  0  0  0  0  0  0  0  0  0
    1.7795    2.2343    0.7558 N   0  0  0  0  0  0  0  0  0  0  0  0
   -0.6540    0.2586   -0.8421 C   0  0  0  0  0  0  0  0  0  0  0  0
    0.4403   -0.4474   -1.5193 C   0  0  0  0  0  0  0  0  0  0  0  0
    1.3536    0.2283   -2.3374 C   0  0  0  0  0  0  0  0  0  0  0  0
    2.3824   -0.4681   -2.9815 C   0  0  0  0  0  0  0  0  0  0  0  0
    2.5079   -1.8451   -2.8094 C   0  0  0  0  0  0  0  0  0  0  0  0
    3.4634   -2.6304   -3.3896 O   0  0  0  0  0  0  0  0  0  0  0  0
    4.7630   -2.0629   -3.5725 C   0  0  0  0  0  0  0  0  0  0  0  0
    5.5207   -1.9385   -2.2768 C   0  0  0  0  0  0  0  0  0  0  0  0
    5.7503   -0.6887   -1.6851 C   0  0  0  0  0  0  0  0  0  0  0  0
    6.4420   -0.5956   -0.4741 C   0  0  0  0  0  0  0  0  0  0  0  0
    6.9105   -1.7472    0.1584 C   0  0  0  0  0  0  0  0  0  0  0  0
    6.6856   -2.9945   -0.4198 C   0  0  0  0  0  0  0  0  0  0  0  0
    5.9948   -3.0809   -1.6261 C   0  0  0  0  0  0  0  0  0  0  0  0
    5.7943   -4.2914   -2.1672 F   0  0  0  0  0  0  0  0  0  0  0  0
    1.5731   -2.5269   -2.0284 C   0  0  0  0  0  0  0  0  0  0  0  0
    0.5452   -1.8350   -1.3835 C   0  0  0  0  0  0  0  0  0  0  0  0
   -4.4722    2.5296    1.7597 C   0  0  0  0  0  0  0  0  0  0  0  0
   -5.7483    2.7176    2.3109 C   0  0  0  0  0  0  0  0  0  0  0  0
   -7.8238    3.6586    4.0079 H   0  0  0  0  0  0  0  0  0  0  0  0
   -8.4995    3.3303    2.3631 H   0  0  0  0  0  0  0  0  0  0  0  0
   -9.3591    2.8007    3.8152 H   0  0  0  0  0  0  0  0  0  0  0  0
   -6.4438   -0.4902    3.1597 H   0  0  0  0  0  0  0  0  0  0  0  0
   -4.2132   -0.8343    2.2021 H   0  0  0  0  0  0  0  0  0  0  0  0
   -2.3427    0.0134    1.1919 H   0  0  0  0  0  0  0  0  0  0  0  0
   -1.6459   -0.0869   -1.1333 H   0  0  0  0  0  0  0  0  0  0  0  0
    1.2754    1.3032   -2.4929 H   0  0  0  0  0  0  0  0  0  0  0  0
    3.0550    0.0916   -3.6222 H   0  0  0  0  0  0  0  0  0  0  0  0
    4.7270   -1.1173   -4.1252 H   0  0  0  0  0  0  0  0  0  0  0  0
    5.3149   -2.7480   -4.2284 H   0  0  0  0  0  0  0  0  0  0  0  0
    5.3862    0.2225   -2.1556 H   0  0  0  0  0  0  0  0  0  0  0  0
    6.6100    0.3794   -0.0213 H   0  0  0  0  0  0  0  0  0  0  0  0
    7.4474   -1.6712    1.1015 H   0  0  0  0  0  0  0  0  0  0  0  0
    7.0413   -3.9006    0.0604 H   0  0  0  0  0  0  0  0  0  0  0  0
    1.6562   -3.6055   -1.9121 H   0  0  0  0  0  0  0  0  0  0  0  0
   -0.1605   -2.3946   -0.7738 H   0  0  0  0  0  0  0  0  0  0  0  0
   -3.9567    3.4072    1.3796 H   0  0  0  0  0  0  0  0  0  0  0  0
   -6.1457    3.7276    2.3298 H   0  0  0  0  0  0  0  0  0  0  0  0
  1  2  1  0
  2  3  1  0
  3  4  2  0
  4  5  1  0
  5  6  2  0
  6  7  1  0
  7  8  1  0
  8  9  2  0
  8 10  1  0
 10 11  1  0
 11 12  3  0
 10 13  2  3
 13 14  1  0
 14 15  2  0
 15 16  1  0
 16 17  2  0
 17 18  1  0
 18 19  1  0
 19 20  1  0
 20 21  2  0
 21 22  1  0
 22 23  2  0
 23 24  1  0
 24 25  2  0
 25 26  1  0
 17 27  1  0
 27 28  2  0
  6 29  1  0
 29 30  2  0
 30  3  1  0
 28 14  1  0
 25 20  1  0
  1 31  1  0
  1 32  1  0
  1 33  1  0
  4 34  1  0
  5 35  1  0
  7 36  1  0
 13 37  1  0
 15 38  1  0
 16 39  1  0
 19 40  1  0
 19 41  1  0
 21 42  1  0
 22 43  1  0
 23 44  1  0
 24 45  1  0
 27 46  1  0
 28 47  1  0
 29 48  1  0
 30 49  1  0
M  END
$$$$
