
     RDKit          3D

 80 86  0  0  0  0  0  0  0  0999 V2000
   -4.9769   -1.8315    1.3489 C   0  0  0  0  0  0  0  0  0  0  0  0
   -3.6947   -1.0669    1.5059 C   0  0  0  0  0  0  0  0  0  0  0  0
   -3.4743   -0.2877    2.6703 C   0  0  0  0  0  0  0  0  0  0  0  0
   -4.6468   -0.1677    3.9443 Cl  0  0  0  0  0  0  0  0  0  0  0  0
   -2.2940    0.4472    2.8647 C   0  0  0  0  0  0  0  0  0  0  0  0
   -1.2957    0.4403    1.9033 C   0  0  0  0  0  0  0  0  0  0  0  0
   -1.5011   -0.3009    0.7445 C   0  0  0  0  0  0  0  0  0  0  0  0
   -2.6897   -1.0348    0.5256 C   0  0  0  0  0  0  0  0  0  0  0  0
   -2.6135   -1.6254   -0.7645 N   0  0  0  0  0  0  0  0  0  0  0  0
   -3.6040   -2.4270   -1.4462 C   0  0  0  0  0  0  0  0  0  0  0  0
   -4.8001   -1.6702   -1.9810 C   0  0  0  0  0  0  0  0  0  0  0  0
   -6.0571   -2.2967   -2.0144 C   0  0  0  0  0  0  0  0  0  0  0  0
   -7.1742   -1.6275   -2.5179 C   0  0  0  0  0  0  0  0  0  0  0  0
   -7.0463   -0.3323   -3.0130 C   0  0  0  0  0  0  0  0  0  0  0  0
   -5.7981    0.2874   -3.0218 C   0  0  0  0  0  0  0  0  0  0  0  0
   -4.6811   -0.3795   -2.5157 C   0  0  0  0  0  0  0  0  0  0  0  0
   -1.4107   -1.2872   -1.4240 C   0  0  0  0  0  0  0  0  0  0  0  0
   -1.0882   -1.6333   -2.5543 O   0  0  0  0  0  0  0  0  0  0  0  0
   -0.5843   -0.4391   -0.4433 C   0  0  1  0  0  0  0  0  0  0  0  0
   -0.2736    0.9258   -0.9185 C   0  0  0  0  0  0  0  0  0  0  0  0
    1.1015    1.1639   -0.9293 C   0  0  0  0  0  0  0  0  0  0  0  0
    1.3274    2.4326   -1.3976 C   0  0  0  0  0  0  0  0  0  0  0  0
    2.4704    3.0905   -1.5723 O   0  0  0  0  0  0  0  0  0  0  0  0
    0.0665    3.0225   -1.6165 N   0  0  0  0  0  0  0  0  0  0  0  0
   -0.1857    4.3874   -1.9637 C   0  0  0  0  0  0  0  0  0  0  0  0
    0.7138    5.1017   -2.7635 C   0  0  0  0  0  0  0  0  0  0  0  0
    0.4493    6.4316   -3.1028 C   0  0  0  0  0  0  0  0  0  0  0  0
   -0.7038    7.0601   -2.6375 C   0  0  0  0  0  0  0  0  0  0  0  0
   -1.5945    6.3619   -1.8253 C   0  0  0  0  0  0  0  0  0  0  0  0
   -1.3385    5.0314   -1.4866 C   0  0  0  0  0  0  0  0  0  0  0  0
   -0.9145    2.0332   -1.4049 C   0  0  0  0  0  0  0  0  0  0  0  0
   -2.2094    2.1731   -1.6840 O   0  0  0  0  0  0  0  0  0  0  0  0
    1.8571   -0.0231   -0.4772 C   0  0  1  0  0  0  0  0  0  0  0  0
    2.7437    0.2084    0.7595 C   0  0  0  0  0  0  0  0  0  0  0  0
    3.2979   -1.0488    1.2668 N   0  0  0  0  0  0  0  0  0  0  0  0
    4.5759   -1.0784    1.7842 C   0  0  0  0  0  0  0  0  0  0  0  0
    5.2738   -0.0812    1.9137 O   0  0  0  0  0  0  0  0  0  0  0  0
    4.9567   -2.3384    2.1149 O   0  0  0  0  0  0  0  0  0  0  0  0
    6.2729   -2.6047    2.6625 C   0  0  0  0  0  0  0  0  0  0  0  0
    6.3047   -4.1270    2.8709 C   0  0  0  0  0  0  0  0  0  0  0  0
    6.4596   -1.9193    4.0200 C   0  0  0  0  0  0  0  0  0  0  0  0
    7.3777   -2.2272    1.6693 C   0  0  0  0  0  0  0  0  0  0  0  0
    2.4726   -2.2521    1.1124 C   0  0  0  0  0  0  0  0  0  0  0  0
    0.9833   -1.9153    0.8993 C   0  0  0  0  0  0  0  0  0  0  0  0
    0.7754   -1.0371   -0.2484 N   0  0  0  0  0  0  0  0  0  0  0  0
   -5.5098   -1.9781    2.2914 H   0  0  0  0  0  0  0  0  0  0  0  0
   -5.6517   -1.2986    0.6753 H   0  0  0  0  0  0  0  0  0  0  0  0
   -4.7901   -2.8458    0.9933 H   0  0  0  0  0  0  0  0  0  0  0  0
   -2.1577    1.0370    3.7686 H   0  0  0  0  0  0  0  0  0  0  0  0
   -0.3889    1.0200    2.0474 H   0  0  0  0  0  0  0  0  0  0  0  0
   -3.1350   -2.9182   -2.3090 H   0  0  0  0  0  0  0  0  0  0  0  0
   -3.9013   -3.2449   -0.7848 H   0  0  0  0  0  0  0  0  0  0  0  0
   -6.1770   -3.3105   -1.6392 H   0  0  0  0  0  0  0  0  0  0  0  0
   -8.1460   -2.1162   -2.5213 H   0  0  0  0  0  0  0  0  0  0  0  0
   -7.9150    0.1899   -3.4055 H   0  0  0  0  0  0  0  0  0  0  0  0
   -5.6916    1.2911   -3.4232 H   0  0  0  0  0  0  0  0  0  0  0  0
   -3.7140    0.1187   -2.5444 H   0  0  0  0  0  0  0  0  0  0  0  0
    3.2079    2.4856   -1.3796 H   0  0  0  0  0  0  0  0  0  0  0  0
    1.6119    4.6382   -3.1637 H   0  0  0  0  0  0  0  0  0  0  0  0
    1.1478    6.9765   -3.7339 H   0  0  0  0  0  0  0  0  0  0  0  0
   -0.9026    8.0963   -2.8992 H   0  0  0  0  0  0  0  0  0  0  0  0
   -2.4821    6.8591   -1.4406 H   0  0  0  0  0  0  0  0  0  0  0  0
   -2.0257    4.5345   -0.8032 H   0  0  0  0  0  0  0  0  0  0  0  0
   -2.3147    2.9016   -2.3244 H   0  0  0  0  0  0  0  0  0  0  0  0
    2.4817   -0.3941   -1.2999 H   0  0  0  0  0  0  0  0  0  0  0  0
    2.1671    0.6551    1.5797 H   0  0  0  0  0  0  0  0  0  0  0  0
    3.5512    0.9101    0.5213 H   0  0  0  0  0  0  0  0  0  0  0  0
    7.2610   -4.4607    3.2882 H   0  0  0  0  0  0  0  0  0  0  0  0
    6.1409   -4.6524    1.9224 H   0  0  0  0  0  0  0  0  0  0  0  0
    5.5006   -4.4461    3.5448 H   0  0  0  0  0  0  0  0  0  0  0  0
    5.6194   -2.1430    4.6873 H   0  0  0  0  0  0  0  0  0  0  0  0
    7.3853   -2.2455    4.5062 H   0  0  0  0  0  0  0  0  0  0  0  0
    6.5061   -0.8295    3.9264 H   0  0  0  0  0  0  0  0  0  0  0  0
    7.4616   -1.1434    1.5417 H   0  0  0  0  0  0  0  0  0  0  0  0
    8.3552   -2.5902    2.0044 H   0  0  0  0  0  0  0  0  0  0  0  0
    7.1709   -2.6455    0.6775 H   0  0  0  0  0  0  0  0  0  0  0  0
    2.5865   -2.8847    1.9998 H   0  0  0  0  0  0  0  0  0  0  0  0
    2.8664   -2.8085    0.2531 H   0  0  0  0  0  0  0  0  0  0  0  0
    0.4203   -2.8451    0.7595 H   0  0  0  0  0  0  0  0  0  0  0  0
    0.6320   -1.4516    1.8269 H   0  0  0  0  0  0  0  0  0  0  0  0
  1  2  1  0
  2  3  2  0
  3  4  1  0
  3  5  1  0
  5  6  2  0
  6  7  1  0
  7  8  2  0
  8  9  1  0
  9 10  1  0
 10 11  1  0
 11 12  2  0
 12 13  1  0
 13 14  2  0
 14 15  1  0
 15 16  2  0
  9 17  1  0
 17 18  2  0
 17 19  1  0
 19 20  1  0
 20 21  1  0
 21 22  2  0
 22 23  1  0
 22 24  1  0
 24 25  1  0
 25 26  2  0
 26 27  1  0
 27 28  2  0
 28 29  1  0
 29 30  2  0
 24 31  1  0
 31 32  1  0
 21 33  1  0
 33 34  1  0
 34 35  1  0
 35 36  1  0
 36 37  2  0
 36 38  1  0
 38 39  1  0
 39 40  1  0
 39 41  1  0
 39 42  1  0
 35 43  1  0
 43 44  1  0
 44 45  1  0
  8  2  1  0
 16 11  1  0
 19 45  1  1
 19  7  1  0
 31 20  2  0
 45 33  1  0
 30 25  1  0
  1 46  1  0
  1 47  1  0
  1 48  1  0
  5 49  1  0
  6 50  1  0
 10 51  1  0
 10 52  1  0
 12 53  1  0
 13 54  1  0
 14 55  1  0
 15 56  1  0
 16 57  1  0
 23 58  1  0
 26 59  1  0
 27 60  1  0
 28 61  1  0
 29 62  1  0
 30 63  1  0
 32 64  1  0
 33 65  1  6
 34 66  1  0
 34 67  1  0
 40 68  1  0
 40 69  1  0
 40 70  1  0
 41 71  1  0
 41 72  1  0
 41 73  1  0
 42 74  1  0
 42 75  1  0
 42 76  1  0
 43 77  1  0
 43 78  1  0
 44 79  1  0
 44 80  1  0
M  END
$$$$
