
     RDKit          3D

 42 44  0  0  0  0  0  0  0  0999 V2000
   -1.1880   -4.2175   -1.5819 C   0  0  0  0  0  0  0  0  0  0  0  0
   -1.4584   -4.2795   -0.0881 C   0  0  0  0  0  0  0  0  0  0  0  0
   -2.7061   -3.0514    0.4261 S   0  0  0  0  0  0  0  0  0  0  0  0
   -1.7475   -1.5402    0.4347 C   0  0  0  0  0  0  0  0  0  0  0  0
   -2.4133   -0.3449    0.6040 C   0  0  0  0  0  0  0  0  0  0  0  0
   -1.6602    0.8100    0.6118 C   0  0  0  0  0  0  0  0  0  0  0  0
   -2.2341    2.0477    0.7852 N   0  0  0  0  0  0  0  0  0  0  0  0
   -3.6313    2.3486    0.4964 C   0  0  0  0  0  0  0  0  0  0  0  0
   -3.6337    3.8426    0.1692 C   0  0  0  0  0  0  0  0  0  0  0  0
   -2.4156    4.3732    0.9084 C   0  0  0  0  0  0  0  0  0  0  0  0
   -1.4033    3.2452    0.7352 C   0  0  0  0  0  0  0  0  0  0  0  0
   -0.3244    0.7453    0.4803 N   0  0  0  0  0  0  0  0  0  0  0  0
    0.2517   -0.4610    0.3246 C   0  0  0  0  0  0  0  0  0  0  0  0
    1.7208   -0.5088    0.1712 C   0  0  0  0  0  0  0  0  0  0  0  0
    2.4035   -1.7255   -0.0163 C   0  0  0  0  0  0  0  0  0  0  0  0
    3.7951   -1.7726   -0.1634 C   0  0  0  0  0  0  0  0  0  0  0  0
    4.5502   -0.5979   -0.1377 C   0  0  0  0  0  0  0  0  0  0  0  0
    6.0437   -0.6486   -0.2606 C   0  0  0  0  0  0  0  0  0  0  0  0
    3.8950    0.6193    0.0626 C   0  0  0  0  0  0  0  0  0  0  0  0
    2.5033    0.6607    0.2090 C   0  0  0  0  0  0  0  0  0  0  0  0
   -0.4190   -1.6217    0.2938 N   0  0  0  0  0  0  0  0  0  0  0  0
   -2.1019   -4.3897   -2.1606 H   0  0  0  0  0  0  0  0  0  0  0  0
   -0.4704   -4.9966   -1.8604 H   0  0  0  0  0  0  0  0  0  0  0  0
   -0.7625   -3.2564   -1.8859 H   0  0  0  0  0  0  0  0  0  0  0  0
   -1.8622   -5.2679    0.1558 H   0  0  0  0  0  0  0  0  0  0  0  0
   -0.5354   -4.1660    0.4887 H   0  0  0  0  0  0  0  0  0  0  0  0
   -3.4857   -0.3242    0.7387 H   0  0  0  0  0  0  0  0  0  0  0  0
   -4.0283    1.7806   -0.3522 H   0  0  0  0  0  0  0  0  0  0  0  0
   -4.2438    2.1453    1.3817 H   0  0  0  0  0  0  0  0  0  0  0  0
   -4.5628    4.3349    0.4698 H   0  0  0  0  0  0  0  0  0  0  0  0
   -3.5052    3.9877   -0.9104 H   0  0  0  0  0  0  0  0  0  0  0  0
   -2.0561    5.3253    0.5088 H   0  0  0  0  0  0  0  0  0  0  0  0
   -2.6526    4.5101    1.9705 H   0  0  0  0  0  0  0  0  0  0  0  0
   -0.6524    3.2668    1.5322 H   0  0  0  0  0  0  0  0  0  0  0  0
   -0.9040    3.3326   -0.2377 H   0  0  0  0  0  0  0  0  0  0  0  0
    1.8476   -2.6612   -0.0467 H   0  0  0  0  0  0  0  0  0  0  0  0
    4.2808   -2.7364   -0.2984 H   0  0  0  0  0  0  0  0  0  0  0  0
    6.4971   -0.7610    0.7291 H   0  0  0  0  0  0  0  0  0  0  0  0
    6.3556   -1.4883   -0.8905 H   0  0  0  0  0  0  0  0  0  0  0  0
    6.4288    0.2655   -0.7247 H   0  0  0  0  0  0  0  0  0  0  0  0
    4.4594    1.5481    0.1066 H   0  0  0  0  0  0  0  0  0  0  0  0
    2.0255    1.6278    0.3590 H   0  0  0  0  0  0  0  0  0  0  0  0
  1  2  1  0
  2  3  1  0
  3  4  1  0
  4  5  2  0
  5  6  1  0
  6  7  1  0
  7  8  1  0
  8  9  1  0
  9 10  1  0
 10 11  1  0
  6 12  2  0
 12 13  1  0
 13 14  1  0
 14 15  2  0
 15 16  1  0
 16 17  2  0
 17 18  1  0
 17 19  1  0
 19 20  2  0
 13 21  2  0
 21  4  1  0
 11  7  1  0
 20 14  1  0
  1 22  1  0
  1 23  1  0
  1 24  1  0
  2 25  1  0
  2 26  1  0
  5 27  1  0
  8 28  1  0
  8 29  1  0
  9 30  1  0
  9 31  1  0
 10 32  1  0
 10 33  1  0
 11 34  1  0
 11 35  1  0
 15 36  1  0
 16 37  1  0
 18 38  1  0
 18 39  1  0
 18 40  1  0
 19 41  1  0
 20 42  1  0
M  END
$$$$
