
     RDKit          3D

 69 71  0  0  0  0  0  0  0  0999 V2000
    9.7965    1.9483    1.3452 C   0  0  0  0  0  0  0  0  0  0  0  0
    8.5829    1.5908    0.5007 C   0  0  0  0  0  0  0  0  0  0  0  0
    7.2929    2.1250    1.1243 C   0  0  0  0  0  0  0  0  0  0  0  0
    6.0552    1.8966    0.2519 C   0  0  0  0  0  0  0  0  0  0  0  0
    5.6946    0.4192    0.0813 C   0  0  0  0  0  0  0  0  0  0  0  0
    4.3929    0.2539   -0.7085 C   0  0  0  0  0  0  0  0  0  0  0  0
    4.0349   -1.2240   -0.8806 C   0  0  0  0  0  0  0  0  0  0  0  0
    2.8024   -1.4542   -1.7595 C   0  0  0  0  0  0  0  0  0  0  0  0
    1.5106   -0.9189   -1.1446 C   0  0  0  0  0  0  0  0  0  0  0  0
    0.2944   -1.2898   -1.9885 C   0  0  0  0  0  0  0  0  0  0  0  0
   -0.9030   -0.8152   -1.3454 O   0  0  0  0  0  0  0  0  0  0  0  0
   -1.2876    0.4540   -1.6709 C   0  0  0  0  0  0  0  0  0  0  0  0
   -0.6942    1.1963   -2.4408 O   0  0  0  0  0  0  0  0  0  0  0  0
   -2.5370    0.8593   -0.9033 C   0  0  0  0  0  0  0  0  0  0  0  0
   -3.5013   -0.2596   -0.7649 N   0  0  0  0  0  0  0  0  0  0  0  0
   -3.5143   -1.1678    0.2416 C   0  0  0  0  0  0  0  0  0  0  0  0
   -2.6610   -1.1647    1.5030 C   0  0  0  0  0  0  0  0  0  0  0  0
   -2.5121    0.1184    2.1007 O   0  0  0  0  0  0  0  0  0  0  0  0
   -3.5986    0.6953    2.6947 C   0  0  0  0  0  0  0  0  0  0  0  0
   -4.8299    0.0867    2.9394 C   0  0  0  0  0  0  0  0  0  0  0  0
   -5.8642    0.8142    3.5405 C   0  0  0  0  0  0  0  0  0  0  0  0
   -5.6657    2.1449    3.9025 C   0  0  0  0  0  0  0  0  0  0  0  0
   -6.9436    3.0314    4.6317 Cl  0  0  0  0  0  0  0  0  0  0  0  0
   -4.4365    2.7549    3.6762 C   0  0  0  0  0  0  0  0  0  0  0  0
   -3.4058    2.0277    3.0763 C   0  0  0  0  0  0  0  0  0  0  0  0
   -4.4288   -2.1122   -0.0941 N   0  0  0  0  0  4  0  0  0  0  0  0
   -4.6728   -3.3471    0.6500 C   0  0  0  0  0  0  0  0  0  0  0  0
   -5.0989   -1.7366   -1.2554 C   0  0  0  0  0  0  0  0  0  0  0  0
   -6.1499   -2.3326   -1.9502 C   0  0  0  0  0  0  0  0  0  0  0  0
   -6.5635   -1.6847   -3.1216 C   0  0  0  0  0  0  0  0  0  0  0  0
   -5.9469   -0.5020   -3.5684 C   0  0  0  0  0  0  0  0  0  0  0  0
   -4.8914    0.0900   -2.8623 C   0  0  0  0  0  0  0  0  0  0  0  0
   -4.4934   -0.5576   -1.6939 C   0  0  0  0  0  0  0  0  0  0  0  0
   10.7081    1.5560    0.8833 H   0  0  0  0  0  0  0  0  0  0  0  0
    9.9039    3.0337    1.4390 H   0  0  0  0  0  0  0  0  0  0  0  0
    9.7139    1.5226    2.3503 H   0  0  0  0  0  0  0  0  0  0  0  0
    8.7112    2.0062   -0.5055 H   0  0  0  0  0  0  0  0  0  0  0  0
    8.5350    0.5012    0.4013 H   0  0  0  0  0  0  0  0  0  0  0  0
    7.1392    1.6658    2.1085 H   0  0  0  0  0  0  0  0  0  0  0  0
    7.3969    3.2043    1.2925 H   0  0  0  0  0  0  0  0  0  0  0  0
    6.2092    2.3565   -0.7319 H   0  0  0  0  0  0  0  0  0  0  0  0
    5.2098    2.4196    0.7161 H   0  0  0  0  0  0  0  0  0  0  0  0
    5.5872   -0.0496    1.0669 H   0  0  0  0  0  0  0  0  0  0  0  0
    6.5005   -0.1055   -0.4436 H   0  0  0  0  0  0  0  0  0  0  0  0
    4.4992    0.7243   -1.6934 H   0  0  0  0  0  0  0  0  0  0  0  0
    3.5866    0.7775   -0.1831 H   0  0  0  0  0  0  0  0  0  0  0  0
    3.8762   -1.6839    0.1024 H   0  0  0  0  0  0  0  0  0  0  0  0
    4.8833   -1.7469   -1.3393 H   0  0  0  0  0  0  0  0  0  0  0  0
    2.6993   -2.5338   -1.9255 H   0  0  0  0  0  0  0  0  0  0  0  0
    2.9614   -0.9977   -2.7441 H   0  0  0  0  0  0  0  0  0  0  0  0
    1.5569    0.1706   -1.0393 H   0  0  0  0  0  0  0  0  0  0  0  0
    1.3794   -1.3146   -0.1298 H   0  0  0  0  0  0  0  0  0  0  0  0
    0.3741   -0.9070   -3.0128 H   0  0  0  0  0  0  0  0  0  0  0  0
    0.2021   -2.3789   -2.0594 H   0  0  0  0  0  0  0  0  0  0  0  0
   -2.2380    1.2452    0.0692 H   0  0  0  0  0  0  0  0  0  0  0  0
   -3.0294    1.6761   -1.4404 H   0  0  0  0  0  0  0  0  0  0  0  0
   -1.6775   -1.5080    1.1697 H   0  0  0  0  0  0  0  0  0  0  0  0
   -3.0563   -1.8972    2.2109 H   0  0  0  0  0  0  0  0  0  0  0  0
   -5.0312   -0.9491    2.6982 H   0  0  0  0  0  0  0  0  0  0  0  0
   -6.8227    0.3365    3.7324 H   0  0  0  0  0  0  0  0  0  0  0  0
   -4.2720    3.7898    3.9667 H   0  0  0  0  0  0  0  0  0  0  0  0
   -2.4444    2.5108    2.9119 H   0  0  0  0  0  0  0  0  0  0  0  0
   -3.7213   -3.7589    0.9959 H   0  0  0  0  0  0  0  0  0  0  0  0
   -5.1521   -4.0945    0.0139 H   0  0  0  0  0  0  0  0  0  0  0  0
   -5.3179   -3.1245    1.5032 H   0  0  0  0  0  0  0  0  0  0  0  0
   -6.6244   -3.2444   -1.6102 H   0  0  0  0  0  0  0  0  0  0  0  0
   -7.3825   -2.1073   -3.7054 H   0  0  0  0  0  0  0  0  0  0  0  0
   -6.3015   -0.0352   -4.4885 H   0  0  0  0  0  0  0  0  0  0  0  0
   -4.4195    1.0004   -3.2114 H   0  0  0  0  0  0  0  0  0  0  0  0
  1  2  1  0
  2  3  1  0
  3  4  1  0
  4  5  1  0
  5  6  1  0
  6  7  1  0
  7  8  1  0
  8  9  1  0
  9 10  1  0
 10 11  1  0
 11 12  1  0
 12 13  2  0
 12 14  1  0
 14 15  1  0
 15 16  1  0
 16 17  1  0
 17 18  1  0
 18 19  1  0
 19 20  2  0
 20 21  1  0
 21 22  2  0
 22 23  1  0
 22 24  1  0
 24 25  2  0
 16 26  2  0
 26 27  1  0
 26 28  1  0
 28 29  2  0
 29 30  1  0
 30 31  2  0
 31 32  1  0
 32 33  2  0
 33 15  1  0
 25 19  1  0
 33 28  1  0
  1 34  1  0
  1 35  1  0
  1 36  1  0
  2 37  1  0
  2 38  1  0
  3 39  1  0
  3 40  1  0
  4 41  1  0
  4 42  1  0
  5 43  1  0
  5 44  1  0
  6 45  1  0
  6 46  1  0
  7 47  1  0
  7 48  1  0
  8 49  1  0
  8 50  1  0
  9 51  1  0
  9 52  1  0
 10 53  1  0
 10 54  1  0
 14 55  1  0
 14 56  1  0
 17 57  1  0
 17 58  1  0
 20 59  1  0
 21 60  1  0
 24 61  1  0
 25 62  1  0
 27 63  1  0
 27 64  1  0
 27 65  1  0
 29 66  1  0
 30 67  1  0
 31 68  1  0
 32 69  1  0
M  CHG  1  26   1
M  END
$$$$
