
     RDKit          3D

 45 47  0  0  0  0  0  0  0  0999 V2000
   -3.8994   -2.8813    0.5755 C   0  0  0  0  0  0  0  0  0  0  0  0
   -3.3016   -2.1131   -0.9538 S   0  0  0  0  0  0  0  0  0  0  0  0
   -3.7554   -0.4142   -0.6228 C   0  0  0  0  0  0  0  0  0  0  0  0
   -4.6877    0.1825   -1.4828 C   0  0  0  0  0  0  0  0  0  0  0  0
   -5.1235    1.4925   -1.2659 C   0  0  0  0  0  0  0  0  0  0  0  0
   -4.6353    2.2201   -0.1832 C   0  0  0  0  0  0  0  0  0  0  0  0
   -3.6968    1.6452    0.6718 C   0  0  0  0  0  0  0  0  0  0  0  0
   -3.2348    0.3470    0.4358 C   0  0  0  0  0  0  0  0  0  0  0  0
   -2.3129   -0.1539    1.3203 O   0  0  0  0  0  0  0  0  0  0  0  0
   -0.9707   -0.0671    0.8042 C   0  0  0  0  0  0  0  0  0  0  0  0
   -0.2910    1.2017    1.3242 C   0  0  0  0  0  0  0  0  0  0  0  0
    1.1894    1.2224    0.9495 C   0  0  0  0  0  0  0  0  0  0  0  0
    1.8672    0.0248    1.4496 N   0  0  0  0  0  0  0  0  0  0  0  0
    3.3305    0.0770    1.3065 C   0  0  0  0  0  0  0  0  0  0  0  0
    3.8817    0.1235   -0.1034 C   0  0  0  0  0  0  0  0  0  0  0  0
    4.1807   -1.0602   -0.7947 C   0  0  0  0  0  0  0  0  0  0  0  0
    4.6887   -1.0164   -2.0942 C   0  0  0  0  0  0  0  0  0  0  0  0
    4.9077    0.2106   -2.7169 C   0  0  0  0  0  0  0  0  0  0  0  0
    4.6212    1.3945   -2.0405 C   0  0  0  0  0  0  0  0  0  0  0  0
    4.1130    1.3518   -0.7410 C   0  0  0  0  0  0  0  0  0  0  0  0
    1.2737   -1.2047    0.9188 C   0  0  0  0  0  0  0  0  0  0  0  0
   -0.2018   -1.2938    1.2977 C   0  0  0  0  0  0  0  0  0  0  0  0
   -3.8158   -3.9675    0.4818 H   0  0  0  0  0  0  0  0  0  0  0  0
   -4.9497   -2.6295    0.7470 H   0  0  0  0  0  0  0  0  0  0  0  0
   -3.3048   -2.5678    1.4364 H   0  0  0  0  0  0  0  0  0  0  0  0
   -5.0939   -0.3748   -2.3243 H   0  0  0  0  0  0  0  0  0  0  0  0
   -5.8531    1.9386   -1.9373 H   0  0  0  0  0  0  0  0  0  0  0  0
   -4.9853    3.2335   -0.0043 H   0  0  0  0  0  0  0  0  0  0  0  0
   -3.3193    2.2089    1.5205 H   0  0  0  0  0  0  0  0  0  0  0  0
   -0.9580   -0.0636   -0.2952 H   0  0  0  0  0  0  0  0  0  0  0  0
   -0.7838    2.0902    0.9134 H   0  0  0  0  0  0  0  0  0  0  0  0
   -0.4101    1.2701    2.4137 H   0  0  0  0  0  0  0  0  0  0  0  0
    1.2810    1.3082   -0.1401 H   0  0  0  0  0  0  0  0  0  0  0  0
    1.6384    2.1205    1.3902 H   0  0  0  0  0  0  0  0  0  0  0  0
    3.7110    0.9448    1.8624 H   0  0  0  0  0  0  0  0  0  0  0  0
    3.7709   -0.7832    1.8291 H   0  0  0  0  0  0  0  0  0  0  0  0
    4.0177   -2.0260   -0.3217 H   0  0  0  0  0  0  0  0  0  0  0  0
    4.9139   -1.9404   -2.6203 H   0  0  0  0  0  0  0  0  0  0  0  0
    5.3030    0.2441   -3.7286 H   0  0  0  0  0  0  0  0  0  0  0  0
    4.7942    2.3520   -2.5247 H   0  0  0  0  0  0  0  0  0  0  0  0
    3.8968    2.2848   -0.2255 H   0  0  0  0  0  0  0  0  0  0  0  0
    1.7853   -2.0802    1.3362 H   0  0  0  0  0  0  0  0  0  0  0  0
    1.3676   -1.2562   -0.1727 H   0  0  0  0  0  0  0  0  0  0  0  0
   -0.6399   -2.2059    0.8769 H   0  0  0  0  0  0  0  0  0  0  0  0
   -0.3093   -1.3894    2.3867 H   0  0  0  0  0  0  0  0  0  0  0  0
  1  2  1  0
  2  3  1  0
  3  4  2  0
  4  5  1  0
  5  6  2  0
  6  7  1  0
  7  8  2  0
  8  9  1  0
  9 10  1  0
 10 11  1  0
 11 12  1  0
 12 13  1  0
 13 14  1  0
 14 15  1  0
 15 16  2  0
 16 17  1  0
 17 18  2  0
 18 19  1  0
 19 20  2  0
 13 21  1  0
 21 22  1  0
  8  3  1  0
 22 10  1  0
 20 15  1  0
  1 23  1  0
  1 24  1  0
  1 25  1  0
  4 26  1  0
  5 27  1  0
  6 28  1  0
  7 29  1  0
 10 30  1  0
 11 31  1  0
 11 32  1  0
 12 33  1  0
 12 34  1  0
 14 35  1  0
 14 36  1  0
 16 37  1  0
 17 38  1  0
 18 39  1  0
 19 40  1  0
 20 41  1  0
 21 42  1  0
 21 43  1  0
 22 44  1  0
 22 45  1  0
M  END
$$$$
