
     RDKit          3D

 69 71  0  0  0  0  0  0  0  0999 V2000
    9.4272    2.7268   -0.0837 C   0  0  0  0  0  0  0  0  0  0  0  0
    8.0311    2.4216   -0.6051 C   0  0  0  0  0  0  0  0  0  0  0  0
    7.3658    1.3076    0.2039 C   0  0  0  0  0  0  0  0  0  0  0  0
    6.0016    0.8851   -0.3490 C   0  0  0  0  0  0  0  0  0  0  0  0
    4.9372    1.9794   -0.2434 C   0  0  0  0  0  0  0  0  0  0  0  0
    3.5695    1.4673   -0.7047 C   0  0  0  0  0  0  0  0  0  0  0  0
    2.5028    2.5557   -0.5905 C   0  0  0  0  0  0  0  0  0  0  0  0
    1.1415    2.1646   -1.1748 C   0  0  0  0  0  0  0  0  0  0  0  0
    0.4579    0.9952   -0.4642 C   0  0  0  0  0  0  0  0  0  0  0  0
    0.6547   -0.3424   -1.1750 C   0  0  0  0  0  0  0  0  0  0  0  0
    0.0862   -1.4096   -0.3914 O   0  0  0  0  0  0  0  0  0  0  0  0
   -1.2503   -1.6188   -0.5420 C   0  0  0  0  0  0  0  0  0  0  0  0
   -1.9931   -0.9869   -1.2833 O   0  0  0  0  0  0  0  0  0  0  0  0
   -1.6973   -2.7844    0.3335 C   0  0  0  0  0  0  0  0  0  0  0  0
   -3.1771   -2.9012    0.3646 N   0  0  0  0  0  0  0  0  0  0  0  0
   -3.9894   -2.2821    1.2539 C   0  0  0  0  0  0  0  0  0  0  0  0
   -3.5771   -1.4091    2.4301 C   0  0  0  0  0  0  0  0  0  0  0  0
   -2.4033   -0.6389    2.1794 O   0  0  0  0  0  0  0  0  0  0  0  0
   -2.6529    0.6741    1.8941 C   0  0  0  0  0  0  0  0  0  0  0  0
   -1.9004    1.6158    2.5967 C   0  0  0  0  0  0  0  0  0  0  0  0
   -2.0598    2.9769    2.3309 C   0  0  0  0  0  0  0  0  0  0  0  0
   -2.9590    3.3882    1.3496 C   0  0  0  0  0  0  0  0  0  0  0  0
   -3.1502    5.0627    1.0125 Cl  0  0  0  0  0  0  0  0  0  0  0  0
   -3.6951    2.4481    0.6292 C   0  0  0  0  0  0  0  0  0  0  0  0
   -3.5384    1.0851    0.8962 C   0  0  0  0  0  0  0  0  0  0  0  0
   -5.2621   -2.6131    0.9247 N   0  0  0  0  0  4  0  0  0  0  0  0
   -6.4494   -2.1965    1.6690 C   0  0  0  0  0  0  0  0  0  0  0  0
   -5.2720   -3.3703   -0.2439 C   0  0  0  0  0  0  0  0  0  0  0  0
   -6.3202   -3.8945   -0.9988 C   0  0  0  0  0  0  0  0  0  0  0  0
   -5.9578   -4.6185   -2.1423 C   0  0  0  0  0  0  0  0  0  0  0  0
   -4.6110   -4.8013   -2.5051 C   0  0  0  0  0  0  0  0  0  0  0  0
   -3.5645   -4.2698   -1.7405 C   0  0  0  0  0  0  0  0  0  0  0  0
   -3.9352   -3.5548   -0.6029 C   0  0  0  0  0  0  0  0  0  0  0  0
    9.3933    3.0514    0.9612 H   0  0  0  0  0  0  0  0  0  0  0  0
   10.0725    1.8449   -0.1492 H   0  0  0  0  0  0  0  0  0  0  0  0
    9.8853    3.5269   -0.6735 H   0  0  0  0  0  0  0  0  0  0  0  0
    7.4324    3.3374   -0.5576 H   0  0  0  0  0  0  0  0  0  0  0  0
    8.0974    2.1283   -1.6591 H   0  0  0  0  0  0  0  0  0  0  0  0
    7.2581    1.6222    1.2491 H   0  0  0  0  0  0  0  0  0  0  0  0
    8.0211    0.4276    0.2059 H   0  0  0  0  0  0  0  0  0  0  0  0
    5.6649    0.0036    0.2107 H   0  0  0  0  0  0  0  0  0  0  0  0
    6.1085    0.5729   -1.3950 H   0  0  0  0  0  0  0  0  0  0  0  0
    5.2227    2.8410   -0.8570 H   0  0  0  0  0  0  0  0  0  0  0  0
    4.8679    2.3261    0.7947 H   0  0  0  0  0  0  0  0  0  0  0  0
    3.2878    0.6060   -0.0890 H   0  0  0  0  0  0  0  0  0  0  0  0
    3.6376    1.1240   -1.7438 H   0  0  0  0  0  0  0  0  0  0  0  0
    2.8488    3.4551   -1.1152 H   0  0  0  0  0  0  0  0  0  0  0  0
    2.3791    2.8375    0.4626 H   0  0  0  0  0  0  0  0  0  0  0  0
    0.4898    3.0431   -1.0810 H   0  0  0  0  0  0  0  0  0  0  0  0
    1.2353    1.9659   -2.2490 H   0  0  0  0  0  0  0  0  0  0  0  0
   -0.6181    1.2008   -0.4272 H   0  0  0  0  0  0  0  0  0  0  0  0
    0.7765    0.9231    0.5824 H   0  0  0  0  0  0  0  0  0  0  0  0
    0.2230   -0.3318   -2.1830 H   0  0  0  0  0  0  0  0  0  0  0  0
    1.7164   -0.5757   -1.2890 H   0  0  0  0  0  0  0  0  0  0  0  0
   -1.2816   -3.7118   -0.0729 H   0  0  0  0  0  0  0  0  0  0  0  0
   -1.3262   -2.6655    1.3543 H   0  0  0  0  0  0  0  0  0  0  0  0
   -3.3576   -2.1233    3.2298 H   0  0  0  0  0  0  0  0  0  0  0  0
   -4.4369   -0.8003    2.7270 H   0  0  0  0  0  0  0  0  0  0  0  0
   -1.1861    1.2981    3.3525 H   0  0  0  0  0  0  0  0  0  0  0  0
   -1.4757    3.7089    2.8837 H   0  0  0  0  0  0  0  0  0  0  0  0
   -4.3753    2.7726   -0.1551 H   0  0  0  0  0  0  0  0  0  0  0  0
   -4.0811    0.3735    0.2822 H   0  0  0  0  0  0  0  0  0  0  0  0
   -7.3166   -2.8000    1.3927 H   0  0  0  0  0  0  0  0  0  0  0  0
   -6.6499   -1.1444    1.4502 H   0  0  0  0  0  0  0  0  0  0  0  0
   -6.2693   -2.3284    2.7393 H   0  0  0  0  0  0  0  0  0  0  0  0
   -7.3580   -3.7503   -0.7261 H   0  0  0  0  0  0  0  0  0  0  0  0
   -6.7380   -5.0487   -2.7715 H   0  0  0  0  0  0  0  0  0  0  0  0
   -4.3777   -5.3673   -3.4078 H   0  0  0  0  0  0  0  0  0  0  0  0
   -2.5296   -4.4051   -2.0282 H   0  0  0  0  0  0  0  0  0  0  0  0
  1  2  1  0
  2  3  1  0
  3  4  1  0
  4  5  1  0
  5  6  1  0
  6  7  1  0
  7  8  1  0
  8  9  1  0
  9 10  1  0
 10 11  1  0
 11 12  1  0
 12 13  2  0
 12 14  1  0
 14 15  1  0
 15 16  1  0
 16 17  1  0
 17 18  1  0
 18 19  1  0
 19 20  2  0
 20 21  1  0
 21 22  2  0
 22 23  1  0
 22 24  1  0
 24 25  2  0
 16 26  2  0
 26 27  1  0
 26 28  1  0
 28 29  2  0
 29 30  1  0
 30 31  2  0
 31 32  1  0
 32 33  2  0
 33 15  1  0
 25 19  1  0
 33 28  1  0
  1 34  1  0
  1 35  1  0
  1 36  1  0
  2 37  1  0
  2 38  1  0
  3 39  1  0
  3 40  1  0
  4 41  1  0
  4 42  1  0
  5 43  1  0
  5 44  1  0
  6 45  1  0
  6 46  1  0
  7 47  1  0
  7 48  1  0
  8 49  1  0
  8 50  1  0
  9 51  1  0
  9 52  1  0
 10 53  1  0
 10 54  1  0
 14 55  1  0
 14 56  1  0
 17 57  1  0
 17 58  1  0
 20 59  1  0
 21 60  1  0
 24 61  1  0
 25 62  1  0
 27 63  1  0
 27 64  1  0
 27 65  1  0
 29 66  1  0
 30 67  1  0
 31 68  1  0
 32 69  1  0
M  CHG  1  26   1
M  END
$$$$
