
     RDKit          3D

 44 47  0  0  0  0  0  0  0  0999 V2000
    3.6368   -1.6577    0.8919 C   0  0  0  0  0  0  0  0  0  0  0  0
    2.4003   -0.9750    0.2947 C   0  0  0  0  0  0  0  0  0  0  0  0
    1.2957   -1.0927    1.2659 N   0  0  0  0  0  0  0  0  0  0  0  0
    0.0311   -1.1740    0.6512 C   0  0  0  0  0  0  0  0  0  0  0  0
   -0.7012   -0.0563    0.7531 N   0  0  0  0  0  0  0  0  0  0  0  0
   -1.8863   -0.0371    0.1216 C   0  0  0  0  0  0  0  0  0  0  0  0
   -2.6780    1.2095    0.1837 C   0  0  0  0  0  0  0  0  0  0  0  0
   -2.2113    2.3440    0.8796 C   0  0  0  0  0  0  0  0  0  0  0  0
   -2.9556    3.5261    0.9379 C   0  0  0  0  0  0  0  0  0  0  0  0
   -4.1885    3.6044    0.2982 C   0  0  0  0  0  0  0  0  0  0  0  0
   -4.6764    2.5026   -0.3988 C   0  0  0  0  0  0  0  0  0  0  0  0
   -3.9295    1.3212   -0.4534 C   0  0  0  0  0  0  0  0  0  0  0  0
   -2.3916   -1.0701   -0.5769 N   0  0  0  0  0  0  0  0  0  0  0  0
   -1.6723   -2.1959   -0.6256 C   0  0  0  0  0  0  0  0  0  0  0  0
   -2.1891   -3.2905   -1.3095 C   0  0  0  0  0  0  0  0  0  0  0  0
   -1.5054   -4.5082   -1.3837 C   0  0  0  0  0  0  0  0  0  0  0  0
   -0.2738   -4.6454   -0.7586 C   0  0  0  0  0  0  0  0  0  0  0  0
    0.2667   -3.5604   -0.0734 C   0  0  0  0  0  0  0  0  0  0  0  0
   -0.4218   -2.3227   -0.0119 C   0  0  0  0  0  0  0  0  0  0  0  0
    2.6375    0.4896   -0.0555 C   0  0  0  0  0  0  0  0  0  0  0  0
    2.0628    1.0202   -1.2241 C   0  0  0  0  0  0  0  0  0  0  0  0
    2.2242    2.3676   -1.5552 C   0  0  0  0  0  0  0  0  0  0  0  0
    2.9584    3.2084   -0.7222 C   0  0  0  0  0  0  0  0  0  0  0  0
    3.5258    2.7022    0.4453 C   0  0  0  0  0  0  0  0  0  0  0  0
    3.3616    1.3550    0.7810 C   0  0  0  0  0  0  0  0  0  0  0  0
    3.4573   -2.7313    1.0156 H   0  0  0  0  0  0  0  0  0  0  0  0
    3.8923   -1.2653    1.8820 H   0  0  0  0  0  0  0  0  0  0  0  0
    4.5081   -1.5352    0.2397 H   0  0  0  0  0  0  0  0  0  0  0  0
    2.1806   -1.5183   -0.6341 H   0  0  0  0  0  0  0  0  0  0  0  0
    1.2341   -0.2093    1.7769 H   0  0  0  0  0  0  0  0  0  0  0  0
   -1.2474    2.3125    1.3863 H   0  0  0  0  0  0  0  0  0  0  0  0
   -2.5676    4.3830    1.4840 H   0  0  0  0  0  0  0  0  0  0  0  0
   -4.7680    4.5228    0.3423 H   0  0  0  0  0  0  0  0  0  0  0  0
   -5.6385    2.5572   -0.9013 H   0  0  0  0  0  0  0  0  0  0  0  0
   -4.3361    0.4741   -1.0051 H   0  0  0  0  0  0  0  0  0  0  0  0
   -3.1602   -3.1964   -1.7911 H   0  0  0  0  0  0  0  0  0  0  0  0
   -1.9454   -5.3465   -1.9169 H   0  0  0  0  0  0  0  0  0  0  0  0
    0.2576   -5.5931   -0.7925 H   0  0  0  0  0  0  0  0  0  0  0  0
    1.2186   -3.6793    0.4382 H   0  0  0  0  0  0  0  0  0  0  0  0
    1.4659    0.3855   -1.8779 H   0  0  0  0  0  0  0  0  0  0  0  0
    1.7654    2.7618   -2.4583 H   0  0  0  0  0  0  0  0  0  0  0  0
    3.0789    4.2583   -0.9763 H   0  0  0  0  0  0  0  0  0  0  0  0
    4.0874    3.3579    1.1032 H   0  0  0  0  0  0  0  0  0  0  0  0
    3.7969    0.9967    1.7115 H   0  0  0  0  0  0  0  0  0  0  0  0
  1  2  1  0
  2  3  1  0
  3  4  1  0
  4  5  2  0
  5  6  1  0
  6  7  1  0
  7  8  2  0
  8  9  1  0
  9 10  2  0
 10 11  1  0
 11 12  2  0
  6 13  2  0
 13 14  1  0
 14 15  2  0
 15 16  1  0
 16 17  2  0
 17 18  1  0
 18 19  2  0
  2 20  1  0
 20 21  2  0
 21 22  1  0
 22 23  2  0
 23 24  1  0
 24 25  2  0
 19  4  1  0
 25 20  1  0
 12  7  1  0
 19 14  1  0
  1 26  1  0
  1 27  1  0
  1 28  1  0
  2 29  1  0
  3 30  1  0
  8 31  1  0
  9 32  1  0
 10 33  1  0
 11 34  1  0
 12 35  1  0
 15 36  1  0
 16 37  1  0
 17 38  1  0
 18 39  1  0
 21 40  1  0
 22 41  1  0
 23 42  1  0
 24 43  1  0
 25 44  1  0
M  END
$$$$
