
     RDKit          3D

 30 30  0  0  0  0  0  0  0  0999 V2000
    3.5703    1.0515    2.1315 C   0  0  0  0  0  0  0  0  0  0  0  0
    2.8704   -0.0295    1.4382 N   0  0  0  0  0  0  0  0  0  0  0  0
    3.7289   -0.8360    0.5719 C   0  0  0  0  0  0  0  0  0  0  0  0
    1.5498   -0.4022    1.7056 C   0  0  0  0  0  0  0  0  0  0  0  0
    0.8910   -1.9250    1.4250 S   0  0  0  0  0  0  0  0  0  0  0  0
    0.4990    0.8451    2.3893 S   0  0  0  0  0  0  0  0  0  0  0  0
    0.3909    1.9600    0.9585 C   0  0  0  0  0  0  0  0  0  0  0  0
   -0.1632    1.2764   -0.2818 C   0  0  0  0  0  0  0  0  0  0  0  0
    0.4282    1.3638   -1.3546 O   0  0  0  0  0  0  0  0  0  0  0  0
   -1.3722    0.6426   -0.0661 N   0  0  0  0  0  0  0  0  0  0  0  0
   -2.1636   -0.0754   -0.9918 C   0  0  0  0  0  0  0  0  0  0  0  0
   -1.8653   -0.1567   -2.3546 C   0  0  0  0  0  0  0  0  0  0  0  0
   -2.6887   -0.8873   -3.2194 C   0  0  0  0  0  0  0  0  0  0  0  0
   -3.8161   -1.5397   -2.7267 C   0  0  0  0  0  0  0  0  0  0  0  0
   -4.8222   -2.4336   -3.7977 Cl  0  0  0  0  0  0  0  0  0  0  0  0
   -4.1347   -1.4703   -1.3752 C   0  0  0  0  0  0  0  0  0  0  0  0
   -3.3114   -0.7404   -0.5153 C   0  0  0  0  0  0  0  0  0  0  0  0
   -3.7454   -0.6725    1.1608 Cl  0  0  0  0  0  0  0  0  0  0  0  0
    3.7955    1.8398    1.4074 H   0  0  0  0  0  0  0  0  0  0  0  0
    4.5082    0.6582    2.5373 H   0  0  0  0  0  0  0  0  0  0  0  0
    3.0025    1.4690    2.9636 H   0  0  0  0  0  0  0  0  0  0  0  0
    4.4214   -0.1773    0.0385 H   0  0  0  0  0  0  0  0  0  0  0  0
    3.1511   -1.3887   -0.1725 H   0  0  0  0  0  0  0  0  0  0  0  0
    4.2957   -1.5359    1.1930 H   0  0  0  0  0  0  0  0  0  0  0  0
   -0.2651    2.7993    1.2112 H   0  0  0  0  0  0  0  0  0  0  0  0
    1.3796    2.3688    0.7305 H   0  0  0  0  0  0  0  0  0  0  0  0
   -1.6838    0.5799    0.9015 H   0  0  0  0  0  0  0  0  0  0  0  0
   -0.9975    0.3366   -2.7817 H   0  0  0  0  0  0  0  0  0  0  0  0
   -2.4385   -0.9409   -4.2764 H   0  0  0  0  0  0  0  0  0  0  0  0
   -5.0147   -1.9798   -0.9932 H   0  0  0  0  0  0  0  0  0  0  0  0
  1  2  1  0
  2  3  1  0
  2  4  1  0
  4  5  2  0
  4  6  1  0
  6  7  1  0
  7  8  1  0
  8  9  2  0
  8 10  1  0
 10 11  1  0
 11 12  2  0
 12 13  1  0
 13 14  2  0
 14 15  1  0
 14 16  1  0
 16 17  2  0
 17 18  1  0
 17 11  1  0
  1 19  1  0
  1 20  1  0
  1 21  1  0
  3 22  1  0
  3 23  1  0
  3 24  1  0
  7 25  1  0
  7 26  1  0
 10 27  1  0
 12 28  1  0
 13 29  1  0
 16 30  1  0
M  END
$$$$
