
     RDKit          3D

 44 45  0  0  0  0  0  0  0  0999 V2000
    1.2243   -0.0275   -5.4203 C   0  0  0  0  0  0  0  0  0  0  0  0
    1.9209    0.2861   -4.1047 C   0  0  0  0  0  0  0  0  0  0  0  0
    1.9495   -0.9352   -3.1841 C   0  0  0  0  0  0  0  0  0  0  0  0
    2.7558   -0.7133   -1.8996 C   0  0  0  0  0  0  0  0  0  0  0  0
    2.0966    0.2344   -0.9805 N   0  0  0  0  0  0  0  0  0  0  0  0
    2.5814    1.6179   -1.0786 C   0  0  0  0  0  0  0  0  0  0  0  0
    1.0211   -0.1205   -0.1361 C   0  0  0  0  0  0  0  0  0  0  0  0
    0.2440    0.7862    0.4986 C   0  0  0  0  0  0  0  0  0  0  0  0
   -0.8699    0.4284    1.3610 C   0  0  0  0  0  0  0  0  0  0  0  0
   -1.3309    1.2767    2.2971 C   0  0  0  0  0  0  0  0  0  0  0  0
   -2.3286    0.8856    3.2950 C   0  0  0  0  0  0  0  0  0  0  0  0
   -3.0427    1.7795    4.0231 C   0  0  0  0  0  0  0  0  0  0  0  0
   -3.9773    1.3571    5.0132 C   0  0  0  0  0  0  0  0  0  0  0  0
   -4.7348    1.0008    5.8171 N   0  0  0  0  0  0  0  0  0  0  0  0
   -2.9064    3.1873    3.8380 C   0  0  0  0  0  0  0  0  0  0  0  0
   -2.7840    4.3312    3.6833 N   0  0  0  0  0  0  0  0  0  0  0  0
   -2.4333   -0.6244    3.4660 C   0  0  0  0  0  0  0  0  0  0  0  0
   -2.5613   -1.3242    2.1161 C   0  0  0  0  0  0  0  0  0  0  0  0
   -1.4237   -0.9635    1.1497 C   0  0  0  0  0  0  0  0  0  0  0  0
   -0.2494   -1.9385    1.2105 C   0  0  0  0  0  0  0  0  0  0  0  0
    0.7601   -1.6118    0.0974 C   0  0  0  0  0  0  0  0  0  0  0  0
    0.1895   -0.3419   -5.2508 H   0  0  0  0  0  0  0  0  0  0  0  0
    1.2094    0.8593   -6.0617 H   0  0  0  0  0  0  0  0  0  0  0  0
    1.7432   -0.8269   -5.9587 H   0  0  0  0  0  0  0  0  0  0  0  0
    1.3927    1.1134   -3.6200 H   0  0  0  0  0  0  0  0  0  0  0  0
    2.9429    0.6237   -4.3113 H   0  0  0  0  0  0  0  0  0  0  0  0
    2.4037   -1.7743   -3.7262 H   0  0  0  0  0  0  0  0  0  0  0  0
    0.9221   -1.2333   -2.9470 H   0  0  0  0  0  0  0  0  0  0  0  0
    2.9106   -1.6772   -1.4031 H   0  0  0  0  0  0  0  0  0  0  0  0
    3.7661   -0.3692   -2.1543 H   0  0  0  0  0  0  0  0  0  0  0  0
    3.4763    1.7033   -1.7040 H   0  0  0  0  0  0  0  0  0  0  0  0
    1.8132    2.2650   -1.5148 H   0  0  0  0  0  0  0  0  0  0  0  0
    2.8473    1.9991   -0.0866 H   0  0  0  0  0  0  0  0  0  0  0  0
    0.4467    1.8477    0.3972 H   0  0  0  0  0  0  0  0  0  0  0  0
   -0.9056    2.2778    2.3587 H   0  0  0  0  0  0  0  0  0  0  0  0
   -1.5378   -0.9866    3.9879 H   0  0  0  0  0  0  0  0  0  0  0  0
   -3.2898   -0.9162    4.0821 H   0  0  0  0  0  0  0  0  0  0  0  0
   -3.5154   -1.0236    1.6609 H   0  0  0  0  0  0  0  0  0  0  0  0
   -2.6213   -2.4096    2.2591 H   0  0  0  0  0  0  0  0  0  0  0  0
   -1.8500   -1.0182    0.1367 H   0  0  0  0  0  0  0  0  0  0  0  0
   -0.5931   -2.9727    1.0898 H   0  0  0  0  0  0  0  0  0  0  0  0
    0.2476   -1.8817    2.1883 H   0  0  0  0  0  0  0  0  0  0  0  0
    1.6980   -2.1186    0.3533 H   0  0  0  0  0  0  0  0  0  0  0  0
    0.3923   -2.0515   -0.8373 H   0  0  0  0  0  0  0  0  0  0  0  0
  1  2  1  0
  2  3  1  0
  3  4  1  0
  4  5  1  0
  5  6  1  0
  5  7  1  0
  7  8  2  0
  8  9  1  0
  9 10  2  0
 10 11  1  0
 11 12  2  3
 12 13  1  0
 13 14  3  0
 12 15  1  0
 15 16  3  0
 11 17  1  0
 17 18  1  0
 18 19  1  0
 19 20  1  0
 20 21  1  0
 21  7  1  0
 19  9  1  0
  1 22  1  0
  1 23  1  0
  1 24  1  0
  2 25  1  0
  2 26  1  0
  3 27  1  0
  3 28  1  0
  4 29  1  0
  4 30  1  0
  6 31  1  0
  6 32  1  0
  6 33  1  0
  8 34  1  0
 10 35  1  0
 17 36  1  0
 17 37  1  0
 18 38  1  0
 18 39  1  0
 19 40  1  0
 20 41  1  0
 20 42  1  0
 21 43  1  0
 21 44  1  0
M  END
$$$$
