
     RDKit          3D

 41 43  0  0  0  0  0  0  0  0999 V2000
   -4.1551   -0.9102    1.7747 C   0  0  0  0  0  0  0  0  0  0  0  0
   -3.2374   -0.6066    0.6008 C   0  0  0  0  0  0  0  0  0  0  0  0
   -2.1283   -1.6459    0.4058 C   0  0  0  0  0  0  0  0  0  0  0  0
   -1.1683   -1.8443    1.5832 C   0  0  0  0  0  0  0  0  0  0  0  0
   -0.3015   -0.3349    2.1111 S   0  0  0  0  0  0  0  0  0  0  0  0
    0.6554   -0.0109    0.6992 C   0  0  0  0  0  0  0  0  0  0  0  0
    1.2768   -0.9845    0.1057 N   0  0  0  0  0  0  0  0  0  0  0  0
    1.8269   -0.4048   -1.0070 C   0  0  0  0  0  0  0  0  0  0  0  0
    2.5673   -0.9705   -1.9710 C   0  0  0  0  0  0  0  0  0  0  0  0
    2.9890   -2.3370   -2.0966 C   0  0  0  0  0  0  0  0  0  0  0  0
    3.7320   -2.8232   -3.2203 C   0  0  0  0  0  0  0  0  0  0  0  0
    4.0237   -4.1662   -3.1210 C   0  0  0  0  0  0  0  0  0  0  0  0
    3.4102   -4.8491   -1.6803 S   0  0  0  0  0  0  0  0  0  0  0  0
    2.7534   -3.3458   -1.1854 C   0  0  0  0  0  0  0  0  0  0  0  0
    1.4702    1.0434   -1.0456 C   0  0  0  0  0  0  0  0  0  0  0  0
    1.8088    1.8239   -1.9182 O   0  0  0  0  0  0  0  0  0  0  0  0
    0.7418    1.2226    0.1087 N   0  0  0  0  0  0  0  0  0  0  0  0
    0.2286    2.4835    0.5203 C   0  0  0  0  0  0  0  0  0  0  0  0
    0.1086    2.8399    1.8710 C   0  0  0  0  0  0  0  0  0  0  0  0
   -0.3972    4.0887    2.2521 C   0  0  0  0  0  0  0  0  0  0  0  0
   -0.7823    5.0123    1.2872 C   0  0  0  0  0  0  0  0  0  0  0  0
   -0.6510    4.6915   -0.0586 C   0  0  0  0  0  0  0  0  0  0  0  0
   -0.1446    3.4431   -0.4362 C   0  0  0  0  0  0  0  0  0  0  0  0
   -4.5805   -1.9152    1.6912 H   0  0  0  0  0  0  0  0  0  0  0  0
   -4.9823   -0.1936    1.7994 H   0  0  0  0  0  0  0  0  0  0  0  0
   -3.6252   -0.8363    2.7288 H   0  0  0  0  0  0  0  0  0  0  0  0
   -3.8428   -0.5777   -0.3136 H   0  0  0  0  0  0  0  0  0  0  0  0
   -2.8127    0.3963    0.7173 H   0  0  0  0  0  0  0  0  0  0  0  0
   -2.5955   -2.6145    0.1857 H   0  0  0  0  0  0  0  0  0  0  0  0
   -1.5596   -1.3810   -0.4939 H   0  0  0  0  0  0  0  0  0  0  0  0
   -0.4311   -2.6145    1.3315 H   0  0  0  0  0  0  0  0  0  0  0  0
   -1.7194   -2.2243    2.4497 H   0  0  0  0  0  0  0  0  0  0  0  0
    2.8954   -0.3125   -2.7763 H   0  0  0  0  0  0  0  0  0  0  0  0
    4.0406   -2.2207   -4.0664 H   0  0  0  0  0  0  0  0  0  0  0  0
    4.5684   -4.7798   -3.8252 H   0  0  0  0  0  0  0  0  0  0  0  0
    2.2291   -3.2960   -0.2414 H   0  0  0  0  0  0  0  0  0  0  0  0
    0.4530    2.1866    2.6667 H   0  0  0  0  0  0  0  0  0  0  0  0
   -0.4751    4.3412    3.3070 H   0  0  0  0  0  0  0  0  0  0  0  0
   -1.1722    5.9828    1.5828 H   0  0  0  0  0  0  0  0  0  0  0  0
   -0.9411    5.4103   -0.8211 H   0  0  0  0  0  0  0  0  0  0  0  0
   -0.0756    3.2337   -1.5016 H   0  0  0  0  0  0  0  0  0  0  0  0
  1  2  1  0
  2  3  1  0
  3  4  1  0
  4  5  1  0
  5  6  1  0
  6  7  2  0
  7  8  1  0
  8  9  2  3
  9 10  1  0
 10 11  1  0
 11 12  2  0
 12 13  1  0
 13 14  1  0
  8 15  1  0
 15 16  2  0
 15 17  1  0
 17 18  1  0
 18 19  2  0
 19 20  1  0
 20 21  2  0
 21 22  1  0
 22 23  2  0
 17  6  1  0
 23 18  1  0
 14 10  2  0
  1 24  1  0
  1 25  1  0
  1 26  1  0
  2 27  1  0
  2 28  1  0
  3 29  1  0
  3 30  1  0
  4 31  1  0
  4 32  1  0
  9 33  1  0
 11 34  1  0
 12 35  1  0
 14 36  1  0
 19 37  1  0
 20 38  1  0
 21 39  1  0
 22 40  1  0
 23 41  1  0
M  END
$$$$
