
     RDKit          3D

 45 47  0  0  0  0  0  0  0  0999 V2000
    2.5700   -0.2656   -2.6662 O   0  0  0  0  0  0  0  0  0  0  0  0
    2.1371   -0.7812   -1.6309 C   0  0  0  0  0  0  0  0  0  0  0  0
    2.9971   -1.7907   -0.8838 C   0  0  0  0  0  0  0  0  0  0  0  0
    3.5941   -1.1581    0.7206 S   0  0  0  0  0  0  0  0  0  0  0  0
    4.3768    0.3722    0.2410 C   0  0  0  0  0  0  0  0  0  0  0  0
    4.0714    1.5306    0.9659 C   0  0  0  0  0  0  0  0  0  0  0  0
    4.6649    2.7520    0.6357 C   0  0  0  0  0  0  0  0  0  0  0  0
    5.5740    2.8143   -0.4175 C   0  0  0  0  0  0  0  0  0  0  0  0
    6.3772    4.4645   -0.8682 Br  0  0  0  0  0  0  0  0  0  0  0  0
    5.8986    1.6666   -1.1370 C   0  0  0  0  0  0  0  0  0  0  0  0
    5.3046    0.4457   -0.8029 C   0  0  0  0  0  0  0  0  0  0  0  0
    0.8715   -0.4801   -1.1499 N   0  0  0  0  0  0  0  0  0  0  0  0
    0.2386   -1.0829    0.0282 C   0  0  0  0  0  0  0  0  0  0  0  0
   -1.2942   -1.0271   -0.0441 C   0  0  0  0  0  0  0  0  0  0  0  0
   -1.7999    0.3797   -0.1669 N   0  0  0  0  0  0  0  0  0  0  0  0
   -3.4109    0.5206   -0.7241 S   0  0  0  0  0  6  0  0  0  0  0  0
   -3.4873   -0.1893   -1.9838 O   0  0  0  0  0  0  0  0  0  0  0  0
   -3.8020    1.9099   -0.6217 O   0  0  0  0  0  0  0  0  0  0  0  0
   -4.3282   -0.3818    0.4968 C   0  0  0  0  0  0  0  0  0  0  0  0
   -4.4219    0.1365    1.7922 C   0  0  0  0  0  0  0  0  0  0  0  0
   -5.1390   -0.5654    2.7602 C   0  0  0  0  0  0  0  0  0  0  0  0
   -5.7603   -1.7717    2.4304 C   0  0  0  0  0  0  0  0  0  0  0  0
   -5.6710   -2.2792    1.1323 C   0  0  0  0  0  0  0  0  0  0  0  0
   -4.9555   -1.5836    0.1577 C   0  0  0  0  0  0  0  0  0  0  0  0
   -0.8443    1.3003   -0.8751 C   0  0  0  0  0  0  0  0  0  0  0  0
    0.0881    0.5538   -1.8346 C   0  0  0  0  0  0  0  0  0  0  0  0
    3.8548   -2.0560   -1.5108 H   0  0  0  0  0  0  0  0  0  0  0  0
    2.4362   -2.7166   -0.7300 H   0  0  0  0  0  0  0  0  0  0  0  0
    3.3659    1.4942    1.7929 H   0  0  0  0  0  0  0  0  0  0  0  0
    4.4124    3.6426    1.2048 H   0  0  0  0  0  0  0  0  0  0  0  0
    6.6093    1.7083   -1.9582 H   0  0  0  0  0  0  0  0  0  0  0  0
    5.5794   -0.4386   -1.3714 H   0  0  0  0  0  0  0  0  0  0  0  0
    0.5595   -2.1215    0.1387 H   0  0  0  0  0  0  0  0  0  0  0  0
    0.5868   -0.5220    0.9031 H   0  0  0  0  0  0  0  0  0  0  0  0
   -1.7042   -1.4683    0.8702 H   0  0  0  0  0  0  0  0  0  0  0  0
   -1.6286   -1.6257   -0.8990 H   0  0  0  0  0  0  0  0  0  0  0  0
   -3.9438    1.0803    2.0453 H   0  0  0  0  0  0  0  0  0  0  0  0
   -5.2206   -0.1705    3.7701 H   0  0  0  0  0  0  0  0  0  0  0  0
   -6.3238   -2.3143    3.1862 H   0  0  0  0  0  0  0  0  0  0  0  0
   -6.1664   -3.2139    0.8801 H   0  0  0  0  0  0  0  0  0  0  0  0
   -4.8977   -1.9789   -0.8539 H   0  0  0  0  0  0  0  0  0  0  0  0
   -0.2565    1.8089   -0.1008 H   0  0  0  0  0  0  0  0  0  0  0  0
   -1.3770    2.0833   -1.4242 H   0  0  0  0  0  0  0  0  0  0  0  0
    0.7566    1.2692   -2.3255 H   0  0  0  0  0  0  0  0  0  0  0  0
   -0.4917    0.0495   -2.6167 H   0  0  0  0  0  0  0  0  0  0  0  0
  1  2  2  0
  2  3  1  0
  3  4  1  0
  4  5  1  0
  5  6  2  0
  6  7  1  0
  7  8  2  0
  8  9  1  0
  8 10  1  0
 10 11  2  0
  2 12  1  0
 12 13  1  0
 13 14  1  0
 14 15  1  0
 15 16  1  0
 16 17  2  0
 16 18  2  0
 16 19  1  0
 19 20  2  0
 20 21  1  0
 21 22  2  0
 22 23  1  0
 23 24  2  0
 15 25  1  0
 25 26  1  0
 11  5  1  0
 26 12  1  0
 24 19  1  0
  3 27  1  0
  3 28  1  0
  6 29  1  0
  7 30  1  0
 10 31  1  0
 11 32  1  0
 13 33  1  0
 13 34  1  0
 14 35  1  0
 14 36  1  0
 20 37  1  0
 21 38  1  0
 22 39  1  0
 23 40  1  0
 24 41  1  0
 25 42  1  0
 25 43  1  0
 26 44  1  0
 26 45  1  0
M  END
$$$$
