
     RDKit          3D

 52 53  0  0  0  0  0  0  0  0999 V2000
   -6.3695   -0.4677    0.3893 C   0  0  0  0  0  0  0  0  0  0  0  0
   -5.6991   -1.2526   -0.7323 C   0  0  0  0  0  0  0  0  0  0  0  0
   -4.6499   -0.4268   -1.5052 C   0  0  0  0  0  0  0  0  0  0  0  0
   -4.1592   -1.2040   -2.7336 C   0  0  0  0  0  0  0  0  0  0  0  0
   -3.4732    0.0019   -0.6441 C   0  0  0  0  0  0  0  0  0  0  0  0
   -2.6561   -0.9312    0.0079 C   0  0  0  0  0  0  0  0  0  0  0  0
   -1.5751   -0.5146    0.7916 C   0  0  0  0  0  0  0  0  0  0  0  0
   -1.2863    0.8480    0.9517 C   0  0  0  0  0  0  0  0  0  0  0  0
   -0.1049    1.3378    1.7727 C   0  0  0  0  0  0  0  0  0  0  0  0
    0.0467    0.6120    3.1121 C   0  0  0  0  0  0  0  0  0  0  0  0
    1.1259    1.1877    0.9925 N   0  0  0  0  0  0  0  0  0  0  0  0
    1.8365    2.1673    0.3673 C   0  0  0  0  0  0  0  0  0  0  0  0
    1.5566    3.8105    0.4499 S   0  0  0  0  0  0  0  0  0  0  0  0
    2.9084    1.7571   -0.3687 N   0  0  0  0  0  0  0  0  0  0  0  0
    3.5482    0.4430   -0.4310 C   0  0  0  0  0  0  0  0  0  0  0  0
    4.4519    0.3456   -1.6729 C   0  0  0  0  0  0  0  0  0  0  0  0
    5.5741   -0.6871   -1.5366 C   0  0  0  0  0  0  0  0  0  0  0  0
    5.2128   -1.8033   -0.5662 C   0  0  0  0  0  0  0  0  0  0  0  0
    4.9283   -1.2651    0.8372 C   0  0  0  0  0  0  0  0  0  0  0  0
    4.3410    0.1486    0.8453 C   0  0  0  0  0  0  0  0  0  0  0  0
   -2.0961    1.7792    0.2848 C   0  0  0  0  0  0  0  0  0  0  0  0
   -3.1762    1.3626   -0.4987 C   0  0  0  0  0  0  0  0  0  0  0  0
   -5.6556   -0.1911    1.1708 H   0  0  0  0  0  0  0  0  0  0  0  0
   -6.8338    0.4467    0.0053 H   0  0  0  0  0  0  0  0  0  0  0  0
   -7.1531   -1.0748    0.8548 H   0  0  0  0  0  0  0  0  0  0  0  0
   -5.2540   -2.1641   -0.3152 H   0  0  0  0  0  0  0  0  0  0  0  0
   -6.4800   -1.5799   -1.4306 H   0  0  0  0  0  0  0  0  0  0  0  0
   -5.1540    0.4740   -1.8823 H   0  0  0  0  0  0  0  0  0  0  0  0
   -3.6866   -2.1527   -2.4559 H   0  0  0  0  0  0  0  0  0  0  0  0
   -3.4267   -0.6185   -3.3009 H   0  0  0  0  0  0  0  0  0  0  0  0
   -4.9945   -1.4325   -3.4043 H   0  0  0  0  0  0  0  0  0  0  0  0
   -2.8497   -1.9965   -0.0923 H   0  0  0  0  0  0  0  0  0  0  0  0
   -0.9611   -1.2737    1.2693 H   0  0  0  0  0  0  0  0  0  0  0  0
   -0.2665    2.3930    2.0158 H   0  0  0  0  0  0  0  0  0  0  0  0
    0.8471    1.0713    3.7033 H   0  0  0  0  0  0  0  0  0  0  0  0
    0.3126   -0.4430    2.9853 H   0  0  0  0  0  0  0  0  0  0  0  0
   -0.8785    0.6635    3.6959 H   0  0  0  0  0  0  0  0  0  0  0  0
    1.2720    0.2554    0.6444 H   0  0  0  0  0  0  0  0  0  0  0  0
    3.4438    2.5406   -0.7295 H   0  0  0  0  0  0  0  0  0  0  0  0
    2.7566   -0.3085   -0.5326 H   0  0  0  0  0  0  0  0  0  0  0  0
    3.8259    0.0963   -2.5390 H   0  0  0  0  0  0  0  0  0  0  0  0
    4.9064    1.3161   -1.9084 H   0  0  0  0  0  0  0  0  0  0  0  0
    5.8130   -1.1028   -2.5225 H   0  0  0  0  0  0  0  0  0  0  0  0
    6.4838   -0.1861   -1.1816 H   0  0  0  0  0  0  0  0  0  0  0  0
    4.3269   -2.3327   -0.9404 H   0  0  0  0  0  0  0  0  0  0  0  0
    6.0204   -2.5432   -0.5186 H   0  0  0  0  0  0  0  0  0  0  0  0
    4.2415   -1.9543    1.3436 H   0  0  0  0  0  0  0  0  0  0  0  0
    5.8513   -1.2649    1.4293 H   0  0  0  0  0  0  0  0  0  0  0  0
    5.1551    0.8796    0.9419 H   0  0  0  0  0  0  0  0  0  0  0  0
    3.7200    0.2742    1.7405 H   0  0  0  0  0  0  0  0  0  0  0  0
   -1.8863    2.8441    0.3649 H   0  0  0  0  0  0  0  0  0  0  0  0
   -3.7808    2.1157   -0.9997 H   0  0  0  0  0  0  0  0  0  0  0  0
  1  2  1  0
  2  3  1  0
  3  4  1  0
  3  5  1  0
  5  6  2  0
  6  7  1  0
  7  8  2  0
  8  9  1  0
  9 10  1  0
  9 11  1  0
 11 12  1  0
 12 13  2  0
 12 14  1  0
 14 15  1  0
 15 16  1  0
 16 17  1  0
 17 18  1  0
 18 19  1  0
 19 20  1  0
  8 21  1  0
 21 22  2  0
 22  5  1  0
 20 15  1  0
  1 23  1  0
  1 24  1  0
  1 25  1  0
  2 26  1  0
  2 27  1  0
  3 28  1  0
  4 29  1  0
  4 30  1  0
  4 31  1  0
  6 32  1  0
  7 33  1  0
  9 34  1  0
 10 35  1  0
 10 36  1  0
 10 37  1  0
 11 38  1  0
 14 39  1  0
 15 40  1  0
 16 41  1  0
 16 42  1  0
 17 43  1  0
 17 44  1  0
 18 45  1  0
 18 46  1  0
 19 47  1  0
 19 48  1  0
 20 49  1  0
 20 50  1  0
 21 51  1  0
 22 52  1  0
M  END
$$$$
