
     RDKit          3D

 56 59  0  0  0  0  0  0  0  0999 V2000
   -3.0969    3.1088    4.7059 C   0  0  0  0  0  0  0  0  0  0  0  0
   -2.6044    1.6825    4.8583 C   0  0  0  0  0  0  0  0  0  0  0  0
   -2.8174    0.9829    3.6224 O   0  0  0  0  0  0  0  0  0  0  0  0
   -1.7497    0.8788    2.7846 C   0  0  0  0  0  0  0  0  0  0  0  0
   -0.6272    1.3073    3.0417 O   0  0  0  0  0  0  0  0  0  0  0  0
   -2.0670    0.2061    1.5184 C   0  0  0  0  0  0  0  0  0  0  0  0
   -1.0840   -0.0534    0.5686 C   0  0  0  0  0  0  0  0  0  0  0  0
    0.2592    0.2844    0.6740 N   0  0  0  0  0  0  0  0  0  0  0  0
    1.2700    0.0552   -0.2555 C   0  0  0  0  0  0  0  0  0  0  0  0
    1.1503   -0.4923   -1.3474 O   0  0  0  0  0  0  0  0  0  0  0  0
    2.6160    0.5899    0.2574 C   0  0  0  0  0  0  0  0  0  0  0  0
    3.6640    0.4272   -0.7402 N   0  0  0  0  0  0  0  0  0  0  0  0
    3.8796    1.4914   -1.5882 N   0  0  0  0  0  0  0  0  0  0  0  0
    4.7124    1.3338   -2.5747 C   0  0  0  0  0  0  0  0  0  0  0  0
    4.9333    2.5312   -3.4800 C   0  0  0  0  0  0  0  0  0  0  0  0
    4.3208    2.7513   -4.5032 O   0  0  0  0  0  0  0  0  0  0  0  0
    5.9208    3.3136   -3.0321 O   0  0  0  0  0  0  0  0  0  0  0  0
    5.4431    0.0907   -2.8491 C   0  0  0  0  0  0  0  0  0  0  0  0
    6.3146   -0.0590   -3.9360 C   0  0  0  0  0  0  0  0  0  0  0  0
    6.9879   -1.2701   -4.1231 C   0  0  0  0  0  0  0  0  0  0  0  0
    6.7918   -2.3283   -3.2344 C   0  0  0  0  0  0  0  0  0  0  0  0
    5.9190   -2.1786   -2.1565 C   0  0  0  0  0  0  0  0  0  0  0  0
    5.2447   -0.9653   -1.9661 C   0  0  0  0  0  0  0  0  0  0  0  0
    4.3123   -0.8015   -0.8350 C   0  0  0  0  0  0  0  0  0  0  0  0
    4.1532   -1.7246   -0.0389 O   0  0  0  0  0  0  0  0  0  0  0  0
   -1.6876   -0.8633   -0.7925 S   0  0  0  0  0  0  0  0  0  0  0  0
   -3.2639   -0.8774   -0.1782 C   0  0  0  0  0  0  0  0  0  0  0  0
   -3.3618   -0.2591    1.0545 C   0  0  0  0  0  0  0  0  0  0  0  0
   -4.6856   -0.1560    1.7645 C   0  0  0  0  0  0  0  0  0  0  0  0
   -5.8696   -0.4725    0.8360 C   0  0  0  0  0  0  0  0  0  0  0  0
   -5.6299   -1.7070   -0.0587 C   0  0  0  0  0  0  0  0  0  0  0  0
   -5.5053   -2.9955    0.7625 C   0  0  0  0  0  0  0  0  0  0  0  0
   -4.3969   -1.4778   -0.9578 C   0  0  0  0  0  0  0  0  0  0  0  0
   -4.1581    3.1109    4.4261 H   0  0  0  0  0  0  0  0  0  0  0  0
   -2.9799    3.6671    5.6400 H   0  0  0  0  0  0  0  0  0  0  0  0
   -2.5558    3.6295    3.9090 H   0  0  0  0  0  0  0  0  0  0  0  0
   -1.5577    1.6532    5.1814 H   0  0  0  0  0  0  0  0  0  0  0  0
   -3.1941    1.1673    5.6242 H   0  0  0  0  0  0  0  0  0  0  0  0
    0.5077    0.7704    1.5346 H   0  0  0  0  0  0  0  0  0  0  0  0
    2.8853    0.0425    1.1671 H   0  0  0  0  0  0  0  0  0  0  0  0
    2.5169    1.6547    0.5011 H   0  0  0  0  0  0  0  0  0  0  0  0
    5.9284    4.0652   -3.6609 H   0  0  0  0  0  0  0  0  0  0  0  0
    6.4816    0.7441   -4.6502 H   0  0  0  0  0  0  0  0  0  0  0  0
    7.6641   -1.3915   -4.9672 H   0  0  0  0  0  0  0  0  0  0  0  0
    7.3131   -3.2723   -3.3831 H   0  0  0  0  0  0  0  0  0  0  0  0
    5.7585   -3.0082   -1.4697 H   0  0  0  0  0  0  0  0  0  0  0  0
   -4.6872   -0.8491    2.6140 H   0  0  0  0  0  0  0  0  0  0  0  0
   -4.8277    0.8559    2.1595 H   0  0  0  0  0  0  0  0  0  0  0  0
   -6.7878   -0.5929    1.4280 H   0  0  0  0  0  0  0  0  0  0  0  0
   -6.0369    0.3963    0.1798 H   0  0  0  0  0  0  0  0  0  0  0  0
   -6.5042   -1.8274   -0.7124 H   0  0  0  0  0  0  0  0  0  0  0  0
   -6.3932   -3.1324    1.3911 H   0  0  0  0  0  0  0  0  0  0  0  0
   -4.6232   -2.9911    1.4088 H   0  0  0  0  0  0  0  0  0  0  0  0
   -5.4239   -3.8634    0.1009 H   0  0  0  0  0  0  0  0  0  0  0  0
   -4.6741   -0.7704   -1.7498 H   0  0  0  0  0  0  0  0  0  0  0  0
   -4.0973   -2.4117   -1.4450 H   0  0  0  0  0  0  0  0  0  0  0  0
  1  2  1  0
  2  3  1  0
  3  4  1  0
  4  5  2  0
  4  6  1  0
  6  7  2  0
  7  8  1  0
  8  9  1  0
  9 10  2  0
  9 11  1  0
 11 12  1  0
 12 13  1  0
 13 14  2  0
 14 15  1  0
 15 16  2  0
 15 17  1  0
 14 18  1  0
 18 19  2  0
 19 20  1  0
 20 21  2  0
 21 22  1  0
 22 23  2  0
 23 24  1  0
 24 25  2  0
  7 26  1  0
 26 27  1  0
 27 28  2  0
 28 29  1  0
 29 30  1  0
 30 31  1  0
 31 32  1  0
 31 33  1  0
 28  6  1  0
 24 12  1  0
 33 27  1  0
 23 18  1  0
  1 34  1  0
  1 35  1  0
  1 36  1  0
  2 37  1  0
  2 38  1  0
  8 39  1  0
 11 40  1  0
 11 41  1  0
 17 42  1  0
 19 43  1  0
 20 44  1  0
 21 45  1  0
 22 46  1  0
 29 47  1  0
 29 48  1  0
 30 49  1  0
 30 50  1  0
 31 51  1  0
 32 52  1  0
 32 53  1  0
 32 54  1  0
 33 55  1  0
 33 56  1  0
M  END
$$$$
