
     RDKit          3D

 45 47  0  0  0  0  0  0  0  0999 V2000
   -6.9661   -0.6219   -1.8707 C   0  0  0  0  0  0  0  0  0  0  0  0
   -5.8432   -0.0093   -1.0865 C   0  0  0  0  0  0  0  0  0  0  0  0
   -6.1115    0.7551    0.0538 C   0  0  0  0  0  0  0  0  0  0  0  0
   -5.0714    1.3616    0.7580 C   0  0  0  0  0  0  0  0  0  0  0  0
   -3.7539    1.2153    0.3250 C   0  0  0  0  0  0  0  0  0  0  0  0
   -3.4629    0.4590   -0.8188 C   0  0  0  0  0  0  0  0  0  0  0  0
   -2.0405    0.2982   -1.2891 C   0  0  0  0  0  0  0  0  0  0  0  0
   -1.6473    1.5905   -2.4733 S   0  0  0  0  0  6  0  0  0  0  0  0
   -1.4933    2.8551   -1.7725 O   0  0  0  0  0  0  0  0  0  0  0  0
   -2.5665    1.4909   -3.5972 O   0  0  0  0  0  0  0  0  0  0  0  0
   -0.0523    1.1143   -3.1153 C   0  0  0  0  0  0  0  0  0  0  0  0
    0.9482    1.0733   -2.0301 C   0  0  0  0  0  0  0  0  0  0  0  0
    1.8673    1.9787   -1.5462 C   0  0  0  0  0  0  0  0  0  0  0  0
    2.5562    1.3237   -0.4954 C   0  0  0  0  0  0  0  0  0  0  0  0
    2.0182    0.0517   -0.3923 C   0  0  0  0  0  0  0  0  0  0  0  0
    2.2829   -1.0687    0.4899 C   0  0  0  0  0  0  0  0  0  0  0  0
    1.5298   -2.0326    0.6101 O   0  0  0  0  0  0  0  0  0  0  0  0
    3.4728   -0.9894    1.1836 N   0  0  0  0  0  0  0  0  0  0  0  0
    3.9302   -2.1200    1.9550 C   0  0  0  0  0  0  0  0  0  0  0  0
    5.1819   -1.7356    2.6507 C   0  0  0  0  0  0  0  0  0  0  0  0
    5.5211   -1.5637    3.9772 C   0  0  0  0  0  0  0  0  0  0  0  0
    6.8855   -1.1802    3.9944 C   0  0  0  0  0  0  0  0  0  0  0  0
    7.2917   -1.1453    2.6805 C   0  0  0  0  0  0  0  0  0  0  0  0
    6.2636   -1.4741    1.8562 O   0  0  0  0  0  0  0  0  0  0  0  0
    1.0395   -0.0960   -1.3407 O   0  0  0  0  0  0  0  0  0  0  0  0
   -4.5185   -0.1424   -1.5226 C   0  0  0  0  0  0  0  0  0  0  0  0
   -7.8062   -0.8743   -1.2150 H   0  0  0  0  0  0  0  0  0  0  0  0
   -7.3133    0.0790   -2.6372 H   0  0  0  0  0  0  0  0  0  0  0  0
   -6.6433   -1.5486   -2.3563 H   0  0  0  0  0  0  0  0  0  0  0  0
   -7.1343    0.8882    0.3976 H   0  0  0  0  0  0  0  0  0  0  0  0
   -5.2906    1.9550    1.6420 H   0  0  0  0  0  0  0  0  0  0  0  0
   -2.9575    1.7048    0.8832 H   0  0  0  0  0  0  0  0  0  0  0  0
   -1.9004   -0.6694   -1.7811 H   0  0  0  0  0  0  0  0  0  0  0  0
   -1.3505    0.3728   -0.4450 H   0  0  0  0  0  0  0  0  0  0  0  0
   -0.1634    0.1406   -3.6015 H   0  0  0  0  0  0  0  0  0  0  0  0
    0.2218    1.8518   -3.8755 H   0  0  0  0  0  0  0  0  0  0  0  0
    2.0158    2.9901   -1.9004 H   0  0  0  0  0  0  0  0  0  0  0  0
    3.3357    1.7415    0.1275 H   0  0  0  0  0  0  0  0  0  0  0  0
    4.1856   -0.3670    0.8331 H   0  0  0  0  0  0  0  0  0  0  0  0
    3.1471   -2.4123    2.6633 H   0  0  0  0  0  0  0  0  0  0  0  0
    4.1081   -2.9587    1.2720 H   0  0  0  0  0  0  0  0  0  0  0  0
    4.8657   -1.6927    4.8278 H   0  0  0  0  0  0  0  0  0  0  0  0
    7.4980   -0.9601    4.8576 H   0  0  0  0  0  0  0  0  0  0  0  0
    8.2301   -0.9175    2.1905 H   0  0  0  0  0  0  0  0  0  0  0  0
   -4.3100   -0.7115   -2.4278 H   0  0  0  0  0  0  0  0  0  0  0  0
  1  2  1  0
  2  3  2  0
  3  4  1  0
  4  5  2  0
  5  6  1  0
  6  7  1  0
  7  8  1  0
  8  9  2  0
  8 10  2  0
  8 11  1  0
 11 12  1  0
 12 13  2  0
 13 14  1  0
 14 15  2  0
 15 16  1  0
 16 17  2  0
 16 18  1  0
 18 19  1  0
 19 20  1  0
 20 21  2  0
 21 22  1  0
 22 23  2  0
 23 24  1  0
 15 25  1  0
  6 26  2  0
 26  2  1  0
 25 12  1  0
 24 20  1  0
  1 27  1  0
  1 28  1  0
  1 29  1  0
  3 30  1  0
  4 31  1  0
  5 32  1  0
  7 33  1  0
  7 34  1  0
 11 35  1  0
 11 36  1  0
 13 37  1  0
 14 38  1  0
 18 39  1  0
 19 40  1  0
 19 41  1  0
 21 42  1  0
 22 43  1  0
 23 44  1  0
 26 45  1  0
M  END
$$$$
