
     RDKit          3D

 46 50  0  0  0  0  0  0  0  0999 V2000
   -7.3085   -1.0235    2.3268 C   0  0  0  0  0  0  0  0  0  0  0  0
   -5.9993   -0.7761    1.6216 C   0  0  0  0  0  0  0  0  0  0  0  0
   -4.8226   -1.3118    2.1742 C   0  0  0  0  0  0  0  0  0  0  0  0
   -3.5726   -1.1251    1.5793 C   0  0  0  0  0  0  0  0  0  0  0  0
   -3.5450   -0.3770    0.4027 C   0  0  0  0  0  0  0  0  0  0  0  0
   -4.6904    0.1755   -0.1826 C   0  0  0  0  0  0  0  0  0  0  0  0
   -4.3765    0.8683   -1.3409 N   0  0  0  0  0  0  0  0  0  0  0  0
   -3.0851    0.7322   -1.4387 C   0  0  0  0  0  0  0  0  0  0  0  0
   -1.9371    1.2927   -2.5849 S   0  0  0  0  0  0  0  0  0  0  0  0
   -0.6404    0.4957   -1.6867 C   0  0  0  0  0  0  0  0  0  0  0  0
    0.6266    0.5900   -2.1155 C   0  0  0  0  0  0  0  0  0  0  0  0
    1.7736    0.0116   -1.5103 C   0  0  0  0  0  0  0  0  0  0  0  0
    1.9903   -1.2223   -0.9114 C   0  0  0  0  0  0  0  0  0  0  0  0
    3.3451   -1.2830   -0.5039 C   0  0  0  0  0  0  0  0  0  0  0  0
    3.9170   -0.0908   -0.8836 C   0  0  0  0  0  0  0  0  0  0  0  0
    5.2528    0.4900   -0.7821 C   0  0  0  0  0  0  0  0  0  0  0  0
    5.7468    1.2555   -1.8547 C   0  0  0  0  0  0  0  0  0  0  0  0
    7.0463    1.7723   -1.8413 C   0  0  0  0  0  0  0  0  0  0  0  0
    7.8830    1.5302   -0.7558 C   0  0  0  0  0  0  0  0  0  0  0  0
    7.4145    0.7848    0.3239 C   0  0  0  0  0  0  0  0  0  0  0  0
    6.1027    0.2830    0.3186 C   0  0  0  0  0  0  0  0  0  0  0  0
    5.6833   -0.4473    1.5260 C   0  0  0  0  0  0  0  0  0  0  0  0
    6.2517   -1.4039    2.0155 O   0  0  0  0  0  0  0  0  0  0  0  0
    4.6161    0.1322    2.0991 O   0  0  0  0  0  0  0  0  0  0  0  0
    2.9822    0.6745   -1.5149 O   0  0  0  0  0  0  0  0  0  0  0  0
   -1.1685   -0.1947   -0.4662 C   0  0  0  0  0  0  0  0  0  0  0  0
   -0.6024   -0.8291    0.4021 O   0  0  0  0  0  0  0  0  0  0  0  0
   -2.5327    0.0050   -0.4417 N   0  0  0  0  0  0  0  0  0  0  0  0
   -5.9530   -0.0158    0.4222 C   0  0  0  0  0  0  0  0  0  0  0  0
   -7.2051    0.5625   -0.1773 C   0  0  0  0  0  0  0  0  0  0  0  0
   -7.7624   -0.0746    2.6292 H   0  0  0  0  0  0  0  0  0  0  0  0
   -7.9961   -1.5674    1.6715 H   0  0  0  0  0  0  0  0  0  0  0  0
   -7.1715   -1.6255    3.2314 H   0  0  0  0  0  0  0  0  0  0  0  0
   -4.8715   -1.8924    3.0950 H   0  0  0  0  0  0  0  0  0  0  0  0
   -2.6710   -1.5437    2.0170 H   0  0  0  0  0  0  0  0  0  0  0  0
    0.8419    1.1978   -2.9922 H   0  0  0  0  0  0  0  0  0  0  0  0
    1.2549   -2.0045   -0.7809 H   0  0  0  0  0  0  0  0  0  0  0  0
    3.8387   -2.1060   -0.0058 H   0  0  0  0  0  0  0  0  0  0  0  0
    5.1195    1.4414   -2.7254 H   0  0  0  0  0  0  0  0  0  0  0  0
    7.4050    2.3561   -2.6858 H   0  0  0  0  0  0  0  0  0  0  0  0
    8.8960    1.9248   -0.7482 H   0  0  0  0  0  0  0  0  0  0  0  0
    8.0659    0.6028    1.1765 H   0  0  0  0  0  0  0  0  0  0  0  0
    4.4362   -0.4023    2.8996 H   0  0  0  0  0  0  0  0  0  0  0  0
   -7.9098   -0.2358   -0.4301 H   0  0  0  0  0  0  0  0  0  0  0  0
   -7.6780    1.2561    0.5250 H   0  0  0  0  0  0  0  0  0  0  0  0
   -6.9908    1.1175   -1.0962 H   0  0  0  0  0  0  0  0  0  0  0  0
  1  2  1  0
  2  3  2  0
  3  4  1  0
  4  5  2  0
  5  6  1  0
  6  7  1  0
  7  8  2  0
  8  9  1  0
  9 10  1  0
 10 11  2  3
 11 12  1  0
 12 13  2  0
 13 14  1  0
 14 15  2  0
 15 16  1  0
 16 17  2  0
 17 18  1  0
 18 19  2  0
 19 20  1  0
 20 21  2  0
 21 22  1  0
 22 23  2  0
 22 24  1  0
 15 25  1  0
 10 26  1  0
 26 27  2  0
 26 28  1  0
  6 29  2  0
 29 30  1  0
 29  2  1  0
 28  5  1  0
 28  8  1  0
 25 12  1  0
 21 16  1  0
  1 31  1  0
  1 32  1  0
  1 33  1  0
  3 34  1  0
  4 35  1  0
 11 36  1  0
 13 37  1  0
 14 38  1  0
 17 39  1  0
 18 40  1  0
 19 41  1  0
 20 42  1  0
 24 43  1  0
 30 44  1  0
 30 45  1  0
 30 46  1  0
M  END
$$$$
