
     RDKit          3D

 31 31  0  0  0  0  0  0  0  0999 V2000
    4.7824   -0.6071   -1.8525 N   0  0  0  0  0  0  0  0  0  0  0  0
    3.6165   -1.0703   -1.3212 C   0  0  0  0  0  0  0  0  0  0  0  0
    2.8862   -2.4112   -1.9816 S   0  0  0  0  0  0  0  0  0  0  0  0
    3.1915   -0.3337   -0.2408 N   0  0  0  0  0  0  0  0  0  0  0  0
    1.9014   -0.5221    0.2908 N   0  0  0  0  0  0  0  0  0  0  0  0
    1.1110    0.6011    0.4424 C   0  0  0  0  0  0  0  0  0  0  0  0
    1.5532    1.7324    0.2406 O   0  0  0  0  0  0  0  0  0  0  0  0
   -0.3348    0.3271    0.8672 C   0  0  0  0  0  0  0  0  0  0  0  0
   -0.9215    1.5993    1.5053 C   0  0  0  0  0  0  0  0  0  0  0  0
   -2.3927    1.4413    1.8660 C   0  0  0  0  0  0  0  0  0  0  0  0
   -3.2119    1.0584    0.6417 C   0  0  0  0  0  0  0  0  0  0  0  0
   -2.6806   -0.2183    0.0043 C   0  0  0  0  0  0  0  0  0  0  0  0
   -1.1870   -0.1317   -0.3382 C   0  0  0  0  0  0  0  0  0  0  0  0
   -0.7531   -1.4989   -0.8086 C   0  0  0  0  0  0  0  0  0  0  0  0
   -0.1866   -2.3397   -0.1278 O   0  0  0  0  0  0  0  0  0  0  0  0
   -1.0316   -1.7217   -2.1037 O   0  0  0  0  0  0  0  0  0  0  0  0
    5.2138   -1.1811   -2.5681 H   0  0  0  0  0  0  0  0  0  0  0  0
    5.4169   -0.0765   -1.2708 H   0  0  0  0  0  0  0  0  0  0  0  0
    3.4896    0.6426   -0.2133 H   0  0  0  0  0  0  0  0  0  0  0  0
    1.5185   -1.4715    0.2726 H   0  0  0  0  0  0  0  0  0  0  0  0
   -0.3127   -0.4563    1.6372 H   0  0  0  0  0  0  0  0  0  0  0  0
   -0.8168    2.4507    0.8199 H   0  0  0  0  0  0  0  0  0  0  0  0
   -0.3508    1.8571    2.4061 H   0  0  0  0  0  0  0  0  0  0  0  0
   -2.7726    2.3801    2.2844 H   0  0  0  0  0  0  0  0  0  0  0  0
   -2.5034    0.6750    2.6428 H   0  0  0  0  0  0  0  0  0  0  0  0
   -3.1852    1.8738   -0.0914 H   0  0  0  0  0  0  0  0  0  0  0  0
   -4.2605    0.9191    0.9277 H   0  0  0  0  0  0  0  0  0  0  0  0
   -2.8566   -1.0596    0.6884 H   0  0  0  0  0  0  0  0  0  0  0  0
   -3.2593   -0.4379   -0.9016 H   0  0  0  0  0  0  0  0  0  0  0  0
   -1.0321    0.5755   -1.1641 H   0  0  0  0  0  0  0  0  0  0  0  0
   -0.6313   -2.5956   -2.3037 H   0  0  0  0  0  0  0  0  0  0  0  0
  1  2  1  0
  2  3  2  0
  2  4  1  0
  4  5  1  0
  5  6  1  0
  6  7  2  0
  6  8  1  0
  8  9  1  0
  9 10  1  0
 10 11  1  0
 11 12  1  0
 12 13  1  0
 13 14  1  0
 14 15  2  0
 14 16  1  0
 13  8  1  0
  1 17  1  0
  1 18  1  0
  4 19  1  0
  5 20  1  0
  8 21  1  0
  9 22  1  0
  9 23  1  0
 10 24  1  0
 10 25  1  0
 11 26  1  0
 11 27  1  0
 12 28  1  0
 12 29  1  0
 13 30  1  0
 16 31  1  0
M  END
$$$$
