
     RDKit          3D

 46 48  0  0  0  0  0  0  0  0999 V2000
   -0.7227   -1.2918    1.3132 O   0  0  0  0  0  0  0  0  0  0  0  0
   -0.6327   -0.4454    0.4317 C   0  0  0  0  0  0  0  0  0  0  0  0
    0.7085    0.0800   -0.0540 C   0  0  0  0  0  0  0  0  0  0  0  0
    1.8723   -0.7132    0.5474 C   0  0  0  0  0  0  0  0  0  0  0  0
    3.1934   -0.3155   -0.0026 N   0  0  0  0  0  0  0  0  0  0  0  0
    3.5801    1.0183    0.4858 C   0  0  0  0  0  0  0  0  0  0  0  0
    4.9043    1.5761   -0.0499 C   0  0  0  0  0  0  0  0  0  0  0  0
    6.1295    0.9107    0.5620 C   0  0  0  0  0  0  0  0  0  0  0  0
    6.5404   -0.3927   -0.1084 C   0  0  0  0  0  0  0  0  0  0  0  0
    5.4118   -1.2957   -0.5912 C   0  0  0  0  0  0  0  0  0  0  0  0
    4.1858   -1.3582    0.3199 C   0  0  0  0  0  0  0  0  0  0  0  0
   -1.6846    0.1727   -0.2277 N   0  0  0  0  0  0  0  0  0  0  0  0
   -3.0660   -0.0396   -0.0374 C   0  0  0  0  0  0  0  0  0  0  0  0
   -3.5986   -0.9439    0.8854 C   0  0  0  0  0  0  0  0  0  0  0  0
   -4.9843   -1.0904    1.0201 C   0  0  0  0  0  0  0  0  0  0  0  0
   -5.8456   -0.3314    0.2350 C   0  0  0  0  0  0  0  0  0  0  0  0
   -5.3229    0.5542   -0.7090 C   0  0  0  0  0  0  0  0  0  0  0  0
   -3.9416    0.7102   -0.8343 C   0  0  0  0  0  0  0  0  0  0  0  0
   -6.1058    1.3123   -1.5430 O   0  0  0  0  0  0  0  0  0  0  0  0
   -7.4551    0.8307   -1.5694 C   0  0  0  0  0  0  0  0  0  0  0  0
   -7.9509    0.5441   -0.1615 C   0  0  0  0  0  0  0  0  0  0  0  0
   -7.1894   -0.5108    0.4367 O   0  0  0  0  0  0  0  0  0  0  0  0
    0.7364    0.0071   -1.1479 H   0  0  0  0  0  0  0  0  0  0  0  0
    0.7614    1.1368    0.2271 H   0  0  0  0  0  0  0  0  0  0  0  0
    1.8696   -0.6357    1.6428 H   0  0  0  0  0  0  0  0  0  0  0  0
    1.6877   -1.7702    0.3121 H   0  0  0  0  0  0  0  0  0  0  0  0
    3.5961    1.0356    1.5838 H   0  0  0  0  0  0  0  0  0  0  0  0
    2.8166    1.7404    0.1760 H   0  0  0  0  0  0  0  0  0  0  0  0
    4.9376    2.6411    0.2147 H   0  0  0  0  0  0  0  0  0  0  0  0
    4.9341    1.5332   -1.1452 H   0  0  0  0  0  0  0  0  0  0  0  0
    6.9791    1.6025    0.5007 H   0  0  0  0  0  0  0  0  0  0  0  0
    5.9632    0.7384    1.6326 H   0  0  0  0  0  0  0  0  0  0  0  0
    7.1714   -0.9519    0.5942 H   0  0  0  0  0  0  0  0  0  0  0  0
    7.1850   -0.1669   -0.9677 H   0  0  0  0  0  0  0  0  0  0  0  0
    5.1076   -0.9954   -1.6027 H   0  0  0  0  0  0  0  0  0  0  0  0
    5.8209   -2.3085   -0.7035 H   0  0  0  0  0  0  0  0  0  0  0  0
    3.7354   -2.3418    0.1313 H   0  0  0  0  0  0  0  0  0  0  0  0
    4.4640   -1.3467    1.3811 H   0  0  0  0  0  0  0  0  0  0  0  0
   -1.4364    0.8555   -0.9335 H   0  0  0  0  0  0  0  0  0  0  0  0
   -2.9640   -1.5522    1.5222 H   0  0  0  0  0  0  0  0  0  0  0  0
   -5.3851   -1.7913    1.7474 H   0  0  0  0  0  0  0  0  0  0  0  0
   -3.5645    1.4161   -1.5688 H   0  0  0  0  0  0  0  0  0  0  0  0
   -7.4923   -0.0671   -2.1990 H   0  0  0  0  0  0  0  0  0  0  0  0
   -8.0731    1.6025   -2.0388 H   0  0  0  0  0  0  0  0  0  0  0  0
   -8.9974    0.2247   -0.1863 H   0  0  0  0  0  0  0  0  0  0  0  0
   -7.8792    1.4322    0.4785 H   0  0  0  0  0  0  0  0  0  0  0  0
  1  2  2  0
  2  3  1  0
  3  4  1  0
  4  5  1  0
  5  6  1  0
  6  7  1  0
  7  8  1  0
  8  9  1  0
  9 10  1  0
 10 11  1  0
  2 12  1  0
 12 13  1  0
 13 14  2  0
 14 15  1  0
 15 16  2  0
 16 17  1  0
 17 18  2  0
 17 19  1  0
 19 20  1  0
 20 21  1  0
 21 22  1  0
 11  5  1  0
 18 13  1  0
 22 16  1  0
  3 23  1  0
  3 24  1  0
  4 25  1  0
  4 26  1  0
  6 27  1  0
  6 28  1  0
  7 29  1  0
  7 30  1  0
  8 31  1  0
  8 32  1  0
  9 33  1  0
  9 34  1  0
 10 35  1  0
 10 36  1  0
 11 37  1  0
 11 38  1  0
 12 39  1  0
 14 40  1  0
 15 41  1  0
 18 42  1  0
 20 43  1  0
 20 44  1  0
 21 45  1  0
 21 46  1  0
M  END
$$$$
