
     RDKit          3D

 54 56  0  0  0  0  0  0  0  0999 V2000
   -6.4583   -1.3334   -2.5349 C   0  0  0  0  0  0  0  0  0  0  0  0
   -5.6238   -1.2243   -1.2684 C   0  0  0  0  0  0  0  0  0  0  0  0
   -4.1984   -1.7348   -1.4931 C   0  0  0  0  0  0  0  0  0  0  0  0
   -3.3430   -1.6545   -0.2290 C   0  0  0  0  0  0  0  0  0  0  0  0
   -3.0890   -0.2895    0.1852 N   0  0  0  0  0  0  0  0  0  0  0  0
   -2.0911    0.4718   -0.3870 C   0  0  0  0  0  0  0  0  0  0  0  0
   -1.3209    0.0305   -1.2342 O   0  0  0  0  0  0  0  0  0  0  0  0
   -2.0327    1.9083    0.1444 C   0  0  0  0  0  0  0  0  0  0  0  0
   -1.0973    2.8022   -0.6804 C   0  0  0  0  0  0  0  0  0  0  0  0
    0.3873    2.5132   -0.4511 C   0  0  0  0  0  0  0  0  0  0  0  0
    0.7615    2.4878    1.0391 C   0  0  0  0  0  0  0  0  0  0  0  0
    2.2425    2.1200    1.2570 C   0  0  0  0  0  0  0  0  0  0  0  0
    2.5172    0.7355    0.9054 N   0  0  0  0  0  0  0  0  0  0  0  0
    3.7264    0.0679    1.0267 C   0  0  0  0  0  0  0  0  0  0  0  0
    4.7181    0.6227    1.7915 N   0  0  0  0  0  0  0  0  0  0  0  0
    5.9575    0.0845    2.0135 C   0  0  0  0  0  0  0  0  0  0  0  0
    7.0090    0.9326    3.0090 S   0  0  0  0  0  0  0  0  0  0  0  0
    6.2720   -1.1034    1.4179 N   0  0  0  0  0  0  0  0  0  0  0  0
    5.3610   -1.6644    0.6888 C   0  0  0  0  0  0  0  0  0  0  0  0
    5.6816   -2.9629    0.0306 C   0  0  0  0  0  0  0  0  0  0  0  0
    4.7723   -3.5945   -0.7228 C   0  0  0  0  0  0  0  0  0  0  0  0
    3.4493   -3.0617   -0.9337 C   0  0  0  0  0  0  0  0  0  0  0  0
    3.0710   -1.8961   -0.3902 C   0  0  0  0  0  0  0  0  0  0  0  0
    3.9840   -1.1213    0.4355 C   0  0  0  0  0  0  0  0  0  0  0  0
   -0.1790    1.5825    1.8496 C   0  0  0  0  0  0  0  0  0  0  0  0
   -1.6466    1.9432    1.6278 C   0  0  0  0  0  0  0  0  0  0  0  0
   -7.4775   -0.9800   -2.3486 H   0  0  0  0  0  0  0  0  0  0  0  0
   -6.0308   -0.7249   -3.3379 H   0  0  0  0  0  0  0  0  0  0  0  0
   -6.5157   -2.3698   -2.8812 H   0  0  0  0  0  0  0  0  0  0  0  0
   -5.6069   -0.1776   -0.9444 H   0  0  0  0  0  0  0  0  0  0  0  0
   -6.1031   -1.8040   -0.4710 H   0  0  0  0  0  0  0  0  0  0  0  0
   -4.2409   -2.7818   -1.8179 H   0  0  0  0  0  0  0  0  0  0  0  0
   -3.7267   -1.1659   -2.3035 H   0  0  0  0  0  0  0  0  0  0  0  0
   -3.8349   -2.1636    0.6066 H   0  0  0  0  0  0  0  0  0  0  0  0
   -2.3820   -2.1494   -0.4078 H   0  0  0  0  0  0  0  0  0  0  0  0
   -3.7705    0.1621    0.7810 H   0  0  0  0  0  0  0  0  0  0  0  0
   -3.0494    2.3112    0.0391 H   0  0  0  0  0  0  0  0  0  0  0  0
   -1.3223    2.7047   -1.7495 H   0  0  0  0  0  0  0  0  0  0  0  0
   -1.2914    3.8498   -0.4158 H   0  0  0  0  0  0  0  0  0  0  0  0
    0.6442    1.5643   -0.9316 H   0  0  0  0  0  0  0  0  0  0  0  0
    0.9811    3.2805   -0.9637 H   0  0  0  0  0  0  0  0  0  0  0  0
    0.6338    3.5125    1.4166 H   0  0  0  0  0  0  0  0  0  0  0  0
    2.8787    2.7839    0.6604 H   0  0  0  0  0  0  0  0  0  0  0  0
    2.4890    2.2857    2.3125 H   0  0  0  0  0  0  0  0  0  0  0  0
    1.9210    0.3646    0.1720 H   0  0  0  0  0  0  0  0  0  0  0  0
    4.5346    1.4945    2.2627 H   0  0  0  0  0  0  0  0  0  0  0  0
    6.6753   -3.3625    0.1949 H   0  0  0  0  0  0  0  0  0  0  0  0
    5.0159   -4.5411   -1.1953 H   0  0  0  0  0  0  0  0  0  0  0  0
    2.7607   -3.6363   -1.5470 H   0  0  0  0  0  0  0  0  0  0  0  0
    2.0631   -1.5369   -0.5659 H   0  0  0  0  0  0  0  0  0  0  0  0
   -0.0277    0.5292    1.5845 H   0  0  0  0  0  0  0  0  0  0  0  0
    0.0544    1.6736    2.9175 H   0  0  0  0  0  0  0  0  0  0  0  0
   -1.8289    2.9515    2.0205 H   0  0  0  0  0  0  0  0  0  0  0  0
   -2.2738    1.2638    2.2160 H   0  0  0  0  0  0  0  0  0  0  0  0
  1  2  1  0
  2  3  1  0
  3  4  1  0
  4  5  1  0
  5  6  1  0
  6  7  2  0
  6  8  1  0
  8  9  1  0
  9 10  1  0
 10 11  1  0
 11 12  1  0
 12 13  1  0
 13 14  1  0
 14 15  1  0
 15 16  1  0
 16 17  2  0
 16 18  1  0
 18 19  2  0
 19 20  1  0
 20 21  2  0
 21 22  1  0
 22 23  2  0
 23 24  1  0
 11 25  1  0
 25 26  1  0
 26  8  1  0
 24 14  2  0
 24 19  1  0
  1 27  1  0
  1 28  1  0
  1 29  1  0
  2 30  1  0
  2 31  1  0
  3 32  1  0
  3 33  1  0
  4 34  1  0
  4 35  1  0
  5 36  1  0
  8 37  1  0
  9 38  1  0
  9 39  1  0
 10 40  1  0
 10 41  1  0
 11 42  1  0
 12 43  1  0
 12 44  1  0
 13 45  1  0
 15 46  1  0
 20 47  1  0
 21 48  1  0
 22 49  1  0
 23 50  1  0
 25 51  1  0
 25 52  1  0
 26 53  1  0
 26 54  1  0
M  END
$$$$
