
     RDKit          3D

 43 46  0  0  0  0  0  0  0  0999 V2000
   -4.5806   -2.7892    0.0019 C   0  0  0  0  0  0  0  0  0  0  0  0
   -4.0329   -1.7376   -0.8420 N   0  0  0  0  0  0  0  0  0  0  0  0
   -4.6484   -1.5070   -2.0709 C   0  0  0  0  0  0  0  0  0  0  0  0
   -5.6153   -2.1473   -2.4766 O   0  0  0  0  0  0  0  0  0  0  0  0
   -4.0820   -0.3948   -2.9609 C   0  0  0  0  0  0  0  0  0  0  0  0
   -4.6165   -0.1838   -4.0468 O   0  0  0  0  0  0  0  0  0  0  0  0
   -2.9823    0.3215   -2.4915 N   0  0  0  0  0  0  0  0  0  0  0  0
   -2.4567    1.3844   -3.3364 C   0  0  0  0  0  0  0  0  0  0  0  0
   -2.3870    0.0410   -1.2309 C   0  0  0  0  0  0  0  0  0  0  0  0
   -1.2724    0.7744   -0.7857 C   0  0  0  0  0  0  0  0  0  0  0  0
   -0.6854    0.4926    0.4500 C   0  0  0  0  0  0  0  0  0  0  0  0
    0.7273    1.4236    1.0083 S   0  0  0  0  0  6  0  0  0  0  0  0
    0.3857    1.9111    2.3277 O   0  0  0  0  0  0  0  0  0  0  0  0
    1.1048    2.3280   -0.0593 O   0  0  0  0  0  0  0  0  0  0  0  0
    1.9190    0.2047    1.1202 N   0  0  0  0  0  0  0  0  0  0  0  0
    2.3199   -0.4379   -0.1818 C   0  0  0  0  0  0  0  0  0  0  0  0
    3.7965   -0.0873   -0.4249 C   0  0  0  0  0  0  0  0  0  0  0  0
    4.2342    0.3998    0.9142 C   0  0  0  0  0  0  0  0  0  0  0  0
    5.5212    0.6978    1.3331 C   0  0  0  0  0  0  0  0  0  0  0  0
    5.6983    1.1946    2.6264 C   0  0  0  0  0  0  0  0  0  0  0  0
    4.5967    1.3892    3.4739 C   0  0  0  0  0  0  0  0  0  0  0  0
    3.3032    1.0915    3.0375 C   0  0  0  0  0  0  0  0  0  0  0  0
    3.1418    0.6097    1.7507 C   0  0  0  0  0  0  0  0  0  0  0  0
   -1.1995   -0.5058    1.2687 C   0  0  0  0  0  0  0  0  0  0  0  0
   -2.3047   -1.2372    0.8353 C   0  0  0  0  0  0  0  0  0  0  0  0
   -2.9094   -0.9802   -0.4116 C   0  0  0  0  0  0  0  0  0  0  0  0
   -4.9142   -2.3578    0.9511 H   0  0  0  0  0  0  0  0  0  0  0  0
   -5.4416   -3.2823   -0.4582 H   0  0  0  0  0  0  0  0  0  0  0  0
   -3.8153   -3.5524    0.1756 H   0  0  0  0  0  0  0  0  0  0  0  0
   -2.5211    2.3386   -2.8037 H   0  0  0  0  0  0  0  0  0  0  0  0
   -3.0189    1.4873   -4.2688 H   0  0  0  0  0  0  0  0  0  0  0  0
   -1.4176    1.1607   -3.5985 H   0  0  0  0  0  0  0  0  0  0  0  0
   -0.8463    1.5739   -1.3854 H   0  0  0  0  0  0  0  0  0  0  0  0
    2.1989   -1.5221   -0.0639 H   0  0  0  0  0  0  0  0  0  0  0  0
    1.7009   -0.1350   -1.0312 H   0  0  0  0  0  0  0  0  0  0  0  0
    3.8868    0.7162   -1.1635 H   0  0  0  0  0  0  0  0  0  0  0  0
    4.3630   -0.9608   -0.7600 H   0  0  0  0  0  0  0  0  0  0  0  0
    6.3734    0.5576    0.6756 H   0  0  0  0  0  0  0  0  0  0  0  0
    6.6979    1.4370    2.9807 H   0  0  0  0  0  0  0  0  0  0  0  0
    4.7505    1.7750    4.4790 H   0  0  0  0  0  0  0  0  0  0  0  0
    2.4567    1.2317    3.7012 H   0  0  0  0  0  0  0  0  0  0  0  0
   -0.7509   -0.7148    2.2383 H   0  0  0  0  0  0  0  0  0  0  0  0
   -2.6782   -2.0088    1.5031 H   0  0  0  0  0  0  0  0  0  0  0  0
  1  2  1  0
  2  3  1  0
  3  4  2  0
  3  5  1  0
  5  6  2  0
  5  7  1  0
  7  8  1  0
  7  9  1  0
  9 10  2  0
 10 11  1  0
 11 12  1  0
 12 13  2  0
 12 14  2  0
 12 15  1  0
 15 16  1  0
 16 17  1  0
 17 18  1  0
 18 19  2  0
 19 20  1  0
 20 21  2  0
 21 22  1  0
 22 23  2  0
 11 24  2  0
 24 25  1  0
 25 26  2  0
 26  2  1  0
 26  9  1  0
 23 15  1  0
 23 18  1  0
  1 27  1  0
  1 28  1  0
  1 29  1  0
  8 30  1  0
  8 31  1  0
  8 32  1  0
 10 33  1  0
 16 34  1  0
 16 35  1  0
 17 36  1  0
 17 37  1  0
 19 38  1  0
 20 39  1  0
 21 40  1  0
 22 41  1  0
 24 42  1  0
 25 43  1  0
M  END
$$$$
