
     RDKit          3D

 62 64  0  0  0  0  0  0  0  0999 V2000
    8.4097    3.6047    2.8245 C   0  0  0  0  0  0  0  0  0  0  0  0
    7.6606    3.7507    1.6249 O   0  0  0  0  0  0  0  0  0  0  0  0
    6.3506    3.3592    1.6638 C   0  0  0  0  0  0  0  0  0  0  0  0
    5.6476    3.5535    0.4730 C   0  0  0  0  0  0  0  0  0  0  0  0
    4.3005    3.1980    0.3727 C   0  0  0  0  0  0  0  0  0  0  0  0
    3.6342    2.6427    1.4702 C   0  0  0  0  0  0  0  0  0  0  0  0
    2.1855    2.2363    1.3623 C   0  0  0  0  0  0  0  0  0  0  0  0
    2.0465    0.7892    0.8976 C   0  0  0  0  0  0  0  0  0  0  0  0
    0.5928    0.3686    0.7897 C   0  0  0  0  0  0  0  0  0  0  0  0
   -0.3344    1.1438    0.9959 O   0  0  0  0  0  0  0  0  0  0  0  0
    0.4754   -0.9538    0.4179 N   0  0  0  0  0  0  0  0  0  0  0  0
   -0.7015   -1.7067    0.2322 C   0  0  0  0  0  0  0  0  0  0  0  0
   -1.9729   -1.2584    0.5841 C   0  0  0  0  0  0  0  0  0  0  0  0
   -3.0838   -2.0598    0.3085 C   0  0  0  0  0  0  0  0  0  0  0  0
   -4.7078   -1.4865    0.7655 S   0  0  0  0  0  6  0  0  0  0  0  0
   -5.6083   -2.6162    0.6496 O   0  0  0  0  0  0  0  0  0  0  0  0
   -4.5804   -0.7689    2.0151 O   0  0  0  0  0  0  0  0  0  0  0  0
   -5.1020   -0.3796   -0.4687 N   0  0  0  0  0  0  0  0  0  0  0  0
   -5.2832   -0.9437   -1.8271 C   0  0  0  0  0  0  0  0  0  0  0  0
   -6.0676    0.0461   -2.6853 C   0  0  0  0  0  0  0  0  0  0  0  0
   -5.3903    1.4135   -2.7192 C   0  0  0  0  0  0  0  0  0  0  0  0
   -5.1406    1.9285   -1.3043 C   0  0  0  0  0  0  0  0  0  0  0  0
   -4.3644    0.9088   -0.4739 C   0  0  0  0  0  0  0  0  0  0  0  0
   -2.9314   -3.3245   -0.2677 C   0  0  0  0  0  0  0  0  0  0  0  0
   -1.6545   -3.7874   -0.5902 C   0  0  0  0  0  0  0  0  0  0  0  0
   -0.5265   -2.9886   -0.3486 C   0  0  0  0  0  0  0  0  0  0  0  0
    0.8008   -3.4168   -0.6478 N   0  0  0  0  0  0  0  0  0  0  0  0
    0.9635   -3.7869   -2.0584 C   0  0  0  0  0  0  0  0  0  0  0  0
    1.2279   -4.4642    0.2904 C   0  0  0  0  0  0  0  0  0  0  0  0
    4.3424    2.4433    2.6616 C   0  0  0  0  0  0  0  0  0  0  0  0
    5.6921    2.8007    2.7589 C   0  0  0  0  0  0  0  0  0  0  0  0
    7.9824    4.2061    3.6338 H   0  0  0  0  0  0  0  0  0  0  0  0
    8.4899    2.5514    3.1133 H   0  0  0  0  0  0  0  0  0  0  0  0
    9.4216    3.9749    2.6337 H   0  0  0  0  0  0  0  0  0  0  0  0
    6.1540    3.9889   -0.3852 H   0  0  0  0  0  0  0  0  0  0  0  0
    3.7771    3.3615   -0.5664 H   0  0  0  0  0  0  0  0  0  0  0  0
    1.6665    2.9132    0.6707 H   0  0  0  0  0  0  0  0  0  0  0  0
    1.6942    2.3741    2.3347 H   0  0  0  0  0  0  0  0  0  0  0  0
    2.5156    0.6591   -0.0855 H   0  0  0  0  0  0  0  0  0  0  0  0
    2.5492    0.1153    1.6025 H   0  0  0  0  0  0  0  0  0  0  0  0
    1.3083   -1.4663    0.1337 H   0  0  0  0  0  0  0  0  0  0  0  0
   -2.1164   -0.3021    1.0771 H   0  0  0  0  0  0  0  0  0  0  0  0
   -5.8450   -1.8820   -1.7844 H   0  0  0  0  0  0  0  0  0  0  0  0
   -4.3074   -1.1480   -2.2821 H   0  0  0  0  0  0  0  0  0  0  0  0
   -6.1670   -0.3438   -3.7043 H   0  0  0  0  0  0  0  0  0  0  0  0
   -7.0819    0.1567   -2.2812 H   0  0  0  0  0  0  0  0  0  0  0  0
   -6.0148    2.1253   -3.2703 H   0  0  0  0  0  0  0  0  0  0  0  0
   -4.4367    1.3374   -3.2559 H   0  0  0  0  0  0  0  0  0  0  0  0
   -4.5859    2.8722   -1.3459 H   0  0  0  0  0  0  0  0  0  0  0  0
   -6.1029    2.1392   -0.8212 H   0  0  0  0  0  0  0  0  0  0  0  0
   -4.2606    1.2988    0.5433 H   0  0  0  0  0  0  0  0  0  0  0  0
   -3.3641    0.7707   -0.8979 H   0  0  0  0  0  0  0  0  0  0  0  0
   -3.7952   -3.9596   -0.4529 H   0  0  0  0  0  0  0  0  0  0  0  0
   -1.5494   -4.7799   -1.0191 H   0  0  0  0  0  0  0  0  0  0  0  0
    0.4307   -4.7101   -2.3116 H   0  0  0  0  0  0  0  0  0  0  0  0
    0.6176   -2.9817   -2.7163 H   0  0  0  0  0  0  0  0  0  0  0  0
    2.0263   -3.9446   -2.2730 H   0  0  0  0  0  0  0  0  0  0  0  0
    0.6547   -5.3898    0.1634 H   0  0  0  0  0  0  0  0  0  0  0  0
    2.2855   -4.6965    0.1243 H   0  0  0  0  0  0  0  0  0  0  0  0
    1.1307   -4.1248    1.3281 H   0  0  0  0  0  0  0  0  0  0  0  0
    3.8460    2.0095    3.5272 H   0  0  0  0  0  0  0  0  0  0  0  0
    6.1968    2.6291    3.7037 H   0  0  0  0  0  0  0  0  0  0  0  0
  1  2  1  0
  2  3  1  0
  3  4  2  0
  4  5  1  0
  5  6  2  0
  6  7  1  0
  7  8  1  0
  8  9  1  0
  9 10  2  0
  9 11  1  0
 11 12  1  0
 12 13  2  0
 13 14  1  0
 14 15  1  0
 15 16  2  0
 15 17  2  0
 15 18  1  0
 18 19  1  0
 19 20  1  0
 20 21  1  0
 21 22  1  0
 22 23  1  0
 14 24  2  0
 24 25  1  0
 25 26  2  0
 26 27  1  0
 27 28  1  0
 27 29  1  0
  6 30  1  0
 30 31  2  0
 31  3  1  0
 26 12  1  0
 23 18  1  0
  1 32  1  0
  1 33  1  0
  1 34  1  0
  4 35  1  0
  5 36  1  0
  7 37  1  0
  7 38  1  0
  8 39  1  0
  8 40  1  0
 11 41  1  0
 13 42  1  0
 19 43  1  0
 19 44  1  0
 20 45  1  0
 20 46  1  0
 21 47  1  0
 21 48  1  0
 22 49  1  0
 22 50  1  0
 23 51  1  0
 23 52  1  0
 24 53  1  0
 25 54  1  0
 28 55  1  0
 28 56  1  0
 28 57  1  0
 29 58  1  0
 29 59  1  0
 29 60  1  0
 30 61  1  0
 31 62  1  0
M  END
$$$$
