
     RDKit          3D

 40 41  0  0  0  0  0  0  0  0999 V2000
   -0.5565    3.7329   -1.7282 C   0  0  0  0  0  0  0  0  0  0  0  0
   -0.1609    2.3195   -2.1364 C   0  0  0  0  0  0  0  0  0  0  0  0
   -0.5152    1.2989   -1.0740 C   0  0  0  0  0  0  0  0  0  0  0  0
   -1.7496    0.6485   -1.1078 C   0  0  0  0  0  0  0  0  0  0  0  0
   -2.7504    0.8595   -2.2087 C   0  0  0  0  0  0  0  0  0  0  0  0
   -2.1419   -0.2299   -0.1585 N   0  0  0  0  0  0  0  0  0  0  0  0
   -1.3625   -0.4967    0.9071 C   0  0  0  0  0  0  0  0  0  0  0  0
   -1.8164   -1.3946    1.8968 C   0  0  0  0  0  0  0  0  0  0  0  0
   -3.0589   -1.9512    1.6702 O   0  0  0  0  0  0  0  0  0  0  0  0
   -3.5988   -2.8084    2.6644 C   0  0  0  0  0  0  0  0  0  0  0  0
   -1.0387   -1.6881    3.0225 C   0  0  0  0  0  0  0  0  0  0  0  0
    0.1993   -1.0865    3.1824 C   0  0  0  0  0  0  0  0  0  0  0  0
    0.6607   -0.2006    2.2140 C   0  0  0  0  0  0  0  0  0  0  0  0
   -0.0986    0.1084    1.0536 C   0  0  0  0  0  0  0  0  0  0  0  0
    0.3299    0.9962    0.0178 C   0  0  0  0  0  0  0  0  0  0  0  0
    1.9770    1.7565    0.1199 S   0  0  0  0  0  0  0  0  0  0  0  0
    2.9038    0.6349   -0.9923 C   0  0  0  0  0  0  0  0  0  0  0  0
    3.2677   -0.6764   -0.3106 C   0  0  0  0  0  0  0  0  0  0  0  0
    4.1202   -1.5141   -1.2197 C   0  0  0  0  0  0  0  0  0  0  0  0
    4.4415   -1.2667   -2.3689 O   0  0  0  0  0  0  0  0  0  0  0  0
    4.5281   -2.6507   -0.6221 O   0  0  0  0  0  0  0  0  0  0  0  0
   -0.0418    4.0486   -0.8152 H   0  0  0  0  0  0  0  0  0  0  0  0
   -0.2973    4.4403   -2.5225 H   0  0  0  0  0  0  0  0  0  0  0  0
   -1.6333    3.8103   -1.5460 H   0  0  0  0  0  0  0  0  0  0  0  0
    0.9060    2.2904   -2.3769 H   0  0  0  0  0  0  0  0  0  0  0  0
   -0.6476    2.0703   -3.0859 H   0  0  0  0  0  0  0  0  0  0  0  0
   -3.6710    0.3001   -2.0090 H   0  0  0  0  0  0  0  0  0  0  0  0
   -3.0213    1.9159   -2.2920 H   0  0  0  0  0  0  0  0  0  0  0  0
   -2.3489    0.5041   -3.1625 H   0  0  0  0  0  0  0  0  0  0  0  0
   -4.5926   -3.1227    2.3312 H   0  0  0  0  0  0  0  0  0  0  0  0
   -2.9883   -3.7097    2.7814 H   0  0  0  0  0  0  0  0  0  0  0  0
   -3.7195   -2.2836    3.6177 H   0  0  0  0  0  0  0  0  0  0  0  0
   -1.3733   -2.3773    3.7897 H   0  0  0  0  0  0  0  0  0  0  0  0
    0.8059   -1.3025    4.0583 H   0  0  0  0  0  0  0  0  0  0  0  0
    1.6327    0.2578    2.3824 H   0  0  0  0  0  0  0  0  0  0  0  0
    3.8153    1.1658   -1.2895 H   0  0  0  0  0  0  0  0  0  0  0  0
    2.3319    0.4535   -1.9085 H   0  0  0  0  0  0  0  0  0  0  0  0
    2.3702   -1.2563   -0.0740 H   0  0  0  0  0  0  0  0  0  0  0  0
    3.8352   -0.4866    0.6074 H   0  0  0  0  0  0  0  0  0  0  0  0
    5.0579   -3.1099   -1.3075 H   0  0  0  0  0  0  0  0  0  0  0  0
  1  2  1  0
  2  3  1  0
  3  4  2  0
  4  5  1  0
  4  6  1  0
  6  7  2  0
  7  8  1  0
  8  9  1  0
  9 10  1  0
  8 11  2  0
 11 12  1  0
 12 13  2  0
 13 14  1  0
 14 15  2  0
 15 16  1  0
 16 17  1  0
 17 18  1  0
 18 19  1  0
 19 20  2  0
 19 21  1  0
 15  3  1  0
 14  7  1  0
  1 22  1  0
  1 23  1  0
  1 24  1  0
  2 25  1  0
  2 26  1  0
  5 27  1  0
  5 28  1  0
  5 29  1  0
 10 30  1  0
 10 31  1  0
 10 32  1  0
 11 33  1  0
 12 34  1  0
 13 35  1  0
 17 36  1  0
 17 37  1  0
 18 38  1  0
 18 39  1  0
 21 40  1  0
M  END
$$$$
