
     RDKit          3D

 90 95  0  0  0  0  0  0  0  0999 V2000
    0.7722    0.4537    1.3926 C   0  0  0  0  0  0  0  0  0  0  0  0
    1.2789    1.3292    0.2412 C   0  0  0  0  0  0  0  0  0  0  0  0
    0.8057    2.7919    0.3240 C   0  0  0  0  0  0  0  0  0  0  0  0
   -0.5290    3.0580    0.8917 N   0  0  0  0  0  0  0  0  0  0  0  0
   -0.6185    4.1909    1.8578 C   0  0  0  0  0  0  0  0  0  0  0  0
    0.1353    3.8732    3.1532 C   0  0  0  0  0  0  0  0  0  0  0  0
   -0.1666    5.5540    1.2769 C   0  0  0  0  0  0  0  0  0  0  0  0
   -1.0245    6.0486    0.2535 O   0  0  0  0  0  0  0  0  0  0  0  0
   -1.6649    2.8934    0.0753 C   0  0  0  0  0  0  0  0  0  0  0  0
   -2.4708    3.8023   -0.1272 O   0  0  0  0  0  0  0  0  0  0  0  0
   -2.0600    1.5303   -0.3450 C   0  0  0  0  0  0  0  0  0  0  0  0
   -3.3144    1.0787    0.1012 C   0  0  0  0  0  0  0  0  0  0  0  0
   -3.7929   -0.1870   -0.2601 C   0  0  0  0  0  0  0  0  0  0  0  0
   -5.0831   -0.5445    0.1815 N   0  0  0  0  0  0  0  0  0  0  0  0
   -5.6678   -1.7995    0.1244 C   0  0  0  0  0  0  0  0  0  0  0  0
   -5.0616   -2.8376   -0.1124 O   0  0  0  0  0  0  0  0  0  0  0  0
   -7.0322   -1.6884    0.3594 N   0  0  0  0  0  0  0  0  0  0  0  0
   -7.9872   -2.7390    0.4091 C   0  0  0  0  0  0  0  0  0  0  0  0
   -7.5818   -4.0713    0.5841 C   0  0  0  0  0  0  0  0  0  0  0  0
   -8.5147   -5.1061    0.5977 C   0  0  0  0  0  0  0  0  0  0  0  0
   -9.8700   -4.8249    0.4367 C   0  0  0  0  0  0  0  0  0  0  0  0
  -10.3168   -3.5063    0.2892 C   0  0  0  0  0  0  0  0  0  0  0  0
  -11.6938   -3.2597    0.1369 C   0  0  0  0  0  0  0  0  0  0  0  0
  -12.1859   -1.9648   -0.0029 C   0  0  0  0  0  0  0  0  0  0  0  0
  -11.3041   -0.8935    0.0096 C   0  0  0  0  0  0  0  0  0  0  0  0
   -9.9291   -1.1227    0.1530 C   0  0  0  0  0  0  0  0  0  0  0  0
   -9.3853   -2.4320    0.2880 C   0  0  0  0  0  0  0  0  0  0  0  0
   -3.0073   -0.9963   -1.0839 C   0  0  0  0  0  0  0  0  0  0  0  0
   -1.7703   -0.5417   -1.5509 C   0  0  0  0  0  0  0  0  0  0  0  0
   -1.3004    0.7186   -1.1782 C   0  0  0  0  0  0  0  0  0  0  0  0
   -0.1692    1.1985   -1.7590 O   0  0  0  0  0  0  0  0  0  0  0  0
    1.0411    0.7005   -1.1561 C   0  0  0  0  0  0  0  0  0  0  0  0
    2.1386    1.1083   -2.1851 C   0  0  0  0  0  0  0  0  0  0  0  0
    3.5541    0.9156   -1.8063 N   0  0  0  0  0  0  0  0  0  0  0  0
    4.4088    1.5396   -2.8318 C   0  0  0  0  0  0  0  0  0  0  0  0
    3.8838   -0.5145   -1.6472 C   0  0  0  0  0  0  0  0  0  0  0  0
    5.3159   -0.7635   -1.2165 C   0  0  0  0  0  0  0  0  0  0  0  0
    5.8220   -0.1910   -0.0435 C   0  0  0  0  0  0  0  0  0  0  0  0
    7.1579   -0.3874    0.3263 C   0  0  0  0  0  0  0  0  0  0  0  0
    8.0227   -1.1722   -0.4575 C   0  0  0  0  0  0  0  0  0  0  0  0
    9.4431   -1.3472   -0.0913 C   0  0  0  0  0  0  0  0  0  0  0  0
   10.4648   -1.1302   -1.0322 C   0  0  0  0  0  0  0  0  0  0  0  0
   11.8118   -1.2840   -0.6894 C   0  0  0  0  0  0  0  0  0  0  0  0
   12.1609   -1.6576    0.6070 C   0  0  0  0  0  0  0  0  0  0  0  0
   11.1674   -1.8737    1.5584 C   0  0  0  0  0  0  0  0  0  0  0  0
    9.8220   -1.7212    1.2103 C   0  0  0  0  0  0  0  0  0  0  0  0
    7.4946   -1.7645   -1.6170 C   0  0  0  0  0  0  0  0  0  0  0  0
    6.1607   -1.5651   -1.9939 C   0  0  0  0  0  0  0  0  0  0  0  0
    1.0643    0.8841    2.3571 H   0  0  0  0  0  0  0  0  0  0  0  0
    1.2178   -0.5450    1.3358 H   0  0  0  0  0  0  0  0  0  0  0  0
   -0.3092    0.3214    1.4031 H   0  0  0  0  0  0  0  0  0  0  0  0
    2.3654    1.3538    0.3936 H   0  0  0  0  0  0  0  0  0  0  0  0
    0.8592    3.2913   -0.6509 H   0  0  0  0  0  0  0  0  0  0  0  0
    1.5464    3.3039    0.9465 H   0  0  0  0  0  0  0  0  0  0  0  0
   -1.6781    4.2842    2.1344 H   0  0  0  0  0  0  0  0  0  0  0  0
   -0.0943    4.6183    3.9200 H   0  0  0  0  0  0  0  0  0  0  0  0
    1.2191    3.8752    3.0173 H   0  0  0  0  0  0  0  0  0  0  0  0
   -0.1544    2.8868    3.5341 H   0  0  0  0  0  0  0  0  0  0  0  0
    0.8446    5.5030    0.8612 H   0  0  0  0  0  0  0  0  0  0  0  0
   -0.1529    6.3086    2.0719 H   0  0  0  0  0  0  0  0  0  0  0  0
   -1.6487    5.3324    0.0019 H   0  0  0  0  0  0  0  0  0  0  0  0
   -3.9145    1.7360    0.7281 H   0  0  0  0  0  0  0  0  0  0  0  0
   -5.5666    0.1320    0.7558 H   0  0  0  0  0  0  0  0  0  0  0  0
   -7.4008   -0.7629    0.2085 H   0  0  0  0  0  0  0  0  0  0  0  0
   -6.5348   -4.3393    0.7259 H   0  0  0  0  0  0  0  0  0  0  0  0
   -8.1823   -6.1344    0.7193 H   0  0  0  0  0  0  0  0  0  0  0  0
  -10.5787   -5.6528    0.4363 H   0  0  0  0  0  0  0  0  0  0  0  0
  -12.4033   -4.0886    0.1312 H   0  0  0  0  0  0  0  0  0  0  0  0
  -13.2563   -1.7962   -0.1163 H   0  0  0  0  0  0  0  0  0  0  0  0
  -11.6817    0.1207   -0.0876 H   0  0  0  0  0  0  0  0  0  0  0  0
   -9.2879   -0.2475    0.1541 H   0  0  0  0  0  0  0  0  0  0  0  0
   -3.3511   -1.9727   -1.4131 H   0  0  0  0  0  0  0  0  0  0  0  0
   -1.1990   -1.1624   -2.2348 H   0  0  0  0  0  0  0  0  0  0  0  0
    1.0175   -0.3948   -1.1000 H   0  0  0  0  0  0  0  0  0  0  0  0
    1.9276    0.5935   -3.1339 H   0  0  0  0  0  0  0  0  0  0  0  0
    1.9849    2.1763   -2.4064 H   0  0  0  0  0  0  0  0  0  0  0  0
    4.1279    2.5878   -2.9899 H   0  0  0  0  0  0  0  0  0  0  0  0
    4.3349    1.0217   -3.7956 H   0  0  0  0  0  0  0  0  0  0  0  0
    5.4625    1.5585   -2.5250 H   0  0  0  0  0  0  0  0  0  0  0  0
    3.2498   -0.9628   -0.8722 H   0  0  0  0  0  0  0  0  0  0  0  0
    3.6752   -1.0586   -2.5780 H   0  0  0  0  0  0  0  0  0  0  0  0
    5.1815    0.4345    0.5746 H   0  0  0  0  0  0  0  0  0  0  0  0
    7.5270    0.1017    1.2249 H   0  0  0  0  0  0  0  0  0  0  0  0
   10.2163   -0.8247   -2.0473 H   0  0  0  0  0  0  0  0  0  0  0  0
   12.5884   -1.1137   -1.4341 H   0  0  0  0  0  0  0  0  0  0  0  0
   13.2047   -1.7750    0.8785 H   0  0  0  0  0  0  0  0  0  0  0  0
   11.4378   -2.1630    2.5722 H   0  0  0  0  0  0  0  0  0  0  0  0
    9.0608   -1.9085    1.9650 H   0  0  0  0  0  0  0  0  0  0  0  0
    8.1252   -2.3923   -2.2454 H   0  0  0  0  0  0  0  0  0  0  0  0
    5.7957   -2.0283   -2.9086 H   0  0  0  0  0  0  0  0  0  0  0  0
  1  2  1  0
  2  3  1  0
  3  4  1  0
  4  5  1  0
  5  6  1  0
  5  7  1  0
  7  8  1  0
  4  9  1  0
  9 10  2  0
  9 11  1  0
 11 12  2  0
 12 13  1  0
 13 14  1  0
 14 15  1  0
 15 16  2  0
 15 17  1  0
 17 18  1  0
 18 19  2  0
 19 20  1  0
 20 21  2  0
 21 22  1  0
 22 23  2  0
 23 24  1  0
 24 25  2  0
 25 26  1  0
 26 27  2  0
 13 28  2  0
 28 29  1  0
 29 30  2  0
 30 31  1  0
 31 32  1  0
 32 33  1  0
 33 34  1  0
 34 35  1  0
 34 36  1  0
 36 37  1  0
 37 38  2  0
 38 39  1  0
 39 40  2  0
 40 41  1  0
 41 42  2  0
 42 43  1  0
 43 44  2  0
 44 45  1  0
 45 46  2  0
 40 47  1  0
 47 48  2  0
 32  2  1  0
 48 37  1  0
 30 11  1  0
 46 41  1  0
 27 18  1  0
 27 22  1  0
  1 49  1  0
  1 50  1  0
  1 51  1  0
  2 52  1  0
  3 53  1  0
  3 54  1  0
  5 55  1  0
  6 56  1  0
  6 57  1  0
  6 58  1  0
  7 59  1  0
  7 60  1  0
  8 61  1  0
 12 62  1  0
 14 63  1  0
 17 64  1  0
 19 65  1  0
 20 66  1  0
 21 67  1  0
 23 68  1  0
 24 69  1  0
 25 70  1  0
 26 71  1  0
 28 72  1  0
 29 73  1  0
 32 74  1  0
 33 75  1  0
 33 76  1  0
 35 77  1  0
 35 78  1  0
 35 79  1  0
 36 80  1  0
 36 81  1  0
 38 82  1  0
 39 83  1  0
 42 84  1  0
 43 85  1  0
 44 86  1  0
 45 87  1  0
 46 88  1  0
 47 89  1  0
 48 90  1  0
M  END
$$$$
