
     RDKit          3D

 31 33  0  0  0  0  0  0  0  0999 V2000
    0.2592    1.0193    2.0319 O   0  0  0  0  0  0  0  0  0  0  0  0
   -0.8639    1.4656    1.8899 C   0  0  0  0  0  0  0  0  0  0  0  0
   -1.1378    2.7387    2.2395 O   0  0  0  0  0  0  0  0  0  0  0  0
   -2.0605    0.7608    1.3569 C   0  0  0  0  0  0  0  0  0  0  0  0
   -3.3429    1.2689    1.6311 C   0  0  0  0  0  0  0  0  0  0  0  0
   -4.4843    0.6176    1.1593 C   0  0  0  0  0  0  0  0  0  0  0  0
   -4.3589   -0.5451    0.4053 C   0  0  0  0  0  0  0  0  0  0  0  0
   -3.0932   -1.0612    0.1258 C   0  0  0  0  0  0  0  0  0  0  0  0
   -1.9403   -0.4259    0.6113 C   0  0  0  0  0  0  0  0  0  0  0  0
   -0.6646   -0.9745    0.2163 N   0  0  0  0  0  0  0  0  0  0  0  0
   -0.0597   -0.3181   -1.2486 S   0  0  0  0  0  6  0  0  0  0  0  0
   -0.4032    1.0849   -1.3164 O   0  0  0  0  0  0  0  0  0  0  0  0
   -0.4726   -1.2791   -2.2501 O   0  0  0  0  0  0  0  0  0  0  0  0
    1.6803   -0.4343   -1.0702 C   0  0  0  0  0  0  0  0  0  0  0  0
    2.3005   -0.7347    0.1619 C   0  0  0  0  0  0  0  0  0  0  0  0
    3.7038   -0.8345    0.3134 C   0  0  0  0  0  0  0  0  0  0  0  0
    4.6037   -0.6441   -0.7479 C   0  0  0  0  0  0  0  0  0  0  0  0
    4.0323   -0.3329   -2.0050 C   0  0  0  0  0  0  0  0  0  0  0  0
    4.7173   -0.1110   -3.1367 N   0  0  0  0  0  0  0  0  0  0  0  0
    3.5916    0.2165   -4.3110 S   0  0  0  0  0  0  0  0  0  0  0  0
    2.1890    0.0845   -3.4380 N   0  0  0  0  0  0  0  0  0  0  0  0
    2.5343   -0.2221   -2.1768 C   0  0  0  0  0  0  0  0  0  0  0  0
   -0.2687    3.0971    2.5155 H   0  0  0  0  0  0  0  0  0  0  0  0
   -3.4643    2.1799    2.2136 H   0  0  0  0  0  0  0  0  0  0  0  0
   -5.4696    1.0258    1.3728 H   0  0  0  0  0  0  0  0  0  0  0  0
   -5.2464   -1.0433    0.0218 H   0  0  0  0  0  0  0  0  0  0  0  0
   -3.0177   -1.9540   -0.4912 H   0  0  0  0  0  0  0  0  0  0  0  0
   -0.7351   -1.9826    0.0602 H   0  0  0  0  0  0  0  0  0  0  0  0
    1.6912   -0.8795    1.0549 H   0  0  0  0  0  0  0  0  0  0  0  0
    4.1041   -1.0616    1.3026 H   0  0  0  0  0  0  0  0  0  0  0  0
    5.6766   -0.7212   -0.6173 H   0  0  0  0  0  0  0  0  0  0  0  0
  1  2  2  0
  2  3  1  0
  2  4  1  0
  4  5  2  0
  5  6  1  0
  6  7  2  0
  7  8  1  0
  8  9  2  0
  9 10  1  0
 10 11  1  0
 11 12  2  0
 11 13  2  0
 11 14  1  0
 14 15  2  0
 15 16  1  0
 16 17  2  0
 17 18  1  0
 18 19  2  0
 19 20  1  0
 20 21  1  0
 21 22  2  0
  9  4  1  0
 22 14  1  0
 22 18  1  0
  3 23  1  0
  5 24  1  0
  6 25  1  0
  7 26  1  0
  8 27  1  0
 10 28  1  0
 15 29  1  0
 16 30  1  0
 17 31  1  0
M  END
$$$$
