
     RDKit          3D

 45 47  0  0  0  0  0  0  0  0999 V2000
    8.2950   -0.5397    1.4082 C   0  0  0  0  0  0  0  0  0  0  0  0
    7.0509   -0.3241    0.5652 C   0  0  0  0  0  0  0  0  0  0  0  0
    5.9270   -0.2840    1.4420 O   0  0  0  0  0  0  0  0  0  0  0  0
    4.6996   -0.0868    0.8742 C   0  0  0  0  0  0  0  0  0  0  0  0
    4.4366    0.0638   -0.4853 C   0  0  0  0  0  0  0  0  0  0  0  0
    3.1221    0.2598   -0.9296 C   0  0  0  0  0  0  0  0  0  0  0  0
    2.0556    0.3115   -0.0237 C   0  0  0  0  0  0  0  0  0  0  0  0
    0.7650    0.5020   -0.5548 N   0  0  0  0  0  0  0  0  0  0  0  0
   -0.4096    0.7046    0.1379 C   0  0  0  0  0  0  0  0  0  0  0  0
   -0.5315    0.8390    1.3472 O   0  0  0  0  0  0  0  0  0  0  0  0
   -1.4796    0.7568   -0.7306 N   0  0  0  0  0  0  0  0  0  0  0  0
   -2.8510    0.9052   -0.2521 C   0  0  0  0  0  0  0  0  0  0  0  0
   -3.4855    2.0885   -0.9990 C   0  0  0  0  0  0  0  0  0  0  0  0
   -4.9941    2.1157   -0.8081 C   0  0  0  0  0  0  0  0  0  0  0  0
   -5.6149    0.8626   -1.4161 C   0  0  0  0  0  0  0  0  0  0  0  0
   -4.9360   -0.4036   -0.9558 C   0  0  0  0  0  0  0  0  0  0  0  0
   -5.6196   -1.6223   -1.0968 C   0  0  0  0  0  0  0  0  0  0  0  0
   -5.0396   -2.8174   -0.6754 C   0  0  0  0  0  0  0  0  0  0  0  0
   -3.7715   -2.8083   -0.1056 C   0  0  0  0  0  0  0  0  0  0  0  0
   -3.0763   -1.6062    0.0263 C   0  0  0  0  0  0  0  0  0  0  0  0
   -3.6316   -0.3928   -0.4214 C   0  0  0  0  0  0  0  0  0  0  0  0
    2.3237    0.1548    1.3349 C   0  0  0  0  0  0  0  0  0  0  0  0
    3.6371   -0.0411    1.7775 C   0  0  0  0  0  0  0  0  0  0  0  0
    8.2188   -1.4725    1.9766 H   0  0  0  0  0  0  0  0  0  0  0  0
    9.1893   -0.5806    0.7802 H   0  0  0  0  0  0  0  0  0  0  0  0
    8.4115    0.2691    2.1373 H   0  0  0  0  0  0  0  0  0  0  0  0
    7.1457    0.6243    0.0239 H   0  0  0  0  0  0  0  0  0  0  0  0
    6.9510   -1.1542   -0.1436 H   0  0  0  0  0  0  0  0  0  0  0  0
    5.2268    0.0338   -1.2275 H   0  0  0  0  0  0  0  0  0  0  0  0
    2.9493    0.3732   -1.9966 H   0  0  0  0  0  0  0  0  0  0  0  0
    0.7029    0.6273   -1.5531 H   0  0  0  0  0  0  0  0  0  0  0  0
   -1.3800    0.2492   -1.5959 H   0  0  0  0  0  0  0  0  0  0  0  0
   -2.8510    1.1407    0.8197 H   0  0  0  0  0  0  0  0  0  0  0  0
   -3.0435    3.0271   -0.6426 H   0  0  0  0  0  0  0  0  0  0  0  0
   -3.2599    2.0310   -2.0730 H   0  0  0  0  0  0  0  0  0  0  0  0
   -5.2322    2.1773    0.2612 H   0  0  0  0  0  0  0  0  0  0  0  0
   -5.4191    3.0056   -1.2857 H   0  0  0  0  0  0  0  0  0  0  0  0
   -6.6783    0.8346   -1.1499 H   0  0  0  0  0  0  0  0  0  0  0  0
   -5.5474    0.9104   -2.5101 H   0  0  0  0  0  0  0  0  0  0  0  0
   -6.6184   -1.6429   -1.5280 H   0  0  0  0  0  0  0  0  0  0  0  0
   -5.5828   -3.7527   -0.7800 H   0  0  0  0  0  0  0  0  0  0  0  0
   -3.3236   -3.7348    0.2439 H   0  0  0  0  0  0  0  0  0  0  0  0
   -2.0942   -1.6201    0.4963 H   0  0  0  0  0  0  0  0  0  0  0  0
    1.5347    0.1757    2.0802 H   0  0  0  0  0  0  0  0  0  0  0  0
    3.8284   -0.1595    2.8416 H   0  0  0  0  0  0  0  0  0  0  0  0
  1  2  1  0
  2  3  1  0
  3  4  1  0
  4  5  2  0
  5  6  1  0
  6  7  2  0
  7  8  1  0
  8  9  1  0
  9 10  2  0
  9 11  1  0
 11 12  1  0
 12 13  1  0
 13 14  1  0
 14 15  1  0
 15 16  1  0
 16 17  2  0
 17 18  1  0
 18 19  2  0
 19 20  1  0
 20 21  2  0
  7 22  1  0
 22 23  2  0
 23  4  1  0
 21 12  1  0
 21 16  1  0
  1 24  1  0
  1 25  1  0
  1 26  1  0
  2 27  1  0
  2 28  1  0
  5 29  1  0
  6 30  1  0
  8 31  1  0
 11 32  1  0
 12 33  1  0
 13 34  1  0
 13 35  1  0
 14 36  1  0
 14 37  1  0
 15 38  1  0
 15 39  1  0
 17 40  1  0
 18 41  1  0
 19 42  1  0
 20 43  1  0
 22 44  1  0
 23 45  1  0
M  END
$$$$
