
     RDKit          3D

 62 66  0  0  0  0  0  0  0  0999 V2000
   -4.1638   -4.3149   -2.0762 C   0  0  0  0  0  0  0  0  0  0  0  0
   -2.8715   -4.7239   -1.6460 O   0  0  0  0  0  0  0  0  0  0  0  0
   -2.2572   -3.9443   -0.7041 C   0  0  0  0  0  0  0  0  0  0  0  0
   -1.0011   -4.4019   -0.2990 C   0  0  0  0  0  0  0  0  0  0  0  0
   -0.2617   -3.7009    0.6528 C   0  0  0  0  0  0  0  0  0  0  0  0
   -0.7778   -2.5311    1.2078 C   0  0  0  0  0  0  0  0  0  0  0  0
   -2.0353   -2.0556    0.8137 C   0  0  0  0  0  0  0  0  0  0  0  0
   -2.5628   -0.8065    1.3802 C   0  0  0  0  0  0  0  0  0  0  0  0
   -3.9797   -0.8811    2.3364 S   0  0  0  0  0  0  0  0  0  0  0  0
   -3.9694    0.8069    2.6471 C   0  0  0  0  0  0  0  0  0  0  0  0
   -4.8984    1.5286    3.4213 C   0  0  0  0  0  0  0  0  0  0  0  0
   -4.7407    2.9115    3.5682 C   0  0  0  0  0  0  0  0  0  0  0  0
   -3.6837    3.5712    2.9568 C   0  0  0  0  0  0  0  0  0  0  0  0
   -3.4255    4.9131    3.0240 O   0  0  0  0  0  0  0  0  0  0  0  0
   -4.3262    5.7064    3.7863 C   0  0  0  0  0  0  0  0  0  0  0  0
   -2.7678    2.8416    2.1890 C   0  0  0  0  0  0  0  0  0  0  0  0
   -2.8916    1.4365    2.0243 C   0  0  0  0  0  0  0  0  0  0  0  0
   -2.0762    0.4900    1.2934 C   0  0  0  0  0  0  0  0  0  0  0  0
   -0.8653    0.8065    0.5413 C   0  0  0  0  0  0  0  0  0  0  0  0
   -0.8294    0.6584   -0.8470 C   0  0  0  0  0  0  0  0  0  0  0  0
    0.3463    0.9360   -1.5477 C   0  0  0  0  0  0  0  0  0  0  0  0
    1.4953    1.3636   -0.8775 C   0  0  0  0  0  0  0  0  0  0  0  0
    2.5739    1.5733   -1.6887 O   0  0  0  0  0  0  0  0  0  0  0  0
    3.8498    1.8261   -1.0998 C   0  0  0  0  0  0  0  0  0  0  0  0
    4.5379    0.5623   -0.5388 C   0  0  0  0  0  0  0  0  0  0  0  0
    5.0202   -0.4703   -1.4596 N   0  0  0  0  0  0  0  0  0  0  0  0
    3.9880   -1.1390   -2.2447 C   0  0  0  0  0  0  0  0  0  0  0  0
    4.8184   -2.0002   -3.1855 C   0  0  0  0  0  0  0  0  0  0  0  0
    6.1328   -1.2417   -3.3558 C   0  0  0  0  0  0  0  0  0  0  0  0
    6.0293   -0.0429   -2.4201 C   0  0  0  0  0  0  0  0  0  0  0  0
    1.4517    1.5357    0.5050 C   0  0  0  0  0  0  0  0  0  0  0  0
    0.2764    1.2564    1.2122 C   0  0  0  0  0  0  0  0  0  0  0  0
   -2.7708   -2.7713   -0.1467 C   0  0  0  0  0  0  0  0  0  0  0  0
   -4.8750   -4.3128   -1.2436 H   0  0  0  0  0  0  0  0  0  0  0  0
   -4.5167   -5.0426   -2.8133 H   0  0  0  0  0  0  0  0  0  0  0  0
   -4.1247   -3.3369   -2.5667 H   0  0  0  0  0  0  0  0  0  0  0  0
   -0.5952   -5.3133   -0.7316 H   0  0  0  0  0  0  0  0  0  0  0  0
    0.7157   -4.0647    0.9582 H   0  0  0  0  0  0  0  0  0  0  0  0
   -0.1917   -1.9905    1.9475 H   0  0  0  0  0  0  0  0  0  0  0  0
   -5.7302    1.0193    3.9005 H   0  0  0  0  0  0  0  0  0  0  0  0
   -5.4720    3.4397    4.1715 H   0  0  0  0  0  0  0  0  0  0  0  0
   -5.3369    5.6698    3.3670 H   0  0  0  0  0  0  0  0  0  0  0  0
   -4.3232    5.4052    4.8389 H   0  0  0  0  0  0  0  0  0  0  0  0
   -3.9823    6.7441    3.7363 H   0  0  0  0  0  0  0  0  0  0  0  0
   -1.9464    3.3678    1.7076 H   0  0  0  0  0  0  0  0  0  0  0  0
   -1.7063    0.3188   -1.3917 H   0  0  0  0  0  0  0  0  0  0  0  0
    0.3698    0.8068   -2.6269 H   0  0  0  0  0  0  0  0  0  0  0  0
    4.4735    2.2726   -1.8810 H   0  0  0  0  0  0  0  0  0  0  0  0
    3.7748    2.6024   -0.3295 H   0  0  0  0  0  0  0  0  0  0  0  0
    3.8697    0.0708    0.1773 H   0  0  0  0  0  0  0  0  0  0  0  0
    5.4008    0.8964    0.0509 H   0  0  0  0  0  0  0  0  0  0  0  0
    3.3199   -1.7479   -1.6278 H   0  0  0  0  0  0  0  0  0  0  0  0
    3.3910   -0.4401   -2.8389 H   0  0  0  0  0  0  0  0  0  0  0  0
    4.3108   -2.1584   -4.1431 H   0  0  0  0  0  0  0  0  0  0  0  0
    5.0141   -2.9822   -2.7388 H   0  0  0  0  0  0  0  0  0  0  0  0
    6.9741   -1.8875   -3.0775 H   0  0  0  0  0  0  0  0  0  0  0  0
    6.2819   -0.9240   -4.3932 H   0  0  0  0  0  0  0  0  0  0  0  0
    6.9895    0.1762   -1.9428 H   0  0  0  0  0  0  0  0  0  0  0  0
    5.7158    0.8359   -2.9945 H   0  0  0  0  0  0  0  0  0  0  0  0
    2.3102    1.8782    1.0703 H   0  0  0  0  0  0  0  0  0  0  0  0
    0.2635    1.3829    2.2924 H   0  0  0  0  0  0  0  0  0  0  0  0
   -3.7384   -2.3846   -0.4494 H   0  0  0  0  0  0  0  0  0  0  0  0
  1  2  1  0
  2  3  1  0
  3  4  2  0
  4  5  1  0
  5  6  2  0
  6  7  1  0
  7  8  1  0
  8  9  1  0
  9 10  1  0
 10 11  2  0
 11 12  1  0
 12 13  2  0
 13 14  1  0
 14 15  1  0
 13 16  1  0
 16 17  2  0
 17 18  1  0
 18 19  1  0
 19 20  2  0
 20 21  1  0
 21 22  2  0
 22 23  1  0
 23 24  1  0
 24 25  1  0
 25 26  1  0
 26 27  1  0
 27 28  1  0
 28 29  1  0
 29 30  1  0
 22 31  1  0
 31 32  2  0
  7 33  2  0
 33  3  1  0
 18  8  2  0
 32 19  1  0
 17 10  1  0
 30 26  1  0
  1 34  1  0
  1 35  1  0
  1 36  1  0
  4 37  1  0
  5 38  1  0
  6 39  1  0
 11 40  1  0
 12 41  1  0
 15 42  1  0
 15 43  1  0
 15 44  1  0
 16 45  1  0
 20 46  1  0
 21 47  1  0
 24 48  1  0
 24 49  1  0
 25 50  1  0
 25 51  1  0
 27 52  1  0
 27 53  1  0
 28 54  1  0
 28 55  1  0
 29 56  1  0
 29 57  1  0
 30 58  1  0
 30 59  1  0
 31 60  1  0
 32 61  1  0
 33 62  1  0
M  END
$$$$
