
     RDKit          3D

 67 70  0  0  0  0  0  0  0  0999 V2000
   -0.0383    2.7160   -4.3016 C   0  0  0  0  0  0  0  0  0  0  0  0
   -0.0098    1.7538   -3.2559 O   0  0  0  0  0  0  0  0  0  0  0  0
   -0.7206    2.0114   -2.1109 C   0  0  0  0  0  0  0  0  0  0  0  0
   -1.4635    3.1844   -1.9015 C   0  0  0  0  0  0  0  0  0  0  0  0
   -2.1557    3.4001   -0.7032 C   0  0  0  0  0  0  0  0  0  0  0  0
   -2.9029    4.5193   -0.4304 O   0  0  0  0  0  0  0  0  0  0  0  0
   -3.0272    5.5030   -1.4494 C   0  0  0  0  0  0  0  0  0  0  0  0
   -2.0920    2.4329    0.3111 C   0  0  0  0  0  0  0  0  0  0  0  0
   -2.7779    2.5937    1.5923 C   0  0  0  0  0  0  0  0  0  0  0  0
   -2.6683    1.6651    2.5456 C   0  0  0  0  0  0  0  0  0  0  0  0
   -1.8590    0.4533    2.3650 C   0  0  0  0  0  0  0  0  0  0  0  0
   -1.7338   -0.3603    3.2722 O   0  0  0  0  0  0  0  0  0  0  0  0
   -1.2471    0.3059    1.1310 O   0  0  0  0  0  0  0  0  0  0  0  0
   -1.3470    1.2679    0.0941 C   0  0  0  0  0  0  0  0  0  0  0  0
   -0.6651    1.0152   -1.1129 C   0  0  0  0  0  0  0  0  0  0  0  0
    0.1335   -0.2777   -1.3538 C   0  0  0  0  0  0  0  0  0  0  0  0
    1.6115   -0.1241   -0.9009 C   0  0  0  0  0  0  0  0  0  0  0  0
    1.8300    0.2044    0.5851 C   0  0  0  0  0  0  0  0  0  0  0  0
    3.2487    0.0954    0.9884 N   0  0  0  0  0  0  0  0  0  0  0  0
    3.3448    0.1120    2.4595 C   0  0  0  0  0  0  0  0  0  0  0  0
    4.7891   -0.0598    2.9307 C   0  0  0  0  0  0  0  0  0  0  0  0
    5.6965    1.0038    2.3273 C   0  0  0  0  0  0  0  0  0  0  0  0
    5.5403    1.0321    0.8127 C   0  0  0  0  0  0  0  0  0  0  0  0
    4.0718    1.1658    0.4027 C   0  0  0  0  0  0  0  0  0  0  0  0
   -0.6021   -1.5689   -0.9812 C   0  0  0  0  0  0  0  0  0  0  0  0
   -0.0380   -2.5901   -0.2162 C   0  0  0  0  0  0  0  0  0  0  0  0
   -0.7602   -3.7592    0.0810 C   0  0  0  0  0  0  0  0  0  0  0  0
   -2.0731   -3.9755   -0.3682 C   0  0  0  0  0  0  0  0  0  0  0  0
   -2.7812   -5.1497   -0.0717 N   0  0  0  0  0  0  0  0  0  0  0  0
   -2.3227   -5.9672    1.0514 C   0  0  0  0  0  0  0  0  0  0  0  0
   -4.2222   -5.1768   -0.3150 C   0  0  0  0  0  0  0  0  0  0  0  0
   -2.6066   -2.9609   -1.1770 C   0  0  0  0  0  0  0  0  0  0  0  0
   -1.8947   -1.7889   -1.4779 C   0  0  0  0  0  0  0  0  0  0  0  0
    0.3992    3.6652   -3.9757 H   0  0  0  0  0  0  0  0  0  0  0  0
    0.5737    2.3334   -5.1241 H   0  0  0  0  0  0  0  0  0  0  0  0
   -1.0556    2.8558   -4.6816 H   0  0  0  0  0  0  0  0  0  0  0  0
   -1.4995    3.9366   -2.6785 H   0  0  0  0  0  0  0  0  0  0  0  0
   -2.0556    5.9481   -1.6874 H   0  0  0  0  0  0  0  0  0  0  0  0
   -3.5049    5.0885   -2.3432 H   0  0  0  0  0  0  0  0  0  0  0  0
   -3.6725    6.2997   -1.0671 H   0  0  0  0  0  0  0  0  0  0  0  0
   -3.3792    3.4820    1.7555 H   0  0  0  0  0  0  0  0  0  0  0  0
   -3.1654    1.7652    3.5023 H   0  0  0  0  0  0  0  0  0  0  0  0
    0.2158   -0.4037   -2.4445 H   0  0  0  0  0  0  0  0  0  0  0  0
    2.1644   -1.0362   -1.1615 H   0  0  0  0  0  0  0  0  0  0  0  0
    2.0582    0.6783   -1.5023 H   0  0  0  0  0  0  0  0  0  0  0  0
    1.2477   -0.5000    1.1869 H   0  0  0  0  0  0  0  0  0  0  0  0
    1.4548    1.2088    0.8151 H   0  0  0  0  0  0  0  0  0  0  0  0
    2.9332    1.0461    2.8646 H   0  0  0  0  0  0  0  0  0  0  0  0
    2.7558   -0.7126    2.8796 H   0  0  0  0  0  0  0  0  0  0  0  0
    4.8308   -0.0044    4.0243 H   0  0  0  0  0  0  0  0  0  0  0  0
    5.1524   -1.0557    2.6469 H   0  0  0  0  0  0  0  0  0  0  0  0
    6.7400    0.8055    2.5951 H   0  0  0  0  0  0  0  0  0  0  0  0
    5.4374    1.9858    2.7416 H   0  0  0  0  0  0  0  0  0  0  0  0
    6.1169    1.8669    0.3981 H   0  0  0  0  0  0  0  0  0  0  0  0
    5.9580    0.1119    0.3847 H   0  0  0  0  0  0  0  0  0  0  0  0
    4.0376    1.1216   -0.6909 H   0  0  0  0  0  0  0  0  0  0  0  0
    3.6958    2.1531    0.7016 H   0  0  0  0  0  0  0  0  0  0  0  0
    0.9746   -2.5177    0.1707 H   0  0  0  0  0  0  0  0  0  0  0  0
   -0.2460   -4.5036    0.6811 H   0  0  0  0  0  0  0  0  0  0  0  0
   -2.3151   -5.3911    1.9835 H   0  0  0  0  0  0  0  0  0  0  0  0
   -2.9775   -6.8328    1.2039 H   0  0  0  0  0  0  0  0  0  0  0  0
   -1.3255   -6.3786    0.8624 H   0  0  0  0  0  0  0  0  0  0  0  0
   -4.7366   -4.4061    0.2697 H   0  0  0  0  0  0  0  0  0  0  0  0
   -4.4487   -5.0464   -1.3786 H   0  0  0  0  0  0  0  0  0  0  0  0
   -4.6515   -6.1458   -0.0361 H   0  0  0  0  0  0  0  0  0  0  0  0
   -3.5998   -3.0495   -1.6046 H   0  0  0  0  0  0  0  0  0  0  0  0
   -2.3702   -1.0452   -2.1144 H   0  0  0  0  0  0  0  0  0  0  0  0
  1  2  1  0
  2  3  1  0
  3  4  2  0
  4  5  1  0
  5  6  1  0
  6  7  1  0
  5  8  2  0
  8  9  1  0
  9 10  2  0
 10 11  1  0
 11 12  2  0
 11 13  1  0
 13 14  1  0
 14 15  2  0
 15 16  1  0
 16 17  1  0
 17 18  1  0
 18 19  1  0
 19 20  1  0
 20 21  1  0
 21 22  1  0
 22 23  1  0
 23 24  1  0
 16 25  1  0
 25 26  2  0
 26 27  1  0
 27 28  2  0
 28 29  1  0
 29 30  1  0
 29 31  1  0
 28 32  1  0
 32 33  2  0
 15  3  1  0
 24 19  1  0
 33 25  1  0
 14  8  1  0
  1 34  1  0
  1 35  1  0
  1 36  1  0
  4 37  1  0
  7 38  1  0
  7 39  1  0
  7 40  1  0
  9 41  1  0
 10 42  1  0
 16 43  1  0
 17 44  1  0
 17 45  1  0
 18 46  1  0
 18 47  1  0
 20 48  1  0
 20 49  1  0
 21 50  1  0
 21 51  1  0
 22 52  1  0
 22 53  1  0
 23 54  1  0
 23 55  1  0
 24 56  1  0
 24 57  1  0
 26 58  1  0
 27 59  1  0
 30 60  1  0
 30 61  1  0
 30 62  1  0
 31 63  1  0
 31 64  1  0
 31 65  1  0
 32 66  1  0
 33 67  1  0
M  END
$$$$
