
     RDKit          3D

 43 46  0  0  0  0  0  0  0  0999 V2000
   -4.5834   -2.7548    0.0433 C   0  0  0  0  0  0  0  0  0  0  0  0
   -4.0767   -1.6303   -0.7293 N   0  0  0  0  0  0  0  0  0  0  0  0
   -4.9979   -0.8712   -1.4484 C   0  0  0  0  0  0  0  0  0  0  0  0
   -6.2057   -1.0963   -1.4545 O   0  0  0  0  0  0  0  0  0  0  0  0
   -4.4696    0.3087   -2.2723 C   0  0  0  0  0  0  0  0  0  0  0  0
   -5.2733    0.9849   -2.9097 O   0  0  0  0  0  0  0  0  0  0  0  0
   -3.0983    0.5572   -2.2530 N   0  0  0  0  0  0  0  0  0  0  0  0
   -2.6015    1.6710   -3.0485 C   0  0  0  0  0  0  0  0  0  0  0  0
   -2.2013   -0.2445   -1.4949 C   0  0  0  0  0  0  0  0  0  0  0  0
   -0.8227    0.0349   -1.4864 C   0  0  0  0  0  0  0  0  0  0  0  0
    0.0555   -0.7497   -0.7351 C   0  0  0  0  0  0  0  0  0  0  0  0
    1.8010   -0.3929   -0.7308 S   0  0  0  0  0  6  0  0  0  0  0  0
    2.0187    0.7294   -1.6210 O   0  0  0  0  0  0  0  0  0  0  0  0
    2.4684   -1.6598   -0.9439 O   0  0  0  0  0  0  0  0  0  0  0  0
    2.0388    0.1338    0.8706 N   0  0  0  0  0  0  0  0  0  0  0  0
    1.2607    1.3500    1.2897 C   0  0  0  0  0  0  0  0  0  0  0  0
    2.0887    2.0337    2.3887 C   0  0  0  0  0  0  0  0  0  0  0  0
    3.4470    1.4593    2.1596 C   0  0  0  0  0  0  0  0  0  0  0  0
    4.6391    1.8521    2.7492 C   0  0  0  0  0  0  0  0  0  0  0  0
    5.7926    1.1235    2.4573 C   0  0  0  0  0  0  0  0  0  0  0  0
    5.7337    0.0091    1.6079 C   0  0  0  0  0  0  0  0  0  0  0  0
    4.5227   -0.3832    1.0288 C   0  0  0  0  0  0  0  0  0  0  0  0
    3.3926    0.3735    1.2858 C   0  0  0  0  0  0  0  0  0  0  0  0
   -0.4127   -1.8305    0.0025 C   0  0  0  0  0  0  0  0  0  0  0  0
   -1.7779   -2.1146   -0.0007 C   0  0  0  0  0  0  0  0  0  0  0  0
   -2.6868   -1.3315   -0.7401 C   0  0  0  0  0  0  0  0  0  0  0  0
   -5.6681   -2.8625   -0.0459 H   0  0  0  0  0  0  0  0  0  0  0  0
   -4.3512   -2.6032    1.1022 H   0  0  0  0  0  0  0  0  0  0  0  0
   -4.1277   -3.6814   -0.3204 H   0  0  0  0  0  0  0  0  0  0  0  0
   -2.1161    2.3996   -2.3913 H   0  0  0  0  0  0  0  0  0  0  0  0
   -3.4041    2.1886   -3.5815 H   0  0  0  0  0  0  0  0  0  0  0  0
   -1.8943    1.2978   -3.7961 H   0  0  0  0  0  0  0  0  0  0  0  0
   -0.4103    0.8588   -2.0621 H   0  0  0  0  0  0  0  0  0  0  0  0
    0.2710    1.0686    1.6620 H   0  0  0  0  0  0  0  0  0  0  0  0
    1.1358    2.0416    0.4482 H   0  0  0  0  0  0  0  0  0  0  0  0
    2.0681    3.1224    2.2857 H   0  0  0  0  0  0  0  0  0  0  0  0
    1.7256    1.7499    3.3822 H   0  0  0  0  0  0  0  0  0  0  0  0
    4.6785    2.6962    3.4306 H   0  0  0  0  0  0  0  0  0  0  0  0
    6.7422    1.4094    2.9042 H   0  0  0  0  0  0  0  0  0  0  0  0
    6.6364   -0.5630    1.4054 H   0  0  0  0  0  0  0  0  0  0  0  0
    4.4937   -1.2656    0.3992 H   0  0  0  0  0  0  0  0  0  0  0  0
    0.2742   -2.4518    0.5747 H   0  0  0  0  0  0  0  0  0  0  0  0
   -2.1054   -2.9672    0.5882 H   0  0  0  0  0  0  0  0  0  0  0  0
  1  2  1  0
  2  3  1  0
  3  4  2  0
  3  5  1  0
  5  6  2  0
  5  7  1  0
  7  8  1  0
  7  9  1  0
  9 10  2  0
 10 11  1  0
 11 12  1  0
 12 13  2  0
 12 14  2  0
 12 15  1  0
 15 16  1  0
 16 17  1  0
 17 18  1  0
 18 19  2  0
 19 20  1  0
 20 21  2  0
 21 22  1  0
 22 23  2  0
 11 24  2  0
 24 25  1  0
 25 26  2  0
 26  2  1  0
 26  9  1  0
 23 15  1  0
 23 18  1  0
  1 27  1  0
  1 28  1  0
  1 29  1  0
  8 30  1  0
  8 31  1  0
  8 32  1  0
 10 33  1  0
 16 34  1  0
 16 35  1  0
 17 36  1  0
 17 37  1  0
 19 38  1  0
 20 39  1  0
 21 40  1  0
 22 41  1  0
 24 42  1  0
 25 43  1  0
M  END
$$$$
