
     RDKit          3D

 56 59  0  0  0  0  0  0  0  0999 V2000
   -5.4335    1.9369   -0.4060 C   0  0  0  0  0  0  0  0  0  0  0  0
   -4.0125    1.9377   -0.5331 O   0  0  0  0  0  0  0  0  0  0  0  0
   -3.4691    0.9969   -1.3716 C   0  0  0  0  0  0  0  0  0  0  0  0
   -4.1787    0.3518   -2.3881 C   0  0  0  0  0  0  0  0  0  0  0  0
   -3.5424   -0.5798   -3.2152 C   0  0  0  0  0  0  0  0  0  0  0  0
   -2.1879   -0.8802   -3.0398 C   0  0  0  0  0  0  0  0  0  0  0  0
   -1.5567   -1.8750   -3.9597 C   0  0  0  0  0  0  0  0  0  0  0  0
   -0.0929   -2.1979   -3.7981 C   0  0  0  0  0  0  0  0  0  0  0  0
   -2.2324   -2.4106   -4.8377 O   0  0  0  0  0  0  0  0  0  0  0  0
   -1.4732   -0.2341   -2.0248 C   0  0  0  0  0  0  0  0  0  0  0  0
   -2.1006    0.7150   -1.1906 C   0  0  0  0  0  0  0  0  0  0  0  0
   -1.2957    1.3953   -0.1058 C   0  0  0  0  0  0  0  0  0  0  0  0
   -1.4827    0.5898    1.5125 S   0  0  0  0  0  0  0  0  0  0  0  0
    0.0540   -0.2422    1.5808 C   0  0  0  0  0  0  0  0  0  0  0  0
    0.1693   -1.2898    0.8310 N   0  0  0  0  0  0  0  0  0  0  0  0
    1.3574   -2.0198    0.8760 C   0  0  0  0  0  0  0  0  0  0  0  0
    1.4735   -3.1664    0.0859 C   0  0  0  0  0  0  0  0  0  0  0  0
    2.6509   -3.9269    0.0995 C   0  0  0  0  0  0  0  0  0  0  0  0
    2.7167   -5.1260   -0.7713 C   0  0  0  0  0  0  0  0  0  0  0  0
    1.8511   -5.4899   -1.5494 O   0  0  0  0  0  0  0  0  0  0  0  0
    3.8647   -5.8103   -0.6255 O   0  0  0  0  0  0  0  0  0  0  0  0
    3.7196   -3.5386    0.9184 C   0  0  0  0  0  0  0  0  0  0  0  0
    3.6066   -2.3963    1.7147 C   0  0  0  0  0  0  0  0  0  0  0  0
    2.4241   -1.6463    1.6865 C   0  0  0  0  0  0  0  0  0  0  0  0
    2.2650   -0.4368    2.5121 C   0  0  0  0  0  0  0  0  0  0  0  0
    3.2066   -0.0808    3.2166 O   0  0  0  0  0  0  0  0  0  0  0  0
    1.0456    0.2317    2.4252 N   0  0  0  0  0  0  0  0  0  0  0  0
    0.9042    1.4387    3.2497 C   0  0  0  0  0  0  0  0  0  0  0  0
    1.1258    2.7183    2.4665 C   0  0  0  0  0  0  0  0  0  0  0  0
    0.1211    3.6965    2.4057 C   0  0  0  0  0  0  0  0  0  0  0  0
    0.3156    4.8723    1.6789 C   0  0  0  0  0  0  0  0  0  0  0  0
    1.5207    5.0913    1.0152 C   0  0  0  0  0  0  0  0  0  0  0  0
    2.5351    4.1391    1.0840 C   0  0  0  0  0  0  0  0  0  0  0  0
    2.3414    2.9619    1.8091 C   0  0  0  0  0  0  0  0  0  0  0  0
   -5.6948    2.5972    0.4281 H   0  0  0  0  0  0  0  0  0  0  0  0
   -5.9048    2.3413   -1.3074 H   0  0  0  0  0  0  0  0  0  0  0  0
   -5.8157    0.9337   -0.1724 H   0  0  0  0  0  0  0  0  0  0  0  0
   -5.2275    0.5628   -2.5745 H   0  0  0  0  0  0  0  0  0  0  0  0
   -4.1142   -1.0676   -4.0035 H   0  0  0  0  0  0  0  0  0  0  0  0
    0.5126   -1.2944   -3.9187 H   0  0  0  0  0  0  0  0  0  0  0  0
    0.2048   -2.9100   -4.5747 H   0  0  0  0  0  0  0  0  0  0  0  0
    0.0859   -2.6627   -2.8263 H   0  0  0  0  0  0  0  0  0  0  0  0
   -0.4230   -0.4553   -1.8598 H   0  0  0  0  0  0  0  0  0  0  0  0
   -0.2371    1.4438   -0.3925 H   0  0  0  0  0  0  0  0  0  0  0  0
   -1.6134    2.4406   -0.0087 H   0  0  0  0  0  0  0  0  0  0  0  0
    0.6336   -3.4695   -0.5371 H   0  0  0  0  0  0  0  0  0  0  0  0
    3.7673   -6.5672   -1.2441 H   0  0  0  0  0  0  0  0  0  0  0  0
    4.6404   -4.1179    0.9444 H   0  0  0  0  0  0  0  0  0  0  0  0
    4.4353   -2.0957    2.3538 H   0  0  0  0  0  0  0  0  0  0  0  0
    1.6175    1.4243    4.0831 H   0  0  0  0  0  0  0  0  0  0  0  0
   -0.0873    1.4378    3.7174 H   0  0  0  0  0  0  0  0  0  0  0  0
   -0.8276    3.5485    2.9190 H   0  0  0  0  0  0  0  0  0  0  0  0
   -0.4731    5.6195    1.6339 H   0  0  0  0  0  0  0  0  0  0  0  0
    1.6733    6.0090    0.4528 H   0  0  0  0  0  0  0  0  0  0  0  0
    3.4821    4.3155    0.5793 H   0  0  0  0  0  0  0  0  0  0  0  0
    3.1549    2.2411    1.8643 H   0  0  0  0  0  0  0  0  0  0  0  0
  1  2  1  0
  2  3  1  0
  3  4  2  0
  4  5  1  0
  5  6  2  0
  6  7  1  0
  7  8  1  0
  7  9  2  0
  6 10  1  0
 10 11  2  0
 11 12  1  0
 12 13  1  0
 13 14  1  0
 14 15  2  0
 15 16  1  0
 16 17  2  0
 17 18  1  0
 18 19  1  0
 19 20  2  0
 19 21  1  0
 18 22  2  0
 22 23  1  0
 23 24  2  0
 24 25  1  0
 25 26  2  0
 25 27  1  0
 27 28  1  0
 28 29  1  0
 29 30  2  0
 30 31  1  0
 31 32  2  0
 32 33  1  0
 33 34  2  0
 11  3  1  0
 27 14  1  0
 34 29  1  0
 24 16  1  0
  1 35  1  0
  1 36  1  0
  1 37  1  0
  4 38  1  0
  5 39  1  0
  8 40  1  0
  8 41  1  0
  8 42  1  0
 10 43  1  0
 12 44  1  0
 12 45  1  0
 17 46  1  0
 21 47  1  0
 22 48  1  0
 23 49  1  0
 28 50  1  0
 28 51  1  0
 30 52  1  0
 31 53  1  0
 32 54  1  0
 33 55  1  0
 34 56  1  0
M  END
$$$$
