
     RDKit          3D

 50 53  0  0  0  0  0  0  0  0999 V2000
   -1.7158   -4.7237    1.4409 C   0  0  0  0  0  0  0  0  0  0  0  0
   -0.9780   -3.8019    0.6375 O   0  0  0  0  0  0  0  0  0  0  0  0
   -1.3620   -2.5088    0.7972 C   0  0  0  0  0  0  0  0  0  0  0  0
   -2.2582   -2.1160    1.5261 O   0  0  0  0  0  0  0  0  0  0  0  0
   -0.5242   -1.6450   -0.0716 C   0  0  0  0  0  0  0  0  0  0  0  0
   -1.0144   -0.5707   -0.7404 C   0  0  0  0  0  0  0  0  0  0  0  0
   -2.4233   -0.1593   -0.7228 C   0  0  0  0  0  0  0  0  0  0  0  0
   -3.3312   -0.7206   -1.6283 C   0  0  0  0  0  0  0  0  0  0  0  0
   -4.6720   -0.3337   -1.6104 C   0  0  0  0  0  0  0  0  0  0  0  0
   -5.1122    0.6138   -0.6852 C   0  0  0  0  0  0  0  0  0  0  0  0
   -4.2116    1.1756    0.2266 C   0  0  0  0  0  0  0  0  0  0  0  0
   -4.6646    2.1482    1.1770 C   0  0  0  0  0  0  0  0  0  0  0  0
   -5.0335    2.9490    1.9320 N   0  0  0  0  0  0  0  0  0  0  0  0
   -2.8672    0.7898    0.2054 C   0  0  0  0  0  0  0  0  0  0  0  0
   -0.0912    0.3024   -1.5875 C   0  0  0  0  0  0  0  0  0  0  0  0
    1.3413   -0.2814   -1.6730 C   0  0  0  0  0  0  0  0  0  0  0  0
    1.3741   -1.5679   -2.5193 C   0  0  0  0  0  0  0  0  0  0  0  0
    1.2159   -2.7189   -1.5063 C   0  0  0  0  0  0  0  0  0  0  0  0
    0.9496   -2.0177   -0.1701 C   0  0  0  0  0  0  0  0  0  0  0  0
    1.6861   -0.7741   -0.3472 N   0  0  0  0  0  0  0  0  0  0  0  0
    2.2397   -0.1140    0.7166 C   0  0  0  0  0  0  0  0  0  0  0  0
    2.3366   -0.6234    1.8290 O   0  0  0  0  0  0  0  0  0  0  0  0
    2.7065    1.1424    0.4377 N   0  0  0  0  0  0  0  0  0  0  0  0
    3.2455    1.9515    1.5051 C   0  0  0  0  0  0  0  0  0  0  0  0
    3.8303    3.1976    0.9239 C   0  0  0  0  0  0  0  0  0  0  0  0
    2.9460    4.3563    0.5352 C   0  0  0  0  0  0  0  0  0  0  0  0
    3.8577    4.4730    1.7260 C   0  0  0  0  0  0  0  0  0  0  0  0
   -1.5866   -4.4963    2.5038 H   0  0  0  0  0  0  0  0  0  0  0  0
   -2.7751   -4.7089    1.1659 H   0  0  0  0  0  0  0  0  0  0  0  0
   -1.3232   -5.7267    1.2519 H   0  0  0  0  0  0  0  0  0  0  0  0
   -3.0021   -1.4660   -2.3489 H   0  0  0  0  0  0  0  0  0  0  0  0
   -5.3748   -0.7756   -2.3127 H   0  0  0  0  0  0  0  0  0  0  0  0
   -6.1609    0.9052   -0.6753 H   0  0  0  0  0  0  0  0  0  0  0  0
   -2.1681    1.2119    0.9257 H   0  0  0  0  0  0  0  0  0  0  0  0
   -0.4983    0.4336   -2.5972 H   0  0  0  0  0  0  0  0  0  0  0  0
   -0.0404    1.2957   -1.1227 H   0  0  0  0  0  0  0  0  0  0  0  0
    2.0484    0.4661   -2.0440 H   0  0  0  0  0  0  0  0  0  0  0  0
    0.5998   -1.5874   -3.2931 H   0  0  0  0  0  0  0  0  0  0  0  0
    2.3431   -1.6655   -3.0229 H   0  0  0  0  0  0  0  0  0  0  0  0
    0.4312   -3.4233   -1.8009 H   0  0  0  0  0  0  0  0  0  0  0  0
    2.1585   -3.2776   -1.4524 H   0  0  0  0  0  0  0  0  0  0  0  0
    1.3065   -2.5800    0.6980 H   0  0  0  0  0  0  0  0  0  0  0  0
    2.2063    1.6449   -0.2748 H   0  0  0  0  0  0  0  0  0  0  0  0
    4.0143    1.3803    2.0368 H   0  0  0  0  0  0  0  0  0  0  0  0
    2.4344    2.1684    2.2099 H   0  0  0  0  0  0  0  0  0  0  0  0
    4.6935    2.9842    0.3023 H   0  0  0  0  0  0  0  0  0  0  0  0
    3.2051    4.9161   -0.3563 H   0  0  0  0  0  0  0  0  0  0  0  0
    1.8804    4.2896    0.7245 H   0  0  0  0  0  0  0  0  0  0  0  0
    3.4067    4.4796    2.7123 H   0  0  0  0  0  0  0  0  0  0  0  0
    4.7317    5.1088    1.6372 H   0  0  0  0  0  0  0  0  0  0  0  0
  1  2  1  0
  2  3  1  0
  3  4  2  0
  3  5  1  0
  5  6  2  0
  6  7  1  0
  7  8  2  0
  8  9  1  0
  9 10  2  0
 10 11  1  0
 11 12  1  0
 12 13  3  0
 11 14  2  0
  6 15  1  0
 15 16  1  0
 16 17  1  0
 17 18  1  0
 18 19  1  0
 19 20  1  0
 20 21  1  0
 21 22  2  0
 21 23  1  0
 23 24  1  0
 24 25  1  0
 25 26  1  0
 26 27  1  0
 19  5  1  0
 27 25  1  0
 14  7  1  0
 20 16  1  0
  1 28  1  0
  1 29  1  0
  1 30  1  0
  8 31  1  0
  9 32  1  0
 10 33  1  0
 14 34  1  0
 15 35  1  0
 15 36  1  0
 16 37  1  0
 17 38  1  0
 17 39  1  0
 18 40  1  0
 18 41  1  0
 19 42  1  0
 23 43  1  0
 24 44  1  0
 24 45  1  0
 25 46  1  0
 26 47  1  0
 26 48  1  0
 27 49  1  0
 27 50  1  0
M  END
$$$$
