
     RDKit          3D

 45 47  0  0  0  0  0  0  0  0999 V2000
    6.2851   -0.7485    2.3834 C   0  0  0  0  0  0  0  0  0  0  0  0
    5.0879   -0.0737    1.7822 C   0  0  0  0  0  0  0  0  0  0  0  0
    4.8276    1.2723    2.0437 C   0  0  0  0  0  0  0  0  0  0  0  0
    3.6912    1.8858    1.5125 C   0  0  0  0  0  0  0  0  0  0  0  0
    2.7904    1.1661    0.7102 C   0  0  0  0  0  0  0  0  0  0  0  0
    1.6180    1.8490    0.1780 C   0  0  0  0  0  0  0  0  0  0  0  0
    1.6887    3.0390   -0.5173 C   0  0  0  0  0  0  0  0  0  0  0  0
    0.1208    3.5331   -0.9927 S   0  0  0  0  0  0  0  0  0  0  0  0
   -0.5493    2.1332   -0.2301 C   0  0  0  0  0  0  0  0  0  0  0  0
   -2.0269    1.8508   -0.2265 C   0  0  0  0  0  0  0  0  0  0  0  0
   -2.7991    2.9998    0.2615 C   0  0  0  0  0  0  0  0  0  0  0  0
   -3.4149    3.9150    0.6252 N   0  0  0  0  0  0  0  0  0  0  0  0
   -2.4546    1.5228   -1.6384 C   0  0  0  0  0  0  0  0  0  0  0  0
   -2.8482    0.3775   -2.1206 N   0  0  0  0  0  0  0  0  0  0  0  0
   -2.9119   -0.7481   -1.2830 C   0  0  0  0  0  0  0  0  0  0  0  0
   -1.7887   -1.5791   -1.1926 C   0  0  0  0  0  0  0  0  0  0  0  0
   -1.7996   -2.7050   -0.3691 C   0  0  0  0  0  0  0  0  0  0  0  0
   -2.9385   -3.0153    0.3685 C   0  0  0  0  0  0  0  0  0  0  0  0
   -4.0731   -2.2068    0.2753 C   0  0  0  0  0  0  0  0  0  0  0  0
   -4.0746   -1.0809   -0.5595 C   0  0  0  0  0  0  0  0  0  0  0  0
   -5.5491   -0.0728   -0.6239 S   0  0  0  0  0  0  0  0  0  0  0  0
   -6.2262   -0.6822   -2.1711 C   0  0  0  0  0  0  0  0  0  0  0  0
   -6.4578   -2.0175   -2.1223 F   0  0  0  0  0  0  0  0  0  0  0  0
   -5.4273   -0.4421   -3.2347 F   0  0  0  0  0  0  0  0  0  0  0  0
   -7.4182   -0.0874   -2.4325 F   0  0  0  0  0  0  0  0  0  0  0  0
    0.3410    1.3338    0.3261 N   0  0  0  0  0  0  0  0  0  0  0  0
    3.0385   -0.1957    0.4485 C   0  0  0  0  0  0  0  0  0  0  0  0
    2.1045   -1.0401   -0.3763 C   0  0  0  0  0  0  0  0  0  0  0  0
    4.1822   -0.8016    1.0012 C   0  0  0  0  0  0  0  0  0  0  0  0
    6.0214   -1.1849    3.3521 H   0  0  0  0  0  0  0  0  0  0  0  0
    6.6575   -1.5414    1.7259 H   0  0  0  0  0  0  0  0  0  0  0  0
    7.1044   -0.0365    2.5269 H   0  0  0  0  0  0  0  0  0  0  0  0
    5.5029    1.8525    2.6687 H   0  0  0  0  0  0  0  0  0  0  0  0
    3.5072    2.9321    1.7473 H   0  0  0  0  0  0  0  0  0  0  0  0
    2.5624    3.6224   -0.7720 H   0  0  0  0  0  0  0  0  0  0  0  0
   -2.2132    1.0060    0.4421 H   0  0  0  0  0  0  0  0  0  0  0  0
   -2.4222    2.3556   -2.3650 H   0  0  0  0  0  0  0  0  0  0  0  0
   -0.8978   -1.3421   -1.7696 H   0  0  0  0  0  0  0  0  0  0  0  0
   -0.9168   -3.3369   -0.3032 H   0  0  0  0  0  0  0  0  0  0  0  0
   -2.9464   -3.8894    1.0150 H   0  0  0  0  0  0  0  0  0  0  0  0
   -4.9539   -2.4688    0.8591 H   0  0  0  0  0  0  0  0  0  0  0  0
    2.5897   -1.9684   -0.6978 H   0  0  0  0  0  0  0  0  0  0  0  0
    1.7966   -0.5161   -1.2869 H   0  0  0  0  0  0  0  0  0  0  0  0
    1.2213   -1.3080    0.2128 H   0  0  0  0  0  0  0  0  0  0  0  0
    4.3689   -1.8588    0.8189 H   0  0  0  0  0  0  0  0  0  0  0  0
  1  2  1  0
  2  3  2  0
  3  4  1  0
  4  5  2  0
  5  6  1  0
  6  7  2  0
  7  8  1  0
  8  9  1  0
  9 10  1  0
 10 11  1  0
 11 12  3  0
 10 13  1  0
 13 14  2  3
 14 15  1  0
 15 16  2  0
 16 17  1  0
 17 18  2  0
 18 19  1  0
 19 20  2  0
 20 21  1  0
 21 22  1  0
 22 23  1  0
 22 24  1  0
 22 25  1  0
  9 26  2  0
  5 27  1  0
 27 28  1  0
 27 29  2  0
 29  2  1  0
 26  6  1  0
 20 15  1  0
  1 30  1  0
  1 31  1  0
  1 32  1  0
  3 33  1  0
  4 34  1  0
  7 35  1  0
 10 36  1  0
 13 37  1  0
 16 38  1  0
 17 39  1  0
 18 40  1  0
 19 41  1  0
 28 42  1  0
 28 43  1  0
 28 44  1  0
 29 45  1  0
M  END
$$$$
