
     RDKit          3D

 41 43  0  0  0  0  0  0  0  0999 V2000
    0.5683   -2.6272   -2.6062 Cl  0  0  0  0  0  0  0  0  0  0  0  0
    1.6210   -1.6915   -1.6097 C   0  0  0  0  0  0  0  0  0  0  0  0
    2.2694   -2.3601   -0.5611 C   0  0  0  0  0  0  0  0  0  0  0  0
    3.1258   -1.6670    0.2905 C   0  0  0  0  0  0  0  0  0  0  0  0
    3.3266   -0.3016    0.1068 C   0  0  0  0  0  0  0  0  0  0  0  0
    2.6925    0.3654   -0.9455 C   0  0  0  0  0  0  0  0  0  0  0  0
    1.8390   -0.3206   -1.8297 C   0  0  0  0  0  0  0  0  0  0  0  0
    1.1915    0.4420   -2.9609 C   0  0  0  0  0  0  0  0  0  0  0  0
   -0.4660    1.0399   -2.5435 S   0  0  0  0  0  0  0  0  0  0  0  0
   -0.1081    2.5637   -1.8144 C   0  0  0  0  0  0  0  0  0  0  0  0
    1.0222    3.2381   -1.8798 N   0  0  0  0  0  0  0  0  0  0  0  0
    0.8391    4.4219   -1.1953 N   0  0  0  0  0  0  0  0  0  0  0  0
   -0.4014    4.4386   -0.7490 C   0  0  0  0  0  0  0  0  0  0  0  0
   -1.0232    3.2678   -1.0690 N   0  0  0  0  0  0  0  0  0  0  0  0
   -2.3650    2.8915   -0.7126 N   0  0  0  0  0  0  0  0  0  0  0  0
   -2.4625    2.5007    0.6950 C   0  0  0  0  0  0  0  0  0  0  0  0
   -1.7157    1.2384    1.0106 C   0  0  0  0  0  0  0  0  0  0  0  0
   -2.3130    0.0610    1.2426 C   0  0  0  0  0  0  0  0  0  0  0  0
   -1.6145   -1.1966    1.5562 C   0  0  0  0  0  0  0  0  0  0  0  0
   -2.2318   -2.4103    1.2165 C   0  0  0  0  0  0  0  0  0  0  0  0
   -1.6273   -3.6294    1.5156 C   0  0  0  0  0  0  0  0  0  0  0  0
   -0.3975   -3.6558    2.1699 C   0  0  0  0  0  0  0  0  0  0  0  0
    0.2184   -2.4597    2.5311 C   0  0  0  0  0  0  0  0  0  0  0  0
   -0.3874   -1.2318    2.2261 C   0  0  0  0  0  0  0  0  0  0  0  0
    2.1036   -3.4239   -0.3999 H   0  0  0  0  0  0  0  0  0  0  0  0
    3.6265   -2.1904    1.0970 H   0  0  0  0  0  0  0  0  0  0  0  0
    3.9847    0.2433    0.7822 H   0  0  0  0  0  0  0  0  0  0  0  0
    2.8672    1.4370   -1.0737 H   0  0  0  0  0  0  0  0  0  0  0  0
    1.1034   -0.1956   -3.8457 H   0  0  0  0  0  0  0  0  0  0  0  0
    1.8413    1.2647   -3.2821 H   0  0  0  0  0  0  0  0  0  0  0  0
   -0.8788    5.2343   -0.1958 H   0  0  0  0  0  0  0  0  0  0  0  0
   -2.6645    2.0986   -1.2814 H   0  0  0  0  0  0  0  0  0  0  0  0
   -3.5228    2.3755    0.9418 H   0  0  0  0  0  0  0  0  0  0  0  0
   -2.1076    3.3067    1.3490 H   0  0  0  0  0  0  0  0  0  0  0  0
   -0.6306    1.3161    1.0637 H   0  0  0  0  0  0  0  0  0  0  0  0
   -3.3976   -0.0109    1.1722 H   0  0  0  0  0  0  0  0  0  0  0  0
   -3.1878   -2.4156    0.7028 H   0  0  0  0  0  0  0  0  0  0  0  0
   -2.1153   -4.5593    1.2326 H   0  0  0  0  0  0  0  0  0  0  0  0
    0.0851   -4.6050    2.3972 H   0  0  0  0  0  0  0  0  0  0  0  0
    1.1735   -2.4733    3.0433 H   0  0  0  0  0  0  0  0  0  0  0  0
    0.1188   -0.3198    2.5238 H   0  0  0  0  0  0  0  0  0  0  0  0
  1  2  1  0
  2  3  2  0
  3  4  1  0
  4  5  2  0
  5  6  1  0
  6  7  2  0
  7  8  1  0
  8  9  1  0
  9 10  1  0
 10 11  2  0
 11 12  1  0
 12 13  2  0
 13 14  1  0
 14 15  1  0
 15 16  1  0
 16 17  1  0
 17 18  2  3
 18 19  1  0
 19 20  2  0
 20 21  1  0
 21 22  2  0
 22 23  1  0
 23 24  2  0
  7  2  1  0
 14 10  1  0
 24 19  1  0
  3 25  1  0
  4 26  1  0
  5 27  1  0
  6 28  1  0
  8 29  1  0
  8 30  1  0
 13 31  1  0
 15 32  1  0
 16 33  1  0
 16 34  1  0
 17 35  1  0
 18 36  1  0
 20 37  1  0
 21 38  1  0
 22 39  1  0
 23 40  1  0
 24 41  1  0
M  END
$$$$
