
     RDKit          3D

 73 78  0  0  0  0  0  0  0  0999 V2000
    9.4336   -3.1227   -0.6845 C   0  0  0  0  0  0  0  0  0  0  0  0
    8.1577   -2.3363   -0.7177 C   0  0  0  0  0  0  0  0  0  0  0  0
    6.9387   -3.0061   -0.8361 C   0  0  0  0  0  0  0  0  0  0  0  0
    5.7479   -2.2841   -0.8611 C   0  0  0  0  0  0  0  0  0  0  0  0
    5.7267   -0.8807   -0.7591 C   0  0  0  0  0  0  0  0  0  0  0  0
    4.4618   -0.2813   -0.7576 N   0  0  0  0  0  0  0  0  0  0  0  0
    3.9196   -0.0308    0.5860 C   0  0  0  0  0  0  0  0  0  0  0  0
    2.4903    0.5344    0.5009 C   0  0  0  0  0  0  0  0  0  0  0  0
    2.3812    1.7338   -0.3469 N   0  0  0  0  0  0  0  0  0  0  0  0
    1.3515    2.6609   -0.2933 C   0  0  0  0  0  0  0  0  0  0  0  0
    1.3974    3.7011   -0.9552 O   0  0  0  0  0  0  0  0  0  0  0  0
    0.1348    2.3507    0.5764 C   0  0  0  0  0  0  0  0  0  0  0  0
   -0.6642    3.6233    0.9079 C   0  0  0  0  0  0  0  0  0  0  0  0
   -1.8800    3.2701    1.7586 C   0  0  0  0  0  0  0  0  0  0  0  0
   -2.7566    2.2092    1.0887 C   0  0  0  0  0  0  0  0  0  0  0  0
   -1.9449    1.0488    0.7081 N   0  0  0  0  0  0  0  0  0  0  0  0
   -2.6436   -0.1036    0.2944 C   0  0  0  0  0  0  0  0  0  0  0  0
   -1.9073   -1.2008   -0.0688 N   0  0  0  0  0  0  0  0  0  0  0  0
   -2.5323   -2.3473   -0.4073 C   0  0  0  0  0  0  0  0  0  0  0  0
   -3.8517   -2.5947   -0.4488 N   0  0  0  0  0  0  0  0  0  0  0  0
   -4.5536   -1.5030   -0.1017 C   0  0  0  0  0  0  0  0  0  0  0  0
   -4.0567   -0.2639    0.2658 C   0  0  0  0  0  0  0  0  0  0  0  0
   -5.1054    0.5928    0.5412 N   0  0  0  0  0  0  0  0  0  0  0  0
   -6.2179   -0.0985    0.3544 C   0  0  0  0  0  0  0  0  0  0  0  0
   -5.9208   -1.3903   -0.0190 N   0  0  0  0  0  0  0  0  0  0  0  0
   -6.8449   -2.4808   -0.2586 C   0  0  0  0  0  0  0  0  0  0  0  0
   -7.9075   -2.6176    0.8256 C   0  0  0  0  0  0  0  0  0  0  0  0
   -9.0568   -1.6113    0.7249 C   0  0  0  0  0  0  0  0  0  0  0  0
   -8.7477   -0.3056   -0.0071 C   0  0  0  0  0  0  0  0  0  0  0  0
   -7.5796    0.4790    0.5698 C   0  0  0  0  0  0  0  0  0  0  0  0
   -0.7787    1.3512   -0.1393 C   0  0  0  0  0  0  0  0  0  0  0  0
    3.5216    1.9921   -1.2380 C   0  0  0  0  0  0  0  0  0  0  0  0
    4.1492    0.7048   -1.8045 C   0  0  0  0  0  0  0  0  0  0  0  0
    6.9545   -0.2019   -0.6145 C   0  0  0  0  0  0  0  0  0  0  0  0
    7.0585    1.2982   -0.5008 C   0  0  0  0  0  0  0  0  0  0  0  0
    8.1569   -0.9406   -0.6107 C   0  0  0  0  0  0  0  0  0  0  0  0
   10.3103   -2.4665   -0.6572 H   0  0  0  0  0  0  0  0  0  0  0  0
    9.4644   -3.7619    0.2045 H   0  0  0  0  0  0  0  0  0  0  0  0
    9.5111   -3.7500   -1.5791 H   0  0  0  0  0  0  0  0  0  0  0  0
    6.9064   -4.0907   -0.9173 H   0  0  0  0  0  0  0  0  0  0  0  0
    4.8093   -2.8157   -0.9855 H   0  0  0  0  0  0  0  0  0  0  0  0
    4.5526    0.6718    1.1335 H   0  0  0  0  0  0  0  0  0  0  0  0
    3.8901   -0.9605    1.1657 H   0  0  0  0  0  0  0  0  0  0  0  0
    1.8245   -0.2242    0.0753 H   0  0  0  0  0  0  0  0  0  0  0  0
    2.1436    0.7626    1.5135 H   0  0  0  0  0  0  0  0  0  0  0  0
    0.4681    1.9355    1.5333 H   0  0  0  0  0  0  0  0  0  0  0  0
   -0.9964    4.1226   -0.0119 H   0  0  0  0  0  0  0  0  0  0  0  0
   -0.0305    4.3383    1.4465 H   0  0  0  0  0  0  0  0  0  0  0  0
   -1.5374    2.8986    2.7327 H   0  0  0  0  0  0  0  0  0  0  0  0
   -2.4752    4.1691    1.9526 H   0  0  0  0  0  0  0  0  0  0  0  0
   -3.2503    2.6351    0.2071 H   0  0  0  0  0  0  0  0  0  0  0  0
   -3.5174    1.9314    1.8261 H   0  0  0  0  0  0  0  0  0  0  0  0
   -1.8851   -3.1763   -0.6785 H   0  0  0  0  0  0  0  0  0  0  0  0
   -6.2641   -3.4090   -0.2845 H   0  0  0  0  0  0  0  0  0  0  0  0
   -7.2795   -2.3404   -1.2540 H   0  0  0  0  0  0  0  0  0  0  0  0
   -8.3413   -3.6265    0.7669 H   0  0  0  0  0  0  0  0  0  0  0  0
   -7.4447   -2.5414    1.8205 H   0  0  0  0  0  0  0  0  0  0  0  0
   -9.4157   -1.3832    1.7435 H   0  0  0  0  0  0  0  0  0  0  0  0
   -9.9066   -2.0924    0.2143 H   0  0  0  0  0  0  0  0  0  0  0  0
   -9.6420    0.3263    0.0610 H   0  0  0  0  0  0  0  0  0  0  0  0
   -8.5978   -0.4879   -1.0794 H   0  0  0  0  0  0  0  0  0  0  0  0
   -7.5786    1.4697    0.0884 H   0  0  0  0  0  0  0  0  0  0  0  0
   -7.7352    0.6693    1.6440 H   0  0  0  0  0  0  0  0  0  0  0  0
   -1.1175    1.7644   -1.0987 H   0  0  0  0  0  0  0  0  0  0  0  0
   -0.2085    0.4496   -0.3754 H   0  0  0  0  0  0  0  0  0  0  0  0
    4.2580    2.5472   -0.6458 H   0  0  0  0  0  0  0  0  0  0  0  0
    3.2168    2.6426   -2.0643 H   0  0  0  0  0  0  0  0  0  0  0  0
    3.4295    0.2390   -2.4867 H   0  0  0  0  0  0  0  0  0  0  0  0
    5.0194    0.9598   -2.4164 H   0  0  0  0  0  0  0  0  0  0  0  0
    6.3334    1.6859    0.2200 H   0  0  0  0  0  0  0  0  0  0  0  0
    6.9019    1.7710   -1.4784 H   0  0  0  0  0  0  0  0  0  0  0  0
    8.0479    1.6002   -0.1377 H   0  0  0  0  0  0  0  0  0  0  0  0
    9.1047   -0.4116   -0.5193 H   0  0  0  0  0  0  0  0  0  0  0  0
  1  2  1  0
  2  3  2  0
  3  4  1  0
  4  5  2  0
  5  6  1  0
  6  7  1  0
  7  8  1  0
  8  9  1  0
  9 10  1  0
 10 11  2  0
 10 12  1  0
 12 13  1  0
 13 14  1  0
 14 15  1  0
 15 16  1  0
 16 17  1  0
 17 18  2  0
 18 19  1  0
 19 20  2  0
 20 21  1  0
 21 22  2  0
 22 23  1  0
 23 24  2  0
 24 25  1  0
 25 26  1  0
 26 27  1  0
 27 28  1  0
 28 29  1  0
 29 30  1  0
 16 31  1  0
  9 32  1  0
 32 33  1  0
  5 34  1  0
 34 35  1  0
 34 36  2  0
 36  2  1  0
 33  6  1  0
 31 12  1  0
 22 17  1  0
 30 24  1  0
 25 21  1  0
  1 37  1  0
  1 38  1  0
  1 39  1  0
  3 40  1  0
  4 41  1  0
  7 42  1  0
  7 43  1  0
  8 44  1  0
  8 45  1  0
 12 46  1  0
 13 47  1  0
 13 48  1  0
 14 49  1  0
 14 50  1  0
 15 51  1  0
 15 52  1  0
 19 53  1  0
 26 54  1  0
 26 55  1  0
 27 56  1  0
 27 57  1  0
 28 58  1  0
 28 59  1  0
 29 60  1  0
 29 61  1  0
 30 62  1  0
 30 63  1  0
 31 64  1  0
 31 65  1  0
 32 66  1  0
 32 67  1  0
 33 68  1  0
 33 69  1  0
 35 70  1  0
 35 71  1  0
 35 72  1  0
 36 73  1  0
M  END
$$$$
