
     RDKit          3D

 49 52  0  0  0  0  0  0  0  0999 V2000
    4.8771   -0.1263   -4.3219 C   0  0  0  0  0  0  0  0  0  0  0  0
    4.4120   -0.2898   -2.9052 C   0  0  0  0  0  0  0  0  0  0  0  0
    4.2572    0.8273   -2.0756 C   0  0  0  0  0  0  0  0  0  0  0  0
    3.7909    0.6788   -0.7668 C   0  0  0  0  0  0  0  0  0  0  0  0
    3.4638   -0.5880   -0.2758 C   0  0  0  0  0  0  0  0  0  0  0  0
    2.9539   -0.7340    1.0887 C   0  0  0  0  0  0  0  0  0  0  0  0
    1.6610   -0.8645    1.4249 C   0  0  0  0  0  0  0  0  0  0  0  0
    1.1705   -1.0149    2.8507 C   0  0  0  0  0  0  0  0  0  0  0  0
   -0.3634   -1.1249    2.7628 C   0  0  0  0  0  0  0  0  0  0  0  0
   -0.6349   -1.0215    1.3006 C   0  0  0  0  0  0  0  0  0  0  0  0
    0.4857   -0.8885    0.5958 C   0  0  0  0  0  0  0  0  0  0  0  0
    0.5533   -0.7061   -0.7758 O   0  0  0  0  0  0  0  0  0  0  0  0
   -0.6048   -0.7742   -1.4683 C   0  0  0  0  0  0  0  0  0  0  0  0
   -0.5971   -0.3452   -2.6885 N   0  0  0  0  0  0  0  0  0  0  0  0
   -1.8420   -1.3801   -0.8458 C   0  0  0  0  0  0  0  0  0  0  0  0
   -1.7882   -2.8370   -1.0616 C   0  0  0  0  0  0  0  0  0  0  0  0
   -1.7657   -3.9906   -1.1930 N   0  0  0  0  0  0  0  0  0  0  0  0
   -1.9801   -1.0704    0.6611 C   0  0  0  0  0  0  0  0  0  0  0  0
   -2.7837    0.1995    0.9145 C   0  0  0  0  0  0  0  0  0  0  0  0
   -4.0261    0.1161    1.5616 C   0  0  0  0  0  0  0  0  0  0  0  0
   -4.7888    1.2630    1.7971 C   0  0  0  0  0  0  0  0  0  0  0  0
   -4.3321    2.5171    1.3816 C   0  0  0  0  0  0  0  0  0  0  0  0
   -5.1359    3.7518    1.6628 C   0  0  0  0  0  0  0  0  0  0  0  0
   -3.0879    2.6093    0.7509 C   0  0  0  0  0  0  0  0  0  0  0  0
   -2.3234    1.4636    0.5147 C   0  0  0  0  0  0  0  0  0  0  0  0
    3.6068   -1.7050   -1.1042 C   0  0  0  0  0  0  0  0  0  0  0  0
    4.0716   -1.5555   -2.4132 C   0  0  0  0  0  0  0  0  0  0  0  0
    5.4246   -1.0131   -4.6580 H   0  0  0  0  0  0  0  0  0  0  0  0
    4.0182    0.0308   -4.9816 H   0  0  0  0  0  0  0  0  0  0  0  0
    5.5557    0.7282   -4.4141 H   0  0  0  0  0  0  0  0  0  0  0  0
    4.4980    1.8221   -2.4437 H   0  0  0  0  0  0  0  0  0  0  0  0
    3.6749    1.5584   -0.1385 H   0  0  0  0  0  0  0  0  0  0  0  0
    3.7190   -0.7258    1.8614 H   0  0  0  0  0  0  0  0  0  0  0  0
    1.5902   -1.9140    3.3166 H   0  0  0  0  0  0  0  0  0  0  0  0
    1.4552   -0.1463    3.4558 H   0  0  0  0  0  0  0  0  0  0  0  0
   -0.7109   -2.0821    3.1649 H   0  0  0  0  0  0  0  0  0  0  0  0
   -0.8441   -0.3142    3.3199 H   0  0  0  0  0  0  0  0  0  0  0  0
    0.3613   -0.0174   -2.8782 H   0  0  0  0  0  0  0  0  0  0  0  0
   -2.7164   -0.9945   -1.3871 H   0  0  0  0  0  0  0  0  0  0  0  0
   -2.5257   -1.9012    1.1327 H   0  0  0  0  0  0  0  0  0  0  0  0
   -4.4165   -0.8441    1.8934 H   0  0  0  0  0  0  0  0  0  0  0  0
   -5.7455    1.1697    2.3067 H   0  0  0  0  0  0  0  0  0  0  0  0
   -6.2079    3.5283    1.6632 H   0  0  0  0  0  0  0  0  0  0  0  0
   -4.9636    4.5133    0.8949 H   0  0  0  0  0  0  0  0  0  0  0  0
   -4.8598    4.1638    2.6383 H   0  0  0  0  0  0  0  0  0  0  0  0
   -2.7033    3.5774    0.4363 H   0  0  0  0  0  0  0  0  0  0  0  0
   -1.3613    1.5815    0.0207 H   0  0  0  0  0  0  0  0  0  0  0  0
    3.3444   -2.6958   -0.7409 H   0  0  0  0  0  0  0  0  0  0  0  0
    4.1638   -2.4351   -3.0465 H   0  0  0  0  0  0  0  0  0  0  0  0
  1  2  1  0
  2  3  2  0
  3  4  1  0
  4  5  2  0
  5  6  1  0
  6  7  2  3
  7  8  1  0
  8  9  1  0
  9 10  1  0
 10 11  2  0
 11 12  1  0
 12 13  1  0
 13 14  2  3
 13 15  1  0
 15 16  1  0
 16 17  3  0
 15 18  1  0
 18 19  1  0
 19 20  2  0
 20 21  1  0
 21 22  2  0
 22 23  1  0
 22 24  1  0
 24 25  2  0
  5 26  1  0
 26 27  2  0
 27  2  1  0
 11  7  1  0
 25 19  1  0
 18 10  1  0
  1 28  1  0
  1 29  1  0
  1 30  1  0
  3 31  1  0
  4 32  1  0
  6 33  1  0
  8 34  1  0
  8 35  1  0
  9 36  1  0
  9 37  1  0
 14 38  1  0
 15 39  1  0
 18 40  1  0
 20 41  1  0
 21 42  1  0
 23 43  1  0
 23 44  1  0
 23 45  1  0
 24 46  1  0
 25 47  1  0
 26 48  1  0
 27 49  1  0
M  END
$$$$
