
     RDKit          3D

 53 55  0  0  0  0  0  0  0  0999 V2000
   -8.5924    2.3939   -2.7486 C   0  0  0  0  0  0  0  0  0  0  0  0
   -7.2280    2.7879   -2.7731 O   0  0  0  0  0  0  0  0  0  0  0  0
   -6.3666    2.1549   -1.9118 C   0  0  0  0  0  0  0  0  0  0  0  0
   -6.7409    1.1476   -1.0179 C   0  0  0  0  0  0  0  0  0  0  0  0
   -5.7904    0.5575   -0.1796 C   0  0  0  0  0  0  0  0  0  0  0  0
   -4.4520    0.9548   -0.2296 C   0  0  0  0  0  0  0  0  0  0  0  0
   -3.4927    0.3191    0.6821 C   0  0  0  0  0  0  0  0  0  0  0  0
   -2.2574   -0.0573    0.3160 C   0  0  0  0  0  0  0  0  0  0  0  0
   -1.3590   -0.7188    1.3062 C   0  0  0  0  0  0  0  0  0  0  0  0
   -1.7273   -0.9207    2.4555 O   0  0  0  0  0  0  0  0  0  0  0  0
   -0.1334   -1.0347    0.7547 N   0  0  0  0  0  0  0  0  0  0  0  0
    0.9498   -1.6796    1.3905 C   0  0  0  0  0  0  0  0  0  0  0  0
    0.9252   -2.1342    2.7126 C   0  0  0  0  0  0  0  0  0  0  0  0
    2.0369   -2.7772    3.2713 C   0  0  0  0  0  0  0  0  0  0  0  0
    3.1893   -2.9675    2.5151 C   0  0  0  0  0  0  0  0  0  0  0  0
    3.2205   -2.5040    1.1996 C   0  0  0  0  0  0  0  0  0  0  0  0
    4.6949   -2.7307    0.2417 S   0  0  0  0  0  6  0  0  0  0  0  0
    5.0840   -4.1190    0.3619 O   0  0  0  0  0  0  0  0  0  0  0  0
    4.4954   -2.1166   -1.0552 O   0  0  0  0  0  0  0  0  0  0  0  0
    5.8278   -1.7873    1.0815 N   0  0  0  0  0  0  0  0  0  0  0  0
    5.5552   -0.3317    1.1905 C   0  0  0  0  0  0  0  0  0  0  0  0
    6.9339    0.2909    1.3455 C   0  0  0  0  0  0  0  0  0  0  0  0
    7.7729   -0.5570    0.4122 C   0  0  0  0  0  0  0  0  0  0  0  0
    7.2430   -1.9649    0.6510 C   0  0  0  0  0  0  0  0  0  0  0  0
    2.1098   -1.8702    0.6316 C   0  0  0  0  0  0  0  0  0  0  0  0
   -4.0778    1.9780   -1.1124 C   0  0  0  0  0  0  0  0  0  0  0  0
   -5.0228    2.5778   -1.9563 C   0  0  0  0  0  0  0  0  0  0  0  0
   -4.7374    3.5787   -2.8530 O   0  0  0  0  0  0  0  0  0  0  0  0
   -3.4058    4.0698   -2.8974 C   0  0  0  0  0  0  0  0  0  0  0  0
   -9.0439    2.5942   -1.7712 H   0  0  0  0  0  0  0  0  0  0  0  0
   -8.7053    1.3416   -3.0300 H   0  0  0  0  0  0  0  0  0  0  0  0
   -9.1272    2.9948   -3.4906 H   0  0  0  0  0  0  0  0  0  0  0  0
   -7.7649    0.7970   -0.9461 H   0  0  0  0  0  0  0  0  0  0  0  0
   -6.1077   -0.2245    0.5077 H   0  0  0  0  0  0  0  0  0  0  0  0
   -3.8491    0.1330    1.6945 H   0  0  0  0  0  0  0  0  0  0  0  0
   -1.8964    0.0895   -0.6936 H   0  0  0  0  0  0  0  0  0  0  0  0
    0.0160   -0.7883   -0.2148 H   0  0  0  0  0  0  0  0  0  0  0  0
    0.0480   -2.0122    3.3410 H   0  0  0  0  0  0  0  0  0  0  0  0
    1.9939   -3.1305    4.2991 H   0  0  0  0  0  0  0  0  0  0  0  0
    4.0521   -3.4698    2.9472 H   0  0  0  0  0  0  0  0  0  0  0  0
    4.9239   -0.1169    2.0570 H   0  0  0  0  0  0  0  0  0  0  0  0
    5.0715    0.0511    0.2856 H   0  0  0  0  0  0  0  0  0  0  0  0
    6.9463    1.3525    1.0837 H   0  0  0  0  0  0  0  0  0  0  0  0
    7.2888    0.1833    2.3775 H   0  0  0  0  0  0  0  0  0  0  0  0
    8.8453   -0.4758    0.6089 H   0  0  0  0  0  0  0  0  0  0  0  0
    7.5928   -0.2600   -0.6282 H   0  0  0  0  0  0  0  0  0  0  0  0
    7.3465   -2.5766   -0.2501 H   0  0  0  0  0  0  0  0  0  0  0  0
    7.7869   -2.4546    1.4662 H   0  0  0  0  0  0  0  0  0  0  0  0
    2.1576   -1.5297   -0.4000 H   0  0  0  0  0  0  0  0  0  0  0  0
   -3.0439    2.3053   -1.1206 H   0  0  0  0  0  0  0  0  0  0  0  0
   -3.1116    4.5041   -1.9361 H   0  0  0  0  0  0  0  0  0  0  0  0
   -3.3676    4.8663   -3.6468 H   0  0  0  0  0  0  0  0  0  0  0  0
   -2.7068    3.2868   -3.2098 H   0  0  0  0  0  0  0  0  0  0  0  0
  1  2  1  0
  2  3  1  0
  3  4  2  0
  4  5  1  0
  5  6  2  0
  6  7  1  0
  7  8  2  3
  8  9  1  0
  9 10  2  0
  9 11  1  0
 11 12  1  0
 12 13  2  0
 13 14  1  0
 14 15  2  0
 15 16  1  0
 16 17  1  0
 17 18  2  0
 17 19  2  0
 17 20  1  0
 20 21  1  0
 21 22  1  0
 22 23  1  0
 23 24  1  0
 16 25  2  0
  6 26  1  0
 26 27  2  0
 27 28  1  0
 28 29  1  0
 27  3  1  0
 25 12  1  0
 24 20  1  0
  1 30  1  0
  1 31  1  0
  1 32  1  0
  4 33  1  0
  5 34  1  0
  7 35  1  0
  8 36  1  0
 11 37  1  0
 13 38  1  0
 14 39  1  0
 15 40  1  0
 21 41  1  0
 21 42  1  0
 22 43  1  0
 22 44  1  0
 23 45  1  0
 23 46  1  0
 24 47  1  0
 24 48  1  0
 25 49  1  0
 26 50  1  0
 29 51  1  0
 29 52  1  0
 29 53  1  0
M  END
$$$$
