
     RDKit          3D

 25 27  0  0  0  0  0  0  0  0999 V2000
   -1.1494   -1.7058    0.7813 N   0  0  0  0  0  0  0  0  0  0  0  0
   -1.2302   -0.4887    0.0987 C   0  0  0  0  0  0  0  0  0  0  0  0
   -0.1934    0.3521   -0.1246 C   0  0  0  0  0  0  0  0  0  0  0  0
    1.1886    0.1083    0.3154 C   0  0  0  0  0  0  0  0  0  0  0  0
    1.8265    1.0186    1.1692 C   0  0  0  0  0  0  0  0  0  0  0  0
    3.1420    0.7971    1.5828 C   0  0  0  0  0  0  0  0  0  0  0  0
    3.8308   -0.3329    1.1458 C   0  0  0  0  0  0  0  0  0  0  0  0
    3.2065   -1.2433    0.2953 C   0  0  0  0  0  0  0  0  0  0  0  0
    1.8916   -1.0237   -0.1195 C   0  0  0  0  0  0  0  0  0  0  0  0
   -0.5344    1.6059   -0.8776 C   0  0  0  0  0  0  0  0  0  0  0  0
   -1.7006    1.9685   -1.3145 N   0  0  0  0  0  0  0  0  0  0  0  0
   -2.7202    1.1023   -1.0559 C   0  0  0  0  0  0  0  0  0  0  0  0
   -3.9964    1.2068   -1.3568 N   0  0  0  0  0  0  0  0  0  0  0  0
   -4.5397    0.0716   -0.8414 C   0  0  0  0  0  0  0  0  0  0  0  0
   -3.6969   -0.7522   -0.2200 N   0  0  0  0  0  0  0  0  0  0  0  0
   -2.5088   -0.1002   -0.3721 N   0  0  0  0  0  0  0  0  0  0  0  0
   -0.4282   -1.7282    1.4989 H   0  0  0  0  0  0  0  0  0  0  0  0
   -2.0659   -2.0097    1.1219 H   0  0  0  0  0  0  0  0  0  0  0  0
    1.3063    1.9043    1.5284 H   0  0  0  0  0  0  0  0  0  0  0  0
    3.6300    1.5063    2.2471 H   0  0  0  0  0  0  0  0  0  0  0  0
    4.8551   -0.5043    1.4678 H   0  0  0  0  0  0  0  0  0  0  0  0
    3.7434   -2.1247   -0.0469 H   0  0  0  0  0  0  0  0  0  0  0  0
    1.4196   -1.7447   -0.7851 H   0  0  0  0  0  0  0  0  0  0  0  0
    0.3181    2.2788   -1.0761 H   0  0  0  0  0  0  0  0  0  0  0  0
   -5.5943   -0.1619   -0.9180 H   0  0  0  0  0  0  0  0  0  0  0  0
  1  2  1  0
  2  3  2  0
  3  4  1  0
  4  5  2  0
  5  6  1  0
  6  7  2  0
  7  8  1  0
  8  9  2  0
  3 10  1  0
 10 11  2  0
 11 12  1  0
 12 13  2  0
 13 14  1  0
 14 15  2  0
 15 16  1  0
 16  2  1  0
  9  4  1  0
 16 12  1  0
  1 17  1  0
  1 18  1  0
  5 19  1  0
  6 20  1  0
  7 21  1  0
  8 22  1  0
  9 23  1  0
 10 24  1  0
 14 25  1  0
M  END
$$$$
