
     RDKit          3D

 45 48  0  0  0  0  0  0  0  0999 V2000
   -2.6492   -2.9376   -0.6045 C   0  0  0  0  0  0  0  0  0  0  0  0
   -2.7503   -1.4938   -0.2640 C   0  0  0  0  0  0  0  0  0  0  0  0
   -3.8521   -0.6690   -0.4610 C   0  0  0  0  0  0  0  0  0  0  0  0
   -5.0526   -0.9009   -0.9774 O   0  0  0  0  0  0  0  0  0  0  0  0
   -3.5225    0.5732   -0.0081 N   0  0  0  0  0  0  0  0  0  0  0  0
   -2.2363    0.5846    0.4636 C   0  0  0  0  0  0  0  0  0  0  0  0
   -1.5710    1.6863    1.0057 C   0  0  0  0  0  0  0  0  0  0  0  0
   -0.2507    1.4742    1.4040 C   0  0  0  0  0  0  0  0  0  0  0  0
    0.3227    0.2017    1.2712 C   0  0  0  0  0  0  0  0  0  0  0  0
    2.0062   -0.0622    1.7726 S   0  0  0  0  0  6  0  0  0  0  0  0
    2.0096   -1.1889    2.6811 O   0  0  0  0  0  0  0  0  0  0  0  0
    2.5843    1.2106    2.1528 O   0  0  0  0  0  0  0  0  0  0  0  0
    2.7665   -0.5447    0.3105 N   0  0  0  0  0  0  0  0  0  0  0  0
    2.8031    0.5092   -0.7438 C   0  0  0  0  0  0  0  0  0  0  0  0
    3.2657   -0.1086   -2.0609 C   0  0  0  0  0  0  0  0  0  0  0  0
    4.6291   -0.7760   -1.9087 C   0  0  0  0  0  0  0  0  0  0  0  0
    4.6133   -1.7768   -0.7575 C   0  0  0  0  0  0  0  0  0  0  0  0
    4.1186   -1.1312    0.5345 C   0  0  0  0  0  0  0  0  0  0  0  0
   -0.3888   -0.8948    0.7426 C   0  0  0  0  0  0  0  0  0  0  0  0
   -1.7143   -0.6875    0.3202 C   0  0  0  0  0  0  0  0  0  0  0  0
   -2.2941    3.0008    1.0653 C   0  0  0  0  0  0  0  0  0  0  0  0
   -3.8241    2.7752    1.0888 C   0  0  0  0  0  0  0  0  0  0  0  0
   -4.3156    1.7917    0.0049 C   0  0  0  0  0  0  0  0  0  0  0  0
   -2.4914   -3.0612   -1.6805 H   0  0  0  0  0  0  0  0  0  0  0  0
   -1.8179   -3.4173   -0.0789 H   0  0  0  0  0  0  0  0  0  0  0  0
   -3.5662   -3.4670   -0.3261 H   0  0  0  0  0  0  0  0  0  0  0  0
   -5.0812   -1.8396   -1.2315 H   0  0  0  0  0  0  0  0  0  0  0  0
    0.3265    2.2976    1.8196 H   0  0  0  0  0  0  0  0  0  0  0  0
    3.4803    1.3185   -0.4468 H   0  0  0  0  0  0  0  0  0  0  0  0
    1.8068    0.9336   -0.8974 H   0  0  0  0  0  0  0  0  0  0  0  0
    3.3164    0.6642   -2.8358 H   0  0  0  0  0  0  0  0  0  0  0  0
    2.5325   -0.8540   -2.3939 H   0  0  0  0  0  0  0  0  0  0  0  0
    5.3930   -0.0119   -1.7204 H   0  0  0  0  0  0  0  0  0  0  0  0
    4.9028   -1.2829   -2.8406 H   0  0  0  0  0  0  0  0  0  0  0  0
    5.6192   -2.1844   -0.6072 H   0  0  0  0  0  0  0  0  0  0  0  0
    3.9593   -2.6180   -1.0198 H   0  0  0  0  0  0  0  0  0  0  0  0
    4.0714   -1.9058    1.3069 H   0  0  0  0  0  0  0  0  0  0  0  0
    4.8163   -0.3535    0.8663 H   0  0  0  0  0  0  0  0  0  0  0  0
    0.0809   -1.8707    0.6585 H   0  0  0  0  0  0  0  0  0  0  0  0
   -1.9979    3.5575    1.9613 H   0  0  0  0  0  0  0  0  0  0  0  0
   -2.0194    3.5963    0.1870 H   0  0  0  0  0  0  0  0  0  0  0  0
   -4.1008    2.3721    2.0728 H   0  0  0  0  0  0  0  0  0  0  0  0
   -4.3423    3.7347    0.9821 H   0  0  0  0  0  0  0  0  0  0  0  0
   -4.2251    2.2363   -0.9922 H   0  0  0  0  0  0  0  0  0  0  0  0
   -5.3607    1.5202    0.1845 H   0  0  0  0  0  0  0  0  0  0  0  0
  1  2  1  0
  2  3  2  0
  3  4  1  0
  3  5  1  0
  5  6  1  0
  6  7  2  0
  7  8  1  0
  8  9  2  0
  9 10  1  0
 10 11  2  0
 10 12  2  0
 10 13  1  0
 13 14  1  0
 14 15  1  0
 15 16  1  0
 16 17  1  0
 17 18  1  0
  9 19  1  0
 19 20  2  0
  7 21  1  0
 21 22  1  0
 22 23  1  0
 20  2  1  0
 23  5  1  0
 20  6  1  0
 18 13  1  0
  1 24  1  0
  1 25  1  0
  1 26  1  0
  4 27  1  0
  8 28  1  0
 14 29  1  0
 14 30  1  0
 15 31  1  0
 15 32  1  0
 16 33  1  0
 16 34  1  0
 17 35  1  0
 17 36  1  0
 18 37  1  0
 18 38  1  0
 19 39  1  0
 21 40  1  0
 21 41  1  0
 22 42  1  0
 22 43  1  0
 23 44  1  0
 23 45  1  0
M  END
$$$$
