
     RDKit          3D

 52 54  0  0  0  0  0  0  0  0999 V2000
    7.1108    0.9639    0.1899 C   0  0  0  0  0  0  0  0  0  0  0  0
    6.2014    0.8608   -0.9440 N   0  0  0  0  0  0  0  0  0  0  0  0
    6.7590    0.3085   -2.1838 C   0  0  0  0  0  0  0  0  0  0  0  0
    6.8081   -1.2213   -2.1832 C   0  0  0  0  0  0  0  0  0  0  0  0
    7.3392   -1.7100   -3.4592 C   0  0  0  0  0  0  0  0  0  0  0  0
    7.7623   -2.0750   -4.4757 N   0  0  0  0  0  0  0  0  0  0  0  0
    4.8344    0.9868   -0.6895 C   0  0  0  0  0  0  0  0  0  0  0  0
    4.4047    1.2345    0.4407 O   0  0  0  0  0  0  0  0  0  0  0  0
    3.8630    0.8405   -1.8736 C   0  0  0  0  0  0  0  0  0  0  0  0
    2.5233    0.5855   -1.4444 O   0  0  0  0  0  0  0  0  0  0  0  0
    2.3406   -0.6701   -0.9658 C   0  0  0  0  0  0  0  0  0  0  0  0
    3.1678   -1.5686   -0.9949 O   0  0  0  0  0  0  0  0  0  0  0  0
    0.9719   -0.8260   -0.4022 C   0  0  0  0  0  0  0  0  0  0  0  0
    0.6056   -2.1000    0.1029 C   0  0  0  0  0  0  0  0  0  0  0  0
   -0.6627   -2.3252    0.6521 C   0  0  0  0  0  0  0  0  0  0  0  0
   -1.5355   -1.2561    0.6809 C   0  0  0  0  0  0  0  0  0  0  0  0
   -1.1840   -0.0131    0.1909 C   0  0  0  0  0  0  0  0  0  0  0  0
    0.0600    0.2404   -0.3570 C   0  0  0  0  0  0  0  0  0  0  0  0
   -2.3328    0.8708    0.3714 C   0  0  0  0  0  0  0  0  0  0  0  0
   -2.3488    2.0340    0.0173 O   0  0  0  0  0  0  0  0  0  0  0  0
   -3.3133    0.1276    0.9755 N   0  0  0  0  0  0  0  0  0  0  0  0
   -4.6343    0.6601    1.3036 C   0  0  0  0  0  0  0  0  0  0  0  0
   -5.7396   -0.0106    0.4742 C   0  0  0  0  0  0  0  0  0  0  0  0
   -7.1156    0.5587    0.8129 C   0  0  0  0  0  0  0  0  0  0  0  0
   -7.4086    0.4716    2.3081 C   0  0  0  0  0  0  0  0  0  0  0  0
   -6.3126    1.1355    3.1373 C   0  0  0  0  0  0  0  0  0  0  0  0
   -4.9345    0.5662    2.8071 C   0  0  0  0  0  0  0  0  0  0  0  0
   -2.9074   -1.1657    1.1763 C   0  0  0  0  0  0  0  0  0  0  0  0
   -3.5097   -2.1078    1.6536 O   0  0  0  0  0  0  0  0  0  0  0  0
    6.6848    1.5704    0.9938 H   0  0  0  0  0  0  0  0  0  0  0  0
    8.0452    1.4297   -0.1361 H   0  0  0  0  0  0  0  0  0  0  0  0
    7.3122   -0.0403    0.5737 H   0  0  0  0  0  0  0  0  0  0  0  0
    6.1710    0.6726   -3.0333 H   0  0  0  0  0  0  0  0  0  0  0  0
    7.7652    0.7259   -2.3176 H   0  0  0  0  0  0  0  0  0  0  0  0
    7.4387   -1.5767   -1.3605 H   0  0  0  0  0  0  0  0  0  0  0  0
    5.8091   -1.6364   -2.0135 H   0  0  0  0  0  0  0  0  0  0  0  0
    4.1685    0.0590   -2.5738 H   0  0  0  0  0  0  0  0  0  0  0  0
    3.8579    1.7929   -2.4139 H   0  0  0  0  0  0  0  0  0  0  0  0
    1.3210   -2.9221    0.0683 H   0  0  0  0  0  0  0  0  0  0  0  0
   -0.9502   -3.2972    1.0410 H   0  0  0  0  0  0  0  0  0  0  0  0
    0.3017    1.2325   -0.7259 H   0  0  0  0  0  0  0  0  0  0  0  0
   -4.6274    1.7259    1.0378 H   0  0  0  0  0  0  0  0  0  0  0  0
   -5.7487   -1.0930    0.6508 H   0  0  0  0  0  0  0  0  0  0  0  0
   -5.5393    0.1279   -0.5953 H   0  0  0  0  0  0  0  0  0  0  0  0
   -7.8863    0.0161    0.2541 H   0  0  0  0  0  0  0  0  0  0  0  0
   -7.1661    1.6063    0.4915 H   0  0  0  0  0  0  0  0  0  0  0  0
   -8.3721    0.9471    2.5230 H   0  0  0  0  0  0  0  0  0  0  0  0
   -7.4994   -0.5817    2.6009 H   0  0  0  0  0  0  0  0  0  0  0  0
   -6.3159    2.2161    2.9488 H   0  0  0  0  0  0  0  0  0  0  0  0
   -6.5224    0.9969    4.2039 H   0  0  0  0  0  0  0  0  0  0  0  0
   -4.1685    1.1085    3.3745 H   0  0  0  0  0  0  0  0  0  0  0  0
   -4.8916   -0.4761    3.1448 H   0  0  0  0  0  0  0  0  0  0  0  0
  1  2  1  0
  2  3  1  0
  3  4  1  0
  4  5  1  0
  5  6  3  0
  2  7  1  0
  7  8  2  0
  7  9  1  0
  9 10  1  0
 10 11  1  0
 11 12  2  0
 11 13  1  0
 13 14  2  0
 14 15  1  0
 15 16  2  0
 16 17  1  0
 17 18  2  0
 17 19  1  0
 19 20  2  0
 19 21  1  0
 21 22  1  0
 22 23  1  0
 23 24  1  0
 24 25  1  0
 25 26  1  0
 26 27  1  0
 21 28  1  0
 28 29  2  0
 18 13  1  0
 27 22  1  0
 28 16  1  0
  1 30  1  0
  1 31  1  0
  1 32  1  0
  3 33  1  0
  3 34  1  0
  4 35  1  0
  4 36  1  0
  9 37  1  0
  9 38  1  0
 14 39  1  0
 15 40  1  0
 18 41  1  0
 22 42  1  0
 23 43  1  0
 23 44  1  0
 24 45  1  0
 24 46  1  0
 25 47  1  0
 25 48  1  0
 26 49  1  0
 26 50  1  0
 27 51  1  0
 27 52  1  0
M  END
$$$$
