
     RDKit          3D

 61 65  0  0  0  0  0  0  0  0999 V2000
  -10.9547   -0.1474    0.2443 C   0  0  0  0  0  0  0  0  0  0  0  0
   -9.9467   -0.7901   -0.5254 O   0  0  0  0  0  0  0  0  0  0  0  0
   -8.6526   -0.4348   -0.2651 C   0  0  0  0  0  0  0  0  0  0  0  0
   -7.6974   -1.0795   -1.0497 C   0  0  0  0  0  0  0  0  0  0  0  0
   -6.3328   -0.8093   -0.8885 C   0  0  0  0  0  0  0  0  0  0  0  0
   -5.8958    0.1150    0.0691 C   0  0  0  0  0  0  0  0  0  0  0  0
   -4.4951    0.3944    0.2379 N   0  0  0  0  0  0  0  0  0  0  0  0
   -3.8718    0.9200    1.3817 C   0  0  0  0  0  0  0  0  0  0  0  0
   -4.5290    1.1793    2.5120 O   0  0  0  0  0  0  0  0  0  0  0  0
   -2.5191    1.0452    1.1345 C   0  0  0  0  0  0  0  0  0  0  0  0
   -2.2773    0.5720   -0.1641 C   0  0  0  0  0  0  0  0  0  0  0  0
   -1.0871    0.4873   -0.8304 N   0  0  0  0  0  0  0  0  0  0  0  0
   -0.5657   -0.8912   -1.0564 C   0  0  0  0  0  0  0  0  0  0  0  0
    0.9059   -0.9078   -1.5299 C   0  0  0  0  0  0  0  0  0  0  0  0
    1.7882   -0.2221   -0.5675 N   0  0  0  0  0  0  0  0  0  0  0  0
    3.1460   -0.4819   -0.5016 C   0  0  0  0  0  0  0  0  0  0  0  0
    3.9112   -0.1075    0.6166 C   0  0  0  0  0  0  0  0  0  0  0  0
    5.2875   -0.3597    0.6996 C   0  0  0  0  0  0  0  0  0  0  0  0
    5.9416   -0.9926   -0.3561 C   0  0  0  0  0  0  0  0  0  0  0  0
    7.3956   -1.2836   -0.3170 C   0  0  0  0  0  0  0  0  0  0  0  0
    7.8112   -2.3303   -0.8065 O   0  0  0  0  0  0  0  0  0  0  0  0
    8.3595   -0.3440    0.2953 C   0  0  0  0  0  0  0  0  0  0  0  0
    9.5188   -0.8370    0.8966 C   0  0  0  0  0  0  0  0  0  0  0  0
   10.4285    0.0535    1.4618 C   0  0  0  0  0  0  0  0  0  0  0  0
   10.1487    1.4096    1.3961 C   0  0  0  0  0  0  0  0  0  0  0  0
    9.0445    1.9212    0.8070 N   0  0  0  0  0  0  0  0  0  0  0  0
    8.1807    1.0330    0.2567 C   0  0  0  0  0  0  0  0  0  0  0  0
    5.2057   -1.4053   -1.4651 C   0  0  0  0  0  0  0  0  0  0  0  0
    3.8300   -1.1469   -1.5320 C   0  0  0  0  0  0  0  0  0  0  0  0
    1.1836    0.8918    0.1895 C   0  0  0  0  0  0  0  0  0  0  0  0
   -0.0307    1.4898   -0.5533 C   0  0  0  0  0  0  0  0  0  0  0  0
   -3.4868    0.2044   -0.7137 C   0  0  0  0  0  0  0  0  0  0  0  0
   -3.7173   -0.1804   -1.9703 O   0  0  0  0  0  0  0  0  0  0  0  0
   -6.8620    0.7584    0.8552 C   0  0  0  0  0  0  0  0  0  0  0  0
   -8.2286    0.4868    0.6886 C   0  0  0  0  0  0  0  0  0  0  0  0
  -10.9533    0.9343    0.0712 H   0  0  0  0  0  0  0  0  0  0  0  0
  -10.8464   -0.3782    1.3095 H   0  0  0  0  0  0  0  0  0  0  0  0
  -11.9242   -0.5354   -0.0834 H   0  0  0  0  0  0  0  0  0  0  0  0
   -8.0134   -1.8060   -1.7944 H   0  0  0  0  0  0  0  0  0  0  0  0
   -5.6357   -1.3667   -1.5070 H   0  0  0  0  0  0  0  0  0  0  0  0
   -3.8753    1.4636    3.1743 H   0  0  0  0  0  0  0  0  0  0  0  0
   -1.7884    1.4067    1.8431 H   0  0  0  0  0  0  0  0  0  0  0  0
   -0.6382   -1.4638   -0.1215 H   0  0  0  0  0  0  0  0  0  0  0  0
   -1.1813   -1.4000   -1.8068 H   0  0  0  0  0  0  0  0  0  0  0  0
    0.9863   -0.4183   -2.5083 H   0  0  0  0  0  0  0  0  0  0  0  0
    1.2001   -1.9580   -1.6454 H   0  0  0  0  0  0  0  0  0  0  0  0
    3.4357    0.3659    1.4721 H   0  0  0  0  0  0  0  0  0  0  0  0
    5.8173   -0.0749    1.6048 H   0  0  0  0  0  0  0  0  0  0  0  0
    9.7127   -1.9071    0.9230 H   0  0  0  0  0  0  0  0  0  0  0  0
   11.3358   -0.3025    1.9376 H   0  0  0  0  0  0  0  0  0  0  0  0
   10.8284    2.1425    1.8227 H   0  0  0  0  0  0  0  0  0  0  0  0
    7.3280    1.4906   -0.2371 H   0  0  0  0  0  0  0  0  0  0  0  0
    5.6952   -1.9254   -2.2862 H   0  0  0  0  0  0  0  0  0  0  0  0
    3.3079   -1.4662   -2.4298 H   0  0  0  0  0  0  0  0  0  0  0  0
    1.9059    1.7039    0.3351 H   0  0  0  0  0  0  0  0  0  0  0  0
    0.8752    0.5261    1.1763 H   0  0  0  0  0  0  0  0  0  0  0  0
    0.3040    1.8882   -1.5203 H   0  0  0  0  0  0  0  0  0  0  0  0
   -0.4207    2.3489    0.0063 H   0  0  0  0  0  0  0  0  0  0  0  0
   -2.8712   -0.0105   -2.4273 H   0  0  0  0  0  0  0  0  0  0  0  0
   -6.5907    1.5109    1.5891 H   0  0  0  0  0  0  0  0  0  0  0  0
   -8.9303    1.0210    1.3203 H   0  0  0  0  0  0  0  0  0  0  0  0
  1  2  1  0
  2  3  1  0
  3  4  2  0
  4  5  1  0
  5  6  2  0
  6  7  1  0
  7  8  1  0
  8  9  1  0
  8 10  2  0
 10 11  1  0
 11 12  1  0
 12 13  1  0
 13 14  1  0
 14 15  1  0
 15 16  1  0
 16 17  2  0
 17 18  1  0
 18 19  2  0
 19 20  1  0
 20 21  2  0
 20 22  1  0
 22 23  2  0
 23 24  1  0
 24 25  2  0
 25 26  1  0
 26 27  2  0
 19 28  1  0
 28 29  2  0
 15 30  1  0
 30 31  1  0
 11 32  2  0
 32 33  1  0
  6 34  1  0
 34 35  2  0
 35  3  1  0
 32  7  1  0
 31 12  1  0
 29 16  1  0
 27 22  1  0
  1 36  1  0
  1 37  1  0
  1 38  1  0
  4 39  1  0
  5 40  1  0
  9 41  1  0
 10 42  1  0
 13 43  1  0
 13 44  1  0
 14 45  1  0
 14 46  1  0
 17 47  1  0
 18 48  1  0
 23 49  1  0
 24 50  1  0
 25 51  1  0
 27 52  1  0
 28 53  1  0
 29 54  1  0
 30 55  1  0
 30 56  1  0
 31 57  1  0
 31 58  1  0
 33 59  1  0
 34 60  1  0
 35 61  1  0
M  END
$$$$
