
     RDKit          3D

 70 73  0  0  0  0  0  0  0  0999 V2000
    1.9189    2.6267   -2.1526 C   0  0  0  0  0  0  0  0  0  0  0  0
    1.0905    2.0341   -1.1609 O   0  0  0  0  0  0  0  0  0  0  0  0
   -0.1307    2.6034   -0.9133 C   0  0  0  0  0  0  0  0  0  0  0  0
   -0.4711    3.8990   -1.3409 C   0  0  0  0  0  0  0  0  0  0  0  0
   -1.7332    4.4458   -1.0798 C   0  0  0  0  0  0  0  0  0  0  0  0
   -2.1311    5.7006   -1.4698 O   0  0  0  0  0  0  0  0  0  0  0  0
   -1.1969    6.5057   -2.1767 C   0  0  0  0  0  0  0  0  0  0  0  0
   -2.6765    3.6838   -0.3774 C   0  0  0  0  0  0  0  0  0  0  0  0
   -4.0198    4.1780   -0.0790 C   0  0  0  0  0  0  0  0  0  0  0  0
   -4.8962    3.4160    0.5799 C   0  0  0  0  0  0  0  0  0  0  0  0
   -4.5619    2.0620    1.0360 C   0  0  0  0  0  0  0  0  0  0  0  0
   -5.3838    1.3717    1.6262 O   0  0  0  0  0  0  0  0  0  0  0  0
   -3.2774    1.6205    0.7622 O   0  0  0  0  0  0  0  0  0  0  0  0
   -2.3231    2.4008    0.0570 C   0  0  0  0  0  0  0  0  0  0  0  0
   -1.0527    1.8323   -0.1783 C   0  0  0  0  0  0  0  0  0  0  0  0
   -0.7468    0.4138    0.3264 C   0  0  0  0  0  0  0  0  0  0  0  0
    0.5464    0.3268    1.1818 C   0  0  0  0  0  0  0  0  0  0  0  0
    0.6121   -0.9800    1.9931 C   0  0  0  0  0  0  0  0  0  0  0  0
    1.7704   -1.0198    2.9050 N   0  0  0  0  0  0  0  0  0  0  0  0
    3.0356   -1.2423    2.2030 C   0  0  0  0  0  0  0  0  0  0  0  0
    4.2250   -1.0354    3.1482 C   0  0  0  0  0  0  0  0  0  0  0  0
    3.8999   -1.3325    4.6129 C   0  0  0  0  0  0  0  0  0  0  0  0
    2.8223   -2.4086    4.7620 C   0  0  0  0  0  0  0  0  0  0  0  0
    3.3651   -3.7933    4.3935 C   0  0  0  0  0  0  0  0  0  0  0  0
    1.5606   -2.0502    3.9427 C   0  0  0  0  0  0  0  0  0  0  0  0
   -0.8678   -0.6242   -0.7872 C   0  0  0  0  0  0  0  0  0  0  0  0
   -2.1112   -1.2062   -1.0556 C   0  0  0  0  0  0  0  0  0  0  0  0
   -2.2637   -2.1559   -2.0777 C   0  0  0  0  0  0  0  0  0  0  0  0
   -1.1951   -2.5615   -2.8932 C   0  0  0  0  0  0  0  0  0  0  0  0
   -1.3463   -3.5208   -3.9029 N   0  0  0  0  0  0  0  0  0  0  0  0
   -0.3019   -3.6451   -4.9173 C   0  0  0  0  0  0  0  0  0  0  0  0
   -2.6940   -3.8869   -4.3349 C   0  0  0  0  0  0  0  0  0  0  0  0
    0.0462   -1.9722   -2.6005 C   0  0  0  0  0  0  0  0  0  0  0  0
    0.2097   -1.0211   -1.5800 C   0  0  0  0  0  0  0  0  0  0  0  0
    2.7590    1.9489   -2.3338 H   0  0  0  0  0  0  0  0  0  0  0  0
    2.3306    3.5769   -1.7982 H   0  0  0  0  0  0  0  0  0  0  0  0
    1.3838    2.7530   -3.0997 H   0  0  0  0  0  0  0  0  0  0  0  0
    0.2615    4.4872   -1.8778 H   0  0  0  0  0  0  0  0  0  0  0  0
   -1.6811    7.4614   -2.3998 H   0  0  0  0  0  0  0  0  0  0  0  0
   -0.9196    6.0435   -3.1295 H   0  0  0  0  0  0  0  0  0  0  0  0
   -0.3142    6.7160   -1.5643 H   0  0  0  0  0  0  0  0  0  0  0  0
   -4.2937    5.1760   -0.4053 H   0  0  0  0  0  0  0  0  0  0  0  0
   -5.8966    3.7615    0.8079 H   0  0  0  0  0  0  0  0  0  0  0  0
   -1.5315    0.1551    1.0505 H   0  0  0  0  0  0  0  0  0  0  0  0
    0.5642    1.1724    1.8828 H   0  0  0  0  0  0  0  0  0  0  0  0
    1.4402    0.4222    0.5618 H   0  0  0  0  0  0  0  0  0  0  0  0
   -0.3082   -1.0384    2.5895 H   0  0  0  0  0  0  0  0  0  0  0  0
    0.6176   -1.8547    1.3314 H   0  0  0  0  0  0  0  0  0  0  0  0
    3.0646   -2.2495    1.7682 H   0  0  0  0  0  0  0  0  0  0  0  0
    3.1651   -0.5480    1.3663 H   0  0  0  0  0  0  0  0  0  0  0  0
    5.0531   -1.6734    2.8161 H   0  0  0  0  0  0  0  0  0  0  0  0
    4.5826   -0.0007    3.0768 H   0  0  0  0  0  0  0  0  0  0  0  0
    3.5366   -0.4094    5.0847 H   0  0  0  0  0  0  0  0  0  0  0  0
    4.8140   -1.6089    5.1515 H   0  0  0  0  0  0  0  0  0  0  0  0
    2.5371   -2.4522    5.8215 H   0  0  0  0  0  0  0  0  0  0  0  0
    2.6100   -4.5635    4.5846 H   0  0  0  0  0  0  0  0  0  0  0  0
    4.2450   -4.0366    4.9988 H   0  0  0  0  0  0  0  0  0  0  0  0
    3.6528   -3.8623    3.3406 H   0  0  0  0  0  0  0  0  0  0  0  0
    0.8048   -1.6647    4.6393 H   0  0  0  0  0  0  0  0  0  0  0  0
    1.1387   -2.9643    3.5040 H   0  0  0  0  0  0  0  0  0  0  0  0
   -2.9849   -0.9327   -0.4669 H   0  0  0  0  0  0  0  0  0  0  0  0
   -3.2590   -2.5686   -2.2109 H   0  0  0  0  0  0  0  0  0  0  0  0
    0.6459   -3.9682   -4.4725 H   0  0  0  0  0  0  0  0  0  0  0  0
   -0.5579   -4.4073   -5.6621 H   0  0  0  0  0  0  0  0  0  0  0  0
   -0.1552   -2.6992   -5.4511 H   0  0  0  0  0  0  0  0  0  0  0  0
   -3.2303   -3.0183   -4.7331 H   0  0  0  0  0  0  0  0  0  0  0  0
   -2.6648   -4.6476   -5.1233 H   0  0  0  0  0  0  0  0  0  0  0  0
   -3.2675   -4.3301   -3.5137 H   0  0  0  0  0  0  0  0  0  0  0  0
    0.9361   -2.2390   -3.1617 H   0  0  0  0  0  0  0  0  0  0  0  0
    1.1995   -0.6013   -1.4246 H   0  0  0  0  0  0  0  0  0  0  0  0
  1  2  1  0
  2  3  1  0
  3  4  2  0
  4  5  1  0
  5  6  1  0
  6  7  1  0
  5  8  2  0
  8  9  1  0
  9 10  2  0
 10 11  1  0
 11 12  2  0
 11 13  1  0
 13 14  1  0
 14 15  2  0
 15 16  1  0
 16 17  1  0
 17 18  1  0
 18 19  1  0
 19 20  1  0
 20 21  1  0
 21 22  1  0
 22 23  1  0
 23 24  1  0
 23 25  1  0
 16 26  1  0
 26 27  2  0
 27 28  1  0
 28 29  2  0
 29 30  1  0
 30 31  1  0
 30 32  1  0
 29 33  1  0
 33 34  2  0
 15  3  1  0
 25 19  1  0
 34 26  1  0
 14  8  1  0
  1 35  1  0
  1 36  1  0
  1 37  1  0
  4 38  1  0
  7 39  1  0
  7 40  1  0
  7 41  1  0
  9 42  1  0
 10 43  1  0
 16 44  1  0
 17 45  1  0
 17 46  1  0
 18 47  1  0
 18 48  1  0
 20 49  1  0
 20 50  1  0
 21 51  1  0
 21 52  1  0
 22 53  1  0
 22 54  1  0
 23 55  1  0
 24 56  1  0
 24 57  1  0
 24 58  1  0
 25 59  1  0
 25 60  1  0
 27 61  1  0
 28 62  1  0
 31 63  1  0
 31 64  1  0
 31 65  1  0
 32 66  1  0
 32 67  1  0
 32 68  1  0
 33 69  1  0
 34 70  1  0
M  END
$$$$
