
     RDKit          3D

 36 38  0  0  0  0  0  0  0  0999 V2000
    2.6504    2.1132    2.4236 N   0  0  0  0  0  0  0  0  0  0  0  0
    1.9561    1.4749    1.7463 C   0  0  0  0  0  0  0  0  0  0  0  0
    1.0783    0.7021    0.9151 C   0  0  0  0  0  0  0  0  0  0  0  0
   -0.1681    1.2213    0.5138 C   0  0  0  0  0  0  0  0  0  0  0  0
   -0.6426    2.5531    0.9183 C   0  0  0  0  0  0  0  0  0  0  0  0
   -0.6128    3.6269    0.0145 C   0  0  0  0  0  0  0  0  0  0  0  0
   -1.0695    4.8909    0.3938 C   0  0  0  0  0  0  0  0  0  0  0  0
   -1.5636    5.0970    1.6797 C   0  0  0  0  0  0  0  0  0  0  0  0
   -1.6025    4.0409    2.5873 C   0  0  0  0  0  0  0  0  0  0  0  0
   -1.1466    2.7761    2.2091 C   0  0  0  0  0  0  0  0  0  0  0  0
   -0.9904    0.4363   -0.3089 C   0  0  0  0  0  0  0  0  0  0  0  0
   -0.5627   -0.8221   -0.7032 C   0  0  0  0  0  0  0  0  0  0  0  0
   -1.3875   -1.6962   -1.5521 C   0  0  0  0  0  0  0  0  0  0  0  0
   -2.7608   -1.6931   -1.7422 C   0  0  0  0  0  0  0  0  0  0  0  0
   -3.2003   -2.6939   -2.6584 C   0  0  0  0  0  0  0  0  0  0  0  0
   -2.1521   -3.4369   -3.1475 C   0  0  0  0  0  0  0  0  0  0  0  0
   -0.6539   -2.9305   -2.5048 S   0  0  0  0  0  0  0  0  0  0  0  0
    0.6308   -1.3230   -0.3162 N   0  0  0  0  0  0  0  0  0  0  0  0
    1.4363   -0.5739    0.4750 C   0  0  0  0  0  0  0  0  0  0  0  0
    2.9950   -1.3332    0.9262 S   0  0  0  0  0  0  0  0  0  0  0  0
    2.8914   -2.9011   -0.0006 C   0  0  0  0  0  0  0  0  0  0  0  0
    4.1246   -3.7475    0.2065 C   0  0  0  0  0  0  0  0  0  0  0  0
    5.1052   -3.5237    0.8957 O   0  0  0  0  0  0  0  0  0  0  0  0
    4.0612   -4.9005   -0.4992 O   0  0  0  0  0  0  0  0  0  0  0  0
   -0.2246    3.4890   -0.9928 H   0  0  0  0  0  0  0  0  0  0  0  0
   -1.0340    5.7164   -0.3127 H   0  0  0  0  0  0  0  0  0  0  0  0
   -1.9134    6.0824    1.9770 H   0  0  0  0  0  0  0  0  0  0  0  0
   -1.9829    4.2027    3.5928 H   0  0  0  0  0  0  0  0  0  0  0  0
   -1.1855    1.9662    2.9351 H   0  0  0  0  0  0  0  0  0  0  0  0
   -1.9524    0.8222   -0.6351 H   0  0  0  0  0  0  0  0  0  0  0  0
   -3.4357   -1.0103   -1.2405 H   0  0  0  0  0  0  0  0  0  0  0  0
   -4.2327   -2.8609   -2.9408 H   0  0  0  0  0  0  0  0  0  0  0  0
   -2.1917   -4.2568   -3.8517 H   0  0  0  0  0  0  0  0  0  0  0  0
    2.0265   -3.4738    0.3477 H   0  0  0  0  0  0  0  0  0  0  0  0
    2.8053   -2.6840   -1.0698 H   0  0  0  0  0  0  0  0  0  0  0  0
    4.9051   -5.3503   -0.2810 H   0  0  0  0  0  0  0  0  0  0  0  0
  1  2  3  0
  2  3  1  0
  3  4  2  0
  4  5  1  0
  5  6  2  0
  6  7  1  0
  7  8  2  0
  8  9  1  0
  9 10  2  0
  4 11  1  0
 11 12  2  0
 12 13  1  0
 13 14  2  0
 14 15  1  0
 15 16  2  0
 16 17  1  0
 12 18  1  0
 18 19  2  0
 19 20  1  0
 20 21  1  0
 21 22  1  0
 22 23  2  0
 22 24  1  0
 19  3  1  0
 10  5  1  0
 17 13  1  0
  6 25  1  0
  7 26  1  0
  8 27  1  0
  9 28  1  0
 10 29  1  0
 11 30  1  0
 14 31  1  0
 15 32  1  0
 16 33  1  0
 21 34  1  0
 21 35  1  0
 24 36  1  0
M  END
$$$$
