
     RDKit          3D

 51 54  0  0  0  0  0  0  0  0999 V2000
    3.3695    3.4217    0.6093 C   0  0  0  0  0  0  0  0  0  0  0  0
    2.9129    2.3811    1.6362 C   0  0  0  0  0  0  0  0  0  0  0  0
    1.4323    2.6028    2.0018 C   0  0  0  0  0  0  0  0  0  0  0  0
    0.8546    1.2347    1.8326 C   0  0  0  0  0  0  0  0  0  0  0  0
   -0.4471    0.8526    2.1321 C   0  0  0  0  0  0  0  0  0  0  0  0
   -0.7921   -0.4854    1.9453 C   0  0  0  0  0  0  0  0  0  0  0  0
   -2.4392   -1.0370    2.3129 S   0  0  0  0  0  6  0  0  0  0  0  0
   -2.3309   -2.3142    2.9822 O   0  0  0  0  0  0  0  0  0  0  0  0
   -3.1804    0.0648    2.8864 O   0  0  0  0  0  0  0  0  0  0  0  0
   -3.0497   -1.3378    0.7971 N   0  0  0  0  0  0  0  0  0  0  0  0
   -3.3654   -0.2461   -0.1059 C   0  0  0  0  0  0  0  0  0  0  0  0
   -4.6377   -0.5191   -0.8644 C   0  0  0  0  0  0  0  0  0  0  0  0
   -4.6078   -0.9296   -2.2030 C   0  0  0  0  0  0  0  0  0  0  0  0
   -5.7965   -1.1896   -2.8870 C   0  0  0  0  0  0  0  0  0  0  0  0
   -7.0230   -1.0478   -2.2390 C   0  0  0  0  0  0  0  0  0  0  0  0
   -7.0641   -0.6501   -0.9036 C   0  0  0  0  0  0  0  0  0  0  0  0
   -5.8776   -0.3903   -0.2184 C   0  0  0  0  0  0  0  0  0  0  0  0
    0.1571   -1.4176    1.4992 C   0  0  0  0  0  0  0  0  0  0  0  0
    1.4639   -1.0067    1.2030 C   0  0  0  0  0  0  0  0  0  0  0  0
    1.8000    0.3309    1.3393 C   0  0  0  0  0  0  0  0  0  0  0  0
    3.0269    0.9912    1.1308 N   0  0  0  0  0  0  0  0  0  0  0  0
    4.2599    0.4821    0.7324 C   0  0  0  0  0  0  0  0  0  0  0  0
    5.3040    1.0783    1.0476 O   0  0  0  0  0  0  0  0  0  0  0  0
    4.3121   -0.7641   -0.1838 C   0  0  0  0  0  0  0  0  0  0  0  0
    5.5421   -0.8516   -1.1467 C   0  0  0  0  0  0  0  0  0  0  0  0
    4.6129   -1.5014   -2.1823 C   0  0  0  0  0  0  0  0  0  0  0  0
    3.4493   -0.7773   -1.4847 C   0  0  0  0  0  0  0  0  0  0  0  0
    2.8603    3.2819   -0.3520 H   0  0  0  0  0  0  0  0  0  0  0  0
    4.4476    3.3561    0.4254 H   0  0  0  0  0  0  0  0  0  0  0  0
    3.1598    4.4361    0.9663 H   0  0  0  0  0  0  0  0  0  0  0  0
    3.5403    2.4605    2.5329 H   0  0  0  0  0  0  0  0  0  0  0  0
    1.3330    2.9541    3.0343 H   0  0  0  0  0  0  0  0  0  0  0  0
    0.9319    3.3083    1.3285 H   0  0  0  0  0  0  0  0  0  0  0  0
   -1.1638    1.5748    2.5143 H   0  0  0  0  0  0  0  0  0  0  0  0
   -3.3970   -2.2751    0.6115 H   0  0  0  0  0  0  0  0  0  0  0  0
   -3.4673    0.7106    0.4182 H   0  0  0  0  0  0  0  0  0  0  0  0
   -2.5329   -0.1208   -0.8088 H   0  0  0  0  0  0  0  0  0  0  0  0
   -3.6608   -1.0503   -2.7227 H   0  0  0  0  0  0  0  0  0  0  0  0
   -5.7675   -1.5024   -3.9275 H   0  0  0  0  0  0  0  0  0  0  0  0
   -7.9474   -1.2500   -2.7739 H   0  0  0  0  0  0  0  0  0  0  0  0
   -8.0193   -0.5432   -0.3965 H   0  0  0  0  0  0  0  0  0  0  0  0
   -5.9191   -0.0893    0.8273 H   0  0  0  0  0  0  0  0  0  0  0  0
   -0.1149   -2.4679    1.3935 H   0  0  0  0  0  0  0  0  0  0  0  0
    2.1731   -1.7625    0.9007 H   0  0  0  0  0  0  0  0  0  0  0  0
    4.2418   -1.6914    0.4011 H   0  0  0  0  0  0  0  0  0  0  0  0
    6.3697   -1.4755   -0.8001 H   0  0  0  0  0  0  0  0  0  0  0  0
    5.9374    0.1205   -1.4691 H   0  0  0  0  0  0  0  0  0  0  0  0
    4.5624   -2.5929   -2.1044 H   0  0  0  0  0  0  0  0  0  0  0  0
    4.7913   -1.2241   -3.2247 H   0  0  0  0  0  0  0  0  0  0  0  0
    2.5195   -1.3485   -1.4517 H   0  0  0  0  0  0  0  0  0  0  0  0
    3.2360    0.2166   -1.8943 H   0  0  0  0  0  0  0  0  0  0  0  0
  1  2  1  0
  2  3  1  0
  3  4  1  0
  4  5  2  0
  5  6  1  0
  6  7  1  0
  7  8  2  0
  7  9  2  0
  7 10  1  0
 10 11  1  0
 11 12  1  0
 12 13  2  0
 13 14  1  0
 14 15  2  0
 15 16  1  0
 16 17  2  0
  6 18  2  0
 18 19  1  0
 19 20  2  0
 20 21  1  0
 21 22  1  0
 22 23  2  0
 22 24  1  0
 24 25  1  0
 25 26  1  0
 26 27  1  0
 21  2  1  0
 27 24  1  0
 20  4  1  0
 17 12  1  0
  1 28  1  0
  1 29  1  0
  1 30  1  0
  2 31  1  0
  3 32  1  0
  3 33  1  0
  5 34  1  0
 10 35  1  0
 11 36  1  0
 11 37  1  0
 13 38  1  0
 14 39  1  0
 15 40  1  0
 16 41  1  0
 17 42  1  0
 18 43  1  0
 19 44  1  0
 24 45  1  0
 25 46  1  0
 25 47  1  0
 26 48  1  0
 26 49  1  0
 27 50  1  0
 27 51  1  0
M  END
$$$$
