
     RDKit          3D

 45 47  0  0  0  0  0  0  0  0999 V2000
    0.2488    1.8279   -0.7468 O   0  0  0  0  0  0  0  0  0  0  0  0
    0.9842    0.9810   -0.2672 C   0  0  0  0  0  0  0  0  0  0  0  0
    2.3127    0.7996   -0.5648 N   0  0  0  0  0  0  0  0  0  0  0  0
    3.0136    1.7672   -1.3697 C   0  0  0  0  0  0  0  0  0  0  0  0
    4.3336    1.2065   -1.7383 C   0  0  0  0  0  0  0  0  0  0  0  0
    4.8939    0.8026   -2.9325 C   0  0  0  0  0  0  0  0  0  0  0  0
    6.1991    0.3472   -2.6274 C   0  0  0  0  0  0  0  0  0  0  0  0
    6.3513    0.4991   -1.2694 C   0  0  0  0  0  0  0  0  0  0  0  0
    5.2237    1.0179   -0.7194 O   0  0  0  0  0  0  0  0  0  0  0  0
    0.4682    0.0149    0.8020 C   0  0  0  0  0  0  0  0  0  0  0  0
   -0.5738   -0.9780    0.3814 C   0  0  0  0  0  0  0  0  0  0  0  0
   -1.0561   -1.0932   -0.8663 C   0  0  0  0  0  0  0  0  0  0  0  0
   -2.0871   -2.1138   -1.2652 C   0  0  0  0  0  0  0  0  0  0  0  0
   -3.3690   -1.4755   -1.7409 C   0  0  0  0  0  0  0  0  0  0  0  0
   -4.3699   -1.1229   -0.8243 C   0  0  0  0  0  0  0  0  0  0  0  0
   -5.5492   -0.5182   -1.2619 C   0  0  0  0  0  0  0  0  0  0  0  0
   -5.7374   -0.2540   -2.6171 C   0  0  0  0  0  0  0  0  0  0  0  0
   -4.7459   -0.5922   -3.5362 C   0  0  0  0  0  0  0  0  0  0  0  0
   -3.5658   -1.1976   -3.1011 C   0  0  0  0  0  0  0  0  0  0  0  0
    1.0172    0.1718    1.9666 N   0  0  0  0  0  0  0  0  0  0  0  0
    0.6590   -0.6698    2.9867 C   0  0  0  0  0  0  0  0  0  0  0  0
    0.7077   -1.8918    2.9143 O   0  0  0  0  0  0  0  0  0  0  0  0
    0.2498    0.0758    4.1604 C   0  0  0  0  0  0  0  0  0  0  0  0
    0.1730    1.4326    4.4315 C   0  0  0  0  0  0  0  0  0  0  0  0
   -0.3069    1.5617    5.7578 C   0  0  0  0  0  0  0  0  0  0  0  0
   -0.4973    0.2813    6.2212 C   0  0  0  0  0  0  0  0  0  0  0  0
   -1.1361   -0.1764    7.9533 Br  0  0  0  0  0  0  0  0  0  0  0  0
   -0.1653   -0.6236    5.2644 O   0  0  0  0  0  0  0  0  0  0  0  0
    2.8609    0.2530    0.0913 H   0  0  0  0  0  0  0  0  0  0  0  0
    3.1295    2.6843   -0.7825 H   0  0  0  0  0  0  0  0  0  0  0  0
    2.4165    2.0022   -2.2574 H   0  0  0  0  0  0  0  0  0  0  0  0
    4.4170    0.8317   -3.9027 H   0  0  0  0  0  0  0  0  0  0  0  0
    6.9390   -0.0450   -3.3112 H   0  0  0  0  0  0  0  0  0  0  0  0
    7.1578    0.2958   -0.5781 H   0  0  0  0  0  0  0  0  0  0  0  0
   -0.9443   -1.6468    1.1514 H   0  0  0  0  0  0  0  0  0  0  0  0
   -0.7160   -0.4413   -1.6680 H   0  0  0  0  0  0  0  0  0  0  0  0
   -2.3116   -2.7992   -0.4378 H   0  0  0  0  0  0  0  0  0  0  0  0
   -1.6711   -2.7426   -2.0624 H   0  0  0  0  0  0  0  0  0  0  0  0
   -4.2350   -1.3168    0.2374 H   0  0  0  0  0  0  0  0  0  0  0  0
   -6.3199   -0.2496   -0.5444 H   0  0  0  0  0  0  0  0  0  0  0  0
   -6.6547    0.2197   -2.9564 H   0  0  0  0  0  0  0  0  0  0  0  0
   -4.8902   -0.3806   -4.5925 H   0  0  0  0  0  0  0  0  0  0  0  0
   -2.7993   -1.4491   -3.8301 H   0  0  0  0  0  0  0  0  0  0  0  0
    0.4355    2.2285    3.7469 H   0  0  0  0  0  0  0  0  0  0  0  0
   -0.4906    2.4757    6.3053 H   0  0  0  0  0  0  0  0  0  0  0  0
  1  2  2  0
  2  3  1  0
  3  4  1  0
  4  5  1  0
  5  6  2  0
  6  7  1  0
  7  8  2  0
  8  9  1  0
  2 10  1  0
 10 11  1  0
 11 12  2  3
 12 13  1  0
 13 14  1  0
 14 15  2  0
 15 16  1  0
 16 17  2  0
 17 18  1  0
 18 19  2  0
 10 20  2  3
 20 21  1  0
 21 22  2  0
 21 23  1  0
 23 24  2  0
 24 25  1  0
 25 26  2  0
 26 27  1  0
 26 28  1  0
  9  5  1  0
 19 14  1  0
 28 23  1  0
  3 29  1  0
  4 30  1  0
  4 31  1  0
  6 32  1  0
  7 33  1  0
  8 34  1  0
 11 35  1  0
 12 36  1  0
 13 37  1  0
 13 38  1  0
 15 39  1  0
 16 40  1  0
 17 41  1  0
 18 42  1  0
 19 43  1  0
 24 44  1  0
 25 45  1  0
M  END
$$$$
