
     RDKit          3D

 36 38  0  0  0  0  0  0  0  0999 V2000
   -0.8083    0.1028   -3.2481 C   0  0  0  0  0  0  0  0  0  0  0  0
   -0.8682    1.0979   -2.0967 C   0  0  0  0  0  0  0  0  0  0  0  0
   -1.3752    0.4791   -0.8663 N   0  0  0  0  0  0  0  0  0  0  0  0
   -0.5566   -0.0650    0.1108 C   0  0  0  0  0  0  0  0  0  0  0  0
    0.9086   -0.0481   -0.1341 C   0  0  0  0  0  0  0  0  0  0  0  0
    1.7343    0.2613    0.8757 C   0  0  0  0  0  0  0  0  0  0  0  0
    3.1421    0.2739    0.6855 C   0  0  0  0  0  0  0  0  0  0  0  0
    4.1429    0.5076    1.6270 C   0  0  0  0  0  0  0  0  0  0  0  0
    5.3983    0.4190    0.9740 C   0  0  0  0  0  0  0  0  0  0  0  0
    5.0970    0.1387   -0.3330 C   0  0  0  0  0  0  0  0  0  0  0  0
    5.9239   -0.0646   -1.4794 N   0  0  0  0  0  4  0  0  0  0  0  0
    7.1462    0.0085   -1.2924 O   0  0  0  0  0  0  0  0  0  0  0  0
    5.3681   -0.2925   -2.5616 O   0  0  0  0  0  1  0  0  0  0  0  0
    3.7586    0.0482   -0.5297 O   0  0  0  0  0  0  0  0  0  0  0  0
   -0.9998   -0.5940    1.2098 N   0  0  0  0  0  0  0  0  0  0  0  0
   -2.3786   -0.6321    1.4330 C   0  0  0  0  0  0  0  0  0  0  0  0
   -2.8555   -1.1946    2.6197 C   0  0  0  0  0  0  0  0  0  0  0  0
   -4.2278   -1.2570    2.8780 C   0  0  0  0  0  0  0  0  0  0  0  0
   -5.1369   -0.7560    1.9470 C   0  0  0  0  0  0  0  0  0  0  0  0
   -4.6723   -0.1931    0.7591 C   0  0  0  0  0  0  0  0  0  0  0  0
   -3.2948   -0.1361    0.5124 C   0  0  0  0  0  0  0  0  0  0  0  0
   -2.7653    0.4528   -0.7275 C   0  0  0  0  0  0  0  0  0  0  0  0
   -3.5508    0.8863   -1.5683 O   0  0  0  0  0  0  0  0  0  0  0  0
   -0.1617   -0.7470   -3.0091 H   0  0  0  0  0  0  0  0  0  0  0  0
   -1.8023   -0.2933   -3.4798 H   0  0  0  0  0  0  0  0  0  0  0  0
   -0.4176    0.5879   -4.1478 H   0  0  0  0  0  0  0  0  0  0  0  0
    0.1217    1.5315   -1.9252 H   0  0  0  0  0  0  0  0  0  0  0  0
   -1.5222    1.9319   -2.3780 H   0  0  0  0  0  0  0  0  0  0  0  0
    1.2692   -0.3224   -1.1174 H   0  0  0  0  0  0  0  0  0  0  0  0
    1.3409    0.5025    1.8601 H   0  0  0  0  0  0  0  0  0  0  0  0
    3.9739    0.7165    2.6759 H   0  0  0  0  0  0  0  0  0  0  0  0
    6.3846    0.5431    1.3997 H   0  0  0  0  0  0  0  0  0  0  0  0
   -2.1491   -1.5890    3.3458 H   0  0  0  0  0  0  0  0  0  0  0  0
   -4.5847   -1.6985    3.8053 H   0  0  0  0  0  0  0  0  0  0  0  0
   -6.2048   -0.8045    2.1456 H   0  0  0  0  0  0  0  0  0  0  0  0
   -5.3778    0.1985    0.0299 H   0  0  0  0  0  0  0  0  0  0  0  0
  1  2  1  0
  2  3  1  0
  3  4  1  0
  4  5  1  0
  5  6  2  3
  6  7  1  0
  7  8  2  0
  8  9  1  0
  9 10  2  0
 10 11  1  0
 11 12  2  0
 11 13  1  0
 10 14  1  0
  4 15  2  0
 15 16  1  0
 16 17  2  0
 17 18  1  0
 18 19  2  0
 19 20  1  0
 20 21  2  0
 21 22  1  0
 22 23  2  0
 22  3  1  0
 14  7  1  0
 21 16  1  0
  1 24  1  0
  1 25  1  0
  1 26  1  0
  2 27  1  0
  2 28  1  0
  5 29  1  0
  6 30  1  0
  8 31  1  0
  9 32  1  0
 17 33  1  0
 18 34  1  0
 19 35  1  0
 20 36  1  0
M  CHG  2  11   1  13  -1
M  END
$$$$
