
     RDKit          3D

 50 53  0  0  0  0  0  0  0  0999 V2000
   -0.5176   -1.8884   -4.6318 C   0  0  0  0  0  0  0  0  0  0  0  0
   -0.1786   -0.8729   -3.6865 O   0  0  0  0  0  0  0  0  0  0  0  0
   -0.4554   -1.2099   -2.3999 C   0  0  0  0  0  0  0  0  0  0  0  0
   -0.9682   -2.2531   -2.0294 O   0  0  0  0  0  0  0  0  0  0  0  0
   -0.0597   -0.0872   -1.5140 C   0  0  0  0  0  0  0  0  0  0  0  0
   -0.8040    0.3204   -0.4539 C   0  0  0  0  0  0  0  0  0  0  0  0
   -2.1155   -0.2418   -0.0902 C   0  0  0  0  0  0  0  0  0  0  0  0
   -2.2868   -0.9102    1.1283 C   0  0  0  0  0  0  0  0  0  0  0  0
   -3.5312   -1.4370    1.4798 C   0  0  0  0  0  0  0  0  0  0  0  0
   -4.6171   -1.2993    0.6152 C   0  0  0  0  0  0  0  0  0  0  0  0
   -4.4591   -0.6334   -0.6040 C   0  0  0  0  0  0  0  0  0  0  0  0
   -5.5725   -0.4902   -1.4953 C   0  0  0  0  0  0  0  0  0  0  0  0
   -6.4748   -0.3620   -2.2140 N   0  0  0  0  0  0  0  0  0  0  0  0
   -3.2118   -0.1016   -0.9524 C   0  0  0  0  0  0  0  0  0  0  0  0
   -0.2866    1.4323    0.4590 C   0  0  0  0  0  0  0  0  0  0  0  0
    1.0145    2.0762   -0.0828 C   0  0  0  0  0  0  0  0  0  0  0  0
    0.7486    2.8979   -1.3589 C   0  0  0  0  0  0  0  0  0  0  0  0
    1.0201    1.9253   -2.5235 C   0  0  0  0  0  0  0  0  0  0  0  0
    1.2729    0.5766   -1.8407 C   0  0  0  0  0  0  0  0  0  0  0  0
    1.8656    1.0011   -0.5788 N   0  0  0  0  0  0  0  0  0  0  0  0
    2.6434    0.1298    0.1446 C   0  0  0  0  0  0  0  0  0  0  0  0
    3.0169   -0.9453   -0.3124 O   0  0  0  0  0  0  0  0  0  0  0  0
    2.9480    0.5476    1.4090 N   0  0  0  0  0  0  0  0  0  0  0  0
    3.7412   -0.2510    2.3150 C   0  0  0  0  0  0  0  0  0  0  0  0
    2.9747   -0.6586    3.5408 C   0  0  0  0  0  0  0  0  0  0  0  0
    1.8113    0.1253    4.1042 C   0  0  0  0  0  0  0  0  0  0  0  0
    1.5711   -1.2067    3.4428 C   0  0  0  0  0  0  0  0  0  0  0  0
    0.0971   -2.7801   -4.4677 H   0  0  0  0  0  0  0  0  0  0  0  0
   -1.5830   -2.1341   -4.5716 H   0  0  0  0  0  0  0  0  0  0  0  0
   -0.3071   -1.5022   -5.6332 H   0  0  0  0  0  0  0  0  0  0  0  0
   -1.4459   -1.0463    1.8052 H   0  0  0  0  0  0  0  0  0  0  0  0
   -3.6491   -1.9643    2.4235 H   0  0  0  0  0  0  0  0  0  0  0  0
   -5.5812   -1.7200    0.8952 H   0  0  0  0  0  0  0  0  0  0  0  0
   -3.0949    0.4185   -1.9017 H   0  0  0  0  0  0  0  0  0  0  0  0
   -1.0523    2.2060    0.5934 H   0  0  0  0  0  0  0  0  0  0  0  0
   -0.0774    1.0035    1.4469 H   0  0  0  0  0  0  0  0  0  0  0  0
    1.4961    2.6808    0.6901 H   0  0  0  0  0  0  0  0  0  0  0  0
   -0.2637    3.3147   -1.3933 H   0  0  0  0  0  0  0  0  0  0  0  0
    1.4516    3.7372   -1.4235 H   0  0  0  0  0  0  0  0  0  0  0  0
    0.1988    1.9088   -3.2474 H   0  0  0  0  0  0  0  0  0  0  0  0
    1.9233    2.2490   -3.0560 H   0  0  0  0  0  0  0  0  0  0  0  0
    1.9498   -0.0762   -2.4011 H   0  0  0  0  0  0  0  0  0  0  0  0
    2.8984    1.5350    1.6004 H   0  0  0  0  0  0  0  0  0  0  0  0
    4.6006    0.3646    2.6121 H   0  0  0  0  0  0  0  0  0  0  0  0
    4.1298   -1.1459    1.8133 H   0  0  0  0  0  0  0  0  0  0  0  0
    3.6360   -1.1471    4.2506 H   0  0  0  0  0  0  0  0  0  0  0  0
    1.7132    0.1770    5.1834 H   0  0  0  0  0  0  0  0  0  0  0  0
    1.4650    1.0135    3.5907 H   0  0  0  0  0  0  0  0  0  0  0  0
    1.0897   -1.2227    2.4711 H   0  0  0  0  0  0  0  0  0  0  0  0
    1.3160   -2.0536    4.0706 H   0  0  0  0  0  0  0  0  0  0  0  0
  1  2  1  0
  2  3  1  0
  3  4  2  0
  3  5  1  0
  5  6  2  0
  6  7  1  0
  7  8  2  0
  8  9  1  0
  9 10  2  0
 10 11  1  0
 11 12  1  0
 12 13  3  0
 11 14  2  0
  6 15  1  0
 15 16  1  0
 16 17  1  0
 17 18  1  0
 18 19  1  0
 19 20  1  0
 20 21  1  0
 21 22  2  0
 21 23  1  0
 23 24  1  0
 24 25  1  0
 25 26  1  0
 26 27  1  0
 19  5  1  0
 27 25  1  0
 14  7  1  0
 20 16  1  0
  1 28  1  0
  1 29  1  0
  1 30  1  0
  8 31  1  0
  9 32  1  0
 10 33  1  0
 14 34  1  0
 15 35  1  0
 15 36  1  0
 16 37  1  0
 17 38  1  0
 17 39  1  0
 18 40  1  0
 18 41  1  0
 19 42  1  0
 23 43  1  0
 24 44  1  0
 24 45  1  0
 25 46  1  0
 26 47  1  0
 26 48  1  0
 27 49  1  0
 27 50  1  0
M  END
$$$$
