
     RDKit          3D

 47 50  0  0  0  0  0  0  0  0999 V2000
    2.6125    4.5956   -4.5891 C   0  0  0  0  0  0  0  0  0  0  0  0
    1.5579    4.4022   -3.5380 C   0  0  0  0  0  0  0  0  0  0  0  0
    0.8194    5.4962   -3.0744 C   0  0  0  0  0  0  0  0  0  0  0  0
   -0.1913    5.3453   -2.1190 C   0  0  0  0  0  0  0  0  0  0  0  0
   -0.4498    4.0551   -1.6462 C   0  0  0  0  0  0  0  0  0  0  0  0
   -1.3746    3.6196   -0.7192 N   0  0  0  0  0  0  0  0  0  0  0  0
   -1.2715    2.2664   -0.5733 C   0  0  0  0  0  0  0  0  0  0  0  0
   -2.0379    1.4076    0.2793 C   0  0  0  0  0  0  0  0  0  0  0  0
   -2.9166    1.8274    1.0239 O   0  0  0  0  0  0  0  0  0  0  0  0
   -1.6667    0.0539    0.1621 N   0  0  0  0  0  0  0  0  0  0  0  0
   -2.3629   -0.9393    0.9782 C   0  0  0  0  0  0  0  0  0  0  0  0
   -1.6576   -1.2005    2.3097 C   0  0  0  0  0  0  0  0  0  0  0  0
   -2.2248   -1.7602    3.2458 O   0  0  0  0  0  0  0  0  0  0  0  0
   -0.3191   -0.8642    2.3296 N   0  0  0  0  0  0  0  0  0  0  0  0
    0.5701   -1.2578    3.4033 C   0  0  0  0  0  0  0  0  0  0  0  0
    1.4979   -2.4114    3.0020 C   0  0  0  0  0  0  0  0  0  0  0  0
    0.7773   -3.6805    2.6103 C   0  0  0  0  0  0  0  0  0  0  0  0
    0.7594   -4.1029    1.2729 C   0  0  0  0  0  0  0  0  0  0  0  0
    0.0810   -5.2676    0.9070 C   0  0  0  0  0  0  0  0  0  0  0  0
   -0.5842   -6.0146    1.8762 C   0  0  0  0  0  0  0  0  0  0  0  0
   -1.4216   -7.4482    1.4236 Cl  0  0  0  0  0  0  0  0  0  0  0  0
   -0.5767   -5.6074    3.2077 C   0  0  0  0  0  0  0  0  0  0  0  0
    0.1030   -4.4435    3.5740 C   0  0  0  0  0  0  0  0  0  0  0  0
   -0.6249   -0.4227   -0.6637 N   0  0  0  0  0  0  0  0  0  0  0  0
    0.0241    0.4136   -1.4247 C   0  0  0  0  0  0  0  0  0  0  0  0
   -0.2784    1.8159   -1.4056 C   0  0  0  0  0  0  0  0  0  0  0  0
    0.2566    2.9334   -2.0951 C   0  0  0  0  0  0  0  0  0  0  0  0
    1.2698    3.1128   -3.0588 C   0  0  0  0  0  0  0  0  0  0  0  0
    2.1663    4.5162   -5.5852 H   0  0  0  0  0  0  0  0  0  0  0  0
    3.0872    5.5775   -4.4901 H   0  0  0  0  0  0  0  0  0  0  0  0
    3.4021    3.8429   -4.4937 H   0  0  0  0  0  0  0  0  0  0  0  0
    1.0279    6.4934   -3.4590 H   0  0  0  0  0  0  0  0  0  0  0  0
   -0.7529    6.2043   -1.7654 H   0  0  0  0  0  0  0  0  0  0  0  0
   -2.0329    4.2064   -0.2222 H   0  0  0  0  0  0  0  0  0  0  0  0
   -2.4143   -1.8799    0.4198 H   0  0  0  0  0  0  0  0  0  0  0  0
   -3.3800   -0.5947    1.1907 H   0  0  0  0  0  0  0  0  0  0  0  0
    0.0716   -0.5571    1.4426 H   0  0  0  0  0  0  0  0  0  0  0  0
    1.1755   -0.3780    3.6461 H   0  0  0  0  0  0  0  0  0  0  0  0
   -0.0113   -1.5180    4.2942 H   0  0  0  0  0  0  0  0  0  0  0  0
    2.1379   -2.0846    2.1722 H   0  0  0  0  0  0  0  0  0  0  0  0
    2.1762   -2.6381    3.8342 H   0  0  0  0  0  0  0  0  0  0  0  0
    1.2665   -3.5240    0.5044 H   0  0  0  0  0  0  0  0  0  0  0  0
    0.0720   -5.5829   -0.1325 H   0  0  0  0  0  0  0  0  0  0  0  0
   -1.1035   -6.1829    3.9638 H   0  0  0  0  0  0  0  0  0  0  0  0
    0.0877   -4.1279    4.6151 H   0  0  0  0  0  0  0  0  0  0  0  0
    0.8268    0.0463   -2.0834 H   0  0  0  0  0  0  0  0  0  0  0  0
    1.8268    2.2568   -3.4301 H   0  0  0  0  0  0  0  0  0  0  0  0
  1  2  1  0
  2  3  2  0
  3  4  1  0
  4  5  2  0
  5  6  1  0
  6  7  1  0
  7  8  1  0
  8  9  2  0
  8 10  1  0
 10 11  1  0
 11 12  1  0
 12 13  2  0
 12 14  1  0
 14 15  1  0
 15 16  1  0
 16 17  1  0
 17 18  2  0
 18 19  1  0
 19 20  2  0
 20 21  1  0
 20 22  1  0
 22 23  2  0
 10 24  1  0
 24 25  2  0
 25 26  1  0
 26 27  1  0
 27 28  2  0
 28  2  1  0
 27  5  1  0
 26  7  2  0
 23 17  1  0
  1 29  1  0
  1 30  1  0
  1 31  1  0
  3 32  1  0
  4 33  1  0
  6 34  1  0
 11 35  1  0
 11 36  1  0
 14 37  1  0
 15 38  1  0
 15 39  1  0
 16 40  1  0
 16 41  1  0
 18 42  1  0
 19 43  1  0
 22 44  1  0
 23 45  1  0
 25 46  1  0
 28 47  1  0
M  END
$$$$
