
     RDKit          3D

 34 35  0  0  0  0  0  0  0  0999 V2000
   -2.9917   -0.5105    1.3336 C   0  0  0  0  0  0  0  0  0  0  0  0
   -2.6983    0.4463    0.3108 O   0  0  0  0  0  0  0  0  0  0  0  0
   -3.0273   -0.0622   -0.9193 C   0  0  0  0  0  0  0  0  0  0  0  0
   -4.3056    0.2200   -1.4091 C   0  0  0  0  0  0  0  0  0  0  0  0
   -4.7002   -0.2763   -2.6524 C   0  0  0  0  0  0  0  0  0  0  0  0
   -3.8141   -1.0462   -3.4054 C   0  0  0  0  0  0  0  0  0  0  0  0
   -4.3102   -1.6641   -4.9321 Cl  0  0  0  0  0  0  0  0  0  0  0  0
   -2.5296   -1.3126   -2.9352 C   0  0  0  0  0  0  0  0  0  0  0  0
   -2.1212   -0.8009   -1.6951 C   0  0  0  0  0  0  0  0  0  0  0  0
   -0.7393   -1.1024   -1.2601 C   0  0  0  0  0  0  0  0  0  0  0  0
   -0.1866   -2.1599   -1.5248 O   0  0  0  0  0  0  0  0  0  0  0  0
   -0.2408   -0.0207   -0.6006 O   0  0  0  0  0  0  0  0  0  0  0  0
    1.0777   -0.2654   -0.1766 N   0  0  0  0  0  0  0  0  0  0  0  0
    1.5181    0.7176    0.5526 C   0  0  0  0  0  0  0  0  0  0  0  0
    0.7547    1.8224    0.8625 N   0  0  0  0  0  0  0  0  0  0  0  0
    2.9150    0.6233    1.0887 C   0  0  0  0  0  0  0  0  0  0  0  0
    3.5668   -0.6175    1.1219 C   0  0  0  0  0  0  0  0  0  0  0  0
    4.8671   -0.7175    1.6248 C   0  0  0  0  0  0  0  0  0  0  0  0
    5.5185    0.4232    2.0897 C   0  0  0  0  0  0  0  0  0  0  0  0
    7.1186    0.3018    2.7095 Cl  0  0  0  0  0  0  0  0  0  0  0  0
    4.8838    1.6642    2.0518 C   0  0  0  0  0  0  0  0  0  0  0  0
    3.5826    1.7663    1.5496 C   0  0  0  0  0  0  0  0  0  0  0  0
   -2.6999   -0.0731    2.2931 H   0  0  0  0  0  0  0  0  0  0  0  0
   -4.0643   -0.7296    1.3710 H   0  0  0  0  0  0  0  0  0  0  0  0
   -2.4185   -1.4333    1.1934 H   0  0  0  0  0  0  0  0  0  0  0  0
   -4.9958    0.8201   -0.8212 H   0  0  0  0  0  0  0  0  0  0  0  0
   -5.6981   -0.0615   -3.0272 H   0  0  0  0  0  0  0  0  0  0  0  0
   -1.8412   -1.9083   -3.5320 H   0  0  0  0  0  0  0  0  0  0  0  0
    0.8644    2.1762    1.8058 H   0  0  0  0  0  0  0  0  0  0  0  0
   -0.2248    1.6779    0.6283 H   0  0  0  0  0  0  0  0  0  0  0  0
    3.0666   -1.5126    0.7560 H   0  0  0  0  0  0  0  0  0  0  0  0
    5.3622   -1.6848    1.6456 H   0  0  0  0  0  0  0  0  0  0  0  0
    5.3982    2.5553    2.4024 H   0  0  0  0  0  0  0  0  0  0  0  0
    3.1132    2.7449    1.5000 H   0  0  0  0  0  0  0  0  0  0  0  0
  1  2  1  0
  2  3  1  0
  3  4  2  0
  4  5  1  0
  5  6  2  0
  6  7  1  0
  6  8  1  0
  8  9  2  0
  9 10  1  0
 10 11  2  0
 10 12  1  0
 12 13  1  0
 13 14  2  3
 14 15  1  0
 14 16  1  0
 16 17  2  0
 17 18  1  0
 18 19  2  0
 19 20  1  0
 19 21  1  0
 21 22  2  0
  9  3  1  0
 22 16  1  0
  1 23  1  0
  1 24  1  0
  1 25  1  0
  4 26  1  0
  5 27  1  0
  8 28  1  0
 15 29  1  0
 15 30  1  0
 17 31  1  0
 18 32  1  0
 21 33  1  0
 22 34  1  0
M  END
$$$$
