
     RDKit          3D

 56 61  0  0  0  0  0  0  0  0999 V2000
    0.1150    2.8387    2.2955 C   0  0  0  0  0  0  0  0  0  0  0  0
    0.8469    1.8078    1.5205 C   0  0  0  0  0  0  0  0  0  0  0  0
    2.1192    2.0193    1.1708 N   0  0  0  0  0  0  0  0  0  0  0  0
    2.5042    0.9026    0.4761 N   0  0  0  0  0  0  0  0  0  0  0  0
    3.8287    0.8274   -0.0592 C   0  0  0  0  0  0  0  0  0  0  0  0
    4.7118    1.9033    0.1534 C   0  0  0  0  0  0  0  0  0  0  0  0
    6.0142    1.8732   -0.3560 C   0  0  0  0  0  0  0  0  0  0  0  0
    6.4420    0.7605   -1.0877 C   0  0  0  0  0  0  0  0  0  0  0  0
    7.8052    0.7250   -1.6304 N   0  0  0  0  0  4  0  0  0  0  0  0
    8.1278   -0.2524   -2.3218 O   0  0  0  0  0  0  0  0  0  0  0  0
    8.5550    1.6768   -1.3675 O   0  0  0  0  0  1  0  0  0  0  0  0
    5.5766   -0.3171   -1.3081 C   0  0  0  0  0  0  0  0  0  0  0  0
    4.2737   -0.2814   -0.7937 C   0  0  0  0  0  0  0  0  0  0  0  0
    1.4613   -0.0175    0.4191 C   0  0  0  0  0  0  0  0  0  0  0  0
    0.3895    0.5633    1.0561 C   0  0  0  0  0  0  0  0  0  0  0  0
   -0.8948   -0.1824    1.1550 C   0  0  0  0  0  0  0  0  0  0  0  0
   -1.8717    0.6319    0.3041 C   0  0  0  0  0  0  0  0  0  0  0  0
   -2.8553    1.4207    0.9234 C   0  0  0  0  0  0  0  0  0  0  0  0
   -3.7509    2.1737    0.1595 C   0  0  0  0  0  0  0  0  0  0  0  0
   -3.6828    2.1662   -1.2350 C   0  0  0  0  0  0  0  0  0  0  0  0
   -4.6153    2.9479   -1.8556 O   0  0  0  0  0  0  0  0  0  0  0  0
   -4.4027    3.2143   -3.2315 C   0  0  0  0  0  0  0  0  0  0  0  0
   -5.3073    4.1548   -3.6042 F   0  0  0  0  0  0  0  0  0  0  0  0
   -4.6847    2.0997   -3.9501 F   0  0  0  0  0  0  0  0  0  0  0  0
   -2.7202    1.3788   -1.8640 C   0  0  0  0  0  0  0  0  0  0  0  0
   -1.8216    0.6231   -1.1018 C   0  0  0  0  0  0  0  0  0  0  0  0
   -0.7850   -1.5799    0.6811 N   0  0  0  0  0  0  0  0  0  0  0  0
    0.3946   -1.9656    0.0149 C   0  0  0  0  0  0  0  0  0  0  0  0
    1.4819   -1.2513   -0.1438 N   0  0  0  0  0  0  0  0  0  0  0  0
    0.4649   -3.3769   -0.6170 C   0  0  0  0  0  0  0  0  0  0  0  0
    1.4235   -3.7431   -1.2823 O   0  0  0  0  0  0  0  0  0  0  0  0
   -0.6115   -4.1898   -0.3844 N   0  0  0  0  0  0  0  0  0  0  0  0
   -1.7344   -3.8051    0.3530 C   0  0  0  0  0  0  0  0  0  0  0  0
   -2.7495   -4.7537    0.5268 C   0  0  0  0  0  0  0  0  0  0  0  0
   -3.8889   -4.4269    1.2533 C   0  0  0  0  0  0  0  0  0  0  0  0
   -4.0083   -3.1575    1.8043 C   0  0  0  0  0  0  0  0  0  0  0  0
   -2.9910   -2.2111    1.6268 C   0  0  0  0  0  0  0  0  0  0  0  0
   -1.8296   -2.5032    0.8913 C   0  0  0  0  0  0  0  0  0  0  0  0
   -0.5489    2.3739    3.0312 H   0  0  0  0  0  0  0  0  0  0  0  0
    0.8046    3.4937    2.8388 H   0  0  0  0  0  0  0  0  0  0  0  0
   -0.4880    3.4597    1.6258 H   0  0  0  0  0  0  0  0  0  0  0  0
    4.3971    2.7808    0.7171 H   0  0  0  0  0  0  0  0  0  0  0  0
    6.6719    2.7208   -0.1746 H   0  0  0  0  0  0  0  0  0  0  0  0
    5.8933   -1.1922   -1.8725 H   0  0  0  0  0  0  0  0  0  0  0  0
    3.6381   -1.1400   -0.9918 H   0  0  0  0  0  0  0  0  0  0  0  0
   -1.1954   -0.1768    2.2108 H   0  0  0  0  0  0  0  0  0  0  0  0
   -2.9370    1.4586    2.0077 H   0  0  0  0  0  0  0  0  0  0  0  0
   -4.5078    2.7766    0.6578 H   0  0  0  0  0  0  0  0  0  0  0  0
   -3.3959    3.5832   -3.4568 H   0  0  0  0  0  0  0  0  0  0  0  0
   -2.6454    1.3088   -2.9456 H   0  0  0  0  0  0  0  0  0  0  0  0
   -1.0770    0.0221   -1.6223 H   0  0  0  0  0  0  0  0  0  0  0  0
   -0.5511   -5.1154   -0.7863 H   0  0  0  0  0  0  0  0  0  0  0  0
   -2.6621   -5.7498    0.1007 H   0  0  0  0  0  0  0  0  0  0  0  0
   -4.6802   -5.1597    1.3898 H   0  0  0  0  0  0  0  0  0  0  0  0
   -4.8971   -2.8960    2.3746 H   0  0  0  0  0  0  0  0  0  0  0  0
   -3.1495   -1.2425    2.0878 H   0  0  0  0  0  0  0  0  0  0  0  0
  1  2  1  0
  2  3  2  0
  3  4  1  0
  4  5  1  0
  5  6  2  0
  6  7  1  0
  7  8  2  0
  8  9  1  0
  9 10  2  0
  9 11  1  0
  8 12  1  0
 12 13  2  0
  4 14  1  0
 14 15  2  0
 15 16  1  0
 16 17  1  0
 17 18  2  0
 18 19  1  0
 19 20  2  0
 20 21  1  0
 21 22  1  0
 22 23  1  0
 22 24  1  0
 20 25  1  0
 25 26  2  0
 16 27  1  0
 27 28  1  0
 28 29  2  0
 28 30  1  0
 30 31  2  0
 30 32  1  0
 32 33  1  0
 33 34  2  0
 34 35  1  0
 35 36  2  0
 36 37  1  0
 37 38  2  0
 15  2  1  0
 26 17  1  0
 38 27  1  0
 13  5  1  0
 29 14  1  0
 38 33  1  0
  1 39  1  0
  1 40  1  0
  1 41  1  0
  6 42  1  0
  7 43  1  0
 12 44  1  0
 13 45  1  0
 16 46  1  0
 18 47  1  0
 19 48  1  0
 22 49  1  0
 25 50  1  0
 26 51  1  0
 32 52  1  0
 34 53  1  0
 35 54  1  0
 36 55  1  0
 37 56  1  0
M  CHG  2   9   1  11  -1
M  END
$$$$
