
     RDKit          3D

 69 71  0  0  0  0  0  0  0  0999 V2000
   -5.6277    1.1517    4.8510 C   0  0  0  0  0  0  0  0  0  0  0  0
   -5.4756    0.1303    3.7348 C   0  0  0  0  0  0  0  0  0  0  0  0
   -5.3324    0.8124    2.3740 C   0  0  0  0  0  0  0  0  0  0  0  0
   -5.1262   -0.1614    1.2992 N   0  0  0  0  0  0  0  0  0  0  0  0
   -6.3217   -0.7288    0.6713 C   0  0  0  0  0  0  0  0  0  0  0  0
   -6.7984    0.1193   -0.5084 C   0  0  0  0  0  0  0  0  0  0  0  0
   -7.9870   -0.5203   -1.2047 C   0  0  0  0  0  0  0  0  0  0  0  0
   -3.8797   -0.5339    0.7891 C   0  0  0  0  0  0  0  0  0  0  0  0
   -3.7803   -1.3191   -0.1587 O   0  0  0  0  0  0  0  0  0  0  0  0
   -2.6381    0.0726    1.4614 C   0  0  0  0  0  0  0  0  0  0  0  0
   -1.4040   -0.4722    0.8939 N   0  0  0  0  0  0  0  0  0  0  0  0
   -0.8802    0.1731   -0.2332 C   0  0  0  0  0  0  0  0  0  0  0  0
   -1.3803    1.2195   -0.6577 O   0  0  0  0  0  0  0  0  0  0  0  0
    0.2438   -0.4010   -0.8407 N   0  0  0  0  0  0  0  0  0  0  0  0
    0.7911    0.2671   -2.0170 C   0  0  0  0  0  0  0  0  0  0  0  0
    1.8686    1.2856   -1.6329 C   0  0  0  0  0  0  0  0  0  0  0  0
    2.4990    1.9906   -2.8371 C   0  0  0  0  0  0  0  0  0  0  0  0
    3.1746    1.0820   -3.8735 C   0  0  0  0  0  0  0  0  0  0  0  0
    4.1801    0.0805   -3.3037 C   0  0  0  0  0  0  0  0  0  0  0  0
    5.3752    0.7392   -2.6305 C   0  0  0  0  0  0  0  0  0  0  0  0
    5.7454    1.8654   -2.9425 O   0  0  0  0  0  0  0  0  0  0  0  0
    5.9682   -0.0971   -1.7003 N   0  0  0  0  0  0  0  0  0  0  0  0
    7.1098    0.1646   -0.9134 C   0  0  0  0  0  0  0  0  0  0  0  0
    7.8720    1.3306   -1.0068 C   0  0  0  0  0  0  0  0  0  0  0  0
    8.9927    1.5150   -0.1900 C   0  0  0  0  0  0  0  0  0  0  0  0
    9.3616    0.5342    0.7278 C   0  0  0  0  0  0  0  0  0  0  0  0
    8.6106   -0.6332    0.8281 C   0  0  0  0  0  0  0  0  0  0  0  0
    7.4903   -0.8175    0.0117 C   0  0  0  0  0  0  0  0  0  0  0  0
    0.9500   -1.5065   -0.3484 C   0  0  0  0  0  0  0  0  0  0  0  0
    2.0155   -1.8857   -0.8378 O   0  0  0  0  0  0  0  0  0  0  0  0
    0.3188   -2.1271    0.7821 C   0  0  0  0  0  0  0  0  0  0  0  0
    0.9067   -3.5413    1.5162 S   0  0  0  0  0  0  0  0  0  0  0  0
   -0.3902   -3.5520    2.6348 C   0  0  0  0  0  0  0  0  0  0  0  0
   -1.2429   -2.4817    2.4449 C   0  0  0  0  0  0  0  0  0  0  0  0
   -0.8187   -1.6449    1.3725 C   0  0  0  0  0  0  0  0  0  0  0  0
   -4.7553    1.8101    4.8971 H   0  0  0  0  0  0  0  0  0  0  0  0
   -5.7290    0.6537    5.8187 H   0  0  0  0  0  0  0  0  0  0  0  0
   -6.5159    1.7729    4.6953 H   0  0  0  0  0  0  0  0  0  0  0  0
   -6.3470   -0.5341    3.7325 H   0  0  0  0  0  0  0  0  0  0  0  0
   -4.6005   -0.4980    3.9370 H   0  0  0  0  0  0  0  0  0  0  0  0
   -4.4966    1.5179    2.4021 H   0  0  0  0  0  0  0  0  0  0  0  0
   -6.2276    1.4000    2.1415 H   0  0  0  0  0  0  0  0  0  0  0  0
   -7.1097   -0.8168    1.4287 H   0  0  0  0  0  0  0  0  0  0  0  0
   -6.0979   -1.7459    0.3280 H   0  0  0  0  0  0  0  0  0  0  0  0
   -7.0756    1.1213   -0.1618 H   0  0  0  0  0  0  0  0  0  0  0  0
   -5.9846    0.2502   -1.2316 H   0  0  0  0  0  0  0  0  0  0  0  0
   -7.7139   -1.4938   -1.6261 H   0  0  0  0  0  0  0  0  0  0  0  0
   -8.8216   -0.6698   -0.5095 H   0  0  0  0  0  0  0  0  0  0  0  0
   -8.3341    0.1174   -2.0234 H   0  0  0  0  0  0  0  0  0  0  0  0
   -2.6556    1.1557    1.3119 H   0  0  0  0  0  0  0  0  0  0  0  0
   -2.6582   -0.1221    2.5370 H   0  0  0  0  0  0  0  0  0  0  0  0
   -0.0128    0.7672   -2.5681 H   0  0  0  0  0  0  0  0  0  0  0  0
    1.2011   -0.4953   -2.6865 H   0  0  0  0  0  0  0  0  0  0  0  0
    2.6517    0.8065   -1.0342 H   0  0  0  0  0  0  0  0  0  0  0  0
    1.4230    2.0471   -0.9797 H   0  0  0  0  0  0  0  0  0  0  0  0
    1.7280    2.5817   -3.3457 H   0  0  0  0  0  0  0  0  0  0  0  0
    3.2324    2.7141   -2.4630 H   0  0  0  0  0  0  0  0  0  0  0  0
    3.6744    1.7199   -4.6122 H   0  0  0  0  0  0  0  0  0  0  0  0
    2.4045    0.5308   -4.4245 H   0  0  0  0  0  0  0  0  0  0  0  0
    3.6832   -0.6037   -2.6096 H   0  0  0  0  0  0  0  0  0  0  0  0
    4.5758   -0.5270   -4.1255 H   0  0  0  0  0  0  0  0  0  0  0  0
    5.5132   -0.9880   -1.5351 H   0  0  0  0  0  0  0  0  0  0  0  0
    7.6257    2.1189   -1.7124 H   0  0  0  0  0  0  0  0  0  0  0  0
    9.5758    2.4275   -0.2732 H   0  0  0  0  0  0  0  0  0  0  0  0
   10.2346    0.6804    1.3600 H   0  0  0  0  0  0  0  0  0  0  0  0
    8.8958   -1.4006    1.5433 H   0  0  0  0  0  0  0  0  0  0  0  0
    6.9188   -1.7369    0.1146 H   0  0  0  0  0  0  0  0  0  0  0  0
   -0.4686   -4.3410    3.3714 H   0  0  0  0  0  0  0  0  0  0  0  0
   -2.1239   -2.3302    3.0555 H   0  0  0  0  0  0  0  0  0  0  0  0
  1  2  1  0
  2  3  1  0
  3  4  1  0
  4  5  1  0
  5  6  1  0
  6  7  1  0
  4  8  1  0
  8  9  2  0
  8 10  1  0
 10 11  1  0
 11 12  1  0
 12 13  2  0
 12 14  1  0
 14 15  1  0
 15 16  1  0
 16 17  1  0
 17 18  1  0
 18 19  1  0
 19 20  1  0
 20 21  2  0
 20 22  1  0
 22 23  1  0
 23 24  2  0
 24 25  1  0
 25 26  2  0
 26 27  1  0
 27 28  2  0
 14 29  1  0
 29 30  2  0
 29 31  1  0
 31 32  1  0
 32 33  1  0
 33 34  2  0
 34 35  1  0
 35 11  1  0
 28 23  1  0
 35 31  2  0
  1 36  1  0
  1 37  1  0
  1 38  1  0
  2 39  1  0
  2 40  1  0
  3 41  1  0
  3 42  1  0
  5 43  1  0
  5 44  1  0
  6 45  1  0
  6 46  1  0
  7 47  1  0
  7 48  1  0
  7 49  1  0
 10 50  1  0
 10 51  1  0
 15 52  1  0
 15 53  1  0
 16 54  1  0
 16 55  1  0
 17 56  1  0
 17 57  1  0
 18 58  1  0
 18 59  1  0
 19 60  1  0
 19 61  1  0
 22 62  1  0
 24 63  1  0
 25 64  1  0
 26 65  1  0
 27 66  1  0
 28 67  1  0
 33 68  1  0
 34 69  1  0
M  END
$$$$
