
     RDKit          3D

 46 49  0  0  0  0  0  0  0  0999 V2000
   -3.7218   -5.8316   -1.3716 N   0  0  0  0  0  0  0  0  0  0  0  0
   -4.1233   -4.6036   -0.9935 C   0  0  0  0  0  0  0  0  0  0  0  0
   -5.3899   -4.1904   -0.9999 N   0  0  0  0  0  0  0  0  0  0  0  0
   -5.3583   -2.8822   -0.5309 O   0  0  0  0  0  0  0  0  0  0  0  0
   -4.0556   -2.4814   -0.2359 N   0  0  0  0  0  0  0  0  0  0  0  0
   -3.3136   -3.5504   -0.5267 C   0  0  0  0  0  0  0  0  0  0  0  0
   -1.9032   -3.5268   -0.3864 N   0  0  0  0  0  0  0  0  0  0  0  0
   -1.1377   -4.5802   -0.7866 N   0  0  0  0  0  0  0  0  0  0  0  0
    0.1390   -4.2682   -0.6492 N   0  0  0  0  0  0  0  0  0  0  0  0
    0.2222   -3.0011   -0.1439 C   0  0  0  0  0  0  0  0  0  0  0  0
    1.5086   -2.3454    0.0962 C   0  0  0  0  0  0  0  0  0  0  0  0
    2.5081   -2.9822    0.4156 O   0  0  0  0  0  0  0  0  0  0  0  0
    1.4762   -0.9670   -0.0880 N   0  0  0  0  0  0  0  0  0  0  0  0
    2.5834   -0.2073    0.1546 N   0  0  0  0  0  0  0  0  0  0  0  0
    2.4470    1.0615   -0.0765 C   0  0  0  0  0  0  0  0  0  0  0  0
    3.5579    2.0137    0.1440 C   0  0  0  0  0  0  0  0  0  0  0  0
    4.7938    1.5216    0.5908 C   0  0  0  0  0  0  0  0  0  0  0  0
    5.8630    2.3920    0.8098 C   0  0  0  0  0  0  0  0  0  0  0  0
    5.7065    3.7576    0.5850 C   0  0  0  0  0  0  0  0  0  0  0  0
    4.4802    4.2547    0.1406 C   0  0  0  0  0  0  0  0  0  0  0  0
    3.4038    3.3877   -0.0815 C   0  0  0  0  0  0  0  0  0  0  0  0
    1.9237    4.0917   -0.6306 Cl  0  0  0  0  0  0  0  0  0  0  0  0
   -1.0625   -2.5329    0.1078 C   0  0  0  0  0  0  0  0  0  0  0  0
   -1.5016   -1.2806    0.7692 C   0  0  0  0  0  0  0  0  0  0  0  0
   -1.3837   -0.2727   -0.2322 O   0  0  0  0  0  0  0  0  0  0  0  0
   -1.6869    1.0105    0.1317 C   0  0  0  0  0  0  0  0  0  0  0  0
   -2.0046    1.4462    1.4205 C   0  0  0  0  0  0  0  0  0  0  0  0
   -2.2693    2.7993    1.6538 C   0  0  0  0  0  0  0  0  0  0  0  0
   -2.2154    3.7063    0.6022 C   0  0  0  0  0  0  0  0  0  0  0  0
   -2.4687    5.0006    0.8329 F   0  0  0  0  0  0  0  0  0  0  0  0
   -1.9030    3.2867   -0.6833 C   0  0  0  0  0  0  0  0  0  0  0  0
   -1.6385    1.9367   -0.9170 C   0  0  0  0  0  0  0  0  0  0  0  0
   -2.7369   -6.0371   -1.5382 H   0  0  0  0  0  0  0  0  0  0  0  0
   -4.3656   -6.4278   -1.8811 H   0  0  0  0  0  0  0  0  0  0  0  0
    0.6413   -0.5201   -0.4578 H   0  0  0  0  0  0  0  0  0  0  0  0
    1.4896    1.4648   -0.4449 H   0  0  0  0  0  0  0  0  0  0  0  0
    4.9327    0.4561    0.7704 H   0  0  0  0  0  0  0  0  0  0  0  0
    6.8173    2.0006    1.1556 H   0  0  0  0  0  0  0  0  0  0  0  0
    6.5396    4.4357    0.7556 H   0  0  0  0  0  0  0  0  0  0  0  0
    4.3708    5.3232   -0.0311 H   0  0  0  0  0  0  0  0  0  0  0  0
   -2.5130   -1.3294    1.1775 H   0  0  0  0  0  0  0  0  0  0  0  0
   -0.8177   -1.0662    1.6008 H   0  0  0  0  0  0  0  0  0  0  0  0
   -2.0542    0.7691    2.2669 H   0  0  0  0  0  0  0  0  0  0  0  0
   -2.5171    3.1520    2.6505 H   0  0  0  0  0  0  0  0  0  0  0  0
   -1.8657    4.0094   -1.4922 H   0  0  0  0  0  0  0  0  0  0  0  0
   -1.3966    1.6069   -1.9248 H   0  0  0  0  0  0  0  0  0  0  0  0
  1  2  1  0
  2  3  2  0
  3  4  1  0
  4  5  1  0
  5  6  2  0
  6  7  1  0
  7  8  1  0
  8  9  2  0
  9 10  1  0
 10 11  1  0
 11 12  2  0
 11 13  1  0
 13 14  1  0
 14 15  2  3
 15 16  1  0
 16 17  2  0
 17 18  1  0
 18 19  2  0
 19 20  1  0
 20 21  2  0
 21 22  1  0
 10 23  2  0
 23 24  1  0
 24 25  1  0
 25 26  1  0
 26 27  2  0
 27 28  1  0
 28 29  2  0
 29 30  1  0
 29 31  1  0
 31 32  2  0
  6  2  1  0
 23  7  1  0
 32 26  1  0
 21 16  1  0
  1 33  1  0
  1 34  1  0
 13 35  1  0
 15 36  1  0
 17 37  1  0
 18 38  1  0
 19 39  1  0
 20 40  1  0
 24 41  1  0
 24 42  1  0
 27 43  1  0
 28 44  1  0
 31 45  1  0
 32 46  1  0
M  END
$$$$
