
     RDKit          3D

 53 55  0  0  0  0  0  0  0  0999 V2000
    8.4092   -3.5928    0.9640 C   0  0  0  0  0  0  0  0  0  0  0  0
    7.8804   -2.4212    0.3560 O   0  0  0  0  0  0  0  0  0  0  0  0
    6.5320   -2.3999    0.1249 C   0  0  0  0  0  0  0  0  0  0  0  0
    5.6339   -3.4230    0.4191 C   0  0  0  0  0  0  0  0  0  0  0  0
    4.2740   -3.2684    0.1277 C   0  0  0  0  0  0  0  0  0  0  0  0
    3.7908   -2.0906   -0.4625 C   0  0  0  0  0  0  0  0  0  0  0  0
    2.4271   -1.9238   -0.7618 C   0  0  0  0  0  0  0  0  0  0  0  0
    1.9428   -0.7423   -1.3475 C   0  0  0  0  0  0  0  0  0  0  0  0
    0.4710   -0.5639   -1.6901 C   0  0  0  0  0  0  0  0  0  0  0  0
   -0.0130   -1.6166   -2.6911 C   0  0  0  0  0  0  0  0  0  0  0  0
   -0.4620   -0.5528   -0.4652 C   0  0  0  0  0  0  0  0  0  0  0  0
   -0.1997   -1.1517    0.5727 O   0  0  0  0  0  0  0  0  0  0  0  0
   -1.6273    0.1704   -0.7024 N   0  0  0  0  0  0  0  0  0  0  0  0
   -2.7190    0.3556    0.1722 C   0  0  0  0  0  0  0  0  0  0  0  0
   -2.8127   -0.2159    1.4441 C   0  0  0  0  0  0  0  0  0  0  0  0
   -3.9433   -0.0066    2.2432 C   0  0  0  0  0  0  0  0  0  0  0  0
   -4.9895    0.7882    1.7845 C   0  0  0  0  0  0  0  0  0  0  0  0
   -4.8864    1.3869    0.5286 C   0  0  0  0  0  0  0  0  0  0  0  0
   -6.2246    2.3894   -0.0829 S   0  0  0  0  0  6  0  0  0  0  0  0
   -7.4387    1.9263    0.5543 O   0  0  0  0  0  0  0  0  0  0  0  0
   -6.1058    2.4265   -1.5261 O   0  0  0  0  0  0  0  0  0  0  0  0
   -5.8555    3.9371    0.5189 N   0  0  0  0  0  0  0  0  0  0  0  0
   -4.6792    4.6139   -0.0518 C   0  0  0  0  0  0  0  0  0  0  0  0
   -5.9958    4.1427    1.9707 C   0  0  0  0  0  0  0  0  0  0  0  0
   -3.7698    1.1582   -0.2855 C   0  0  0  0  0  0  0  0  0  0  0  0
    2.8554    0.2826   -1.6310 C   0  0  0  0  0  0  0  0  0  0  0  0
    4.2141    0.1293   -1.3418 C   0  0  0  0  0  0  0  0  0  0  0  0
    4.6962   -1.0515   -0.7590 C   0  0  0  0  0  0  0  0  0  0  0  0
    6.0587   -1.2222   -0.4612 C   0  0  0  0  0  0  0  0  0  0  0  0
    7.9816   -3.7485    1.9600 H   0  0  0  0  0  0  0  0  0  0  0  0
    9.4874   -3.4496    1.0838 H   0  0  0  0  0  0  0  0  0  0  0  0
    8.2589   -4.4705    0.3267 H   0  0  0  0  0  0  0  0  0  0  0  0
    5.9532   -4.3535    0.8756 H   0  0  0  0  0  0  0  0  0  0  0  0
    3.5897   -4.0791    0.3692 H   0  0  0  0  0  0  0  0  0  0  0  0
    1.7289   -2.7234   -0.5173 H   0  0  0  0  0  0  0  0  0  0  0  0
    0.3678    0.4155   -2.1783 H   0  0  0  0  0  0  0  0  0  0  0  0
   -0.0160   -2.6210   -2.2532 H   0  0  0  0  0  0  0  0  0  0  0  0
    0.6258   -1.6378   -3.5809 H   0  0  0  0  0  0  0  0  0  0  0  0
   -1.0373   -1.4053   -3.0174 H   0  0  0  0  0  0  0  0  0  0  0  0
   -1.7096    0.6150   -1.6084 H   0  0  0  0  0  0  0  0  0  0  0  0
   -2.0265   -0.8490    1.8450 H   0  0  0  0  0  0  0  0  0  0  0  0
   -4.0036   -0.4782    3.2218 H   0  0  0  0  0  0  0  0  0  0  0  0
   -5.8734    0.9303    2.4021 H   0  0  0  0  0  0  0  0  0  0  0  0
   -4.6649    4.5318   -1.1420 H   0  0  0  0  0  0  0  0  0  0  0  0
   -4.7187    5.6824    0.1846 H   0  0  0  0  0  0  0  0  0  0  0  0
   -3.7519    4.2034    0.3574 H   0  0  0  0  0  0  0  0  0  0  0  0
   -5.1406    3.7283    2.5117 H   0  0  0  0  0  0  0  0  0  0  0  0
   -6.9189    3.6953    2.3486 H   0  0  0  0  0  0  0  0  0  0  0  0
   -6.0536    5.2151    2.1846 H   0  0  0  0  0  0  0  0  0  0  0  0
   -3.7311    1.6072   -1.2752 H   0  0  0  0  0  0  0  0  0  0  0  0
    2.5228    1.2138   -2.0840 H   0  0  0  0  0  0  0  0  0  0  0  0
    4.8974    0.9431   -1.5749 H   0  0  0  0  0  0  0  0  0  0  0  0
    6.7690   -0.4290   -0.6844 H   0  0  0  0  0  0  0  0  0  0  0  0
  1  2  1  0
  2  3  1  0
  3  4  2  0
  4  5  1  0
  5  6  2  0
  6  7  1  0
  7  8  2  0
  8  9  1  0
  9 10  1  0
  9 11  1  0
 11 12  2  0
 11 13  1  0
 13 14  1  0
 14 15  2  0
 15 16  1  0
 16 17  2  0
 17 18  1  0
 18 19  1  0
 19 20  2  0
 19 21  2  0
 19 22  1  0
 22 23  1  0
 22 24  1  0
 18 25  2  0
  8 26  1  0
 26 27  2  0
 27 28  1  0
 28 29  2  0
 29  3  1  0
 28  6  1  0
 25 14  1  0
  1 30  1  0
  1 31  1  0
  1 32  1  0
  4 33  1  0
  5 34  1  0
  7 35  1  0
  9 36  1  0
 10 37  1  0
 10 38  1  0
 10 39  1  0
 13 40  1  0
 15 41  1  0
 16 42  1  0
 17 43  1  0
 23 44  1  0
 23 45  1  0
 23 46  1  0
 24 47  1  0
 24 48  1  0
 24 49  1  0
 25 50  1  0
 26 51  1  0
 27 52  1  0
 29 53  1  0
M  END
$$$$
