
     RDKit          3D

 39 40  0  0  0  0  0  0  0  0999 V2000
   -1.4463    0.6626   -2.2177 C   0  0  0  0  0  0  0  0  0  0  0  0
   -2.3351   -0.4416   -1.6659 C   0  0  0  0  0  0  0  0  0  0  0  0
   -2.4965   -0.3328   -0.2151 N   0  0  0  0  0  0  0  0  0  0  0  0
   -3.6412    0.4484    0.2622 C   0  0  0  0  0  0  0  0  0  0  0  0
   -4.8894   -0.4111    0.3897 C   0  0  0  0  0  0  0  0  0  0  0  0
   -1.5367   -0.9231    0.5972 C   0  0  0  0  0  0  0  0  0  0  0  0
   -0.5900   -1.5665    0.1235 O   0  0  0  0  0  0  0  0  0  0  0  0
   -1.6426   -0.7755    2.1082 C   0  0  0  0  0  0  0  0  0  0  0  0
   -0.9701    0.7843    2.7457 S   0  0  0  0  0  0  0  0  0  0  0  0
    0.3135    1.1685    1.6527 C   0  0  0  0  0  0  0  0  0  0  0  0
    0.4298    2.3055    1.0059 N   0  0  0  0  0  0  0  0  0  0  0  0
    1.5509    2.2194    0.2113 N   0  0  0  0  0  0  0  0  0  0  0  0
    2.0862    1.0198    0.3692 C   0  0  0  0  0  0  0  0  0  0  0  0
    3.2504    0.5111   -0.3479 C   0  0  0  0  0  0  0  0  0  0  0  0
    4.3874    1.3114   -0.4731 C   0  0  0  0  0  0  0  0  0  0  0  0
    5.4768    0.8080   -1.1625 C   0  0  0  0  0  0  0  0  0  0  0  0
    5.5023   -0.4158   -1.7315 N   0  0  0  0  0  0  0  0  0  0  0  0
    4.3826   -1.1609   -1.6258 C   0  0  0  0  0  0  0  0  0  0  0  0
    3.2442   -0.7474   -0.9543 C   0  0  0  0  0  0  0  0  0  0  0  0
    1.3683    0.3461    1.3410 N   0  0  0  0  0  0  0  0  0  0  0  0
    1.6492   -0.9592    1.8911 N   0  0  0  0  0  0  0  0  0  0  0  0
   -1.3509    0.5666   -3.3035 H   0  0  0  0  0  0  0  0  0  0  0  0
   -1.8609    1.6512   -1.9959 H   0  0  0  0  0  0  0  0  0  0  0  0
   -0.4430    0.6170   -1.7822 H   0  0  0  0  0  0  0  0  0  0  0  0
   -3.3221   -0.4093   -2.1399 H   0  0  0  0  0  0  0  0  0  0  0  0
   -1.8942   -1.4145   -1.9108 H   0  0  0  0  0  0  0  0  0  0  0  0
   -3.4204    0.9012    1.2299 H   0  0  0  0  0  0  0  0  0  0  0  0
   -3.8185    1.2732   -0.4370 H   0  0  0  0  0  0  0  0  0  0  0  0
   -5.1741   -0.8412   -0.5758 H   0  0  0  0  0  0  0  0  0  0  0  0
   -5.7281    0.1892    0.7555 H   0  0  0  0  0  0  0  0  0  0  0  0
   -4.7300   -1.2391    1.0877 H   0  0  0  0  0  0  0  0  0  0  0  0
   -2.6809   -0.8875    2.4318 H   0  0  0  0  0  0  0  0  0  0  0  0
   -1.0968   -1.6066    2.5684 H   0  0  0  0  0  0  0  0  0  0  0  0
    4.4248    2.3082   -0.0442 H   0  0  0  0  0  0  0  0  0  0  0  0
    6.3837    1.3943   -1.2809 H   0  0  0  0  0  0  0  0  0  0  0  0
    4.4232   -2.1292   -2.1169 H   0  0  0  0  0  0  0  0  0  0  0  0
    2.3690   -1.3891   -0.9341 H   0  0  0  0  0  0  0  0  0  0  0  0
    2.6441   -1.1715    1.8509 H   0  0  0  0  0  0  0  0  0  0  0  0
    1.1813   -1.6646    1.3139 H   0  0  0  0  0  0  0  0  0  0  0  0
  1  2  1  0
  2  3  1  0
  3  4  1  0
  4  5  1  0
  3  6  1  0
  6  7  2  0
  6  8  1  0
  8  9  1  0
  9 10  1  0
 10 11  2  0
 11 12  1  0
 12 13  2  0
 13 14  1  0
 14 15  2  0
 15 16  1  0
 16 17  2  0
 17 18  1  0
 18 19  2  0
 13 20  1  0
 20 21  1  0
 20 10  1  0
 19 14  1  0
  1 22  1  0
  1 23  1  0
  1 24  1  0
  2 25  1  0
  2 26  1  0
  4 27  1  0
  4 28  1  0
  5 29  1  0
  5 30  1  0
  5 31  1  0
  8 32  1  0
  8 33  1  0
 15 34  1  0
 16 35  1  0
 18 36  1  0
 19 37  1  0
 21 38  1  0
 21 39  1  0
M  END
$$$$
