
     RDKit          3D

 57 61  0  0  0  0  0  0  0  0999 V2000
    6.9588    0.1770    2.8543 C   0  0  0  0  0  0  0  0  0  0  0  0
    6.8274    0.9528    1.6705 O   0  0  0  0  0  0  0  0  0  0  0  0
    6.0396    0.4316    0.6800 C   0  0  0  0  0  0  0  0  0  0  0  0
    5.8153    1.2851   -0.4033 C   0  0  0  0  0  0  0  0  0  0  0  0
    5.0205    0.8812   -1.4800 C   0  0  0  0  0  0  0  0  0  0  0  0
    4.4480   -0.3965   -1.4945 C   0  0  0  0  0  0  0  0  0  0  0  0
    3.5645   -0.8380   -2.6341 C   0  0  0  0  0  0  0  0  0  0  0  0
    2.1710   -0.6827   -2.2993 N   0  0  0  0  0  0  0  0  0  0  0  0
    1.4283   -1.6809   -1.7334 C   0  0  0  0  0  0  0  0  0  0  0  0
    1.8332   -2.8364   -1.6232 O   0  0  0  0  0  0  0  0  0  0  0  0
    0.0693   -1.2735   -1.2567 C   0  0  0  0  0  0  0  0  0  0  0  0
   -0.6810   -2.1996   -0.6343 C   0  0  0  0  0  0  0  0  0  0  0  0
   -2.0165   -1.9287   -0.1295 C   0  0  0  0  0  0  0  0  0  0  0  0
   -2.7588   -2.9989    0.5984 C   0  0  0  0  0  0  0  0  0  0  0  0
   -2.2324   -4.0980    0.7847 O   0  0  0  0  0  0  0  0  0  0  0  0
   -4.0330   -2.6688    1.0270 N   0  0  0  0  0  0  0  0  0  0  0  0
   -4.7929   -3.6139    1.7084 C   0  0  0  0  0  0  0  0  0  0  0  0
   -6.0313   -3.3447    2.1398 C   0  0  0  0  0  0  0  0  0  0  0  0
   -6.6043   -2.0465    1.9057 C   0  0  0  0  0  0  0  0  0  0  0  0
   -5.9079   -1.1065    1.2557 C   0  0  0  0  0  0  0  0  0  0  0  0
   -4.5313   -1.4060    0.7680 C   0  0  0  0  0  0  0  0  0  0  0  0
   -3.8852   -0.4808    0.1337 N   0  0  0  0  0  0  0  0  0  0  0  0
   -2.6122   -0.7304   -0.3268 C   0  0  0  0  0  0  0  0  0  0  0  0
   -1.8948    0.2868   -1.0133 N   0  0  0  0  0  0  0  0  0  0  0  0
   -2.6252    1.5007   -1.4173 C   0  0  0  0  0  0  0  0  0  0  0  0
   -2.4088    2.6936   -0.5166 C   0  0  0  0  0  0  0  0  0  0  0  0
   -2.7410    3.9771   -0.9753 C   0  0  0  0  0  0  0  0  0  0  0  0
   -2.5849    5.0820   -0.1416 C   0  0  0  0  0  0  0  0  0  0  0  0
   -2.1017    4.8704    1.1379 C   0  0  0  0  0  0  0  0  0  0  0  0
   -1.7803    3.6521    1.6233 N   0  0  0  0  0  0  0  0  0  0  0  0
   -1.9468    2.5942    0.7925 C   0  0  0  0  0  0  0  0  0  0  0  0
   -0.5583    0.0915   -1.4012 C   0  0  0  0  0  0  0  0  0  0  0  0
    0.2021    1.0384   -1.8798 N   0  0  0  0  0  0  0  0  0  0  0  0
    4.6791   -1.2512   -0.4069 C   0  0  0  0  0  0  0  0  0  0  0  0
    5.4696   -0.8415    0.6721 C   0  0  0  0  0  0  0  0  0  0  0  0
    7.4701   -0.7696    2.6520 H   0  0  0  0  0  0  0  0  0  0  0  0
    5.9846    0.0095    3.3260 H   0  0  0  0  0  0  0  0  0  0  0  0
    7.5762    0.7446    3.5570 H   0  0  0  0  0  0  0  0  0  0  0  0
    6.2556    2.2796   -0.4030 H   0  0  0  0  0  0  0  0  0  0  0  0
    4.8492    1.5731   -2.3019 H   0  0  0  0  0  0  0  0  0  0  0  0
    3.7814   -1.8797   -2.8980 H   0  0  0  0  0  0  0  0  0  0  0  0
    3.7556   -0.2300   -3.5256 H   0  0  0  0  0  0  0  0  0  0  0  0
    1.7758    0.2589   -2.2597 H   0  0  0  0  0  0  0  0  0  0  0  0
   -0.2970   -3.2087   -0.4872 H   0  0  0  0  0  0  0  0  0  0  0  0
   -4.3386   -4.5876    1.8767 H   0  0  0  0  0  0  0  0  0  0  0  0
   -6.6177   -4.0894    2.6682 H   0  0  0  0  0  0  0  0  0  0  0  0
   -7.6081   -1.8495    2.2686 H   0  0  0  0  0  0  0  0  0  0  0  0
   -6.3022   -0.1167    1.0608 H   0  0  0  0  0  0  0  0  0  0  0  0
   -2.3272    1.7655   -2.4420 H   0  0  0  0  0  0  0  0  0  0  0  0
   -3.7057    1.3169   -1.4854 H   0  0  0  0  0  0  0  0  0  0  0  0
   -3.1304    4.1237   -1.9810 H   0  0  0  0  0  0  0  0  0  0  0  0
   -2.8395    6.0816   -0.4794 H   0  0  0  0  0  0  0  0  0  0  0  0
   -1.9607    5.6978    1.8280 H   0  0  0  0  0  0  0  0  0  0  0  0
   -1.6834    1.6373    1.2377 H   0  0  0  0  0  0  0  0  0  0  0  0
   -0.2828    1.9382   -1.8784 H   0  0  0  0  0  0  0  0  0  0  0  0
    4.2315   -2.2450   -0.3923 H   0  0  0  0  0  0  0  0  0  0  0  0
    5.6155   -1.5416    1.4874 H   0  0  0  0  0  0  0  0  0  0  0  0
  1  2  1  0
  2  3  1  0
  3  4  2  0
  4  5  1  0
  5  6  2  0
  6  7  1  0
  7  8  1  0
  8  9  1  0
  9 10  2  0
  9 11  1  0
 11 12  2  0
 12 13  1  0
 13 14  1  0
 14 15  2  0
 14 16  1  0
 16 17  1  0
 17 18  2  0
 18 19  1  0
 19 20  2  0
 20 21  1  0
 21 22  2  0
 22 23  1  0
 23 24  1  0
 24 25  1  0
 25 26  1  0
 26 27  2  0
 27 28  1  0
 28 29  2  0
 29 30  1  0
 30 31  2  0
 24 32  1  0
 32 33  2  3
  6 34  1  0
 34 35  2  0
 35  3  1  0
 32 11  1  0
 23 13  2  0
 31 26  1  0
 21 16  1  0
  1 36  1  0
  1 37  1  0
  1 38  1  0
  4 39  1  0
  5 40  1  0
  7 41  1  0
  7 42  1  0
  8 43  1  0
 12 44  1  0
 17 45  1  0
 18 46  1  0
 19 47  1  0
 20 48  1  0
 25 49  1  0
 25 50  1  0
 27 51  1  0
 28 52  1  0
 29 53  1  0
 31 54  1  0
 33 55  1  0
 34 56  1  0
 35 57  1  0
M  END
$$$$
