
     RDKit          3D

 39 40  0  0  0  0  0  0  0  0999 V2000
    6.6449   -0.2193   -1.6372 C   0  0  0  0  0  0  0  0  0  0  0  0
    5.8857    0.1676   -0.4915 O   0  0  0  0  0  0  0  0  0  0  0  0
    4.8665    1.0164   -0.7689 C   0  0  0  0  0  0  0  0  0  0  0  0
    4.5816    1.4426   -1.8776 O   0  0  0  0  0  0  0  0  0  0  0  0
    4.2086    1.3077    0.3842 N   0  0  0  0  0  0  0  0  0  0  0  0
    2.9854    2.0654    0.4093 C   0  0  0  0  0  0  0  0  0  0  0  0
    1.7866    1.1530    0.4840 C   0  0  0  0  0  0  0  0  0  0  0  0
    1.2949    0.5398   -0.6800 C   0  0  0  0  0  0  0  0  0  0  0  0
    0.2029   -0.3261   -0.6179 C   0  0  0  0  0  0  0  0  0  0  0  0
   -0.4013   -0.5811    0.6152 C   0  0  0  0  0  0  0  0  0  0  0  0
   -1.7938   -1.6789    0.6791 S   0  0  0  0  0  6  0  0  0  0  0  0
   -2.3464   -1.6485    2.0175 O   0  0  0  0  0  0  0  0  0  0  0  0
   -1.3927   -2.9211    0.0557 O   0  0  0  0  0  0  0  0  0  0  0  0
   -2.9231   -0.9115   -0.3426 N   0  0  0  0  0  0  0  0  0  0  0  0
   -3.4462    0.4099    0.1379 C   0  0  0  0  0  0  0  0  0  0  0  0
   -4.8873    0.2821    0.6401 C   0  0  0  0  0  0  0  0  0  0  0  0
   -5.7992   -0.1496   -0.3800 O   0  0  0  0  0  0  0  0  0  0  0  0
   -5.1951   -1.0166   -1.3510 C   0  0  0  0  0  0  0  0  0  0  0  0
   -4.0240   -1.8271   -0.7890 C   0  0  0  0  0  0  0  0  0  0  0  0
    0.0808    0.0099    1.7851 C   0  0  0  0  0  0  0  0  0  0  0  0
    1.1756    0.8737    1.7166 C   0  0  0  0  0  0  0  0  0  0  0  0
    7.1133    0.6548   -2.1006 H   0  0  0  0  0  0  0  0  0  0  0  0
    6.0119   -0.7482   -2.3567 H   0  0  0  0  0  0  0  0  0  0  0  0
    7.4345   -0.8996   -1.3063 H   0  0  0  0  0  0  0  0  0  0  0  0
    4.4865    0.7730    1.1938 H   0  0  0  0  0  0  0  0  0  0  0  0
    3.0237    2.7185    1.2880 H   0  0  0  0  0  0  0  0  0  0  0  0
    2.9122    2.7122   -0.4726 H   0  0  0  0  0  0  0  0  0  0  0  0
    1.7720    0.7309   -1.6410 H   0  0  0  0  0  0  0  0  0  0  0  0
   -0.1669   -0.8009   -1.5241 H   0  0  0  0  0  0  0  0  0  0  0  0
   -3.4019    1.1004   -0.7128 H   0  0  0  0  0  0  0  0  0  0  0  0
   -2.8146    0.8303    0.9257 H   0  0  0  0  0  0  0  0  0  0  0  0
   -5.2449    1.2491    1.0077 H   0  0  0  0  0  0  0  0  0  0  0  0
   -4.9505   -0.4279    1.4725 H   0  0  0  0  0  0  0  0  0  0  0  0
   -4.8669   -0.3974   -2.1940 H   0  0  0  0  0  0  0  0  0  0  0  0
   -5.9765   -1.6873   -1.7219 H   0  0  0  0  0  0  0  0  0  0  0  0
   -3.6339   -2.4935   -1.5651 H   0  0  0  0  0  0  0  0  0  0  0  0
   -4.3724   -2.4284    0.0590 H   0  0  0  0  0  0  0  0  0  0  0  0
   -0.3816   -0.1997    2.7472 H   0  0  0  0  0  0  0  0  0  0  0  0
    1.5519    1.3256    2.6324 H   0  0  0  0  0  0  0  0  0  0  0  0
  1  2  1  0
  2  3  1  0
  3  4  2  0
  3  5  1  0
  5  6  1  0
  6  7  1  0
  7  8  2  0
  8  9  1  0
  9 10  2  0
 10 11  1  0
 11 12  2  0
 11 13  2  0
 11 14  1  0
 14 15  1  0
 15 16  1  0
 16 17  1  0
 17 18  1  0
 18 19  1  0
 10 20  1  0
 20 21  2  0
 21  7  1  0
 19 14  1  0
  1 22  1  0
  1 23  1  0
  1 24  1  0
  5 25  1  0
  6 26  1  0
  6 27  1  0
  8 28  1  0
  9 29  1  0
 15 30  1  0
 15 31  1  0
 16 32  1  0
 16 33  1  0
 18 34  1  0
 18 35  1  0
 19 36  1  0
 19 37  1  0
 20 38  1  0
 21 39  1  0
M  END
$$$$
