
     RDKit          3D

 52 53  0  0  0  0  0  0  0  0999 V2000
    5.1502    1.0880    0.0555 C   0  0  0  0  0  0  0  0  0  0  0  0
    4.5469   -0.2535    0.5103 C   0  0  0  0  0  0  0  0  0  0  0  0
    4.7525   -0.3798    2.0363 C   0  0  0  0  0  0  0  0  0  0  0  0
    5.3531   -1.3921   -0.1524 C   0  0  0  0  0  0  0  0  0  0  0  0
    3.0199   -0.3874    0.1488 C   0  0  0  0  0  0  0  0  0  0  0  0
    2.7346   -0.3205   -1.3687 C   0  0  0  0  0  0  0  0  0  0  0  0
    1.2529   -0.5113   -1.6850 C   0  0  0  0  0  0  0  0  0  0  0  0
    0.3822    0.5050   -0.9510 C   0  0  0  0  0  0  0  0  0  0  0  0
   -0.9961    0.1760   -1.2246 O   0  0  0  0  0  0  0  0  0  0  0  0
   -1.8892    1.1960   -1.1124 C   0  0  0  0  0  0  0  0  0  0  0  0
   -1.6338    2.3412   -0.7650 O   0  0  0  0  0  0  0  0  0  0  0  0
   -3.3024    0.6984   -1.3909 C   0  0  0  0  0  0  0  0  0  0  0  0
   -4.2197    0.5500   -0.1302 N   0  0  0  0  0  4  0  0  0  0  0  0
   -4.3574    1.8979    0.5653 C   0  0  0  0  0  0  0  0  0  0  0  0
   -3.6984   -0.5142    0.8296 C   0  0  0  0  0  0  0  0  0  0  0  0
   -4.1652   -1.8297    0.2305 C   0  0  0  0  0  0  0  0  0  0  0  0
   -5.3783   -1.5031   -0.6315 C   0  0  0  0  0  0  0  0  0  0  0  0
   -5.5844    0.0000   -0.5320 C   0  0  0  0  0  0  0  0  0  0  0  0
    0.6387    0.4336    0.5533 C   0  0  0  0  0  0  0  0  0  0  0  0
    2.1167    0.6279    0.8856 C   0  0  0  0  0  0  0  0  0  0  0  0
    6.2073    1.1565    0.3391 H   0  0  0  0  0  0  0  0  0  0  0  0
    5.1035    1.2078   -1.0308 H   0  0  0  0  0  0  0  0  0  0  0  0
    4.6390    1.9396    0.5131 H   0  0  0  0  0  0  0  0  0  0  0  0
    5.8179   -0.4334    2.2903 H   0  0  0  0  0  0  0  0  0  0  0  0
    4.3451    0.4811    2.5759 H   0  0  0  0  0  0  0  0  0  0  0  0
    4.2743   -1.2858    2.4248 H   0  0  0  0  0  0  0  0  0  0  0  0
    6.3960   -1.3868    0.1861 H   0  0  0  0  0  0  0  0  0  0  0  0
    4.9302   -2.3713    0.0967 H   0  0  0  0  0  0  0  0  0  0  0  0
    5.3759   -1.2981   -1.2425 H   0  0  0  0  0  0  0  0  0  0  0  0
    2.7048   -1.3869    0.4841 H   0  0  0  0  0  0  0  0  0  0  0  0
    3.0544    0.6451   -1.7733 H   0  0  0  0  0  0  0  0  0  0  0  0
    3.2942   -1.0945   -1.9027 H   0  0  0  0  0  0  0  0  0  0  0  0
    1.0876   -0.4240   -2.7656 H   0  0  0  0  0  0  0  0  0  0  0  0
    0.9428   -1.5300   -1.4202 H   0  0  0  0  0  0  0  0  0  0  0  0
    0.6132    1.5079   -1.3337 H   0  0  0  0  0  0  0  0  0  0  0  0
   -3.2677   -0.2708   -1.9007 H   0  0  0  0  0  0  0  0  0  0  0  0
   -3.7962    1.4117   -2.0634 H   0  0  0  0  0  0  0  0  0  0  0  0
   -3.3924    2.1707    0.9997 H   0  0  0  0  0  0  0  0  0  0  0  0
   -5.0995    1.8051    1.3639 H   0  0  0  0  0  0  0  0  0  0  0  0
   -4.6872    2.6336   -0.1733 H   0  0  0  0  0  0  0  0  0  0  0  0
   -4.1768   -0.3430    1.8015 H   0  0  0  0  0  0  0  0  0  0  0  0
   -2.6138   -0.4303    0.9349 H   0  0  0  0  0  0  0  0  0  0  0  0
   -4.4043   -2.5589    1.0116 H   0  0  0  0  0  0  0  0  0  0  0  0
   -3.3734   -2.2712   -0.3872 H   0  0  0  0  0  0  0  0  0  0  0  0
   -5.1903   -1.7952   -1.6725 H   0  0  0  0  0  0  0  0  0  0  0  0
   -6.2703   -2.0465   -0.3029 H   0  0  0  0  0  0  0  0  0  0  0  0
   -5.9114    0.4697   -1.4656 H   0  0  0  0  0  0  0  0  0  0  0  0
   -6.2916    0.2363    0.2717 H   0  0  0  0  0  0  0  0  0  0  0  0
    0.2915   -0.5325    0.9431 H   0  0  0  0  0  0  0  0  0  0  0  0
    0.0417    1.1914    1.0746 H   0  0  0  0  0  0  0  0  0  0  0  0
    2.4037    1.6512    0.6230 H   0  0  0  0  0  0  0  0  0  0  0  0
    2.2290    0.5293    1.9688 H   0  0  0  0  0  0  0  0  0  0  0  0
  1  2  1  0
  2  3  1  0
  2  4  1  0
  2  5  1  0
  5  6  1  0
  6  7  1  0
  7  8  1  0
  8  9  1  0
  9 10  1  0
 10 11  2  0
 10 12  1  0
 12 13  1  0
 13 14  1  0
 13 15  1  0
 15 16  1  0
 16 17  1  0
 17 18  1  0
  8 19  1  0
 19 20  1  0
 20  5  1  0
 18 13  1  0
  1 21  1  0
  1 22  1  0
  1 23  1  0
  3 24  1  0
  3 25  1  0
  3 26  1  0
  4 27  1  0
  4 28  1  0
  4 29  1  0
  5 30  1  0
  6 31  1  0
  6 32  1  0
  7 33  1  0
  7 34  1  0
  8 35  1  0
 12 36  1  0
 12 37  1  0
 14 38  1  0
 14 39  1  0
 14 40  1  0
 15 41  1  0
 15 42  1  0
 16 43  1  0
 16 44  1  0
 17 45  1  0
 17 46  1  0
 18 47  1  0
 18 48  1  0
 19 49  1  0
 19 50  1  0
 20 51  1  0
 20 52  1  0
M  CHG  1  13   1
M  END
$$$$
