
     RDKit          3D

 59 62  0  0  0  0  0  0  0  0999 V2000
    5.0022    1.5837   -3.2894 C   0  0  0  0  0  0  0  0  0  0  0  0
    5.6137    0.6945   -2.3610 O   0  0  0  0  0  0  0  0  0  0  0  0
    4.8074    0.1153   -1.4160 C   0  0  0  0  0  0  0  0  0  0  0  0
    3.4268    0.3249   -1.3048 C   0  0  0  0  0  0  0  0  0  0  0  0
    2.6781   -0.3367   -0.3242 C   0  0  0  0  0  0  0  0  0  0  0  0
    1.2831   -0.1858   -0.1720 N   0  0  0  0  0  0  0  0  0  0  0  0
    0.4694    0.7366   -0.8043 C   0  0  0  0  0  0  0  0  0  0  0  0
    0.7843    1.6216   -1.5908 O   0  0  0  0  0  0  0  0  0  0  0  0
   -0.9407    0.6388   -0.4056 C   0  0  0  0  0  0  0  0  0  0  0  0
   -1.5534    1.7092    0.2508 C   0  0  0  0  0  0  0  0  0  0  0  0
   -2.8795    1.5864    0.6703 C   0  0  0  0  0  0  0  0  0  0  0  0
   -3.5702    2.6729    1.4085 C   0  0  0  0  0  0  0  0  0  0  0  0
   -4.9640    2.8467    1.3037 C   0  0  0  0  0  0  0  0  0  0  0  0
   -5.6277    3.8745    1.9823 C   0  0  0  0  0  0  0  0  0  0  0  0
   -4.9113    4.7532    2.7906 C   0  0  0  0  0  0  0  0  0  0  0  0
   -3.5355    4.5969    2.9286 C   0  0  0  0  0  0  0  0  0  0  0  0
   -2.8753    3.5688    2.2466 C   0  0  0  0  0  0  0  0  0  0  0  0
   -3.6311    0.4739    0.4421 N   0  0  0  0  0  0  0  0  0  0  0  0
   -3.0009   -0.5130   -0.2278 C   0  0  0  0  0  0  0  0  0  0  0  0
   -1.6906   -0.5091   -0.6734 C   0  0  0  0  0  0  0  0  0  0  0  0
   -1.5281   -1.7502   -1.3226 C   0  0  0  0  0  0  0  0  0  0  0  0
   -2.6321   -2.5007   -1.2839 N   0  0  0  0  0  0  0  0  0  0  0  0
   -3.5226   -1.7234   -0.6165 N   0  0  0  0  0  0  0  0  0  0  0  0
   -4.8890   -2.1866   -0.4021 C   0  0  0  0  0  0  0  0  0  0  0  0
   -4.9254   -3.5620    0.2673 C   0  0  0  0  0  0  0  0  0  0  0  0
   -5.6772   -2.1852   -1.7118 C   0  0  0  0  0  0  0  0  0  0  0  0
    3.3228   -1.2054    0.5631 C   0  0  0  0  0  0  0  0  0  0  0  0
    4.7034   -1.3835    0.4923 C   0  0  0  0  0  0  0  0  0  0  0  0
    5.2682   -2.2472    1.3944 O   0  0  0  0  0  0  0  0  0  0  0  0
    6.0949   -1.5595    2.3322 C   0  0  0  0  0  0  0  0  0  0  0  0
    5.4385   -0.7611   -0.5211 C   0  0  0  0  0  0  0  0  0  0  0  0
    6.7942   -0.9744   -0.6088 O   0  0  0  0  0  0  0  0  0  0  0  0
    7.0528   -2.0762   -1.4785 C   0  0  0  0  0  0  0  0  0  0  0  0
    4.5717    2.4548   -2.7806 H   0  0  0  0  0  0  0  0  0  0  0  0
    5.7811    1.9427   -3.9688 H   0  0  0  0  0  0  0  0  0  0  0  0
    4.2530    1.0672   -3.8963 H   0  0  0  0  0  0  0  0  0  0  0  0
    2.9254    0.9868   -2.0006 H   0  0  0  0  0  0  0  0  0  0  0  0
    0.8539   -0.7606    0.5439 H   0  0  0  0  0  0  0  0  0  0  0  0
   -0.9862    2.6209    0.4204 H   0  0  0  0  0  0  0  0  0  0  0  0
   -5.5490    2.1725    0.6775 H   0  0  0  0  0  0  0  0  0  0  0  0
   -6.7023    3.9891    1.8729 H   0  0  0  0  0  0  0  0  0  0  0  0
   -5.4246    5.5526    3.3186 H   0  0  0  0  0  0  0  0  0  0  0  0
   -2.9727    5.2752    3.5677 H   0  0  0  0  0  0  0  0  0  0  0  0
   -1.8021    3.4723    2.3976 H   0  0  0  0  0  0  0  0  0  0  0  0
   -0.6508   -2.1374   -1.8280 H   0  0  0  0  0  0  0  0  0  0  0  0
   -5.3600   -1.4714    0.2840 H   0  0  0  0  0  0  0  0  0  0  0  0
   -5.9546   -3.8429    0.5170 H   0  0  0  0  0  0  0  0  0  0  0  0
   -4.3418   -3.5640    1.1945 H   0  0  0  0  0  0  0  0  0  0  0  0
   -4.5162   -4.3412   -0.3845 H   0  0  0  0  0  0  0  0  0  0  0  0
   -5.6727   -1.1872   -2.1677 H   0  0  0  0  0  0  0  0  0  0  0  0
   -6.7217   -2.4709   -1.5353 H   0  0  0  0  0  0  0  0  0  0  0  0
   -5.2515   -2.8854   -2.4421 H   0  0  0  0  0  0  0  0  0  0  0  0
    2.7695   -1.7359    1.3327 H   0  0  0  0  0  0  0  0  0  0  0  0
    6.7524   -0.8062    1.8739 H   0  0  0  0  0  0  0  0  0  0  0  0
    5.4642   -1.0664    3.0817 H   0  0  0  0  0  0  0  0  0  0  0  0
    6.7137   -2.3055    2.8364 H   0  0  0  0  0  0  0  0  0  0  0  0
    6.7144   -1.8683   -2.5010 H   0  0  0  0  0  0  0  0  0  0  0  0
    8.1363   -2.2318   -1.5067 H   0  0  0  0  0  0  0  0  0  0  0  0
    6.5855   -2.9970   -1.1094 H   0  0  0  0  0  0  0  0  0  0  0  0
  1  2  1  0
  2  3  1  0
  3  4  2  0
  4  5  1  0
  5  6  1  0
  6  7  1  0
  7  8  2  0
  7  9  1  0
  9 10  2  0
 10 11  1  0
 11 12  1  0
 12 13  2  0
 13 14  1  0
 14 15  2  0
 15 16  1  0
 16 17  2  0
 11 18  2  0
 18 19  1  0
 19 20  2  0
 20 21  1  0
 21 22  2  0
 22 23  1  0
 23 24  1  0
 24 25  1  0
 24 26  1  0
  5 27  2  0
 27 28  1  0
 28 29  1  0
 29 30  1  0
 28 31  2  0
 31 32  1  0
 32 33  1  0
 31  3  1  0
 20  9  1  0
 17 12  1  0
 23 19  1  0
  1 34  1  0
  1 35  1  0
  1 36  1  0
  4 37  1  0
  6 38  1  0
 10 39  1  0
 13 40  1  0
 14 41  1  0
 15 42  1  0
 16 43  1  0
 17 44  1  0
 21 45  1  0
 24 46  1  0
 25 47  1  0
 25 48  1  0
 25 49  1  0
 26 50  1  0
 26 51  1  0
 26 52  1  0
 27 53  1  0
 30 54  1  0
 30 55  1  0
 30 56  1  0
 33 57  1  0
 33 58  1  0
 33 59  1  0
M  END
$$$$
