
     RDKit          3D

 51 56  0  0  0  0  0  0  0  0999 V2000
   -2.0467   -0.3419    2.4711 O   0  0  0  0  0  0  0  0  0  0  0  0
   -2.2437   -0.7098    1.3095 C   0  0  0  0  0  0  0  0  0  0  0  0
   -3.1110   -1.9025    1.0904 C   0  0  0  0  0  0  0  0  0  0  0  0
   -4.0813   -2.2028    2.0582 C   0  0  0  0  0  0  0  0  0  0  0  0
   -4.9164   -3.3123    1.9025 C   0  0  0  0  0  0  0  0  0  0  0  0
   -4.7771   -4.1289    0.7828 C   0  0  0  0  0  0  0  0  0  0  0  0
   -5.8012   -5.4971    0.5884 Cl  0  0  0  0  0  0  0  0  0  0  0  0
   -3.8076   -3.8476   -0.1790 C   0  0  0  0  0  0  0  0  0  0  0  0
   -2.9712   -2.7366   -0.0256 C   0  0  0  0  0  0  0  0  0  0  0  0
   -1.6422   -0.0159    0.0853 C   0  0  0  0  0  0  0  0  0  0  0  0
   -0.1705   -0.1660    0.0474 C   0  0  0  0  0  0  0  0  0  0  0  0
    0.5052    1.0395    0.3058 C   0  0  0  0  0  0  0  0  0  0  0  0
    1.8426    0.7410    0.4187 C   0  0  0  0  0  0  0  0  0  0  0  0
    2.8541    1.4774    0.8751 O   0  0  0  0  0  0  0  0  0  0  0  0
    2.0110   -0.6121    0.0634 N   0  0  0  0  0  0  0  0  0  0  0  0
    3.2506   -1.3278    0.0622 C   0  0  0  0  0  0  0  0  0  0  0  0
    3.2889   -2.6823    0.4280 C   0  0  0  0  0  0  0  0  0  0  0  0
    4.5016   -3.3786    0.4230 C   0  0  0  0  0  0  0  0  0  0  0  0
    5.6765   -2.7250    0.0585 C   0  0  0  0  0  0  0  0  0  0  0  0
    7.1663   -3.5847    0.0513 Cl  0  0  0  0  0  0  0  0  0  0  0  0
    5.6521   -1.3779   -0.2936 C   0  0  0  0  0  0  0  0  0  0  0  0
    4.4421   -0.6769   -0.2868 C   0  0  0  0  0  0  0  0  0  0  0  0
    0.7412   -1.1499   -0.2142 C   0  0  0  0  0  0  0  0  0  0  0  0
    0.5104   -2.3767   -0.6789 O   0  0  0  0  0  0  0  0  0  0  0  0
   -0.4530    2.1584    0.5181 C   0  0  0  0  0  0  0  0  0  0  0  0
   -0.2282    3.2838   -0.4569 C   0  0  0  0  0  0  0  0  0  0  0  0
    1.0081    3.8918   -0.7175 C   0  0  0  0  0  0  0  0  0  0  0  0
    1.0992    5.0046   -1.5622 C   0  0  0  0  0  0  0  0  0  0  0  0
   -0.0450    5.5446   -2.1448 C   0  0  0  0  0  0  0  0  0  0  0  0
   -1.2864    4.9713   -1.8868 C   0  0  0  0  0  0  0  0  0  0  0  0
   -1.3653    3.8541   -1.0496 C   0  0  0  0  0  0  0  0  0  0  0  0
   -2.6792    3.2415   -0.8037 C   0  0  0  0  0  0  0  0  0  0  0  0
   -2.8631    2.0878   -0.2379 N   0  0  0  0  0  0  0  0  0  0  0  0
   -1.7425    1.4601    0.2474 N   0  0  0  0  0  0  0  0  0  0  0  0
   -4.1912   -1.5686    2.9368 H   0  0  0  0  0  0  0  0  0  0  0  0
   -5.6668   -3.5314    2.6576 H   0  0  0  0  0  0  0  0  0  0  0  0
   -3.6916   -4.4926   -1.0465 H   0  0  0  0  0  0  0  0  0  0  0  0
   -2.2059   -2.5602   -0.7768 H   0  0  0  0  0  0  0  0  0  0  0  0
   -2.1231   -0.2866   -0.8577 H   0  0  0  0  0  0  0  0  0  0  0  0
    2.4755    2.2016    1.4043 H   0  0  0  0  0  0  0  0  0  0  0  0
    2.4000   -3.2033    0.7789 H   0  0  0  0  0  0  0  0  0  0  0  0
    4.5245   -4.4238    0.7212 H   0  0  0  0  0  0  0  0  0  0  0  0
    6.5683   -0.8649   -0.5741 H   0  0  0  0  0  0  0  0  0  0  0  0
    4.4497    0.3693   -0.5837 H   0  0  0  0  0  0  0  0  0  0  0  0
    1.3229   -2.7037   -1.1071 H   0  0  0  0  0  0  0  0  0  0  0  0
   -0.4633    2.5100    1.5547 H   0  0  0  0  0  0  0  0  0  0  0  0
    1.9255    3.5211   -0.2755 H   0  0  0  0  0  0  0  0  0  0  0  0
    2.0702    5.4542   -1.7597 H   0  0  0  0  0  0  0  0  0  0  0  0
    0.0328    6.4102   -2.7980 H   0  0  0  0  0  0  0  0  0  0  0  0
   -2.1780    5.3916   -2.3439 H   0  0  0  0  0  0  0  0  0  0  0  0
   -3.5680    3.7747   -1.1801 H   0  0  0  0  0  0  0  0  0  0  0  0
  1  2  2  0
  2  3  1  0
  3  4  2  0
  4  5  1  0
  5  6  2  0
  6  7  1  0
  6  8  1  0
  8  9  2  0
  2 10  1  0
 10 11  1  0
 11 12  1  0
 12 13  2  0
 13 14  1  0
 13 15  1  0
 15 16  1  0
 16 17  2  0
 17 18  1  0
 18 19  2  0
 19 20  1  0
 19 21  1  0
 21 22  2  0
 15 23  1  0
 23 24  1  0
 12 25  1  0
 25 26  1  0
 26 27  2  0
 27 28  1  0
 28 29  2  0
 29 30  1  0
 30 31  2  0
 31 32  1  0
 32 33  2  0
 33 34  1  0
  9  3  1  0
 34 10  1  0
 23 11  2  0
 34 25  1  0
 22 16  1  0
 31 26  1  0
  4 35  1  0
  5 36  1  0
  8 37  1  0
  9 38  1  0
 10 39  1  0
 14 40  1  0
 17 41  1  0
 18 42  1  0
 21 43  1  0
 22 44  1  0
 24 45  1  0
 25 46  1  0
 27 47  1  0
 28 48  1  0
 29 49  1  0
 30 50  1  0
 32 51  1  0
M  END
$$$$
