
     RDKit          3D

 43 45  0  0  0  0  0  0  0  0999 V2000
   -6.0797   -1.4296    0.0934 C   0  0  0  0  0  0  0  0  0  0  0  0
   -4.7538   -1.3778    0.7047 N   0  0  0  0  0  0  0  0  0  0  0  0
   -3.7892   -2.1750   -0.0875 C   0  0  0  0  0  0  0  0  0  0  0  0
   -2.3245   -1.7356    0.1218 C   0  0  0  0  0  0  0  0  0  0  0  0
   -2.1314   -0.3454   -0.3621 N   0  0  0  0  0  0  0  0  0  0  0  0
   -0.8855    0.1872   -0.0085 C   0  0  0  0  0  0  0  0  0  0  0  0
   -0.6521    0.7442    1.2575 C   0  0  0  0  0  0  0  0  0  0  0  0
    0.6045    1.2592    1.6048 C   0  0  0  0  0  0  0  0  0  0  0  0
    1.6692    1.2175    0.6960 C   0  0  0  0  0  0  0  0  0  0  0  0
    2.9740    1.7926    1.1091 C   0  0  0  0  0  0  0  0  0  0  0  0
    2.9851    2.7568    1.8691 O   0  0  0  0  0  0  0  0  0  0  0  0
    4.2621    1.2359    0.6251 C   0  0  0  0  0  0  0  0  0  0  0  0
    5.3249    2.1193    0.3974 C   0  0  0  0  0  0  0  0  0  0  0  0
    6.5567    1.6344   -0.0481 C   0  0  0  0  0  0  0  0  0  0  0  0
    6.7267    0.2658   -0.2521 C   0  0  0  0  0  0  0  0  0  0  0  0
    8.3933   -0.3924   -0.8534 Br  0  0  0  0  0  0  0  0  0  0  0  0
    5.6799   -0.6233   -0.0075 C   0  0  0  0  0  0  0  0  0  0  0  0
    4.4465   -0.1401    0.4387 C   0  0  0  0  0  0  0  0  0  0  0  0
    1.4680    0.6869   -0.5774 C   0  0  0  0  0  0  0  0  0  0  0  0
    0.2024    0.1758   -0.8987 C   0  0  0  0  0  0  0  0  0  0  0  0
    0.0324   -0.3708   -2.2260 N   0  0  0  0  0  4  0  0  0  0  0  0
    0.2614   -1.5813   -2.3655 O   0  0  0  0  0  0  0  0  0  0  0  0
   -0.2459    0.4258   -3.1329 O   0  0  0  0  0  1  0  0  0  0  0  0
   -3.3093    0.5389   -0.1824 C   0  0  0  0  0  0  0  0  0  0  0  0
   -4.2876    0.0131    0.8927 C   0  0  0  0  0  0  0  0  0  0  0  0
   -6.0997   -0.9530   -0.8932 H   0  0  0  0  0  0  0  0  0  0  0  0
   -6.4128   -2.4678   -0.0161 H   0  0  0  0  0  0  0  0  0  0  0  0
   -6.8162   -0.9301    0.7325 H   0  0  0  0  0  0  0  0  0  0  0  0
   -3.8935   -3.2292    0.1937 H   0  0  0  0  0  0  0  0  0  0  0  0
   -4.0141   -2.0992   -1.1604 H   0  0  0  0  0  0  0  0  0  0  0  0
   -1.6669   -2.4113   -0.4371 H   0  0  0  0  0  0  0  0  0  0  0  0
   -2.0664   -1.8238    1.1857 H   0  0  0  0  0  0  0  0  0  0  0  0
   -1.4472    0.7783    1.9987 H   0  0  0  0  0  0  0  0  0  0  0  0
    0.7491    1.6937    2.5936 H   0  0  0  0  0  0  0  0  0  0  0  0
    5.1956    3.1868    0.5676 H   0  0  0  0  0  0  0  0  0  0  0  0
    7.3736    2.3293   -0.2260 H   0  0  0  0  0  0  0  0  0  0  0  0
    5.8179   -1.6924   -0.1519 H   0  0  0  0  0  0  0  0  0  0  0  0
    3.6524   -0.8504    0.6539 H   0  0  0  0  0  0  0  0  0  0  0  0
    2.2606    0.6810   -1.3212 H   0  0  0  0  0  0  0  0  0  0  0  0
   -3.0158    1.5689    0.0557 H   0  0  0  0  0  0  0  0  0  0  0  0
   -3.8333    0.5868   -1.1452 H   0  0  0  0  0  0  0  0  0  0  0  0
   -3.7774    0.0451    1.8637 H   0  0  0  0  0  0  0  0  0  0  0  0
   -5.1338    0.7051    0.9868 H   0  0  0  0  0  0  0  0  0  0  0  0
  1  2  1  0
  2  3  1  0
  3  4  1  0
  4  5  1  0
  5  6  1  0
  6  7  2  0
  7  8  1  0
  8  9  2  0
  9 10  1  0
 10 11  2  0
 10 12  1  0
 12 13  2  0
 13 14  1  0
 14 15  2  0
 15 16  1  0
 15 17  1  0
 17 18  2  0
  9 19  1  0
 19 20  2  0
 20 21  1  0
 21 22  2  0
 21 23  1  0
  5 24  1  0
 24 25  1  0
 25  2  1  0
 20  6  1  0
 18 12  1  0
  1 26  1  0
  1 27  1  0
  1 28  1  0
  3 29  1  0
  3 30  1  0
  4 31  1  0
  4 32  1  0
  7 33  1  0
  8 34  1  0
 13 35  1  0
 14 36  1  0
 17 37  1  0
 18 38  1  0
 19 39  1  0
 24 40  1  0
 24 41  1  0
 25 42  1  0
 25 43  1  0
M  CHG  2  21   1  23  -1
M  END
$$$$
