
     RDKit          3D

 50 53  0  0  0  0  0  0  0  0999 V2000
    7.0713   -0.8243   -2.1075 C   0  0  0  0  0  0  0  0  0  0  0  0
    5.9626   -0.3376   -1.2282 C   0  0  0  0  0  0  0  0  0  0  0  0
    4.6377   -0.4009   -1.6562 C   0  0  0  0  0  0  0  0  0  0  0  0
    3.5948    0.0275   -0.9052 N   0  0  0  0  0  0  0  0  0  0  0  0
    3.9405    0.5355    0.3132 C   0  0  0  0  0  0  0  0  0  0  0  0
    2.8351    1.0225    1.1840 C   0  0  0  0  0  0  0  0  0  0  0  0
    3.0508    1.4692    2.3040 O   0  0  0  0  0  0  0  0  0  0  0  0
    1.5826    0.9164    0.6231 N   0  0  0  0  0  0  0  0  0  0  0  0
    0.3726    1.2541    1.3372 C   0  0  0  0  0  0  0  0  0  0  0  0
   -0.0244    0.1712    2.3692 C   0  0  0  0  0  0  0  0  0  0  0  0
   -0.7919   -1.0557    1.7817 C   0  0  0  0  0  0  0  0  0  0  0  0
    0.1105   -1.8921    0.8520 C   0  0  0  0  0  0  0  0  0  0  0  0
   -1.2207   -1.9638    2.9526 C   0  0  0  0  0  0  0  0  0  0  0  0
   -2.0704   -0.5969    1.0129 C   0  0  0  0  0  0  0  0  0  0  0  0
   -1.8127    0.6208    0.1881 C   0  0  0  0  0  0  0  0  0  0  0  0
   -0.7103    1.4448    0.3350 C   0  0  0  0  0  0  0  0  0  0  0  0
   -0.8523    2.4139   -0.6622 C   0  0  0  0  0  0  0  0  0  0  0  0
   -1.9419    2.2233   -1.4003 N   0  0  0  0  0  0  0  0  0  0  0  0
   -2.5805    1.1495   -0.8447 N   0  0  0  0  0  0  0  0  0  0  0  0
   -3.8530    0.7602   -1.3712 C   0  0  0  0  0  0  0  0  0  0  0  0
   -4.2893    1.3405   -2.5771 C   0  0  0  0  0  0  0  0  0  0  0  0
   -5.5209    0.9922   -3.1377 C   0  0  0  0  0  0  0  0  0  0  0  0
   -6.3394    0.0679   -2.4975 C   0  0  0  0  0  0  0  0  0  0  0  0
   -5.9297   -0.5000   -1.2940 C   0  0  0  0  0  0  0  0  0  0  0  0
   -4.6953   -0.1546   -0.7296 C   0  0  0  0  0  0  0  0  0  0  0  0
    5.2533    0.6029    0.7493 C   0  0  0  0  0  0  0  0  0  0  0  0
    6.2904    0.1678   -0.0120 N   0  0  0  0  0  0  0  0  0  0  0  0
    7.1057   -0.2384   -3.0313 H   0  0  0  0  0  0  0  0  0  0  0  0
    8.0385   -0.7265   -1.6044 H   0  0  0  0  0  0  0  0  0  0  0  0
    6.9226   -1.8793   -2.3567 H   0  0  0  0  0  0  0  0  0  0  0  0
    4.3772   -0.8040   -2.6300 H   0  0  0  0  0  0  0  0  0  0  0  0
    1.5311    0.4860   -0.2970 H   0  0  0  0  0  0  0  0  0  0  0  0
    0.5558    2.1936    1.8734 H   0  0  0  0  0  0  0  0  0  0  0  0
   -0.6818    0.6504    3.1094 H   0  0  0  0  0  0  0  0  0  0  0  0
    0.8588   -0.1693    2.9246 H   0  0  0  0  0  0  0  0  0  0  0  0
   -0.3743   -2.8381    0.5839 H   0  0  0  0  0  0  0  0  0  0  0  0
    0.3334   -1.3783   -0.0870 H   0  0  0  0  0  0  0  0  0  0  0  0
    1.0608   -2.1360    1.3400 H   0  0  0  0  0  0  0  0  0  0  0  0
   -1.7888   -2.8300    2.5945 H   0  0  0  0  0  0  0  0  0  0  0  0
   -1.8546   -1.4229    3.6640 H   0  0  0  0  0  0  0  0  0  0  0  0
   -0.3493   -2.3381    3.5017 H   0  0  0  0  0  0  0  0  0  0  0  0
   -2.8548   -0.3510    1.7398 H   0  0  0  0  0  0  0  0  0  0  0  0
   -2.4259   -1.4242    0.3885 H   0  0  0  0  0  0  0  0  0  0  0  0
   -0.1950    3.2411   -0.8990 H   0  0  0  0  0  0  0  0  0  0  0  0
   -3.6713    2.0671   -3.1033 H   0  0  0  0  0  0  0  0  0  0  0  0
   -5.8372    1.4473   -4.0729 H   0  0  0  0  0  0  0  0  0  0  0  0
   -7.2989   -0.2023   -2.9305 H   0  0  0  0  0  0  0  0  0  0  0  0
   -6.5777   -1.2097   -0.7847 H   0  0  0  0  0  0  0  0  0  0  0  0
   -4.4578   -0.5992    0.2266 H   0  0  0  0  0  0  0  0  0  0  0  0
    5.5141    1.0075    1.7214 H   0  0  0  0  0  0  0  0  0  0  0  0
  1  2  1  0
  2  3  2  0
  3  4  1  0
  4  5  2  0
  5  6  1  0
  6  7  2  0
  6  8  1  0
  8  9  1  0
  9 10  1  0
 10 11  1  0
 11 12  1  0
 11 13  1  0
 11 14  1  0
 14 15  1  0
 15 16  2  0
 16 17  1  0
 17 18  2  0
 18 19  1  0
 19 20  1  0
 20 21  2  0
 21 22  1  0
 22 23  2  0
 23 24  1  0
 24 25  2  0
  5 26  1  0
 26 27  2  0
 27  2  1  0
 16  9  1  0
 25 20  1  0
 19 15  1  0
  1 28  1  0
  1 29  1  0
  1 30  1  0
  3 31  1  0
  8 32  1  0
  9 33  1  0
 10 34  1  0
 10 35  1  0
 12 36  1  0
 12 37  1  0
 12 38  1  0
 13 39  1  0
 13 40  1  0
 13 41  1  0
 14 42  1  0
 14 43  1  0
 17 44  1  0
 21 45  1  0
 22 46  1  0
 23 47  1  0
 24 48  1  0
 25 49  1  0
 26 50  1  0
M  END
$$$$
