
     RDKit          3D

 49 52  0  0  0  0  0  0  0  0999 V2000
   -3.8282   -5.2201   -0.0016 C   0  0  0  0  0  0  0  0  0  0  0  0
   -3.0667   -4.3998   -0.8786 O   0  0  0  0  0  0  0  0  0  0  0  0
   -2.5830   -3.2294   -0.3621 C   0  0  0  0  0  0  0  0  0  0  0  0
   -2.7716   -2.7654    0.9385 C   0  0  0  0  0  0  0  0  0  0  0  0
   -2.2180   -1.5427    1.3376 C   0  0  0  0  0  0  0  0  0  0  0  0
   -1.4656   -0.7618    0.4460 C   0  0  0  0  0  0  0  0  0  0  0  0
   -0.8869    0.5827    0.8972 C   0  0  0  0  0  0  0  0  0  0  0  0
    0.5567    0.6413    0.5792 N   0  0  0  0  0  0  0  0  0  0  0  0
    0.9215    1.4066   -0.3907 C   0  0  0  0  0  0  0  0  0  0  0  0
    2.1993    1.5495   -0.8707 N   0  0  0  0  0  0  0  0  0  0  0  0
    3.3451    0.7949   -0.5431 C   0  0  0  0  0  0  0  0  0  0  0  0
    3.2972   -0.4723    0.0457 C   0  0  0  0  0  0  0  0  0  0  0  0
    4.4678   -1.1888    0.3239 C   0  0  0  0  0  0  0  0  0  0  0  0
    5.7207   -0.6526    0.0180 C   0  0  0  0  0  0  0  0  0  0  0  0
    6.9708   -1.4354    0.2869 C   0  0  0  0  0  0  0  0  0  0  0  0
    5.7820    0.5982   -0.5992 C   0  0  0  0  0  0  0  0  0  0  0  0
    4.6090    1.3100   -0.8752 C   0  0  0  0  0  0  0  0  0  0  0  0
    0.0294    2.1940   -1.0478 N   0  0  0  0  0  0  0  0  0  0  0  0
   -1.2494    2.4254   -0.6636 C   0  0  0  0  0  0  0  0  0  0  0  0
   -1.9610    3.3282   -1.2690 N   0  0  0  0  0  0  0  0  0  0  0  0
   -3.2281    3.5597   -0.7971 C   0  0  0  0  0  0  0  0  0  0  0  0
   -4.0203    4.5851   -1.5564 C   0  0  0  0  0  0  0  0  0  0  0  0
   -3.7410    2.9425    0.2734 C   0  0  0  0  0  0  0  0  0  0  0  0
   -2.9229    1.9362    0.9689 C   0  0  0  0  0  0  0  0  0  0  0  0
   -3.3683    1.3987    1.9791 O   0  0  0  0  0  0  0  0  0  0  0  0
   -1.6937    1.6909    0.4043 N   0  0  0  0  0  0  0  0  0  0  0  0
   -1.2876   -1.2368   -0.8618 C   0  0  0  0  0  0  0  0  0  0  0  0
   -1.8393   -2.4588   -1.2570 C   0  0  0  0  0  0  0  0  0  0  0  0
   -4.7361   -4.7062    0.3311 H   0  0  0  0  0  0  0  0  0  0  0  0
   -3.2263   -5.5530    0.8505 H   0  0  0  0  0  0  0  0  0  0  0  0
   -4.1355   -6.1101   -0.5593 H   0  0  0  0  0  0  0  0  0  0  0  0
   -3.3468   -3.3236    1.6692 H   0  0  0  0  0  0  0  0  0  0  0  0
   -2.3911   -1.1950    2.3553 H   0  0  0  0  0  0  0  0  0  0  0  0
   -0.9445    0.6208    1.9930 H   0  0  0  0  0  0  0  0  0  0  0  0
    2.4247    2.4470   -1.2742 H   0  0  0  0  0  0  0  0  0  0  0  0
    2.3474   -0.9403    0.2901 H   0  0  0  0  0  0  0  0  0  0  0  0
    4.3856   -2.1728    0.7805 H   0  0  0  0  0  0  0  0  0  0  0  0
    7.8153   -0.7668    0.4846 H   0  0  0  0  0  0  0  0  0  0  0  0
    7.2118   -2.0641   -0.5757 H   0  0  0  0  0  0  0  0  0  0  0  0
    6.8497   -2.0741    1.1682 H   0  0  0  0  0  0  0  0  0  0  0  0
    6.7428    1.0296   -0.8707 H   0  0  0  0  0  0  0  0  0  0  0  0
    4.7007    2.2812   -1.3547 H   0  0  0  0  0  0  0  0  0  0  0  0
    0.3311    2.7403   -1.8385 H   0  0  0  0  0  0  0  0  0  0  0  0
   -3.5013    5.5493   -1.5460 H   0  0  0  0  0  0  0  0  0  0  0  0
   -5.0174    4.7369   -1.1296 H   0  0  0  0  0  0  0  0  0  0  0  0
   -4.1463    4.2710   -2.5979 H   0  0  0  0  0  0  0  0  0  0  0  0
   -4.7334    3.1282    0.6603 H   0  0  0  0  0  0  0  0  0  0  0  0
   -0.7119   -0.6650   -1.5844 H   0  0  0  0  0  0  0  0  0  0  0  0
   -1.6864   -2.8133   -2.2733 H   0  0  0  0  0  0  0  0  0  0  0  0
  1  2  1  0
  2  3  1  0
  3  4  2  0
  4  5  1  0
  5  6  2  0
  6  7  1  0
  7  8  1  0
  8  9  2  0
  9 10  1  0
 10 11  1  0
 11 12  2  0
 12 13  1  0
 13 14  2  0
 14 15  1  0
 14 16  1  0
 16 17  2  0
  9 18  1  0
 18 19  1  0
 19 20  2  0
 20 21  1  0
 21 22  1  0
 21 23  2  0
 23 24  1  0
 24 25  2  0
 24 26  1  0
  6 27  1  0
 27 28  2  0
 28  3  1  0
 26  7  1  0
 17 11  1  0
 26 19  1  0
  1 29  1  0
  1 30  1  0
  1 31  1  0
  4 32  1  0
  5 33  1  0
  7 34  1  0
 10 35  1  0
 12 36  1  0
 13 37  1  0
 15 38  1  0
 15 39  1  0
 15 40  1  0
 16 41  1  0
 17 42  1  0
 18 43  1  0
 22 44  1  0
 22 45  1  0
 22 46  1  0
 23 47  1  0
 27 48  1  0
 28 49  1  0
M  END
$$$$
