
     RDKit          3D

 56 59  0  0  0  0  0  0  0  0999 V2000
   -4.7523    1.5303   -2.4862 C   0  0  0  0  0  0  0  0  0  0  0  0
   -3.3395    1.5675   -2.6463 O   0  0  0  0  0  0  0  0  0  0  0  0
   -2.6857    0.3642   -2.6761 C   0  0  0  0  0  0  0  0  0  0  0  0
   -3.3065   -0.8647   -2.9252 C   0  0  0  0  0  0  0  0  0  0  0  0
   -2.5637   -2.0518   -2.9399 C   0  0  0  0  0  0  0  0  0  0  0  0
   -1.1849   -2.0193   -2.7252 C   0  0  0  0  0  0  0  0  0  0  0  0
   -0.3488   -3.2552   -2.6894 C   0  0  0  0  0  0  0  0  0  0  0  0
   -1.0330   -4.5966   -2.6914 C   0  0  0  0  0  0  0  0  0  0  0  0
    0.8772   -3.1660   -2.6558 O   0  0  0  0  0  0  0  0  0  0  0  0
   -0.5572   -0.7867   -2.5155 C   0  0  0  0  0  0  0  0  0  0  0  0
   -1.2967    0.4101   -2.4659 C   0  0  0  0  0  0  0  0  0  0  0  0
   -0.5853    1.7008   -2.1327 C   0  0  0  0  0  0  0  0  0  0  0  0
   -0.7292    2.1935   -0.3859 S   0  0  0  0  0  0  0  0  0  0  0  0
    0.3689    1.0318    0.3263 C   0  0  0  0  0  0  0  0  0  0  0  0
   -0.1080   -0.1544    0.5121 N   0  0  0  0  0  0  0  0  0  0  0  0
    0.7331   -1.1519    1.0013 C   0  0  0  0  0  0  0  0  0  0  0  0
    0.2270   -2.4468    1.1400 C   0  0  0  0  0  0  0  0  0  0  0  0
    1.0510   -3.4857    1.5894 C   0  0  0  0  0  0  0  0  0  0  0  0
    0.5533   -4.8739    1.7304 C   0  0  0  0  0  0  0  0  0  0  0  0
    1.1733   -5.8077    2.2044 O   0  0  0  0  0  0  0  0  0  0  0  0
   -0.6982   -5.0333    1.2647 O   0  0  0  0  0  0  0  0  0  0  0  0
    2.3872   -3.2208    1.9167 C   0  0  0  0  0  0  0  0  0  0  0  0
    2.8967   -1.9282    1.7796 C   0  0  0  0  0  0  0  0  0  0  0  0
    2.0640   -0.9037    1.3155 C   0  0  0  0  0  0  0  0  0  0  0  0
    2.5658    0.4685    1.1268 C   0  0  0  0  0  0  0  0  0  0  0  0
    3.7411    0.7059    1.3976 O   0  0  0  0  0  0  0  0  0  0  0  0
    1.6642    1.4121    0.6350 N   0  0  0  0  0  0  0  0  0  0  0  0
    2.1699    2.7827    0.4969 C   0  0  0  0  0  0  0  0  0  0  0  0
    1.8575    3.6539    1.6978 C   0  0  0  0  0  0  0  0  0  0  0  0
    2.4876    3.4263    2.9311 C   0  0  0  0  0  0  0  0  0  0  0  0
    2.2012    4.2282    4.0377 C   0  0  0  0  0  0  0  0  0  0  0  0
    1.2846    5.2706    3.9256 C   0  0  0  0  0  0  0  0  0  0  0  0
    0.6580    5.5150    2.7059 C   0  0  0  0  0  0  0  0  0  0  0  0
    0.9445    4.7143    1.5980 C   0  0  0  0  0  0  0  0  0  0  0  0
   -5.2380    1.1749   -3.4004 H   0  0  0  0  0  0  0  0  0  0  0  0
   -5.0426    0.9233   -1.6218 H   0  0  0  0  0  0  0  0  0  0  0  0
   -5.0944    2.5537   -2.3047 H   0  0  0  0  0  0  0  0  0  0  0  0
   -4.3738   -0.9322   -3.1118 H   0  0  0  0  0  0  0  0  0  0  0  0
   -3.0885   -2.9844   -3.1242 H   0  0  0  0  0  0  0  0  0  0  0  0
   -0.2914   -5.3784   -2.5005 H   0  0  0  0  0  0  0  0  0  0  0  0
   -1.4907   -4.7833   -3.6661 H   0  0  0  0  0  0  0  0  0  0  0  0
   -1.7790   -4.6464   -1.8936 H   0  0  0  0  0  0  0  0  0  0  0  0
    0.5182   -0.7625   -2.3433 H   0  0  0  0  0  0  0  0  0  0  0  0
   -0.9852    2.5119   -2.7516 H   0  0  0  0  0  0  0  0  0  0  0  0
    0.4766    1.6308   -2.3970 H   0  0  0  0  0  0  0  0  0  0  0  0
   -0.8125   -2.6326    0.8821 H   0  0  0  0  0  0  0  0  0  0  0  0
   -0.8827   -5.9823    1.4276 H   0  0  0  0  0  0  0  0  0  0  0  0
    3.0367   -4.0208    2.2682 H   0  0  0  0  0  0  0  0  0  0  0  0
    3.9378   -1.7262    2.0224 H   0  0  0  0  0  0  0  0  0  0  0  0
    1.7729    3.2357   -0.4178 H   0  0  0  0  0  0  0  0  0  0  0  0
    3.2582    2.7740    0.3566 H   0  0  0  0  0  0  0  0  0  0  0  0
    3.2159    2.6249    3.0401 H   0  0  0  0  0  0  0  0  0  0  0  0
    2.6967    4.0387    4.9865 H   0  0  0  0  0  0  0  0  0  0  0  0
    1.0614    5.8938    4.7874 H   0  0  0  0  0  0  0  0  0  0  0  0
   -0.0560    6.3296    2.6161 H   0  0  0  0  0  0  0  0  0  0  0  0
    0.4435    4.9286    0.6564 H   0  0  0  0  0  0  0  0  0  0  0  0
  1  2  1  0
  2  3  1  0
  3  4  2  0
  4  5  1  0
  5  6  2  0
  6  7  1  0
  7  8  1  0
  7  9  2  0
  6 10  1  0
 10 11  2  0
 11 12  1  0
 12 13  1  0
 13 14  1  0
 14 15  2  0
 15 16  1  0
 16 17  2  0
 17 18  1  0
 18 19  1  0
 19 20  2  0
 19 21  1  0
 18 22  2  0
 22 23  1  0
 23 24  2  0
 24 25  1  0
 25 26  2  0
 25 27  1  0
 27 28  1  0
 28 29  1  0
 29 30  2  0
 30 31  1  0
 31 32  2  0
 32 33  1  0
 33 34  2  0
 11  3  1  0
 27 14  1  0
 34 29  1  0
 24 16  1  0
  1 35  1  0
  1 36  1  0
  1 37  1  0
  4 38  1  0
  5 39  1  0
  8 40  1  0
  8 41  1  0
  8 42  1  0
 10 43  1  0
 12 44  1  0
 12 45  1  0
 17 46  1  0
 21 47  1  0
 22 48  1  0
 23 49  1  0
 28 50  1  0
 28 51  1  0
 30 52  1  0
 31 53  1  0
 32 54  1  0
 33 55  1  0
 34 56  1  0
M  END
$$$$
