
     RDKit          3D

 61 64  0  0  0  0  0  0  0  0999 V2000
    8.2139   -0.4242   -1.6042 C   0  0  0  0  0  0  0  0  0  0  0  0
    6.7553   -0.7976   -1.5572 C   0  0  0  0  0  0  0  0  0  0  0  0
    6.2349   -1.6219   -2.5662 C   0  0  0  0  0  0  0  0  0  0  0  0
    4.8989   -2.0077   -2.5475 C   0  0  0  0  0  0  0  0  0  0  0  0
    4.0651   -1.5754   -1.5182 C   0  0  0  0  0  0  0  0  0  0  0  0
    4.5469   -0.7397   -0.4982 C   0  0  0  0  0  0  0  0  0  0  0  0
    3.7145   -0.3284    0.5602 N   0  0  0  0  0  0  0  0  0  0  0  0
    3.5662   -1.3739    1.5970 C   0  0  0  0  0  0  0  0  0  0  0  0
    2.5467   -0.9423    2.6633 C   0  0  0  0  0  0  0  0  0  0  0  0
    1.2326   -0.6175    2.0976 N   0  0  0  0  0  0  0  0  0  0  0  0
    0.1518   -0.5409    2.9626 C   0  0  0  0  0  0  0  0  0  0  0  0
    0.2174   -0.7400    4.1731 O   0  0  0  0  0  0  0  0  0  0  0  0
   -1.1624   -0.1890    2.3989 C   0  0  0  0  0  0  0  0  0  0  0  0
   -2.0038   -1.1989    1.9213 C   0  0  0  0  0  0  0  0  0  0  0  0
   -3.2447   -0.8534    1.3822 C   0  0  0  0  0  0  0  0  0  0  0  0
   -3.6371    0.4889    1.3367 C   0  0  0  0  0  0  0  0  0  0  0  0
   -4.8881    0.8453    0.7358 N   0  0  0  0  0  0  0  0  0  0  0  0
   -4.8732    0.8283   -0.9686 S   0  0  0  0  0  6  0  0  0  0  0  0
   -4.1538    2.0084   -1.3967 O   0  0  0  0  0  0  0  0  0  0  0  0
   -4.5519   -0.4991   -1.4448 O   0  0  0  0  0  0  0  0  0  0  0  0
   -6.4818    1.0691   -1.4813 C   0  0  0  0  0  0  0  0  0  0  0  0
   -6.9818    2.0272   -2.3911 C   0  0  0  0  0  0  0  0  0  0  0  0
   -6.2651    3.0711   -3.1621 C   0  0  0  0  0  0  0  0  0  0  0  0
   -8.3115    1.9057   -2.5217 N   0  0  0  0  0  0  0  0  0  0  0  0
   -8.6781    0.8365   -1.7250 O   0  0  0  0  0  0  0  0  0  0  0  0
   -7.5771    0.3308   -1.1035 C   0  0  0  0  0  0  0  0  0  0  0  0
   -7.7996   -0.8441   -0.2373 C   0  0  0  0  0  0  0  0  0  0  0  0
   -2.7902    1.4946    1.8187 C   0  0  0  0  0  0  0  0  0  0  0  0
   -1.5510    1.1548    2.3635 C   0  0  0  0  0  0  0  0  0  0  0  0
    1.1980   -0.3395    0.6524 C   0  0  0  0  0  0  0  0  0  0  0  0
    2.4730    0.3716    0.1620 C   0  0  0  0  0  0  0  0  0  0  0  0
    5.9027   -0.3317   -0.5268 C   0  0  0  0  0  0  0  0  0  0  0  0
    6.4462    0.5543    0.5694 C   0  0  0  0  0  0  0  0  0  0  0  0
    8.7413   -0.9603   -2.4003 H   0  0  0  0  0  0  0  0  0  0  0  0
    8.3251    0.6497   -1.7918 H   0  0  0  0  0  0  0  0  0  0  0  0
    8.7035   -0.6872   -0.6588 H   0  0  0  0  0  0  0  0  0  0  0  0
    6.8770   -1.9765   -3.3703 H   0  0  0  0  0  0  0  0  0  0  0  0
    4.5091   -2.6533   -3.3304 H   0  0  0  0  0  0  0  0  0  0  0  0
    3.0315   -1.9087   -1.5105 H   0  0  0  0  0  0  0  0  0  0  0  0
    4.5333   -1.5578    2.0810 H   0  0  0  0  0  0  0  0  0  0  0  0
    3.2305   -2.3179    1.1465 H   0  0  0  0  0  0  0  0  0  0  0  0
    2.4311   -1.7294    3.4167 H   0  0  0  0  0  0  0  0  0  0  0  0
    2.9011   -0.0414    3.1791 H   0  0  0  0  0  0  0  0  0  0  0  0
   -1.6991   -2.2415    1.9710 H   0  0  0  0  0  0  0  0  0  0  0  0
   -3.9012   -1.6338    0.9997 H   0  0  0  0  0  0  0  0  0  0  0  0
   -5.2148    1.7636    1.0465 H   0  0  0  0  0  0  0  0  0  0  0  0
   -5.3979    2.6419   -3.6763 H   0  0  0  0  0  0  0  0  0  0  0  0
   -5.9206    3.8741   -2.4947 H   0  0  0  0  0  0  0  0  0  0  0  0
   -6.9106    3.5222   -3.9277 H   0  0  0  0  0  0  0  0  0  0  0  0
   -7.1062   -0.8592    0.6081 H   0  0  0  0  0  0  0  0  0  0  0  0
   -7.6620   -1.7664   -0.8094 H   0  0  0  0  0  0  0  0  0  0  0  0
   -8.8177   -0.8422    0.1674 H   0  0  0  0  0  0  0  0  0  0  0  0
   -3.0769    2.5434    1.7718 H   0  0  0  0  0  0  0  0  0  0  0  0
   -0.8898    1.9284    2.7496 H   0  0  0  0  0  0  0  0  0  0  0  0
    1.0898   -1.3080    0.1492 H   0  0  0  0  0  0  0  0  0  0  0  0
    0.3259    0.2639    0.3896 H   0  0  0  0  0  0  0  0  0  0  0  0
    2.5134    1.3678    0.6201 H   0  0  0  0  0  0  0  0  0  0  0  0
    2.4090    0.5339   -0.9208 H   0  0  0  0  0  0  0  0  0  0  0  0
    7.2050    1.2438    0.1858 H   0  0  0  0  0  0  0  0  0  0  0  0
    6.8891   -0.0592    1.3596 H   0  0  0  0  0  0  0  0  0  0  0  0
    5.6684    1.1888    1.0071 H   0  0  0  0  0  0  0  0  0  0  0  0
  1  2  1  0
  2  3  2  0
  3  4  1  0
  4  5  2  0
  5  6  1  0
  6  7  1  0
  7  8  1  0
  8  9  1  0
  9 10  1  0
 10 11  1  0
 11 12  2  0
 11 13  1  0
 13 14  2  0
 14 15  1  0
 15 16  2  0
 16 17  1  0
 17 18  1  0
 18 19  2  0
 18 20  2  0
 18 21  1  0
 21 22  1  0
 22 23  1  0
 22 24  2  0
 24 25  1  0
 25 26  1  0
 26 27  1  0
 16 28  1  0
 28 29  2  0
 10 30  1  0
 30 31  1  0
  6 32  2  0
 32 33  1  0
 32  2  1  0
 31  7  1  0
 29 13  1  0
 26 21  2  0
  1 34  1  0
  1 35  1  0
  1 36  1  0
  3 37  1  0
  4 38  1  0
  5 39  1  0
  8 40  1  0
  8 41  1  0
  9 42  1  0
  9 43  1  0
 14 44  1  0
 15 45  1  0
 17 46  1  0
 23 47  1  0
 23 48  1  0
 23 49  1  0
 27 50  1  0
 27 51  1  0
 27 52  1  0
 28 53  1  0
 29 54  1  0
 30 55  1  0
 30 56  1  0
 31 57  1  0
 31 58  1  0
 33 59  1  0
 33 60  1  0
 33 61  1  0
M  END
$$$$
