
     RDKit          3D

 56 59  0  0  0  0  0  0  0  0999 V2000
    8.1373   -1.6060    0.0582 C   0  0  0  0  0  0  0  0  0  0  0  0
    7.4271   -0.9005    1.0680 O   0  0  0  0  0  0  0  0  0  0  0  0
    6.1638   -0.4787    0.7583 C   0  0  0  0  0  0  0  0  0  0  0  0
    5.4996   -0.6952   -0.4465 C   0  0  0  0  0  0  0  0  0  0  0  0
    4.2038   -0.2016   -0.6320 C   0  0  0  0  0  0  0  0  0  0  0  0
    3.5584    0.5078    0.3906 C   0  0  0  0  0  0  0  0  0  0  0  0
    2.1804    1.0299    0.1551 C   0  0  0  0  0  0  0  0  0  0  0  0
    1.9392    2.1991    0.4474 O   0  0  0  0  0  0  0  0  0  0  0  0
    1.1425    0.0973   -0.4736 C   0  0  0  0  0  0  0  0  0  0  0  0
    0.9593   -1.2060    0.3310 C   0  0  0  0  0  0  0  0  0  0  0  0
   -0.3865   -1.2467    1.0474 C   0  0  0  0  0  0  0  0  0  0  0  0
   -1.5614   -1.0168    0.0858 C   0  0  0  0  0  0  0  0  0  0  0  0
   -1.2315   -0.1140   -1.0186 N   0  0  0  0  0  0  0  0  0  0  0  0
   -2.4048    0.4488   -1.6997 C   0  0  0  0  0  0  0  0  0  0  0  0
   -3.2113    1.4319   -0.8980 C   0  0  0  0  0  0  0  0  0  0  0  0
   -2.8982    2.7712   -0.7011 C   0  0  0  0  0  0  0  0  0  0  0  0
   -3.9016    3.3545    0.0838 C   0  0  0  0  0  0  0  0  0  0  0  0
   -4.8249    2.3713    0.3403 C   0  0  0  0  0  0  0  0  0  0  0  0
   -4.4380    1.1799   -0.2648 N   0  0  0  0  0  0  0  0  0  0  0  0
   -5.1896   -0.0533   -0.2193 C   0  0  0  0  0  0  0  0  0  0  0  0
   -6.4116   -0.1127    0.4543 C   0  0  0  0  0  0  0  0  0  0  0  0
   -7.1188   -1.3168    0.4876 C   0  0  0  0  0  0  0  0  0  0  0  0
   -6.5994   -2.4344   -0.1469 C   0  0  0  0  0  0  0  0  0  0  0  0
   -5.3874   -2.3005   -0.7929 C   0  0  0  0  0  0  0  0  0  0  0  0
   -4.6848   -1.1473   -0.8389 N   0  0  0  0  0  0  0  0  0  0  0  0
   -0.1903    0.8489   -0.6697 C   0  0  0  0  0  0  0  0  0  0  0  0
    4.2150    0.7288    1.6147 C   0  0  0  0  0  0  0  0  0  0  0  0
    3.5800    1.4911    2.7445 C   0  0  0  0  0  0  0  0  0  0  0  0
    5.5205    0.2331    1.7760 C   0  0  0  0  0  0  0  0  0  0  0  0
    9.1239   -1.8592    0.4583 H   0  0  0  0  0  0  0  0  0  0  0  0
    7.6314   -2.5427   -0.1980 H   0  0  0  0  0  0  0  0  0  0  0  0
    8.2878   -0.9817   -0.8288 H   0  0  0  0  0  0  0  0  0  0  0  0
    5.9624   -1.2352   -1.2660 H   0  0  0  0  0  0  0  0  0  0  0  0
    3.7219   -0.3628   -1.5925 H   0  0  0  0  0  0  0  0  0  0  0  0
    1.5126   -0.1652   -1.4733 H   0  0  0  0  0  0  0  0  0  0  0  0
    1.7570   -1.3613    1.0646 H   0  0  0  0  0  0  0  0  0  0  0  0
    1.0096   -2.0558   -0.3624 H   0  0  0  0  0  0  0  0  0  0  0  0
   -0.5117   -2.2087    1.5575 H   0  0  0  0  0  0  0  0  0  0  0  0
   -0.3957   -0.4736    1.8269 H   0  0  0  0  0  0  0  0  0  0  0  0
   -1.8697   -1.9799   -0.3374 H   0  0  0  0  0  0  0  0  0  0  0  0
   -2.3945   -0.6466    0.6921 H   0  0  0  0  0  0  0  0  0  0  0  0
   -2.0431    0.9797   -2.5926 H   0  0  0  0  0  0  0  0  0  0  0  0
   -3.0040   -0.3535   -2.1322 H   0  0  0  0  0  0  0  0  0  0  0  0
   -2.0152    3.2656   -1.0875 H   0  0  0  0  0  0  0  0  0  0  0  0
   -3.9516    4.3798    0.4268 H   0  0  0  0  0  0  0  0  0  0  0  0
   -5.7340    2.4491    0.9152 H   0  0  0  0  0  0  0  0  0  0  0  0
   -6.8493    0.7386    0.9595 H   0  0  0  0  0  0  0  0  0  0  0  0
   -8.0712   -1.3756    1.0078 H   0  0  0  0  0  0  0  0  0  0  0  0
   -7.1246   -3.3824   -0.1388 H   0  0  0  0  0  0  0  0  0  0  0  0
   -4.9299   -3.1403   -1.3080 H   0  0  0  0  0  0  0  0  0  0  0  0
   -0.4658    1.4211    0.2256 H   0  0  0  0  0  0  0  0  0  0  0  0
   -0.0466    1.5765   -1.4792 H   0  0  0  0  0  0  0  0  0  0  0  0
    3.5830    2.5636    2.5274 H   0  0  0  0  0  0  0  0  0  0  0  0
    2.5534    1.1511    2.9158 H   0  0  0  0  0  0  0  0  0  0  0  0
    4.1238    1.3357    3.6827 H   0  0  0  0  0  0  0  0  0  0  0  0
    6.0535    0.4011    2.7107 H   0  0  0  0  0  0  0  0  0  0  0  0
  1  2  1  0
  2  3  1  0
  3  4  2  0
  4  5  1  0
  5  6  2  0
  6  7  1  0
  7  8  2  0
  7  9  1  0
  9 10  1  0
 10 11  1  0
 11 12  1  0
 12 13  1  0
 13 14  1  0
 14 15  1  0
 15 16  2  0
 16 17  1  0
 17 18  2  0
 18 19  1  0
 19 20  1  0
 20 21  2  0
 21 22  1  0
 22 23  2  0
 23 24  1  0
 24 25  2  0
 13 26  1  0
  6 27  1  0
 27 28  1  0
 27 29  2  0
 29  3  1  0
 26  9  1  0
 19 15  1  0
 25 20  1  0
  1 30  1  0
  1 31  1  0
  1 32  1  0
  4 33  1  0
  5 34  1  0
  9 35  1  0
 10 36  1  0
 10 37  1  0
 11 38  1  0
 11 39  1  0
 12 40  1  0
 12 41  1  0
 14 42  1  0
 14 43  1  0
 16 44  1  0
 17 45  1  0
 18 46  1  0
 21 47  1  0
 22 48  1  0
 23 49  1  0
 24 50  1  0
 26 51  1  0
 26 52  1  0
 28 53  1  0
 28 54  1  0
 28 55  1  0
 29 56  1  0
M  END
$$$$
