
     RDKit          3D

 45 48  0  0  0  0  0  0  0  0999 V2000
    5.2417   -1.2994   -1.3763 O   0  0  0  0  0  0  0  0  0  0  0  0
    4.4466   -0.4065   -1.1071 C   0  0  0  0  0  0  0  0  0  0  0  0
    3.0816   -0.5431   -0.9327 N   0  0  0  0  0  0  0  0  0  0  0  0
    2.2844   -1.7106   -1.0835 C   0  0  0  0  0  0  0  0  0  0  0  0
    2.8323   -2.9294   -1.5068 C   0  0  0  0  0  0  0  0  0  0  0  0
    2.0379   -4.0703   -1.6469 C   0  0  0  0  0  0  0  0  0  0  0  0
    0.6794   -4.0131   -1.3689 C   0  0  0  0  0  0  0  0  0  0  0  0
    0.1112   -2.8102   -0.9528 C   0  0  0  0  0  0  0  0  0  0  0  0
    0.8932   -1.6456   -0.8057 C   0  0  0  0  0  0  0  0  0  0  0  0
    0.2563   -0.3989   -0.3804 C   0  0  0  0  0  0  0  0  0  0  0  0
    0.7740    0.8058   -0.2366 N   0  0  0  0  0  0  0  0  0  0  0  0
   -0.2508    1.6256    0.1823 N   0  0  0  0  0  0  0  0  0  0  0  0
   -1.3280    0.8726    0.2711 C   0  0  0  0  0  0  0  0  0  0  0  0
   -2.8808    1.4674    0.7660 S   0  0  0  0  0  0  0  0  0  0  0  0
   -3.8542   -0.0591    0.6975 C   0  0  0  0  0  0  0  0  0  0  0  0
   -5.2897    0.1803    1.0964 C   0  0  0  0  0  0  0  0  0  0  0  0
   -5.6836    0.0722    2.4393 C   0  0  0  0  0  0  0  0  0  0  0  0
   -7.0100    0.3060    2.8099 C   0  0  0  0  0  0  0  0  0  0  0  0
   -7.9487    0.6546    1.8416 C   0  0  0  0  0  0  0  0  0  0  0  0
   -9.5822    0.9420    2.2985 Cl  0  0  0  0  0  0  0  0  0  0  0  0
   -7.5722    0.7744    0.5059 C   0  0  0  0  0  0  0  0  0  0  0  0
   -6.2460    0.5407    0.1342 C   0  0  0  0  0  0  0  0  0  0  0  0
   -1.0799   -0.4307   -0.0740 O   0  0  0  0  0  0  0  0  0  0  0  0
    4.9781    0.9752   -0.9038 C   0  0  0  0  0  0  0  0  0  0  0  0
    6.2878    1.1180   -0.4256 C   0  0  0  0  0  0  0  0  0  0  0  0
    6.8283    2.3886   -0.2198 C   0  0  0  0  0  0  0  0  0  0  0  0
    6.0667    3.5225   -0.4983 C   0  0  0  0  0  0  0  0  0  0  0  0
    4.7685    3.3891   -0.9902 C   0  0  0  0  0  0  0  0  0  0  0  0
    4.2237    2.1194   -1.1989 C   0  0  0  0  0  0  0  0  0  0  0  0
    2.5872    0.2799   -0.5969 H   0  0  0  0  0  0  0  0  0  0  0  0
    3.8879   -3.0296   -1.7410 H   0  0  0  0  0  0  0  0  0  0  0  0
    2.4910   -5.0030   -1.9753 H   0  0  0  0  0  0  0  0  0  0  0  0
    0.0632   -4.9021   -1.4785 H   0  0  0  0  0  0  0  0  0  0  0  0
   -0.9572   -2.7935   -0.7473 H   0  0  0  0  0  0  0  0  0  0  0  0
   -3.8220   -0.4735   -0.3171 H   0  0  0  0  0  0  0  0  0  0  0  0
   -3.4113   -0.8104    1.3620 H   0  0  0  0  0  0  0  0  0  0  0  0
   -4.9586   -0.1900    3.2076 H   0  0  0  0  0  0  0  0  0  0  0  0
   -7.3023    0.2190    3.8530 H   0  0  0  0  0  0  0  0  0  0  0  0
   -8.3031    1.0530   -0.2486 H   0  0  0  0  0  0  0  0  0  0  0  0
   -5.9637    0.6475   -0.9114 H   0  0  0  0  0  0  0  0  0  0  0  0
    6.8894    0.2370   -0.2096 H   0  0  0  0  0  0  0  0  0  0  0  0
    7.8435    2.4919    0.1549 H   0  0  0  0  0  0  0  0  0  0  0  0
    6.4883    4.5122   -0.3393 H   0  0  0  0  0  0  0  0  0  0  0  0
    4.1812    4.2756   -1.2186 H   0  0  0  0  0  0  0  0  0  0  0  0
    3.2211    2.0483   -1.6122 H   0  0  0  0  0  0  0  0  0  0  0  0
  1  2  2  0
  2  3  1  0
  3  4  1  0
  4  5  2  0
  5  6  1  0
  6  7  2  0
  7  8  1  0
  8  9  2  0
  9 10  1  0
 10 11  2  0
 11 12  1  0
 12 13  2  0
 13 14  1  0
 14 15  1  0
 15 16  1  0
 16 17  2  0
 17 18  1  0
 18 19  2  0
 19 20  1  0
 19 21  1  0
 21 22  2  0
 13 23  1  0
  2 24  1  0
 24 25  2  0
 25 26  1  0
 26 27  2  0
 27 28  1  0
 28 29  2  0
  9  4  1  0
 23 10  1  0
 29 24  1  0
 22 16  1  0
  3 30  1  0
  5 31  1  0
  6 32  1  0
  7 33  1  0
  8 34  1  0
 15 35  1  0
 15 36  1  0
 17 37  1  0
 18 38  1  0
 21 39  1  0
 22 40  1  0
 25 41  1  0
 26 42  1  0
 27 43  1  0
 28 44  1  0
 29 45  1  0
M  END
$$$$
