
     RDKit          3D

 41 44  0  0  0  0  0  0  0  0999 V2000
    4.5395    2.3384   -1.5569 C   0  0  0  0  0  0  0  0  0  0  0  0
    4.3254    2.1303   -0.0656 C   0  0  0  0  0  0  0  0  0  0  0  0
    4.0768    0.6802    0.2677 C   0  0  0  0  0  0  0  0  0  0  0  0
    5.1486   -0.1741    0.5539 C   0  0  0  0  0  0  0  0  0  0  0  0
    4.9489   -1.5274    0.8502 C   0  0  0  0  0  0  0  0  0  0  0  0
    3.6343   -2.0043    0.8456 C   0  0  0  0  0  0  0  0  0  0  0  0
    3.1450   -3.2673    1.0956 N   0  0  0  0  0  0  0  0  0  0  0  0
    1.7813   -3.2887    0.9788 C   0  0  0  0  0  0  0  0  0  0  0  0
    1.1230   -4.4220    1.1896 O   0  0  0  0  0  0  0  0  0  0  0  0
    1.3819   -2.0124    0.6418 C   0  0  0  0  0  0  0  0  0  0  0  0
    0.0859   -1.5236    0.4163 N   0  0  0  0  0  0  0  0  0  0  0  0
   -0.7905   -2.4064    0.3186 N   0  0  0  0  0  0  0  0  0  0  0  0
   -2.0487   -1.9364    0.0861 C   0  0  0  0  0  0  0  0  0  0  0  0
   -2.4669   -0.6861    0.0218 N   0  0  0  0  0  0  0  0  0  0  0  0
   -3.8297   -0.6151   -0.2322 C   0  0  0  0  0  0  0  0  0  0  0  0
   -4.5021    0.6798   -0.3503 C   0  0  0  0  0  0  0  0  0  0  0  0
   -5.8987    0.8035   -0.4038 C   0  0  0  0  0  0  0  0  0  0  0  0
   -6.5014    2.0612   -0.5180 C   0  0  0  0  0  0  0  0  0  0  0  0
   -5.7181    3.2112   -0.5764 C   0  0  0  0  0  0  0  0  0  0  0  0
   -4.3314    3.1072   -0.5201 C   0  0  0  0  0  0  0  0  0  0  0  0
   -3.7293    1.8512   -0.4069 C   0  0  0  0  0  0  0  0  0  0  0  0
   -4.4440   -1.8436   -0.3676 C   0  0  0  0  0  0  0  0  0  0  0  0
   -3.3032   -3.1040   -0.1613 S   0  0  0  0  0  0  0  0  0  0  0  0
    2.5379   -1.1884    0.5590 C   0  0  0  0  0  0  0  0  0  0  0  0
    2.7659    0.1725    0.2643 C   0  0  0  0  0  0  0  0  0  0  0  0
    4.7166    3.3973   -1.7695 H   0  0  0  0  0  0  0  0  0  0  0  0
    3.6636    2.0186   -2.1322 H   0  0  0  0  0  0  0  0  0  0  0  0
    5.4036    1.7697   -1.9171 H   0  0  0  0  0  0  0  0  0  0  0  0
    5.1997    2.4913    0.4889 H   0  0  0  0  0  0  0  0  0  0  0  0
    3.4783    2.7379    0.2754 H   0  0  0  0  0  0  0  0  0  0  0  0
    6.1660    0.2135    0.5474 H   0  0  0  0  0  0  0  0  0  0  0  0
    5.7895   -2.1771    1.0719 H   0  0  0  0  0  0  0  0  0  0  0  0
    3.7040   -4.0730    1.3340 H   0  0  0  0  0  0  0  0  0  0  0  0
    0.1788   -4.2120    1.0568 H   0  0  0  0  0  0  0  0  0  0  0  0
   -6.5468   -0.0661   -0.3489 H   0  0  0  0  0  0  0  0  0  0  0  0
   -7.5849    2.1416   -0.5571 H   0  0  0  0  0  0  0  0  0  0  0  0
   -6.1876    4.1875   -0.6627 H   0  0  0  0  0  0  0  0  0  0  0  0
   -3.7139    4.0009   -0.5623 H   0  0  0  0  0  0  0  0  0  0  0  0
   -2.6428    1.7926   -0.3632 H   0  0  0  0  0  0  0  0  0  0  0  0
   -5.4769   -2.0777   -0.5773 H   0  0  0  0  0  0  0  0  0  0  0  0
    1.9225    0.8190    0.0347 H   0  0  0  0  0  0  0  0  0  0  0  0
  1  2  1  0
  2  3  1  0
  3  4  2  0
  4  5  1  0
  5  6  2  0
  6  7  1  0
  7  8  1  0
  8  9  1  0
  8 10  2  0
 10 11  1  0
 11 12  2  3
 12 13  1  0
 13 14  2  0
 14 15  1  0
 15 16  1  0
 16 17  2  0
 17 18  1  0
 18 19  2  0
 19 20  1  0
 20 21  2  0
 15 22  2  0
 22 23  1  0
 10 24  1  0
 24 25  2  0
 25  3  1  0
 24  6  1  0
 23 13  1  0
 21 16  1  0
  1 26  1  0
  1 27  1  0
  1 28  1  0
  2 29  1  0
  2 30  1  0
  4 31  1  0
  5 32  1  0
  7 33  1  0
  9 34  1  0
 17 35  1  0
 18 36  1  0
 19 37  1  0
 20 38  1  0
 21 39  1  0
 22 40  1  0
 25 41  1  0
M  END
$$$$
