
     RDKit          3D

 47 49  0  0  0  0  0  0  0  0999 V2000
    2.2823   -2.2353   -1.8990 O   0  0  0  0  0  0  0  0  0  0  0  0
    2.1125   -1.7291   -0.7965 C   0  0  0  0  0  0  0  0  0  0  0  0
    0.7485   -1.4742   -0.1972 C   0  0  0  0  0  0  0  0  0  0  0  0
   -0.3574   -1.8630   -1.1748 C   0  0  0  0  0  0  0  0  0  0  0  0
   -1.6889   -1.6007   -0.6197 N   0  0  0  0  0  0  0  0  0  0  0  0
   -2.2140   -0.3252   -0.7390 C   0  0  0  0  0  0  0  0  0  0  0  0
   -1.6555    0.6351   -1.2519 O   0  0  0  0  0  0  0  0  0  0  0  0
   -3.5625   -0.2609   -0.1176 C   0  0  0  0  0  0  0  0  0  0  0  0
   -4.2837    0.8685   -0.1186 C   0  0  0  0  0  0  0  0  0  0  0  0
   -5.6114    1.0466    0.4778 C   0  0  0  0  0  0  0  0  0  0  0  0
   -6.7300    0.3620   -0.0175 C   0  0  0  0  0  0  0  0  0  0  0  0
   -7.9868    0.5612    0.5573 C   0  0  0  0  0  0  0  0  0  0  0  0
   -8.1228    1.4484    1.6183 C   0  0  0  0  0  0  0  0  0  0  0  0
   -9.3289    1.6398    2.1681 F   0  0  0  0  0  0  0  0  0  0  0  0
   -7.0263    2.1434    2.1145 C   0  0  0  0  0  0  0  0  0  0  0  0
   -5.7684    1.9456    1.5415 C   0  0  0  0  0  0  0  0  0  0  0  0
   -3.9644   -1.7779    0.5773 S   0  0  0  0  0  0  0  0  0  0  0  0
   -2.4442   -2.5148    0.0853 C   0  0  0  0  0  0  0  0  0  0  0  0
   -2.0572   -4.0900    0.4725 S   0  0  0  0  0  0  0  0  0  0  0  0
    3.1456   -1.3215    0.0211 N   0  0  0  0  0  0  0  0  0  0  0  0
    4.5326   -1.5878   -0.3062 C   0  0  0  0  0  0  0  0  0  0  0  0
    5.0623   -0.7797   -1.4926 C   0  0  0  0  0  0  0  0  0  0  0  0
    4.8564    0.7304   -1.3751 C   0  0  0  0  0  0  0  0  0  0  0  0
    5.4345    1.3075   -0.1808 N   0  0  0  0  0  0  0  0  0  0  0  0
    6.7657    1.4529    0.0893 C   0  0  0  0  0  0  0  0  0  0  0  0
    6.8113    2.0211    1.3414 C   0  0  0  0  0  0  0  0  0  0  0  0
    5.5460    2.2300    1.8275 N   0  0  0  0  0  0  0  0  0  0  0  0
    4.7381    1.8102    0.8806 C   0  0  0  0  0  0  0  0  0  0  0  0
    0.6732   -0.4114    0.0608 H   0  0  0  0  0  0  0  0  0  0  0  0
    0.6612   -2.0520    0.7298 H   0  0  0  0  0  0  0  0  0  0  0  0
   -0.2726   -2.9188   -1.4527 H   0  0  0  0  0  0  0  0  0  0  0  0
   -0.2505   -1.2863   -2.1023 H   0  0  0  0  0  0  0  0  0  0  0  0
   -3.8731    1.7671   -0.5779 H   0  0  0  0  0  0  0  0  0  0  0  0
   -6.6338   -0.3279   -0.8528 H   0  0  0  0  0  0  0  0  0  0  0  0
   -8.8580    0.0326    0.1837 H   0  0  0  0  0  0  0  0  0  0  0  0
   -7.1574    2.8336    2.9418 H   0  0  0  0  0  0  0  0  0  0  0  0
   -4.9146    2.4935    1.9344 H   0  0  0  0  0  0  0  0  0  0  0  0
    2.9330   -1.0957    0.9866 H   0  0  0  0  0  0  0  0  0  0  0  0
    4.6302   -2.6582   -0.5213 H   0  0  0  0  0  0  0  0  0  0  0  0
    5.1209   -1.3804    0.5938 H   0  0  0  0  0  0  0  0  0  0  0  0
    4.5812   -1.1182   -2.4176 H   0  0  0  0  0  0  0  0  0  0  0  0
    6.1315   -0.9982   -1.6058 H   0  0  0  0  0  0  0  0  0  0  0  0
    3.7896    0.9814   -1.3920 H   0  0  0  0  0  0  0  0  0  0  0  0
    5.3192    1.2383   -2.2295 H   0  0  0  0  0  0  0  0  0  0  0  0
    7.5428    1.1503   -0.5984 H   0  0  0  0  0  0  0  0  0  0  0  0
    7.6867    2.2920    1.9175 H   0  0  0  0  0  0  0  0  0  0  0  0
    3.6570    1.8417    0.9161 H   0  0  0  0  0  0  0  0  0  0  0  0
  1  2  2  0
  2  3  1  0
  3  4  1  0
  4  5  1  0
  5  6  1  0
  6  7  2  0
  6  8  1  0
  8  9  2  3
  9 10  1  0
 10 11  2  0
 11 12  1  0
 12 13  2  0
 13 14  1  0
 13 15  1  0
 15 16  2  0
  8 17  1  0
 17 18  1  0
 18 19  2  0
  2 20  1  0
 20 21  1  0
 21 22  1  0
 22 23  1  0
 23 24  1  0
 24 25  1  0
 25 26  2  0
 26 27  1  0
 27 28  2  0
 18  5  1  0
 28 24  1  0
 16 10  1  0
  3 29  1  0
  3 30  1  0
  4 31  1  0
  4 32  1  0
  9 33  1  0
 11 34  1  0
 12 35  1  0
 15 36  1  0
 16 37  1  0
 20 38  1  0
 21 39  1  0
 21 40  1  0
 22 41  1  0
 22 42  1  0
 23 43  1  0
 23 44  1  0
 25 45  1  0
 26 46  1  0
 28 47  1  0
M  END
$$$$
