
     RDKit          3D

 32 35  0  0  0  0  0  0  0  0999 V2000
   -3.7399    2.8982   -0.0488 C   0  0  0  0  0  0  0  0  0  0  0  0
   -4.8133    1.9815   -0.2173 O   0  0  0  0  0  0  0  0  0  0  0  0
   -4.4935    0.6356   -0.0698 C   0  0  0  0  0  0  0  0  0  0  0  0
   -5.6202   -0.2001   -0.0163 C   0  0  0  0  0  0  0  0  0  0  0  0
   -5.4875   -1.5763    0.1262 C   0  0  0  0  0  0  0  0  0  0  0  0
   -4.2244   -2.1603    0.2136 C   0  0  0  0  0  0  0  0  0  0  0  0
   -3.0956   -1.3252    0.1488 C   0  0  0  0  0  0  0  0  0  0  0  0
   -1.4381   -1.7727    0.2243 S   0  0  0  0  0  0  0  0  0  0  0  0
   -0.9618   -0.1305    0.0400 C   0  0  0  0  0  0  0  0  0  0  0  0
    0.3130    0.3149   -0.0103 N   0  0  0  0  0  0  0  0  0  0  0  0
    1.4662   -0.3608    0.0982 C   0  0  0  0  0  0  0  0  0  0  0  0
    1.7415   -1.6266    0.3229 N   0  0  0  0  0  0  0  0  0  0  0  0
    3.1161   -1.7401    0.3326 N   0  0  0  0  0  0  0  0  0  0  0  0
    3.6012   -0.5331    0.1037 C   0  0  0  0  0  0  0  0  0  0  0  0
    5.0023   -0.2318    0.0310 C   0  0  0  0  0  0  0  0  0  0  0  0
    6.0528   -1.1115    0.2160 C   0  0  0  0  0  0  0  0  0  0  0  0
    7.3249   -0.4834    0.0705 C   0  0  0  0  0  0  0  0  0  0  0  0
    7.2049    0.8589   -0.2072 C   0  0  0  0  0  0  0  0  0  0  0  0
    5.5688    1.3506   -0.3083 S   0  0  0  0  0  0  0  0  0  0  0  0
    2.5963    0.3946   -0.0448 O   0  0  0  0  0  0  0  0  0  0  0  0
   -1.9640    0.7121   -0.0626 N   0  0  0  0  0  0  0  0  0  0  0  0
   -3.1946    0.0611    0.0045 C   0  0  0  0  0  0  0  0  0  0  0  0
   -4.1650    3.9071   -0.0292 H   0  0  0  0  0  0  0  0  0  0  0  0
   -3.0516    2.8522   -0.8967 H   0  0  0  0  0  0  0  0  0  0  0  0
   -3.2238    2.7472    0.9055 H   0  0  0  0  0  0  0  0  0  0  0  0
   -6.6123    0.2399   -0.0853 H   0  0  0  0  0  0  0  0  0  0  0  0
   -6.3763   -2.2031    0.1695 H   0  0  0  0  0  0  0  0  0  0  0  0
   -4.1167   -3.2359    0.3271 H   0  0  0  0  0  0  0  0  0  0  0  0
    0.3986    1.3132   -0.1534 H   0  0  0  0  0  0  0  0  0  0  0  0
    5.9161   -2.1622    0.4528 H   0  0  0  0  0  0  0  0  0  0  0  0
    8.2763   -0.9915    0.1751 H   0  0  0  0  0  0  0  0  0  0  0  0
    7.9996    1.5781   -0.3538 H   0  0  0  0  0  0  0  0  0  0  0  0
  1  2  1  0
  2  3  1  0
  3  4  2  0
  4  5  1  0
  5  6  2  0
  6  7  1  0
  7  8  1  0
  8  9  1  0
  9 10  1  0
 10 11  1  0
 11 12  2  0
 12 13  1  0
 13 14  2  0
 14 15  1  0
 15 16  2  0
 16 17  1  0
 17 18  2  0
 18 19  1  0
 14 20  1  0
  9 21  2  0
 21 22  1  0
 22  3  1  0
 22  7  2  0
 20 11  1  0
 19 15  1  0
  1 23  1  0
  1 24  1  0
  1 25  1  0
  4 26  1  0
  5 27  1  0
  6 28  1  0
 10 29  1  0
 16 30  1  0
 17 31  1  0
 18 32  1  0
M  END
$$$$
