
     RDKit          3D

 41 44  0  0  0  0  0  0  0  0999 V2000
    5.8322   -1.6234   -1.7884 Cl  0  0  0  0  0  0  0  0  0  0  0  0
    4.5345   -1.0413   -0.8206 C   0  0  0  0  0  0  0  0  0  0  0  0
    3.6512   -1.9424   -0.2315 C   0  0  0  0  0  0  0  0  0  0  0  0
    2.5965   -1.4688    0.5519 C   0  0  0  0  0  0  0  0  0  0  0  0
    2.4178   -0.0900    0.7501 C   0  0  0  0  0  0  0  0  0  0  0  0
    1.2691    0.4198    1.5878 C   0  0  0  0  0  0  0  0  0  0  0  0
   -0.0150    0.1771    0.9522 N   0  0  0  0  0  0  0  0  0  0  0  0
   -0.8136   -0.8132    1.4028 N   0  0  0  0  0  0  0  0  0  0  0  0
   -1.8423   -0.7582    0.5421 C   0  0  0  0  0  0  0  0  0  0  0  0
   -2.9945   -1.6541    0.5843 C   0  0  0  0  0  0  0  0  0  0  0  0
   -4.0250   -1.5261   -0.3586 C   0  0  0  0  0  0  0  0  0  0  0  0
   -5.1310   -2.3797   -0.3261 C   0  0  0  0  0  0  0  0  0  0  0  0
   -5.2186   -3.3706    0.6499 C   0  0  0  0  0  0  0  0  0  0  0  0
   -4.2024   -3.5095    1.5935 C   0  0  0  0  0  0  0  0  0  0  0  0
   -3.0962   -2.6560    1.5610 C   0  0  0  0  0  0  0  0  0  0  0  0
   -1.7182    0.2342   -0.4051 N   0  0  0  0  0  0  0  0  0  0  0  0
   -0.5773    0.8269   -0.1172 C   0  0  0  0  0  0  0  0  0  0  0  0
    0.0171    1.9445   -0.8366 C   0  0  0  0  0  0  0  0  0  0  0  0
    0.4659    1.7645   -2.1502 C   0  0  0  0  0  0  0  0  0  0  0  0
    1.0597    2.8205   -2.8436 C   0  0  0  0  0  0  0  0  0  0  0  0
    1.1973    4.0659   -2.2322 C   0  0  0  0  0  0  0  0  0  0  0  0
    0.7353    4.2596   -0.9310 C   0  0  0  0  0  0  0  0  0  0  0  0
    0.1432    3.2034   -0.2354 C   0  0  0  0  0  0  0  0  0  0  0  0
    3.3190    0.8043    0.1523 C   0  0  0  0  0  0  0  0  0  0  0  0
    4.3729    0.3294   -0.6320 C   0  0  0  0  0  0  0  0  0  0  0  0
    3.7737   -3.0120   -0.3802 H   0  0  0  0  0  0  0  0  0  0  0  0
    1.9065   -2.1833    1.0005 H   0  0  0  0  0  0  0  0  0  0  0  0
    1.2698   -0.0800    2.5640 H   0  0  0  0  0  0  0  0  0  0  0  0
    1.3499    1.4943    1.7818 H   0  0  0  0  0  0  0  0  0  0  0  0
   -3.9699   -0.7566   -1.1266 H   0  0  0  0  0  0  0  0  0  0  0  0
   -5.9219   -2.2687   -1.0633 H   0  0  0  0  0  0  0  0  0  0  0  0
   -6.0789   -4.0343    0.6751 H   0  0  0  0  0  0  0  0  0  0  0  0
   -4.2685   -4.2814    2.3557 H   0  0  0  0  0  0  0  0  0  0  0  0
   -2.3112   -2.7768    2.3046 H   0  0  0  0  0  0  0  0  0  0  0  0
    0.3562    0.7968   -2.6364 H   0  0  0  0  0  0  0  0  0  0  0  0
    1.4080    2.6715   -3.8625 H   0  0  0  0  0  0  0  0  0  0  0  0
    1.6528    4.8897   -2.7763 H   0  0  0  0  0  0  0  0  0  0  0  0
    0.8256    5.2368   -0.4631 H   0  0  0  0  0  0  0  0  0  0  0  0
   -0.2333    3.3749    0.7704 H   0  0  0  0  0  0  0  0  0  0  0  0
    3.2041    1.8792    0.2804 H   0  0  0  0  0  0  0  0  0  0  0  0
    5.0598    1.0329   -1.0951 H   0  0  0  0  0  0  0  0  0  0  0  0
  1  2  1  0
  2  3  2  0
  3  4  1  0
  4  5  2  0
  5  6  1  0
  6  7  1  0
  7  8  1  0
  8  9  2  0
  9 10  1  0
 10 11  2  0
 11 12  1  0
 12 13  2  0
 13 14  1  0
 14 15  2  0
  9 16  1  0
 16 17  2  0
 17 18  1  0
 18 19  2  0
 19 20  1  0
 20 21  2  0
 21 22  1  0
 22 23  2  0
  5 24  1  0
 24 25  2  0
 25  2  1  0
 17  7  1  0
 23 18  1  0
 15 10  1  0
  3 26  1  0
  4 27  1  0
  6 28  1  0
  6 29  1  0
 11 30  1  0
 12 31  1  0
 13 32  1  0
 14 33  1  0
 15 34  1  0
 19 35  1  0
 20 36  1  0
 21 37  1  0
 22 38  1  0
 23 39  1  0
 24 40  1  0
 25 41  1  0
M  END
$$$$
