
     RDKit          3D

 66 68  0  0  0  0  0  0  0  0999 V2000
   -2.4879   -5.5175    1.9978 C   0  0  0  0  0  0  0  0  0  0  0  0
   -2.2687   -4.4330    0.9476 C   0  0  0  0  0  0  0  0  0  0  0  0
   -2.0345   -3.0926    1.5125 N   0  0  0  0  0  0  0  0  0  0  0  0
   -3.1355   -2.5948    2.3490 C   0  0  0  0  0  0  0  0  0  0  0  0
   -4.4593   -2.3350    1.6387 C   0  0  0  0  0  0  0  0  0  0  0  0
   -1.6117   -2.1654    0.4433 C   0  0  0  0  0  0  0  0  0  0  0  0
   -1.1525   -0.7851    0.9514 C   0  0  0  0  0  0  0  0  0  0  0  0
   -0.6194    0.1113   -0.1990 C   0  0  0  0  0  0  0  0  0  0  0  0
    0.7071   -0.3755   -0.7742 C   0  0  0  0  0  0  0  0  0  0  0  0
    0.8120   -0.6791   -2.1347 C   0  0  0  0  0  0  0  0  0  0  0  0
    2.0253   -1.1168   -2.6875 C   0  0  0  0  0  0  0  0  0  0  0  0
    3.1911   -1.2684   -1.9185 C   0  0  0  0  0  0  0  0  0  0  0  0
    4.3945   -1.7214   -2.4713 N   0  0  0  0  0  0  0  0  0  0  0  0
    5.6236   -1.6005   -1.6904 C   0  0  0  0  0  0  0  0  0  0  0  0
    4.5595   -1.7056   -3.9230 C   0  0  0  0  0  0  0  0  0  0  0  0
    3.0563   -0.9790   -0.5503 C   0  0  0  0  0  0  0  0  0  0  0  0
    1.8489   -0.5358    0.0122 C   0  0  0  0  0  0  0  0  0  0  0  0
   -0.5920    1.6155    0.1036 C   0  0  0  0  0  0  0  0  0  0  0  0
   -0.9435    2.5348   -0.9030 C   0  0  0  0  0  0  0  0  0  0  0  0
   -1.3338    2.0582   -2.1321 O   0  0  0  0  0  0  0  0  0  0  0  0
   -0.4801    2.5288   -3.1778 C   0  0  0  0  0  0  0  0  0  0  0  0
   -0.9722    3.9173   -0.6646 C   0  0  0  0  0  0  0  0  0  0  0  0
   -0.5876    4.4336    0.5735 C   0  0  0  0  0  0  0  0  0  0  0  0
   -0.5713    5.7710    0.8837 O   0  0  0  0  0  0  0  0  0  0  0  0
   -0.9944    6.6860   -0.1214 C   0  0  0  0  0  0  0  0  0  0  0  0
   -0.1824    3.5473    1.5854 C   0  0  0  0  0  0  0  0  0  0  0  0
    0.2501    4.0177    2.9018 C   0  0  0  0  0  0  0  0  0  0  0  0
    0.6445    3.1539    3.8404 C   0  0  0  0  0  0  0  0  0  0  0  0
    0.6594    1.7058    3.6075 C   0  0  0  0  0  0  0  0  0  0  0  0
    1.0321    0.9288    4.4781 O   0  0  0  0  0  0  0  0  0  0  0  0
    0.2285    1.2812    2.3607 O   0  0  0  0  0  0  0  0  0  0  0  0
   -0.1918    2.1647    1.3359 C   0  0  0  0  0  0  0  0  0  0  0  0
   -3.4511   -5.4060    2.5039 H   0  0  0  0  0  0  0  0  0  0  0  0
   -2.4829   -6.5022    1.5196 H   0  0  0  0  0  0  0  0  0  0  0  0
   -1.6938   -5.5066    2.7518 H   0  0  0  0  0  0  0  0  0  0  0  0
   -1.3835   -4.7335    0.3718 H   0  0  0  0  0  0  0  0  0  0  0  0
   -3.1097   -4.4293    0.2436 H   0  0  0  0  0  0  0  0  0  0  0  0
   -3.3134   -3.2912    3.1766 H   0  0  0  0  0  0  0  0  0  0  0  0
   -2.8213   -1.6758    2.8559 H   0  0  0  0  0  0  0  0  0  0  0  0
   -4.8657   -3.2451    1.1882 H   0  0  0  0  0  0  0  0  0  0  0  0
   -4.3607   -1.5738    0.8593 H   0  0  0  0  0  0  0  0  0  0  0  0
   -5.1966   -1.9691    2.3607 H   0  0  0  0  0  0  0  0  0  0  0  0
   -2.4110   -2.0408   -0.2977 H   0  0  0  0  0  0  0  0  0  0  0  0
   -0.7663   -2.6225   -0.0857 H   0  0  0  0  0  0  0  0  0  0  0  0
   -0.3960   -0.9397    1.7279 H   0  0  0  0  0  0  0  0  0  0  0  0
   -2.0019   -0.2700    1.4161 H   0  0  0  0  0  0  0  0  0  0  0  0
   -1.3777   -0.0177   -0.9847 H   0  0  0  0  0  0  0  0  0  0  0  0
   -0.0539   -0.5847   -2.7863 H   0  0  0  0  0  0  0  0  0  0  0  0
    2.0237   -1.3437   -3.7495 H   0  0  0  0  0  0  0  0  0  0  0  0
    5.8366   -0.5526   -1.4510 H   0  0  0  0  0  0  0  0  0  0  0  0
    6.4850   -1.9939   -2.2422 H   0  0  0  0  0  0  0  0  0  0  0  0
    5.5661   -2.1856   -0.7659 H   0  0  0  0  0  0  0  0  0  0  0  0
    5.5508   -2.0716   -4.2133 H   0  0  0  0  0  0  0  0  0  0  0  0
    4.4534   -0.6900   -4.3216 H   0  0  0  0  0  0  0  0  0  0  0  0
    3.8394   -2.3715   -4.4116 H   0  0  0  0  0  0  0  0  0  0  0  0
    3.8934   -1.0950    0.1325 H   0  0  0  0  0  0  0  0  0  0  0  0
    1.8234   -0.3321    1.0797 H   0  0  0  0  0  0  0  0  0  0  0  0
   -0.6174    1.8718   -4.0424 H   0  0  0  0  0  0  0  0  0  0  0  0
    0.5766    2.4942   -2.8909 H   0  0  0  0  0  0  0  0  0  0  0  0
   -0.7640    3.5424   -3.4783 H   0  0  0  0  0  0  0  0  0  0  0  0
   -1.3132    4.5679   -1.4626 H   0  0  0  0  0  0  0  0  0  0  0  0
   -0.9121    7.6964    0.2911 H   0  0  0  0  0  0  0  0  0  0  0  0
   -2.0451    6.5208   -0.3883 H   0  0  0  0  0  0  0  0  0  0  0  0
   -0.3459    6.6343   -1.0038 H   0  0  0  0  0  0  0  0  0  0  0  0
    0.2480    5.0843    3.1016 H   0  0  0  0  0  0  0  0  0  0  0  0
    0.9723    3.4812    4.8198 H   0  0  0  0  0  0  0  0  0  0  0  0
  1  2  1  0
  2  3  1  0
  3  4  1  0
  4  5  1  0
  3  6  1  0
  6  7  1  0
  7  8  1  0
  8  9  1  0
  9 10  2  0
 10 11  1  0
 11 12  2  0
 12 13  1  0
 13 14  1  0
 13 15  1  0
 12 16  1  0
 16 17  2  0
  8 18  1  0
 18 19  2  0
 19 20  1  0
 20 21  1  0
 19 22  1  0
 22 23  2  0
 23 24  1  0
 24 25  1  0
 23 26  1  0
 26 27  1  0
 27 28  2  0
 28 29  1  0
 29 30  2  0
 29 31  1  0
 31 32  1  0
 17  9  1  0
 32 18  1  0
 32 26  2  0
  1 33  1  0
  1 34  1  0
  1 35  1  0
  2 36  1  0
  2 37  1  0
  4 38  1  0
  4 39  1  0
  5 40  1  0
  5 41  1  0
  5 42  1  0
  6 43  1  0
  6 44  1  0
  7 45  1  0
  7 46  1  0
  8 47  1  0
 10 48  1  0
 11 49  1  0
 14 50  1  0
 14 51  1  0
 14 52  1  0
 15 53  1  0
 15 54  1  0
 15 55  1  0
 16 56  1  0
 17 57  1  0
 21 58  1  0
 21 59  1  0
 21 60  1  0
 22 61  1  0
 25 62  1  0
 25 63  1  0
 25 64  1  0
 27 65  1  0
 28 66  1  0
M  END
$$$$
