
     RDKit          3D

 68 72  0  0  0  0  0  0  0  0999 V2000
    8.1867    4.4648   -0.3884 C   0  0  0  0  0  0  0  0  0  0  0  0
    7.8539    3.2625    0.2942 O   0  0  0  0  0  0  0  0  0  0  0  0
    6.6368    2.7100    0.0109 C   0  0  0  0  0  0  0  0  0  0  0  0
    5.6899    3.2112   -0.8743 C   0  0  0  0  0  0  0  0  0  0  0  0
    4.4763    2.5317   -1.0711 C   0  0  0  0  0  0  0  0  0  0  0  0
    4.1640    1.3408   -0.3967 C   0  0  0  0  0  0  0  0  0  0  0  0
    2.9701    0.6708   -0.6003 N   0  0  0  0  0  0  0  0  0  0  0  0
    2.4357   -0.2632    0.4063 C   0  0  0  0  0  0  0  0  0  0  0  0
    0.8966   -0.3796    0.2997 C   0  0  0  0  0  0  0  0  0  0  0  0
    0.3675   -0.7732   -1.0302 N   0  0  0  0  0  0  0  0  0  0  0  0
    0.1485   -2.2244   -1.1305 C   0  0  0  0  0  0  0  0  0  0  0  0
   -1.0065   -2.7024   -0.2947 C   0  0  0  0  0  0  0  0  0  0  0  0
   -0.8869   -3.4405    0.8006 N   0  0  0  0  0  0  0  0  0  0  0  0
   -2.1589   -3.7300    1.1745 C   0  0  0  0  0  0  0  0  0  0  0  0
   -3.0758   -3.1806    0.3273 C   0  0  0  0  0  0  0  0  0  0  0  0
   -4.4735   -3.3981    0.4782 C   0  0  0  0  0  0  0  0  0  0  0  0
   -5.3420   -2.9951   -0.2863 O   0  0  0  0  0  0  0  0  0  0  0  0
   -4.7735   -4.1517    1.5906 N   0  0  0  0  0  0  0  0  0  0  0  0
   -3.8833   -4.7392    2.4700 C   0  0  0  0  0  0  0  0  0  0  0  0
   -4.3239   -5.4363    3.3840 O   0  0  0  0  0  0  0  0  0  0  0  0
   -2.5306   -4.5047    2.2521 N   0  0  0  0  0  0  0  0  0  0  0  0
   -1.5286   -5.0956    3.1166 C   0  0  0  0  0  0  0  0  0  0  0  0
   -2.3420   -2.4636   -0.5821 N   0  0  0  0  0  0  0  0  0  0  0  0
   -2.8827   -1.6605   -1.6641 C   0  0  0  0  0  0  0  0  0  0  0  0
   -3.5975   -0.3820   -1.2149 C   0  0  0  0  0  0  0  0  0  0  0  0
   -2.6576    0.6501   -0.5899 C   0  0  0  0  0  0  0  0  0  0  0  0
   -3.4019    1.8974   -0.1797 C   0  0  0  0  0  0  0  0  0  0  0  0
   -3.5295    2.9747   -1.0662 C   0  0  0  0  0  0  0  0  0  0  0  0
   -4.2337    4.1196   -0.6902 C   0  0  0  0  0  0  0  0  0  0  0  0
   -4.8196    4.1963    0.5719 C   0  0  0  0  0  0  0  0  0  0  0  0
   -4.7038    3.1277    1.4587 C   0  0  0  0  0  0  0  0  0  0  0  0
   -3.9998    1.9821    1.0849 C   0  0  0  0  0  0  0  0  0  0  0  0
    1.2854   -0.3313   -2.1071 C   0  0  0  0  0  0  0  0  0  0  0  0
    2.1200    0.9261   -1.7718 C   0  0  0  0  0  0  0  0  0  0  0  0
    5.1377    0.8620    0.4922 C   0  0  0  0  0  0  0  0  0  0  0  0
    6.3526    1.5315    0.6934 C   0  0  0  0  0  0  0  0  0  0  0  0
    9.1829    4.7731   -0.0568 H   0  0  0  0  0  0  0  0  0  0  0  0
    8.2311    4.3053   -1.4710 H   0  0  0  0  0  0  0  0  0  0  0  0
    7.4881    5.2691   -0.1351 H   0  0  0  0  0  0  0  0  0  0  0  0
    5.8526    4.1289   -1.4286 H   0  0  0  0  0  0  0  0  0  0  0  0
    3.7628    2.9784   -1.7576 H   0  0  0  0  0  0  0  0  0  0  0  0
    2.8948   -1.2495    0.2705 H   0  0  0  0  0  0  0  0  0  0  0  0
    2.6665    0.0863    1.4199 H   0  0  0  0  0  0  0  0  0  0  0  0
    0.4721    0.6087    0.5225 H   0  0  0  0  0  0  0  0  0  0  0  0
    0.5278   -1.0335    1.0978 H   0  0  0  0  0  0  0  0  0  0  0  0
    1.0538   -2.7756   -0.8436 H   0  0  0  0  0  0  0  0  0  0  0  0
   -0.0624   -2.5028   -2.1716 H   0  0  0  0  0  0  0  0  0  0  0  0
   -5.7475   -4.3556    1.7479 H   0  0  0  0  0  0  0  0  0  0  0  0
   -1.9830   -5.5926    3.9779 H   0  0  0  0  0  0  0  0  0  0  0  0
   -0.8552   -4.3132    3.4794 H   0  0  0  0  0  0  0  0  0  0  0  0
   -0.9594   -5.8345    2.5448 H   0  0  0  0  0  0  0  0  0  0  0  0
   -2.0803   -1.4161   -2.3655 H   0  0  0  0  0  0  0  0  0  0  0  0
   -3.5831   -2.3048   -2.2084 H   0  0  0  0  0  0  0  0  0  0  0  0
   -4.3990   -0.6198   -0.5063 H   0  0  0  0  0  0  0  0  0  0  0  0
   -4.0877    0.0605   -2.0919 H   0  0  0  0  0  0  0  0  0  0  0  0
   -2.1567    0.2326    0.2909 H   0  0  0  0  0  0  0  0  0  0  0  0
   -1.8683    0.9213   -1.3007 H   0  0  0  0  0  0  0  0  0  0  0  0
   -3.0814    2.9278   -2.0556 H   0  0  0  0  0  0  0  0  0  0  0  0
   -4.3268    4.9515   -1.3829 H   0  0  0  0  0  0  0  0  0  0  0  0
   -5.3684    5.0876    0.8640 H   0  0  0  0  0  0  0  0  0  0  0  0
   -5.1632    3.1856    2.4421 H   0  0  0  0  0  0  0  0  0  0  0  0
   -3.9214    1.1541    1.7856 H   0  0  0  0  0  0  0  0  0  0  0  0
    0.6919   -0.1382   -3.0080 H   0  0  0  0  0  0  0  0  0  0  0  0
    1.9947   -1.1335   -2.3549 H   0  0  0  0  0  0  0  0  0  0  0  0
    2.7280    1.1556   -2.6551 H   0  0  0  0  0  0  0  0  0  0  0  0
    1.4616    1.7812   -1.5782 H   0  0  0  0  0  0  0  0  0  0  0  0
    4.9831   -0.0653    1.0363 H   0  0  0  0  0  0  0  0  0  0  0  0
    7.0818    1.1200    1.3867 H   0  0  0  0  0  0  0  0  0  0  0  0
  1  2  1  0
  2  3  1  0
  3  4  2  0
  4  5  1  0
  5  6  2  0
  6  7  1  0
  7  8  1  0
  8  9  1  0
  9 10  1  0
 10 11  1  0
 11 12  1  0
 12 13  2  0
 13 14  1  0
 14 15  2  0
 15 16  1  0
 16 17  2  0
 16 18  1  0
 18 19  1  0
 19 20  2  0
 19 21  1  0
 21 22  1  0
 15 23  1  0
 23 24  1  0
 24 25  1  0
 25 26  1  0
 26 27  1  0
 27 28  2  0
 28 29  1  0
 29 30  2  0
 30 31  1  0
 31 32  2  0
 10 33  1  0
 33 34  1  0
  6 35  1  0
 35 36  2  0
 36  3  1  0
 34  7  1  0
 23 12  1  0
 32 27  1  0
 21 14  1  0
  1 37  1  0
  1 38  1  0
  1 39  1  0
  4 40  1  0
  5 41  1  0
  8 42  1  0
  8 43  1  0
  9 44  1  0
  9 45  1  0
 11 46  1  0
 11 47  1  0
 18 48  1  0
 22 49  1  0
 22 50  1  0
 22 51  1  0
 24 52  1  0
 24 53  1  0
 25 54  1  0
 25 55  1  0
 26 56  1  0
 26 57  1  0
 28 58  1  0
 29 59  1  0
 30 60  1  0
 31 61  1  0
 32 62  1  0
 33 63  1  0
 33 64  1  0
 34 65  1  0
 34 66  1  0
 35 67  1  0
 36 68  1  0
M  END
$$$$
