
     RDKit          3D

 38 40  0  0  0  0  0  0  0  0999 V2000
   -4.4113    1.6035   -0.0600 C   0  0  0  0  0  0  0  0  0  0  0  0
   -4.3748    0.1890   -0.2090 O   0  0  0  0  0  0  0  0  0  0  0  0
   -3.1510   -0.4139   -0.0708 C   0  0  0  0  0  0  0  0  0  0  0  0
   -1.9380    0.2278    0.1813 C   0  0  0  0  0  0  0  0  0  0  0  0
   -0.7410   -0.5105    0.3107 C   0  0  0  0  0  0  0  0  0  0  0  0
   -0.7802   -1.9153    0.1703 C   0  0  0  0  0  0  0  0  0  0  0  0
   -1.9968   -2.5548   -0.0972 C   0  0  0  0  0  0  0  0  0  0  0  0
   -3.1598   -1.8042   -0.2070 C   0  0  0  0  0  0  0  0  0  0  0  0
   -4.3323   -2.4639   -0.4609 O   0  0  0  0  0  0  0  0  0  0  0  0
    0.4852   -2.7354    0.2440 C   0  0  0  0  0  0  0  0  0  0  0  0
    1.5655   -1.9947    1.0207 C   0  0  0  0  0  0  0  0  0  0  0  0
    1.7450   -0.6515    0.4791 N   0  0  0  0  0  0  0  0  0  0  0  0
    2.8488   -0.4100   -0.3497 C   0  0  0  0  0  0  0  0  0  0  0  0
    3.5729   -1.3448   -0.7009 O   0  0  0  0  0  0  0  0  0  0  0  0
    3.1461    0.9473   -0.7844 C   0  0  0  0  0  0  0  0  0  0  0  0
    3.9370    1.3863   -1.8330 C   0  0  0  0  0  0  0  0  0  0  0  0
    3.9419    2.8002   -1.7874 C   0  0  0  0  0  0  0  0  0  0  0  0
    3.1761    3.1460   -0.7014 C   0  0  0  0  0  0  0  0  0  0  0  0
    2.6974    2.0367   -0.0832 O   0  0  0  0  0  0  0  0  0  0  0  0
    0.5720    0.2319    0.5844 C   0  0  0  0  0  0  0  0  0  0  0  0
    0.5458    0.9100    1.9597 C   0  0  0  0  0  0  0  0  0  0  0  0
   -3.8242    2.0959   -0.8415 H   0  0  0  0  0  0  0  0  0  0  0  0
   -5.4512    1.9250   -0.1719 H   0  0  0  0  0  0  0  0  0  0  0  0
   -4.0760    1.9051    0.9380 H   0  0  0  0  0  0  0  0  0  0  0  0
   -1.8904    1.3080    0.2761 H   0  0  0  0  0  0  0  0  0  0  0  0
   -2.0445   -3.6330   -0.2239 H   0  0  0  0  0  0  0  0  0  0  0  0
   -5.0091   -1.7618   -0.5096 H   0  0  0  0  0  0  0  0  0  0  0  0
    0.8257   -2.9345   -0.7791 H   0  0  0  0  0  0  0  0  0  0  0  0
    0.2880   -3.6968    0.7319 H   0  0  0  0  0  0  0  0  0  0  0  0
    2.5016   -2.5613    0.9956 H   0  0  0  0  0  0  0  0  0  0  0  0
    1.2846   -1.8966    2.0760 H   0  0  0  0  0  0  0  0  0  0  0  0
    4.4475    0.7442   -2.5390 H   0  0  0  0  0  0  0  0  0  0  0  0
    4.4522    3.4810   -2.4540 H   0  0  0  0  0  0  0  0  0  0  0  0
    2.8937    4.0892   -0.2550 H   0  0  0  0  0  0  0  0  0  0  0  0
    0.6337    0.9973   -0.1948 H   0  0  0  0  0  0  0  0  0  0  0  0
   -0.2370    1.6736    2.0158 H   0  0  0  0  0  0  0  0  0  0  0  0
    1.5013    1.3978    2.1798 H   0  0  0  0  0  0  0  0  0  0  0  0
    0.3557    0.1872    2.7610 H   0  0  0  0  0  0  0  0  0  0  0  0
  1  2  1  0
  2  3  1  0
  3  4  2  0
  4  5  1  0
  5  6  2  0
  6  7  1  0
  7  8  2  0
  8  9  1  0
  6 10  1  0
 10 11  1  0
 11 12  1  0
 12 13  1  0
 13 14  2  0
 13 15  1  0
 15 16  2  0
 16 17  1  0
 17 18  2  0
 18 19  1  0
 12 20  1  0
 20 21  1  0
  8  3  1  0
 19 15  1  0
 20  5  1  0
  1 22  1  0
  1 23  1  0
  1 24  1  0
  4 25  1  0
  7 26  1  0
  9 27  1  0
 10 28  1  0
 10 29  1  0
 11 30  1  0
 11 31  1  0
 16 32  1  0
 17 33  1  0
 18 34  1  0
 20 35  1  0
 21 36  1  0
 21 37  1  0
 21 38  1  0
M  END
$$$$
