
     RDKit          3D

 58 61  0  0  0  0  0  0  0  0999 V2000
    2.2767    0.7441    0.8022 O   0  0  0  0  0  0  0  0  0  0  0  0
    2.1603   -0.1531   -0.0261 C   0  0  0  0  0  0  0  0  0  0  0  0
    3.2083   -0.5794   -0.8149 N   0  0  0  0  0  0  0  0  0  0  0  0
    4.5296    0.0106   -0.7048 C   0  0  0  0  0  0  0  0  0  0  0  0
    5.3046   -0.5248    0.5016 C   0  0  0  0  0  0  0  0  0  0  0  0
    6.6848    0.0777    0.5917 C   0  0  0  0  0  0  0  0  0  0  0  0
    7.7914   -0.5849    0.0432 C   0  0  0  0  0  0  0  0  0  0  0  0
    9.0634   -0.0124    0.1149 C   0  0  0  0  0  0  0  0  0  0  0  0
    9.2327    1.2255    0.7315 C   0  0  0  0  0  0  0  0  0  0  0  0
   10.8004    1.9294    0.8177 Cl  0  0  0  0  0  0  0  0  0  0  0  0
    8.1410    1.8972    1.2764 C   0  0  0  0  0  0  0  0  0  0  0  0
    6.8693    1.3251    1.2052 C   0  0  0  0  0  0  0  0  0  0  0  0
    0.8560   -0.9125   -0.2671 C   0  0  0  0  0  0  0  0  0  0  0  0
    0.3374   -0.6711   -1.6903 C   0  0  0  0  0  0  0  0  0  0  0  0
   -0.9944   -1.3772   -1.9376 C   0  0  0  0  0  0  0  0  0  0  0  0
   -2.0594   -0.9800   -0.9043 C   0  0  0  0  0  0  0  0  0  0  0  0
   -3.3644   -1.7502   -1.1732 C   0  0  0  0  0  0  0  0  0  0  0  0
   -4.4563   -1.2663   -0.3422 N   0  0  0  0  0  0  0  0  0  0  0  0
   -5.1554   -0.0740   -0.4748 C   0  0  0  0  0  0  0  0  0  0  0  0
   -5.0737    0.6149   -1.6560 N   0  0  0  0  0  0  0  0  0  0  0  0
   -5.6938    1.8015   -1.9411 C   0  0  0  0  0  0  0  0  0  0  0  0
   -5.4514    2.4595   -3.4646 S   0  0  0  0  0  0  0  0  0  0  0  0
   -6.4678    2.3827   -0.9784 N   0  0  0  0  0  0  0  0  0  0  0  0
   -6.5801    1.7619    0.1515 C   0  0  0  0  0  0  0  0  0  0  0  0
   -7.4195    2.3794    1.2169 C   0  0  0  0  0  0  0  0  0  0  0  0
   -7.5768    1.7782    2.4031 C   0  0  0  0  0  0  0  0  0  0  0  0
   -6.9564    0.5132    2.7084 C   0  0  0  0  0  0  0  0  0  0  0  0
   -6.1788   -0.1163    1.8159 C   0  0  0  0  0  0  0  0  0  0  0  0
   -5.9294    0.4537    0.5016 C   0  0  0  0  0  0  0  0  0  0  0  0
   -1.5361   -1.2272    0.5200 C   0  0  0  0  0  0  0  0  0  0  0  0
   -0.2072   -0.5160    0.7653 C   0  0  0  0  0  0  0  0  0  0  0  0
    3.0927   -1.3986   -1.3965 H   0  0  0  0  0  0  0  0  0  0  0  0
    4.4194    1.0996   -0.6407 H   0  0  0  0  0  0  0  0  0  0  0  0
    5.0591   -0.2158   -1.6370 H   0  0  0  0  0  0  0  0  0  0  0  0
    5.3804   -1.6184    0.4413 H   0  0  0  0  0  0  0  0  0  0  0  0
    4.7604   -0.3217    1.4328 H   0  0  0  0  0  0  0  0  0  0  0  0
    7.6720   -1.5513   -0.4414 H   0  0  0  0  0  0  0  0  0  0  0  0
    9.9156   -0.5355   -0.3107 H   0  0  0  0  0  0  0  0  0  0  0  0
    8.2709    2.8634    1.7561 H   0  0  0  0  0  0  0  0  0  0  0  0
    6.0205    1.8579    1.6318 H   0  0  0  0  0  0  0  0  0  0  0  0
    1.0764   -1.9813   -0.1404 H   0  0  0  0  0  0  0  0  0  0  0  0
    0.2182    0.4063   -1.8641 H   0  0  0  0  0  0  0  0  0  0  0  0
    1.0653   -1.0221   -2.4311 H   0  0  0  0  0  0  0  0  0  0  0  0
   -1.3463   -1.1323   -2.9470 H   0  0  0  0  0  0  0  0  0  0  0  0
   -0.8363   -2.4630   -1.9114 H   0  0  0  0  0  0  0  0  0  0  0  0
   -2.2502    0.0962   -1.0147 H   0  0  0  0  0  0  0  0  0  0  0  0
   -3.6417   -1.6874   -2.2317 H   0  0  0  0  0  0  0  0  0  0  0  0
   -3.2178   -2.8166   -0.9626 H   0  0  0  0  0  0  0  0  0  0  0  0
   -4.4307   -1.6303    0.6043 H   0  0  0  0  0  0  0  0  0  0  0  0
   -4.5265    0.2265   -2.4076 H   0  0  0  0  0  0  0  0  0  0  0  0
   -7.8876    3.3283    0.9831 H   0  0  0  0  0  0  0  0  0  0  0  0
   -8.1907    2.2386    3.1718 H   0  0  0  0  0  0  0  0  0  0  0  0
   -7.1430    0.0800    3.6870 H   0  0  0  0  0  0  0  0  0  0  0  0
   -5.7415   -1.0708    2.0813 H   0  0  0  0  0  0  0  0  0  0  0  0
   -2.2641   -0.8746    1.2597 H   0  0  0  0  0  0  0  0  0  0  0  0
   -1.4066   -2.3038    0.6893 H   0  0  0  0  0  0  0  0  0  0  0  0
   -0.3712    0.5693    0.7398 H   0  0  0  0  0  0  0  0  0  0  0  0
    0.1483   -0.7518    1.7758 H   0  0  0  0  0  0  0  0  0  0  0  0
  1  2  2  0
  2  3  1  0
  3  4  1  0
  4  5  1  0
  5  6  1  0
  6  7  2  0
  7  8  1  0
  8  9  2  0
  9 10  1  0
  9 11  1  0
 11 12  2  0
  2 13  1  0
 13 14  1  0
 14 15  1  0
 15 16  1  0
 16 17  1  0
 17 18  1  0
 18 19  1  0
 19 20  1  0
 20 21  1  0
 21 22  2  0
 21 23  1  0
 23 24  2  0
 24 25  1  0
 25 26  2  0
 26 27  1  0
 27 28  2  0
 28 29  1  0
 16 30  1  0
 30 31  1  0
 12  6  1  0
 31 13  1  0
 29 19  2  0
 29 24  1  0
  3 32  1  0
  4 33  1  0
  4 34  1  0
  5 35  1  0
  5 36  1  0
  7 37  1  0
  8 38  1  0
 11 39  1  0
 12 40  1  0
 13 41  1  0
 14 42  1  0
 14 43  1  0
 15 44  1  0
 15 45  1  0
 16 46  1  0
 17 47  1  0
 17 48  1  0
 18 49  1  0
 20 50  1  0
 25 51  1  0
 26 52  1  0
 27 53  1  0
 28 54  1  0
 30 55  1  0
 30 56  1  0
 31 57  1  0
 31 58  1  0
M  END
$$$$
