
     RDKit          3D

 31 33  0  0  0  0  0  0  0  0999 V2000
   -2.2426    0.3300    1.0543 C   0  0  0  0  0  0  0  0  0  0  0  0
   -2.2849   -0.2082   -0.2841 N   0  0  0  0  0  0  0  0  0  0  0  0
   -3.2204   -1.1225   -0.6970 C   0  0  0  0  0  0  0  0  0  0  0  0
   -3.1248   -1.3787   -1.9798 N   0  0  0  0  0  0  0  0  0  0  0  0
   -2.0714   -0.5970   -2.4144 C   0  0  0  0  0  0  0  0  0  0  0  0
   -1.6677   -0.6165   -3.8023 N   0  0  0  0  0  4  0  0  0  0  0  0
   -0.6217   -0.0217   -4.0997 O   0  0  0  0  0  0  0  0  0  0  0  0
   -2.3908   -1.2291   -4.6005 O   0  0  0  0  0  1  0  0  0  0  0  0
   -1.5003    0.1213   -1.3737 C   0  0  0  0  0  0  0  0  0  0  0  0
   -0.4775    0.9852   -1.3919 O   0  0  0  0  0  0  0  0  0  0  0  0
    0.3768    1.1476   -0.3244 C   0  0  0  0  0  0  0  0  0  0  0  0
    0.3992    2.4277    0.2393 C   0  0  0  0  0  0  0  0  0  0  0  0
    1.2101    2.6891    1.3366 C   0  0  0  0  0  0  0  0  0  0  0  0
    2.0129    1.6764    1.8599 C   0  0  0  0  0  0  0  0  0  0  0  0
    2.0384    0.3973    1.2786 C   0  0  0  0  0  0  0  0  0  0  0  0
    2.8756   -0.6022    1.8013 C   0  0  0  0  0  0  0  0  0  0  0  0
    2.9353   -1.8667    1.2170 C   0  0  0  0  0  0  0  0  0  0  0  0
    2.1658   -2.1460    0.0952 C   0  0  0  0  0  0  0  0  0  0  0  0
    1.3255   -1.1647   -0.4341 C   0  0  0  0  0  0  0  0  0  0  0  0
    1.2260    0.1181    0.1518 C   0  0  0  0  0  0  0  0  0  0  0  0
   -2.1951    1.4193    0.9986 H   0  0  0  0  0  0  0  0  0  0  0  0
   -3.1548    0.0476    1.5878 H   0  0  0  0  0  0  0  0  0  0  0  0
   -1.3794   -0.0877    1.5756 H   0  0  0  0  0  0  0  0  0  0  0  0
   -3.9518   -1.5563   -0.0255 H   0  0  0  0  0  0  0  0  0  0  0  0
   -0.2260    3.2149   -0.1743 H   0  0  0  0  0  0  0  0  0  0  0  0
    1.2228    3.6799    1.7833 H   0  0  0  0  0  0  0  0  0  0  0  0
    2.6419    1.9006    2.7196 H   0  0  0  0  0  0  0  0  0  0  0  0
    3.5010   -0.3987    2.6683 H   0  0  0  0  0  0  0  0  0  0  0  0
    3.5941   -2.6266    1.6293 H   0  0  0  0  0  0  0  0  0  0  0  0
    2.2238   -3.1233   -0.3775 H   0  0  0  0  0  0  0  0  0  0  0  0
    0.7601   -1.4090   -1.3296 H   0  0  0  0  0  0  0  0  0  0  0  0
  1  2  1  0
  2  3  1  0
  3  4  2  0
  4  5  1  0
  5  6  1  0
  6  7  2  0
  6  8  1  0
  5  9  2  0
  9 10  1  0
 10 11  1  0
 11 12  2  0
 12 13  1  0
 13 14  2  0
 14 15  1  0
 15 16  2  0
 16 17  1  0
 17 18  2  0
 18 19  1  0
 19 20  2  0
  9  2  1  0
 20 11  1  0
 20 15  1  0
  1 21  1  0
  1 22  1  0
  1 23  1  0
  3 24  1  0
 12 25  1  0
 13 26  1  0
 14 27  1  0
 16 28  1  0
 17 29  1  0
 18 30  1  0
 19 31  1  0
M  CHG  2   6   1   8  -1
M  END
$$$$
