
     RDKit          3D

 54 55  0  0  0  0  0  0  0  0999 V2000
   -0.6018    3.0114    1.2103 C   0  0  0  0  0  0  0  0  0  0  0  0
   -1.2118    1.7824    0.8325 O   0  0  0  0  0  0  0  0  0  0  0  0
   -0.3689    0.7509    0.5077 C   0  0  0  0  0  0  0  0  0  0  0  0
    0.9638    0.9229    0.1174 C   0  0  0  0  0  0  0  0  0  0  0  0
    1.7792   -0.1825   -0.1864 C   0  0  0  0  0  0  0  0  0  0  0  0
    3.2217    0.0280   -0.5888 C   0  0  0  0  0  0  0  0  0  0  0  0
    3.9523    0.5898    0.5387 N   0  0  0  0  0  0  0  0  0  0  0  0
    5.3312    0.7945    0.4422 C   0  0  0  0  0  0  0  0  0  0  0  0
    6.0560    1.0076    1.6246 C   0  0  0  0  0  0  0  0  0  0  0  0
    7.4269    1.2871    1.6012 C   0  0  0  0  0  0  0  0  0  0  0  0
    8.0994    1.3870    0.3817 C   0  0  0  0  0  0  0  0  0  0  0  0
    9.5511    1.6866    0.3974 C   0  0  0  0  0  0  0  0  0  0  0  0
   10.2329    1.8626    1.3901 O   0  0  0  0  0  0  0  0  0  0  0  0
   10.0849    1.7497   -0.8354 O   0  0  0  0  0  0  0  0  0  0  0  0
    7.3858    1.2176   -0.8073 C   0  0  0  0  0  0  0  0  0  0  0  0
    6.0125    0.9388   -0.7723 C   0  0  0  0  0  0  0  0  0  0  0  0
    1.2418   -1.4724   -0.0945 C   0  0  0  0  0  0  0  0  0  0  0  0
   -0.0918   -1.6528    0.2792 C   0  0  0  0  0  0  0  0  0  0  0  0
   -0.7600   -3.4270    0.3750 Br  0  0  0  0  0  0  0  0  0  0  0  0
   -0.9043   -0.5470    0.5590 C   0  0  0  0  0  0  0  0  0  0  0  0
   -2.1995   -0.7607    0.9663 O   0  0  0  0  0  0  0  0  0  0  0  0
   -3.1277   -0.3974   -0.0513 C   0  0  0  0  0  0  0  0  0  0  0  0
   -4.4949   -1.0546    0.1730 C   0  0  0  0  0  0  0  0  0  0  0  0
   -4.7160   -1.8873    1.0455 O   0  0  0  0  0  0  0  0  0  0  0  0
   -5.4548   -0.6138   -0.7270 N   0  0  0  0  0  0  0  0  0  0  0  0
   -6.8645   -1.0360   -0.7199 C   0  0  0  0  0  0  0  0  0  0  0  0
   -7.5750   -0.3357   -1.8935 C   0  0  0  0  0  0  0  0  0  0  0  0
   -6.9912   -2.5548   -0.9218 C   0  0  0  0  0  0  0  0  0  0  0  0
   -7.5550   -0.6152    0.5867 C   0  0  0  0  0  0  0  0  0  0  0  0
    0.1615    2.8623    1.9816 H   0  0  0  0  0  0  0  0  0  0  0  0
   -0.1866    3.5231    0.3363 H   0  0  0  0  0  0  0  0  0  0  0  0
   -1.3805    3.6541    1.6321 H   0  0  0  0  0  0  0  0  0  0  0  0
    1.4055    1.9139    0.0464 H   0  0  0  0  0  0  0  0  0  0  0  0
    3.6694   -0.9243   -0.8990 H   0  0  0  0  0  0  0  0  0  0  0  0
    3.2384    0.7064   -1.4505 H   0  0  0  0  0  0  0  0  0  0  0  0
    3.6970    0.1498    1.4210 H   0  0  0  0  0  0  0  0  0  0  0  0
    5.5528    0.9584    2.5880 H   0  0  0  0  0  0  0  0  0  0  0  0
    7.9602    1.4343    2.5382 H   0  0  0  0  0  0  0  0  0  0  0  0
   11.0301    1.9498   -0.6695 H   0  0  0  0  0  0  0  0  0  0  0  0
    7.8822    1.3101   -1.7704 H   0  0  0  0  0  0  0  0  0  0  0  0
    5.4946    0.8418   -1.7216 H   0  0  0  0  0  0  0  0  0  0  0  0
    1.8637   -2.3384   -0.3117 H   0  0  0  0  0  0  0  0  0  0  0  0
   -3.2810    0.6874   -0.0439 H   0  0  0  0  0  0  0  0  0  0  0  0
   -2.7755   -0.7143   -1.0422 H   0  0  0  0  0  0  0  0  0  0  0  0
   -5.2096    0.1686   -1.3199 H   0  0  0  0  0  0  0  0  0  0  0  0
   -7.1096   -0.5995   -2.8506 H   0  0  0  0  0  0  0  0  0  0  0  0
   -8.6336   -0.6139   -1.9455 H   0  0  0  0  0  0  0  0  0  0  0  0
   -7.5191    0.7549   -1.7950 H   0  0  0  0  0  0  0  0  0  0  0  0
   -6.4647   -2.8759   -1.8282 H   0  0  0  0  0  0  0  0  0  0  0  0
   -6.5716   -3.1192   -0.0832 H   0  0  0  0  0  0  0  0  0  0  0  0
   -8.0411   -2.8538   -1.0188 H   0  0  0  0  0  0  0  0  0  0  0  0
   -7.1273   -1.1226    1.4575 H   0  0  0  0  0  0  0  0  0  0  0  0
   -7.4528    0.4631    0.7553 H   0  0  0  0  0  0  0  0  0  0  0  0
   -8.6247   -0.8526    0.5632 H   0  0  0  0  0  0  0  0  0  0  0  0
  1  2  1  0
  2  3  1  0
  3  4  2  0
  4  5  1  0
  5  6  1  0
  6  7  1  0
  7  8  1  0
  8  9  2  0
  9 10  1  0
 10 11  2  0
 11 12  1  0
 12 13  2  0
 12 14  1  0
 11 15  1  0
 15 16  2  0
  5 17  2  0
 17 18  1  0
 18 19  1  0
 18 20  2  0
 20 21  1  0
 21 22  1  0
 22 23  1  0
 23 24  2  0
 23 25  1  0
 25 26  1  0
 26 27  1  0
 26 28  1  0
 26 29  1  0
 20  3  1  0
 16  8  1  0
  1 30  1  0
  1 31  1  0
  1 32  1  0
  4 33  1  0
  6 34  1  0
  6 35  1  0
  7 36  1  0
  9 37  1  0
 10 38  1  0
 14 39  1  0
 15 40  1  0
 16 41  1  0
 17 42  1  0
 22 43  1  0
 22 44  1  0
 25 45  1  0
 27 46  1  0
 27 47  1  0
 27 48  1  0
 28 49  1  0
 28 50  1  0
 28 51  1  0
 29 52  1  0
 29 53  1  0
 29 54  1  0
M  END
$$$$
