
     RDKit          3D

 39 41  0  0  0  0  0  0  0  0999 V2000
   -0.7607    4.3783   -1.2369 C   0  0  0  0  0  0  0  0  0  0  0  0
    0.3864    3.8967   -2.1085 C   0  0  0  0  0  0  0  0  0  0  0  0
   -0.0671    2.3884   -3.0291 S   0  0  0  0  0  0  0  0  0  0  0  0
    0.0267    1.1575   -1.7358 C   0  0  0  0  0  0  0  0  0  0  0  0
   -0.7521    0.0249   -1.8453 C   0  0  0  0  0  0  0  0  0  0  0  0
   -0.6426   -0.9240   -0.8503 C   0  0  0  0  0  0  0  0  0  0  0  0
   -1.3705   -2.0918   -0.8798 N   0  0  0  0  0  0  0  0  0  0  0  0
   -1.2664   -3.0325    0.2305 C   0  0  0  0  0  0  0  0  0  0  0  0
   -2.2750   -4.1146   -0.1413 C   0  0  0  0  0  0  0  0  0  0  0  0
   -3.3861   -3.3171   -0.8052 C   0  0  0  0  0  0  0  0  0  0  0  0
   -2.6375   -2.2375   -1.5886 C   0  0  0  0  0  0  0  0  0  0  0  0
    0.2224   -0.7432    0.1621 N   0  0  0  0  0  0  0  0  0  0  0  0
    0.9410    0.3944    0.1955 C   0  0  0  0  0  0  0  0  0  0  0  0
    1.9226    0.5266    1.2785 C   0  0  0  0  0  0  0  0  0  0  0  0
    2.7742   -0.5637    1.5659 C   0  0  0  0  0  0  0  0  0  0  0  0
    3.7425   -0.4966    2.5711 C   0  0  0  0  0  0  0  0  0  0  0  0
    3.8810    0.6649    3.3211 C   0  0  0  0  0  0  0  0  0  0  0  0
    3.0461    1.7519    3.0694 C   0  0  0  0  0  0  0  0  0  0  0  0
    2.0727    1.6858    2.0609 C   0  0  0  0  0  0  0  0  0  0  0  0
    1.0513    3.0741    1.8870 Cl  0  0  0  0  0  0  0  0  0  0  0  0
    0.8863    1.3600   -0.7294 N   0  0  0  0  0  0  0  0  0  0  0  0
   -1.0405    3.6399   -0.4794 H   0  0  0  0  0  0  0  0  0  0  0  0
   -1.6475    4.6095   -1.8369 H   0  0  0  0  0  0  0  0  0  0  0  0
   -0.4694    5.2950   -0.7135 H   0  0  0  0  0  0  0  0  0  0  0  0
    1.2950    3.7415   -1.5192 H   0  0  0  0  0  0  0  0  0  0  0  0
    0.6183    4.6701   -2.8484 H   0  0  0  0  0  0  0  0  0  0  0  0
   -1.4104   -0.1128   -2.6917 H   0  0  0  0  0  0  0  0  0  0  0  0
   -1.5569   -2.5559    1.1750 H   0  0  0  0  0  0  0  0  0  0  0  0
   -0.2594   -3.4516    0.3292 H   0  0  0  0  0  0  0  0  0  0  0  0
   -1.8334   -4.8135   -0.8620 H   0  0  0  0  0  0  0  0  0  0  0  0
   -2.6193   -4.6840    0.7263 H   0  0  0  0  0  0  0  0  0  0  0  0
   -4.0265   -3.9298   -1.4458 H   0  0  0  0  0  0  0  0  0  0  0  0
   -4.0174   -2.8508   -0.0390 H   0  0  0  0  0  0  0  0  0  0  0  0
   -3.2293   -1.3157   -1.6098 H   0  0  0  0  0  0  0  0  0  0  0  0
   -2.4492   -2.5657   -2.6167 H   0  0  0  0  0  0  0  0  0  0  0  0
    2.6824   -1.4827    0.9866 H   0  0  0  0  0  0  0  0  0  0  0  0
    4.3853   -1.3522    2.7633 H   0  0  0  0  0  0  0  0  0  0  0  0
    4.6319    0.7237    4.1049 H   0  0  0  0  0  0  0  0  0  0  0  0
    3.1512    2.6528    3.6697 H   0  0  0  0  0  0  0  0  0  0  0  0
  1  2  1  0
  2  3  1  0
  3  4  1  0
  4  5  2  0
  5  6  1  0
  6  7  1  0
  7  8  1  0
  8  9  1  0
  9 10  1  0
 10 11  1  0
  6 12  2  0
 12 13  1  0
 13 14  1  0
 14 15  2  0
 15 16  1  0
 16 17  2  0
 17 18  1  0
 18 19  2  0
 19 20  1  0
 13 21  2  0
 21  4  1  0
 11  7  1  0
 19 14  1  0
  1 22  1  0
  1 23  1  0
  1 24  1  0
  2 25  1  0
  2 26  1  0
  5 27  1  0
  8 28  1  0
  8 29  1  0
  9 30  1  0
  9 31  1  0
 10 32  1  0
 10 33  1  0
 11 34  1  0
 11 35  1  0
 15 36  1  0
 16 37  1  0
 17 38  1  0
 18 39  1  0
M  END
$$$$
