
     RDKit          3D

 46 49  0  0  0  0  0  0  0  0999 V2000
    0.7103   -4.0142    1.1527 C   0  0  0  0  0  0  0  0  0  0  0  0
    0.2156   -2.7563    0.6906 O   0  0  0  0  0  0  0  0  0  0  0  0
   -1.0122   -2.8228    0.0902 C   0  0  0  0  0  0  0  0  0  0  0  0
   -1.6391   -3.8698   -0.0376 O   0  0  0  0  0  0  0  0  0  0  0  0
   -1.4905   -1.5203   -0.3746 C   0  0  0  0  0  0  0  0  0  0  0  0
   -2.7163   -1.3618   -0.9150 N   0  0  0  0  0  0  0  0  0  0  0  0
   -2.7602   -0.0367   -1.2002 N   0  0  0  0  0  0  0  0  0  0  0  0
   -3.9019    0.5673   -1.7892 C   0  0  0  0  0  0  0  0  0  0  0  0
   -3.9037    1.9407   -2.0743 C   0  0  0  0  0  0  0  0  0  0  0  0
   -5.0292    2.5302   -2.6538 C   0  0  0  0  0  0  0  0  0  0  0  0
   -6.1511    1.7560   -2.9494 C   0  0  0  0  0  0  0  0  0  0  0  0
   -6.1531    0.3900   -2.6677 C   0  0  0  0  0  0  0  0  0  0  0  0
   -5.0320   -0.2078   -2.0884 C   0  0  0  0  0  0  0  0  0  0  0  0
   -1.6491    0.6767   -0.8914 N   0  0  0  0  0  0  0  0  0  0  0  0
   -0.8484   -0.2618   -0.3745 C   0  0  0  0  0  0  0  0  0  0  0  0
    0.5038    0.0339    0.0846 C   0  0  0  0  0  0  0  0  0  0  0  0
    1.5446    0.1776   -0.7423 N   0  0  0  0  0  0  0  0  0  0  0  0
    2.5489    0.4885    0.1151 N   0  0  0  0  0  0  0  0  0  0  0  0
    3.8698    0.7460   -0.3359 C   0  0  0  0  0  0  0  0  0  0  0  0
    4.8813    1.0517    0.5865 C   0  0  0  0  0  0  0  0  0  0  0  0
    6.1797    1.3031    0.1383 C   0  0  0  0  0  0  0  0  0  0  0  0
    6.4722    1.2513   -1.2244 C   0  0  0  0  0  0  0  0  0  0  0  0
    5.4689    0.9486   -2.1449 C   0  0  0  0  0  0  0  0  0  0  0  0
    4.1678    0.6957   -1.7056 C   0  0  0  0  0  0  0  0  0  0  0  0
    2.2200    0.5219    1.4335 N   0  0  0  0  0  0  0  0  0  0  0  0
    0.9023    0.2370    1.4218 C   0  0  0  0  0  0  0  0  0  0  0  0
    0.0782    0.1439    2.6227 C   0  0  0  0  0  0  0  0  0  0  0  0
   -1.0798   -0.2605    2.6090 O   0  0  0  0  0  0  0  0  0  0  0  0
    0.7349    0.5342    3.7560 O   0  0  0  0  0  0  0  0  0  0  0  0
   -0.0462    0.4494    4.9470 C   0  0  0  0  0  0  0  0  0  0  0  0
    1.6899   -3.8445    1.6080 H   0  0  0  0  0  0  0  0  0  0  0  0
    0.8334   -4.7091    0.3162 H   0  0  0  0  0  0  0  0  0  0  0  0
    0.0434   -4.4325    1.9130 H   0  0  0  0  0  0  0  0  0  0  0  0
   -3.0385    2.5626   -1.8528 H   0  0  0  0  0  0  0  0  0  0  0  0
   -5.0302    3.5947   -2.8752 H   0  0  0  0  0  0  0  0  0  0  0  0
   -7.0257    2.2180   -3.4007 H   0  0  0  0  0  0  0  0  0  0  0  0
   -7.0288   -0.2116   -2.8991 H   0  0  0  0  0  0  0  0  0  0  0  0
   -5.0544   -1.2754   -1.8764 H   0  0  0  0  0  0  0  0  0  0  0  0
    4.6749    1.0987    1.6541 H   0  0  0  0  0  0  0  0  0  0  0  0
    6.9638    1.5408    0.8532 H   0  0  0  0  0  0  0  0  0  0  0  0
    7.4840    1.4485   -1.5702 H   0  0  0  0  0  0  0  0  0  0  0  0
    5.6995    0.9107   -3.2068 H   0  0  0  0  0  0  0  0  0  0  0  0
    3.3998    0.4638   -2.4412 H   0  0  0  0  0  0  0  0  0  0  0  0
   -0.9236    1.1002    4.8780 H   0  0  0  0  0  0  0  0  0  0  0  0
   -0.3447   -0.5864    5.1366 H   0  0  0  0  0  0  0  0  0  0  0  0
    0.5716    0.7897    5.7827 H   0  0  0  0  0  0  0  0  0  0  0  0
  1  2  1  0
  2  3  1  0
  3  4  2  0
  3  5  1  0
  5  6  2  0
  6  7  1  0
  7  8  1  0
  8  9  2  0
  9 10  1  0
 10 11  2  0
 11 12  1  0
 12 13  2  0
  7 14  1  0
 14 15  2  0
 15 16  1  0
 16 17  2  0
 17 18  1  0
 18 19  1  0
 19 20  2  0
 20 21  1  0
 21 22  2  0
 22 23  1  0
 23 24  2  0
 18 25  1  0
 25 26  2  0
 26 27  1  0
 27 28  2  0
 27 29  1  0
 29 30  1  0
 15  5  1  0
 26 16  1  0
 13  8  1  0
 24 19  1  0
  1 31  1  0
  1 32  1  0
  1 33  1  0
  9 34  1  0
 10 35  1  0
 11 36  1  0
 12 37  1  0
 13 38  1  0
 20 39  1  0
 21 40  1  0
 22 41  1  0
 23 42  1  0
 24 43  1  0
 30 44  1  0
 30 45  1  0
 30 46  1  0
M  END
$$$$
