
     RDKit          3D

 50 51  0  0  0  0  0  0  0  0999 V2000
    5.6372   -3.9843   -0.0564 C   0  0  0  0  0  0  0  0  0  0  0  0
    5.0053   -2.7046   -0.1061 O   0  0  0  0  0  0  0  0  0  0  0  0
    5.5007   -1.8101    0.7848 C   0  0  0  0  0  0  0  0  0  0  0  0
    6.4030   -2.0205    1.5805 O   0  0  0  0  0  0  0  0  0  0  0  0
    4.7918   -0.5061    0.6745 C   0  0  0  0  0  0  0  0  0  0  0  0
    3.7678   -0.2815   -0.2534 C   0  0  0  0  0  0  0  0  0  0  0  0
    3.1364    0.9642   -0.3147 C   0  0  0  0  0  0  0  0  0  0  0  0
    3.5144    2.0028    0.5499 C   0  0  0  0  0  0  0  0  0  0  0  0
    2.8186    3.3399    0.4836 C   0  0  0  0  0  0  0  0  0  0  0  0
    1.4414    3.2225    0.9108 N   0  0  0  0  0  0  0  0  0  0  0  0
    0.4033    3.2481    0.0022 C   0  0  0  0  0  0  0  0  0  0  0  0
    0.5527    3.5153   -1.1879 O   0  0  0  0  0  0  0  0  0  0  0  0
   -0.9656    2.9299    0.6130 C   0  0  0  0  0  0  0  0  0  0  0  0
   -1.9180    2.4895   -0.3520 O   0  0  0  0  0  0  0  0  0  0  0  0
   -1.6591    1.2487   -0.8493 C   0  0  0  0  0  0  0  0  0  0  0  0
   -0.7658    0.5073   -0.4613 O   0  0  0  0  0  0  0  0  0  0  0  0
   -2.6397    0.8977   -1.9382 C   0  0  0  0  0  0  0  0  0  0  0  0
   -4.0402    0.6238   -1.3960 C   0  0  0  0  0  0  0  0  0  0  0  0
   -4.1220   -0.5973   -0.4751 C   0  0  0  0  0  0  0  0  0  0  0  0
   -3.7602   -1.9206   -1.1477 C   0  0  0  0  0  0  0  0  0  0  0  0
   -4.3975   -2.9917   -0.2653 C   0  0  0  0  0  0  0  0  0  0  0  0
   -5.4802   -2.2874    0.5516 C   0  0  0  0  0  0  0  0  0  0  0  0
   -5.5443   -0.8634    0.0153 C   0  0  0  0  0  0  0  0  0  0  0  0
    4.5386    1.7730    1.4781 C   0  0  0  0  0  0  0  0  0  0  0  0
    5.1732    0.5289    1.5387 C   0  0  0  0  0  0  0  0  0  0  0  0
    5.4966   -4.4436    0.9274 H   0  0  0  0  0  0  0  0  0  0  0  0
    6.7018   -3.8960   -0.2955 H   0  0  0  0  0  0  0  0  0  0  0  0
    5.1658   -4.6241   -0.8075 H   0  0  0  0  0  0  0  0  0  0  0  0
    3.4455   -1.0643   -0.9358 H   0  0  0  0  0  0  0  0  0  0  0  0
    2.3384    1.1198   -1.0413 H   0  0  0  0  0  0  0  0  0  0  0  0
    3.2972    4.0558    1.1608 H   0  0  0  0  0  0  0  0  0  0  0  0
    2.8906    3.7474   -0.5306 H   0  0  0  0  0  0  0  0  0  0  0  0
    1.2829    2.7999    1.8156 H   0  0  0  0  0  0  0  0  0  0  0  0
   -1.3500    3.8560    1.0534 H   0  0  0  0  0  0  0  0  0  0  0  0
   -0.8749    2.1936    1.4201 H   0  0  0  0  0  0  0  0  0  0  0  0
   -2.6648    1.7293   -2.6524 H   0  0  0  0  0  0  0  0  0  0  0  0
   -2.2518    0.0349   -2.4905 H   0  0  0  0  0  0  0  0  0  0  0  0
   -4.4016    1.5038   -0.8491 H   0  0  0  0  0  0  0  0  0  0  0  0
   -4.7188    0.4878   -2.2476 H   0  0  0  0  0  0  0  0  0  0  0  0
   -3.4729   -0.4474    0.3981 H   0  0  0  0  0  0  0  0  0  0  0  0
   -2.6785   -2.0630   -1.2349 H   0  0  0  0  0  0  0  0  0  0  0  0
   -4.1873   -1.9736   -2.1568 H   0  0  0  0  0  0  0  0  0  0  0  0
   -3.6525   -3.4364    0.4044 H   0  0  0  0  0  0  0  0  0  0  0  0
   -4.8143   -3.8012   -0.8739 H   0  0  0  0  0  0  0  0  0  0  0  0
   -5.1959   -2.2788    1.6104 H   0  0  0  0  0  0  0  0  0  0  0  0
   -6.4475   -2.7934    0.4750 H   0  0  0  0  0  0  0  0  0  0  0  0
   -5.8607   -0.1504    0.7829 H   0  0  0  0  0  0  0  0  0  0  0  0
   -6.2618   -0.8089   -0.8129 H   0  0  0  0  0  0  0  0  0  0  0  0
    4.8543    2.5591    2.1611 H   0  0  0  0  0  0  0  0  0  0  0  0
    5.9685    0.3696    2.2651 H   0  0  0  0  0  0  0  0  0  0  0  0
  1  2  1  0
  2  3  1  0
  3  4  2  0
  3  5  1  0
  5  6  2  0
  6  7  1  0
  7  8  2  0
  8  9  1  0
  9 10  1  0
 10 11  1  0
 11 12  2  0
 11 13  1  0
 13 14  1  0
 14 15  1  0
 15 16  2  0
 15 17  1  0
 17 18  1  0
 18 19  1  0
 19 20  1  0
 20 21  1  0
 21 22  1  0
 22 23  1  0
  8 24  1  0
 24 25  2  0
 25  5  1  0
 23 19  1  0
  1 26  1  0
  1 27  1  0
  1 28  1  0
  6 29  1  0
  7 30  1  0
  9 31  1  0
  9 32  1  0
 10 33  1  0
 13 34  1  0
 13 35  1  0
 17 36  1  0
 17 37  1  0
 18 38  1  0
 18 39  1  0
 19 40  1  0
 20 41  1  0
 20 42  1  0
 21 43  1  0
 21 44  1  0
 22 45  1  0
 22 46  1  0
 23 47  1  0
 23 48  1  0
 24 49  1  0
 25 50  1  0
M  END
$$$$
