
     RDKit          3D

 37 39  0  0  0  0  0  0  0  0999 V2000
   -0.5986   -1.4168    1.1856 O   0  0  0  0  0  0  0  0  0  0  0  0
    0.4145   -1.1699    0.5290 C   0  0  0  0  0  0  0  0  0  0  0  0
    1.3487   -2.3172    0.1643 C   0  0  0  0  0  0  0  0  0  0  0  0
    2.5724   -2.3001    1.0310 C   0  0  0  0  0  0  0  0  0  0  0  0
    2.6588   -2.1462    2.4019 C   0  0  0  0  0  0  0  0  0  0  0  0
    4.0033   -2.1929    2.8698 C   0  0  0  0  0  0  0  0  0  0  0  0
    4.8990   -2.3974    1.8451 C   0  0  0  0  0  0  0  0  0  0  0  0
    4.1201   -2.5364    0.3305 S   0  0  0  0  0  0  0  0  0  0  0  0
    0.7401    0.0955    0.0426 N   0  0  0  0  0  0  0  0  0  0  0  0
    1.7954    0.3722   -0.8932 C   0  0  0  0  0  0  0  0  0  0  0  0
    1.5785    1.8272   -1.2580 C   0  0  0  0  0  0  0  0  0  0  0  0
    0.6967    2.3756   -0.2110 N   0  0  0  0  0  0  0  0  0  0  0  0
    0.2531    1.3407    0.4344 C   0  0  0  0  0  0  0  0  0  0  0  0
   -0.8416    1.5218    1.7561 S   0  0  0  0  0  0  0  0  0  0  0  0
   -2.1756    2.4249    0.9255 C   0  0  0  0  0  0  0  0  0  0  0  0
   -2.8622    1.6255   -0.1575 C   0  0  0  0  0  0  0  0  0  0  0  0
   -2.5027    1.8512   -1.5004 C   0  0  0  0  0  0  0  0  0  0  0  0
   -3.0890    1.1209   -2.5356 C   0  0  0  0  0  0  0  0  0  0  0  0
   -4.0452    0.1521   -2.2478 C   0  0  0  0  0  0  0  0  0  0  0  0
   -4.4180   -0.0823   -0.9249 C   0  0  0  0  0  0  0  0  0  0  0  0
   -3.8341    0.6490    0.1153 C   0  0  0  0  0  0  0  0  0  0  0  0
   -4.3746    0.3145    1.7219 Cl  0  0  0  0  0  0  0  0  0  0  0  0
    0.8095   -3.2582    0.3331 H   0  0  0  0  0  0  0  0  0  0  0  0
    1.5806   -2.2919   -0.9044 H   0  0  0  0  0  0  0  0  0  0  0  0
    1.7958   -2.0029    3.0444 H   0  0  0  0  0  0  0  0  0  0  0  0
    4.2965   -2.0877    3.9074 H   0  0  0  0  0  0  0  0  0  0  0  0
    5.9752   -2.4798    1.9142 H   0  0  0  0  0  0  0  0  0  0  0  0
    1.7495   -0.2836   -1.7667 H   0  0  0  0  0  0  0  0  0  0  0  0
    2.7582    0.2394   -0.3904 H   0  0  0  0  0  0  0  0  0  0  0  0
    1.0818    1.9221   -2.2301 H   0  0  0  0  0  0  0  0  0  0  0  0
    2.5246    2.3755   -1.3000 H   0  0  0  0  0  0  0  0  0  0  0  0
   -2.9076    2.7378    1.6781 H   0  0  0  0  0  0  0  0  0  0  0  0
   -1.7771    3.3601    0.5143 H   0  0  0  0  0  0  0  0  0  0  0  0
   -1.7548    2.6041   -1.7461 H   0  0  0  0  0  0  0  0  0  0  0  0
   -2.7993    1.3107   -3.5662 H   0  0  0  0  0  0  0  0  0  0  0  0
   -4.5042   -0.4188   -3.0507 H   0  0  0  0  0  0  0  0  0  0  0  0
   -5.1680   -0.8387   -0.7067 H   0  0  0  0  0  0  0  0  0  0  0  0
  1  2  2  0
  2  3  1  0
  3  4  1  0
  4  5  2  0
  5  6  1  0
  6  7  2  0
  7  8  1  0
  2  9  1  0
  9 10  1  0
 10 11  1  0
 11 12  1  0
 12 13  2  0
 13 14  1  0
 14 15  1  0
 15 16  1  0
 16 17  2  0
 17 18  1  0
 18 19  2  0
 19 20  1  0
 20 21  2  0
 21 22  1  0
  8  4  1  0
 13  9  1  0
 21 16  1  0
  3 23  1  0
  3 24  1  0
  5 25  1  0
  6 26  1  0
  7 27  1  0
 10 28  1  0
 10 29  1  0
 11 30  1  0
 11 31  1  0
 15 32  1  0
 15 33  1  0
 17 34  1  0
 18 35  1  0
 19 36  1  0
 20 37  1  0
M  END
$$$$
