
     RDKit          3D

 36 38  0  0  0  0  0  0  0  0999 V2000
   -2.2144   -0.5996   -1.0247 C   0  0  0  0  0  0  0  0  0  0  0  0
   -1.9584   -0.5862    0.4724 C   0  0  0  0  0  0  0  0  0  0  0  0
   -0.9507    0.0418    1.0209 N   0  0  0  0  0  0  0  0  0  0  0  0
   -0.0723    0.6550    0.1694 N   0  0  0  0  0  0  0  0  0  0  0  0
    1.0596   -0.1046   -0.2440 C   0  0  0  0  0  0  0  0  0  0  0  0
    1.0524   -1.4568   -0.0984 N   0  0  0  0  0  0  0  0  0  0  0  0
    2.1291   -2.1623   -0.4577 C   0  0  0  0  0  0  0  0  0  0  0  0
    3.2648   -1.6960   -0.9719 N   0  0  0  0  0  0  0  0  0  0  0  0
    3.2414   -0.3642   -1.1376 C   0  0  0  0  0  0  0  0  0  0  0  0
    4.5941    0.4248   -1.7933 S   0  0  0  0  0  0  0  0  0  0  0  0
    3.8343    1.9509   -1.7134 C   0  0  0  0  0  0  0  0  0  0  0  0
    4.5726    3.1592   -2.1940 C   0  0  0  0  0  0  0  0  0  0  0  0
    2.5465    1.8707   -1.1977 C   0  0  0  0  0  0  0  0  0  0  0  0
    1.6316    3.0482   -1.0583 C   0  0  0  0  0  0  0  0  0  0  0  0
    2.2038    0.5015   -0.8240 C   0  0  0  0  0  0  0  0  0  0  0  0
   -2.9081   -1.3413    1.3518 C   0  0  0  0  0  0  0  0  0  0  0  0
   -2.6686   -1.4322    2.7203 C   0  0  0  0  0  0  0  0  0  0  0  0
   -3.5699   -2.1417    3.5099 C   0  0  0  0  0  0  0  0  0  0  0  0
   -4.6754   -2.7360    2.9131 C   0  0  0  0  0  0  0  0  0  0  0  0
   -4.8357   -2.5965    1.5443 C   0  0  0  0  0  0  0  0  0  0  0  0
   -3.9812   -1.9145    0.7511 N   0  0  0  0  0  0  0  0  0  0  0  0
   -2.0862    0.4069   -1.4345 H   0  0  0  0  0  0  0  0  0  0  0  0
   -3.2258   -0.9212   -1.2796 H   0  0  0  0  0  0  0  0  0  0  0  0
   -1.5050   -1.2780   -1.5068 H   0  0  0  0  0  0  0  0  0  0  0  0
    0.2774    1.5377    0.5362 H   0  0  0  0  0  0  0  0  0  0  0  0
    2.0697   -3.2356   -0.3090 H   0  0  0  0  0  0  0  0  0  0  0  0
    4.1133    3.5399   -3.1123 H   0  0  0  0  0  0  0  0  0  0  0  0
    4.5394    3.9502   -1.4374 H   0  0  0  0  0  0  0  0  0  0  0  0
    5.6263    2.9499   -2.4055 H   0  0  0  0  0  0  0  0  0  0  0  0
    1.5413    3.3346   -0.0059 H   0  0  0  0  0  0  0  0  0  0  0  0
    0.6374    2.8148   -1.4520 H   0  0  0  0  0  0  0  0  0  0  0  0
    1.9977    3.9182   -1.6119 H   0  0  0  0  0  0  0  0  0  0  0  0
   -1.7960   -0.9668    3.1670 H   0  0  0  0  0  0  0  0  0  0  0  0
   -3.4066   -2.2305    4.5803 H   0  0  0  0  0  0  0  0  0  0  0  0
   -5.3945   -3.2964    3.5003 H   0  0  0  0  0  0  0  0  0  0  0  0
   -5.6835   -3.0444    1.0332 H   0  0  0  0  0  0  0  0  0  0  0  0
  1  2  1  0
  2  3  2  3
  3  4  1  0
  4  5  1  0
  5  6  2  0
  6  7  1  0
  7  8  2  0
  8  9  1  0
  9 10  1  0
 10 11  1  0
 11 12  1  0
 11 13  2  0
 13 14  1  0
 13 15  1  0
  2 16  1  0
 16 17  2  0
 17 18  1  0
 18 19  2  0
 19 20  1  0
 20 21  2  0
 15  5  1  0
 21 16  1  0
 15  9  2  0
  1 22  1  0
  1 23  1  0
  1 24  1  0
  4 25  1  0
  7 26  1  0
 12 27  1  0
 12 28  1  0
 12 29  1  0
 14 30  1  0
 14 31  1  0
 14 32  1  0
 17 33  1  0
 18 34  1  0
 19 35  1  0
 20 36  1  0
M  END
$$$$
