
     RDKit          3D

 40 41  0  0  0  0  0  0  0  0999 V2000
    4.7330    2.0646   -0.8830 C   0  0  0  0  0  0  0  0  0  0  0  0
    3.9741    1.9311    0.4239 C   0  0  0  0  0  0  0  0  0  0  0  0
    2.6549    1.4255    0.1798 O   0  0  0  0  0  0  0  0  0  0  0  0
    2.5342    0.0656    0.1276 C   0  0  0  0  0  0  0  0  0  0  0  0
    3.4763   -0.7032    0.2839 O   0  0  0  0  0  0  0  0  0  0  0  0
    1.1572   -0.3810   -0.1023 C   0  0  0  0  0  0  0  0  0  0  0  0
    0.0944    0.3572   -0.6293 C   0  0  0  0  0  0  0  0  0  0  0  0
    0.0635    1.7555   -1.1563 C   0  0  0  0  0  0  0  0  0  0  0  0
   -1.0339   -0.4446   -0.5868 N   0  0  0  0  0  0  0  0  0  0  0  0
   -2.3882   -0.0585   -0.9829 C   0  0  0  0  0  0  0  0  0  0  0  0
   -3.2808   -0.1499    0.1296 O   0  0  0  0  0  0  0  0  0  0  0  0
   -3.1627    0.9269    1.0649 C   0  0  0  0  0  0  0  0  0  0  0  0
   -3.9870    2.1423    0.6390 C   0  0  0  0  0  0  0  0  0  0  0  0
   -3.3217    2.8706   -0.3909 O   0  0  0  0  0  0  0  0  0  0  0  0
   -0.7048   -1.7106   -0.1361 C   0  0  0  0  0  0  0  0  0  0  0  0
   -1.5007   -2.8576    0.0398 C   0  0  0  0  0  0  0  0  0  0  0  0
   -0.8977   -4.0181    0.5317 C   0  0  0  0  0  0  0  0  0  0  0  0
    0.4546   -4.0235    0.8396 C   0  0  0  0  0  0  0  0  0  0  0  0
    1.0637   -5.1451    1.3249 O   0  0  0  0  0  0  0  0  0  0  0  0
    1.2412   -2.8850    0.6703 C   0  0  0  0  0  0  0  0  0  0  0  0
    0.6563   -1.6995    0.1694 C   0  0  0  0  0  0  0  0  0  0  0  0
    5.7188    2.5074   -0.7155 H   0  0  0  0  0  0  0  0  0  0  0  0
    4.8647    1.0897   -1.3628 H   0  0  0  0  0  0  0  0  0  0  0  0
    4.1779    2.6933   -1.5870 H   0  0  0  0  0  0  0  0  0  0  0  0
    3.8573    2.9186    0.8823 H   0  0  0  0  0  0  0  0  0  0  0  0
    4.5166    1.3069    1.1431 H   0  0  0  0  0  0  0  0  0  0  0  0
    1.0506    2.0838   -1.4922 H   0  0  0  0  0  0  0  0  0  0  0  0
   -0.5858    1.8437   -2.0322 H   0  0  0  0  0  0  0  0  0  0  0  0
   -0.2884    2.4453   -0.3834 H   0  0  0  0  0  0  0  0  0  0  0  0
   -2.4005    0.9284   -1.4406 H   0  0  0  0  0  0  0  0  0  0  0  0
   -2.7097   -0.7800   -1.7418 H   0  0  0  0  0  0  0  0  0  0  0  0
   -3.5681    0.5497    2.0095 H   0  0  0  0  0  0  0  0  0  0  0  0
   -2.1138    1.1910    1.2333 H   0  0  0  0  0  0  0  0  0  0  0  0
   -4.9657    1.8337    0.2589 H   0  0  0  0  0  0  0  0  0  0  0  0
   -4.1202    2.8182    1.4890 H   0  0  0  0  0  0  0  0  0  0  0  0
   -3.8900    3.6308   -0.6076 H   0  0  0  0  0  0  0  0  0  0  0  0
   -2.5626   -2.8465   -0.1878 H   0  0  0  0  0  0  0  0  0  0  0  0
   -1.5077   -4.9051    0.6713 H   0  0  0  0  0  0  0  0  0  0  0  0
    0.4031   -5.8536    1.3838 H   0  0  0  0  0  0  0  0  0  0  0  0
    2.2976   -2.9179    0.9228 H   0  0  0  0  0  0  0  0  0  0  0  0
  1  2  1  0
  2  3  1  0
  3  4  1  0
  4  5  2  0
  4  6  1  0
  6  7  2  0
  7  8  1  0
  7  9  1  0
  9 10  1  0
 10 11  1  0
 11 12  1  0
 12 13  1  0
 13 14  1  0
  9 15  1  0
 15 16  2  0
 16 17  1  0
 17 18  2  0
 18 19  1  0
 18 20  1  0
 20 21  2  0
 21  6  1  0
 21 15  1  0
  1 22  1  0
  1 23  1  0
  1 24  1  0
  2 25  1  0
  2 26  1  0
  8 27  1  0
  8 28  1  0
  8 29  1  0
 10 30  1  0
 10 31  1  0
 12 32  1  0
 12 33  1  0
 13 34  1  0
 13 35  1  0
 14 36  1  0
 16 37  1  0
 17 38  1  0
 19 39  1  0
 20 40  1  0
M  END
$$$$
