
     RDKit          3D

 49 51  0  0  0  0  0  0  0  0999 V2000
   -5.1699    1.0213   -2.4727 C   0  0  0  0  0  0  0  0  0  0  0  0
   -4.4457    0.9472   -1.1599 C   0  0  0  0  0  0  0  0  0  0  0  0
   -4.9720    1.5654   -0.0189 C   0  0  0  0  0  0  0  0  0  0  0  0
   -4.2864    1.5130    1.1988 C   0  0  0  0  0  0  0  0  0  0  0  0
   -4.8330    2.2060    2.4114 C   0  0  0  0  0  0  0  0  0  0  0  0
   -3.0466    0.8605    1.2558 C   0  0  0  0  0  0  0  0  0  0  0  0
   -2.4934    0.2573    0.1182 C   0  0  0  0  0  0  0  0  0  0  0  0
   -1.2457   -0.3775    0.2748 N   0  0  0  0  0  0  0  0  0  0  0  0
   -0.4177   -0.8932   -0.7167 C   0  0  0  0  0  0  0  0  0  0  0  0
   -0.6214   -0.8058   -1.9253 O   0  0  0  0  0  0  0  0  0  0  0  0
    0.8390   -1.5923   -0.1251 C   0  0  0  0  0  0  0  0  0  0  0  0
    1.8548   -0.5955    0.1028 O   0  0  0  0  0  0  0  0  0  0  0  0
    1.7115    0.1369    1.2313 C   0  0  0  0  0  0  0  0  0  0  0  0
    0.7989    0.0202    2.0369 O   0  0  0  0  0  0  0  0  0  0  0  0
    2.8199    1.1180    1.3739 C   0  0  0  0  0  0  0  0  0  0  0  0
    2.8494    1.9200    2.5257 C   0  0  0  0  0  0  0  0  0  0  0  0
    3.8721    2.8535    2.7130 C   0  0  0  0  0  0  0  0  0  0  0  0
    4.8613    2.9830    1.7426 C   0  0  0  0  0  0  0  0  0  0  0  0
    5.8782    3.8803    1.8793 O   0  0  0  0  0  0  0  0  0  0  0  0
    4.8435    2.1983    0.5932 C   0  0  0  0  0  0  0  0  0  0  0  0
    3.8219    1.2651    0.4051 C   0  0  0  0  0  0  0  0  0  0  0  0
    1.3972   -2.7218   -0.9902 C   0  0  0  0  0  0  0  0  0  0  0  0
    0.5330   -3.6479   -1.6021 C   0  0  0  0  0  0  0  0  0  0  0  0
    1.0368   -4.7203   -2.3438 C   0  0  0  0  0  0  0  0  0  0  0  0
    2.4121   -4.9005   -2.4682 C   0  0  0  0  0  0  0  0  0  0  0  0
    3.2866   -4.0078   -1.8528 C   0  0  0  0  0  0  0  0  0  0  0  0
    2.7845   -2.9318   -1.1149 C   0  0  0  0  0  0  0  0  0  0  0  0
   -3.2005    0.3035   -1.0833 C   0  0  0  0  0  0  0  0  0  0  0  0
   -6.2455    1.1654   -2.3237 H   0  0  0  0  0  0  0  0  0  0  0  0
   -5.0435    0.0907   -3.0370 H   0  0  0  0  0  0  0  0  0  0  0  0
   -4.7824    1.8548   -3.0681 H   0  0  0  0  0  0  0  0  0  0  0  0
   -5.9237    2.0889   -0.0816 H   0  0  0  0  0  0  0  0  0  0  0  0
   -4.5657    1.6628    3.3246 H   0  0  0  0  0  0  0  0  0  0  0  0
   -5.9255    2.2614    2.3734 H   0  0  0  0  0  0  0  0  0  0  0  0
   -4.4291    3.2200    2.4711 H   0  0  0  0  0  0  0  0  0  0  0  0
   -2.5065    0.8384    2.2002 H   0  0  0  0  0  0  0  0  0  0  0  0
   -0.8386   -0.3306    1.2097 H   0  0  0  0  0  0  0  0  0  0  0  0
    0.5680   -2.0709    0.8269 H   0  0  0  0  0  0  0  0  0  0  0  0
    2.0749    1.8199    3.2842 H   0  0  0  0  0  0  0  0  0  0  0  0
    3.8799    3.4644    3.6108 H   0  0  0  0  0  0  0  0  0  0  0  0
    5.7660    4.3596    2.7186 H   0  0  0  0  0  0  0  0  0  0  0  0
    5.6250    2.3136   -0.1537 H   0  0  0  0  0  0  0  0  0  0  0  0
    3.8229    0.6653   -0.5023 H   0  0  0  0  0  0  0  0  0  0  0  0
   -0.5468   -3.5377   -1.5204 H   0  0  0  0  0  0  0  0  0  0  0  0
    0.3509   -5.4134   -2.8265 H   0  0  0  0  0  0  0  0  0  0  0  0
    2.8015   -5.7354   -3.0442 H   0  0  0  0  0  0  0  0  0  0  0  0
    4.3604   -4.1514   -1.9409 H   0  0  0  0  0  0  0  0  0  0  0  0
    3.4942   -2.2619   -0.6344 H   0  0  0  0  0  0  0  0  0  0  0  0
   -2.8049   -0.1592   -1.9818 H   0  0  0  0  0  0  0  0  0  0  0  0
  1  2  1  0
  2  3  2  0
  3  4  1  0
  4  5  1  0
  4  6  2  0
  6  7  1  0
  7  8  1  0
  8  9  1  0
  9 10  2  0
  9 11  1  0
 11 12  1  0
 12 13  1  0
 13 14  2  0
 13 15  1  0
 15 16  2  0
 16 17  1  0
 17 18  2  0
 18 19  1  0
 18 20  1  0
 20 21  2  0
 11 22  1  0
 22 23  2  0
 23 24  1  0
 24 25  2  0
 25 26  1  0
 26 27  2  0
  7 28  2  0
 28  2  1  0
 21 15  1  0
 27 22  1  0
  1 29  1  0
  1 30  1  0
  1 31  1  0
  3 32  1  0
  5 33  1  0
  5 34  1  0
  5 35  1  0
  6 36  1  0
  8 37  1  0
 11 38  1  0
 16 39  1  0
 17 40  1  0
 19 41  1  0
 20 42  1  0
 21 43  1  0
 23 44  1  0
 24 45  1  0
 25 46  1  0
 26 47  1  0
 27 48  1  0
 28 49  1  0
M  END
$$$$
