
     RDKit          3D

 49 51  0  0  0  0  0  0  0  0999 V2000
   -8.0739    0.4648    0.7733 C   0  0  0  0  0  0  0  0  0  0  0  0
   -7.0131    0.8861   -0.0751 O   0  0  0  0  0  0  0  0  0  0  0  0
   -5.8126    1.1550    0.5199 C   0  0  0  0  0  0  0  0  0  0  0  0
   -5.5175    1.0199    1.8748 C   0  0  0  0  0  0  0  0  0  0  0  0
   -4.2355    1.3294    2.3493 C   0  0  0  0  0  0  0  0  0  0  0  0
   -3.2337    1.7804    1.4791 C   0  0  0  0  0  0  0  0  0  0  0  0
   -1.9736    2.0728    2.0437 N   0  0  0  0  0  0  0  0  0  0  0  0
   -0.8544    2.5519    1.3874 C   0  0  0  0  0  0  0  0  0  0  0  0
   -0.7403    2.8156    0.1969 O   0  0  0  0  0  0  0  0  0  0  0  0
    0.3025    2.7449    2.3052 C   0  0  0  0  0  0  0  0  0  0  0  0
    0.2146    3.7847    3.2677 C   0  0  0  0  0  0  0  0  0  0  0  0
    0.1380    4.6012    4.0886 N   0  0  0  0  0  0  0  0  0  0  0  0
    1.3933    1.9608    2.2235 C   0  0  0  0  0  0  0  0  0  0  0  0
    1.5626    0.8555    1.2773 C   0  0  0  0  0  0  0  0  0  0  0  0
    2.3604    1.0297    0.1425 C   0  0  0  0  0  0  0  0  0  0  0  0
    2.5281   -0.0151   -0.7744 C   0  0  0  0  0  0  0  0  0  0  0  0
    1.8958   -1.2396   -0.5661 C   0  0  0  0  0  0  0  0  0  0  0  0
    1.9750   -2.3386   -1.3718 O   0  0  0  0  0  0  0  0  0  0  0  0
    2.4592   -2.1839   -2.7073 C   0  0  0  0  0  0  0  0  0  0  0  0
    3.9350   -2.4678   -2.8152 C   0  0  0  0  0  0  0  0  0  0  0  0
    4.8159   -1.5293   -3.3720 C   0  0  0  0  0  0  0  0  0  0  0  0
    6.1802   -1.8134   -3.4785 C   0  0  0  0  0  0  0  0  0  0  0  0
    6.6782   -3.0394   -3.0390 C   0  0  0  0  0  0  0  0  0  0  0  0
    5.8102   -3.9847   -2.4974 C   0  0  0  0  0  0  0  0  0  0  0  0
    4.4525   -3.6957   -2.3929 C   0  0  0  0  0  0  0  0  0  0  0  0
    3.6354   -4.6332   -1.8921 F   0  0  0  0  0  0  0  0  0  0  0  0
    1.1130   -1.4159    0.5787 C   0  0  0  0  0  0  0  0  0  0  0  0
    0.9407   -0.3761    1.4960 C   0  0  0  0  0  0  0  0  0  0  0  0
   -3.5336    1.9115    0.1240 C   0  0  0  0  0  0  0  0  0  0  0  0
   -4.8141    1.5995   -0.3487 C   0  0  0  0  0  0  0  0  0  0  0  0
   -8.3217    1.2375    1.5095 H   0  0  0  0  0  0  0  0  0  0  0  0
   -7.8342   -0.4838    1.2648 H   0  0  0  0  0  0  0  0  0  0  0  0
   -8.9574    0.3011    0.1491 H   0  0  0  0  0  0  0  0  0  0  0  0
   -6.2572    0.6745    2.5901 H   0  0  0  0  0  0  0  0  0  0  0  0
   -4.0390    1.2130    3.4127 H   0  0  0  0  0  0  0  0  0  0  0  0
   -1.8996    1.9124    3.0408 H   0  0  0  0  0  0  0  0  0  0  0  0
    2.2435    2.1231    2.8837 H   0  0  0  0  0  0  0  0  0  0  0  0
    2.8540    1.9815   -0.0446 H   0  0  0  0  0  0  0  0  0  0  0  0
    3.1654    0.1631   -1.6318 H   0  0  0  0  0  0  0  0  0  0  0  0
    2.1858   -1.2101   -3.1332 H   0  0  0  0  0  0  0  0  0  0  0  0
    1.9321   -2.9240   -3.3237 H   0  0  0  0  0  0  0  0  0  0  0  0
    4.4479   -0.5700   -3.7294 H   0  0  0  0  0  0  0  0  0  0  0  0
    6.8559   -1.0771   -3.9082 H   0  0  0  0  0  0  0  0  0  0  0  0
    7.7381   -3.2606   -3.1243 H   0  0  0  0  0  0  0  0  0  0  0  0
    6.1787   -4.9476   -2.1590 H   0  0  0  0  0  0  0  0  0  0  0  0
    0.6264   -2.3738    0.7524 H   0  0  0  0  0  0  0  0  0  0  0  0
    0.3210   -0.5450    2.3729 H   0  0  0  0  0  0  0  0  0  0  0  0
   -2.7978    2.2490   -0.5995 H   0  0  0  0  0  0  0  0  0  0  0  0
   -5.0298    1.7056   -1.4100 H   0  0  0  0  0  0  0  0  0  0  0  0
  1  2  1  0
  2  3  1  0
  3  4  2  0
  4  5  1  0
  5  6  2  0
  6  7  1  0
  7  8  1  0
  8  9  2  0
  8 10  1  0
 10 11  1  0
 11 12  3  0
 10 13  2  3
 13 14  1  0
 14 15  2  0
 15 16  1  0
 16 17  2  0
 17 18  1  0
 18 19  1  0
 19 20  1  0
 20 21  2  0
 21 22  1  0
 22 23  2  0
 23 24  1  0
 24 25  2  0
 25 26  1  0
 17 27  1  0
 27 28  2  0
  6 29  1  0
 29 30  2  0
 30  3  1  0
 28 14  1  0
 25 20  1  0
  1 31  1  0
  1 32  1  0
  1 33  1  0
  4 34  1  0
  5 35  1  0
  7 36  1  0
 13 37  1  0
 15 38  1  0
 16 39  1  0
 19 40  1  0
 19 41  1  0
 21 42  1  0
 22 43  1  0
 23 44  1  0
 24 45  1  0
 27 46  1  0
 28 47  1  0
 29 48  1  0
 30 49  1  0
M  END
$$$$
