
     RDKit          3D

 50 53  0  0  0  0  0  0  0  0999 V2000
   -5.6177    0.1505    1.7255 C   0  0  0  0  0  0  0  0  0  0  0  0
   -4.4819   -0.3749    0.8494 C   0  0  0  0  0  0  0  0  0  0  0  0
   -4.8828   -0.3489   -0.6295 C   0  0  0  0  0  0  0  0  0  0  0  0
   -3.7299   -0.8587   -1.5011 C   0  0  0  0  0  0  0  0  0  0  0  0
   -4.1123   -0.8177   -2.9795 C   0  0  0  0  0  0  0  0  0  0  0  0
   -2.4531   -0.0426   -1.2474 C   0  0  0  0  0  0  0  0  0  0  0  0
   -2.1331   -0.0217    0.1825 N   0  0  0  0  0  0  0  0  0  0  0  0
   -0.8816    0.5382    0.4679 C   0  0  0  0  0  0  0  0  0  0  0  0
   -0.6513    1.0447    1.6929 N   0  0  0  0  0  0  0  0  0  0  0  0
    0.5745    1.5462    1.9578 C   0  0  0  0  0  0  0  0  0  0  0  0
    1.5918    1.5607    1.0394 C   0  0  0  0  0  0  0  0  0  0  0  0
    1.2955    1.0241   -0.1908 C   0  0  0  0  0  0  0  0  0  0  0  0
    0.0733    0.5233   -0.4839 N   0  0  0  0  0  0  0  0  0  0  0  0
    2.3285    0.9674   -1.2839 C   0  0  0  0  0  0  0  0  0  0  0  0
    3.7690    0.9394   -0.7396 C   0  0  0  0  0  0  0  0  0  0  0  0
    4.2632   -0.3893   -0.1665 C   0  0  0  0  0  0  0  0  0  0  0  0
    3.4261   -1.4841    0.1003 C   0  0  0  0  0  0  0  0  0  0  0  0
    3.9434   -2.6744    0.6248 C   0  0  0  0  0  0  0  0  0  0  0  0
    5.3053   -2.7898    0.8816 C   0  0  0  0  0  0  0  0  0  0  0  0
    5.9371   -4.2548    1.5234 Cl  0  0  0  0  0  0  0  0  0  0  0  0
    6.1579   -1.7252    0.6142 C   0  0  0  0  0  0  0  0  0  0  0  0
    5.6403   -0.5370    0.0911 C   0  0  0  0  0  0  0  0  0  0  0  0
    3.9575    2.1023    0.2495 C   0  0  0  0  0  0  0  0  0  0  0  0
    2.9175    2.1113    1.3479 C   0  0  0  0  0  0  0  0  0  0  0  0
    3.1287    2.6227    2.4431 O   0  0  0  0  0  0  0  0  0  0  0  0
   -3.1978    0.4368    1.0800 C   0  0  0  0  0  0  0  0  0  0  0  0
   -5.3450    0.1024    2.7850 H   0  0  0  0  0  0  0  0  0  0  0  0
   -5.8583    1.1915    1.4844 H   0  0  0  0  0  0  0  0  0  0  0  0
   -6.5243   -0.4477    1.5857 H   0  0  0  0  0  0  0  0  0  0  0  0
   -4.2884   -1.4182    1.1342 H   0  0  0  0  0  0  0  0  0  0  0  0
   -5.7701   -0.9751   -0.7845 H   0  0  0  0  0  0  0  0  0  0  0  0
   -5.1559    0.6721   -0.9271 H   0  0  0  0  0  0  0  0  0  0  0  0
   -3.5320   -1.9050   -1.2307 H   0  0  0  0  0  0  0  0  0  0  0  0
   -4.3246    0.2053   -3.3081 H   0  0  0  0  0  0  0  0  0  0  0  0
   -3.3017   -1.2119   -3.6013 H   0  0  0  0  0  0  0  0  0  0  0  0
   -5.0039   -1.4254   -3.1668 H   0  0  0  0  0  0  0  0  0  0  0  0
   -2.5798    0.9837   -1.6183 H   0  0  0  0  0  0  0  0  0  0  0  0
   -1.6476   -0.5118   -1.8271 H   0  0  0  0  0  0  0  0  0  0  0  0
    0.7057    1.9412    2.9615 H   0  0  0  0  0  0  0  0  0  0  0  0
    2.1434    0.1049   -1.9355 H   0  0  0  0  0  0  0  0  0  0  0  0
    2.1956    1.8653   -1.9016 H   0  0  0  0  0  0  0  0  0  0  0  0
    4.4191    1.1324   -1.6059 H   0  0  0  0  0  0  0  0  0  0  0  0
    2.3563   -1.4540   -0.0920 H   0  0  0  0  0  0  0  0  0  0  0  0
    3.2737   -3.5067    0.8270 H   0  0  0  0  0  0  0  0  0  0  0  0
    7.2238   -1.8110    0.8077 H   0  0  0  0  0  0  0  0  0  0  0  0
    6.3311    0.2786   -0.1177 H   0  0  0  0  0  0  0  0  0  0  0  0
    4.9475    2.0733    0.7173 H   0  0  0  0  0  0  0  0  0  0  0  0
    3.8724    3.0594   -0.2802 H   0  0  0  0  0  0  0  0  0  0  0  0
   -2.9135    0.3024    2.1318 H   0  0  0  0  0  0  0  0  0  0  0  0
   -3.3917    1.5058    0.9172 H   0  0  0  0  0  0  0  0  0  0  0  0
  1  2  1  0
  2  3  1  0
  3  4  1  0
  4  5  1  0
  4  6  1  0
  6  7  1  0
  7  8  1  0
  8  9  2  0
  9 10  1  0
 10 11  2  0
 11 12  1  0
 12 13  2  0
 12 14  1  0
 14 15  1  0
 15 16  1  0
 16 17  2  0
 17 18  1  0
 18 19  2  0
 19 20  1  0
 19 21  1  0
 21 22  2  0
 15 23  1  0
 23 24  1  0
 24 25  2  0
  7 26  1  0
 26  2  1  0
 13  8  1  0
 22 16  1  0
 24 11  1  0
  1 27  1  0
  1 28  1  0
  1 29  1  0
  2 30  1  0
  3 31  1  0
  3 32  1  0
  4 33  1  0
  5 34  1  0
  5 35  1  0
  5 36  1  0
  6 37  1  0
  6 38  1  0
 10 39  1  0
 14 40  1  0
 14 41  1  0
 15 42  1  0
 17 43  1  0
 18 44  1  0
 21 45  1  0
 22 46  1  0
 23 47  1  0
 23 48  1  0
 26 49  1  0
 26 50  1  0
M  END
$$$$
