
     RDKit          3D

 53 56  0  0  0  0  0  0  0  0999 V2000
    7.8729    1.2059    0.0392 C   0  0  0  0  0  0  0  0  0  0  0  0
    7.1297    0.4014   -0.8676 O   0  0  0  0  0  0  0  0  0  0  0  0
    5.7931    0.6687   -0.9788 C   0  0  0  0  0  0  0  0  0  0  0  0
    5.0909   -0.2035   -1.8133 C   0  0  0  0  0  0  0  0  0  0  0  0
    3.7184   -0.0454   -2.0166 C   0  0  0  0  0  0  0  0  0  0  0  0
    3.0256    1.0001   -1.3936 C   0  0  0  0  0  0  0  0  0  0  0  0
    1.5415    1.1531   -1.5942 C   0  0  0  0  0  0  0  0  0  0  0  0
    0.8102    0.3694   -0.6270 N   0  0  0  0  0  0  0  0  0  0  0  0
    0.3368   -0.8973   -0.8999 C   0  0  0  0  0  0  0  0  0  0  0  0
    0.4099   -1.3978   -2.0233 O   0  0  0  0  0  0  0  0  0  0  0  0
   -0.2899   -1.6495    0.2660 C   0  0  0  0  0  0  0  0  0  0  0  0
    0.7676   -2.1265    1.1711 C   0  0  0  0  0  0  0  0  0  0  0  0
    1.5969   -2.5252    1.8817 N   0  0  0  0  0  0  0  0  0  0  0  0
   -1.3217   -0.7945    0.9697 C   0  0  0  0  0  0  0  0  0  0  0  0
   -0.8491    0.1568    1.8352 N   0  0  0  0  0  0  0  0  0  0  0  0
   -1.7590    0.9001    2.4870 C   0  0  0  0  0  0  0  0  0  0  0  0
   -1.3404    1.8623    3.3993 C   0  0  0  0  0  0  0  0  0  0  0  0
   -2.2588    2.6529    4.0915 C   0  0  0  0  0  0  0  0  0  0  0  0
   -3.6179    2.4770    3.8675 C   0  0  0  0  0  0  0  0  0  0  0  0
   -4.0452    1.5114    2.9543 C   0  0  0  0  0  0  0  0  0  0  0  0
   -3.1385    0.7194    2.2598 C   0  0  0  0  0  0  0  0  0  0  0  0
   -3.5902   -0.1961    1.3816 N   0  0  0  0  0  0  0  0  0  0  0  0
   -2.6932   -0.9562    0.7149 C   0  0  0  0  0  0  0  0  0  0  0  0
   -3.1545   -1.8790   -0.2296 N   0  0  0  0  0  0  0  0  0  0  0  0
   -3.0283   -1.4118   -1.6274 C   0  0  0  0  0  0  0  0  0  0  0  0
   -4.4044   -1.6294   -2.2530 C   0  0  0  0  0  0  0  0  0  0  0  0
   -4.9855   -2.7567   -1.4215 C   0  0  0  0  0  0  0  0  0  0  0  0
   -4.5260   -2.3747   -0.0200 C   0  0  0  0  0  0  0  0  0  0  0  0
    3.7310    1.8675   -0.5493 C   0  0  0  0  0  0  0  0  0  0  0  0
    5.1072    1.7061   -0.3466 C   0  0  0  0  0  0  0  0  0  0  0  0
    8.9025    0.8370    0.0472 H   0  0  0  0  0  0  0  0  0  0  0  0
    7.8964    2.2496   -0.2900 H   0  0  0  0  0  0  0  0  0  0  0  0
    7.4817    1.1211    1.0586 H   0  0  0  0  0  0  0  0  0  0  0  0
    5.6160   -1.0206   -2.3031 H   0  0  0  0  0  0  0  0  0  0  0  0
    3.1907   -0.7497   -2.6583 H   0  0  0  0  0  0  0  0  0  0  0  0
    1.2444    2.1994   -1.4605 H   0  0  0  0  0  0  0  0  0  0  0  0
    1.2613    0.8654   -2.6138 H   0  0  0  0  0  0  0  0  0  0  0  0
    0.7949    0.6972    0.3365 H   0  0  0  0  0  0  0  0  0  0  0  0
   -0.7647   -2.5474   -0.1480 H   0  0  0  0  0  0  0  0  0  0  0  0
   -0.2761    1.9939    3.5791 H   0  0  0  0  0  0  0  0  0  0  0  0
   -1.9110    3.3978    4.8031 H   0  0  0  0  0  0  0  0  0  0  0  0
   -4.3465    3.0837    4.3997 H   0  0  0  0  0  0  0  0  0  0  0  0
   -5.1092    1.3714    2.7780 H   0  0  0  0  0  0  0  0  0  0  0  0
   -2.7219   -0.3636   -1.7221 H   0  0  0  0  0  0  0  0  0  0  0  0
   -2.2879   -2.0370   -2.1385 H   0  0  0  0  0  0  0  0  0  0  0  0
   -4.3464   -1.8700   -3.3184 H   0  0  0  0  0  0  0  0  0  0  0  0
   -5.0142   -0.7247   -2.1390 H   0  0  0  0  0  0  0  0  0  0  0  0
   -6.0738   -2.8277   -1.5019 H   0  0  0  0  0  0  0  0  0  0  0  0
   -4.5487   -3.7167   -1.7220 H   0  0  0  0  0  0  0  0  0  0  0  0
   -5.2103   -1.6140    0.3750 H   0  0  0  0  0  0  0  0  0  0  0  0
   -4.5320   -3.2370    0.6540 H   0  0  0  0  0  0  0  0  0  0  0  0
    3.2146    2.6777   -0.0385 H   0  0  0  0  0  0  0  0  0  0  0  0
    5.6112    2.4056    0.3120 H   0  0  0  0  0  0  0  0  0  0  0  0
  1  2  1  0
  2  3  1  0
  3  4  2  0
  4  5  1  0
  5  6  2  0
  6  7  1  0
  7  8  1  0
  8  9  1  0
  9 10  2  0
  9 11  1  0
 11 12  1  0
 12 13  3  0
 11 14  1  0
 14 15  2  0
 15 16  1  0
 16 17  2  0
 17 18  1  0
 18 19  2  0
 19 20  1  0
 20 21  2  0
 21 22  1  0
 22 23  2  0
 23 24  1  0
 24 25  1  0
 25 26  1  0
 26 27  1  0
 27 28  1  0
  6 29  1  0
 29 30  2  0
 30  3  1  0
 23 14  1  0
 28 24  1  0
 21 16  1  0
  1 31  1  0
  1 32  1  0
  1 33  1  0
  4 34  1  0
  5 35  1  0
  7 36  1  0
  7 37  1  0
  8 38  1  0
 11 39  1  0
 17 40  1  0
 18 41  1  0
 19 42  1  0
 20 43  1  0
 25 44  1  0
 25 45  1  0
 26 46  1  0
 26 47  1  0
 27 48  1  0
 27 49  1  0
 28 50  1  0
 28 51  1  0
 29 52  1  0
 30 53  1  0
M  END
$$$$
