
     RDKit          3D

 29 31  0  0  0  0  0  0  0  0999 V2000
   -3.0049    2.5856   -2.1213 O   0  0  0  0  0  0  0  0  0  0  0  0
   -3.0718    1.3923   -2.3674 C   0  0  0  0  0  0  0  0  0  0  0  0
   -3.6389    0.8673   -3.4936 N   0  0  0  0  0  0  0  0  0  0  0  0
   -3.6549   -0.4857   -3.6301 C   0  0  0  0  0  0  0  0  0  0  0  0
   -4.3168   -1.2713   -4.9272 S   0  0  0  0  0  0  0  0  0  0  0  0
   -2.8847   -1.2257   -2.2473 S   0  0  0  0  0  0  0  0  0  0  0  0
   -2.5627    0.2932   -1.4974 C   0  0  0  0  0  0  0  0  0  0  0  0
   -1.9379    0.5816   -0.3499 C   0  0  0  0  0  0  0  0  0  0  0  0
   -1.3764   -0.3369    0.5804 C   0  0  0  0  0  0  0  0  0  0  0  0
   -1.6205   -1.6768    0.8576 C   0  0  0  0  0  0  0  0  0  0  0  0
   -0.7555   -2.0742    1.9068 C   0  0  0  0  0  0  0  0  0  0  0  0
   -0.0172   -0.9650    2.2454 C   0  0  0  0  0  0  0  0  0  0  0  0
    1.2066   -0.8314    3.4773 S   0  0  0  0  0  0  0  0  0  0  0  0
    2.0574    0.6928    2.9727 C   0  0  0  0  0  0  0  0  0  0  0  0
    2.9338    0.4816    1.7921 C   0  0  0  0  0  0  0  0  0  0  0  0
    4.0769   -0.2622    1.5742 C   0  0  0  0  0  0  0  0  0  0  0  0
    4.4528   -0.0364    0.2285 C   0  0  0  0  0  0  0  0  0  0  0  0
    3.5226    0.8339   -0.2872 C   0  0  0  0  0  0  0  0  0  0  0  0
    2.6013    1.1592    0.6551 O   0  0  0  0  0  0  0  0  0  0  0  0
   -0.4062    0.0802    1.4676 O   0  0  0  0  0  0  0  0  0  0  0  0
   -4.0384    1.4778   -4.1906 H   0  0  0  0  0  0  0  0  0  0  0  0
   -1.7959    1.6302   -0.0901 H   0  0  0  0  0  0  0  0  0  0  0  0
   -2.3470   -2.3116    0.3714 H   0  0  0  0  0  0  0  0  0  0  0  0
   -0.6814   -3.0520    2.3609 H   0  0  0  0  0  0  0  0  0  0  0  0
    1.3307    1.4926    2.7953 H   0  0  0  0  0  0  0  0  0  0  0  0
    2.6776    1.0149    3.8167 H   0  0  0  0  0  0  0  0  0  0  0  0
    4.5716   -0.8933    2.2990 H   0  0  0  0  0  0  0  0  0  0  0  0
    5.2966   -0.4554   -0.3016 H   0  0  0  0  0  0  0  0  0  0  0  0
    3.3832    1.2946   -1.2546 H   0  0  0  0  0  0  0  0  0  0  0  0
  1  2  2  0
  2  3  1  0
  3  4  1  0
  4  5  2  0
  4  6  1  0
  6  7  1  0
  7  8  2  3
  8  9  1  0
  9 10  2  0
 10 11  1  0
 11 12  2  0
 12 13  1  0
 13 14  1  0
 14 15  1  0
 15 16  2  0
 16 17  1  0
 17 18  2  0
 18 19  1  0
 12 20  1  0
  7  2  1  0
 20  9  1  0
 19 15  1  0
  3 21  1  0
  8 22  1  0
 10 23  1  0
 11 24  1  0
 14 25  1  0
 14 26  1  0
 16 27  1  0
 17 28  1  0
 18 29  1  0
M  END
$$$$
