
     RDKit          3D

 51 53  0  0  0  0  0  0  0  0999 V2000
   -2.3518   -0.4521   -3.2893 C   0  0  0  0  0  0  0  0  0  0  0  0
   -1.0890   -0.3231   -2.4769 C   0  0  0  0  0  0  0  0  0  0  0  0
    0.1272   -0.6387   -3.0960 C   0  0  0  0  0  0  0  0  0  0  0  0
    1.3266   -0.5428   -2.3938 C   0  0  0  0  0  0  0  0  0  0  0  0
    1.3459   -0.1485   -1.0519 C   0  0  0  0  0  0  0  0  0  0  0  0
    2.6238   -0.1239   -0.4476 N   0  0  0  0  0  0  0  0  0  0  0  0
    3.0888    0.1683    0.8117 C   0  0  0  0  0  0  0  0  0  0  0  0
    2.2743    0.6199    2.1958 S   0  0  0  0  0  0  0  0  0  0  0  0
    4.4675    0.0570    0.9540 N   0  0  0  0  0  0  0  0  0  0  0  0
    5.4253   -0.3021    0.0133 C   0  0  0  0  0  0  0  0  0  0  0  0
    5.1690   -0.5103   -1.1698 O   0  0  0  0  0  0  0  0  0  0  0  0
    6.8271   -0.3885    0.5036 C   0  0  0  0  0  0  0  0  0  0  0  0
    7.1342   -0.7790    1.8140 C   0  0  0  0  0  0  0  0  0  0  0  0
    8.4672   -0.8448    2.2266 C   0  0  0  0  0  0  0  0  0  0  0  0
    9.4926   -0.5316    1.3348 C   0  0  0  0  0  0  0  0  0  0  0  0
    9.1916   -0.1607    0.0250 C   0  0  0  0  0  0  0  0  0  0  0  0
    7.8619   -0.0939   -0.3929 C   0  0  0  0  0  0  0  0  0  0  0  0
    0.1315    0.1698   -0.4363 C   0  0  0  0  0  0  0  0  0  0  0  0
   -1.0898    0.1072   -1.1309 C   0  0  0  0  0  0  0  0  0  0  0  0
   -2.3422    0.4077   -0.5379 N   0  0  0  0  0  0  0  0  0  0  0  0
   -2.7161    1.1002    0.5893 C   0  0  0  0  0  0  0  0  0  0  0  0
   -1.8064    2.0183    1.6451 S   0  0  0  0  0  0  0  0  0  0  0  0
   -4.0766    1.0578    0.8677 N   0  0  0  0  0  0  0  0  0  0  0  0
   -5.1023    0.4453    0.1591 C   0  0  0  0  0  0  0  0  0  0  0  0
   -4.9262   -0.2059   -0.8671 O   0  0  0  0  0  0  0  0  0  0  0  0
   -6.4709    0.5981    0.7209 C   0  0  0  0  0  0  0  0  0  0  0  0
   -6.8664    1.7466    1.4197 C   0  0  0  0  0  0  0  0  0  0  0  0
   -8.1639    1.8391    1.9295 C   0  0  0  0  0  0  0  0  0  0  0  0
   -9.0689    0.7954    1.7361 C   0  0  0  0  0  0  0  0  0  0  0  0
   -8.6844   -0.3403    1.0249 C   0  0  0  0  0  0  0  0  0  0  0  0
   -7.3898   -0.4380    0.5132 C   0  0  0  0  0  0  0  0  0  0  0  0
   -2.9804   -1.2517   -2.8855 H   0  0  0  0  0  0  0  0  0  0  0  0
   -2.1363   -0.6987   -4.3346 H   0  0  0  0  0  0  0  0  0  0  0  0
   -2.9061    0.4917   -3.2904 H   0  0  0  0  0  0  0  0  0  0  0  0
    0.1522   -0.9610   -4.1350 H   0  0  0  0  0  0  0  0  0  0  0  0
    2.2497   -0.7957   -2.9119 H   0  0  0  0  0  0  0  0  0  0  0  0
    3.3814   -0.3680   -1.0887 H   0  0  0  0  0  0  0  0  0  0  0  0
    4.7790    0.3090    1.8821 H   0  0  0  0  0  0  0  0  0  0  0  0
    6.3591   -1.0645    2.5192 H   0  0  0  0  0  0  0  0  0  0  0  0
    8.7087   -1.1510    3.2419 H   0  0  0  0  0  0  0  0  0  0  0  0
   10.5294   -0.5869    1.6581 H   0  0  0  0  0  0  0  0  0  0  0  0
    9.9922    0.0723   -0.6729 H   0  0  0  0  0  0  0  0  0  0  0  0
    7.6349    0.1919   -1.4183 H   0  0  0  0  0  0  0  0  0  0  0  0
    0.1216    0.4278    0.6074 H   0  0  0  0  0  0  0  0  0  0  0  0
   -3.1485    0.0885   -1.0744 H   0  0  0  0  0  0  0  0  0  0  0  0
   -4.3054    1.5312    1.7305 H   0  0  0  0  0  0  0  0  0  0  0  0
   -6.1961    2.5912    1.5536 H   0  0  0  0  0  0  0  0  0  0  0  0
   -8.4742    2.7301    2.4704 H   0  0  0  0  0  0  0  0  0  0  0  0
  -10.0793    0.8712    2.1324 H   0  0  0  0  0  0  0  0  0  0  0  0
   -9.3932   -1.1497    0.8666 H   0  0  0  0  0  0  0  0  0  0  0  0
   -7.0985   -1.3261   -0.0446 H   0  0  0  0  0  0  0  0  0  0  0  0
  1  2  1  0
  2  3  2  0
  3  4  1  0
  4  5  2  0
  5  6  1  0
  6  7  1  0
  7  8  2  0
  7  9  1  0
  9 10  1  0
 10 11  2  0
 10 12  1  0
 12 13  2  0
 13 14  1  0
 14 15  2  0
 15 16  1  0
 16 17  2  0
  5 18  1  0
 18 19  2  0
 19 20  1  0
 20 21  1  0
 21 22  2  0
 21 23  1  0
 23 24  1  0
 24 25  2  0
 24 26  1  0
 26 27  2  0
 27 28  1  0
 28 29  2  0
 29 30  1  0
 30 31  2  0
 19  2  1  0
 31 26  1  0
 17 12  1  0
  1 32  1  0
  1 33  1  0
  1 34  1  0
  3 35  1  0
  4 36  1  0
  6 37  1  0
  9 38  1  0
 13 39  1  0
 14 40  1  0
 15 41  1  0
 16 42  1  0
 17 43  1  0
 18 44  1  0
 20 45  1  0
 23 46  1  0
 27 47  1  0
 28 48  1  0
 29 49  1  0
 30 50  1  0
 31 51  1  0
M  END
$$$$
