
     RDKit          3D

 45 49  0  0  0  0  0  0  0  0999 V2000
   -1.3036    2.6278   -0.2457 O   0  0  0  0  0  0  0  0  0  0  0  0
   -1.2814    1.3971   -0.2846 C   0  0  0  0  0  0  0  0  0  0  0  0
    0.0680    0.7662   -0.1583 C   0  0  0  0  0  0  0  0  0  0  0  0
    1.2893    1.4909   -0.2257 C   0  0  0  0  0  0  0  0  0  0  0  0
    2.2944    0.5812   -0.0184 C   0  0  0  0  0  0  0  0  0  0  0  0
    3.6494    0.7277    0.0317 N   0  0  0  0  0  0  0  0  0  0  0  0
    4.3709   -0.3385    0.2554 C   0  0  0  0  0  0  0  0  0  0  0  0
    5.8212   -0.1585    0.3067 C   0  0  0  0  0  0  0  0  0  0  0  0
    6.5095    1.0442    0.2468 C   0  0  0  0  0  0  0  0  0  0  0  0
    7.9229    0.8826    0.3050 C   0  0  0  0  0  0  0  0  0  0  0  0
    8.2811   -0.4412    0.4148 C   0  0  0  0  0  0  0  0  0  0  0  0
    6.9200   -1.4688    0.4485 S   0  0  0  0  0  0  0  0  0  0  0  0
    3.7623   -1.6994    0.4621 C   0  0  0  0  0  0  0  0  0  0  0  0
    2.4181   -1.7887    0.4088 C   0  0  0  0  0  0  0  0  0  0  0  0
    1.6636   -3.0462    0.6090 C   0  0  0  0  0  0  0  0  0  0  0  0
    2.4965   -4.0906    0.8763 F   0  0  0  0  0  0  0  0  0  0  0  0
    0.8036   -2.9812    1.6553 F   0  0  0  0  0  0  0  0  0  0  0  0
    0.9517   -3.4109   -0.4853 F   0  0  0  0  0  0  0  0  0  0  0  0
    1.6652   -0.6487    0.1651 N   0  0  0  0  0  0  0  0  0  0  0  0
    0.3208   -0.5342    0.0750 N   0  0  0  0  0  0  0  0  0  0  0  0
   -2.4557    0.5958   -0.4177 N   0  0  0  0  0  0  0  0  0  0  0  0
   -2.3651   -0.8710   -0.4247 C   0  0  0  0  0  0  0  0  0  0  0  0
   -3.6413   -1.6154   -0.7818 C   0  0  0  0  0  0  0  0  0  0  0  0
   -4.7639   -1.1131    0.0937 C   0  0  0  0  0  0  0  0  0  0  0  0
   -4.9138    0.3634   -0.1414 C   0  0  0  0  0  0  0  0  0  0  0  0
   -6.2048    0.9203   -0.0649 C   0  0  0  0  0  0  0  0  0  0  0  0
   -6.4077    2.2745   -0.3010 C   0  0  0  0  0  0  0  0  0  0  0  0
   -5.3225    3.0779   -0.6135 C   0  0  0  0  0  0  0  0  0  0  0  0
   -4.0322    2.5350   -0.6661 C   0  0  0  0  0  0  0  0  0  0  0  0
   -3.7874    1.1767   -0.4063 C   0  0  0  0  0  0  0  0  0  0  0  0
    1.4083    2.5530   -0.3880 H   0  0  0  0  0  0  0  0  0  0  0  0
    6.0105    2.0032    0.1576 H   0  0  0  0  0  0  0  0  0  0  0  0
    8.6358    1.6945    0.2671 H   0  0  0  0  0  0  0  0  0  0  0  0
    9.2787   -0.8545    0.4774 H   0  0  0  0  0  0  0  0  0  0  0  0
    4.3889   -2.5597    0.6599 H   0  0  0  0  0  0  0  0  0  0  0  0
   -2.0343   -1.1869    0.5714 H   0  0  0  0  0  0  0  0  0  0  0  0
   -1.6146   -1.1626   -1.1654 H   0  0  0  0  0  0  0  0  0  0  0  0
   -3.8821   -1.4551   -1.8414 H   0  0  0  0  0  0  0  0  0  0  0  0
   -3.5008   -2.6924   -0.6433 H   0  0  0  0  0  0  0  0  0  0  0  0
   -4.5556   -1.2929    1.1541 H   0  0  0  0  0  0  0  0  0  0  0  0
   -5.6865   -1.6455   -0.1642 H   0  0  0  0  0  0  0  0  0  0  0  0
   -7.0605    0.2908    0.1686 H   0  0  0  0  0  0  0  0  0  0  0  0
   -7.4073    2.6973   -0.2524 H   0  0  0  0  0  0  0  0  0  0  0  0
   -5.4683    4.1356   -0.8210 H   0  0  0  0  0  0  0  0  0  0  0  0
   -3.2410    3.2204   -0.9496 H   0  0  0  0  0  0  0  0  0  0  0  0
  1  2  2  0
  2  3  1  0
  3  4  1  0
  4  5  2  0
  5  6  1  0
  6  7  2  0
  7  8  1  0
  8  9  2  0
  9 10  1  0
 10 11  2  0
 11 12  1  0
  7 13  1  0
 13 14  2  0
 14 15  1  0
 15 16  1  0
 15 17  1  0
 15 18  1  0
 14 19  1  0
 19 20  1  0
  2 21  1  0
 21 22  1  0
 22 23  1  0
 23 24  1  0
 24 25  1  0
 25 26  2  0
 26 27  1  0
 27 28  2  0
 28 29  1  0
 29 30  2  0
 20  3  2  0
 30 21  1  0
 19  5  1  0
 30 25  1  0
 12  8  1  0
  4 31  1  0
  9 32  1  0
 10 33  1  0
 11 34  1  0
 13 35  1  0
 22 36  1  0
 22 37  1  0
 23 38  1  0
 23 39  1  0
 24 40  1  0
 24 41  1  0
 26 42  1  0
 27 43  1  0
 28 44  1  0
 29 45  1  0
M  END
$$$$
