
     RDKit          3D

 34 36  0  0  0  0  0  0  0  0999 V2000
   -0.2261    1.8071    1.5827 O   0  0  0  0  0  0  0  0  0  0  0  0
   -0.4642    1.5239    0.4118 C   0  0  0  0  0  0  0  0  0  0  0  0
   -1.8178    1.8602   -0.2003 C   0  0  0  0  0  0  0  0  0  0  0  0
   -2.8166    0.7322   -0.0642 C   0  0  0  0  0  0  0  0  0  0  0  0
   -3.4092    0.5255    1.1951 C   0  0  0  0  0  0  0  0  0  0  0  0
   -4.3546   -0.4850    1.3934 C   0  0  0  0  0  0  0  0  0  0  0  0
   -4.7311   -1.3142    0.3393 C   0  0  0  0  0  0  0  0  0  0  0  0
   -4.1553   -1.1418   -0.9173 C   0  0  0  0  0  0  0  0  0  0  0  0
   -3.2001   -0.1306   -1.1103 C   0  0  0  0  0  0  0  0  0  0  0  0
   -2.6136   -0.0232   -2.4424 N   0  0  0  0  0  4  0  0  0  0  0  0
   -1.3796    0.0881   -2.5149 O   0  0  0  0  0  0  0  0  0  0  0  0
   -3.3842   -0.0594   -3.4100 O   0  0  0  0  0  1  0  0  0  0  0  0
    0.3860    0.8851   -0.4719 N   0  0  0  0  0  0  0  0  0  0  0  0
    1.7057    0.4466   -0.2392 C   0  0  0  0  0  0  0  0  0  0  0  0
    2.4023    0.6618    0.9655 C   0  0  0  0  0  0  0  0  0  0  0  0
    3.7156    0.2014    1.1323 C   0  0  0  0  0  0  0  0  0  0  0  0
    4.3021   -0.4659    0.0816 C   0  0  0  0  0  0  0  0  0  0  0  0
    3.6311   -0.6786   -1.0972 C   0  0  0  0  0  0  0  0  0  0  0  0
    2.3381   -0.2365   -1.2891 C   0  0  0  0  0  0  0  0  0  0  0  0
    4.3829   -1.3543   -2.0074 O   0  0  0  0  0  0  0  0  0  0  0  0
    5.6054   -1.5408   -1.2636 C   0  0  0  0  0  0  0  0  0  0  0  0
    5.5602   -0.9793    0.0644 O   0  0  0  0  0  0  0  0  0  0  0  0
   -2.2065    2.7471    0.3186 H   0  0  0  0  0  0  0  0  0  0  0  0
   -1.6957    2.1906   -1.2368 H   0  0  0  0  0  0  0  0  0  0  0  0
   -3.1320    1.1563    2.0410 H   0  0  0  0  0  0  0  0  0  0  0  0
   -4.7974   -0.6234    2.3779 H   0  0  0  0  0  0  0  0  0  0  0  0
   -5.4690   -2.0970    0.5002 H   0  0  0  0  0  0  0  0  0  0  0  0
   -4.4500   -1.7986   -1.7337 H   0  0  0  0  0  0  0  0  0  0  0  0
    0.0019    0.6542   -1.3884 H   0  0  0  0  0  0  0  0  0  0  0  0
    1.9464    1.1908    1.7970 H   0  0  0  0  0  0  0  0  0  0  0  0
    4.2513    0.3672    2.0602 H   0  0  0  0  0  0  0  0  0  0  0  0
    1.8407   -0.4240   -2.2345 H   0  0  0  0  0  0  0  0  0  0  0  0
    5.8062   -2.6154   -1.1834 H   0  0  0  0  0  0  0  0  0  0  0  0
    6.4269   -1.0699   -1.8157 H   0  0  0  0  0  0  0  0  0  0  0  0
  1  2  2  0
  2  3  1  0
  3  4  1  0
  4  5  2  0
  5  6  1  0
  6  7  2  0
  7  8  1  0
  8  9  2  0
  9 10  1  0
 10 11  2  0
 10 12  1  0
  2 13  1  0
 13 14  1  0
 14 15  2  0
 15 16  1  0
 16 17  2  0
 17 18  1  0
 18 19  2  0
 18 20  1  0
 20 21  1  0
 21 22  1  0
  9  4  1  0
 19 14  1  0
 22 17  1  0
  3 23  1  0
  3 24  1  0
  5 25  1  0
  6 26  1  0
  7 27  1  0
  8 28  1  0
 13 29  1  0
 15 30  1  0
 16 31  1  0
 19 32  1  0
 21 33  1  0
 21 34  1  0
M  CHG  2  10   1  12  -1
M  END
$$$$
