
     RDKit          3D

 37 40  0  0  0  0  0  0  0  0999 V2000
    1.0557    0.1859   -1.1006 O   0  0  0  0  0  0  0  0  0  0  0  0
    2.0709    0.1388   -0.4400 C   0  0  0  0  0  0  0  0  0  0  0  0
    3.2971   -0.2166   -0.9185 O   0  0  0  0  0  0  0  0  0  0  0  0
    4.1626   -0.0758    0.1126 C   0  0  0  0  0  0  0  0  0  0  0  0
    5.5200   -0.3906   -0.2076 C   0  0  0  0  0  0  0  0  0  0  0  0
    6.1245   -0.8172   -1.3770 C   0  0  0  0  0  0  0  0  0  0  0  0
    7.5040   -0.9676   -1.0946 C   0  0  0  0  0  0  0  0  0  0  0  0
    7.6617   -0.6253    0.2265 C   0  0  0  0  0  0  0  0  0  0  0  0
    6.4697   -0.2750    0.7720 O   0  0  0  0  0  0  0  0  0  0  0  0
    3.6918    0.3207    1.2485 N   0  0  0  0  0  0  0  0  0  0  0  0
    2.3453    0.4631    0.9970 C   0  0  0  0  0  0  0  0  0  0  0  0
    1.5025    0.8514    1.9630 C   0  0  0  0  0  0  0  0  0  0  0  0
    0.0957    0.9920    1.8504 C   0  0  0  0  0  0  0  0  0  0  0  0
   -0.7539    1.7263    2.6697 C   0  0  0  0  0  0  0  0  0  0  0  0
   -2.0775    1.5482    2.2004 C   0  0  0  0  0  0  0  0  0  0  0  0
   -1.9934    0.7038    1.1159 C   0  0  0  0  0  0  0  0  0  0  0  0
   -2.9630    0.1228    0.1905 C   0  0  0  0  0  0  0  0  0  0  0  0
   -2.5494   -0.5319   -0.9784 C   0  0  0  0  0  0  0  0  0  0  0  0
   -3.4785   -1.0864   -1.8616 C   0  0  0  0  0  0  0  0  0  0  0  0
   -4.8415   -0.9928   -1.5901 C   0  0  0  0  0  0  0  0  0  0  0  0
   -5.2884   -0.3361   -0.4356 C   0  0  0  0  0  0  0  0  0  0  0  0
   -6.7609   -0.2499   -0.1223 C   0  0  0  0  0  0  0  0  0  0  0  0
   -7.5485   -0.2506   -1.2340 F   0  0  0  0  0  0  0  0  0  0  0  0
   -7.0944    0.8781    0.5663 F   0  0  0  0  0  0  0  0  0  0  0  0
   -7.1900   -1.2925    0.6409 F   0  0  0  0  0  0  0  0  0  0  0  0
   -4.3398    0.2107    0.4491 C   0  0  0  0  0  0  0  0  0  0  0  0
   -0.6887    0.3609    0.9192 O   0  0  0  0  0  0  0  0  0  0  0  0
    5.6263   -0.9976   -2.3203 H   0  0  0  0  0  0  0  0  0  0  0  0
    8.2867   -1.2858   -1.7692 H   0  0  0  0  0  0  0  0  0  0  0  0
    8.5117   -0.5804    0.8938 H   0  0  0  0  0  0  0  0  0  0  0  0
    1.9329    1.0782    2.9357 H   0  0  0  0  0  0  0  0  0  0  0  0
   -0.4451    2.3289    3.5132 H   0  0  0  0  0  0  0  0  0  0  0  0
   -2.9770    1.9882    2.6061 H   0  0  0  0  0  0  0  0  0  0  0  0
   -1.4892   -0.6110   -1.2168 H   0  0  0  0  0  0  0  0  0  0  0  0
   -3.1320   -1.5896   -2.7612 H   0  0  0  0  0  0  0  0  0  0  0  0
   -5.5556   -1.4321   -2.2852 H   0  0  0  0  0  0  0  0  0  0  0  0
   -4.6921    0.7070    1.3524 H   0  0  0  0  0  0  0  0  0  0  0  0
  1  2  2  0
  2  3  1  0
  3  4  1  0
  4  5  1  0
  5  6  2  0
  6  7  1  0
  7  8  2  0
  8  9  1  0
  4 10  2  0
 10 11  1  0
 11 12  2  3
 12 13  1  0
 13 14  2  0
 14 15  1  0
 15 16  2  0
 16 17  1  0
 17 18  2  0
 18 19  1  0
 19 20  2  0
 20 21  1  0
 21 22  1  0
 22 23  1  0
 22 24  1  0
 22 25  1  0
 21 26  2  0
 16 27  1  0
 11  2  1  0
 27 13  1  0
  9  5  1  0
 26 17  1  0
  6 28  1  0
  7 29  1  0
  8 30  1  0
 12 31  1  0
 14 32  1  0
 15 33  1  0
 18 34  1  0
 19 35  1  0
 20 36  1  0
 26 37  1  0
M  END
$$$$
