
     RDKit          3D

 45 47  0  0  0  0  0  0  0  0999 V2000
   -5.0783   -1.8517    2.7337 C   0  0  0  0  0  0  0  0  0  0  0  0
   -4.0901   -1.3206    1.8572 O   0  0  0  0  0  0  0  0  0  0  0  0
   -4.3536   -0.0891    1.2984 C   0  0  0  0  0  0  0  0  0  0  0  0
   -5.4757    0.6941    1.5837 C   0  0  0  0  0  0  0  0  0  0  0  0
   -5.6458    1.9294    0.9559 C   0  0  0  0  0  0  0  0  0  0  0  0
   -4.6994    2.3858    0.0432 C   0  0  0  0  0  0  0  0  0  0  0  0
   -3.5726    1.6137   -0.2443 C   0  0  0  0  0  0  0  0  0  0  0  0
   -3.3895    0.3771    0.3772 C   0  0  0  0  0  0  0  0  0  0  0  0
   -2.2759   -0.4599    0.1419 N   0  0  0  0  0  0  0  0  0  0  0  0
   -1.1994   -0.2407   -0.6944 C   0  0  0  0  0  0  0  0  0  0  0  0
   -1.0229    0.7435   -1.4050 O   0  0  0  0  0  0  0  0  0  0  0  0
   -0.1789   -1.3827   -0.6380 C   0  0  0  0  0  0  0  0  0  0  0  0
    0.8573   -1.2612   -1.7652 C   0  0  0  0  0  0  0  0  0  0  0  0
    2.0089   -0.3493   -1.3622 C   0  0  0  0  0  0  0  0  0  0  0  0
    2.7211   -0.8612   -0.1548 N   0  0  0  0  0  0  0  0  0  0  0  0
    4.3446   -1.3413   -0.4117 S   0  0  0  0  0  6  0  0  0  0  0  0
    4.9065   -1.7086    0.8700 O   0  0  0  0  0  0  0  0  0  0  0  0
    4.3469   -2.2506   -1.5382 O   0  0  0  0  0  0  0  0  0  0  0  0
    5.2460    0.1100   -0.9058 C   0  0  0  0  0  0  0  0  0  0  0  0
    5.0182    1.4572   -0.6953 C   0  0  0  0  0  0  0  0  0  0  0  0
    6.0261    2.2755   -1.2831 C   0  0  0  0  0  0  0  0  0  0  0  0
    6.9942    1.5253   -1.9122 C   0  0  0  0  0  0  0  0  0  0  0  0
    6.6889   -0.1540   -1.7853 S   0  0  0  0  0  0  0  0  0  0  0  0
    1.9507   -1.8307    0.6652 C   0  0  0  0  0  0  0  0  0  0  0  0
    0.4888   -1.4117    0.7462 C   0  0  0  0  0  0  0  0  0  0  0  0
   -4.7406   -2.8409    3.0584 H   0  0  0  0  0  0  0  0  0  0  0  0
   -5.1891   -1.2260    3.6256 H   0  0  0  0  0  0  0  0  0  0  0  0
   -6.0343   -1.9807    2.2163 H   0  0  0  0  0  0  0  0  0  0  0  0
   -6.2364    0.3761    2.2879 H   0  0  0  0  0  0  0  0  0  0  0  0
   -6.5191    2.5370    1.1776 H   0  0  0  0  0  0  0  0  0  0  0  0
   -4.8345    3.3461   -0.4503 H   0  0  0  0  0  0  0  0  0  0  0  0
   -2.8587    2.0044   -0.9626 H   0  0  0  0  0  0  0  0  0  0  0  0
   -2.3087   -1.3245    0.6735 H   0  0  0  0  0  0  0  0  0  0  0  0
   -0.7339   -2.3163   -0.8007 H   0  0  0  0  0  0  0  0  0  0  0  0
    0.3959   -0.8892   -2.6880 H   0  0  0  0  0  0  0  0  0  0  0  0
    1.2530   -2.2586   -2.0012 H   0  0  0  0  0  0  0  0  0  0  0  0
    2.6924   -0.2429   -2.2109 H   0  0  0  0  0  0  0  0  0  0  0  0
    1.6491    0.6598   -1.1303 H   0  0  0  0  0  0  0  0  0  0  0  0
    4.1652    1.8298   -0.1413 H   0  0  0  0  0  0  0  0  0  0  0  0
    6.0429    3.3579   -1.2444 H   0  0  0  0  0  0  0  0  0  0  0  0
    7.8717    1.8794   -2.4364 H   0  0  0  0  0  0  0  0  0  0  0  0
    2.0333   -2.8401    0.2459 H   0  0  0  0  0  0  0  0  0  0  0  0
    2.3650   -1.8470    1.6793 H   0  0  0  0  0  0  0  0  0  0  0  0
   -0.0556   -2.1061    1.3982 H   0  0  0  0  0  0  0  0  0  0  0  0
    0.4265   -0.4260    1.2264 H   0  0  0  0  0  0  0  0  0  0  0  0
  1  2  1  0
  2  3  1  0
  3  4  2  0
  4  5  1  0
  5  6  2  0
  6  7  1  0
  7  8  2  0
  8  9  1  0
  9 10  1  0
 10 11  2  0
 10 12  1  0
 12 13  1  0
 13 14  1  0
 14 15  1  0
 15 16  1  0
 16 17  2  0
 16 18  2  0
 16 19  1  0
 19 20  2  0
 20 21  1  0
 21 22  2  0
 22 23  1  0
 15 24  1  0
 24 25  1  0
  8  3  1  0
 25 12  1  0
 23 19  1  0
  1 26  1  0
  1 27  1  0
  1 28  1  0
  4 29  1  0
  5 30  1  0
  6 31  1  0
  7 32  1  0
  9 33  1  0
 12 34  1  0
 13 35  1  0
 13 36  1  0
 14 37  1  0
 14 38  1  0
 20 39  1  0
 21 40  1  0
 22 41  1  0
 24 42  1  0
 24 43  1  0
 25 44  1  0
 25 45  1  0
M  END
$$$$
