
     RDKit          3D

 45 46  0  0  0  0  0  0  0  0999 V2000
    5.1235   -3.6617   -0.6944 C   0  0  0  0  0  0  0  0  0  0  0  0
    4.1403   -2.9930    0.2199 C   0  0  0  0  0  0  0  0  0  0  0  0
    4.1495   -3.2691    1.5904 C   0  0  0  0  0  0  0  0  0  0  0  0
    3.2066   -2.6797    2.4309 C   0  0  0  0  0  0  0  0  0  0  0  0
    2.2473   -1.8078    1.9106 C   0  0  0  0  0  0  0  0  0  0  0  0
    2.2312   -1.5076    0.5481 C   0  0  0  0  0  0  0  0  0  0  0  0
    1.2604   -0.6738   -0.0519 N   0  0  0  0  0  0  0  0  0  0  0  0
    0.5024    0.3498    0.4991 C   0  0  0  0  0  0  0  0  0  0  0  0
    1.0574    1.3328    1.7530 S   0  0  0  0  0  0  0  0  0  0  0  0
   -0.7335    0.5406   -0.1615 N   0  0  0  0  0  0  0  0  0  0  0  0
   -1.5868    1.7229    0.1010 C   0  0  0  0  0  0  0  0  0  0  0  0
   -1.1605    2.9365   -0.7530 C   0  0  0  0  0  0  0  0  0  0  0  0
   -2.1007    4.0738   -0.6856 N   0  0  0  0  0  0  0  0  0  0  0  0
   -2.1124    4.6823    0.6484 C   0  0  0  0  0  0  0  0  0  0  0  0
   -1.7286    5.0846   -1.6803 C   0  0  0  0  0  0  0  0  0  0  0  0
   -1.3448   -0.4816   -1.0298 C   0  0  0  0  0  0  0  0  0  0  0  0
   -2.2342   -1.3873   -0.2250 C   0  0  0  0  0  0  0  0  0  0  0  0
   -3.5911   -1.2691    0.0143 C   0  0  0  0  0  0  0  0  0  0  0  0
   -4.0990   -2.3295    0.8190 C   0  0  0  0  0  0  0  0  0  0  0  0
   -3.1174   -3.2314    1.1598 C   0  0  0  0  0  0  0  0  0  0  0  0
   -1.5975   -2.8021    0.5088 S   0  0  0  0  0  0  0  0  0  0  0  0
    3.1632   -2.1279   -0.2949 C   0  0  0  0  0  0  0  0  0  0  0  0
    4.7278   -4.6257   -1.0285 H   0  0  0  0  0  0  0  0  0  0  0  0
    6.0790   -3.8271   -0.1854 H   0  0  0  0  0  0  0  0  0  0  0  0
    5.3274   -3.0400   -1.5725 H   0  0  0  0  0  0  0  0  0  0  0  0
    4.8850   -3.9509    2.0109 H   0  0  0  0  0  0  0  0  0  0  0  0
    3.2079   -2.9066    3.4939 H   0  0  0  0  0  0  0  0  0  0  0  0
    1.4998   -1.4046    2.5867 H   0  0  0  0  0  0  0  0  0  0  0  0
    1.2824   -0.6636   -1.0615 H   0  0  0  0  0  0  0  0  0  0  0  0
   -1.5648    1.9610    1.1677 H   0  0  0  0  0  0  0  0  0  0  0  0
   -2.6277    1.4700   -0.1298 H   0  0  0  0  0  0  0  0  0  0  0  0
   -1.1063    2.5924   -1.7948 H   0  0  0  0  0  0  0  0  0  0  0  0
   -0.1457    3.2556   -0.4848 H   0  0  0  0  0  0  0  0  0  0  0  0
   -2.5024    3.9856    1.3967 H   0  0  0  0  0  0  0  0  0  0  0  0
   -2.7818    5.5502    0.6682 H   0  0  0  0  0  0  0  0  0  0  0  0
   -1.1154    5.0120    0.9620 H   0  0  0  0  0  0  0  0  0  0  0  0
   -1.7609    4.6615   -2.6905 H   0  0  0  0  0  0  0  0  0  0  0  0
   -2.4417    5.9166   -1.6691 H   0  0  0  0  0  0  0  0  0  0  0  0
   -0.7243    5.4875   -1.5059 H   0  0  0  0  0  0  0  0  0  0  0  0
   -0.5909   -1.0700   -1.5591 H   0  0  0  0  0  0  0  0  0  0  0  0
   -1.9241    0.0299   -1.8085 H   0  0  0  0  0  0  0  0  0  0  0  0
   -4.1954   -0.4537   -0.3651 H   0  0  0  0  0  0  0  0  0  0  0  0
   -5.1315   -2.4255    1.1315 H   0  0  0  0  0  0  0  0  0  0  0  0
   -3.2177   -4.1255    1.7595 H   0  0  0  0  0  0  0  0  0  0  0  0
    3.1461   -1.9309   -1.3639 H   0  0  0  0  0  0  0  0  0  0  0  0
  1  2  1  0
  2  3  2  0
  3  4  1  0
  4  5  2  0
  5  6  1  0
  6  7  1  0
  7  8  1  0
  8  9  2  0
  8 10  1  0
 10 11  1  0
 11 12  1  0
 12 13  1  0
 13 14  1  0
 13 15  1  0
 10 16  1  0
 16 17  1  0
 17 18  2  0
 18 19  1  0
 19 20  2  0
 20 21  1  0
  6 22  2  0
 22  2  1  0
 21 17  1  0
  1 23  1  0
  1 24  1  0
  1 25  1  0
  3 26  1  0
  4 27  1  0
  5 28  1  0
  7 29  1  0
 11 30  1  0
 11 31  1  0
 12 32  1  0
 12 33  1  0
 14 34  1  0
 14 35  1  0
 14 36  1  0
 15 37  1  0
 15 38  1  0
 15 39  1  0
 16 40  1  0
 16 41  1  0
 18 42  1  0
 19 43  1  0
 20 44  1  0
 22 45  1  0
M  END
$$$$
