
     RDKit          3D

 62 63  0  0  0  0  0  0  0  0999 V2000
   -7.5218   -0.1916   -1.2405 C   0  0  0  0  0  0  0  0  0  0  0  0
   -6.4399   -0.9294   -0.4194 C   0  0  0  0  0  0  0  0  0  0  0  0
   -7.0730   -1.2936    0.9421 C   0  0  0  0  0  0  0  0  0  0  0  0
   -6.0916   -2.2266   -1.1810 C   0  0  0  0  0  0  0  0  0  0  0  0
   -5.1591   -0.1067   -0.1911 C   0  0  0  0  0  0  0  0  0  0  0  0
   -4.0998   -0.6464    0.5605 C   0  0  0  0  0  0  0  0  0  0  0  0
   -2.9225    0.0728    0.7961 C   0  0  0  0  0  0  0  0  0  0  0  0
   -2.7735    1.3598    0.2826 C   0  0  0  0  0  0  0  0  0  0  0  0
   -1.6665    2.1588    0.4427 O   0  0  0  0  0  0  0  0  0  0  0  0
   -0.6120    1.7128    1.2920 C   0  0  0  0  0  0  0  0  0  0  0  0
    0.4146    0.8861    0.5200 C   0  0  0  0  0  0  0  0  0  0  0  0
    1.4745    0.5390    1.4165 O   0  0  0  0  0  0  0  0  0  0  0  0
    2.6277    0.0753    0.8279 C   0  0  0  0  0  0  0  0  0  0  0  0
    2.6739   -0.5612   -0.4117 C   0  0  0  0  0  0  0  0  0  0  0  0
    3.8952   -1.0033   -0.9347 C   0  0  0  0  0  0  0  0  0  0  0  0
    5.0976   -0.8259   -0.2343 C   0  0  0  0  0  0  0  0  0  0  0  0
    6.4591   -1.2922   -0.7850 C   0  0  0  0  0  0  0  0  0  0  0  0
    6.3615   -2.0609   -2.1233 C   0  0  0  0  0  0  0  0  0  0  0  0
    7.3626   -0.0635   -1.0253 C   0  0  0  0  0  0  0  0  0  0  0  0
    7.1449   -2.2365    0.2278 C   0  0  0  0  0  0  0  0  0  0  0  0
    5.0272   -0.1894    1.0248 C   0  0  0  0  0  0  0  0  0  0  0  0
    3.8120    0.2451    1.5658 C   0  0  0  0  0  0  0  0  0  0  0  0
    3.6995    0.8590    2.8322 N   0  0  0  0  0  0  0  0  0  0  0  0
    4.6961    1.1455    3.7279 C   0  0  0  0  0  0  0  0  0  0  0  0
    5.9006    0.9650    3.6283 O   0  0  0  0  0  0  0  0  0  0  0  0
   -3.8148    1.9222   -0.4825 C   0  0  0  0  0  0  0  0  0  0  0  0
   -3.6063    3.2282   -0.9836 N   0  0  0  0  0  0  0  0  0  0  0  0
   -4.4410    3.9871   -1.7649 C   0  0  0  0  0  0  0  0  0  0  0  0
   -5.5437    3.7126   -2.2148 O   0  0  0  0  0  0  0  0  0  0  0  0
   -4.9886    1.1906   -0.7080 C   0  0  0  0  0  0  0  0  0  0  0  0
   -7.8438    0.7331   -0.7447 H   0  0  0  0  0  0  0  0  0  0  0  0
   -8.4153   -0.8157   -1.3686 H   0  0  0  0  0  0  0  0  0  0  0  0
   -7.1629    0.0661   -2.2445 H   0  0  0  0  0  0  0  0  0  0  0  0
   -8.0081   -1.8474    0.8063 H   0  0  0  0  0  0  0  0  0  0  0  0
   -6.4142   -1.9234    1.5503 H   0  0  0  0  0  0  0  0  0  0  0  0
   -7.2971   -0.3929    1.5258 H   0  0  0  0  0  0  0  0  0  0  0  0
   -5.6103   -2.0036   -2.1410 H   0  0  0  0  0  0  0  0  0  0  0  0
   -6.9913   -2.8179   -1.3886 H   0  0  0  0  0  0  0  0  0  0  0  0
   -5.4106   -2.8701   -0.6133 H   0  0  0  0  0  0  0  0  0  0  0  0
   -4.1785   -1.6492    0.9803 H   0  0  0  0  0  0  0  0  0  0  0  0
   -2.1511   -0.4154    1.3829 H   0  0  0  0  0  0  0  0  0  0  0  0
   -0.9732    1.2034    2.1938 H   0  0  0  0  0  0  0  0  0  0  0  0
   -0.1124    2.6146    1.6694 H   0  0  0  0  0  0  0  0  0  0  0  0
    0.7886    1.4835   -0.3240 H   0  0  0  0  0  0  0  0  0  0  0  0
   -0.0559   -0.0218    0.1240 H   0  0  0  0  0  0  0  0  0  0  0  0
    1.7765   -0.7441   -0.9947 H   0  0  0  0  0  0  0  0  0  0  0  0
    3.8737   -1.4935   -1.9053 H   0  0  0  0  0  0  0  0  0  0  0  0
    7.3509   -2.3888   -2.4640 H   0  0  0  0  0  0  0  0  0  0  0  0
    5.9406   -1.4361   -2.9199 H   0  0  0  0  0  0  0  0  0  0  0  0
    5.7392   -2.9584   -2.0261 H   0  0  0  0  0  0  0  0  0  0  0  0
    6.9036    0.6295   -1.7409 H   0  0  0  0  0  0  0  0  0  0  0  0
    8.3363   -0.3640   -1.4298 H   0  0  0  0  0  0  0  0  0  0  0  0
    7.5551    0.4987   -0.1036 H   0  0  0  0  0  0  0  0  0  0  0  0
    8.0894   -2.6269   -0.1710 H   0  0  0  0  0  0  0  0  0  0  0  0
    6.5031   -3.0944    0.4643 H   0  0  0  0  0  0  0  0  0  0  0  0
    7.3832   -1.7333    1.1713 H   0  0  0  0  0  0  0  0  0  0  0  0
    5.9462   -0.0384    1.5832 H   0  0  0  0  0  0  0  0  0  0  0  0
    2.7491    1.0938    3.0972 H   0  0  0  0  0  0  0  0  0  0  0  0
    4.2720    1.6039    4.6358 H   0  0  0  0  0  0  0  0  0  0  0  0
   -2.7146    3.6352   -0.7233 H   0  0  0  0  0  0  0  0  0  0  0  0
   -3.9788    4.9668   -1.9759 H   0  0  0  0  0  0  0  0  0  0  0  0
   -5.7824    1.6418   -1.2928 H   0  0  0  0  0  0  0  0  0  0  0  0
  1  2  1  0
  2  3  1  0
  2  4  1  0
  2  5  1  0
  5  6  2  0
  6  7  1  0
  7  8  2  0
  8  9  1  0
  9 10  1  0
 10 11  1  0
 11 12  1  0
 12 13  1  0
 13 14  2  0
 14 15  1  0
 15 16  2  0
 16 17  1  0
 17 18  1  0
 17 19  1  0
 17 20  1  0
 16 21  1  0
 21 22  2  0
 22 23  1  0
 23 24  1  0
 24 25  2  0
  8 26  1  0
 26 27  1  0
 27 28  1  0
 28 29  2  0
 26 30  2  0
 30  5  1  0
 22 13  1  0
  1 31  1  0
  1 32  1  0
  1 33  1  0
  3 34  1  0
  3 35  1  0
  3 36  1  0
  4 37  1  0
  4 38  1  0
  4 39  1  0
  6 40  1  0
  7 41  1  0
 10 42  1  0
 10 43  1  0
 11 44  1  0
 11 45  1  0
 14 46  1  0
 15 47  1  0
 18 48  1  0
 18 49  1  0
 18 50  1  0
 19 51  1  0
 19 52  1  0
 19 53  1  0
 20 54  1  0
 20 55  1  0
 20 56  1  0
 21 57  1  0
 23 58  1  0
 24 59  1  0
 27 60  1  0
 28 61  1  0
 30 62  1  0
M  END
$$$$
