
     RDKit          3D

 61 65  0  0  0  0  0  0  0  0999 V2000
   -0.0418   -2.4635   -0.4812 C   0  0  0  0  0  0  0  0  0  0  0  0
   -1.4452   -2.1865   -0.7928 N   0  0  0  0  0  0  0  0  0  0  0  0
   -2.2487   -3.3912   -0.5573 C   0  0  0  0  0  0  0  0  0  0  0  0
   -1.9759   -1.0666    0.0120 C   0  0  0  0  0  0  0  0  0  0  0  0
   -1.4655    0.3151   -0.4481 C   0  0  0  0  0  0  0  0  0  0  0  0
   -1.8914    1.3933    0.4713 N   0  0  0  0  0  0  0  0  0  0  0  0
   -1.2349    1.5915    1.6945 C   0  0  0  0  0  0  0  0  0  0  0  0
   -1.7271    2.0146    2.7356 O   0  0  0  0  0  0  0  0  0  0  0  0
    0.1975    1.2209    1.7726 C   0  0  0  0  0  0  0  0  0  0  0  0
    0.6112    0.2792    2.7223 C   0  0  0  0  0  0  0  0  0  0  0  0
    1.9594   -0.0741    2.8051 C   0  0  0  0  0  0  0  0  0  0  0  0
    2.8840    0.5161    1.9339 C   0  0  0  0  0  0  0  0  0  0  0  0
    4.6164    0.0826    2.0481 S   0  0  0  0  0  6  0  0  0  0  0  0
    5.3727    1.2495    1.6424 O   0  0  0  0  0  0  0  0  0  0  0  0
    4.8194   -0.5055    3.3579 O   0  0  0  0  0  0  0  0  0  0  0  0
    4.7968   -1.1507    0.8999 N   0  0  0  0  0  0  0  0  0  0  0  0
    4.2193   -2.4877    1.2330 C   0  0  0  0  0  0  0  0  0  0  0  0
    3.8854   -3.1630   -0.1084 C   0  0  0  0  0  0  0  0  0  0  0  0
    4.0049   -2.0373   -1.0840 C   0  0  0  0  0  0  0  0  0  0  0  0
    3.7033   -2.0605   -2.4383 C   0  0  0  0  0  0  0  0  0  0  0  0
    3.9828   -0.9233   -3.1982 C   0  0  0  0  0  0  0  0  0  0  0  0
    4.5818    0.1985   -2.6059 C   0  0  0  0  0  0  0  0  0  0  0  0
    4.8866    0.2051   -1.2408 C   0  0  0  0  0  0  0  0  0  0  0  0
    4.5498   -0.9032   -0.4842 C   0  0  0  0  0  0  0  0  0  0  0  0
    2.4789    1.5044    1.0275 C   0  0  0  0  0  0  0  0  0  0  0  0
    1.1312    1.8566    0.9448 C   0  0  0  0  0  0  0  0  0  0  0  0
   -3.1406    1.9841    0.2428 C   0  0  0  0  0  0  0  0  0  0  0  0
   -3.9760    1.5583   -0.6794 N   0  0  0  0  0  0  0  0  0  0  0  0
   -5.0938    2.3703   -0.7301 C   0  0  0  0  0  0  0  0  0  0  0  0
   -6.2056    2.1957   -1.5815 C   0  0  0  0  0  0  0  0  0  0  0  0
   -7.2650    3.1068   -1.5309 C   0  0  0  0  0  0  0  0  0  0  0  0
   -7.2188    4.1745   -0.6459 C   0  0  0  0  0  0  0  0  0  0  0  0
   -8.2417    5.0393   -0.6144 F   0  0  0  0  0  0  0  0  0  0  0  0
   -6.1359    4.3785    0.2066 C   0  0  0  0  0  0  0  0  0  0  0  0
   -5.0788    3.4574    0.1451 C   0  0  0  0  0  0  0  0  0  0  0  0
   -3.6117    3.4258    1.0381 S   0  0  0  0  0  0  0  0  0  0  0  0
    0.3231   -3.3067   -1.0794 H   0  0  0  0  0  0  0  0  0  0  0  0
    0.5996   -1.6141   -0.7342 H   0  0  0  0  0  0  0  0  0  0  0  0
    0.1081   -2.7067    0.5775 H   0  0  0  0  0  0  0  0  0  0  0  0
   -3.2889   -3.2262   -0.8582 H   0  0  0  0  0  0  0  0  0  0  0  0
   -1.8800   -4.2260   -1.1629 H   0  0  0  0  0  0  0  0  0  0  0  0
   -2.2364   -3.6960    0.4947 H   0  0  0  0  0  0  0  0  0  0  0  0
   -1.7549   -1.2248    1.0757 H   0  0  0  0  0  0  0  0  0  0  0  0
   -3.0711   -1.0479   -0.0688 H   0  0  0  0  0  0  0  0  0  0  0  0
   -0.3777    0.3146   -0.5216 H   0  0  0  0  0  0  0  0  0  0  0  0
   -1.8257    0.5380   -1.4603 H   0  0  0  0  0  0  0  0  0  0  0  0
   -0.1129   -0.1671    3.4014 H   0  0  0  0  0  0  0  0  0  0  0  0
    2.2807   -0.7948    3.5548 H   0  0  0  0  0  0  0  0  0  0  0  0
    4.9412   -3.0813    1.8028 H   0  0  0  0  0  0  0  0  0  0  0  0
    3.3052   -2.3950    1.8271 H   0  0  0  0  0  0  0  0  0  0  0  0
    4.6166   -3.9443   -0.3418 H   0  0  0  0  0  0  0  0  0  0  0  0
    2.8804   -3.5953   -0.0979 H   0  0  0  0  0  0  0  0  0  0  0  0
    3.2811   -2.9446   -2.9063 H   0  0  0  0  0  0  0  0  0  0  0  0
    3.7623   -0.9153   -4.2639 H   0  0  0  0  0  0  0  0  0  0  0  0
    4.8290    1.0634   -3.2173 H   0  0  0  0  0  0  0  0  0  0  0  0
    5.3903    1.0635   -0.8084 H   0  0  0  0  0  0  0  0  0  0  0  0
    3.2039    2.0100    0.3927 H   0  0  0  0  0  0  0  0  0  0  0  0
    0.8151    2.6284    0.2458 H   0  0  0  0  0  0  0  0  0  0  0  0
   -6.2284    1.3559   -2.2702 H   0  0  0  0  0  0  0  0  0  0  0  0
   -8.1260    2.9851   -2.1816 H   0  0  0  0  0  0  0  0  0  0  0  0
   -6.1176    5.2219    0.8881 H   0  0  0  0  0  0  0  0  0  0  0  0
  1  2  1  0
  2  3  1  0
  2  4  1  0
  4  5  1  0
  5  6  1  0
  6  7  1  0
  7  8  2  0
  7  9  1  0
  9 10  2  0
 10 11  1  0
 11 12  2  0
 12 13  1  0
 13 14  2  0
 13 15  2  0
 13 16  1  0
 16 17  1  0
 17 18  1  0
 18 19  1  0
 19 20  2  0
 20 21  1  0
 21 22  2  0
 22 23  1  0
 23 24  2  0
 12 25  1  0
 25 26  2  0
  6 27  1  0
 27 28  2  0
 28 29  1  0
 29 30  2  0
 30 31  1  0
 31 32  2  0
 32 33  1  0
 32 34  1  0
 34 35  2  0
 35 36  1  0
 26  9  1  0
 36 27  1  0
 24 16  1  0
 35 29  1  0
 24 19  1  0
  1 37  1  0
  1 38  1  0
  1 39  1  0
  3 40  1  0
  3 41  1  0
  3 42  1  0
  4 43  1  0
  4 44  1  0
  5 45  1  0
  5 46  1  0
 10 47  1  0
 11 48  1  0
 17 49  1  0
 17 50  1  0
 18 51  1  0
 18 52  1  0
 20 53  1  0
 21 54  1  0
 22 55  1  0
 23 56  1  0
 25 57  1  0
 26 58  1  0
 30 59  1  0
 31 60  1  0
 34 61  1  0
M  END
$$$$
