
     RDKit          3D

 51 56  0  0  0  0  0  0  0  0999 V2000
   -1.1858   -3.0094   -0.2806 O   0  0  0  0  0  0  0  0  0  0  0  0
   -1.7999   -2.0544    0.2147 C   0  0  0  0  0  0  0  0  0  0  0  0
   -3.2889   -2.1365    0.2087 C   0  0  0  0  0  0  0  0  0  0  0  0
   -3.9117   -2.8219   -0.8453 C   0  0  0  0  0  0  0  0  0  0  0  0
   -5.3024   -2.9542   -0.8778 C   0  0  0  0  0  0  0  0  0  0  0  0
   -6.0721   -2.4099    0.1481 C   0  0  0  0  0  0  0  0  0  0  0  0
   -7.7844   -2.5693    0.1091 Cl  0  0  0  0  0  0  0  0  0  0  0  0
   -5.4631   -1.7400    1.2081 C   0  0  0  0  0  0  0  0  0  0  0  0
   -4.0710   -1.6082    1.2435 C   0  0  0  0  0  0  0  0  0  0  0  0
   -1.0850   -0.9335    0.9865 C   0  0  0  0  0  0  0  0  0  0  0  0
    0.3414   -0.7301    0.5940 C   0  0  0  0  0  0  0  0  0  0  0  0
    0.7322    0.6132    0.7389 C   0  0  0  0  0  0  0  0  0  0  0  0
    2.0599    0.7064    0.4040 C   0  0  0  0  0  0  0  0  0  0  0  0
    2.8200    1.7983    0.3253 O   0  0  0  0  0  0  0  0  0  0  0  0
    2.5116   -0.5937    0.0856 N   0  0  0  0  0  0  0  0  0  0  0  0
    3.8663   -0.9674   -0.1975 C   0  0  0  0  0  0  0  0  0  0  0  0
    4.1495   -2.0219   -1.0762 C   0  0  0  0  0  0  0  0  0  0  0  0
    5.4743   -2.3796   -1.3481 C   0  0  0  0  0  0  0  0  0  0  0  0
    6.5195   -1.6935   -0.7360 C   0  0  0  0  0  0  0  0  0  0  0  0
    8.1477   -2.1356   -1.0707 Cl  0  0  0  0  0  0  0  0  0  0  0  0
    6.2528   -0.6538    0.1512 C   0  0  0  0  0  0  0  0  0  0  0  0
    4.9296   -0.2918    0.4235 C   0  0  0  0  0  0  0  0  0  0  0  0
    1.4040   -1.4557    0.1230 C   0  0  0  0  0  0  0  0  0  0  0  0
    1.4729   -2.7475   -0.1914 O   0  0  0  0  0  0  0  0  0  0  0  0
   -0.4111    1.4502    1.1963 C   0  0  0  0  0  0  0  0  0  0  0  0
   -0.4878    2.7347    0.4373 C   0  0  0  0  0  0  0  0  0  0  0  0
    0.4394    3.7729    0.6162 C   0  0  0  0  0  0  0  0  0  0  0  0
    0.3083    4.9780   -0.0794 C   0  0  0  0  0  0  0  0  0  0  0  0
   -0.7636    5.1718   -0.9486 C   0  0  0  0  0  0  0  0  0  0  0  0
   -1.7110    4.1639   -1.1147 C   0  0  0  0  0  0  0  0  0  0  0  0
   -1.5665    2.9633   -0.4128 C   0  0  0  0  0  0  0  0  0  0  0  0
   -2.5777    1.9177   -0.5511 C   0  0  0  0  0  0  0  0  0  0  0  0
   -2.5620    0.7701    0.0524 N   0  0  0  0  0  0  0  0  0  0  0  0
   -1.5481    0.4921    0.9499 N   0  0  0  0  0  0  0  0  0  0  0  0
   -3.3147   -3.2534   -1.6466 H   0  0  0  0  0  0  0  0  0  0  0  0
   -5.7744   -3.4821   -1.7022 H   0  0  0  0  0  0  0  0  0  0  0  0
   -6.0638   -1.3149    2.0081 H   0  0  0  0  0  0  0  0  0  0  0  0
   -3.6201   -1.0776    2.0776 H   0  0  0  0  0  0  0  0  0  0  0  0
   -1.1015   -1.2247    2.0459 H   0  0  0  0  0  0  0  0  0  0  0  0
    3.5111    1.6406   -0.3440 H   0  0  0  0  0  0  0  0  0  0  0  0
    3.3582   -2.5646   -1.5875 H   0  0  0  0  0  0  0  0  0  0  0  0
    5.6782   -3.1942   -2.0382 H   0  0  0  0  0  0  0  0  0  0  0  0
    7.0674   -0.1321    0.6468 H   0  0  0  0  0  0  0  0  0  0  0  0
    4.7545    0.4836    1.1667 H   0  0  0  0  0  0  0  0  0  0  0  0
    0.5489   -3.0880   -0.2386 H   0  0  0  0  0  0  0  0  0  0  0  0
   -0.3721    1.6235    2.2776 H   0  0  0  0  0  0  0  0  0  0  0  0
    1.2778    3.6453    1.2990 H   0  0  0  0  0  0  0  0  0  0  0  0
    1.0449    5.7657    0.0611 H   0  0  0  0  0  0  0  0  0  0  0  0
   -0.8635    6.1103   -1.4880 H   0  0  0  0  0  0  0  0  0  0  0  0
   -2.5539    4.3239   -1.7812 H   0  0  0  0  0  0  0  0  0  0  0  0
   -3.4143    2.1136   -1.2427 H   0  0  0  0  0  0  0  0  0  0  0  0
  1  2  2  0
  2  3  1  0
  3  4  2  0
  4  5  1  0
  5  6  2  0
  6  7  1  0
  6  8  1  0
  8  9  2  0
  2 10  1  0
 10 11  1  0
 11 12  1  0
 12 13  2  0
 13 14  1  0
 13 15  1  0
 15 16  1  0
 16 17  2  0
 17 18  1  0
 18 19  2  0
 19 20  1  0
 19 21  1  0
 21 22  2  0
 15 23  1  0
 23 24  1  0
 12 25  1  0
 25 26  1  0
 26 27  2  0
 27 28  1  0
 28 29  2  0
 29 30  1  0
 30 31  2  0
 31 32  1  0
 32 33  2  0
 33 34  1  0
  9  3  1  0
 34 10  1  0
 23 11  2  0
 34 25  1  0
 22 16  1  0
 31 26  1  0
  4 35  1  0
  5 36  1  0
  8 37  1  0
  9 38  1  0
 10 39  1  0
 14 40  1  0
 17 41  1  0
 18 42  1  0
 21 43  1  0
 22 44  1  0
 24 45  1  0
 25 46  1  0
 27 47  1  0
 28 48  1  0
 29 49  1  0
 30 50  1  0
 32 51  1  0
M  END
$$$$
