
     RDKit          3D

 42 44  0  0  0  0  0  0  0  0999 V2000
    3.3376   -2.0056    4.6175 N   0  0  0  0  0  0  0  0  0  0  0  0
    3.5720   -2.3066    3.5213 C   0  0  0  0  0  0  0  0  0  0  0  0
    3.8461   -2.6723    2.1700 C   0  0  0  0  0  0  0  0  0  0  0  0
    4.9812   -3.5106    1.9621 C   0  0  0  0  0  0  0  0  0  0  0  0
    5.9015   -4.1936    1.7785 N   0  0  0  0  0  0  0  0  0  0  0  0
    3.0710   -2.2594    1.1344 C   0  0  0  0  0  0  0  0  0  0  0  0
    1.8794   -1.4210    1.3122 C   0  0  0  0  0  0  0  0  0  0  0  0
    1.1794   -0.8873    0.2929 C   0  0  0  0  0  0  0  0  0  0  0  0
   -0.0088   -0.0845    0.5405 C   0  0  0  0  0  0  0  0  0  0  0  0
   -0.6845    0.6075   -0.4026 C   0  0  0  0  0  0  0  0  0  0  0  0
   -1.8786    1.3090   -0.1344 N   0  0  0  0  0  0  0  0  0  0  0  0
   -2.7625    0.9439    0.9934 C   0  0  0  0  0  0  0  0  0  0  0  0
   -4.2314    1.0950    0.6094 C   0  0  0  0  0  0  0  0  0  0  0  0
   -4.5773    2.5300    0.2273 C   0  0  0  0  0  0  0  0  0  0  0  0
   -3.3666    3.2939   -0.2961 C   0  0  0  0  0  0  0  0  0  0  0  0
   -2.3830    2.3785   -1.0189 C   0  0  0  0  0  0  0  0  0  0  0  0
   -0.1495    0.6295   -1.8312 C   0  0  0  0  0  0  0  0  0  0  0  0
    1.3106    0.1887   -1.9583 C   0  0  0  0  0  0  0  0  0  0  0  0
    1.5728   -1.0842   -1.1539 C   0  0  0  0  0  0  0  0  0  0  0  0
    3.0409   -1.5069   -1.2823 C   0  0  0  0  0  0  0  0  0  0  0  0
    3.3595   -2.6432   -0.3122 C   0  0  0  0  0  0  0  0  0  0  0  0
    1.5441   -1.2173    2.3287 H   0  0  0  0  0  0  0  0  0  0  0  0
   -0.3573   -0.0548    1.5694 H   0  0  0  0  0  0  0  0  0  0  0  0
   -2.6090   -0.1016    1.2855 H   0  0  0  0  0  0  0  0  0  0  0  0
   -2.5216    1.5689    1.8615 H   0  0  0  0  0  0  0  0  0  0  0  0
   -4.8762    0.7657    1.4320 H   0  0  0  0  0  0  0  0  0  0  0  0
   -4.4486    0.4362   -0.2416 H   0  0  0  0  0  0  0  0  0  0  0  0
   -5.3707    2.5161   -0.5295 H   0  0  0  0  0  0  0  0  0  0  0  0
   -4.9873    3.0627    1.0936 H   0  0  0  0  0  0  0  0  0  0  0  0
   -2.8551    3.7765    0.5470 H   0  0  0  0  0  0  0  0  0  0  0  0
   -3.6969    4.0988   -0.9623 H   0  0  0  0  0  0  0  0  0  0  0  0
   -2.8566    1.9310   -1.9007 H   0  0  0  0  0  0  0  0  0  0  0  0
   -1.5525    3.0062   -1.3603 H   0  0  0  0  0  0  0  0  0  0  0  0
   -0.7833   -0.0256   -2.4426 H   0  0  0  0  0  0  0  0  0  0  0  0
   -0.2126    1.6313   -2.2664 H   0  0  0  0  0  0  0  0  0  0  0  0
    1.5505    0.0281   -3.0164 H   0  0  0  0  0  0  0  0  0  0  0  0
    1.9632    0.9998   -1.6066 H   0  0  0  0  0  0  0  0  0  0  0  0
    0.9451   -1.8892   -1.5631 H   0  0  0  0  0  0  0  0  0  0  0  0
    3.2449   -1.8319   -2.3097 H   0  0  0  0  0  0  0  0  0  0  0  0
    3.7066   -0.6567   -1.0804 H   0  0  0  0  0  0  0  0  0  0  0  0
    2.7555   -3.5233   -0.5691 H   0  0  0  0  0  0  0  0  0  0  0  0
    4.4081   -2.9218   -0.4615 H   0  0  0  0  0  0  0  0  0  0  0  0
  1  2  3  0
  2  3  1  0
  3  4  1  0
  4  5  3  0
  3  6  2  3
  6  7  1  0
  7  8  2  0
  8  9  1  0
  9 10  2  0
 10 11  1  0
 11 12  1  0
 12 13  1  0
 13 14  1  0
 14 15  1  0
 15 16  1  0
 10 17  1  0
 17 18  1  0
 18 19  1  0
 19 20  1  0
 20 21  1  0
 21  6  1  0
 19  8  1  0
 16 11  1  0
  7 22  1  0
  9 23  1  0
 12 24  1  0
 12 25  1  0
 13 26  1  0
 13 27  1  0
 14 28  1  0
 14 29  1  0
 15 30  1  0
 15 31  1  0
 16 32  1  0
 16 33  1  0
 17 34  1  0
 17 35  1  0
 18 36  1  0
 18 37  1  0
 19 38  1  0
 20 39  1  0
 20 40  1  0
 21 41  1  0
 21 42  1  0
M  END
$$$$
