
     RDKit          3D

 63 67  0  0  0  0  0  0  0  0999 V2000
   -2.0054   -1.4356   -1.1692 O   0  0  0  0  0  0  0  0  0  0  0  0
   -2.4755   -0.6295   -0.3767 C   0  0  0  0  0  0  0  0  0  0  0  0
   -3.8024   -0.5851   -0.0179 N   0  0  0  0  0  0  0  0  0  0  0  0
   -4.7851   -1.4899   -0.6003 C   0  0  0  0  0  0  0  0  0  0  0  0
   -4.7219   -2.8742    0.0672 C   0  0  0  0  0  0  0  0  0  0  0  0
   -5.3689   -2.8446    1.4487 C   0  0  0  0  0  0  0  0  0  0  0  0
   -6.8506   -2.4994    1.3295 C   0  0  0  0  0  0  0  0  0  0  0  0
   -7.1115   -1.3033    0.4464 C   0  0  0  0  0  0  0  0  0  0  0  0
   -8.3568   -0.6607    0.5250 C   0  0  0  0  0  0  0  0  0  0  0  0
   -8.6515    0.4255   -0.2992 C   0  0  0  0  0  0  0  0  0  0  0  0
   -7.7108    0.8763   -1.2195 C   0  0  0  0  0  0  0  0  0  0  0  0
   -6.4742    0.2394   -1.3172 C   0  0  0  0  0  0  0  0  0  0  0  0
   -6.1615   -0.8566   -0.4921 C   0  0  0  0  0  0  0  0  0  0  0  0
   -1.5973    0.3945    0.2442 C   0  0  0  0  0  0  0  0  0  0  0  0
   -1.8028    0.8447    1.5572 C   0  0  0  0  0  0  0  0  0  0  0  0
   -0.9474    1.8005    2.1138 C   0  0  0  0  0  0  0  0  0  0  0  0
    0.1189    2.3039    1.3682 C   0  0  0  0  0  0  0  0  0  0  0  0
    0.3297    1.8363    0.0673 C   0  0  0  0  0  0  0  0  0  0  0  0
    1.6836    2.4554   -0.8983 S   0  0  0  0  0  6  0  0  0  0  0  0
    1.1605    2.7856   -2.2070 O   0  0  0  0  0  0  0  0  0  0  0  0
    2.3987    3.4396   -0.1122 O   0  0  0  0  0  0  0  0  0  0  0  0
    2.6897    1.0867   -1.0488 N   0  0  0  0  0  0  0  0  0  0  0  0
    3.1932    0.5219    0.2509 C   0  0  0  0  0  0  0  0  0  0  0  0
    4.5071   -0.2680    0.0986 C   0  0  0  0  0  0  0  0  0  0  0  0
    5.5657    0.5762   -0.4764 N   0  0  0  0  0  0  0  0  0  0  0  0
    6.9013    0.4064   -0.1513 C   0  0  0  0  0  0  0  0  0  0  0  0
    7.3860   -0.7864    0.4121 C   0  0  0  0  0  0  0  0  0  0  0  0
    8.7360   -0.9585    0.7465 C   0  0  0  0  0  0  0  0  0  0  0  0
    9.6459    0.0662    0.5224 C   0  0  0  0  0  0  0  0  0  0  0  0
    9.2027    1.2582   -0.0366 C   0  0  0  0  0  0  0  0  0  0  0  0
    7.8506    1.4205   -0.3657 C   0  0  0  0  0  0  0  0  0  0  0  0
    5.1339    1.6141   -1.4295 C   0  0  0  0  0  0  0  0  0  0  0  0
    3.7809    1.2539   -2.0669 C   0  0  0  0  0  0  0  0  0  0  0  0
   -0.5217    0.8849   -0.5018 C   0  0  0  0  0  0  0  0  0  0  0  0
   -4.1523    0.1768    0.5474 H   0  0  0  0  0  0  0  0  0  0  0  0
   -4.5375   -1.6197   -1.6623 H   0  0  0  0  0  0  0  0  0  0  0  0
   -5.2538   -3.6034   -0.5595 H   0  0  0  0  0  0  0  0  0  0  0  0
   -3.6859   -3.2227    0.1515 H   0  0  0  0  0  0  0  0  0  0  0  0
   -4.8685   -2.1029    2.0809 H   0  0  0  0  0  0  0  0  0  0  0  0
   -5.2557   -3.8164    1.9408 H   0  0  0  0  0  0  0  0  0  0  0  0
   -7.3913   -3.3562    0.9087 H   0  0  0  0  0  0  0  0  0  0  0  0
   -7.2501   -2.3164    2.3339 H   0  0  0  0  0  0  0  0  0  0  0  0
   -9.1083   -1.0052    1.2331 H   0  0  0  0  0  0  0  0  0  0  0  0
   -9.6172    0.9178   -0.2238 H   0  0  0  0  0  0  0  0  0  0  0  0
   -7.9404    1.7233   -1.8609 H   0  0  0  0  0  0  0  0  0  0  0  0
   -5.7447    0.6017   -2.0400 H   0  0  0  0  0  0  0  0  0  0  0  0
   -2.6076    0.4421    2.1667 H   0  0  0  0  0  0  0  0  0  0  0  0
   -1.1096    2.1471    3.1330 H   0  0  0  0  0  0  0  0  0  0  0  0
    0.7792    3.0513    1.8047 H   0  0  0  0  0  0  0  0  0  0  0  0
    3.3603    1.3288    0.9730 H   0  0  0  0  0  0  0  0  0  0  0  0
    2.4241   -0.1442    0.6562 H   0  0  0  0  0  0  0  0  0  0  0  0
    4.3508   -1.1412   -0.5456 H   0  0  0  0  0  0  0  0  0  0  0  0
    4.7828   -0.6271    1.0970 H   0  0  0  0  0  0  0  0  0  0  0  0
    6.7208   -1.6276    0.5832 H   0  0  0  0  0  0  0  0  0  0  0  0
    9.0711   -1.8980    1.1787 H   0  0  0  0  0  0  0  0  0  0  0  0
   10.6931   -0.0634    0.7806 H   0  0  0  0  0  0  0  0  0  0  0  0
    9.9029    2.0700   -0.2139 H   0  0  0  0  0  0  0  0  0  0  0  0
    7.5511    2.3808   -0.7781 H   0  0  0  0  0  0  0  0  0  0  0  0
    5.0602    2.5763   -0.9091 H   0  0  0  0  0  0  0  0  0  0  0  0
    5.8619    1.7172   -2.2432 H   0  0  0  0  0  0  0  0  0  0  0  0
    3.5132    2.0098   -2.8122 H   0  0  0  0  0  0  0  0  0  0  0  0
    3.8623    0.3062   -2.6140 H   0  0  0  0  0  0  0  0  0  0  0  0
   -0.3499    0.5308   -1.5184 H   0  0  0  0  0  0  0  0  0  0  0  0
  1  2  2  0
  2  3  1  0
  3  4  1  0
  4  5  1  0
  5  6  1  0
  6  7  1  0
  7  8  1  0
  8  9  2  0
  9 10  1  0
 10 11  2  0
 11 12  1  0
 12 13  2  0
  2 14  1  0
 14 15  2  0
 15 16  1  0
 16 17  2  0
 17 18  1  0
 18 19  1  0
 19 20  2  0
 19 21  2  0
 19 22  1  0
 22 23  1  0
 23 24  1  0
 24 25  1  0
 25 26  1  0
 26 27  2  0
 27 28  1  0
 28 29  2  0
 29 30  1  0
 30 31  2  0
 25 32  1  0
 32 33  1  0
 18 34  2  0
 13  4  1  0
 34 14  1  0
 13  8  1  0
 33 22  1  0
 31 26  1  0
  3 35  1  0
  4 36  1  0
  5 37  1  0
  5 38  1  0
  6 39  1  0
  6 40  1  0
  7 41  1  0
  7 42  1  0
  9 43  1  0
 10 44  1  0
 11 45  1  0
 12 46  1  0
 15 47  1  0
 16 48  1  0
 17 49  1  0
 23 50  1  0
 23 51  1  0
 24 52  1  0
 24 53  1  0
 27 54  1  0
 28 55  1  0
 29 56  1  0
 30 57  1  0
 31 58  1  0
 32 59  1  0
 32 60  1  0
 33 61  1  0
 33 62  1  0
 34 63  1  0
M  END
$$$$
