
     RDKit          3D

 36 38  0  0  0  0  0  0  0  0999 V2000
    6.3416    0.4202   -3.3079 Br  0  0  0  0  0  0  0  0  0  0  0  0
    5.0592    0.1499   -1.9464 C   0  0  0  0  0  0  0  0  0  0  0  0
    3.8338   -0.4326   -2.2551 C   0  0  0  0  0  0  0  0  0  0  0  0
    2.8878   -0.6296   -1.2445 C   0  0  0  0  0  0  0  0  0  0  0  0
    3.1557   -0.2520    0.0817 C   0  0  0  0  0  0  0  0  0  0  0  0
    2.1363   -0.4738    1.1061 C   0  0  0  0  0  0  0  0  0  0  0  0
    2.3655   -0.4579    2.4669 C   0  0  0  0  0  0  0  0  0  0  0  0
    0.9096   -0.7694    3.3142 S   0  0  0  0  0  0  0  0  0  0  0  0
    0.0626   -0.8944    1.8148 C   0  0  0  0  0  0  0  0  0  0  0  0
   -1.2584   -1.1878    1.8385 N   0  0  0  0  0  0  0  0  0  0  0  0
   -2.0860   -0.4100    1.1960 C   0  0  0  0  0  0  0  0  0  0  0  0
   -1.7300    0.8979    0.4923 C   0  0  0  0  0  0  0  0  0  0  0  0
   -1.8512    0.7396   -1.0162 C   0  0  0  0  0  0  0  0  0  0  0  0
   -3.2665    0.9880   -1.5419 C   0  0  0  0  0  0  0  0  0  0  0  0
   -4.4159    0.4982   -0.6567 C   0  0  0  0  0  0  0  0  0  0  0  0
   -4.1902   -0.8764   -0.0431 C   0  0  0  0  0  0  0  0  0  0  0  0
   -3.4058   -0.8154    1.1834 N   0  0  0  0  0  0  0  0  0  0  0  0
    0.8231   -0.7437    0.7502 N   0  0  0  0  0  0  0  0  0  0  0  0
    4.3954    0.3389    0.3700 C   0  0  0  0  0  0  0  0  0  0  0  0
    5.3445    0.5379   -0.6396 C   0  0  0  0  0  0  0  0  0  0  0  0
    3.6008   -0.7365   -3.2720 H   0  0  0  0  0  0  0  0  0  0  0  0
    1.9323   -1.0861   -1.4993 H   0  0  0  0  0  0  0  0  0  0  0  0
    3.2849   -0.2974    3.0089 H   0  0  0  0  0  0  0  0  0  0  0  0
   -0.7194    1.2241    0.7479 H   0  0  0  0  0  0  0  0  0  0  0  0
   -2.3927    1.6878    0.8649 H   0  0  0  0  0  0  0  0  0  0  0  0
   -1.1757    1.4474   -1.5119 H   0  0  0  0  0  0  0  0  0  0  0  0
   -1.5213   -0.2622   -1.3189 H   0  0  0  0  0  0  0  0  0  0  0  0
   -3.4026    2.0645   -1.7062 H   0  0  0  0  0  0  0  0  0  0  0  0
   -3.3496    0.5221   -2.5320 H   0  0  0  0  0  0  0  0  0  0  0  0
   -5.3192    0.4651   -1.2789 H   0  0  0  0  0  0  0  0  0  0  0  0
   -4.6179    1.2345    0.1312 H   0  0  0  0  0  0  0  0  0  0  0  0
   -3.7281   -1.5657   -0.7591 H   0  0  0  0  0  0  0  0  0  0  0  0
   -5.1664   -1.3001    0.2193 H   0  0  0  0  0  0  0  0  0  0  0  0
   -3.4780   -1.6901    1.7006 H   0  0  0  0  0  0  0  0  0  0  0  0
    4.6437    0.6662    1.3759 H   0  0  0  0  0  0  0  0  0  0  0  0
    6.2980    0.9987   -0.3948 H   0  0  0  0  0  0  0  0  0  0  0  0
  1  2  1  0
  2  3  2  0
  3  4  1  0
  4  5  2  0
  5  6  1  0
  6  7  2  0
  7  8  1  0
  8  9  1  0
  9 10  1  0
 10 11  2  3
 11 12  1  0
 12 13  1  0
 13 14  1  0
 14 15  1  0
 15 16  1  0
 16 17  1  0
  9 18  2  0
  5 19  1  0
 19 20  2  0
 20  2  1  0
 18  6  1  0
 17 11  1  0
  3 21  1  0
  4 22  1  0
  7 23  1  0
 12 24  1  0
 12 25  1  0
 13 26  1  0
 13 27  1  0
 14 28  1  0
 14 29  1  0
 15 30  1  0
 15 31  1  0
 16 32  1  0
 16 33  1  0
 17 34  1  0
 19 35  1  0
 20 36  1  0
M  END
$$$$
