
     RDKit          3D

 55 58  0  0  0  0  0  0  0  0999 V2000
    7.5785    1.4129   -0.3243 C   0  0  0  0  0  0  0  0  0  0  0  0
    6.2048    1.1964   -0.6227 O   0  0  0  0  0  0  0  0  0  0  0  0
    5.3643    0.9279    0.4251 C   0  0  0  0  0  0  0  0  0  0  0  0
    5.7560    0.8910    1.7682 C   0  0  0  0  0  0  0  0  0  0  0  0
    4.8228    0.6253    2.7740 C   0  0  0  0  0  0  0  0  0  0  0  0
    3.4897    0.3988    2.4493 C   0  0  0  0  0  0  0  0  0  0  0  0
    3.0886    0.4317    1.1160 C   0  0  0  0  0  0  0  0  0  0  0  0
    4.0192    0.6857    0.0911 C   0  0  0  0  0  0  0  0  0  0  0  0
    3.5295    0.7292   -1.3376 C   0  0  0  0  0  0  0  0  0  0  0  0
    2.8594    1.9956   -1.6131 N   0  0  0  0  0  0  0  0  0  0  0  0
    1.7069    2.0508   -2.8158 S   0  0  0  0  0  6  0  0  0  0  0  0
    1.4491    3.4467   -3.0890 O   0  0  0  0  0  0  0  0  0  0  0  0
    2.0992    1.1263   -3.8566 O   0  0  0  0  0  0  0  0  0  0  0  0
    0.2820    1.4005   -1.9795 C   0  0  0  0  0  0  0  0  0  0  0  0
   -0.2412    2.1035   -0.8809 C   0  0  0  0  0  0  0  0  0  0  0  0
   -1.3421    1.5973   -0.1806 C   0  0  0  0  0  0  0  0  0  0  0  0
   -1.9137    0.4078   -0.6058 C   0  0  0  0  0  0  0  0  0  0  0  0
   -1.3813   -0.2817   -1.7022 C   0  0  0  0  0  0  0  0  0  0  0  0
   -0.2825    0.1946   -2.4021 C   0  0  0  0  0  0  0  0  0  0  0  0
   -2.0926   -1.5815   -1.9114 C   0  0  0  0  0  0  0  0  0  0  0  0
   -3.3543   -1.3735   -1.0480 C   0  0  0  0  0  0  0  0  0  0  0  0
   -4.5235   -0.9174   -1.9358 C   0  0  0  0  0  0  0  0  0  0  0  0
   -3.0090   -0.3135   -0.0668 N   0  0  0  0  0  0  0  0  0  0  0  0
   -3.6860    0.0294    1.1030 C   0  0  0  0  0  0  0  0  0  0  0  0
   -3.5575    1.1539    1.6182 O   0  0  0  0  0  0  0  0  0  0  0  0
   -4.5405   -1.0077    1.8527 C   0  0  0  0  0  0  0  0  0  0  0  0
   -3.9195   -2.3630    2.2750 C   0  0  0  0  0  0  0  0  0  0  0  0
   -5.3434   -2.9523    2.2264 C   0  0  0  0  0  0  0  0  0  0  0  0
   -5.7153   -1.8119    1.2552 C   0  0  0  0  0  0  0  0  0  0  0  0
    8.1012    1.5903   -1.2691 H   0  0  0  0  0  0  0  0  0  0  0  0
    8.0262    0.5289    0.1413 H   0  0  0  0  0  0  0  0  0  0  0  0
    7.7110    2.3021    0.3012 H   0  0  0  0  0  0  0  0  0  0  0  0
    6.7824    1.0707    2.0706 H   0  0  0  0  0  0  0  0  0  0  0  0
    5.1388    0.6022    3.8141 H   0  0  0  0  0  0  0  0  0  0  0  0
    2.7617    0.2019    3.2321 H   0  0  0  0  0  0  0  0  0  0  0  0
    2.0409    0.2646    0.8728 H   0  0  0  0  0  0  0  0  0  0  0  0
    2.8495   -0.1176   -1.4889 H   0  0  0  0  0  0  0  0  0  0  0  0
    4.3532    0.5944   -2.0463 H   0  0  0  0  0  0  0  0  0  0  0  0
    3.3969    2.8514   -1.4932 H   0  0  0  0  0  0  0  0  0  0  0  0
    0.2108    3.0417   -0.5642 H   0  0  0  0  0  0  0  0  0  0  0  0
   -1.7267    2.1515    0.6683 H   0  0  0  0  0  0  0  0  0  0  0  0
    0.1278   -0.3595   -3.2409 H   0  0  0  0  0  0  0  0  0  0  0  0
   -1.4795   -2.3943   -1.5063 H   0  0  0  0  0  0  0  0  0  0  0  0
   -2.3176   -1.7798   -2.9633 H   0  0  0  0  0  0  0  0  0  0  0  0
   -3.6194   -2.3034   -0.5431 H   0  0  0  0  0  0  0  0  0  0  0  0
   -4.2449   -0.0597   -2.5590 H   0  0  0  0  0  0  0  0  0  0  0  0
   -4.8369   -1.7278   -2.6016 H   0  0  0  0  0  0  0  0  0  0  0  0
   -5.3886   -0.6050   -1.3442 H   0  0  0  0  0  0  0  0  0  0  0  0
   -4.9149   -0.5032    2.7647 H   0  0  0  0  0  0  0  0  0  0  0  0
   -3.4471   -2.3746    3.2616 H   0  0  0  0  0  0  0  0  0  0  0  0
   -3.2263   -2.8106    1.5568 H   0  0  0  0  0  0  0  0  0  0  0  0
   -5.4245   -3.9651    1.8243 H   0  0  0  0  0  0  0  0  0  0  0  0
   -5.8722   -2.9044    3.1850 H   0  0  0  0  0  0  0  0  0  0  0  0
   -6.7067   -1.3764    1.4125 H   0  0  0  0  0  0  0  0  0  0  0  0
   -5.6427   -2.1210    0.2134 H   0  0  0  0  0  0  0  0  0  0  0  0
  1  2  1  0
  2  3  1  0
  3  4  2  0
  4  5  1  0
  5  6  2  0
  6  7  1  0
  7  8  2  0
  8  9  1  0
  9 10  1  0
 10 11  1  0
 11 12  2  0
 11 13  2  0
 11 14  1  0
 14 15  2  0
 15 16  1  0
 16 17  2  0
 17 18  1  0
 18 19  2  0
 18 20  1  0
 20 21  1  0
 21 22  1  0
 21 23  1  0
 23 24  1  0
 24 25  2  0
 24 26  1  0
 26 27  1  0
 27 28  1  0
 28 29  1  0
  8  3  1  0
 19 14  1  0
 29 26  1  0
 23 17  1  0
  1 30  1  0
  1 31  1  0
  1 32  1  0
  4 33  1  0
  5 34  1  0
  6 35  1  0
  7 36  1  0
  9 37  1  0
  9 38  1  0
 10 39  1  0
 15 40  1  0
 16 41  1  0
 19 42  1  0
 20 43  1  0
 20 44  1  0
 21 45  1  0
 22 46  1  0
 22 47  1  0
 22 48  1  0
 26 49  1  0
 27 50  1  0
 27 51  1  0
 28 52  1  0
 28 53  1  0
 29 54  1  0
 29 55  1  0
M  END
$$$$
