
     RDKit          3D

 63 67  0  0  0  0  0  0  0  0999 V2000
    9.6854    0.9046    0.5589 C   0  0  0  0  0  0  0  0  0  0  0  0
    8.9021   -0.0974   -0.0732 O   0  0  0  0  0  0  0  0  0  0  0  0
    7.5408    0.0718   -0.0543 C   0  0  0  0  0  0  0  0  0  0  0  0
    6.8690    0.9030    0.8452 C   0  0  0  0  0  0  0  0  0  0  0  0
    5.4742    0.9964    0.8135 C   0  0  0  0  0  0  0  0  0  0  0  0
    4.7187    0.2596   -0.1105 C   0  0  0  0  0  0  0  0  0  0  0  0
    3.2487    0.3554   -0.1374 C   0  0  0  0  0  0  0  0  0  0  0  0
    2.4475   -0.8007   -0.1167 C   0  0  0  0  0  0  0  0  0  0  0  0
    1.0507   -0.7186   -0.1509 C   0  0  0  0  0  0  0  0  0  0  0  0
    0.4235    0.5282   -0.1938 C   0  0  0  0  0  0  0  0  0  0  0  0
    1.2071    1.6721   -0.2286 C   0  0  0  0  0  0  0  0  0  0  0  0
    2.6044    1.6012   -0.1945 C   0  0  0  0  0  0  0  0  0  0  0  0
    0.4225    3.2351   -0.3250 S   0  0  0  0  0  6  0  0  0  0  0  0
    0.3005    3.5651   -1.7271 O   0  0  0  0  0  0  0  0  0  0  0  0
    1.1052    4.1006    0.6170 O   0  0  0  0  0  0  0  0  0  0  0  0
   -1.2116    3.0307    0.2850 C   0  0  0  0  0  0  0  0  0  0  0  0
   -1.8994    4.1549    0.7565 C   0  0  0  0  0  0  0  0  0  0  0  0
   -3.1831    4.0075    1.2716 C   0  0  0  0  0  0  0  0  0  0  0  0
   -3.7649    2.7413    1.3246 C   0  0  0  0  0  0  0  0  0  0  0  0
   -3.0610    1.6233    0.8520 C   0  0  0  0  0  0  0  0  0  0  0  0
   -3.6727    0.3029    1.0770 C   0  0  0  0  0  0  0  0  0  0  0  0
   -3.2946   -0.3613    2.0318 O   0  0  0  0  0  0  0  0  0  0  0  0
   -4.6744   -0.0296    0.1943 N   0  0  0  0  0  0  0  0  0  0  0  0
   -5.3577   -1.3116    0.2650 C   0  0  0  0  0  0  0  0  0  0  0  0
   -6.5373   -1.2554    1.2413 C   0  0  0  0  0  0  0  0  0  0  0  0
   -7.1973   -2.6256    1.4120 C   0  0  0  0  0  0  0  0  0  0  0  0
   -7.0441   -3.5367    0.1926 C   0  0  0  0  0  0  0  0  0  0  0  0
   -6.9954   -2.7392   -1.1042 C   0  0  0  0  0  0  0  0  0  0  0  0
   -5.8221   -1.7548   -1.1322 C   0  0  0  0  0  0  0  0  0  0  0  0
   -1.7742    1.7557    0.3194 C   0  0  0  0  0  0  0  0  0  0  0  0
   -1.0521    0.5871   -0.2339 C   0  0  0  0  0  0  0  0  0  0  0  0
   -1.6686   -0.3255   -0.7669 O   0  0  0  0  0  0  0  0  0  0  0  0
    5.4059   -0.5742   -1.0121 C   0  0  0  0  0  0  0  0  0  0  0  0
    6.8040   -0.6790   -0.9892 C   0  0  0  0  0  0  0  0  0  0  0  0
    7.5380   -1.4682   -1.8404 O   0  0  0  0  0  0  0  0  0  0  0  0
    6.8316   -2.2702   -2.7760 C   0  0  0  0  0  0  0  0  0  0  0  0
    9.6189    0.8225    1.6492 H   0  0  0  0  0  0  0  0  0  0  0  0
   10.7308    0.7399    0.2761 H   0  0  0  0  0  0  0  0  0  0  0  0
    9.4038    1.9091    0.2210 H   0  0  0  0  0  0  0  0  0  0  0  0
    7.4003    1.4805    1.5951 H   0  0  0  0  0  0  0  0  0  0  0  0
    4.9795    1.6434    1.5367 H   0  0  0  0  0  0  0  0  0  0  0  0
    2.9097   -1.7863   -0.0640 H   0  0  0  0  0  0  0  0  0  0  0  0
    0.4578   -1.6323   -0.1357 H   0  0  0  0  0  0  0  0  0  0  0  0
    3.1895    2.5196   -0.2324 H   0  0  0  0  0  0  0  0  0  0  0  0
   -1.4372    5.1415    0.7303 H   0  0  0  0  0  0  0  0  0  0  0  0
   -3.7185    4.8717    1.6554 H   0  0  0  0  0  0  0  0  0  0  0  0
   -4.7548    2.6180    1.7620 H   0  0  0  0  0  0  0  0  0  0  0  0
   -4.8799    0.5933   -0.5762 H   0  0  0  0  0  0  0  0  0  0  0  0
   -4.6341   -2.0483    0.6447 H   0  0  0  0  0  0  0  0  0  0  0  0
   -6.2228   -0.8818    2.2246 H   0  0  0  0  0  0  0  0  0  0  0  0
   -7.2812   -0.5338    0.8704 H   0  0  0  0  0  0  0  0  0  0  0  0
   -8.2618   -2.4782    1.6344 H   0  0  0  0  0  0  0  0  0  0  0  0
   -6.7722   -3.1355    2.2845 H   0  0  0  0  0  0  0  0  0  0  0  0
   -7.8680   -4.2592    0.1691 H   0  0  0  0  0  0  0  0  0  0  0  0
   -6.1193   -4.1216    0.2861 H   0  0  0  0  0  0  0  0  0  0  0  0
   -7.9364   -2.1854   -1.2184 H   0  0  0  0  0  0  0  0  0  0  0  0
   -6.9262   -3.4153   -1.9636 H   0  0  0  0  0  0  0  0  0  0  0  0
   -6.1151   -0.8905   -1.7419 H   0  0  0  0  0  0  0  0  0  0  0  0
   -4.9714   -2.2100   -1.6546 H   0  0  0  0  0  0  0  0  0  0  0  0
    4.8241   -1.1296   -1.7420 H   0  0  0  0  0  0  0  0  0  0  0  0
    6.2956   -1.6475   -3.5006 H   0  0  0  0  0  0  0  0  0  0  0  0
    7.5656   -2.8657   -3.3285 H   0  0  0  0  0  0  0  0  0  0  0  0
    6.1538   -2.9672   -2.2722 H   0  0  0  0  0  0  0  0  0  0  0  0
  1  2  1  0
  2  3  1  0
  3  4  2  0
  4  5  1  0
  5  6  2  0
  6  7  1  0
  7  8  2  0
  8  9  1  0
  9 10  2  0
 10 11  1  0
 11 12  2  0
 11 13  1  0
 13 14  2  0
 13 15  2  0
 13 16  1  0
 16 17  2  0
 17 18  1  0
 18 19  2  0
 19 20  1  0
 20 21  1  0
 21 22  2  0
 21 23  1  0
 23 24  1  0
 24 25  1  0
 25 26  1  0
 26 27  1  0
 27 28  1  0
 28 29  1  0
 20 30  2  0
 30 31  1  0
 31 32  2  0
  6 33  1  0
 33 34  2  0
 34 35  1  0
 35 36  1  0
 34  3  1  0
 12  7  1  0
 30 16  1  0
 31 10  1  0
 29 24  1  0
  1 37  1  0
  1 38  1  0
  1 39  1  0
  4 40  1  0
  5 41  1  0
  8 42  1  0
  9 43  1  0
 12 44  1  0
 17 45  1  0
 18 46  1  0
 19 47  1  0
 23 48  1  0
 24 49  1  0
 25 50  1  0
 25 51  1  0
 26 52  1  0
 26 53  1  0
 27 54  1  0
 27 55  1  0
 28 56  1  0
 28 57  1  0
 29 58  1  0
 29 59  1  0
 33 60  1  0
 36 61  1  0
 36 62  1  0
 36 63  1  0
M  END
$$$$
