
     RDKit          3D

 50 53  0  0  0  0  0  0  0  0999 V2000
    7.4750    1.2542   -2.1305 C   0  0  0  0  0  0  0  0  0  0  0  0
    6.3127    0.6504   -1.4065 C   0  0  0  0  0  0  0  0  0  0  0  0
    5.0060    0.9514   -1.7867 C   0  0  0  0  0  0  0  0  0  0  0  0
    3.9164    0.4347   -1.1692 N   0  0  0  0  0  0  0  0  0  0  0  0
    4.1951   -0.4150   -0.1386 C   0  0  0  0  0  0  0  0  0  0  0  0
    3.0364   -1.0149    0.5792 C   0  0  0  0  0  0  0  0  0  0  0  0
    3.1932   -1.7521    1.5447 O   0  0  0  0  0  0  0  0  0  0  0  0
    1.8066   -0.6596    0.0708 N   0  0  0  0  0  0  0  0  0  0  0  0
    0.5669   -1.0253    0.7168 C   0  0  0  0  0  0  0  0  0  0  0  0
    0.2846   -0.1002    1.9243 C   0  0  0  0  0  0  0  0  0  0  0  0
   -1.2009   -0.1113    2.3912 C   0  0  0  0  0  0  0  0  0  0  0  0
   -1.5984   -1.5113    2.9021 C   0  0  0  0  0  0  0  0  0  0  0  0
   -1.3613    0.8824    3.5575 C   0  0  0  0  0  0  0  0  0  0  0  0
   -2.1410    0.3305    1.2248 C   0  0  0  0  0  0  0  0  0  0  0  0
   -1.7478   -0.3110   -0.0653 C   0  0  0  0  0  0  0  0  0  0  0  0
   -0.5309   -0.9327   -0.2857 C   0  0  0  0  0  0  0  0  0  0  0  0
   -0.6455   -1.4937   -1.5614 C   0  0  0  0  0  0  0  0  0  0  0  0
   -1.8197   -1.2294   -2.1276 N   0  0  0  0  0  0  0  0  0  0  0  0
   -2.4926   -0.4470   -1.2313 N   0  0  0  0  0  0  0  0  0  0  0  0
   -3.7708    0.0789   -1.5996 C   0  0  0  0  0  0  0  0  0  0  0  0
   -4.4201    1.0789   -0.8672 C   0  0  0  0  0  0  0  0  0  0  0  0
   -5.6715    1.5574   -1.2746 C   0  0  0  0  0  0  0  0  0  0  0  0
   -6.2830    1.0504   -2.4184 C   0  0  0  0  0  0  0  0  0  0  0  0
   -5.6417    0.0681   -3.1656 C   0  0  0  0  0  0  0  0  0  0  0  0
   -4.3925   -0.4114   -2.7630 C   0  0  0  0  0  0  0  0  0  0  0  0
    5.4893   -0.7202    0.2491 C   0  0  0  0  0  0  0  0  0  0  0  0
    6.5737   -0.1937   -0.3764 N   0  0  0  0  0  0  0  0  0  0  0  0
    7.4414    2.3456   -2.0568 H   0  0  0  0  0  0  0  0  0  0  0  0
    8.4219    0.9124   -1.7001 H   0  0  0  0  0  0  0  0  0  0  0  0
    7.4558    0.9641   -3.1855 H   0  0  0  0  0  0  0  0  0  0  0  0
    4.7991    1.6265   -2.6113 H   0  0  0  0  0  0  0  0  0  0  0  0
    1.8070    0.0460   -0.6620 H   0  0  0  0  0  0  0  0  0  0  0  0
    0.6501   -2.0616    1.0670 H   0  0  0  0  0  0  0  0  0  0  0  0
    0.5560    0.9322    1.6575 H   0  0  0  0  0  0  0  0  0  0  0  0
    0.9480   -0.3761    2.7545 H   0  0  0  0  0  0  0  0  0  0  0  0
   -0.9289   -1.8391    3.7053 H   0  0  0  0  0  0  0  0  0  0  0  0
   -2.6185   -1.5069    3.3030 H   0  0  0  0  0  0  0  0  0  0  0  0
   -1.5645   -2.2691    2.1134 H   0  0  0  0  0  0  0  0  0  0  0  0
   -2.3998    0.9187    3.9055 H   0  0  0  0  0  0  0  0  0  0  0  0
   -1.0752    1.8967    3.2576 H   0  0  0  0  0  0  0  0  0  0  0  0
   -0.7323    0.5982    4.4087 H   0  0  0  0  0  0  0  0  0  0  0  0
   -2.0663    1.4180    1.0998 H   0  0  0  0  0  0  0  0  0  0  0  0
   -3.1758    0.0824    1.4862 H   0  0  0  0  0  0  0  0  0  0  0  0
    0.0739   -2.0973   -2.1005 H   0  0  0  0  0  0  0  0  0  0  0  0
   -3.9815    1.5438    0.0048 H   0  0  0  0  0  0  0  0  0  0  0  0
   -6.1657    2.3372   -0.6998 H   0  0  0  0  0  0  0  0  0  0  0  0
   -7.2536    1.4260   -2.7312 H   0  0  0  0  0  0  0  0  0  0  0  0
   -6.1090   -0.3281   -4.0634 H   0  0  0  0  0  0  0  0  0  0  0  0
   -3.9169   -1.1822   -3.3680 H   0  0  0  0  0  0  0  0  0  0  0  0
    5.6969   -1.3959    1.0720 H   0  0  0  0  0  0  0  0  0  0  0  0
  1  2  1  0
  2  3  2  0
  3  4  1  0
  4  5  2  0
  5  6  1  0
  6  7  2  0
  6  8  1  0
  8  9  1  0
  9 10  1  0
 10 11  1  0
 11 12  1  0
 11 13  1  0
 11 14  1  0
 14 15  1  0
 15 16  2  0
 16 17  1  0
 17 18  2  0
 18 19  1  0
 19 20  1  0
 20 21  2  0
 21 22  1  0
 22 23  2  0
 23 24  1  0
 24 25  2  0
  5 26  1  0
 26 27  2  0
 27  2  1  0
 16  9  1  0
 25 20  1  0
 19 15  1  0
  1 28  1  0
  1 29  1  0
  1 30  1  0
  3 31  1  0
  8 32  1  0
  9 33  1  0
 10 34  1  0
 10 35  1  0
 12 36  1  0
 12 37  1  0
 12 38  1  0
 13 39  1  0
 13 40  1  0
 13 41  1  0
 14 42  1  0
 14 43  1  0
 17 44  1  0
 21 45  1  0
 22 46  1  0
 23 47  1  0
 24 48  1  0
 25 49  1  0
 26 50  1  0
M  END
$$$$
