
     RDKit          3D

 74 78  0  0  0  0  0  0  0  0999 V2000
    0.4438   -4.2252    2.9490 C   0  0  0  0  0  0  0  0  0  0  0  0
    0.1536   -2.9025    3.6449 C   0  0  0  0  0  0  0  0  0  0  0  0
   -1.0709   -2.2259    3.0899 C   0  0  0  0  0  0  0  0  0  0  0  0
   -2.4340   -2.4833    3.6929 C   0  0  0  0  0  0  0  0  0  0  0  0
   -2.5375   -3.4321    4.8681 C   0  0  0  0  0  0  0  0  0  0  0  0
   -3.5474   -1.9401    3.2915 N   0  0  0  0  0  0  0  0  0  0  0  0
   -3.4665   -1.0742    2.2447 C   0  0  0  0  0  0  0  0  0  0  0  0
   -4.4338   -0.3468    1.5945 C   0  0  0  0  0  0  0  0  0  0  0  0
   -3.7666    0.3885    0.5854 C   0  0  0  0  0  0  0  0  0  0  0  0
   -4.3363    1.3319   -0.3890 C   0  0  0  0  0  0  0  0  0  0  0  0
   -5.7200    1.5698   -0.4490 C   0  0  0  0  0  0  0  0  0  0  0  0
   -6.2460    2.4740   -1.3740 C   0  0  0  0  0  0  0  0  0  0  0  0
   -7.5686    2.7896   -1.5280 O   0  0  0  0  0  0  0  0  0  0  0  0
   -8.4973    2.1318   -0.6757 C   0  0  0  0  0  0  0  0  0  0  0  0
   -5.3839    3.1431   -2.2448 C   0  0  0  0  0  0  0  0  0  0  0  0
   -4.0075    2.9205   -2.2078 C   0  0  0  0  0  0  0  0  0  0  0  0
   -3.2840    3.6423   -3.1175 O   0  0  0  0  0  0  0  0  0  0  0  0
   -1.8823    3.4003   -3.1603 C   0  0  0  0  0  0  0  0  0  0  0  0
   -3.4899    2.0180   -1.2795 C   0  0  0  0  0  0  0  0  0  0  0  0
   -2.4522    0.1232    0.6026 N   0  0  0  0  0  0  0  0  0  0  0  0
   -2.2627   -0.7646    1.6205 N   0  0  0  0  0  0  0  0  0  0  0  0
   -1.0426   -1.3505    2.0571 C   0  0  0  0  0  0  0  0  0  0  0  0
    0.1587   -1.0122    1.3937 N   0  0  0  0  0  0  0  0  0  0  0  0
    0.3227   -1.4118   -0.0312 C   0  0  0  0  0  0  0  0  0  0  0  0
    0.7845   -0.2446   -0.9308 C   0  0  0  0  0  0  0  0  0  0  0  0
    2.0385    0.4222   -0.5040 N   0  0  0  0  0  0  0  0  0  0  0  0
    3.2190   -0.2203   -1.1178 C   0  0  0  0  0  0  0  0  0  0  0  0
    4.5440    0.5497   -0.8791 C   0  0  0  0  0  0  0  0  0  0  0  0
    5.7269   -0.1290   -1.4450 N   0  0  0  0  0  0  0  0  0  0  0  0
    5.6461   -0.2543   -2.9178 C   0  0  0  0  0  0  0  0  0  0  0  0
    7.0324   -0.4181   -3.5577 C   0  0  0  0  0  0  0  0  0  0  0  0
    7.8710    0.7279   -3.3611 O   0  0  0  0  0  0  0  0  0  0  0  0
    7.5769    1.4392   -2.1512 C   0  0  0  0  0  0  0  0  0  0  0  0
    6.9855    0.5439   -1.0511 C   0  0  0  0  0  0  0  0  0  0  0  0
    2.1351    0.4399    0.9774 C   0  0  0  0  0  0  0  0  0  0  0  0
    0.7806    0.2991    1.7068 C   0  0  0  0  0  0  0  0  0  0  0  0
   -0.3968   -4.9203    3.0281 H   0  0  0  0  0  0  0  0  0  0  0  0
    0.6551   -4.0732    1.8855 H   0  0  0  0  0  0  0  0  0  0  0  0
    1.3217   -4.7019    3.3976 H   0  0  0  0  0  0  0  0  0  0  0  0
    1.0309   -2.2518    3.5422 H   0  0  0  0  0  0  0  0  0  0  0  0
    0.0547   -3.0655    4.7231 H   0  0  0  0  0  0  0  0  0  0  0  0
   -3.5874   -3.6265    5.1086 H   0  0  0  0  0  0  0  0  0  0  0  0
   -2.0622   -4.3870    4.6338 H   0  0  0  0  0  0  0  0  0  0  0  0
   -2.0617   -2.9845    5.7450 H   0  0  0  0  0  0  0  0  0  0  0  0
   -5.4845   -0.3584    1.8404 H   0  0  0  0  0  0  0  0  0  0  0  0
   -6.3790    1.0438    0.2314 H   0  0  0  0  0  0  0  0  0  0  0  0
   -9.4985    2.4926   -0.9309 H   0  0  0  0  0  0  0  0  0  0  0  0
   -8.3119    2.3789    0.3747 H   0  0  0  0  0  0  0  0  0  0  0  0
   -8.4832    1.0490   -0.8376 H   0  0  0  0  0  0  0  0  0  0  0  0
   -5.7922    3.8484   -2.9651 H   0  0  0  0  0  0  0  0  0  0  0  0
   -1.4031    3.6818   -2.2161 H   0  0  0  0  0  0  0  0  0  0  0  0
   -1.4593    4.0307   -3.9486 H   0  0  0  0  0  0  0  0  0  0  0  0
   -1.6689    2.3571   -3.4187 H   0  0  0  0  0  0  0  0  0  0  0  0
   -2.4213    1.8328   -1.2242 H   0  0  0  0  0  0  0  0  0  0  0  0
    1.0653   -2.2182   -0.0670 H   0  0  0  0  0  0  0  0  0  0  0  0
   -0.6086   -1.8281   -0.4337 H   0  0  0  0  0  0  0  0  0  0  0  0
   -0.0012    0.5219   -0.9402 H   0  0  0  0  0  0  0  0  0  0  0  0
    0.8574   -0.5891   -1.9701 H   0  0  0  0  0  0  0  0  0  0  0  0
    3.0513   -0.2676   -2.2006 H   0  0  0  0  0  0  0  0  0  0  0  0
    3.3231   -1.2553   -0.7649 H   0  0  0  0  0  0  0  0  0  0  0  0
    4.4556    1.5691   -1.2773 H   0  0  0  0  0  0  0  0  0  0  0  0
    4.6955    0.6407    0.2032 H   0  0  0  0  0  0  0  0  0  0  0  0
    5.0300   -1.1232   -3.1719 H   0  0  0  0  0  0  0  0  0  0  0  0
    5.1757    0.6378   -3.3515 H   0  0  0  0  0  0  0  0  0  0  0  0
    6.9324   -0.5686   -4.6379 H   0  0  0  0  0  0  0  0  0  0  0  0
    7.5492   -1.2974   -3.1542 H   0  0  0  0  0  0  0  0  0  0  0  0
    8.5125    1.8905   -1.8040 H   0  0  0  0  0  0  0  0  0  0  0  0
    6.8911    2.2600   -2.3944 H   0  0  0  0  0  0  0  0  0  0  0  0
    7.7112   -0.2489   -0.8285 H   0  0  0  0  0  0  0  0  0  0  0  0
    6.8684    1.1178   -0.1246 H   0  0  0  0  0  0  0  0  0  0  0  0
    2.7786   -0.3773    1.3312 H   0  0  0  0  0  0  0  0  0  0  0  0
    2.6064    1.3813    1.2812 H   0  0  0  0  0  0  0  0  0  0  0  0
    0.9523    0.3656    2.7878 H   0  0  0  0  0  0  0  0  0  0  0  0
    0.1120    1.1234    1.4289 H   0  0  0  0  0  0  0  0  0  0  0  0
  1  2  1  0
  2  3  1  0
  3  4  1  0
  4  5  1  0
  4  6  2  0
  6  7  1  0
  7  8  2  0
  8  9  1  0
  9 10  1  0
 10 11  2  0
 11 12  1  0
 12 13  1  0
 13 14  1  0
 12 15  2  0
 15 16  1  0
 16 17  1  0
 17 18  1  0
 16 19  2  0
  9 20  2  0
 20 21  1  0
 21 22  1  0
 22 23  1  0
 23 24  1  0
 24 25  1  0
 25 26  1  0
 26 27  1  0
 27 28  1  0
 28 29  1  0
 29 30  1  0
 30 31  1  0
 31 32  1  0
 32 33  1  0
 33 34  1  0
 26 35  1  0
 35 36  1  0
 22  3  2  0
 36 23  1  0
 21  7  1  0
 34 29  1  0
 19 10  1  0
  1 37  1  0
  1 38  1  0
  1 39  1  0
  2 40  1  0
  2 41  1  0
  5 42  1  0
  5 43  1  0
  5 44  1  0
  8 45  1  0
 11 46  1  0
 14 47  1  0
 14 48  1  0
 14 49  1  0
 15 50  1  0
 18 51  1  0
 18 52  1  0
 18 53  1  0
 19 54  1  0
 24 55  1  0
 24 56  1  0
 25 57  1  0
 25 58  1  0
 27 59  1  0
 27 60  1  0
 28 61  1  0
 28 62  1  0
 30 63  1  0
 30 64  1  0
 31 65  1  0
 31 66  1  0
 33 67  1  0
 33 68  1  0
 34 69  1  0
 34 70  1  0
 35 71  1  0
 35 72  1  0
 36 73  1  0
 36 74  1  0
M  END
$$$$
