
     RDKit          3D

 31 33  0  0  0  0  0  0  0  0999 V2000
   -0.2804    2.4448    0.8051 O   0  0  0  0  0  0  0  0  0  0  0  0
   -0.9866    1.5868    1.3073 C   0  0  0  0  0  0  0  0  0  0  0  0
   -1.1398    1.5023    2.6397 O   0  0  0  0  0  0  0  0  0  0  0  0
   -1.7411    0.5519    0.5583 C   0  0  0  0  0  0  0  0  0  0  0  0
   -2.5545   -0.3676    1.2406 C   0  0  0  0  0  0  0  0  0  0  0  0
   -3.2696   -1.3365    0.5347 C   0  0  0  0  0  0  0  0  0  0  0  0
   -3.1809   -1.3924   -0.8537 C   0  0  0  0  0  0  0  0  0  0  0  0
   -2.3748   -0.4833   -1.5407 C   0  0  0  0  0  0  0  0  0  0  0  0
   -1.6466    0.4878   -0.8456 C   0  0  0  0  0  0  0  0  0  0  0  0
   -0.8202    1.3914   -1.5960 N   0  0  0  0  0  0  0  0  0  0  0  0
    0.5677    0.7908   -2.3641 S   0  0  0  0  0  6  0  0  0  0  0  0
    1.2205    1.9525   -2.9372 O   0  0  0  0  0  0  0  0  0  0  0  0
    0.2350   -0.3357   -3.2065 O   0  0  0  0  0  0  0  0  0  0  0  0
    1.5915    0.2394   -1.0421 C   0  0  0  0  0  0  0  0  0  0  0  0
    2.6429    1.0638   -0.5742 C   0  0  0  0  0  0  0  0  0  0  0  0
    3.5165    0.6883    0.4720 C   0  0  0  0  0  0  0  0  0  0  0  0
    3.4212   -0.5430    1.1383 C   0  0  0  0  0  0  0  0  0  0  0  0
    2.3921   -1.4126    0.7044 C   0  0  0  0  0  0  0  0  0  0  0  0
    2.1359   -2.6252    1.2174 N   0  0  0  0  0  0  0  0  0  0  0  0
    0.8489   -3.2338    0.3668 S   0  0  0  0  0  0  0  0  0  0  0  0
    0.5497   -1.9798   -0.6705 N   0  0  0  0  0  0  0  0  0  0  0  0
    1.4536   -1.0210   -0.4174 C   0  0  0  0  0  0  0  0  0  0  0  0
   -0.6030    2.2374    3.0041 H   0  0  0  0  0  0  0  0  0  0  0  0
   -2.6403   -0.3398    2.3245 H   0  0  0  0  0  0  0  0  0  0  0  0
   -3.8964   -2.0476    1.0680 H   0  0  0  0  0  0  0  0  0  0  0  0
   -3.7344   -2.1473   -1.4074 H   0  0  0  0  0  0  0  0  0  0  0  0
   -2.3164   -0.5428   -2.6258 H   0  0  0  0  0  0  0  0  0  0  0  0
   -0.5827    2.2627   -1.1035 H   0  0  0  0  0  0  0  0  0  0  0  0
    2.7963    2.0433   -1.0327 H   0  0  0  0  0  0  0  0  0  0  0  0
    4.2996    1.3860    0.7722 H   0  0  0  0  0  0  0  0  0  0  0  0
    4.0966   -0.8208    1.9391 H   0  0  0  0  0  0  0  0  0  0  0  0
  1  2  2  0
  2  3  1  0
  2  4  1  0
  4  5  2  0
  5  6  1  0
  6  7  2  0
  7  8  1  0
  8  9  2  0
  9 10  1  0
 10 11  1  0
 11 12  2  0
 11 13  2  0
 11 14  1  0
 14 15  2  0
 15 16  1  0
 16 17  2  0
 17 18  1  0
 18 19  2  0
 19 20  1  0
 20 21  1  0
 21 22  2  0
  9  4  1  0
 22 14  1  0
 22 18  1  0
  3 23  1  0
  5 24  1  0
  6 25  1  0
  7 26  1  0
  8 27  1  0
 10 28  1  0
 15 29  1  0
 16 30  1  0
 17 31  1  0
M  END
$$$$
