
     RDKit          3D

 54 57  0  0  0  0  0  0  0  0999 V2000
    7.0356   -0.5130    2.4144 C   0  0  0  0  0  0  0  0  0  0  0  0
    7.4548   -0.6308    1.0597 O   0  0  0  0  0  0  0  0  0  0  0  0
    6.4819   -0.5384    0.1009 C   0  0  0  0  0  0  0  0  0  0  0  0
    6.9502   -0.6413   -1.2100 C   0  0  0  0  0  0  0  0  0  0  0  0
    6.0661   -0.5654   -2.2832 C   0  0  0  0  0  0  0  0  0  0  0  0
    4.7037   -0.3848   -2.0468 C   0  0  0  0  0  0  0  0  0  0  0  0
    4.2163   -0.2780   -0.7380 C   0  0  0  0  0  0  0  0  0  0  0  0
    2.8231   -0.1028   -0.5894 N   0  0  0  0  0  0  0  0  0  0  0  0
    2.1144    0.0668    0.5858 C   0  0  0  0  0  0  0  0  0  0  0  0
    2.5737    0.1533    1.7183 O   0  0  0  0  0  0  0  0  0  0  0  0
    0.6478    0.1833    0.3571 C   0  0  0  0  0  0  0  0  0  0  0  0
   -0.0333    1.0951    1.0695 C   0  0  0  0  0  0  0  0  0  0  0  0
   -1.4454    1.3659    0.8462 C   0  0  0  0  0  0  0  0  0  0  0  0
   -2.1336    2.3927    1.6797 C   0  0  0  0  0  0  0  0  0  0  0  0
   -1.5053    2.9991    2.5501 O   0  0  0  0  0  0  0  0  0  0  0  0
   -3.4727    2.6023    1.4033 N   0  0  0  0  0  0  0  0  0  0  0  0
   -4.1893    3.5339    2.1473 C   0  0  0  0  0  0  0  0  0  0  0  0
   -5.4840    3.7787    1.9114 C   0  0  0  0  0  0  0  0  0  0  0  0
   -6.1670    3.0692    0.8631 C   0  0  0  0  0  0  0  0  0  0  0  0
   -5.5152    2.1660    0.1213 C   0  0  0  0  0  0  0  0  0  0  0  0
   -4.0736    1.8907    0.3827 C   0  0  0  0  0  0  0  0  0  0  0  0
   -3.4700    1.0125   -0.3506 N   0  0  0  0  0  0  0  0  0  0  0  0
   -2.1426    0.7278   -0.1227 C   0  0  0  0  0  0  0  0  0  0  0  0
   -1.4782   -0.2567   -0.8988 N   0  0  0  0  0  0  0  0  0  0  0  0
   -2.2242   -1.0074   -1.9299 C   0  0  0  0  0  0  0  0  0  0  0  0
   -2.6988   -2.3884   -1.4311 C   0  0  0  0  0  0  0  0  0  0  0  0
   -3.2350   -3.2039   -2.6109 C   0  0  0  0  0  0  0  0  0  0  0  0
   -3.7749   -2.2869   -0.3487 C   0  0  0  0  0  0  0  0  0  0  0  0
   -0.1375   -0.5920   -0.6627 C   0  0  0  0  0  0  0  0  0  0  0  0
    0.4256   -1.5702   -1.3173 N   0  0  0  0  0  0  0  0  0  0  0  0
    5.1138   -0.3590    0.3326 C   0  0  0  0  0  0  0  0  0  0  0  0
    7.9249   -0.5962    3.0467 H   0  0  0  0  0  0  0  0  0  0  0  0
    6.3553   -1.3259    2.6891 H   0  0  0  0  0  0  0  0  0  0  0  0
    6.5833    0.4658    2.6049 H   0  0  0  0  0  0  0  0  0  0  0  0
    8.0128   -0.7821   -1.3926 H   0  0  0  0  0  0  0  0  0  0  0  0
    6.4392   -0.6481   -3.3005 H   0  0  0  0  0  0  0  0  0  0  0  0
    4.0324   -0.3310   -2.9003 H   0  0  0  0  0  0  0  0  0  0  0  0
    2.2969   -0.0452   -1.4571 H   0  0  0  0  0  0  0  0  0  0  0  0
    0.4757    1.6971    1.8208 H   0  0  0  0  0  0  0  0  0  0  0  0
   -3.6519    4.0586    2.9337 H   0  0  0  0  0  0  0  0  0  0  0  0
   -6.0350    4.5070    2.4977 H   0  0  0  0  0  0  0  0  0  0  0  0
   -7.2167    3.2836    0.6898 H   0  0  0  0  0  0  0  0  0  0  0  0
   -5.9920    1.6105   -0.6765 H   0  0  0  0  0  0  0  0  0  0  0  0
   -3.0802   -0.4298   -2.3015 H   0  0  0  0  0  0  0  0  0  0  0  0
   -1.5798   -1.1336   -2.8102 H   0  0  0  0  0  0  0  0  0  0  0  0
   -1.8513   -2.9391   -1.0061 H   0  0  0  0  0  0  0  0  0  0  0  0
   -4.0951   -2.7109   -3.0768 H   0  0  0  0  0  0  0  0  0  0  0  0
   -2.4627   -3.3351   -3.3763 H   0  0  0  0  0  0  0  0  0  0  0  0
   -3.5511   -4.2005   -2.2843 H   0  0  0  0  0  0  0  0  0  0  0  0
   -4.6380   -1.7100   -0.6972 H   0  0  0  0  0  0  0  0  0  0  0  0
   -4.1309   -3.2827   -0.0623 H   0  0  0  0  0  0  0  0  0  0  0  0
   -3.3842   -1.8125    0.5565 H   0  0  0  0  0  0  0  0  0  0  0  0
    1.3729   -1.7737   -0.9797 H   0  0  0  0  0  0  0  0  0  0  0  0
    4.7492   -0.2847    1.3485 H   0  0  0  0  0  0  0  0  0  0  0  0
  1  2  1  0
  2  3  1  0
  3  4  2  0
  4  5  1  0
  5  6  2  0
  6  7  1  0
  7  8  1  0
  8  9  1  0
  9 10  2  0
  9 11  1  0
 11 12  2  0
 12 13  1  0
 13 14  1  0
 14 15  2  0
 14 16  1  0
 16 17  1  0
 17 18  2  0
 18 19  1  0
 19 20  2  0
 20 21  1  0
 21 22  2  0
 22 23  1  0
 23 24  1  0
 24 25  1  0
 25 26  1  0
 26 27  1  0
 26 28  1  0
 24 29  1  0
 29 30  2  3
  7 31  2  0
 31  3  1  0
 29 11  1  0
 23 13  2  0
 21 16  1  0
  1 32  1  0
  1 33  1  0
  1 34  1  0
  4 35  1  0
  5 36  1  0
  6 37  1  0
  8 38  1  0
 12 39  1  0
 17 40  1  0
 18 41  1  0
 19 42  1  0
 20 43  1  0
 25 44  1  0
 25 45  1  0
 26 46  1  0
 27 47  1  0
 27 48  1  0
 27 49  1  0
 28 50  1  0
 28 51  1  0
 28 52  1  0
 30 53  1  0
 31 54  1  0
M  END
$$$$
