
     RDKit          3D

 44 46  0  0  0  0  0  0  0  0999 V2000
   -3.8262    1.6150   -2.1155 C   0  0  0  0  0  0  0  0  0  0  0  0
   -3.6259    0.8372   -0.8492 C   0  0  0  0  0  0  0  0  0  0  0  0
   -4.2001    1.2712    0.3479 C   0  0  0  0  0  0  0  0  0  0  0  0
   -4.0251    0.5324    1.5169 C   0  0  0  0  0  0  0  0  0  0  0  0
   -3.2791   -0.6543    1.5045 C   0  0  0  0  0  0  0  0  0  0  0  0
   -3.0937   -1.4255    2.7827 C   0  0  0  0  0  0  0  0  0  0  0  0
   -2.7191   -1.1125    0.2973 C   0  0  0  0  0  0  0  0  0  0  0  0
   -2.0204   -2.2871    0.3882 O   0  0  0  0  0  0  0  0  0  0  0  0
   -1.4507   -2.8688   -0.7862 C   0  0  0  0  0  0  0  0  0  0  0  0
   -0.1106   -2.2830   -0.9984 C   0  0  0  0  0  0  0  0  0  0  0  0
    1.0816   -2.3564   -0.3226 C   0  0  0  0  0  0  0  0  0  0  0  0
    1.9568   -1.4968   -1.0390 C   0  0  0  0  0  0  0  0  0  0  0  0
    3.3663   -1.2409   -0.7138 C   0  0  0  0  0  0  0  0  0  0  0  0
    4.0135   -2.1139   -0.1317 O   0  0  0  0  0  0  0  0  0  0  0  0
    3.9600   -0.0160   -1.0616 N   0  0  0  0  0  0  0  0  0  0  0  0
    5.3616    0.1429   -0.7062 C   0  0  0  0  0  0  0  0  0  0  0  0
    3.2008    1.2311   -1.2398 C   0  0  0  0  0  0  0  0  0  0  0  0
    2.9119    1.8768    0.0912 C   0  0  0  0  0  0  0  0  0  0  0  0
    3.7729    2.6285    0.7528 N   0  0  0  0  0  0  0  0  0  0  0  0
    3.2144    3.0335    1.9518 C   0  0  0  0  0  0  0  0  0  0  0  0
    1.9325    2.5911    2.1888 C   0  0  0  0  0  0  0  0  0  0  0  0
    1.3928    1.6418    0.8699 S   0  0  0  0  0  0  0  0  0  0  0  0
    1.3310   -0.9878   -2.1124 N   0  0  0  0  0  0  0  0  0  0  0  0
    0.0405   -1.4725   -2.0764 O   0  0  0  0  0  0  0  0  0  0  0  0
   -2.8993   -0.3630   -0.8687 C   0  0  0  0  0  0  0  0  0  0  0  0
   -4.0372    2.6689   -1.9016 H   0  0  0  0  0  0  0  0  0  0  0  0
   -2.9245    1.5832   -2.7330 H   0  0  0  0  0  0  0  0  0  0  0  0
   -4.6627    1.1969   -2.6831 H   0  0  0  0  0  0  0  0  0  0  0  0
   -4.7883    2.1866    0.3777 H   0  0  0  0  0  0  0  0  0  0  0  0
   -4.4733    0.8928    2.4398 H   0  0  0  0  0  0  0  0  0  0  0  0
   -3.5441   -0.9087    3.6366 H   0  0  0  0  0  0  0  0  0  0  0  0
   -3.5629   -2.4135    2.7044 H   0  0  0  0  0  0  0  0  0  0  0  0
   -2.0272   -1.5456    3.0028 H   0  0  0  0  0  0  0  0  0  0  0  0
   -1.3346   -3.9421   -0.5784 H   0  0  0  0  0  0  0  0  0  0  0  0
   -2.1111   -2.8023   -1.6585 H   0  0  0  0  0  0  0  0  0  0  0  0
    1.2998   -2.9255    0.5680 H   0  0  0  0  0  0  0  0  0  0  0  0
    5.8113    0.9435   -1.3020 H   0  0  0  0  0  0  0  0  0  0  0  0
    5.9096   -0.7861   -0.8963 H   0  0  0  0  0  0  0  0  0  0  0  0
    5.4410    0.3802    0.3606 H   0  0  0  0  0  0  0  0  0  0  0  0
    3.8127    1.9079   -1.8455 H   0  0  0  0  0  0  0  0  0  0  0  0
    2.2817    1.0823   -1.8022 H   0  0  0  0  0  0  0  0  0  0  0  0
    3.7969    3.6527    2.6240 H   0  0  0  0  0  0  0  0  0  0  0  0
    1.3039    2.7838    3.0455 H   0  0  0  0  0  0  0  0  0  0  0  0
   -2.4774   -0.6784   -1.8176 H   0  0  0  0  0  0  0  0  0  0  0  0
  1  2  1  0
  2  3  2  0
  3  4  1  0
  4  5  2  0
  5  6  1  0
  5  7  1  0
  7  8  1  0
  8  9  1  0
  9 10  1  0
 10 11  2  0
 11 12  1  0
 12 13  1  0
 13 14  2  0
 13 15  1  0
 15 16  1  0
 15 17  1  0
 17 18  1  0
 18 19  2  0
 19 20  1  0
 20 21  2  0
 21 22  1  0
 12 23  2  0
 23 24  1  0
  7 25  2  0
 25  2  1  0
 24 10  1  0
 22 18  1  0
  1 26  1  0
  1 27  1  0
  1 28  1  0
  3 29  1  0
  4 30  1  0
  6 31  1  0
  6 32  1  0
  6 33  1  0
  9 34  1  0
  9 35  1  0
 11 36  1  0
 16 37  1  0
 16 38  1  0
 16 39  1  0
 17 40  1  0
 17 41  1  0
 20 42  1  0
 21 43  1  0
 25 44  1  0
M  END
$$$$
