
     RDKit          3D

 52 53  0  0  0  0  0  0  0  0999 V2000
    6.8611    1.9400   -1.4551 C   0  0  0  0  0  0  0  0  0  0  0  0
    5.8666    1.6507   -0.4817 O   0  0  0  0  0  0  0  0  0  0  0  0
    5.0878    0.5460   -0.6969 C   0  0  0  0  0  0  0  0  0  0  0  0
    5.2045   -0.3367   -1.7699 C   0  0  0  0  0  0  0  0  0  0  0  0
    4.3453   -1.4314   -1.8666 C   0  0  0  0  0  0  0  0  0  0  0  0
    3.3706   -1.6467   -0.8914 C   0  0  0  0  0  0  0  0  0  0  0  0
    3.2431   -0.7698    0.1913 C   0  0  0  0  0  0  0  0  0  0  0  0
    2.2378   -1.0602    1.1325 N   0  0  0  0  0  0  0  0  0  0  0  0
    1.8951   -0.3509    2.2681 C   0  0  0  0  0  0  0  0  0  0  0  0
    2.4126    0.6891    2.6653 O   0  0  0  0  0  0  0  0  0  0  0  0
    0.7296   -0.9776    3.0524 C   0  0  0  0  0  0  0  0  0  0  0  0
    0.2294   -2.2430    2.4880 N   0  0  0  0  0  0  0  0  0  0  0  0
    0.7787   -3.4610    3.0688 C   0  0  0  0  0  0  0  0  0  0  0  0
   -0.8686   -2.3559    1.6443 C   0  0  0  0  0  0  0  0  0  0  0  0
   -1.3763   -3.4388    1.3647 O   0  0  0  0  0  0  0  0  0  0  0  0
   -1.3936   -1.1002    1.0441 C   0  0  0  0  0  0  0  0  0  0  0  0
   -2.6384   -1.0753    0.5411 C   0  0  0  0  0  0  0  0  0  0  0  0
   -3.2418    0.1033   -0.1107 C   0  0  0  0  0  0  0  0  0  0  0  0
   -3.0437    1.3880    0.4234 C   0  0  0  0  0  0  0  0  0  0  0  0
   -3.6243    2.5160   -0.1615 C   0  0  0  0  0  0  0  0  0  0  0  0
   -3.3355    3.6966    0.4645 O   0  0  0  0  0  0  0  0  0  0  0  0
   -3.8686    4.8810   -0.1140 C   0  0  0  0  0  0  0  0  0  0  0  0
   -4.4265    2.3601   -1.2879 C   0  0  0  0  0  0  0  0  0  0  0  0
   -4.6503    1.0860   -1.8234 C   0  0  0  0  0  0  0  0  0  0  0  0
   -4.0694   -0.0469   -1.2422 C   0  0  0  0  0  0  0  0  0  0  0  0
   -4.2395   -1.3264   -1.7071 O   0  0  0  0  0  0  0  0  0  0  0  0
   -5.0759   -1.5139   -2.8410 C   0  0  0  0  0  0  0  0  0  0  0  0
    4.1059    0.3240    0.2780 C   0  0  0  0  0  0  0  0  0  0  0  0
    7.3899    2.8427   -1.1355 H   0  0  0  0  0  0  0  0  0  0  0  0
    7.5950    1.1307   -1.5230 H   0  0  0  0  0  0  0  0  0  0  0  0
    6.4089    2.1469   -2.4305 H   0  0  0  0  0  0  0  0  0  0  0  0
    5.9506   -0.2010   -2.5450 H   0  0  0  0  0  0  0  0  0  0  0  0
    4.4346   -2.1183   -2.7045 H   0  0  0  0  0  0  0  0  0  0  0  0
    2.7136   -2.5063   -0.9934 H   0  0  0  0  0  0  0  0  0  0  0  0
    1.6908   -1.8991    0.9679 H   0  0  0  0  0  0  0  0  0  0  0  0
    1.0730   -1.1663    4.0760 H   0  0  0  0  0  0  0  0  0  0  0  0
   -0.0809   -0.2442    3.1042 H   0  0  0  0  0  0  0  0  0  0  0  0
    0.3665   -3.5835    4.0755 H   0  0  0  0  0  0  0  0  0  0  0  0
    1.8677   -3.3747    3.1254 H   0  0  0  0  0  0  0  0  0  0  0  0
    0.5281   -4.3425    2.4724 H   0  0  0  0  0  0  0  0  0  0  0  0
   -0.7438   -0.2391    0.9737 H   0  0  0  0  0  0  0  0  0  0  0  0
   -3.2622   -1.9677    0.5697 H   0  0  0  0  0  0  0  0  0  0  0  0
   -2.4379    1.5264    1.3159 H   0  0  0  0  0  0  0  0  0  0  0  0
   -4.9624    4.8717   -0.0904 H   0  0  0  0  0  0  0  0  0  0  0  0
   -3.5295    5.7290    0.4875 H   0  0  0  0  0  0  0  0  0  0  0  0
   -3.4958    5.0264   -1.1329 H   0  0  0  0  0  0  0  0  0  0  0  0
   -4.9005    3.2071   -1.7735 H   0  0  0  0  0  0  0  0  0  0  0  0
   -5.2876    1.0153   -2.6984 H   0  0  0  0  0  0  0  0  0  0  0  0
   -4.6691   -1.0038   -3.7210 H   0  0  0  0  0  0  0  0  0  0  0  0
   -6.1017   -1.1920   -2.6335 H   0  0  0  0  0  0  0  0  0  0  0  0
   -5.1027   -2.5849   -3.0619 H   0  0  0  0  0  0  0  0  0  0  0  0
    4.0398    1.0332    1.0980 H   0  0  0  0  0  0  0  0  0  0  0  0
  1  2  1  0
  2  3  1  0
  3  4  2  0
  4  5  1  0
  5  6  2  0
  6  7  1  0
  7  8  1  0
  8  9  1  0
  9 10  2  0
  9 11  1  0
 11 12  1  0
 12 13  1  0
 12 14  1  0
 14 15  2  0
 14 16  1  0
 16 17  2  3
 17 18  1  0
 18 19  2  0
 19 20  1  0
 20 21  1  0
 21 22  1  0
 20 23  2  0
 23 24  1  0
 24 25  2  0
 25 26  1  0
 26 27  1  0
  7 28  2  0
 28  3  1  0
 25 18  1  0
  1 29  1  0
  1 30  1  0
  1 31  1  0
  4 32  1  0
  5 33  1  0
  6 34  1  0
  8 35  1  0
 11 36  1  0
 11 37  1  0
 13 38  1  0
 13 39  1  0
 13 40  1  0
 16 41  1  0
 17 42  1  0
 19 43  1  0
 22 44  1  0
 22 45  1  0
 22 46  1  0
 23 47  1  0
 24 48  1  0
 27 49  1  0
 27 50  1  0
 27 51  1  0
 28 52  1  0
M  END
$$$$
