
     RDKit          3D

 56 59  0  0  0  0  0  0  0  0999 V2000
    8.0770   -0.2096    1.0059 C   0  0  0  0  0  0  0  0  0  0  0  0
    7.4397    0.5760    0.0054 O   0  0  0  0  0  0  0  0  0  0  0  0
    6.0745    0.6614    0.0557 C   0  0  0  0  0  0  0  0  0  0  0  0
    5.5036    1.4433   -0.9514 C   0  0  0  0  0  0  0  0  0  0  0  0
    4.1195    1.6043   -1.0230 C   0  0  0  0  0  0  0  0  0  0  0  0
    3.2932    0.9772   -0.0827 C   0  0  0  0  0  0  0  0  0  0  0  0
    1.8332    1.1590   -0.2630 C   0  0  0  0  0  0  0  0  0  0  0  0
    1.3669    2.2922   -0.1715 O   0  0  0  0  0  0  0  0  0  0  0  0
    1.0143   -0.0656   -0.6503 C   0  0  0  0  0  0  0  0  0  0  0  0
    1.2498   -0.4109   -2.1233 C   0  0  0  0  0  0  0  0  0  0  0  0
    0.3391   -1.5549   -2.5552 C   0  0  0  0  0  0  0  0  0  0  0  0
   -1.1229   -1.2696   -2.2134 C   0  0  0  0  0  0  0  0  0  0  0  0
   -1.2852   -0.9928   -0.7770 N   0  0  0  0  0  0  0  0  0  0  0  0
   -2.7136   -0.7900   -0.4599 C   0  0  0  0  0  0  0  0  0  0  0  0
   -3.0061   -0.9022    1.0080 C   0  0  0  0  0  0  0  0  0  0  0  0
   -2.2904   -1.6166    1.9633 C   0  0  0  0  0  0  0  0  0  0  0  0
   -2.8036   -1.3023    3.2330 C   0  0  0  0  0  0  0  0  0  0  0  0
   -3.8470   -0.4333    3.0310 C   0  0  0  0  0  0  0  0  0  0  0  0
   -4.0626   -0.2646    1.6682 N   0  0  0  0  0  0  0  0  0  0  0  0
   -5.2050    0.4467    1.1589 C   0  0  0  0  0  0  0  0  0  0  0  0
   -5.6478    0.2832   -0.1495 C   0  0  0  0  0  0  0  0  0  0  0  0
   -6.7717    0.9926   -0.5794 C   0  0  0  0  0  0  0  0  0  0  0  0
   -7.4366    1.8307    0.3042 C   0  0  0  0  0  0  0  0  0  0  0  0
   -6.9573    1.9176    1.5965 C   0  0  0  0  0  0  0  0  0  0  0  0
   -5.8719    1.2469    2.0386 N   0  0  0  0  0  0  0  0  0  0  0  0
   -0.4792    0.1855   -0.3885 C   0  0  0  0  0  0  0  0  0  0  0  0
    3.8469    0.2278    0.9684 C   0  0  0  0  0  0  0  0  0  0  0  0
    3.0134   -0.4126    2.0431 C   0  0  0  0  0  0  0  0  0  0  0  0
    5.2465    0.0609    1.0099 C   0  0  0  0  0  0  0  0  0  0  0  0
    9.1581   -0.1526    0.8372 H   0  0  0  0  0  0  0  0  0  0  0  0
    7.8776    0.1829    2.0101 H   0  0  0  0  0  0  0  0  0  0  0  0
    7.7808   -1.2614    0.9258 H   0  0  0  0  0  0  0  0  0  0  0  0
    6.1420    1.9250   -1.6885 H   0  0  0  0  0  0  0  0  0  0  0  0
    3.6887    2.2141   -1.8151 H   0  0  0  0  0  0  0  0  0  0  0  0
    1.3266   -0.9130   -0.0319 H   0  0  0  0  0  0  0  0  0  0  0  0
    2.2946   -0.6958   -2.2923 H   0  0  0  0  0  0  0  0  0  0  0  0
    1.0604    0.4695   -2.7502 H   0  0  0  0  0  0  0  0  0  0  0  0
    0.4430   -1.7258   -3.6333 H   0  0  0  0  0  0  0  0  0  0  0  0
    0.6578   -2.4790   -2.0536 H   0  0  0  0  0  0  0  0  0  0  0  0
   -1.7087   -2.1555   -2.4904 H   0  0  0  0  0  0  0  0  0  0  0  0
   -1.4911   -0.4316   -2.8208 H   0  0  0  0  0  0  0  0  0  0  0  0
   -3.2982   -1.5819   -0.9484 H   0  0  0  0  0  0  0  0  0  0  0  0
   -3.0392    0.1759   -0.8641 H   0  0  0  0  0  0  0  0  0  0  0  0
   -1.4325   -2.2446    1.7508 H   0  0  0  0  0  0  0  0  0  0  0  0
   -2.4436   -1.6514    4.1931 H   0  0  0  0  0  0  0  0  0  0  0  0
   -4.5077    0.0412    3.7456 H   0  0  0  0  0  0  0  0  0  0  0  0
   -5.1937   -0.4095   -0.8436 H   0  0  0  0  0  0  0  0  0  0  0  0
   -7.1328    0.8768   -1.5977 H   0  0  0  0  0  0  0  0  0  0  0  0
   -8.3150    2.3895   -0.0015 H   0  0  0  0  0  0  0  0  0  0  0  0
   -7.4481    2.5424    2.3355 H   0  0  0  0  0  0  0  0  0  0  0  0
   -0.6049    0.4010    0.6794 H   0  0  0  0  0  0  0  0  0  0  0  0
   -0.8191    1.0782   -0.9314 H   0  0  0  0  0  0  0  0  0  0  0  0
    2.1177    0.1775    2.2655 H   0  0  0  0  0  0  0  0  0  0  0  0
    3.5804   -0.4860    2.9796 H   0  0  0  0  0  0  0  0  0  0  0  0
    2.7180   -1.4228    1.7450 H   0  0  0  0  0  0  0  0  0  0  0  0
    5.6720   -0.5433    1.8082 H   0  0  0  0  0  0  0  0  0  0  0  0
  1  2  1  0
  2  3  1  0
  3  4  2  0
  4  5  1  0
  5  6  2  0
  6  7  1  0
  7  8  2  0
  7  9  1  0
  9 10  1  0
 10 11  1  0
 11 12  1  0
 12 13  1  0
 13 14  1  0
 14 15  1  0
 15 16  2  0
 16 17  1  0
 17 18  2  0
 18 19  1  0
 19 20  1  0
 20 21  2  0
 21 22  1  0
 22 23  2  0
 23 24  1  0
 24 25  2  0
 13 26  1  0
  6 27  1  0
 27 28  1  0
 27 29  2  0
 29  3  1  0
 26  9  1  0
 19 15  1  0
 25 20  1  0
  1 30  1  0
  1 31  1  0
  1 32  1  0
  4 33  1  0
  5 34  1  0
  9 35  1  0
 10 36  1  0
 10 37  1  0
 11 38  1  0
 11 39  1  0
 12 40  1  0
 12 41  1  0
 14 42  1  0
 14 43  1  0
 16 44  1  0
 17 45  1  0
 18 46  1  0
 21 47  1  0
 22 48  1  0
 23 49  1  0
 24 50  1  0
 26 51  1  0
 26 52  1  0
 28 53  1  0
 28 54  1  0
 28 55  1  0
 29 56  1  0
M  END
$$$$
