
     RDKit          3D

 34 36  0  0  0  0  0  0  0  0999 V2000
   -3.3608    1.7406    2.6103 Br  0  0  0  0  0  0  0  0  0  0  0  0
   -2.0359    0.5355    2.0988 C   0  0  0  0  0  0  0  0  0  0  0  0
   -0.7178    0.6965    2.7787 C   0  0  0  0  0  0  0  0  0  0  0  0
    0.4817    0.7689    2.2877 N   0  0  0  0  0  0  0  0  0  0  0  0
    0.6074    0.7972    0.9308 N   0  0  0  0  0  0  0  0  0  0  0  0
    1.7943    0.7546    0.2937 C   0  0  0  0  0  0  0  0  0  0  0  0
    2.0344    0.8915   -0.9888 N   0  0  0  0  0  0  0  0  0  0  0  0
    3.3983    0.7617   -1.1140 C   0  0  0  0  0  0  0  0  0  0  0  0
    4.2033    0.8215   -2.2610 C   0  0  0  0  0  0  0  0  0  0  0  0
    5.5875    0.6564   -2.1202 C   0  0  0  0  0  0  0  0  0  0  0  0
    6.1587    0.4366   -0.8637 C   0  0  0  0  0  0  0  0  0  0  0  0
    5.3726    0.3736    0.2931 C   0  0  0  0  0  0  0  0  0  0  0  0
    3.9972    0.5409    0.1228 C   0  0  0  0  0  0  0  0  0  0  0  0
    2.9467    0.5420    0.9998 N   0  0  0  0  0  0  0  0  0  0  0  0
   -2.1752   -0.4867    1.2387 C   0  0  0  0  0  0  0  0  0  0  0  0
   -3.3918   -0.8161    0.4915 C   0  0  0  0  0  0  0  0  0  0  0  0
   -4.5273   -1.3185    1.1375 C   0  0  0  0  0  0  0  0  0  0  0  0
   -5.6711   -1.6371    0.4027 C   0  0  0  0  0  0  0  0  0  0  0  0
   -5.6837   -1.4624   -0.9803 C   0  0  0  0  0  0  0  0  0  0  0  0
   -4.5524   -0.9722   -1.6309 C   0  0  0  0  0  0  0  0  0  0  0  0
   -3.4077   -0.6526   -0.8981 C   0  0  0  0  0  0  0  0  0  0  0  0
   -0.7945    0.7657    3.8784 H   0  0  0  0  0  0  0  0  0  0  0  0
   -0.1755    1.0938    0.3480 H   0  0  0  0  0  0  0  0  0  0  0  0
    3.7539    0.9930   -3.2325 H   0  0  0  0  0  0  0  0  0  0  0  0
    6.2230    0.7009   -3.0015 H   0  0  0  0  0  0  0  0  0  0  0  0
    7.2367    0.3121   -0.7821 H   0  0  0  0  0  0  0  0  0  0  0  0
    5.8152    0.2037    1.2683 H   0  0  0  0  0  0  0  0  0  0  0  0
    2.9687    0.4213    2.0001 H   0  0  0  0  0  0  0  0  0  0  0  0
   -1.3348   -1.1473    1.0290 H   0  0  0  0  0  0  0  0  0  0  0  0
   -4.5320   -1.4676    2.2145 H   0  0  0  0  0  0  0  0  0  0  0  0
   -6.5519   -2.0230    0.9093 H   0  0  0  0  0  0  0  0  0  0  0  0
   -6.5744   -1.7107   -1.5518 H   0  0  0  0  0  0  0  0  0  0  0  0
   -4.5605   -0.8395   -2.7098 H   0  0  0  0  0  0  0  0  0  0  0  0
   -2.5326   -0.2742   -1.4222 H   0  0  0  0  0  0  0  0  0  0  0  0
  1  2  1  0
  2  3  1  0
  3  4  2  3
  4  5  1  0
  5  6  1  0
  6  7  2  0
  7  8  1  0
  8  9  2  0
  9 10  1  0
 10 11  2  0
 11 12  1  0
 12 13  2  0
 13 14  1  0
  2 15  2  3
 15 16  1  0
 16 17  2  0
 17 18  1  0
 18 19  2  0
 19 20  1  0
 20 21  2  0
 14  6  1  0
 21 16  1  0
 13  8  1  0
  3 22  1  0
  5 23  1  0
  9 24  1  0
 10 25  1  0
 11 26  1  0
 12 27  1  0
 14 28  1  0
 15 29  1  0
 17 30  1  0
 18 31  1  0
 19 32  1  0
 20 33  1  0
 21 34  1  0
M  END
$$$$
