
     RDKit          3D

 72 76  0  0  0  0  0  0  0  0999 V2000
    6.8020   -2.4931    0.7993 C   0  0  0  0  0  0  0  0  0  0  0  0
    7.1234   -1.0797    1.2982 C   0  0  0  0  0  0  0  0  0  0  0  0
    8.5784   -0.7499    0.9310 C   0  0  0  0  0  0  0  0  0  0  0  0
    6.9640   -0.9580    2.8178 C   0  0  0  0  0  0  0  0  0  0  0  0
    6.3327   -0.0820    0.6021 O   0  0  0  0  0  0  0  0  0  0  0  0
    4.9842   -0.0789    0.7030 C   0  0  0  0  0  0  0  0  0  0  0  0
    4.3056   -0.8550    1.3565 O   0  0  0  0  0  0  0  0  0  0  0  0
    4.4950    0.9503   -0.0430 N   0  0  0  0  0  0  0  0  0  0  0  0
    3.0886    1.2736   -0.1052 C   0  0  0  0  0  0  0  0  0  0  0  0
    2.6386    2.0573    1.1262 C   0  0  0  0  0  0  0  0  0  0  0  0
    1.1801    2.5168    1.0588 C   0  0  0  0  0  0  0  0  0  0  0  0
    0.1819    1.3541    0.9990 C   0  0  0  0  0  0  0  0  0  0  0  0
   -1.2682    1.8056    1.1978 C   0  0  1  0  0  0  0  0  0  0  0  0
   -1.6794    2.7634    0.1158 N   0  0  0  0  0  0  0  0  0  0  0  0
   -3.0479    2.3908   -0.3698 C   0  0  0  0  0  0  0  0  0  0  0  0
   -4.1207    3.4328    0.0587 C   0  0  0  0  0  0  0  0  0  0  0  0
   -4.3265    3.8871    1.1746 O   0  0  0  0  0  0  0  0  0  0  0  0
   -4.7978    3.8161   -1.1009 N   0  0  0  0  0  0  0  0  0  0  0  0
   -4.2583    3.2018   -2.2241 C   0  0  0  0  0  0  0  0  0  0  0  0
   -4.6560    3.3725   -3.5334 C   0  0  0  0  0  0  0  0  0  0  0  0
   -3.9627    2.6558   -4.5120 C   0  0  0  0  0  0  0  0  0  0  0  0
   -2.9000    1.8014   -4.1634 C   0  0  0  0  0  0  0  0  0  0  0  0
   -2.5122    1.6467   -2.8294 C   0  0  0  0  0  0  0  0  0  0  0  0
   -3.2073    2.3528   -1.8603 C   0  0  0  0  0  0  0  0  0  0  0  0
   -3.2740    1.0449    0.1746 C   0  0  0  0  0  0  0  0  0  0  0  0
   -2.2547    0.7101    1.0730 C   0  0  0  0  0  0  0  0  0  0  0  0
   -2.5143   -0.5357    1.5807 C   0  0  0  0  0  0  0  0  0  0  0  0
   -1.8816   -1.2859    2.4733 O   0  0  0  0  0  0  0  0  0  0  0  0
   -3.6736   -0.9773    0.9607 N   0  0  0  0  0  0  0  0  0  0  0  0
   -4.3137   -2.2638    1.2037 C   0  0  0  0  0  0  0  0  0  0  0  0
   -3.8790   -3.3057    0.2012 C   0  0  0  0  0  0  0  0  0  0  0  0
   -4.6479   -3.5576   -0.9444 C   0  0  0  0  0  0  0  0  0  0  0  0
   -4.2438   -4.5176   -1.8734 C   0  0  0  0  0  0  0  0  0  0  0  0
   -3.0650   -5.2324   -1.6702 C   0  0  0  0  0  0  0  0  0  0  0  0
   -2.2869   -4.9849   -0.5411 C   0  0  0  0  0  0  0  0  0  0  0  0
   -2.6901   -4.0256    0.3890 C   0  0  0  0  0  0  0  0  0  0  0  0
   -4.1600    0.0007    0.1075 C   0  0  0  0  0  0  0  0  0  0  0  0
   -5.2753   -0.1807   -0.5889 O   0  0  0  0  0  0  0  0  0  0  0  0
    5.7967   -2.8117    1.0917 H   0  0  0  0  0  0  0  0  0  0  0  0
    6.8399   -2.5375   -0.2950 H   0  0  0  0  0  0  0  0  0  0  0  0
    7.5080   -3.2274    1.2021 H   0  0  0  0  0  0  0  0  0  0  0  0
    8.7239   -0.7857   -0.1549 H   0  0  0  0  0  0  0  0  0  0  0  0
    9.2843   -1.4449    1.3978 H   0  0  0  0  0  0  0  0  0  0  0  0
    8.8375    0.2685    1.2438 H   0  0  0  0  0  0  0  0  0  0  0  0
    5.9629   -1.2500    3.1487 H   0  0  0  0  0  0  0  0  0  0  0  0
    7.1127    0.0780    3.1430 H   0  0  0  0  0  0  0  0  0  0  0  0
    7.6808   -1.5957    3.3462 H   0  0  0  0  0  0  0  0  0  0  0  0
    5.1823    1.5499   -0.4776 H   0  0  0  0  0  0  0  0  0  0  0  0
    2.5282    0.3376   -0.1965 H   0  0  0  0  0  0  0  0  0  0  0  0
    2.9315    1.8612   -1.0156 H   0  0  0  0  0  0  0  0  0  0  0  0
    2.7893    1.4540    2.0299 H   0  0  0  0  0  0  0  0  0  0  0  0
    3.2768    2.9427    1.2402 H   0  0  0  0  0  0  0  0  0  0  0  0
    1.0489    3.1704    0.1881 H   0  0  0  0  0  0  0  0  0  0  0  0
    0.9732    3.1258    1.9476 H   0  0  0  0  0  0  0  0  0  0  0  0
    0.2803    0.8311    0.0390 H   0  0  0  0  0  0  0  0  0  0  0  0
    0.4377    0.6223    1.7756 H   0  0  0  0  0  0  0  0  0  0  0  0
   -1.3891    2.2930    2.1733 H   0  0  0  0  0  0  0  0  0  0  0  0
   -1.7524    3.6884    0.5394 H   0  0  0  0  0  0  0  0  0  0  0  0
   -5.5354    4.5049   -1.0998 H   0  0  0  0  0  0  0  0  0  0  0  0
   -5.4708    4.0347   -3.8036 H   0  0  0  0  0  0  0  0  0  0  0  0
   -4.2429    2.7594   -5.5582 H   0  0  0  0  0  0  0  0  0  0  0  0
   -2.3730    1.2533   -4.9421 H   0  0  0  0  0  0  0  0  0  0  0  0
   -1.6935    0.9860   -2.5582 H   0  0  0  0  0  0  0  0  0  0  0  0
   -1.0946   -0.7940    2.7647 H   0  0  0  0  0  0  0  0  0  0  0  0
   -5.3994   -2.1138    1.1734 H   0  0  0  0  0  0  0  0  0  0  0  0
   -4.0759   -2.5853    2.2243 H   0  0  0  0  0  0  0  0  0  0  0  0
   -5.5640   -2.9975   -1.1213 H   0  0  0  0  0  0  0  0  0  0  0  0
   -4.8472   -4.7035   -2.7575 H   0  0  0  0  0  0  0  0  0  0  0  0
   -2.7493   -5.9781   -2.3945 H   0  0  0  0  0  0  0  0  0  0  0  0
   -1.3626   -5.5346   -0.3853 H   0  0  0  0  0  0  0  0  0  0  0  0
   -2.0678   -3.8350    1.2612 H   0  0  0  0  0  0  0  0  0  0  0  0
   -5.3547    0.5628   -1.2129 H   0  0  0  0  0  0  0  0  0  0  0  0
  1  2  1  0
  2  3  1  0
  2  4  1  0
  2  5  1  0
  5  6  1  0
  6  7  2  0
  6  8  1  0
  8  9  1  0
  9 10  1  0
 10 11  1  0
 11 12  1  0
 12 13  1  0
 13 14  1  0
 14 15  1  0
 15 16  1  0
 16 17  2  0
 16 18  1  0
 18 19  1  0
 19 20  2  0
 20 21  1  0
 21 22  2  0
 22 23  1  0
 23 24  2  0
 15 25  1  0
 25 26  1  0
 26 27  2  0
 27 28  1  0
 27 29  1  0
 29 30  1  0
 30 31  1  0
 31 32  2  0
 32 33  1  0
 33 34  2  0
 34 35  1  0
 35 36  2  0
 29 37  1  0
 37 38  1  0
 26 13  1  0
 36 31  1  0
 24 15  1  0
 37 25  2  0
 24 19  1  0
  1 39  1  0
  1 40  1  0
  1 41  1  0
  3 42  1  0
  3 43  1  0
  3 44  1  0
  4 45  1  0
  4 46  1  0
  4 47  1  0
  8 48  1  0
  9 49  1  0
  9 50  1  0
 10 51  1  0
 10 52  1  0
 11 53  1  0
 11 54  1  0
 12 55  1  0
 12 56  1  0
 13 57  1  1
 14 58  1  0
 18 59  1  0
 20 60  1  0
 21 61  1  0
 22 62  1  0
 23 63  1  0
 28 64  1  0
 30 65  1  0
 30 66  1  0
 32 67  1  0
 33 68  1  0
 34 69  1  0
 35 70  1  0
 36 71  1  0
 38 72  1  0
M  END
$$$$
