
     RDKit          3D

 58 62  0  0  0  0  0  0  0  0999 V2000
   -5.7346    0.0281   -1.4173 C   0  0  0  0  0  0  0  0  0  0  0  0
   -4.4144   -0.4383   -0.8064 C   0  0  0  0  0  0  0  0  0  0  0  0
   -3.5132    0.7515   -0.3989 C   0  0  0  0  0  0  0  0  0  0  0  0
   -2.4504    0.7405   -1.4490 C   0  0  0  0  0  0  0  0  0  0  0  0
   -1.4422    1.6710   -1.6429 C   0  0  0  0  0  0  0  0  0  0  0  0
   -0.5266    1.4501   -2.6723 C   0  0  0  0  0  0  0  0  0  0  0  0
   -0.6331    0.3159   -3.4904 C   0  0  0  0  0  0  0  0  0  0  0  0
   -1.6532   -0.6162   -3.2843 C   0  0  0  0  0  0  0  0  0  0  0  0
   -2.5358   -0.4006   -2.2424 C   0  0  0  0  0  0  0  0  0  0  0  0
   -3.6537   -1.2028   -1.8545 N   0  0  0  0  0  0  0  0  0  0  0  0
   -3.4097   -2.8664   -1.5789 S   0  0  0  0  0  6  0  0  0  0  0  0
   -2.7533   -3.4643   -2.7211 O   0  0  0  0  0  0  0  0  0  0  0  0
   -4.6556   -3.4121   -1.0776 O   0  0  0  0  0  0  0  0  0  0  0  0
   -2.2430   -2.8847   -0.2277 C   0  0  0  0  0  0  0  0  0  0  0  0
   -2.6975   -3.0348    1.0887 C   0  0  0  0  0  0  0  0  0  0  0  0
   -1.7836   -3.0149    2.1452 C   0  0  0  0  0  0  0  0  0  0  0  0
   -0.4231   -2.8419    1.8865 C   0  0  0  0  0  0  0  0  0  0  0  0
    0.0185   -2.7066    0.5649 C   0  0  0  0  0  0  0  0  0  0  0  0
    1.4486   -2.4853    0.2742 C   0  0  0  0  0  0  0  0  0  0  0  0
    2.0628   -3.3746   -0.3066 O   0  0  0  0  0  0  0  0  0  0  0  0
    2.0104   -1.2745    0.6607 N   0  0  0  0  0  0  0  0  0  0  0  0
    3.4316   -1.0474    0.3878 C   0  0  0  0  0  0  0  0  0  0  0  0
    4.0658    0.0301    1.2866 C   0  0  0  0  0  0  0  0  0  0  0  0
    3.2827    1.2688    1.2901 N   0  0  0  0  0  0  0  0  0  0  0  0
    3.9446    2.4789    1.2655 C   0  0  0  0  0  0  0  0  0  0  0  0
    5.2566    2.5109    1.5525 N   0  0  0  0  0  0  0  0  0  0  0  0
    5.8764    3.7067    1.5375 C   0  0  0  0  0  0  0  0  0  0  0  0
    5.2415    4.8850    1.2515 C   0  0  0  0  0  0  0  0  0  0  0  0
    3.9056    4.7654    0.9759 C   0  0  0  0  0  0  0  0  0  0  0  0
    3.2462    3.5913    0.9759 N   0  0  0  0  0  0  0  0  0  0  0  0
    1.9054    1.2301    0.8076 C   0  0  0  0  0  0  0  0  0  0  0  0
    1.2458   -0.1170    1.1472 C   0  0  0  0  0  0  0  0  0  0  0  0
   -0.8789   -2.7629   -0.5010 C   0  0  0  0  0  0  0  0  0  0  0  0
   -6.3319   -0.8315   -1.7409 H   0  0  0  0  0  0  0  0  0  0  0  0
   -5.5726    0.6668   -2.2928 H   0  0  0  0  0  0  0  0  0  0  0  0
   -6.3209    0.5945   -0.6875 H   0  0  0  0  0  0  0  0  0  0  0  0
   -4.6381   -1.0452    0.0770 H   0  0  0  0  0  0  0  0  0  0  0  0
   -4.0558    1.7014   -0.3716 H   0  0  0  0  0  0  0  0  0  0  0  0
   -3.0582    0.5639    0.5791 H   0  0  0  0  0  0  0  0  0  0  0  0
   -1.3559    2.5508   -1.0125 H   0  0  0  0  0  0  0  0  0  0  0  0
    0.2752    2.1634   -2.8497 H   0  0  0  0  0  0  0  0  0  0  0  0
    0.0815    0.1619   -4.2960 H   0  0  0  0  0  0  0  0  0  0  0  0
   -1.7397   -1.4804   -3.9345 H   0  0  0  0  0  0  0  0  0  0  0  0
   -3.7569   -3.1725    1.2989 H   0  0  0  0  0  0  0  0  0  0  0  0
   -2.1317   -3.1363    3.1693 H   0  0  0  0  0  0  0  0  0  0  0  0
    0.2915   -2.8229    2.7063 H   0  0  0  0  0  0  0  0  0  0  0  0
    3.5026   -0.7431   -0.6642 H   0  0  0  0  0  0  0  0  0  0  0  0
    3.9824   -1.9891    0.4925 H   0  0  0  0  0  0  0  0  0  0  0  0
    5.0956    0.1794    0.9408 H   0  0  0  0  0  0  0  0  0  0  0  0
    4.1145   -0.3429    2.3169 H   0  0  0  0  0  0  0  0  0  0  0  0
    6.9359    3.6805    1.7726 H   0  0  0  0  0  0  0  0  0  0  0  0
    5.7541    5.8358    1.2449 H   0  0  0  0  0  0  0  0  0  0  0  0
    3.3017    5.6342    0.7395 H   0  0  0  0  0  0  0  0  0  0  0  0
    1.8914    1.3801   -0.2792 H   0  0  0  0  0  0  0  0  0  0  0  0
    1.3005    2.0206    1.2690 H   0  0  0  0  0  0  0  0  0  0  0  0
    1.1749   -0.2268    2.2357 H   0  0  0  0  0  0  0  0  0  0  0  0
    0.2314   -0.1336    0.7394 H   0  0  0  0  0  0  0  0  0  0  0  0
   -0.5118   -2.6879   -1.5223 H   0  0  0  0  0  0  0  0  0  0  0  0
  1  2  1  0
  2  3  1  0
  3  4  1  0
  4  5  2  0
  5  6  1  0
  6  7  2  0
  7  8  1  0
  8  9  2  0
  9 10  1  0
 10 11  1  0
 11 12  2  0
 11 13  2  0
 11 14  1  0
 14 15  2  0
 15 16  1  0
 16 17  2  0
 17 18  1  0
 18 19  1  0
 19 20  2  0
 19 21  1  0
 21 22  1  0
 22 23  1  0
 23 24  1  0
 24 25  1  0
 25 26  2  0
 26 27  1  0
 27 28  2  0
 28 29  1  0
 29 30  2  0
 24 31  1  0
 31 32  1  0
 18 33  2  0
 10  2  1  0
 33 14  1  0
  9  4  1  0
 32 21  1  0
 30 25  1  0
  1 34  1  0
  1 35  1  0
  1 36  1  0
  2 37  1  0
  3 38  1  0
  3 39  1  0
  5 40  1  0
  6 41  1  0
  7 42  1  0
  8 43  1  0
 15 44  1  0
 16 45  1  0
 17 46  1  0
 22 47  1  0
 22 48  1  0
 23 49  1  0
 23 50  1  0
 27 51  1  0
 28 52  1  0
 29 53  1  0
 31 54  1  0
 31 55  1  0
 32 56  1  0
 32 57  1  0
 33 58  1  0
M  END
$$$$
