
     RDKit          3D

 48 48  0  0  0  0  0  0  0  0999 V2000
   -7.6972   -0.3606    0.9291 C   0  0  0  0  0  0  0  0  0  0  0  0
   -6.2404   -0.1703    0.5346 C   0  0  0  0  0  0  0  0  0  0  0  0
   -5.3422   -1.2135    1.2003 C   0  0  0  0  0  0  0  0  0  0  0  0
   -3.8814   -1.1371    0.7472 C   0  0  0  0  0  0  0  0  0  0  0  0
   -3.1781    0.1526    1.1761 C   0  0  0  0  0  0  0  0  0  0  0  0
   -1.6949    0.1273    0.7961 C   0  0  0  0  0  0  0  0  0  0  0  0
   -0.9922    1.4188    1.2207 C   0  0  0  0  0  0  0  0  0  0  0  0
    0.5168    1.4015    0.9640 C   0  0  0  0  0  0  0  0  0  0  0  0
    0.8799    1.3598   -0.5197 C   0  0  0  0  0  0  0  0  0  0  0  0
    2.3794    1.4514   -0.7470 C   0  0  0  0  0  0  0  0  0  0  0  0
    3.1939    1.5707    0.1632 O   0  0  0  0  0  0  0  0  0  0  0  0
    2.6951    1.3711   -2.1091 N   0  0  0  0  0  0  0  0  0  0  0  0
    3.9681    1.6518   -2.5369 N   0  0  0  0  0  0  0  0  0  0  0  0
    4.9420    0.8716   -2.1593 C   0  0  0  0  0  0  0  0  0  0  0  0
    6.3486    1.3174   -2.4907 C   0  0  0  0  0  0  0  0  0  0  0  0
    4.8098   -0.4392   -1.4840 C   0  0  0  0  0  0  0  0  0  0  0  0
    4.0359   -1.4537   -2.0468 C   0  0  0  0  0  0  0  0  0  0  0  0
    3.9719   -2.6889   -1.4077 C   0  0  0  0  0  0  0  0  0  0  0  0
    4.6946   -2.8624   -0.2361 C   0  0  0  0  0  0  0  0  0  0  0  0
    5.4579   -1.9001    0.3282 N   0  0  0  0  0  0  0  0  0  0  0  0
    5.4908   -0.7011   -0.3039 C   0  0  0  0  0  0  0  0  0  0  0  0
   -8.3225    0.3968    0.4460 H   0  0  0  0  0  0  0  0  0  0  0  0
   -8.0614   -1.3466    0.6233 H   0  0  0  0  0  0  0  0  0  0  0  0
   -7.8255   -0.2669    2.0122 H   0  0  0  0  0  0  0  0  0  0  0  0
   -5.9297    0.8397    0.8220 H   0  0  0  0  0  0  0  0  0  0  0  0
   -6.1512   -0.2424   -0.5555 H   0  0  0  0  0  0  0  0  0  0  0  0
   -5.3953   -1.1072    2.2907 H   0  0  0  0  0  0  0  0  0  0  0  0
   -5.7210   -2.2154    0.9627 H   0  0  0  0  0  0  0  0  0  0  0  0
   -3.8286   -1.2434   -0.3432 H   0  0  0  0  0  0  0  0  0  0  0  0
   -3.3466   -1.9948    1.1739 H   0  0  0  0  0  0  0  0  0  0  0  0
   -3.6539    1.0171    0.6997 H   0  0  0  0  0  0  0  0  0  0  0  0
   -3.2774    0.2819    2.2605 H   0  0  0  0  0  0  0  0  0  0  0  0
   -1.2075   -0.7304    1.2752 H   0  0  0  0  0  0  0  0  0  0  0  0
   -1.6062   -0.0107   -0.2873 H   0  0  0  0  0  0  0  0  0  0  0  0
   -1.1542    1.5777    2.2942 H   0  0  0  0  0  0  0  0  0  0  0  0
   -1.4437    2.2742    0.7036 H   0  0  0  0  0  0  0  0  0  0  0  0
    0.9709    0.5475    1.4820 H   0  0  0  0  0  0  0  0  0  0  0  0
    0.9514    2.3023    1.4160 H   0  0  0  0  0  0  0  0  0  0  0  0
    0.4024    2.1968   -1.0422 H   0  0  0  0  0  0  0  0  0  0  0  0
    0.5314    0.4247   -0.9714 H   0  0  0  0  0  0  0  0  0  0  0  0
    1.9858    1.7543   -2.7280 H   0  0  0  0  0  0  0  0  0  0  0  0
    7.0742    0.5112   -2.3543 H   0  0  0  0  0  0  0  0  0  0  0  0
    6.6188    2.1572   -1.8441 H   0  0  0  0  0  0  0  0  0  0  0  0
    6.3894    1.6450   -3.5340 H   0  0  0  0  0  0  0  0  0  0  0  0
    3.4967   -1.2872   -2.9745 H   0  0  0  0  0  0  0  0  0  0  0  0
    3.3791   -3.5001   -1.8152 H   0  0  0  0  0  0  0  0  0  0  0  0
    4.6786   -3.8096    0.2962 H   0  0  0  0  0  0  0  0  0  0  0  0
    6.0880    0.0611    0.1882 H   0  0  0  0  0  0  0  0  0  0  0  0
  1  2  1  0
  2  3  1  0
  3  4  1  0
  4  5  1  0
  5  6  1  0
  6  7  1  0
  7  8  1  0
  8  9  1  0
  9 10  1  0
 10 11  2  0
 10 12  1  0
 12 13  1  0
 13 14  2  3
 14 15  1  0
 14 16  1  0
 16 17  2  0
 17 18  1  0
 18 19  2  0
 19 20  1  0
 20 21  2  0
 21 16  1  0
  1 22  1  0
  1 23  1  0
  1 24  1  0
  2 25  1  0
  2 26  1  0
  3 27  1  0
  3 28  1  0
  4 29  1  0
  4 30  1  0
  5 31  1  0
  5 32  1  0
  6 33  1  0
  6 34  1  0
  7 35  1  0
  7 36  1  0
  8 37  1  0
  8 38  1  0
  9 39  1  0
  9 40  1  0
 12 41  1  0
 15 42  1  0
 15 43  1  0
 15 44  1  0
 17 45  1  0
 18 46  1  0
 19 47  1  0
 21 48  1  0
M  END
$$$$
