
     RDKit          3D

 51 54  0  0  0  0  0  0  0  0999 V2000
   -5.8655   -1.0070    1.6311 C   0  0  0  0  0  0  0  0  0  0  0  0
   -4.5969   -0.7572    1.0415 O   0  0  0  0  0  0  0  0  0  0  0  0
   -4.5577    0.0442   -0.0707 C   0  0  0  0  0  0  0  0  0  0  0  0
   -5.6892    0.6211   -0.6620 C   0  0  0  0  0  0  0  0  0  0  0  0
   -5.5690    1.4244   -1.7978 C   0  0  0  0  0  0  0  0  0  0  0  0
   -4.3181    1.6586   -2.3545 C   0  0  0  0  0  0  0  0  0  0  0  0
   -3.1850    1.0902   -1.7752 C   0  0  0  0  0  0  0  0  0  0  0  0
   -3.2826    0.2788   -0.6280 C   0  0  0  0  0  0  0  0  0  0  0  0
   -2.0232   -0.3293   -0.0206 C   0  0  0  0  0  0  0  0  0  0  0  0
   -1.0153    0.7379    0.4293 C   0  0  0  0  0  0  0  0  0  0  0  0
    0.2468    0.0906    1.0041 C   0  0  0  0  0  0  0  0  0  0  0  0
    0.8657   -0.8265    0.0331 N   0  0  0  0  0  0  0  0  0  0  0  0
    2.1063   -1.4221    0.5610 C   0  0  0  0  0  0  0  0  0  0  0  0
    3.1954   -0.3934    0.6737 C   0  0  0  0  0  0  0  0  0  0  0  0
    3.7944    0.0638    1.8409 C   0  0  0  0  0  0  0  0  0  0  0  0
    3.5412   -0.2874    3.2614 C   0  0  0  0  0  0  0  0  0  0  0  0
    4.7527    0.9810    1.4875 N   0  0  0  0  0  0  0  0  0  0  0  0
    4.8037    1.1309    0.1230 C   0  0  0  0  0  0  0  0  0  0  0  0
    5.6251    1.9458   -0.6658 C   0  0  0  0  0  0  0  0  0  0  0  0
    5.4489    1.8958   -2.0518 C   0  0  0  0  0  0  0  0  0  0  0  0
    4.4879    1.0652   -2.6225 C   0  0  0  0  0  0  0  0  0  0  0  0
    3.6767    0.2575   -1.8176 C   0  0  0  0  0  0  0  0  0  0  0  0
    3.8361    0.2859   -0.4164 C   0  0  0  0  0  0  0  0  0  0  0  0
   -0.0719   -1.8919   -0.3511 C   0  0  0  0  0  0  0  0  0  0  0  0
   -1.3431   -1.3178   -0.9776 C   0  0  0  0  0  0  0  0  0  0  0  0
   -6.5258   -1.5384    0.9379 H   0  0  0  0  0  0  0  0  0  0  0  0
   -5.7078   -1.6536    2.4998 H   0  0  0  0  0  0  0  0  0  0  0  0
   -6.3257   -0.0796    1.9874 H   0  0  0  0  0  0  0  0  0  0  0  0
   -6.6855    0.4646   -0.2630 H   0  0  0  0  0  0  0  0  0  0  0  0
   -6.4547    1.8660   -2.2469 H   0  0  0  0  0  0  0  0  0  0  0  0
   -4.2209    2.2824   -3.2391 H   0  0  0  0  0  0  0  0  0  0  0  0
   -2.2156    1.2855   -2.2293 H   0  0  0  0  0  0  0  0  0  0  0  0
   -2.2939   -0.8975    0.8783 H   0  0  0  0  0  0  0  0  0  0  0  0
   -0.7297    1.3884   -0.4071 H   0  0  0  0  0  0  0  0  0  0  0  0
   -1.4702    1.3867    1.1882 H   0  0  0  0  0  0  0  0  0  0  0  0
   -0.0001   -0.4365    1.9352 H   0  0  0  0  0  0  0  0  0  0  0  0
    0.9351    0.9023    1.2648 H   0  0  0  0  0  0  0  0  0  0  0  0
    1.9279   -1.9147    1.5251 H   0  0  0  0  0  0  0  0  0  0  0  0
    2.4702   -2.1986   -0.1253 H   0  0  0  0  0  0  0  0  0  0  0  0
    4.1504    0.3157    3.9425 H   0  0  0  0  0  0  0  0  0  0  0  0
    3.7767   -1.3415    3.4394 H   0  0  0  0  0  0  0  0  0  0  0  0
    2.4890   -0.1210    3.5138 H   0  0  0  0  0  0  0  0  0  0  0  0
    5.3462    1.4807    2.1341 H   0  0  0  0  0  0  0  0  0  0  0  0
    6.3719    2.5965   -0.2236 H   0  0  0  0  0  0  0  0  0  0  0  0
    6.0693    2.5177   -2.6926 H   0  0  0  0  0  0  0  0  0  0  0  0
    4.3609    1.0441   -3.7016 H   0  0  0  0  0  0  0  0  0  0  0  0
    2.9208   -0.3801   -2.2665 H   0  0  0  0  0  0  0  0  0  0  0  0
    0.3976   -2.5507   -1.0920 H   0  0  0  0  0  0  0  0  0  0  0  0
   -0.3338   -2.5133    0.5156 H   0  0  0  0  0  0  0  0  0  0  0  0
   -1.0850   -0.8310   -1.9269 H   0  0  0  0  0  0  0  0  0  0  0  0
   -2.0305   -2.1369   -1.2233 H   0  0  0  0  0  0  0  0  0  0  0  0
  1  2  1  0
  2  3  1  0
  3  4  2  0
  4  5  1  0
  5  6  2  0
  6  7  1  0
  7  8  2  0
  8  9  1  0
  9 10  1  0
 10 11  1  0
 11 12  1  0
 12 13  1  0
 13 14  1  0
 14 15  2  0
 15 16  1  0
 15 17  1  0
 17 18  1  0
 18 19  2  0
 19 20  1  0
 20 21  2  0
 21 22  1  0
 22 23  2  0
 12 24  1  0
 24 25  1  0
  8  3  1  0
 25  9  1  0
 23 14  1  0
 23 18  1  0
  1 26  1  0
  1 27  1  0
  1 28  1  0
  4 29  1  0
  5 30  1  0
  6 31  1  0
  7 32  1  0
  9 33  1  0
 10 34  1  0
 10 35  1  0
 11 36  1  0
 11 37  1  0
 13 38  1  0
 13 39  1  0
 16 40  1  0
 16 41  1  0
 16 42  1  0
 17 43  1  0
 19 44  1  0
 20 45  1  0
 21 46  1  0
 22 47  1  0
 24 48  1  0
 24 49  1  0
 25 50  1  0
 25 51  1  0
M  END
$$$$
