
     RDKit          3D

 49 51  0  0  0  0  0  0  0  0999 V2000
   -4.9370    2.5299   -1.5646 C   0  0  0  0  0  0  0  0  0  0  0  0
   -4.1188    1.5760   -0.7436 C   0  0  0  0  0  0  0  0  0  0  0  0
   -4.6485    1.0063    0.4200 C   0  0  0  0  0  0  0  0  0  0  0  0
   -3.8784    0.1409    1.2034 C   0  0  0  0  0  0  0  0  0  0  0  0
   -4.4346   -0.4364    2.4710 C   0  0  0  0  0  0  0  0  0  0  0  0
   -2.5560   -0.1276    0.8239 C   0  0  0  0  0  0  0  0  0  0  0  0
   -2.0041    0.4440   -0.3311 C   0  0  0  0  0  0  0  0  0  0  0  0
   -0.6655    0.1240   -0.6265 N   0  0  0  0  0  0  0  0  0  0  0  0
    0.0945    0.5319   -1.7159 C   0  0  0  0  0  0  0  0  0  0  0  0
   -0.2976    1.2118   -2.6618 O   0  0  0  0  0  0  0  0  0  0  0  0
    1.5415   -0.0258   -1.6705 C   0  0  0  0  0  0  0  0  0  0  0  0
    2.0199   -0.0693   -0.3120 O   0  0  0  0  0  0  0  0  0  0  0  0
    2.4099    1.1286    0.1889 C   0  0  0  0  0  0  0  0  0  0  0  0
    2.3926    2.1914   -0.4080 O   0  0  0  0  0  0  0  0  0  0  0  0
    2.8424    0.9889    1.6058 C   0  0  0  0  0  0  0  0  0  0  0  0
    3.1673    2.1564    2.3142 C   0  0  0  0  0  0  0  0  0  0  0  0
    3.5681    2.0840    3.6509 C   0  0  0  0  0  0  0  0  0  0  0  0
    3.6435    0.8425    4.2749 C   0  0  0  0  0  0  0  0  0  0  0  0
    4.0275    0.7230    5.5769 O   0  0  0  0  0  0  0  0  0  0  0  0
    3.3292   -0.3241    3.5862 C   0  0  0  0  0  0  0  0  0  0  0  0
    2.9284   -0.2550    2.2498 C   0  0  0  0  0  0  0  0  0  0  0  0
    1.6051   -1.4190   -2.2919 C   0  0  0  0  0  0  0  0  0  0  0  0
    1.2558   -1.5849   -3.6447 C   0  0  0  0  0  0  0  0  0  0  0  0
    1.3013   -2.8435   -4.2476 C   0  0  0  0  0  0  0  0  0  0  0  0
    1.7025   -3.9557   -3.5111 C   0  0  0  0  0  0  0  0  0  0  0  0
    2.0608   -3.8097   -2.1731 C   0  0  0  0  0  0  0  0  0  0  0  0
    2.0139   -2.5514   -1.5673 C   0  0  0  0  0  0  0  0  0  0  0  0
   -2.7911    1.2985   -1.1046 C   0  0  0  0  0  0  0  0  0  0  0  0
   -4.6719    2.4594   -2.6252 H   0  0  0  0  0  0  0  0  0  0  0  0
   -6.0045    2.2994   -1.4821 H   0  0  0  0  0  0  0  0  0  0  0  0
   -4.7692    3.5568   -1.2233 H   0  0  0  0  0  0  0  0  0  0  0  0
   -5.6683    1.2425    0.7179 H   0  0  0  0  0  0  0  0  0  0  0  0
   -4.0318   -1.4398    2.6500 H   0  0  0  0  0  0  0  0  0  0  0  0
   -4.1758    0.2087    3.3186 H   0  0  0  0  0  0  0  0  0  0  0  0
   -5.5266   -0.5287    2.4175 H   0  0  0  0  0  0  0  0  0  0  0  0
   -1.9561   -0.7871    1.4462 H   0  0  0  0  0  0  0  0  0  0  0  0
   -0.1942   -0.4920    0.0260 H   0  0  0  0  0  0  0  0  0  0  0  0
    2.1937    0.6295   -2.2637 H   0  0  0  0  0  0  0  0  0  0  0  0
    3.1065    3.1291    1.8260 H   0  0  0  0  0  0  0  0  0  0  0  0
    3.8157    2.9998    4.1806 H   0  0  0  0  0  0  0  0  0  0  0  0
    4.2222    1.6079    5.9292 H   0  0  0  0  0  0  0  0  0  0  0  0
    3.3982   -1.2859    4.0898 H   0  0  0  0  0  0  0  0  0  0  0  0
    2.6949   -1.1793    1.7288 H   0  0  0  0  0  0  0  0  0  0  0  0
    0.9383   -0.7291   -4.2414 H   0  0  0  0  0  0  0  0  0  0  0  0
    1.0218   -2.9536   -5.2929 H   0  0  0  0  0  0  0  0  0  0  0  0
    1.7387   -4.9353   -3.9811 H   0  0  0  0  0  0  0  0  0  0  0  0
    2.3802   -4.6776   -1.5998 H   0  0  0  0  0  0  0  0  0  0  0  0
    2.3074   -2.4738   -0.5232 H   0  0  0  0  0  0  0  0  0  0  0  0
   -2.3920    1.7734   -1.9962 H   0  0  0  0  0  0  0  0  0  0  0  0
  1  2  1  0
  2  3  2  0
  3  4  1  0
  4  5  1  0
  4  6  2  0
  6  7  1  0
  7  8  1  0
  8  9  1  0
  9 10  2  0
  9 11  1  0
 11 12  1  0
 12 13  1  0
 13 14  2  0
 13 15  1  0
 15 16  2  0
 16 17  1  0
 17 18  2  0
 18 19  1  0
 18 20  1  0
 20 21  2  0
 11 22  1  0
 22 23  2  0
 23 24  1  0
 24 25  2  0
 25 26  1  0
 26 27  2  0
  7 28  2  0
 28  2  1  0
 21 15  1  0
 27 22  1  0
  1 29  1  0
  1 30  1  0
  1 31  1  0
  3 32  1  0
  5 33  1  0
  5 34  1  0
  5 35  1  0
  6 36  1  0
  8 37  1  0
 11 38  1  0
 16 39  1  0
 17 40  1  0
 19 41  1  0
 20 42  1  0
 21 43  1  0
 23 44  1  0
 24 45  1  0
 25 46  1  0
 26 47  1  0
 27 48  1  0
 28 49  1  0
M  END
$$$$
