
     RDKit          3D

 55 57  0  0  0  0  0  0  0  0999 V2000
   -2.7270   -4.0882   -0.0315 C   0  0  0  0  0  0  0  0  0  0  0  0
   -1.9905   -2.7526   -0.0403 C   0  0  0  0  0  0  0  0  0  0  0  0
   -2.7861   -1.5399   -0.6020 C   0  0  0  0  0  0  0  0  0  0  0  0
   -3.3042   -1.8545   -2.0203 C   0  0  0  0  0  0  0  0  0  0  0  0
   -3.9945   -1.1971    0.2878 C   0  0  0  0  0  0  0  0  0  0  0  0
   -1.9036   -0.3612   -0.7099 N   0  0  0  0  0  0  0  0  0  0  0  0
   -1.2227    0.2366    0.3460 C   0  0  0  0  0  0  0  0  0  0  0  0
   -1.2423   -0.2124    1.4899 O   0  0  0  0  0  0  0  0  0  0  0  0
   -0.3508    1.4524   -0.0882 C   0  0  0  0  0  0  0  0  0  0  0  0
   -0.3103    2.6322    0.8804 C   0  0  0  0  0  0  0  0  0  0  0  0
    0.7683    3.5356    0.9165 C   0  0  0  0  0  0  0  0  0  0  0  0
    0.7700    4.6255    1.7940 C   0  0  0  0  0  0  0  0  0  0  0  0
   -0.3245    4.8632    2.6209 C   0  0  0  0  0  0  0  0  0  0  0  0
   -1.4324    4.0265    2.5474 C   0  0  0  0  0  0  0  0  0  0  0  0
   -1.4256    2.9396    1.6743 C   0  0  0  0  0  0  0  0  0  0  0  0
   -2.5504    2.2171    1.5729 F   0  0  0  0  0  0  0  0  0  0  0  0
    0.9379    0.8770   -0.5608 N   0  0  0  0  0  0  0  0  0  0  0  0
    0.9018    0.3888   -1.8945 C   0  0  0  0  0  0  0  0  0  0  0  0
    0.0119    0.7410   -2.6760 O   0  0  0  0  0  0  0  0  0  0  0  0
    1.8358   -0.6858   -2.2918 C   0  0  0  0  0  0  0  0  0  0  0  0
    2.1273   -1.8925   -1.5923 C   0  0  0  0  0  0  0  0  0  0  0  0
    2.9936   -2.5864   -2.4029 C   0  0  0  0  0  0  0  0  0  0  0  0
    3.1789   -1.8057   -3.5047 N   0  0  0  0  0  0  0  0  0  0  0  0
    2.4940   -0.6527   -3.4681 N   0  0  0  0  0  0  0  0  0  0  0  0
    2.0631    0.7030    0.3162 C   0  0  0  0  0  0  0  0  0  0  0  0
    3.3706    0.8198   -0.1880 C   0  0  0  0  0  0  0  0  0  0  0  0
    4.4864    0.6758    0.6420 C   0  0  0  0  0  0  0  0  0  0  0  0
    4.3164    0.4283    1.9986 C   0  0  0  0  0  0  0  0  0  0  0  0
    3.0315    0.3375    2.5235 C   0  0  0  0  0  0  0  0  0  0  0  0
    1.9156    0.4812    1.6906 C   0  0  0  0  0  0  0  0  0  0  0  0
   -2.9181   -4.4508   -1.0470 H   0  0  0  0  0  0  0  0  0  0  0  0
   -2.1137   -4.8427    0.4748 H   0  0  0  0  0  0  0  0  0  0  0  0
   -3.6784   -4.0246    0.5050 H   0  0  0  0  0  0  0  0  0  0  0  0
   -1.6781   -2.5483    0.9926 H   0  0  0  0  0  0  0  0  0  0  0  0
   -1.0621   -2.8772   -0.6156 H   0  0  0  0  0  0  0  0  0  0  0  0
   -4.0444   -2.6611   -2.0180 H   0  0  0  0  0  0  0  0  0  0  0  0
   -3.7847   -0.9745   -2.4670 H   0  0  0  0  0  0  0  0  0  0  0  0
   -2.4808   -2.1473   -2.6829 H   0  0  0  0  0  0  0  0  0  0  0  0
   -4.4865   -0.2792   -0.0579 H   0  0  0  0  0  0  0  0  0  0  0  0
   -4.7428   -1.9949    0.2784 H   0  0  0  0  0  0  0  0  0  0  0  0
   -3.6988   -1.0337    1.3298 H   0  0  0  0  0  0  0  0  0  0  0  0
   -1.7388    0.0184   -1.6438 H   0  0  0  0  0  0  0  0  0  0  0  0
   -0.8606    1.8940   -0.9562 H   0  0  0  0  0  0  0  0  0  0  0  0
    1.6275    3.4053    0.2622 H   0  0  0  0  0  0  0  0  0  0  0  0
    1.6313    5.2919    1.8250 H   0  0  0  0  0  0  0  0  0  0  0  0
   -0.3220    5.7096    3.3020 H   0  0  0  0  0  0  0  0  0  0  0  0
   -2.3109    4.2143    3.1570 H   0  0  0  0  0  0  0  0  0  0  0  0
    1.7418   -2.2045   -0.6309 H   0  0  0  0  0  0  0  0  0  0  0  0
    3.4784   -3.5464   -2.2994 H   0  0  0  0  0  0  0  0  0  0  0  0
    3.7598   -1.9905   -4.3185 H   0  0  0  0  0  0  0  0  0  0  0  0
    3.5506    1.0608   -1.2341 H   0  0  0  0  0  0  0  0  0  0  0  0
    5.4860    0.7665    0.2241 H   0  0  0  0  0  0  0  0  0  0  0  0
    5.1796    0.3161    2.6479 H   0  0  0  0  0  0  0  0  0  0  0  0
    2.8880    0.1518    3.5853 H   0  0  0  0  0  0  0  0  0  0  0  0
    0.9395    0.3949    2.1574 H   0  0  0  0  0  0  0  0  0  0  0  0
  1  2  1  0
  2  3  1  0
  3  4  1  0
  3  5  1  0
  3  6  1  0
  6  7  1  0
  7  8  2  0
  7  9  1  0
  9 10  1  0
 10 11  2  0
 11 12  1  0
 12 13  2  0
 13 14  1  0
 14 15  2  0
 15 16  1  0
  9 17  1  0
 17 18  1  0
 18 19  2  0
 18 20  1  0
 20 21  1  0
 21 22  2  0
 22 23  1  0
 23 24  1  0
 17 25  1  0
 25 26  2  0
 26 27  1  0
 27 28  2  0
 28 29  1  0
 29 30  2  0
 15 10  1  0
 24 20  2  0
 30 25  1  0
  1 31  1  0
  1 32  1  0
  1 33  1  0
  2 34  1  0
  2 35  1  0
  4 36  1  0
  4 37  1  0
  4 38  1  0
  5 39  1  0
  5 40  1  0
  5 41  1  0
  6 42  1  0
  9 43  1  0
 11 44  1  0
 12 45  1  0
 13 46  1  0
 14 47  1  0
 21 48  1  0
 22 49  1  0
 23 50  1  0
 26 51  1  0
 27 52  1  0
 28 53  1  0
 29 54  1  0
 30 55  1  0
M  END
$$$$
