
     RDKit          3D

 37 39  0  0  0  0  0  0  0  0999 V2000
   -0.6714   -3.2592   -1.5308 C   0  0  0  0  0  0  0  0  0  0  0  0
   -1.5418   -2.6199   -2.4553 O   0  0  0  0  0  0  0  0  0  0  0  0
   -1.6820   -1.2415   -2.3139 C   0  0  0  0  0  0  0  0  0  0  0  0
   -2.5630   -0.6801   -3.2532 C   0  0  0  0  0  0  0  0  0  0  0  0
   -2.8255    0.6833   -3.2617 C   0  0  0  0  0  0  0  0  0  0  0  0
   -2.2278    1.5170   -2.3170 C   0  0  0  0  0  0  0  0  0  0  0  0
   -2.4824    2.8701   -2.3706 O   0  0  0  0  0  0  0  0  0  0  0  0
   -3.6550    3.1730   -1.6137 C   0  0  0  0  0  0  0  0  0  0  0  0
   -1.3214    0.9684   -1.3908 C   0  0  0  0  0  0  0  0  0  0  0  0
   -0.4122    1.7558   -0.1630 S   0  0  0  0  0  0  0  0  0  0  0  0
    0.3025    0.2588    0.3177 C   0  0  0  0  0  0  0  0  0  0  0  0
    1.2004    0.1429    1.3533 N   0  0  0  0  0  0  0  0  0  0  0  0
    2.1821    1.2204    1.5491 C   0  0  0  0  0  0  0  0  0  0  0  0
    2.8317    1.1182    2.9287 C   0  0  0  0  0  0  0  0  0  0  0  0
    3.4317   -0.2616    3.1638 C   0  0  0  0  0  0  0  0  0  0  0  0
    2.3708   -1.3332    2.9516 C   0  0  0  0  0  0  0  0  0  0  0  0
    1.7294   -1.2143    1.5707 C   0  0  0  0  0  0  0  0  0  0  0  0
   -0.1300   -0.7698   -0.3777 N   0  0  0  0  0  0  0  0  0  0  0  0
   -1.0376   -0.3991   -1.3638 C   0  0  0  0  0  0  0  0  0  0  0  0
   -1.0310   -3.1474   -0.5031 H   0  0  0  0  0  0  0  0  0  0  0  0
   -0.6774   -4.3286   -1.7615 H   0  0  0  0  0  0  0  0  0  0  0  0
    0.3588   -2.9082   -1.6462 H   0  0  0  0  0  0  0  0  0  0  0  0
   -3.0405   -1.3253   -3.9877 H   0  0  0  0  0  0  0  0  0  0  0  0
   -3.4954    1.1014   -4.0079 H   0  0  0  0  0  0  0  0  0  0  0  0
   -3.5505    2.8602   -0.5687 H   0  0  0  0  0  0  0  0  0  0  0  0
   -3.7927    4.2584   -1.6297 H   0  0  0  0  0  0  0  0  0  0  0  0
   -4.5417    2.7120   -2.0619 H   0  0  0  0  0  0  0  0  0  0  0  0
    2.9505    1.1651    0.7674 H   0  0  0  0  0  0  0  0  0  0  0  0
    1.7217    2.2124    1.4884 H   0  0  0  0  0  0  0  0  0  0  0  0
    2.0795    1.3222    3.7018 H   0  0  0  0  0  0  0  0  0  0  0  0
    3.6101    1.8830    3.0280 H   0  0  0  0  0  0  0  0  0  0  0  0
    3.8319   -0.3275    4.1820 H   0  0  0  0  0  0  0  0  0  0  0  0
    4.2689   -0.4253    2.4742 H   0  0  0  0  0  0  0  0  0  0  0  0
    2.8180   -2.3268    3.0681 H   0  0  0  0  0  0  0  0  0  0  0  0
    1.5977   -1.2356    3.7243 H   0  0  0  0  0  0  0  0  0  0  0  0
    0.9285   -1.9633    1.5168 H   0  0  0  0  0  0  0  0  0  0  0  0
    2.4651   -1.4563    0.7923 H   0  0  0  0  0  0  0  0  0  0  0  0
  1  2  1  0
  2  3  1  0
  3  4  2  0
  4  5  1  0
  5  6  2  0
  6  7  1  0
  7  8  1  0
  6  9  1  0
  9 10  1  0
 10 11  1  0
 11 12  1  0
 12 13  1  0
 13 14  1  0
 14 15  1  0
 15 16  1  0
 16 17  1  0
 11 18  2  0
 18 19  1  0
 19  3  1  0
 19  9  2  0
 17 12  1  0
  1 20  1  0
  1 21  1  0
  1 22  1  0
  4 23  1  0
  5 24  1  0
  8 25  1  0
  8 26  1  0
  8 27  1  0
 13 28  1  0
 13 29  1  0
 14 30  1  0
 14 31  1  0
 15 32  1  0
 15 33  1  0
 16 34  1  0
 16 35  1  0
 17 36  1  0
 17 37  1  0
M  END
$$$$
