
     RDKit          3D

 42 44  0  0  0  0  0  0  0  0999 V2000
    5.0503   -1.1539   -0.5610 C   0  0  0  0  0  0  0  0  0  0  0  0
    4.1908    0.0822   -0.7882 C   0  0  0  0  0  0  0  0  0  0  0  0
    3.4497    0.0842   -2.1269 C   0  0  0  0  0  0  0  0  0  0  0  0
    2.2238   -1.2593   -2.3095 S   0  0  0  0  0  0  0  0  0  0  0  0
    0.9134   -0.6987   -1.2287 C   0  0  0  0  0  0  0  0  0  0  0  0
   -0.0710   -1.5954   -0.8723 C   0  0  0  0  0  0  0  0  0  0  0  0
   -1.0804   -1.1413   -0.0502 C   0  0  0  0  0  0  0  0  0  0  0  0
   -2.0964   -1.9674    0.3724 N   0  0  0  0  0  0  0  0  0  0  0  0
   -3.1706   -1.4267    1.1977 C   0  0  0  0  0  0  0  0  0  0  0  0
   -4.1032   -2.6210    1.3727 C   0  0  0  0  0  0  0  0  0  0  0  0
   -3.9943   -3.3259    0.0301 C   0  0  0  0  0  0  0  0  0  0  0  0
   -2.5197   -3.1661   -0.3429 C   0  0  0  0  0  0  0  0  0  0  0  0
   -1.0725    0.1283    0.3901 N   0  0  0  0  0  0  0  0  0  0  0  0
   -0.0795    0.9442   -0.0092 C   0  0  0  0  0  0  0  0  0  0  0  0
   -0.0930    2.3384    0.4814 C   0  0  0  0  0  0  0  0  0  0  0  0
   -1.0963    2.8013    1.3554 C   0  0  0  0  0  0  0  0  0  0  0  0
   -1.1110    4.1200    1.8222 C   0  0  0  0  0  0  0  0  0  0  0  0
   -0.1189    5.0106    1.4244 C   0  0  0  0  0  0  0  0  0  0  0  0
    0.8861    4.5842    0.5619 C   0  0  0  0  0  0  0  0  0  0  0  0
    0.8971    3.2646    0.0976 C   0  0  0  0  0  0  0  0  0  0  0  0
    0.9227    0.5759   -0.8202 N   0  0  0  0  0  0  0  0  0  0  0  0
    5.7547   -1.2996   -1.3860 H   0  0  0  0  0  0  0  0  0  0  0  0
    4.4422   -2.0576   -0.4605 H   0  0  0  0  0  0  0  0  0  0  0  0
    5.6298   -1.0420    0.3612 H   0  0  0  0  0  0  0  0  0  0  0  0
    4.8466    0.9613   -0.7637 H   0  0  0  0  0  0  0  0  0  0  0  0
    3.4925    0.1981    0.0479 H   0  0  0  0  0  0  0  0  0  0  0  0
    2.9659    1.0523   -2.2940 H   0  0  0  0  0  0  0  0  0  0  0  0
    4.1766   -0.0382   -2.9378 H   0  0  0  0  0  0  0  0  0  0  0  0
   -0.0364   -2.6196   -1.2165 H   0  0  0  0  0  0  0  0  0  0  0  0
   -3.6923   -0.6146    0.6764 H   0  0  0  0  0  0  0  0  0  0  0  0
   -2.8108   -1.0645    2.1666 H   0  0  0  0  0  0  0  0  0  0  0  0
   -3.7344   -3.2765    2.1709 H   0  0  0  0  0  0  0  0  0  0  0  0
   -5.1267   -2.3226    1.6155 H   0  0  0  0  0  0  0  0  0  0  0  0
   -4.3035   -4.3740    0.0724 H   0  0  0  0  0  0  0  0  0  0  0  0
   -4.6230   -2.8152   -0.7096 H   0  0  0  0  0  0  0  0  0  0  0  0
   -1.9375   -4.0272    0.0030 H   0  0  0  0  0  0  0  0  0  0  0  0
   -2.4180   -3.0784   -1.4303 H   0  0  0  0  0  0  0  0  0  0  0  0
   -1.8841    2.1246    1.6833 H   0  0  0  0  0  0  0  0  0  0  0  0
   -1.8987    4.4464    2.4961 H   0  0  0  0  0  0  0  0  0  0  0  0
   -0.1289    6.0353    1.7861 H   0  0  0  0  0  0  0  0  0  0  0  0
    1.6638    5.2751    0.2472 H   0  0  0  0  0  0  0  0  0  0  0  0
    1.6952    2.9585   -0.5769 H   0  0  0  0  0  0  0  0  0  0  0  0
  1  2  1  0
  2  3  1  0
  3  4  1  0
  4  5  1  0
  5  6  2  0
  6  7  1  0
  7  8  1  0
  8  9  1  0
  9 10  1  0
 10 11  1  0
 11 12  1  0
  7 13  2  0
 13 14  1  0
 14 15  1  0
 15 16  2  0
 16 17  1  0
 17 18  2  0
 18 19  1  0
 19 20  2  0
 14 21  2  0
 21  5  1  0
 12  8  1  0
 20 15  1  0
  1 22  1  0
  1 23  1  0
  1 24  1  0
  2 25  1  0
  2 26  1  0
  3 27  1  0
  3 28  1  0
  6 29  1  0
  9 30  1  0
  9 31  1  0
 10 32  1  0
 10 33  1  0
 11 34  1  0
 11 35  1  0
 12 36  1  0
 12 37  1  0
 16 38  1  0
 17 39  1  0
 18 40  1  0
 19 41  1  0
 20 42  1  0
M  END
$$$$
