
     RDKit          3D

 49 52  0  0  0  0  0  0  0  0999 V2000
   -0.3509   -1.0300    3.8336 O   0  0  0  0  0  0  0  0  0  0  0  0
    0.5531   -1.0187    3.0011 C   0  0  0  0  0  0  0  0  0  0  0  0
    2.0019   -1.3151    3.4053 C   0  0  0  0  0  0  0  0  0  0  0  0
    2.8143   -1.7687    2.2729 N   0  0  0  0  0  0  0  0  0  0  0  0
    3.2688   -0.7944    1.4031 N   0  0  0  0  0  0  0  0  0  0  0  0
    3.9636   -1.1735    0.3729 C   0  0  0  0  0  0  0  0  0  0  0  0
    4.4542   -0.1409   -0.5833 C   0  0  0  0  0  0  0  0  0  0  0  0
    4.5214   -0.3852   -1.9628 C   0  0  0  0  0  0  0  0  0  0  0  0
    4.9720    0.6164   -2.8273 C   0  0  0  0  0  0  0  0  0  0  0  0
    5.3423    1.8548   -2.3142 C   0  0  0  0  0  0  0  0  0  0  0  0
    5.7722    2.8115   -3.1466 F   0  0  0  0  0  0  0  0  0  0  0  0
    5.2656    2.1166   -0.9512 C   0  0  0  0  0  0  0  0  0  0  0  0
    4.8160    1.1196   -0.0829 C   0  0  0  0  0  0  0  0  0  0  0  0
    4.3132   -2.5808    0.0844 C   0  0  0  0  0  0  0  0  0  0  0  0
    3.8290   -3.5053    0.9146 C   0  0  0  0  0  0  0  0  0  0  0  0
    2.9985   -3.1303    2.0755 C   0  0  0  0  0  0  0  0  0  0  0  0
    2.5397   -4.0157    2.7900 O   0  0  0  0  0  0  0  0  0  0  0  0
    0.4360   -0.6043    1.6856 N   0  0  0  0  0  0  0  0  0  0  0  0
   -0.7194   -0.2343    0.9808 C   0  0  0  0  0  0  0  0  0  0  0  0
   -0.5466    0.2261   -0.3298 C   0  0  0  0  0  0  0  0  0  0  0  0
   -1.6484    0.6113   -1.0994 C   0  0  0  0  0  0  0  0  0  0  0  0
   -2.9394    0.5452   -0.5649 C   0  0  0  0  0  0  0  0  0  0  0  0
   -4.0822    0.9656   -1.4229 C   0  0  0  0  0  0  0  0  0  0  0  0
   -3.9814    0.9096   -2.6444 O   0  0  0  0  0  0  0  0  0  0  0  0
   -5.2005    1.4399   -0.7625 N   0  0  0  0  0  0  0  0  0  0  0  0
   -6.3492    1.9129   -1.4674 C   0  0  0  0  0  0  0  0  0  0  0  0
   -7.6605    2.1034   -0.7544 C   0  0  0  0  0  0  0  0  0  0  0  0
   -7.5025    0.9900   -1.7485 C   0  0  0  0  0  0  0  0  0  0  0  0
   -3.1176    0.0642    0.7368 C   0  0  0  0  0  0  0  0  0  0  0  0
   -2.0099   -0.3175    1.5053 C   0  0  0  0  0  0  0  0  0  0  0  0
    1.9919   -2.0809    4.1873 H   0  0  0  0  0  0  0  0  0  0  0  0
    2.4475   -0.3995    3.8091 H   0  0  0  0  0  0  0  0  0  0  0  0
    4.2068   -1.3346   -2.3880 H   0  0  0  0  0  0  0  0  0  0  0  0
    5.0282    0.4432   -3.8984 H   0  0  0  0  0  0  0  0  0  0  0  0
    5.5528    3.0937   -0.5740 H   0  0  0  0  0  0  0  0  0  0  0  0
    4.7559    1.3307    0.9831 H   0  0  0  0  0  0  0  0  0  0  0  0
    4.9503   -2.8442   -0.7484 H   0  0  0  0  0  0  0  0  0  0  0  0
    4.0295   -4.5617    0.7897 H   0  0  0  0  0  0  0  0  0  0  0  0
    1.3288   -0.5414    1.1955 H   0  0  0  0  0  0  0  0  0  0  0  0
    0.4452    0.2949   -0.7694 H   0  0  0  0  0  0  0  0  0  0  0  0
   -1.4968    0.9673   -2.1168 H   0  0  0  0  0  0  0  0  0  0  0  0
   -5.1484    1.6220    0.2313 H   0  0  0  0  0  0  0  0  0  0  0  0
   -6.1039    2.6369   -2.2428 H   0  0  0  0  0  0  0  0  0  0  0  0
   -8.2702    2.9533   -1.0387 H   0  0  0  0  0  0  0  0  0  0  0  0
   -7.7335    1.8347    0.2928 H   0  0  0  0  0  0  0  0  0  0  0  0
   -7.9933    1.0846   -2.7103 H   0  0  0  0  0  0  0  0  0  0  0  0
   -7.4454   -0.0272   -1.3790 H   0  0  0  0  0  0  0  0  0  0  0  0
   -4.1082   -0.0522    1.1672 H   0  0  0  0  0  0  0  0  0  0  0  0
   -2.1905   -0.6925    2.5084 H   0  0  0  0  0  0  0  0  0  0  0  0
  1  2  2  0
  2  3  1  0
  3  4  1  0
  4  5  1  0
  5  6  2  0
  6  7  1  0
  7  8  2  0
  8  9  1  0
  9 10  2  0
 10 11  1  0
 10 12  1  0
 12 13  2  0
  6 14  1  0
 14 15  2  0
 15 16  1  0
 16 17  2  0
  2 18  1  0
 18 19  1  0
 19 20  2  0
 20 21  1  0
 21 22  2  0
 22 23  1  0
 23 24  2  0
 23 25  1  0
 25 26  1  0
 26 27  1  0
 27 28  1  0
 22 29  1  0
 29 30  2  0
 16  4  1  0
 30 19  1  0
 13  7  1  0
 28 26  1  0
  3 31  1  0
  3 32  1  0
  8 33  1  0
  9 34  1  0
 12 35  1  0
 13 36  1  0
 14 37  1  0
 15 38  1  0
 18 39  1  0
 20 40  1  0
 21 41  1  0
 25 42  1  0
 26 43  1  0
 27 44  1  0
 27 45  1  0
 28 46  1  0
 28 47  1  0
 29 48  1  0
 30 49  1  0
M  END
$$$$
