
     RDKit          3D

 44 45  0  0  0  0  0  0  0  0999 V2000
    6.0178    0.8117    0.3501 C   0  0  0  0  0  0  0  0  0  0  0  0
    5.1200   -0.1721   -0.3507 C   0  0  0  0  0  0  0  0  0  0  0  0
    5.3769   -1.3703   -0.3988 O   0  0  0  0  0  0  0  0  0  0  0  0
    4.0000    0.3928   -0.9159 N   0  0  0  0  0  0  0  0  0  0  0  0
    2.9557   -0.4421   -1.4888 C   0  0  0  0  0  0  0  0  0  0  0  0
    2.0460    0.3576   -2.4224 C   0  0  0  0  0  0  0  0  0  0  0  0
    1.4264    1.4506   -1.7372 O   0  0  0  0  0  0  0  0  0  0  0  0
    0.2898    1.1213   -1.0282 C   0  0  0  0  0  0  0  0  0  0  0  0
   -0.2649    2.1411   -0.3958 N   0  0  0  0  0  0  0  0  0  0  0  0
   -1.3475    1.8494    0.3100 C   0  0  0  0  0  0  0  0  0  0  0  0
   -2.0128    2.8787    0.9836 N   0  0  0  0  0  0  0  0  0  0  0  0
   -2.8561    2.4377    2.0836 C   0  0  0  0  0  0  0  0  0  0  0  0
   -1.2157    4.0750    1.2078 C   0  0  0  0  0  0  0  0  0  0  0  0
   -1.8415    0.6145    0.3818 N   0  0  0  0  0  0  0  0  0  0  0  0
   -1.2201   -0.3521   -0.2882 C   0  0  0  0  0  0  0  0  0  0  0  0
   -1.7097   -1.6413   -0.1941 N   0  0  0  0  0  0  0  0  0  0  0  0
   -1.3191   -2.6372   -1.1979 C   0  0  0  0  0  0  0  0  0  0  0  0
   -2.5711   -3.2620   -1.8359 C   0  0  0  0  0  0  0  0  0  0  0  0
   -3.4517   -3.8933   -0.8936 O   0  0  0  0  0  0  0  0  0  0  0  0
   -3.4095   -3.3026    0.4148 C   0  0  0  0  0  0  0  0  0  0  0  0
   -3.0366   -1.8124    0.4064 C   0  0  0  0  0  0  0  0  0  0  0  0
   -0.1315   -0.1341   -1.0097 N   0  0  0  0  0  0  0  0  0  0  0  0
    7.0542    0.6212    0.0578 H   0  0  0  0  0  0  0  0  0  0  0  0
    5.7717    1.8431    0.0824 H   0  0  0  0  0  0  0  0  0  0  0  0
    5.9098    0.6879    1.4307 H   0  0  0  0  0  0  0  0  0  0  0  0
    3.7202    1.3127   -0.5949 H   0  0  0  0  0  0  0  0  0  0  0  0
    3.4200   -1.2684   -2.0378 H   0  0  0  0  0  0  0  0  0  0  0  0
    2.3997   -0.8663   -0.6468 H   0  0  0  0  0  0  0  0  0  0  0  0
    1.3132   -0.2833   -2.9281 H   0  0  0  0  0  0  0  0  0  0  0  0
    2.6567    0.8034   -3.2167 H   0  0  0  0  0  0  0  0  0  0  0  0
   -2.2674    1.9450    2.8662 H   0  0  0  0  0  0  0  0  0  0  0  0
   -3.6440    1.7565    1.7420 H   0  0  0  0  0  0  0  0  0  0  0  0
   -3.3661    3.2940    2.5394 H   0  0  0  0  0  0  0  0  0  0  0  0
   -1.8174    4.8454    1.7035 H   0  0  0  0  0  0  0  0  0  0  0  0
   -0.3504    3.8652    1.8472 H   0  0  0  0  0  0  0  0  0  0  0  0
   -0.8705    4.5138    0.2645 H   0  0  0  0  0  0  0  0  0  0  0  0
   -0.7415   -3.4182   -0.6896 H   0  0  0  0  0  0  0  0  0  0  0  0
   -0.6903   -2.2302   -1.9972 H   0  0  0  0  0  0  0  0  0  0  0  0
   -3.1488   -2.4968   -2.3678 H   0  0  0  0  0  0  0  0  0  0  0  0
   -2.2807   -4.0201   -2.5702 H   0  0  0  0  0  0  0  0  0  0  0  0
   -2.6885   -3.8733    1.0119 H   0  0  0  0  0  0  0  0  0  0  0  0
   -4.3949   -3.4431    0.8702 H   0  0  0  0  0  0  0  0  0  0  0  0
   -3.7834   -1.2586   -0.1768 H   0  0  0  0  0  0  0  0  0  0  0  0
   -3.0460   -1.4408    1.4378 H   0  0  0  0  0  0  0  0  0  0  0  0
  1  2  1  0
  2  3  2  0
  2  4  1  0
  4  5  1  0
  5  6  1  0
  6  7  1  0
  7  8  1  0
  8  9  2  0
  9 10  1  0
 10 11  1  0
 11 12  1  0
 11 13  1  0
 10 14  2  0
 14 15  1  0
 15 16  1  0
 16 17  1  0
 17 18  1  0
 18 19  1  0
 19 20  1  0
 20 21  1  0
 15 22  2  0
 22  8  1  0
 21 16  1  0
  1 23  1  0
  1 24  1  0
  1 25  1  0
  4 26  1  0
  5 27  1  0
  5 28  1  0
  6 29  1  0
  6 30  1  0
 12 31  1  0
 12 32  1  0
 12 33  1  0
 13 34  1  0
 13 35  1  0
 13 36  1  0
 17 37  1  0
 17 38  1  0
 18 39  1  0
 18 40  1  0
 20 41  1  0
 20 42  1  0
 21 43  1  0
 21 44  1  0
M  END
$$$$
