
     RDKit          3D

 43 46  0  0  0  0  0  0  0  0999 V2000
   -3.6921   -2.6111    1.9025 C   0  0  0  0  0  0  0  0  0  0  0  0
   -3.9042   -2.5196    0.4029 C   0  0  0  0  0  0  0  0  0  0  0  0
   -3.8883   -1.1491   -0.0174 O   0  0  0  0  0  0  0  0  0  0  0  0
   -2.6598   -0.6211   -0.2783 C   0  0  0  0  0  0  0  0  0  0  0  0
   -1.6034   -1.2353   -0.1955 O   0  0  0  0  0  0  0  0  0  0  0  0
   -2.7904    0.7709   -0.6733 C   0  0  0  0  0  0  0  0  0  0  0  0
   -3.9563    1.5106   -0.8369 C   0  0  0  0  0  0  0  0  0  0  0  0
   -3.5605    2.8233   -1.2085 C   0  0  0  0  0  0  0  0  0  0  0  0
   -4.2831    4.3467   -1.6012 S   0  0  0  0  0  0  0  0  0  0  0  0
   -2.7191    5.0265   -1.8205 C   0  0  0  0  0  0  0  0  0  0  0  0
   -1.6831    4.1408   -1.6122 C   0  0  0  0  0  0  0  0  0  0  0  0
   -2.2002    2.8620   -1.2611 C   0  0  0  0  0  0  0  0  0  0  0  0
   -1.7201    1.6086   -0.9433 N   0  0  0  0  0  0  0  0  0  0  0  0
   -0.3033    1.2682   -0.9317 C   0  0  0  0  0  0  0  0  0  0  0  0
    0.2626    1.1544    0.4702 C   0  0  0  0  0  0  0  0  0  0  0  0
   -0.2342    1.7250    1.4408 O   0  0  0  0  0  0  0  0  0  0  0  0
    1.5002    0.3443    0.6732 C   0  0  0  0  0  0  0  0  0  0  0  0
    1.8444   -0.0286    1.9818 C   0  0  0  0  0  0  0  0  0  0  0  0
    2.9917   -0.7879    2.2243 C   0  0  0  0  0  0  0  0  0  0  0  0
    3.8011   -1.1758    1.1609 C   0  0  0  0  0  0  0  0  0  0  0  0
    3.4825   -0.7770   -0.1410 C   0  0  0  0  0  0  0  0  0  0  0  0
    2.3296   -0.0306   -0.3903 C   0  0  0  0  0  0  0  0  0  0  0  0
    4.2558   -1.0872   -1.2315 O   0  0  0  0  0  0  0  0  0  0  0  0
    5.5540   -1.5501   -0.8386 C   0  0  0  0  0  0  0  0  0  0  0  0
    5.4465   -2.5556    0.2958 C   0  0  0  0  0  0  0  0  0  0  0  0
    4.8987   -1.9380    1.4660 O   0  0  0  0  0  0  0  0  0  0  0  0
   -4.4405   -2.0137    2.4336 H   0  0  0  0  0  0  0  0  0  0  0  0
   -2.7109   -2.2172    2.1860 H   0  0  0  0  0  0  0  0  0  0  0  0
   -3.7628   -3.6484    2.2416 H   0  0  0  0  0  0  0  0  0  0  0  0
   -3.1635   -3.1136   -0.1447 H   0  0  0  0  0  0  0  0  0  0  0  0
   -4.8900   -2.9212    0.1464 H   0  0  0  0  0  0  0  0  0  0  0  0
   -4.9690    1.1547   -0.6997 H   0  0  0  0  0  0  0  0  0  0  0  0
   -2.6407    6.0696   -2.0950 H   0  0  0  0  0  0  0  0  0  0  0  0
   -0.6370    4.4017   -1.7011 H   0  0  0  0  0  0  0  0  0  0  0  0
   -0.2025    0.3323   -1.4883 H   0  0  0  0  0  0  0  0  0  0  0  0
    0.2446    2.0481   -1.4703 H   0  0  0  0  0  0  0  0  0  0  0  0
    1.2135    0.2637    2.8200 H   0  0  0  0  0  0  0  0  0  0  0  0
    3.2444   -1.0837    3.2389 H   0  0  0  0  0  0  0  0  0  0  0  0
    2.1183    0.2569   -1.4150 H   0  0  0  0  0  0  0  0  0  0  0  0
    6.0187   -2.0147   -1.7138 H   0  0  0  0  0  0  0  0  0  0  0  0
    6.1597   -0.6822   -0.5498 H   0  0  0  0  0  0  0  0  0  0  0  0
    6.4375   -2.9399    0.5565 H   0  0  0  0  0  0  0  0  0  0  0  0
    4.8111   -3.4065    0.0200 H   0  0  0  0  0  0  0  0  0  0  0  0
  1  2  1  0
  2  3  1  0
  3  4  1  0
  4  5  2  0
  4  6  1  0
  6  7  2  0
  7  8  1  0
  8  9  1  0
  9 10  1  0
 10 11  2  0
 11 12  1  0
 12 13  1  0
 13 14  1  0
 14 15  1  0
 15 16  2  0
 15 17  1  0
 17 18  2  0
 18 19  1  0
 19 20  2  0
 20 21  1  0
 21 22  2  0
 21 23  1  0
 23 24  1  0
 24 25  1  0
 25 26  1  0
 13  6  1  0
 22 17  1  0
 12  8  2  0
 26 20  1  0
  1 27  1  0
  1 28  1  0
  1 29  1  0
  2 30  1  0
  2 31  1  0
  7 32  1  0
 10 33  1  0
 11 34  1  0
 14 35  1  0
 14 36  1  0
 18 37  1  0
 19 38  1  0
 22 39  1  0
 24 40  1  0
 24 41  1  0
 25 42  1  0
 25 43  1  0
M  END
$$$$
