
     RDKit          3D

 50 52  0  0  0  0  0  0  0  0999 V2000
    9.5504   -0.7596   -1.9071 C   0  0  0  0  0  0  0  0  0  0  0  0
    9.1053    0.6427   -1.5239 C   0  0  0  0  0  0  0  0  0  0  0  0
    7.9849    0.6107   -0.5387 C   0  0  0  0  0  0  0  0  0  0  0  0
    8.1379    0.5411    0.7688 N   0  0  0  0  0  0  0  0  0  0  0  0
    6.9263    0.5162    1.4324 N   0  0  0  0  0  0  0  0  0  0  0  0
    5.9164    0.5307    0.5968 C   0  0  0  0  0  0  0  0  0  0  0  0
    4.5551    0.5759    1.1063 N   0  0  0  0  0  0  0  0  0  0  0  0
    3.8234   -0.9461    1.0087 S   0  0  0  0  0  6  0  0  0  0  0  0
    3.9041   -1.5291    2.3305 O   0  0  0  0  0  0  0  0  0  0  0  0
    4.2592   -1.6603   -0.1712 O   0  0  0  0  0  0  0  0  0  0  0  0
    2.1353   -0.4636    0.7298 C   0  0  0  0  0  0  0  0  0  0  0  0
    1.7269   -0.1175   -0.5572 C   0  0  0  0  0  0  0  0  0  0  0  0
    0.3963    0.2492   -0.7774 C   0  0  0  0  0  0  0  0  0  0  0  0
   -0.5365    0.2776    0.2737 C   0  0  0  0  0  0  0  0  0  0  0  0
   -1.8485    0.6609   -0.0775 N   0  0  0  0  0  0  0  0  0  0  0  0
   -2.9863    0.9360    0.6457 C   0  0  0  0  0  0  0  0  0  0  0  0
   -3.2109    1.0312    2.2975 S   0  0  0  0  0  0  0  0  0  0  0  0
   -4.1116    1.1897   -0.1266 N   0  0  0  0  0  0  0  0  0  0  0  0
   -4.2487    1.1628   -1.4984 C   0  0  0  0  0  0  0  0  0  0  0  0
   -3.3094    1.0671   -2.2845 O   0  0  0  0  0  0  0  0  0  0  0  0
   -5.6242    1.3789   -2.0165 C   0  0  0  0  0  0  0  0  0  0  0  0
   -6.7822    0.9098   -1.5240 C   0  0  0  0  0  0  0  0  0  0  0  0
   -6.9532    0.0423   -0.3568 C   0  0  0  0  0  0  0  0  0  0  0  0
   -7.7365    0.4828    0.7158 C   0  0  0  0  0  0  0  0  0  0  0  0
   -7.8911   -0.3186    1.8482 C   0  0  0  0  0  0  0  0  0  0  0  0
   -7.2726   -1.5662    1.9106 C   0  0  0  0  0  0  0  0  0  0  0  0
   -6.5055   -2.0183    0.8383 C   0  0  0  0  0  0  0  0  0  0  0  0
   -6.3498   -1.2195   -0.2955 C   0  0  0  0  0  0  0  0  0  0  0  0
   -0.1106   -0.0959    1.5493 C   0  0  0  0  0  0  0  0  0  0  0  0
    1.2204   -0.4677    1.7821 C   0  0  0  0  0  0  0  0  0  0  0  0
    6.3426    0.6792   -1.0493 S   0  0  0  0  0  0  0  0  0  0  0  0
   10.3893   -0.7128   -2.6083 H   0  0  0  0  0  0  0  0  0  0  0  0
    8.7386   -1.3173   -2.3865 H   0  0  0  0  0  0  0  0  0  0  0  0
    9.8734   -1.3272   -1.0277 H   0  0  0  0  0  0  0  0  0  0  0  0
    9.9517    1.1819   -1.0822 H   0  0  0  0  0  0  0  0  0  0  0  0
    8.8168    1.1968   -2.4248 H   0  0  0  0  0  0  0  0  0  0  0  0
    4.6264    0.8002    2.1011 H   0  0  0  0  0  0  0  0  0  0  0  0
    2.4277   -0.1331   -1.3889 H   0  0  0  0  0  0  0  0  0  0  0  0
    0.0956    0.5190   -1.7888 H   0  0  0  0  0  0  0  0  0  0  0  0
   -1.9841    0.7945   -1.0812 H   0  0  0  0  0  0  0  0  0  0  0  0
   -4.9424    1.3507    0.4276 H   0  0  0  0  0  0  0  0  0  0  0  0
   -5.6401    1.9540   -2.9393 H   0  0  0  0  0  0  0  0  0  0  0  0
   -7.7090    1.1656   -2.0354 H   0  0  0  0  0  0  0  0  0  0  0  0
   -8.2246    1.4546    0.6851 H   0  0  0  0  0  0  0  0  0  0  0  0
   -8.4933    0.0297    2.6837 H   0  0  0  0  0  0  0  0  0  0  0  0
   -7.3901   -2.1884    2.7944 H   0  0  0  0  0  0  0  0  0  0  0  0
   -6.0271   -2.9937    0.8858 H   0  0  0  0  0  0  0  0  0  0  0  0
   -5.7515   -1.5911   -1.1248 H   0  0  0  0  0  0  0  0  0  0  0  0
   -0.7848   -0.1409    2.3951 H   0  0  0  0  0  0  0  0  0  0  0  0
    1.5204   -0.7650    2.7851 H   0  0  0  0  0  0  0  0  0  0  0  0
  1  2  1  0
  2  3  1  0
  3  4  2  0
  4  5  1  0
  5  6  2  0
  6  7  1  0
  7  8  1  0
  8  9  2  0
  8 10  2  0
  8 11  1  0
 11 12  2  0
 12 13  1  0
 13 14  2  0
 14 15  1  0
 15 16  1  0
 16 17  2  0
 16 18  1  0
 18 19  1  0
 19 20  2  0
 19 21  1  0
 21 22  2  3
 22 23  1  0
 23 24  2  0
 24 25  1  0
 25 26  2  0
 26 27  1  0
 27 28  2  0
 14 29  1  0
 29 30  2  0
  6 31  1  0
 31  3  1  0
 30 11  1  0
 28 23  1  0
  1 32  1  0
  1 33  1  0
  1 34  1  0
  2 35  1  0
  2 36  1  0
  7 37  1  0
 12 38  1  0
 13 39  1  0
 15 40  1  0
 18 41  1  0
 21 42  1  0
 22 43  1  0
 24 44  1  0
 25 45  1  0
 26 46  1  0
 27 47  1  0
 28 48  1  0
 29 49  1  0
 30 50  1  0
M  END
$$$$
