
     RDKit          3D

 38 39  0  0  0  0  0  0  0  0999 V2000
   -3.7860   -0.1924    3.0656 O   0  0  0  0  0  0  0  0  0  0  0  0
   -3.0993    0.5485    2.3663 C   0  0  0  0  0  0  0  0  0  0  0  0
   -1.9735    1.3844    2.9840 C   0  0  0  0  0  0  0  0  0  0  0  0
   -0.6668    0.8738    2.7174 O   0  0  0  0  0  0  0  0  0  0  0  0
   -0.1593    1.2126    1.5092 C   0  0  0  0  0  0  0  0  0  0  0  0
   -0.7272    1.8776    0.6582 O   0  0  0  0  0  0  0  0  0  0  0  0
    1.1885    0.6273    1.3871 C   0  0  0  0  0  0  0  0  0  0  0  0
    1.8931    0.8053    0.2596 C   0  0  0  0  0  0  0  0  0  0  0  0
    3.2330    0.2472    0.0361 C   0  0  0  0  0  0  0  0  0  0  0  0
    4.2000    0.1923    1.0472 C   0  0  0  0  0  0  0  0  0  0  0  0
    5.4707   -0.3250    0.7881 C   0  0  0  0  0  0  0  0  0  0  0  0
    5.7933   -0.7816   -0.4888 C   0  0  0  0  0  0  0  0  0  0  0  0
    4.8509   -0.7146   -1.5246 C   0  0  0  0  0  0  0  0  0  0  0  0
    5.1906   -1.2236   -2.9033 C   0  0  0  0  0  0  0  0  0  0  0  0
    4.4944   -0.5972   -3.8931 F   0  0  0  0  0  0  0  0  0  0  0  0
    6.5065   -1.0673   -3.2207 F   0  0  0  0  0  0  0  0  0  0  0  0
    4.9271   -2.5519   -3.0432 F   0  0  0  0  0  0  0  0  0  0  0  0
    3.5722   -0.1996   -1.2486 C   0  0  0  0  0  0  0  0  0  0  0  0
   -3.2380    0.7373    1.0110 N   0  0  0  0  0  0  0  0  0  0  0  0
   -4.1585    0.1532    0.1423 C   0  0  0  0  0  0  0  0  0  0  0  0
   -5.1558   -0.7304    0.5377 C   0  0  0  0  0  0  0  0  0  0  0  0
   -6.0245   -1.2500   -0.4259 C   0  0  0  0  0  0  0  0  0  0  0  0
   -5.8721   -0.8722   -1.7515 C   0  0  0  0  0  0  0  0  0  0  0  0
   -6.9153   -1.4851   -2.9667 Cl  0  0  0  0  0  0  0  0  0  0  0  0
   -4.8541    0.0119   -2.0614 C   0  0  0  0  0  0  0  0  0  0  0  0
   -3.9983    0.5301   -1.1452 N   0  0  0  0  0  0  0  0  0  0  0  0
   -2.0684    2.4325    2.6736 H   0  0  0  0  0  0  0  0  0  0  0  0
   -2.1082    1.3747    4.0713 H   0  0  0  0  0  0  0  0  0  0  0  0
    1.5548    0.0487    2.2264 H   0  0  0  0  0  0  0  0  0  0  0  0
    1.4692    1.3709   -0.5692 H   0  0  0  0  0  0  0  0  0  0  0  0
    3.9821    0.5600    2.0472 H   0  0  0  0  0  0  0  0  0  0  0  0
    6.2109   -0.3681    1.5841 H   0  0  0  0  0  0  0  0  0  0  0  0
    6.7874   -1.1852   -0.6767 H   0  0  0  0  0  0  0  0  0  0  0  0
    2.8335   -0.1558   -2.0494 H   0  0  0  0  0  0  0  0  0  0  0  0
   -2.5751    1.3435    0.5288 H   0  0  0  0  0  0  0  0  0  0  0  0
   -5.2847   -1.0320    1.5704 H   0  0  0  0  0  0  0  0  0  0  0  0
   -6.8074   -1.9423   -0.1299 H   0  0  0  0  0  0  0  0  0  0  0  0
   -4.6858    0.3425   -3.0821 H   0  0  0  0  0  0  0  0  0  0  0  0
  1  2  2  0
  2  3  1  0
  3  4  1  0
  4  5  1  0
  5  6  2  0
  5  7  1  0
  7  8  2  3
  8  9  1  0
  9 10  2  0
 10 11  1  0
 11 12  2  0
 12 13  1  0
 13 14  1  0
 14 15  1  0
 14 16  1  0
 14 17  1  0
 13 18  2  0
  2 19  1  0
 19 20  1  0
 20 21  2  0
 21 22  1  0
 22 23  2  0
 23 24  1  0
 23 25  1  0
 25 26  2  0
 18  9  1  0
 26 20  1  0
  3 27  1  0
  3 28  1  0
  7 29  1  0
  8 30  1  0
 10 31  1  0
 11 32  1  0
 12 33  1  0
 18 34  1  0
 19 35  1  0
 21 36  1  0
 22 37  1  0
 25 38  1  0
M  END
$$$$
