
     RDKit          3D

 46 50  0  0  0  0  0  0  0  0999 V2000
   -8.1699   -1.6673    0.6753 C   0  0  0  0  0  0  0  0  0  0  0  0
   -6.6766   -1.4656    0.6315 C   0  0  0  0  0  0  0  0  0  0  0  0
   -5.8389   -2.5508    0.9447 C   0  0  0  0  0  0  0  0  0  0  0  0
   -4.4465   -2.4420    0.9261 C   0  0  0  0  0  0  0  0  0  0  0  0
   -3.9217   -1.1976    0.5797 C   0  0  0  0  0  0  0  0  0  0  0  0
   -4.7162   -0.0896    0.2606 C   0  0  0  0  0  0  0  0  0  0  0  0
   -3.9369    1.0160   -0.0440 N   0  0  0  0  0  0  0  0  0  0  0  0
   -2.7180    0.5774    0.0889 C   0  0  0  0  0  0  0  0  0  0  0  0
   -1.1782    1.3166   -0.1074 S   0  0  0  0  0  0  0  0  0  0  0  0
   -0.3974   -0.1811    0.3312 C   0  0  0  0  0  0  0  0  0  0  0  0
    0.9082   -0.4721    0.4007 C   0  0  0  0  0  0  0  0  0  0  0  0
    1.9972    0.4075    0.1470 C   0  0  0  0  0  0  0  0  0  0  0  0
    2.1472    1.7840    0.2666 C   0  0  0  0  0  0  0  0  0  0  0  0
    3.4719    2.1193   -0.1080 C   0  0  0  0  0  0  0  0  0  0  0  0
    4.0974    0.9349   -0.4207 C   0  0  0  0  0  0  0  0  0  0  0  0
    5.4345    0.5609   -0.8735 C   0  0  0  0  0  0  0  0  0  0  0  0
    5.5681   -0.4825   -1.8088 C   0  0  0  0  0  0  0  0  0  0  0  0
    6.8156   -0.8338   -2.3343 C   0  0  0  0  0  0  0  0  0  0  0  0
    7.9582   -0.1446   -1.9397 C   0  0  0  0  0  0  0  0  0  0  0  0
    7.8551    0.8851   -1.0071 C   0  0  0  0  0  0  0  0  0  0  0  0
    6.6046    1.2243   -0.4642 C   0  0  0  0  0  0  0  0  0  0  0  0
    6.6098    2.2905    0.5511 C   0  0  0  0  0  0  0  0  0  0  0  0
    7.0856    3.4012    0.4180 O   0  0  0  0  0  0  0  0  0  0  0  0
    6.0981    1.8607    1.7162 O   0  0  0  0  0  0  0  0  0  0  0  0
    3.2141   -0.0915   -0.2686 O   0  0  0  0  0  0  0  0  0  0  0  0
   -1.3863   -1.2632    0.6227 C   0  0  0  0  0  0  0  0  0  0  0  0
   -1.2027   -2.4207    0.9508 O   0  0  0  0  0  0  0  0  0  0  0  0
   -2.6415   -0.7224    0.4572 N   0  0  0  0  0  0  0  0  0  0  0  0
   -6.1243   -0.2042    0.2808 C   0  0  0  0  0  0  0  0  0  0  0  0
   -7.0107    0.9630   -0.0560 C   0  0  0  0  0  0  0  0  0  0  0  0
   -8.6077   -1.4801   -0.3103 H   0  0  0  0  0  0  0  0  0  0  0  0
   -8.4300   -2.6921    0.9610 H   0  0  0  0  0  0  0  0  0  0  0  0
   -8.6225   -0.9960    1.4119 H   0  0  0  0  0  0  0  0  0  0  0  0
   -6.2753   -3.5129    1.2120 H   0  0  0  0  0  0  0  0  0  0  0  0
   -3.8105   -3.2880    1.1701 H   0  0  0  0  0  0  0  0  0  0  0  0
    1.2015   -1.4940    0.6405 H   0  0  0  0  0  0  0  0  0  0  0  0
    1.3943    2.4849    0.5980 H   0  0  0  0  0  0  0  0  0  0  0  0
    3.9090    3.1077   -0.1403 H   0  0  0  0  0  0  0  0  0  0  0  0
    4.6867   -1.0235   -2.1509 H   0  0  0  0  0  0  0  0  0  0  0  0
    6.8891   -1.6406   -3.0598 H   0  0  0  0  0  0  0  0  0  0  0  0
    8.9274   -0.4113   -2.3540 H   0  0  0  0  0  0  0  0  0  0  0  0
    8.7503    1.4183   -0.6928 H   0  0  0  0  0  0  0  0  0  0  0  0
    6.1983    2.6190    2.3276 H   0  0  0  0  0  0  0  0  0  0  0  0
   -7.6350    0.7287   -0.9239 H   0  0  0  0  0  0  0  0  0  0  0  0
   -6.4246    1.8544   -0.3014 H   0  0  0  0  0  0  0  0  0  0  0  0
   -7.6511    1.2127    0.7957 H   0  0  0  0  0  0  0  0  0  0  0  0
  1  2  1  0
  2  3  2  0
  3  4  1  0
  4  5  2  0
  5  6  1  0
  6  7  1  0
  7  8  2  0
  8  9  1  0
  9 10  1  0
 10 11  2  3
 11 12  1  0
 12 13  2  0
 13 14  1  0
 14 15  2  0
 15 16  1  0
 16 17  2  0
 17 18  1  0
 18 19  2  0
 19 20  1  0
 20 21  2  0
 21 22  1  0
 22 23  2  0
 22 24  1  0
 15 25  1  0
 10 26  1  0
 26 27  2  0
 26 28  1  0
  6 29  2  0
 29 30  1  0
 29  2  1  0
 28  5  1  0
 28  8  1  0
 25 12  1  0
 21 16  1  0
  1 31  1  0
  1 32  1  0
  1 33  1  0
  3 34  1  0
  4 35  1  0
 11 36  1  0
 13 37  1  0
 14 38  1  0
 17 39  1  0
 18 40  1  0
 19 41  1  0
 20 42  1  0
 24 43  1  0
 30 44  1  0
 30 45  1  0
 30 46  1  0
M  END
$$$$
