
     RDKit          3D

 42 45  0  0  0  0  0  0  0  0999 V2000
   -1.0993    0.5519   -0.7518 O   0  0  0  0  0  0  0  0  0  0  0  0
   -1.5025    1.1282    0.2481 C   0  0  0  0  0  0  0  0  0  0  0  0
   -0.6373    1.5463    1.3903 C   0  0  0  0  0  0  0  0  0  0  0  0
    0.6533    1.2836    1.6386 C   0  0  0  0  0  0  0  0  0  0  0  0
    1.5189    0.4572    0.8741 C   0  0  0  0  0  0  0  0  0  0  0  0
    1.3115   -0.7443    0.2095 C   0  0  0  0  0  0  0  0  0  0  0  0
    2.5433   -1.1544   -0.3557 C   0  0  0  0  0  0  0  0  0  0  0  0
    3.4720   -0.2069    0.0071 C   0  0  0  0  0  0  0  0  0  0  0  0
    4.9000   -0.0078   -0.2272 C   0  0  0  0  0  0  0  0  0  0  0  0
    5.3642    1.3008   -0.4648 C   0  0  0  0  0  0  0  0  0  0  0  0
    6.7143    1.5611   -0.7140 C   0  0  0  0  0  0  0  0  0  0  0  0
    7.6308    0.5159   -0.7284 C   0  0  0  0  0  0  0  0  0  0  0  0
    7.1963   -0.7868   -0.4891 C   0  0  0  0  0  0  0  0  0  0  0  0
    5.8420   -1.0515   -0.2384 C   0  0  0  0  0  0  0  0  0  0  0  0
    5.4281   -2.7004    0.0909 Cl  0  0  0  0  0  0  0  0  0  0  0  0
    2.8589    0.7579    0.7520 O   0  0  0  0  0  0  0  0  0  0  0  0
   -1.5645    2.5376    2.4694 S   0  0  0  0  0  0  0  0  0  0  0  0
   -3.0538    2.3112    1.5700 C   0  0  0  0  0  0  0  0  0  0  0  0
   -4.5005    2.9764    2.0705 S   0  0  0  0  0  0  0  0  0  0  0  0
   -2.8108    1.5452    0.4530 N   0  0  0  0  0  0  0  0  0  0  0  0
   -3.8414    1.1107   -0.4967 C   0  0  0  0  0  0  0  0  0  0  0  0
   -4.5845   -0.1383   -0.0022 C   0  0  0  0  0  0  0  0  0  0  0  0
   -5.6242   -0.6381   -0.9933 C   0  0  0  0  0  0  0  0  0  0  0  0
   -5.7019   -2.1029   -0.6432 C   0  0  0  0  0  0  0  0  0  0  0  0
   -4.2558   -2.4266   -0.3368 C   0  0  0  0  0  0  0  0  0  0  0  0
   -3.6710   -1.2338    0.2055 O   0  0  0  0  0  0  0  0  0  0  0  0
    1.1268    1.7461    2.5021 H   0  0  0  0  0  0  0  0  0  0  0  0
    0.3702   -1.2723    0.1344 H   0  0  0  0  0  0  0  0  0  0  0  0
    2.7204   -2.0360   -0.9550 H   0  0  0  0  0  0  0  0  0  0  0  0
    4.6625    2.1340   -0.4638 H   0  0  0  0  0  0  0  0  0  0  0  0
    7.0447    2.5808   -0.8968 H   0  0  0  0  0  0  0  0  0  0  0  0
    8.6823    0.7137   -0.9205 H   0  0  0  0  0  0  0  0  0  0  0  0
    7.9212   -1.5975   -0.4922 H   0  0  0  0  0  0  0  0  0  0  0  0
   -4.5503    1.9284   -0.6639 H   0  0  0  0  0  0  0  0  0  0  0  0
   -3.3624    0.8940   -1.4585 H   0  0  0  0  0  0  0  0  0  0  0  0
   -5.0597    0.0532    0.9667 H   0  0  0  0  0  0  0  0  0  0  0  0
   -5.2708   -0.5260   -2.0255 H   0  0  0  0  0  0  0  0  0  0  0  0
   -6.5817   -0.1179   -0.9014 H   0  0  0  0  0  0  0  0  0  0  0  0
   -6.3147   -2.2376    0.2560 H   0  0  0  0  0  0  0  0  0  0  0  0
   -6.1193   -2.7246   -1.4394 H   0  0  0  0  0  0  0  0  0  0  0  0
   -4.1504   -3.2472    0.3783 H   0  0  0  0  0  0  0  0  0  0  0  0
   -3.7048   -2.6830   -1.2479 H   0  0  0  0  0  0  0  0  0  0  0  0
  1  2  2  0
  2  3  1  0
  3  4  2  3
  4  5  1  0
  5  6  2  0
  6  7  1  0
  7  8  2  0
  8  9  1  0
  9 10  2  0
 10 11  1  0
 11 12  2  0
 12 13  1  0
 13 14  2  0
 14 15  1  0
  8 16  1  0
  3 17  1  0
 17 18  1  0
 18 19  2  0
 18 20  1  0
 20 21  1  0
 21 22  1  0
 22 23  1  0
 23 24  1  0
 24 25  1  0
 25 26  1  0
 20  2  1  0
 26 22  1  0
 16  5  1  0
 14  9  1  0
  4 27  1  0
  6 28  1  0
  7 29  1  0
 10 30  1  0
 11 31  1  0
 12 32  1  0
 13 33  1  0
 21 34  1  0
 21 35  1  0
 22 36  1  0
 23 37  1  0
 23 38  1  0
 24 39  1  0
 24 40  1  0
 25 41  1  0
 25 42  1  0
M  END
$$$$
