
     RDKit          3D

 42 44  0  0  0  0  0  0  0  0999 V2000
   -5.1907    2.8105   -1.1733 C   0  0  0  0  0  0  0  0  0  0  0  0
   -4.9803    1.5522   -0.3503 C   0  0  0  0  0  0  0  0  0  0  0  0
   -3.6439    1.1048   -0.5687 O   0  0  0  0  0  0  0  0  0  0  0  0
   -3.2448   -0.0417    0.0783 C   0  0  0  0  0  0  0  0  0  0  0  0
   -4.0453   -0.7871    0.9492 C   0  0  0  0  0  0  0  0  0  0  0  0
   -3.5439   -1.9468    1.5432 C   0  0  0  0  0  0  0  0  0  0  0  0
   -2.2501   -2.3744    1.2589 C   0  0  0  0  0  0  0  0  0  0  0  0
   -1.4425   -1.6354    0.3923 C   0  0  0  0  0  0  0  0  0  0  0  0
   -1.9190   -0.4532   -0.1817 C   0  0  0  0  0  0  0  0  0  0  0  0
   -1.1674    0.3409   -1.0785 N   0  0  0  0  0  0  0  0  0  0  0  0
    0.1582    0.3766   -1.3988 C   0  0  0  0  0  0  0  0  0  0  0  0
    0.5914    1.1491   -2.8178 S   0  0  0  0  0  0  0  0  0  0  0  0
    1.0226   -0.1863   -0.5029 N   0  0  0  0  0  0  0  0  0  0  0  0
    2.4811   -0.2085   -0.5961 C   0  0  0  0  0  0  0  0  0  0  0  0
    3.1200    1.1169   -0.1267 C   0  0  0  0  0  0  0  0  0  0  0  0
    4.0495    0.6683    1.0162 C   0  0  0  0  0  0  0  0  0  0  0  0
    5.2231   -0.1318    0.4251 C   0  0  0  0  0  0  0  0  0  0  0  0
    4.5646   -1.4559    0.0089 C   0  0  0  0  0  0  0  0  0  0  0  0
    3.0882   -1.2386    0.3856 C   0  0  0  0  0  0  0  0  0  0  0  0
    3.2228   -0.4308    1.6790 C   0  0  0  0  0  0  0  0  0  0  0  0
   -5.0246    2.6079   -2.2365 H   0  0  0  0  0  0  0  0  0  0  0  0
   -4.4751    3.5863   -0.8812 H   0  0  0  0  0  0  0  0  0  0  0  0
   -6.2050    3.1977   -1.0415 H   0  0  0  0  0  0  0  0  0  0  0  0
   -5.6959    0.7885   -0.6758 H   0  0  0  0  0  0  0  0  0  0  0  0
   -5.1340    1.7882    0.7089 H   0  0  0  0  0  0  0  0  0  0  0  0
   -5.0635   -0.4967    1.1842 H   0  0  0  0  0  0  0  0  0  0  0  0
   -4.1713   -2.5269    2.2158 H   0  0  0  0  0  0  0  0  0  0  0  0
   -1.8729   -3.2950    1.6978 H   0  0  0  0  0  0  0  0  0  0  0  0
   -0.4652   -2.0357    0.1431 H   0  0  0  0  0  0  0  0  0  0  0  0
   -1.7384    0.9890   -1.6170 H   0  0  0  0  0  0  0  0  0  0  0  0
    0.6510   -0.2052    0.4376 H   0  0  0  0  0  0  0  0  0  0  0  0
    2.7602   -0.4409   -1.6296 H   0  0  0  0  0  0  0  0  0  0  0  0
    2.3679    1.8210    0.2482 H   0  0  0  0  0  0  0  0  0  0  0  0
    3.6749    1.6076   -0.9332 H   0  0  0  0  0  0  0  0  0  0  0  0
    4.3619    1.4845    1.6705 H   0  0  0  0  0  0  0  0  0  0  0  0
    5.6946    0.3774   -0.4214 H   0  0  0  0  0  0  0  0  0  0  0  0
    5.9914   -0.3165    1.1843 H   0  0  0  0  0  0  0  0  0  0  0  0
    4.9939   -2.2860    0.5814 H   0  0  0  0  0  0  0  0  0  0  0  0
    4.7032   -1.6689   -1.0557 H   0  0  0  0  0  0  0  0  0  0  0  0
    2.5192   -2.1670    0.4745 H   0  0  0  0  0  0  0  0  0  0  0  0
    2.2675   -0.0735    2.0760 H   0  0  0  0  0  0  0  0  0  0  0  0
    3.7667   -0.9648    2.4654 H   0  0  0  0  0  0  0  0  0  0  0  0
  1  2  1  0
  2  3  1  0
  3  4  1  0
  4  5  2  0
  5  6  1  0
  6  7  2  0
  7  8  1  0
  8  9  2  0
  9 10  1  0
 10 11  1  0
 11 12  2  0
 11 13  1  0
 13 14  1  0
 14 15  1  0
 15 16  1  0
 16 17  1  0
 17 18  1  0
 18 19  1  0
 19 20  1  0
  9  4  1  0
 19 14  1  0
 20 16  1  0
  1 21  1  0
  1 22  1  0
  1 23  1  0
  2 24  1  0
  2 25  1  0
  5 26  1  0
  6 27  1  0
  7 28  1  0
  8 29  1  0
 10 30  1  0
 13 31  1  0
 14 32  1  0
 15 33  1  0
 15 34  1  0
 16 35  1  0
 17 36  1  0
 17 37  1  0
 18 38  1  0
 18 39  1  0
 19 40  1  0
 20 41  1  0
 20 42  1  0
M  END
$$$$
