
     RDKit          3D

 40 43  0  0  0  0  0  0  0  0999 V2000
   -2.3069    0.6610   -4.3643 O   0  0  0  0  0  0  0  0  0  0  0  0
   -3.1644    0.4881   -3.5107 C   0  0  0  0  0  0  0  0  0  0  0  0
   -4.4781    0.1593   -3.7190 N   0  0  0  0  0  0  0  0  0  0  0  0
   -4.9671   -0.0123   -2.5390 C   0  0  0  0  0  0  0  0  0  0  0  0
   -6.3515   -0.3910   -2.1988 C   0  0  0  0  0  0  0  0  0  0  0  0
   -6.6740   -0.5482   -0.9050 C   0  0  0  0  0  0  0  0  0  0  0  0
   -5.7133   -0.3715    0.1689 C   0  0  0  0  0  0  0  0  0  0  0  0
   -4.4416   -0.0125   -0.0731 C   0  0  0  0  0  0  0  0  0  0  0  0
   -4.0220    0.2027   -1.4302 C   0  0  0  0  0  0  0  0  0  0  0  0
   -2.8935    0.5664   -2.0488 C   0  0  0  0  0  0  0  0  0  0  0  0
   -1.6325    0.9101   -1.4930 C   0  0  0  0  0  0  0  0  0  0  0  0
   -1.5051    1.7973   -0.0033 S   0  0  0  0  0  0  0  0  0  0  0  0
    0.1844    1.6620   -0.0636 C   0  0  0  0  0  0  0  0  0  0  0  0
    1.0437    2.1942    0.9687 N   0  0  0  0  0  0  0  0  0  0  0  0
    1.8587    0.9818    1.8102 S   0  0  0  0  0  6  0  0  0  0  0  0
    0.9685   -0.1555    1.9317 O   0  0  0  0  0  0  0  0  0  0  0  0
    2.3467    1.6540    2.9998 O   0  0  0  0  0  0  0  0  0  0  0  0
    3.2441    0.6085    0.7168 C   0  0  0  0  0  0  0  0  0  0  0  0
    4.1460   -0.3899    1.3968 C   0  0  0  0  0  0  0  0  0  0  0  0
    5.1968    0.0397    2.2200 C   0  0  0  0  0  0  0  0  0  0  0  0
    6.0253   -0.8889    2.8517 C   0  0  0  0  0  0  0  0  0  0  0  0
    5.8122   -2.2536    2.6689 C   0  0  0  0  0  0  0  0  0  0  0  0
    4.7686   -2.6922    1.8566 C   0  0  0  0  0  0  0  0  0  0  0  0
    3.9382   -1.7662    1.2240 C   0  0  0  0  0  0  0  0  0  0  0  0
    0.6887    1.1138   -1.1317 N   0  0  0  0  0  0  0  0  0  0  0  0
   -0.3317    0.7171   -1.9642 C   0  0  0  0  0  0  0  0  0  0  0  0
   -0.0364    0.1472   -3.1479 O   0  0  0  0  0  0  0  0  0  0  0  0
   -7.0573   -0.5296   -3.0076 H   0  0  0  0  0  0  0  0  0  0  0  0
   -7.6864   -0.8286   -0.6254 H   0  0  0  0  0  0  0  0  0  0  0  0
   -6.0550   -0.5508    1.1853 H   0  0  0  0  0  0  0  0  0  0  0  0
   -3.7407    0.0905    0.7470 H   0  0  0  0  0  0  0  0  0  0  0  0
    0.5732    2.8096    1.6287 H   0  0  0  0  0  0  0  0  0  0  0  0
    3.7761    1.5424    0.5114 H   0  0  0  0  0  0  0  0  0  0  0  0
    2.8616    0.1977   -0.2199 H   0  0  0  0  0  0  0  0  0  0  0  0
    5.3725    1.1012    2.3844 H   0  0  0  0  0  0  0  0  0  0  0  0
    6.8346   -0.5467    3.4916 H   0  0  0  0  0  0  0  0  0  0  0  0
    6.4561   -2.9757    3.1639 H   0  0  0  0  0  0  0  0  0  0  0  0
    4.5977   -3.7567    1.7186 H   0  0  0  0  0  0  0  0  0  0  0  0
    3.1226   -2.1276    0.5995 H   0  0  0  0  0  0  0  0  0  0  0  0
   -0.7589    0.2669   -3.7992 H   0  0  0  0  0  0  0  0  0  0  0  0
  1  2  2  0
  2  3  1  0
  3  4  2  0
  4  5  1  0
  5  6  2  0
  6  7  1  0
  7  8  2  0
  8  9  1  0
  9 10  2  0
 10 11  1  0
 11 12  1  0
 12 13  1  0
 13 14  1  0
 14 15  1  0
 15 16  2  0
 15 17  2  0
 15 18  1  0
 18 19  1  0
 19 20  2  0
 20 21  1  0
 21 22  2  0
 22 23  1  0
 23 24  2  0
 13 25  2  0
 25 26  1  0
 26 27  1  0
 10  2  1  0
 26 11  2  0
  9  4  1  0
 24 19  1  0
  5 28  1  0
  6 29  1  0
  7 30  1  0
  8 31  1  0
 14 32  1  0
 18 33  1  0
 18 34  1  0
 20 35  1  0
 21 36  1  0
 22 37  1  0
 23 38  1  0
 24 39  1  0
 27 40  1  0
M  END
$$$$
