
     RDKit          3D

 35 37  0  0  0  0  0  0  0  0999 V2000
    5.2700   -2.0455    1.1384 C   0  0  0  0  0  0  0  0  0  0  0  0
    4.0507   -1.1698    1.2345 C   0  0  0  0  0  0  0  0  0  0  0  0
    3.0727   -1.4576    2.1987 C   0  0  0  0  0  0  0  0  0  0  0  0
    1.9307   -0.6633    2.3159 C   0  0  0  0  0  0  0  0  0  0  0  0
    1.7387    0.4240    1.4655 C   0  0  0  0  0  0  0  0  0  0  0  0
    0.6011    1.2320    1.5946 N   0  0  0  0  0  0  0  0  0  0  0  0
   -0.4536    0.9535    0.9103 C   0  0  0  0  0  0  0  0  0  0  0  0
   -1.5572    1.7279    1.0288 N   0  0  0  0  0  0  0  0  0  0  0  0
   -2.6680    1.3955    0.3071 C   0  0  0  0  0  0  0  0  0  0  0  0
   -3.7188    2.0094    0.3816 O   0  0  0  0  0  0  0  0  0  0  0  0
   -2.3841    0.1945   -0.5357 C   0  0  0  0  0  0  0  0  0  0  0  0
   -3.1721   -0.4722   -1.3915 C   0  0  0  0  0  0  0  0  0  0  0  0
   -4.5119   -0.1349   -1.7312 C   0  0  0  0  0  0  0  0  0  0  0  0
   -5.0998    1.0794   -2.0407 C   0  0  0  0  0  0  0  0  0  0  0  0
   -6.4867    0.9696   -2.3525 C   0  0  0  0  0  0  0  0  0  0  0  0
   -6.9235   -0.3323   -2.2966 C   0  0  0  0  0  0  0  0  0  0  0  0
   -5.6673   -1.4101   -1.8799 S   0  0  0  0  0  0  0  0  0  0  0  0
   -0.7496   -0.3309   -0.2261 S   0  0  0  0  0  0  0  0  0  0  0  0
    2.7198    0.7307    0.5190 C   0  0  0  0  0  0  0  0  0  0  0  0
    3.8758   -0.0574    0.3872 C   0  0  0  0  0  0  0  0  0  0  0  0
    4.8991    0.3065   -0.6530 C   0  0  0  0  0  0  0  0  0  0  0  0
    5.3548   -2.4722    0.1340 H   0  0  0  0  0  0  0  0  0  0  0  0
    5.2223   -2.8803    1.8458 H   0  0  0  0  0  0  0  0  0  0  0  0
    6.1709   -1.4679    1.3679 H   0  0  0  0  0  0  0  0  0  0  0  0
    3.1946   -2.3035    2.8717 H   0  0  0  0  0  0  0  0  0  0  0  0
    1.1887   -0.8941    3.0747 H   0  0  0  0  0  0  0  0  0  0  0  0
   -1.5678    2.5091    1.6639 H   0  0  0  0  0  0  0  0  0  0  0  0
   -2.7766   -1.3700   -1.8653 H   0  0  0  0  0  0  0  0  0  0  0  0
   -4.5638    2.0213   -2.0389 H   0  0  0  0  0  0  0  0  0  0  0  0
   -7.1268    1.8059   -2.6050 H   0  0  0  0  0  0  0  0  0  0  0  0
   -7.9206   -0.7050   -2.4860 H   0  0  0  0  0  0  0  0  0  0  0  0
    2.5752    1.5982   -0.1204 H   0  0  0  0  0  0  0  0  0  0  0  0
    4.6085    1.2061   -1.2060 H   0  0  0  0  0  0  0  0  0  0  0  0
    5.8660    0.5088   -0.1815 H   0  0  0  0  0  0  0  0  0  0  0  0
    5.0085   -0.5055   -1.3787 H   0  0  0  0  0  0  0  0  0  0  0  0
  1  2  1  0
  2  3  2  0
  3  4  1  0
  4  5  2  0
  5  6  1  0
  6  7  2  3
  7  8  1  0
  8  9  1  0
  9 10  2  0
  9 11  1  0
 11 12  2  3
 12 13  1  0
 13 14  2  0
 14 15  1  0
 15 16  2  0
 16 17  1  0
 11 18  1  0
  5 19  1  0
 19 20  2  0
 20 21  1  0
 20  2  1  0
 18  7  1  0
 17 13  1  0
  1 22  1  0
  1 23  1  0
  1 24  1  0
  3 25  1  0
  4 26  1  0
  8 27  1  0
 12 28  1  0
 14 29  1  0
 15 30  1  0
 16 31  1  0
 19 32  1  0
 21 33  1  0
 21 34  1  0
 21 35  1  0
M  END
$$$$
