
     RDKit          3D

 50 51  0  0  0  0  0  0  0  0999 V2000
    8.8253   -1.2834    1.8456 C   0  0  0  0  0  0  0  0  0  0  0  0
    7.6300   -1.0602    1.0969 O   0  0  0  0  0  0  0  0  0  0  0  0
    7.0359    0.1325    1.3501 C   0  0  0  0  0  0  0  0  0  0  0  0
    7.4379    0.9782    2.1341 O   0  0  0  0  0  0  0  0  0  0  0  0
    5.7985    0.2887    0.5376 C   0  0  0  0  0  0  0  0  0  0  0  0
    5.3539   -0.6951   -0.3540 C   0  0  0  0  0  0  0  0  0  0  0  0
    4.1823   -0.4975   -1.0905 C   0  0  0  0  0  0  0  0  0  0  0  0
    3.4411    0.6851   -0.9521 C   0  0  0  0  0  0  0  0  0  0  0  0
    2.1647    0.8745   -1.7314 C   0  0  0  0  0  0  0  0  0  0  0  0
    1.0633    0.2158   -1.0708 N   0  0  0  0  0  0  0  0  0  0  0  0
    0.6169   -1.0299   -1.4560 C   0  0  0  0  0  0  0  0  0  0  0  0
    1.0761   -1.6489   -2.4121 O   0  0  0  0  0  0  0  0  0  0  0  0
   -0.4603   -1.6228   -0.5445 C   0  0  0  0  0  0  0  0  0  0  0  0
   -1.1287   -0.6644    0.2804 O   0  0  0  0  0  0  0  0  0  0  0  0
   -2.1384    0.0098   -0.3409 C   0  0  0  0  0  0  0  0  0  0  0  0
   -2.4457   -0.1168   -1.5160 O   0  0  0  0  0  0  0  0  0  0  0  0
   -2.7810    0.9704    0.6332 C   0  0  0  0  0  0  0  0  0  0  0  0
   -4.2216    1.3376    0.2689 C   0  0  0  0  0  0  0  0  0  0  0  0
   -5.2783    0.3870    0.8674 C   0  0  0  0  0  0  0  0  0  0  0  0
   -5.2712   -1.0313    0.2982 C   0  0  0  0  0  0  0  0  0  0  0  0
   -6.0196   -0.9231   -1.0250 C   0  0  0  0  0  0  0  0  0  0  0  0
   -6.9789    0.2555   -0.8639 C   0  0  0  0  0  0  0  0  0  0  0  0
   -6.6970    0.8467    0.5157 C   0  0  0  0  0  0  0  0  0  0  0  0
    3.8850    1.6641   -0.0535 C   0  0  0  0  0  0  0  0  0  0  0  0
    5.0567    1.4686    0.6832 C   0  0  0  0  0  0  0  0  0  0  0  0
    9.2130   -2.2700    1.5778 H   0  0  0  0  0  0  0  0  0  0  0  0
    8.6132   -1.2752    2.9193 H   0  0  0  0  0  0  0  0  0  0  0  0
    9.5810   -0.5332    1.5932 H   0  0  0  0  0  0  0  0  0  0  0  0
    5.9053   -1.6226   -0.4868 H   0  0  0  0  0  0  0  0  0  0  0  0
    3.8439   -1.2750   -1.7754 H   0  0  0  0  0  0  0  0  0  0  0  0
    1.9133    1.9386   -1.8005 H   0  0  0  0  0  0  0  0  0  0  0  0
    2.2848    0.5021   -2.7550 H   0  0  0  0  0  0  0  0  0  0  0  0
    0.7642    0.5669   -0.1707 H   0  0  0  0  0  0  0  0  0  0  0  0
   -1.1792   -2.1874   -1.1495 H   0  0  0  0  0  0  0  0  0  0  0  0
    0.0365   -2.3324    0.1253 H   0  0  0  0  0  0  0  0  0  0  0  0
   -2.1637    1.8763    0.6223 H   0  0  0  0  0  0  0  0  0  0  0  0
   -2.7446    0.5496    1.6442 H   0  0  0  0  0  0  0  0  0  0  0  0
   -4.3395    1.4233   -0.8174 H   0  0  0  0  0  0  0  0  0  0  0  0
   -4.4163    2.3392    0.6749 H   0  0  0  0  0  0  0  0  0  0  0  0
   -5.1511    0.3627    1.9561 H   0  0  0  0  0  0  0  0  0  0  0  0
   -5.8314   -1.6931    0.9716 H   0  0  0  0  0  0  0  0  0  0  0  0
   -4.2775   -1.4673    0.1812 H   0  0  0  0  0  0  0  0  0  0  0  0
   -6.5492   -1.8508   -1.2633 H   0  0  0  0  0  0  0  0  0  0  0  0
   -5.3210   -0.7245   -1.8456 H   0  0  0  0  0  0  0  0  0  0  0  0
   -8.0243   -0.0579   -0.9518 H   0  0  0  0  0  0  0  0  0  0  0  0
   -6.7936    0.9985   -1.6478 H   0  0  0  0  0  0  0  0  0  0  0  0
   -7.4074    0.4273    1.2393 H   0  0  0  0  0  0  0  0  0  0  0  0
   -6.8183    1.9341    0.5306 H   0  0  0  0  0  0  0  0  0  0  0  0
    3.3254    2.5876    0.0788 H   0  0  0  0  0  0  0  0  0  0  0  0
    5.3895    2.2421    1.3735 H   0  0  0  0  0  0  0  0  0  0  0  0
  1  2  1  0
  2  3  1  0
  3  4  2  0
  3  5  1  0
  5  6  2  0
  6  7  1  0
  7  8  2  0
  8  9  1  0
  9 10  1  0
 10 11  1  0
 11 12  2  0
 11 13  1  0
 13 14  1  0
 14 15  1  0
 15 16  2  0
 15 17  1  0
 17 18  1  0
 18 19  1  0
 19 20  1  0
 20 21  1  0
 21 22  1  0
 22 23  1  0
  8 24  1  0
 24 25  2  0
 25  5  1  0
 23 19  1  0
  1 26  1  0
  1 27  1  0
  1 28  1  0
  6 29  1  0
  7 30  1  0
  9 31  1  0
  9 32  1  0
 10 33  1  0
 13 34  1  0
 13 35  1  0
 17 36  1  0
 17 37  1  0
 18 38  1  0
 18 39  1  0
 19 40  1  0
 20 41  1  0
 20 42  1  0
 21 43  1  0
 21 44  1  0
 22 45  1  0
 22 46  1  0
 23 47  1  0
 23 48  1  0
 24 49  1  0
 25 50  1  0
M  END
$$$$
