
     RDKit          3D

 49 51  0  0  0  0  0  0  0  0999 V2000
    7.7193    0.0307   -1.3042 C   0  0  0  0  0  0  0  0  0  0  0  0
    6.2467   -0.2464   -1.0562 C   0  0  0  0  0  0  0  0  0  0  0  0
    5.4952    1.1512   -0.1723 S   0  0  0  0  0  0  0  0  0  0  0  0
    3.8422    0.6002   -0.0274 C   0  0  0  0  0  0  0  0  0  0  0  0
    3.4868   -0.5569   -0.4699 N   0  0  0  0  0  0  0  0  0  0  0  0
    2.1705   -0.9275   -0.3137 C   0  0  0  0  0  0  0  0  0  0  0  0
    1.7746   -2.0583   -0.5793 O   0  0  0  0  0  0  0  0  0  0  0  0
    1.1970    0.0826    0.2060 C   0  0  0  0  0  0  0  0  0  0  0  0
    1.6631    1.2545    0.6691 C   0  0  0  0  0  0  0  0  0  0  0  0
    3.0047    1.4789    0.5716 N   0  0  0  0  0  0  0  0  0  0  0  0
    0.8333    2.2114    1.1960 N   0  0  0  0  0  0  0  0  0  0  0  0
   -0.3746    1.8856    1.5560 C   0  0  0  0  0  0  0  0  0  0  0  0
   -1.1998    2.9653    2.2154 C   0  0  0  0  0  0  0  0  0  0  0  0
   -0.9342    0.4784    1.4249 C   0  0  0  0  0  0  0  0  0  0  0  0
   -2.4372    0.3490    1.3410 C   0  0  0  0  0  0  0  0  0  0  0  0
   -3.2166    1.2659    1.1290 O   0  0  0  0  0  0  0  0  0  0  0  0
   -2.7998   -0.9502    1.5449 O   0  0  0  0  0  0  0  0  0  0  0  0
   -4.2076   -1.2427    1.4463 C   0  0  0  0  0  0  0  0  0  0  0  0
   -4.5882   -1.4374   -0.0171 C   0  0  0  0  0  0  0  0  0  0  0  0
   -4.4565   -2.5178    2.2422 C   0  0  0  0  0  0  0  0  0  0  0  0
   -0.2594   -0.2731    0.2580 C   0  0  0  0  0  0  0  0  0  0  0  0
   -0.9057   -0.0889   -1.1135 C   0  0  0  0  0  0  0  0  0  0  0  0
   -1.1503   -1.2140   -1.9127 C   0  0  0  0  0  0  0  0  0  0  0  0
   -1.7314   -1.0431   -3.1596 C   0  0  0  0  0  0  0  0  0  0  0  0
   -2.0832    0.1568   -3.6635 N   0  0  0  0  0  0  0  0  0  0  0  0
   -1.8263    1.2333   -2.8929 C   0  0  0  0  0  0  0  0  0  0  0  0
   -1.2421    1.1653   -1.6358 C   0  0  0  0  0  0  0  0  0  0  0  0
    7.8626    0.9256   -1.9193 H   0  0  0  0  0  0  0  0  0  0  0  0
    8.2683    0.1608   -0.3653 H   0  0  0  0  0  0  0  0  0  0  0  0
    8.1717   -0.8123   -1.8371 H   0  0  0  0  0  0  0  0  0  0  0  0
    6.1425   -1.1582   -0.4594 H   0  0  0  0  0  0  0  0  0  0  0  0
    5.7367   -0.3932   -2.0136 H   0  0  0  0  0  0  0  0  0  0  0  0
    3.3299    2.3983    0.8360 H   0  0  0  0  0  0  0  0  0  0  0  0
   -0.5513    3.7698    2.5756 H   0  0  0  0  0  0  0  0  0  0  0  0
   -1.7453    2.5537    3.0684 H   0  0  0  0  0  0  0  0  0  0  0  0
   -1.8996    3.3868    1.4897 H   0  0  0  0  0  0  0  0  0  0  0  0
   -0.6423    0.0016    2.3742 H   0  0  0  0  0  0  0  0  0  0  0  0
   -4.7984   -0.4335    1.8922 H   0  0  0  0  0  0  0  0  0  0  0  0
   -3.9799   -2.2232   -0.4783 H   0  0  0  0  0  0  0  0  0  0  0  0
   -4.4095   -0.5237   -0.5931 H   0  0  0  0  0  0  0  0  0  0  0  0
   -5.6440   -1.7063   -0.1188 H   0  0  0  0  0  0  0  0  0  0  0  0
   -5.5119   -2.8054    2.2139 H   0  0  0  0  0  0  0  0  0  0  0  0
   -4.1610   -2.3773    3.2876 H   0  0  0  0  0  0  0  0  0  0  0  0
   -3.8549   -3.3477    1.8547 H   0  0  0  0  0  0  0  0  0  0  0  0
   -0.3481   -1.3381    0.5185 H   0  0  0  0  0  0  0  0  0  0  0  0
   -0.8840   -2.2142   -1.5815 H   0  0  0  0  0  0  0  0  0  0  0  0
   -1.9311   -1.8943   -3.8043 H   0  0  0  0  0  0  0  0  0  0  0  0
   -2.1083    2.1890   -3.3260 H   0  0  0  0  0  0  0  0  0  0  0  0
   -1.0626    2.0887   -1.0966 H   0  0  0  0  0  0  0  0  0  0  0  0
  1  2  1  0
  2  3  1  0
  3  4  1  0
  4  5  2  0
  5  6  1  0
  6  7  2  0
  6  8  1  0
  8  9  2  0
  9 10  1  0
  9 11  1  0
 11 12  2  0
 12 13  1  0
 12 14  1  0
 14 15  1  0
 15 16  2  0
 15 17  1  0
 17 18  1  0
 18 19  1  0
 18 20  1  0
 14 21  1  0
 21 22  1  0
 22 23  2  0
 23 24  1  0
 24 25  2  0
 25 26  1  0
 26 27  2  0
 10  4  1  0
 27 22  1  0
 21  8  1  0
  1 28  1  0
  1 29  1  0
  1 30  1  0
  2 31  1  0
  2 32  1  0
 10 33  1  0
 13 34  1  0
 13 35  1  0
 13 36  1  0
 14 37  1  0
 18 38  1  0
 19 39  1  0
 19 40  1  0
 19 41  1  0
 20 42  1  0
 20 43  1  0
 20 44  1  0
 21 45  1  0
 23 46  1  0
 24 47  1  0
 26 48  1  0
 27 49  1  0
M  END
$$$$
