
     RDKit          3D

 46 48  0  0  0  0  0  0  0  0999 V2000
   -2.9783    5.1570   -1.2113 C   0  0  0  0  0  0  0  0  0  0  0  0
   -2.8432    4.3632    0.0735 C   0  0  0  0  0  0  0  0  0  0  0  0
   -1.6042    3.6466    0.0277 O   0  0  0  0  0  0  0  0  0  0  0  0
   -1.3948    2.8579    1.1026 C   0  0  0  0  0  0  0  0  0  0  0  0
   -2.1147    2.6999    2.0694 O   0  0  0  0  0  0  0  0  0  0  0  0
   -0.0652    2.1691    0.9445 C   0  0  0  0  0  0  0  0  0  0  0  0
    0.8878    2.2493    1.8292 N   0  0  0  0  0  0  0  0  0  0  0  0
    1.9203    1.4907    1.3392 N   0  0  0  0  0  0  0  0  0  0  0  0
    1.7236    1.1898   -0.0785 C   0  0  0  0  0  0  0  0  0  0  0  0
    2.3332   -0.0806   -0.6759 C   0  0  0  0  0  0  0  0  0  0  0  0
    2.3208   -0.2525   -1.8990 O   0  0  0  0  0  0  0  0  0  0  0  0
    2.9882   -1.1131    0.1744 C   0  0  0  0  0  0  0  0  0  0  0  0
    2.5485   -1.4297    1.4628 C   0  0  0  0  0  0  0  0  0  0  0  0
    3.1999   -2.4199    2.2037 C   0  0  0  0  0  0  0  0  0  0  0  0
    4.2851   -3.1045    1.6585 C   0  0  0  0  0  0  0  0  0  0  0  0
    4.7173   -2.8087    0.3674 C   0  0  0  0  0  0  0  0  0  0  0  0
    4.0680   -1.8203   -0.3748 C   0  0  0  0  0  0  0  0  0  0  0  0
    0.2052    1.3341   -0.2771 C   0  0  0  0  0  0  0  0  0  0  0  0
   -0.6079    0.0542   -0.3171 C   0  0  0  0  0  0  0  0  0  0  0  0
   -1.0497   -0.6052    0.8379 C   0  0  0  0  0  0  0  0  0  0  0  0
   -1.7843   -1.7908    0.7429 C   0  0  0  0  0  0  0  0  0  0  0  0
   -2.0869   -2.3486   -0.4994 C   0  0  0  0  0  0  0  0  0  0  0  0
   -2.8059   -3.5103   -0.4468 O   0  0  0  0  0  0  0  0  0  0  0  0
   -3.1174   -4.1288   -1.6888 C   0  0  0  0  0  0  0  0  0  0  0  0
   -1.6470   -1.7058   -1.6538 C   0  0  0  0  0  0  0  0  0  0  0  0
   -0.9151   -0.5160   -1.5622 C   0  0  0  0  0  0  0  0  0  0  0  0
   -2.9629    4.4890   -2.0792 H   0  0  0  0  0  0  0  0  0  0  0  0
   -2.1384    5.8503   -1.3286 H   0  0  0  0  0  0  0  0  0  0  0  0
   -3.9116    5.7270   -1.2212 H   0  0  0  0  0  0  0  0  0  0  0  0
   -2.8427    5.0437    0.9322 H   0  0  0  0  0  0  0  0  0  0  0  0
   -3.6783    3.6588    0.1612 H   0  0  0  0  0  0  0  0  0  0  0  0
    2.8425    1.7343    1.7046 H   0  0  0  0  0  0  0  0  0  0  0  0
    2.2301    2.0210   -0.5912 H   0  0  0  0  0  0  0  0  0  0  0  0
    1.6906   -0.9365    1.9090 H   0  0  0  0  0  0  0  0  0  0  0  0
    2.8521   -2.6630    3.2051 H   0  0  0  0  0  0  0  0  0  0  0  0
    4.7864   -3.8773    2.2364 H   0  0  0  0  0  0  0  0  0  0  0  0
    5.5544   -3.3511   -0.0653 H   0  0  0  0  0  0  0  0  0  0  0  0
    4.4069   -1.6051   -1.3866 H   0  0  0  0  0  0  0  0  0  0  0  0
   -0.0026    1.9316   -1.1729 H   0  0  0  0  0  0  0  0  0  0  0  0
   -0.8317   -0.2190    1.8328 H   0  0  0  0  0  0  0  0  0  0  0  0
   -2.1215   -2.2873    1.6504 H   0  0  0  0  0  0  0  0  0  0  0  0
   -3.6827   -5.0411   -1.4752 H   0  0  0  0  0  0  0  0  0  0  0  0
   -3.7508   -3.4816   -2.3044 H   0  0  0  0  0  0  0  0  0  0  0  0
   -2.2078   -4.4188   -2.2252 H   0  0  0  0  0  0  0  0  0  0  0  0
   -1.8473   -2.1040   -2.6429 H   0  0  0  0  0  0  0  0  0  0  0  0
   -0.5679   -0.0478   -2.4827 H   0  0  0  0  0  0  0  0  0  0  0  0
  1  2  1  0
  2  3  1  0
  3  4  1  0
  4  5  2  0
  4  6  1  0
  6  7  2  0
  7  8  1  0
  8  9  1  0
  9 10  1  0
 10 11  2  0
 10 12  1  0
 12 13  2  0
 13 14  1  0
 14 15  2  0
 15 16  1  0
 16 17  2  0
  9 18  1  0
 18 19  1  0
 19 20  2  0
 20 21  1  0
 21 22  2  0
 22 23  1  0
 23 24  1  0
 22 25  1  0
 25 26  2  0
 18  6  1  0
 26 19  1  0
 17 12  1  0
  1 27  1  0
  1 28  1  0
  1 29  1  0
  2 30  1  0
  2 31  1  0
  8 32  1  0
  9 33  1  0
 13 34  1  0
 14 35  1  0
 15 36  1  0
 16 37  1  0
 17 38  1  0
 18 39  1  0
 20 40  1  0
 21 41  1  0
 24 42  1  0
 24 43  1  0
 24 44  1  0
 25 45  1  0
 26 46  1  0
M  END
$$$$
