
     RDKit          3D

 58 62  0  0  0  0  0  0  0  0999 V2000
   -5.1597    4.1311   -0.4782 C   0  0  0  0  0  0  0  0  0  0  0  0
   -4.2810    3.3097   -1.2393 O   0  0  0  0  0  0  0  0  0  0  0  0
   -3.4106    2.5204   -0.5393 C   0  0  0  0  0  0  0  0  0  0  0  0
   -2.5723    1.7321   -1.3336 C   0  0  0  0  0  0  0  0  0  0  0  0
   -1.6379    0.8716   -0.7518 C   0  0  0  0  0  0  0  0  0  0  0  0
   -1.5480    0.7896    0.6414 C   0  0  0  0  0  0  0  0  0  0  0  0
   -0.5609   -0.1167    1.2865 C   0  0  0  0  0  0  0  0  0  0  0  0
    0.1160    0.3241    2.2922 N   0  0  0  0  0  0  0  0  0  0  0  0
    1.1379   -0.5470    2.8698 C   0  0  0  0  0  0  0  0  0  0  0  0
    2.3080   -0.6953    1.8969 C   0  0  0  0  0  0  0  0  0  0  0  0
    3.3814   -0.1198    2.1122 O   0  0  0  0  0  0  0  0  0  0  0  0
    2.1383   -1.5573    0.8077 N   0  0  0  0  0  0  0  0  0  0  0  0
    3.3169   -1.7481   -0.0402 C   0  0  0  0  0  0  0  0  0  0  0  0
    3.3683   -0.6205   -1.0777 C   0  0  0  0  0  0  0  0  0  0  0  0
    2.3921   -0.2864   -1.7498 O   0  0  0  0  0  0  0  0  0  0  0  0
    4.6110   -0.0244   -1.2084 N   0  0  0  0  0  0  0  0  0  0  0  0
    4.7755    1.1764   -2.0017 C   0  0  0  0  0  0  0  0  0  0  0  0
    4.6709    2.3524   -1.0996 C   0  0  0  0  0  0  0  0  0  0  0  0
    3.6177    2.9378   -0.4228 C   0  0  0  0  0  0  0  0  0  0  0  0
    4.1659    4.0186    0.3104 C   0  0  0  0  0  0  0  0  0  0  0  0
    5.5140    4.0292    0.0294 C   0  0  0  0  0  0  0  0  0  0  0  0
    5.8313    3.0197   -0.8241 O   0  0  0  0  0  0  0  0  0  0  0  0
    0.8585   -2.0234    0.4865 C   0  0  0  0  0  0  0  0  0  0  0  0
    0.7441   -3.5083   -0.3493 S   0  0  0  0  0  0  0  0  0  0  0  0
   -0.9466   -3.5100   -0.2577 C   0  0  0  0  0  0  0  0  0  0  0  0
   -1.4470   -2.3716    0.3455 C   0  0  0  0  0  0  0  0  0  0  0  0
   -0.3863   -1.4633    0.7346 C   0  0  0  0  0  0  0  0  0  0  0  0
   -2.9295   -2.1739    0.5224 C   0  0  0  0  0  0  0  0  0  0  0  0
   -3.7033   -3.4948    0.3848 C   0  0  0  0  0  0  0  0  0  0  0  0
   -3.2462   -4.2813   -0.8507 C   0  0  0  0  0  0  0  0  0  0  0  0
   -1.7610   -4.6625   -0.7626 C   0  0  0  0  0  0  0  0  0  0  0  0
   -2.3649    1.5945    1.4409 C   0  0  0  0  0  0  0  0  0  0  0  0
   -3.2997    2.4534    0.8511 C   0  0  0  0  0  0  0  0  0  0  0  0
   -5.8197    3.5249    0.1522 H   0  0  0  0  0  0  0  0  0  0  0  0
   -4.6009    4.8605    0.1188 H   0  0  0  0  0  0  0  0  0  0  0  0
   -5.7886    4.6868   -1.1802 H   0  0  0  0  0  0  0  0  0  0  0  0
   -2.6419    1.7947   -2.4172 H   0  0  0  0  0  0  0  0  0  0  0  0
   -0.9809    0.2862   -1.3918 H   0  0  0  0  0  0  0  0  0  0  0  0
    1.5202   -0.0742    3.7817 H   0  0  0  0  0  0  0  0  0  0  0  0
    0.7470   -1.5236    3.1780 H   0  0  0  0  0  0  0  0  0  0  0  0
    3.3040   -2.7049   -0.5680 H   0  0  0  0  0  0  0  0  0  0  0  0
    4.2218   -1.7437    0.5782 H   0  0  0  0  0  0  0  0  0  0  0  0
    5.2583   -0.1215   -0.4334 H   0  0  0  0  0  0  0  0  0  0  0  0
    5.7674    1.1260   -2.4656 H   0  0  0  0  0  0  0  0  0  0  0  0
    4.0239    1.2268   -2.7967 H   0  0  0  0  0  0  0  0  0  0  0  0
    2.5870    2.6048   -0.4428 H   0  0  0  0  0  0  0  0  0  0  0  0
    3.6431    4.6978    0.9706 H   0  0  0  0  0  0  0  0  0  0  0  0
    6.3412    4.6505    0.3473 H   0  0  0  0  0  0  0  0  0  0  0  0
   -3.2896   -1.4762   -0.2424 H   0  0  0  0  0  0  0  0  0  0  0  0
   -3.1404   -1.7332    1.5035 H   0  0  0  0  0  0  0  0  0  0  0  0
   -3.5497   -4.1091    1.2808 H   0  0  0  0  0  0  0  0  0  0  0  0
   -4.7767   -3.2838    0.3196 H   0  0  0  0  0  0  0  0  0  0  0  0
   -3.8508   -5.1886   -0.9646 H   0  0  0  0  0  0  0  0  0  0  0  0
   -3.4144   -3.6694   -1.7466 H   0  0  0  0  0  0  0  0  0  0  0  0
   -1.4101   -4.9915   -1.7477 H   0  0  0  0  0  0  0  0  0  0  0  0
   -1.6457   -5.5075   -0.0721 H   0  0  0  0  0  0  0  0  0  0  0  0
   -2.2781    1.5546    2.5247 H   0  0  0  0  0  0  0  0  0  0  0  0
   -3.9191    3.0576    1.5050 H   0  0  0  0  0  0  0  0  0  0  0  0
  1  2  1  0
  2  3  1  0
  3  4  2  0
  4  5  1  0
  5  6  2  0
  6  7  1  0
  7  8  2  0
  8  9  1  0
  9 10  1  0
 10 11  2  0
 10 12  1  0
 12 13  1  0
 13 14  1  0
 14 15  2  0
 14 16  1  0
 16 17  1  0
 17 18  1  0
 18 19  2  0
 19 20  1  0
 20 21  2  0
 21 22  1  0
 12 23  1  0
 23 24  1  0
 24 25  1  0
 25 26  2  0
 26 27  1  0
 26 28  1  0
 28 29  1  0
 29 30  1  0
 30 31  1  0
  6 32  1  0
 32 33  2  0
 33  3  1  0
 27  7  1  0
 22 18  1  0
 27 23  2  0
 31 25  1  0
  1 34  1  0
  1 35  1  0
  1 36  1  0
  4 37  1  0
  5 38  1  0
  9 39  1  0
  9 40  1  0
 13 41  1  0
 13 42  1  0
 16 43  1  0
 17 44  1  0
 17 45  1  0
 19 46  1  0
 20 47  1  0
 21 48  1  0
 28 49  1  0
 28 50  1  0
 29 51  1  0
 29 52  1  0
 30 53  1  0
 30 54  1  0
 31 55  1  0
 31 56  1  0
 32 57  1  0
 33 58  1  0
M  END
$$$$
