
     RDKit          3D

 46 49  0  0  0  0  0  0  0  0999 V2000
    5.6708   -0.9855   -0.6795 C   0  0  0  0  0  0  0  0  0  0  0  0
    4.5999   -0.7673   -1.4537 C   0  0  0  0  0  0  0  0  0  0  0  0
    3.2354   -0.2489   -1.0492 C   0  0  0  0  0  0  0  0  0  0  0  0
    2.9548   -0.0886    0.4753 C   0  0  0  0  0  0  0  0  0  0  0  0
    1.5578   -0.4762    0.8259 N   0  0  0  0  0  0  0  0  0  0  0  0
    1.4514   -1.9465    0.6253 C   0  0  0  0  0  0  0  0  0  0  0  0
    1.9290   -2.3780   -0.7691 C   0  0  0  0  0  0  0  0  0  0  0  0
    2.0983   -1.1263   -1.6431 C   0  0  0  0  0  0  0  0  0  0  0  0
    0.7773   -0.3361   -1.5362 C   0  0  0  0  0  0  0  0  0  0  0  0
    0.6417    0.2428   -0.1113 C   0  0  0  0  0  0  0  0  0  0  0  0
   -0.7745    0.2736    0.4057 C   0  0  0  0  0  0  0  0  0  0  0  0
   -1.0414   -0.0981    1.7041 N   0  0  0  0  0  0  0  0  0  0  0  0
   -2.3748    0.0184    1.9932 C   0  0  0  0  0  0  0  0  0  0  0  0
   -3.0710   -0.2727    3.1722 C   0  0  0  0  0  0  0  0  0  0  0  0
   -4.4482   -0.0373    3.1859 C   0  0  0  0  0  0  0  0  0  0  0  0
   -5.0979    0.4723    2.0650 C   0  0  0  0  0  0  0  0  0  0  0  0
   -4.3831    0.7596    0.8958 C   0  0  0  0  0  0  0  0  0  0  0  0
   -2.9922    0.5250    0.8529 C   0  0  0  0  0  0  0  0  0  0  0  0
   -1.9760    0.7074   -0.1468 C   0  0  0  0  0  0  0  0  0  0  0  0
   -2.1996    1.2857   -1.5089 C   0  0  0  0  0  0  0  0  0  0  0  0
   -1.8256    2.7638   -1.5848 C   0  0  0  0  0  0  0  0  0  0  0  0
   -2.0676    3.2700   -2.8949 O   0  0  0  0  0  0  0  0  0  0  0  0
    5.6813   -0.8049    0.3890 H   0  0  0  0  0  0  0  0  0  0  0  0
    6.5959   -1.3514   -1.1175 H   0  0  0  0  0  0  0  0  0  0  0  0
    4.7166   -0.9592   -2.5212 H   0  0  0  0  0  0  0  0  0  0  0  0
    3.1532    0.7468   -1.5096 H   0  0  0  0  0  0  0  0  0  0  0  0
    3.6355   -0.6805    1.0966 H   0  0  0  0  0  0  0  0  0  0  0  0
    3.1254    0.9554    0.7679 H   0  0  0  0  0  0  0  0  0  0  0  0
    2.0428   -2.4620    1.3925 H   0  0  0  0  0  0  0  0  0  0  0  0
    0.4204   -2.2836    0.7852 H   0  0  0  0  0  0  0  0  0  0  0  0
    2.8734   -2.9294   -0.6961 H   0  0  0  0  0  0  0  0  0  0  0  0
    1.1937   -3.0570   -1.2171 H   0  0  0  0  0  0  0  0  0  0  0  0
    2.2926   -1.4034   -2.6852 H   0  0  0  0  0  0  0  0  0  0  0  0
    0.7819    0.4836   -2.2652 H   0  0  0  0  0  0  0  0  0  0  0  0
   -0.0608   -0.9961   -1.7934 H   0  0  0  0  0  0  0  0  0  0  0  0
    0.9503    1.2988   -0.1366 H   0  0  0  0  0  0  0  0  0  0  0  0
   -0.3238   -0.4198    2.3406 H   0  0  0  0  0  0  0  0  0  0  0  0
   -2.5636   -0.6650    4.0474 H   0  0  0  0  0  0  0  0  0  0  0  0
   -5.0184   -0.2534    4.0863 H   0  0  0  0  0  0  0  0  0  0  0  0
   -6.1698    0.6504    2.0963 H   0  0  0  0  0  0  0  0  0  0  0  0
   -4.9038    1.1576    0.0306 H   0  0  0  0  0  0  0  0  0  0  0  0
   -1.6424    0.7256   -2.2667 H   0  0  0  0  0  0  0  0  0  0  0  0
   -3.2501    1.1670   -1.8027 H   0  0  0  0  0  0  0  0  0  0  0  0
   -2.4017    3.3616   -0.8701 H   0  0  0  0  0  0  0  0  0  0  0  0
   -0.7636    2.9105   -1.3627 H   0  0  0  0  0  0  0  0  0  0  0  0
   -3.0294    3.2513   -3.0385 H   0  0  0  0  0  0  0  0  0  0  0  0
  1  2  2  0
  2  3  1  0
  3  4  1  0
  4  5  1  0
  5  6  1  0
  6  7  1  0
  7  8  1  0
  8  9  1  0
  9 10  1  0
 10 11  1  0
 11 12  1  0
 12 13  1  0
 13 14  2  0
 14 15  1  0
 15 16  2  0
 16 17  1  0
 17 18  2  0
 18 19  1  0
 19 20  1  0
 20 21  1  0
 21 22  1  0
  8  3  1  0
 19 11  2  0
 10  5  1  0
 18 13  1  0
  1 23  1  0
  1 24  1  0
  2 25  1  0
  3 26  1  0
  4 27  1  0
  4 28  1  0
  6 29  1  0
  6 30  1  0
  7 31  1  0
  7 32  1  0
  8 33  1  0
  9 34  1  0
  9 35  1  0
 10 36  1  0
 12 37  1  0
 14 38  1  0
 15 39  1  0
 16 40  1  0
 17 41  1  0
 20 42  1  0
 20 43  1  0
 21 44  1  0
 21 45  1  0
 22 46  1  0
M  END
$$$$
