
     RDKit          3D

 63 67  0  0  0  0  0  0  0  0999 V2000
    9.0027    2.2308   -0.5121 C   0  0  0  0  0  0  0  0  0  0  0  0
    8.1934    1.2173   -1.0914 O   0  0  0  0  0  0  0  0  0  0  0  0
    6.8697    1.1750   -0.7308 C   0  0  0  0  0  0  0  0  0  0  0  0
    6.2526    2.0944    0.1205 C   0  0  0  0  0  0  0  0  0  0  0  0
    4.8946    1.9701    0.4316 C   0  0  0  0  0  0  0  0  0  0  0  0
    4.1219    0.9276   -0.0984 C   0  0  0  0  0  0  0  0  0  0  0  0
    2.6936    0.7976    0.2361 C   0  0  0  0  0  0  0  0  0  0  0  0
    1.7192    0.6962   -0.7744 C   0  0  0  0  0  0  0  0  0  0  0  0
    0.3602    0.5667   -0.4642 C   0  0  0  0  0  0  0  0  0  0  0  0
   -0.0489    0.5274    0.8701 C   0  0  0  0  0  0  0  0  0  0  0  0
    0.9024    0.6552    1.8700 C   0  0  0  0  0  0  0  0  0  0  0  0
    2.2637    0.7778    1.5723 C   0  0  0  0  0  0  0  0  0  0  0  0
    0.3606    0.6688    3.5348 S   0  0  0  0  0  6  0  0  0  0  0  0
    0.0538    2.0421    3.8727 O   0  0  0  0  0  0  0  0  0  0  0  0
    1.3185   -0.1154    4.2893 O   0  0  0  0  0  0  0  0  0  0  0  0
   -1.1589   -0.2198    3.5726 C   0  0  0  0  0  0  0  0  0  0  0  0
   -1.5262   -0.8517    4.7671 C   0  0  0  0  0  0  0  0  0  0  0  0
   -2.6806   -1.6212    4.8034 C   0  0  0  0  0  0  0  0  0  0  0  0
   -3.4451   -1.7659    3.6467 C   0  0  0  0  0  0  0  0  0  0  0  0
   -3.0838   -1.1216    2.4449 C   0  0  0  0  0  0  0  0  0  0  0  0
   -3.9368   -1.4794    1.2812 C   0  0  0  0  0  0  0  0  0  0  0  0
   -4.1825   -2.6651    1.0828 O   0  0  0  0  0  0  0  0  0  0  0  0
   -4.4529   -0.4530    0.5292 N   0  0  0  0  0  0  0  0  0  0  0  0
   -5.1969   -0.7098   -0.6956 C   0  0  0  0  0  0  0  0  0  0  0  0
   -6.1013    0.4869   -1.0303 C   0  0  0  0  0  0  0  0  0  0  0  0
   -6.4470    0.5976   -2.5176 C   0  0  0  0  0  0  0  0  0  0  0  0
   -6.4101   -0.7539   -3.2165 C   0  0  0  0  0  0  0  0  0  0  0  0
   -5.0263   -1.3993   -3.1308 C   0  0  0  0  0  0  0  0  0  0  0  0
   -4.2559   -1.0314   -1.8606 C   0  0  0  0  0  0  0  0  0  0  0  0
   -1.9255   -0.3259    2.4050 C   0  0  0  0  0  0  0  0  0  0  0  0
   -1.4846    0.3881    1.1827 C   0  0  0  0  0  0  0  0  0  0  0  0
   -2.3005    0.9085    0.4324 O   0  0  0  0  0  0  0  0  0  0  0  0
    4.7509    0.0082   -0.9567 C   0  0  0  0  0  0  0  0  0  0  0  0
    6.1108    0.1229   -1.2783 C   0  0  0  0  0  0  0  0  0  0  0  0
    6.7872   -0.7389   -2.1066 O   0  0  0  0  0  0  0  0  0  0  0  0
    6.0519   -1.7921   -2.7122 C   0  0  0  0  0  0  0  0  0  0  0  0
    8.6691    3.2263   -0.8222 H   0  0  0  0  0  0  0  0  0  0  0  0
   10.0241    2.0934   -0.8797 H   0  0  0  0  0  0  0  0  0  0  0  0
    9.0281    2.1430    0.5791 H   0  0  0  0  0  0  0  0  0  0  0  0
    6.7974    2.9244    0.5579 H   0  0  0  0  0  0  0  0  0  0  0  0
    4.4421    2.7102    1.0896 H   0  0  0  0  0  0  0  0  0  0  0  0
    2.0149    0.7323   -1.8227 H   0  0  0  0  0  0  0  0  0  0  0  0
   -0.3705    0.4979   -1.2687 H   0  0  0  0  0  0  0  0  0  0  0  0
    2.9890    0.8556    2.3821 H   0  0  0  0  0  0  0  0  0  0  0  0
   -0.9102   -0.7570    5.6606 H   0  0  0  0  0  0  0  0  0  0  0  0
   -2.9762   -2.1287    5.7193 H   0  0  0  0  0  0  0  0  0  0  0  0
   -4.3291   -2.4043    3.6724 H   0  0  0  0  0  0  0  0  0  0  0  0
   -3.9540    0.4361    0.5709 H   0  0  0  0  0  0  0  0  0  0  0  0
   -5.8314   -1.5878   -0.5156 H   0  0  0  0  0  0  0  0  0  0  0  0
   -5.6397    1.4310   -0.7126 H   0  0  0  0  0  0  0  0  0  0  0  0
   -7.0252    0.3988   -0.4440 H   0  0  0  0  0  0  0  0  0  0  0  0
   -5.7320    1.2722   -3.0056 H   0  0  0  0  0  0  0  0  0  0  0  0
   -7.4351    1.0577   -2.6314 H   0  0  0  0  0  0  0  0  0  0  0  0
   -7.1509   -1.4185   -2.7544 H   0  0  0  0  0  0  0  0  0  0  0  0
   -6.7012   -0.6468   -4.2675 H   0  0  0  0  0  0  0  0  0  0  0  0
   -5.1428   -2.4882   -3.1918 H   0  0  0  0  0  0  0  0  0  0  0  0
   -4.4262   -1.1080   -4.0014 H   0  0  0  0  0  0  0  0  0  0  0  0
   -3.6192   -0.1595   -2.0629 H   0  0  0  0  0  0  0  0  0  0  0  0
   -3.5708   -1.8481   -1.6039 H   0  0  0  0  0  0  0  0  0  0  0  0
    4.1574   -0.8079   -1.3568 H   0  0  0  0  0  0  0  0  0  0  0  0
    5.6579   -2.4822   -1.9589 H   0  0  0  0  0  0  0  0  0  0  0  0
    5.2519   -1.4009   -3.3495 H   0  0  0  0  0  0  0  0  0  0  0  0
    6.7389   -2.3557   -3.3513 H   0  0  0  0  0  0  0  0  0  0  0  0
  1  2  1  0
  2  3  1  0
  3  4  2  0
  4  5  1  0
  5  6  2  0
  6  7  1  0
  7  8  2  0
  8  9  1  0
  9 10  2  0
 10 11  1  0
 11 12  2  0
 11 13  1  0
 13 14  2  0
 13 15  2  0
 13 16  1  0
 16 17  2  0
 17 18  1  0
 18 19  2  0
 19 20  1  0
 20 21  1  0
 21 22  2  0
 21 23  1  0
 23 24  1  0
 24 25  1  0
 25 26  1  0
 26 27  1  0
 27 28  1  0
 28 29  1  0
 20 30  2  0
 30 31  1  0
 31 32  2  0
  6 33  1  0
 33 34  2  0
 34 35  1  0
 35 36  1  0
 34  3  1  0
 12  7  1  0
 30 16  1  0
 31 10  1  0
 29 24  1  0
  1 37  1  0
  1 38  1  0
  1 39  1  0
  4 40  1  0
  5 41  1  0
  8 42  1  0
  9 43  1  0
 12 44  1  0
 17 45  1  0
 18 46  1  0
 19 47  1  0
 23 48  1  0
 24 49  1  0
 25 50  1  0
 25 51  1  0
 26 52  1  0
 26 53  1  0
 27 54  1  0
 27 55  1  0
 28 56  1  0
 28 57  1  0
 29 58  1  0
 29 59  1  0
 33 60  1  0
 36 61  1  0
 36 62  1  0
 36 63  1  0
M  END
$$$$
