
     RDKit          3D

 40 42  0  0  0  0  0  0  0  0999 V2000
    6.1977    1.5102   -0.1096 C   0  0  0  0  0  0  0  0  0  0  0  0
    4.8111    2.0587    0.1658 C   0  0  0  0  0  0  0  0  0  0  0  0
    3.8641    1.0075   -0.0502 O   0  0  0  0  0  0  0  0  0  0  0  0
    2.5667    1.3665    0.1686 C   0  0  0  0  0  0  0  0  0  0  0  0
    2.2010    2.4800    0.5189 O   0  0  0  0  0  0  0  0  0  0  0  0
    1.6542    0.1950   -0.0804 C   0  0  0  0  0  0  0  0  0  0  0  0
    0.3386    0.4236    0.0609 N   0  0  0  0  0  0  0  0  0  0  0  0
   -0.4912   -0.6110   -0.1421 C   0  0  0  0  0  0  0  0  0  0  0  0
   -1.8967   -0.4167   -0.0376 N   0  0  0  0  0  0  0  0  0  0  0  0
   -2.6148    0.6823    0.4997 C   0  0  0  0  0  0  0  0  0  0  0  0
   -2.0641    1.5061    1.4941 C   0  0  0  0  0  0  0  0  0  0  0  0
   -2.7944    2.5503    2.0672 C   0  0  0  0  0  0  0  0  0  0  0  0
   -4.1076    2.7751    1.6771 C   0  0  0  0  0  0  0  0  0  0  0  0
   -4.6942    1.9458    0.7249 C   0  0  0  0  0  0  0  0  0  0  0  0
   -3.9695    0.8889    0.1427 C   0  0  0  0  0  0  0  0  0  0  0  0
   -4.6705    0.0160   -0.8641 C   0  0  0  0  0  0  0  0  0  0  0  0
   -0.0118   -1.8958   -0.4726 C   0  0  0  0  0  0  0  0  0  0  0  0
   -0.8207   -3.0468   -0.6645 C   0  0  0  0  0  0  0  0  0  0  0  0
   -0.2535   -4.2750   -0.9976 C   0  0  0  0  0  0  0  0  0  0  0  0
    1.1232   -4.3725   -1.1392 C   0  0  0  0  0  0  0  0  0  0  0  0
    1.9216   -3.2438   -0.9388 C   0  0  0  0  0  0  0  0  0  0  0  0
    1.3794   -2.0093   -0.6034 C   0  0  0  0  0  0  0  0  0  0  0  0
    2.2097   -0.9842   -0.4169 N   0  0  0  0  0  0  0  0  0  0  0  0
    6.4146    0.6626    0.5490 H   0  0  0  0  0  0  0  0  0  0  0  0
    6.2689    1.1408   -1.1379 H   0  0  0  0  0  0  0  0  0  0  0  0
    6.9592    2.2801    0.0429 H   0  0  0  0  0  0  0  0  0  0  0  0
    4.6011    2.8916   -0.5145 H   0  0  0  0  0  0  0  0  0  0  0  0
    4.7501    2.4047    1.2037 H   0  0  0  0  0  0  0  0  0  0  0  0
   -2.3271   -0.7514   -0.8916 H   0  0  0  0  0  0  0  0  0  0  0  0
   -1.0475    1.3495    1.8440 H   0  0  0  0  0  0  0  0  0  0  0  0
   -2.3304    3.1817    2.8202 H   0  0  0  0  0  0  0  0  0  0  0  0
   -4.6767    3.5874    2.1204 H   0  0  0  0  0  0  0  0  0  0  0  0
   -5.7290    2.1255    0.4417 H   0  0  0  0  0  0  0  0  0  0  0  0
   -4.6205   -1.0343   -0.5590 H   0  0  0  0  0  0  0  0  0  0  0  0
   -5.7304    0.2761   -0.9569 H   0  0  0  0  0  0  0  0  0  0  0  0
   -4.2124    0.1345   -1.8511 H   0  0  0  0  0  0  0  0  0  0  0  0
   -1.8995   -2.9928   -0.5352 H   0  0  0  0  0  0  0  0  0  0  0  0
   -0.8828   -5.1504   -1.1381 H   0  0  0  0  0  0  0  0  0  0  0  0
    1.5827   -5.3237   -1.3967 H   0  0  0  0  0  0  0  0  0  0  0  0
    3.0014   -3.3333   -1.0437 H   0  0  0  0  0  0  0  0  0  0  0  0
  1  2  1  0
  2  3  1  0
  3  4  1  0
  4  5  2  0
  4  6  1  0
  6  7  2  0
  7  8  1  0
  8  9  1  0
  9 10  1  0
 10 11  2  0
 11 12  1  0
 12 13  2  0
 13 14  1  0
 14 15  2  0
 15 16  1  0
  8 17  2  0
 17 18  1  0
 18 19  2  0
 19 20  1  0
 20 21  2  0
 21 22  1  0
 22 23  2  0
 23  6  1  0
 15 10  1  0
 22 17  1  0
  1 24  1  0
  1 25  1  0
  1 26  1  0
  2 27  1  0
  2 28  1  0
  9 29  1  0
 11 30  1  0
 12 31  1  0
 13 32  1  0
 14 33  1  0
 16 34  1  0
 16 35  1  0
 16 36  1  0
 18 37  1  0
 19 38  1  0
 20 39  1  0
 21 40  1  0
M  END
$$$$
