
     RDKit          3D

 39 42  0  0  0  0  0  0  0  0999 V2000
    4.4800   -3.5654   -1.3371 C   0  0  0  0  0  0  0  0  0  0  0  0
    3.7824   -2.5226   -0.6549 O   0  0  0  0  0  0  0  0  0  0  0  0
    4.3760   -1.3065   -0.7557 C   0  0  0  0  0  0  0  0  0  0  0  0
    5.4142   -1.0673   -1.3525 O   0  0  0  0  0  0  0  0  0  0  0  0
    3.5877   -0.2739   -0.0290 C   0  0  0  0  0  0  0  0  0  0  0  0
    2.4184   -0.5792    0.6784 C   0  0  0  0  0  0  0  0  0  0  0  0
    1.7154    0.4288    1.3453 C   0  0  0  0  0  0  0  0  0  0  0  0
    2.1677    1.7560    1.3151 C   0  0  0  0  0  0  0  0  0  0  0  0
    1.3960    2.8460    2.0201 C   0  0  0  0  0  0  0  0  0  0  0  0
    0.4405    3.8941    0.8871 S   0  0  0  0  0  0  0  0  0  0  0  0
   -0.7817    2.7093    0.3754 C   0  0  0  0  0  0  0  0  0  0  0  0
   -0.9464    2.5480   -0.9658 N   0  0  0  0  0  0  0  0  0  0  0  0
   -1.8424    1.6847   -1.4499 N   0  0  0  0  0  0  0  0  0  0  0  0
   -2.5724    1.0033   -0.5342 C   0  0  0  0  0  0  0  0  0  0  0  0
   -2.3632    1.2226    0.8152 C   0  0  0  0  0  0  0  0  0  0  0  0
   -1.4702    2.0716    1.3515 N   0  0  0  0  0  0  0  0  0  0  0  0
   -3.2276    0.4229    1.5063 N   0  0  0  0  0  0  0  0  0  0  0  0
   -3.9892   -0.3232    0.6307 C   0  0  0  0  0  0  0  0  0  0  0  0
   -4.9891   -1.2695    0.8833 C   0  0  0  0  0  0  0  0  0  0  0  0
   -5.6001   -1.8744   -0.2197 C   0  0  0  0  0  0  0  0  0  0  0  0
   -5.2269   -1.5457   -1.5216 C   0  0  0  0  0  0  0  0  0  0  0  0
   -4.2262   -0.5973   -1.7598 C   0  0  0  0  0  0  0  0  0  0  0  0
   -3.5938    0.0270   -0.6663 C   0  0  0  0  0  0  0  0  0  0  0  0
    3.3383    2.0567    0.6039 C   0  0  0  0  0  0  0  0  0  0  0  0
    4.0433    1.0499   -0.0611 C   0  0  0  0  0  0  0  0  0  0  0  0
    5.4807   -3.6979   -0.9140 H   0  0  0  0  0  0  0  0  0  0  0  0
    4.5364   -3.3520   -2.4092 H   0  0  0  0  0  0  0  0  0  0  0  0
    3.9200   -4.4943   -1.1984 H   0  0  0  0  0  0  0  0  0  0  0  0
    2.0387   -1.5973    0.7170 H   0  0  0  0  0  0  0  0  0  0  0  0
    0.8058    0.1691    1.8838 H   0  0  0  0  0  0  0  0  0  0  0  0
    2.1078    3.4893    2.5510 H   0  0  0  0  0  0  0  0  0  0  0  0
    0.7441    2.4266    2.7948 H   0  0  0  0  0  0  0  0  0  0  0  0
   -3.2924    0.3926    2.5127 H   0  0  0  0  0  0  0  0  0  0  0  0
   -5.2871   -1.5304    1.8941 H   0  0  0  0  0  0  0  0  0  0  0  0
   -6.3817   -2.6142   -0.0584 H   0  0  0  0  0  0  0  0  0  0  0  0
   -5.7177   -2.0295   -2.3632 H   0  0  0  0  0  0  0  0  0  0  0  0
   -3.9394   -0.3437   -2.7771 H   0  0  0  0  0  0  0  0  0  0  0  0
    3.7062    3.0802    0.5558 H   0  0  0  0  0  0  0  0  0  0  0  0
    4.9479    1.3053   -0.6104 H   0  0  0  0  0  0  0  0  0  0  0  0
  1  2  1  0
  2  3  1  0
  3  4  2  0
  3  5  1  0
  5  6  2  0
  6  7  1  0
  7  8  2  0
  8  9  1  0
  9 10  1  0
 10 11  1  0
 11 12  2  0
 12 13  1  0
 13 14  2  0
 14 15  1  0
 15 16  2  0
 15 17  1  0
 17 18  1  0
 18 19  2  0
 19 20  1  0
 20 21  2  0
 21 22  1  0
 22 23  2  0
  8 24  1  0
 24 25  2  0
 25  5  1  0
 16 11  1  0
 23 18  1  0
 23 14  1  0
  1 26  1  0
  1 27  1  0
  1 28  1  0
  6 29  1  0
  7 30  1  0
  9 31  1  0
  9 32  1  0
 17 33  1  0
 19 34  1  0
 20 35  1  0
 21 36  1  0
 22 37  1  0
 24 38  1  0
 25 39  1  0
M  END
$$$$
