
     RDKit          3D

 33 35  0  0  0  0  0  0  0  0999 V2000
    1.0533   -0.8410    1.2554 O   0  0  0  0  0  0  0  0  0  0  0  0
    0.4081   -1.4369    0.4045 C   0  0  0  0  0  0  0  0  0  0  0  0
    0.7915   -1.6470   -1.0222 C   0  0  0  0  0  0  0  0  0  0  0  0
    1.8456   -1.1789   -1.7060 C   0  0  0  0  0  0  0  0  0  0  0  0
    2.8430   -0.3012   -1.1981 C   0  0  0  0  0  0  0  0  0  0  0  0
    2.7425    0.8610   -0.4533 C   0  0  0  0  0  0  0  0  0  0  0  0
    4.0060    1.4572   -0.1699 C   0  0  0  0  0  0  0  0  0  0  0  0
    5.0439    0.7477   -0.7255 C   0  0  0  0  0  0  0  0  0  0  0  0
    4.4943   -0.6194   -1.5871 S   0  0  0  0  0  0  0  0  0  0  0  0
   -0.3671   -2.7056   -1.7778 S   0  0  0  0  0  0  0  0  0  0  0  0
   -1.3492   -2.8641   -0.3267 C   0  0  0  0  0  0  0  0  0  0  0  0
   -2.6945   -3.8378   -0.2424 S   0  0  0  0  0  0  0  0  0  0  0  0
   -0.7995   -2.0707    0.6548 N   0  0  0  0  0  0  0  0  0  0  0  0
   -1.3624   -1.9790    2.0531 N   0  0  0  0  0  0  0  0  0  0  0  0
   -2.5234   -0.7675    2.3588 S   0  0  0  0  0  6  0  0  0  0  0  0
   -3.8359   -1.3218    2.1157 O   0  0  0  0  0  0  0  0  0  0  0  0
   -2.1721   -0.1913    3.6390 O   0  0  0  0  0  0  0  0  0  0  0  0
   -2.2198    0.4630    1.1120 C   0  0  0  0  0  0  0  0  0  0  0  0
   -2.9502    0.4320   -0.0809 C   0  0  0  0  0  0  0  0  0  0  0  0
   -2.7034    1.3924   -1.0611 C   0  0  0  0  0  0  0  0  0  0  0  0
   -1.7479    2.3857   -0.8405 C   0  0  0  0  0  0  0  0  0  0  0  0
   -1.0424    2.4292    0.3633 C   0  0  0  0  0  0  0  0  0  0  0  0
   -1.2790    1.4698    1.3474 C   0  0  0  0  0  0  0  0  0  0  0  0
    1.9813   -1.5004   -2.7385 H   0  0  0  0  0  0  0  0  0  0  0  0
    1.8010    1.2732   -0.1127 H   0  0  0  0  0  0  0  0  0  0  0  0
    4.1432    2.3611    0.4107 H   0  0  0  0  0  0  0  0  0  0  0  0
    6.1011    0.9692   -0.6723 H   0  0  0  0  0  0  0  0  0  0  0  0
   -0.6280   -1.8958    2.7673 H   0  0  0  0  0  0  0  0  0  0  0  0
   -3.7127   -0.3263   -0.2510 H   0  0  0  0  0  0  0  0  0  0  0  0
   -3.2662    1.3773   -1.9920 H   0  0  0  0  0  0  0  0  0  0  0  0
   -1.5646    3.1398   -1.6030 H   0  0  0  0  0  0  0  0  0  0  0  0
   -0.3116    3.2161    0.5365 H   0  0  0  0  0  0  0  0  0  0  0  0
   -0.7251    1.5101    2.2835 H   0  0  0  0  0  0  0  0  0  0  0  0
  1  2  2  0
  2  3  1  0
  3  4  2  3
  4  5  1  0
  5  6  2  0
  6  7  1  0
  7  8  2  0
  8  9  1  0
  3 10  1  0
 10 11  1  0
 11 12  2  0
 11 13  1  0
 13 14  1  0
 14 15  1  0
 15 16  2  0
 15 17  2  0
 15 18  1  0
 18 19  2  0
 19 20  1  0
 20 21  2  0
 21 22  1  0
 22 23  2  0
 13  2  1  0
 23 18  1  0
  9  5  1  0
  4 24  1  0
  6 25  1  0
  7 26  1  0
  8 27  1  0
 14 28  1  0
 19 29  1  0
 20 30  1  0
 21 31  1  0
 22 32  1  0
 23 33  1  0
M  END
$$$$
