
     RDKit          3D

 43 45  0  0  0  0  0  0  0  0999 V2000
    3.7561    1.8791    0.6359 O   0  0  0  0  0  0  0  0  0  0  0  0
    3.0565    1.4913   -0.3032 C   0  0  0  0  0  0  0  0  0  0  0  0
    3.5875    0.4561   -1.3251 C   0  0  0  0  0  0  0  0  0  0  0  0
    5.0411    0.0728   -1.0836 C   0  0  0  0  0  0  0  0  0  0  0  0
    4.9139   -1.1042   -0.1491 C   0  0  0  0  0  0  0  0  0  0  0  0
    3.6704   -1.7867   -0.6706 C   0  0  0  0  0  0  0  0  0  0  0  0
    2.8390   -0.7703   -1.2492 O   0  0  0  0  0  0  0  0  0  0  0  0
    1.7712    1.9949   -0.5045 N   0  0  0  0  0  0  0  0  0  0  0  0
    0.7610    1.3505   -1.3442 C   0  0  0  0  0  0  0  0  0  0  0  0
   -0.1513    0.4575   -0.4873 C   0  0  0  0  0  0  0  0  0  0  0  0
   -0.7314    1.1874    0.6716 N   0  0  0  0  0  0  0  0  0  0  0  0
   -1.8943    0.6724    1.3034 C   0  0  0  0  0  0  0  0  0  0  0  0
   -2.1845    0.7712    2.9568 S   0  0  0  0  0  0  0  0  0  0  0  0
   -2.7944    0.1688    0.3709 N   0  0  0  0  0  0  0  0  0  0  0  0
   -3.8698   -0.7333    0.5146 C   0  0  0  0  0  0  0  0  0  0  0  0
   -4.8695   -0.7005   -0.4690 C   0  0  0  0  0  0  0  0  0  0  0  0
   -5.9497   -1.5850   -0.4152 C   0  0  0  0  0  0  0  0  0  0  0  0
   -6.0205   -2.5154    0.6124 C   0  0  0  0  0  0  0  0  0  0  0  0
   -7.0526   -3.3670    0.6627 F   0  0  0  0  0  0  0  0  0  0  0  0
   -5.0269   -2.5825    1.5794 C   0  0  0  0  0  0  0  0  0  0  0  0
   -3.9463   -1.6965    1.5253 C   0  0  0  0  0  0  0  0  0  0  0  0
    0.2734    1.9609    1.4501 C   0  0  0  0  0  0  0  0  0  0  0  0
    1.1809    2.8167    0.5508 C   0  0  0  0  0  0  0  0  0  0  0  0
    3.4767    0.8884   -2.3259 H   0  0  0  0  0  0  0  0  0  0  0  0
    5.4918   -0.2639   -2.0256 H   0  0  0  0  0  0  0  0  0  0  0  0
    5.6646    0.8764   -0.6826 H   0  0  0  0  0  0  0  0  0  0  0  0
    4.7480   -0.7549    0.8765 H   0  0  0  0  0  0  0  0  0  0  0  0
    5.7892   -1.7592   -0.1464 H   0  0  0  0  0  0  0  0  0  0  0  0
    3.1179   -2.3100    0.1148 H   0  0  0  0  0  0  0  0  0  0  0  0
    3.9150   -2.5041   -1.4610 H   0  0  0  0  0  0  0  0  0  0  0  0
    0.1668    2.1503   -1.8031 H   0  0  0  0  0  0  0  0  0  0  0  0
    1.2070    0.7805   -2.1605 H   0  0  0  0  0  0  0  0  0  0  0  0
   -0.9289    0.0274   -1.1234 H   0  0  0  0  0  0  0  0  0  0  0  0
    0.4170   -0.3808   -0.0664 H   0  0  0  0  0  0  0  0  0  0  0  0
   -2.7944    0.7040   -0.4876 H   0  0  0  0  0  0  0  0  0  0  0  0
   -4.8300    0.0228   -1.2792 H   0  0  0  0  0  0  0  0  0  0  0  0
   -6.7323   -1.5535   -1.1662 H   0  0  0  0  0  0  0  0  0  0  0  0
   -5.0898   -3.3277    2.3660 H   0  0  0  0  0  0  0  0  0  0  0  0
   -3.1627   -1.8043    2.2683 H   0  0  0  0  0  0  0  0  0  0  0  0
    0.8730    1.2366    2.0151 H   0  0  0  0  0  0  0  0  0  0  0  0
   -0.2317    2.6228    2.1600 H   0  0  0  0  0  0  0  0  0  0  0  0
    1.9515    3.3097    1.1517 H   0  0  0  0  0  0  0  0  0  0  0  0
    0.5914    3.6016    0.0620 H   0  0  0  0  0  0  0  0  0  0  0  0
  1  2  2  0
  2  3  1  0
  3  4  1  0
  4  5  1  0
  5  6  1  0
  6  7  1  0
  2  8  1  0
  8  9  1  0
  9 10  1  0
 10 11  1  0
 11 12  1  0
 12 13  2  0
 12 14  1  0
 14 15  1  0
 15 16  2  0
 16 17  1  0
 17 18  2  0
 18 19  1  0
 18 20  1  0
 20 21  2  0
 11 22  1  0
 22 23  1  0
  7  3  1  0
 23  8  1  0
 21 15  1  0
  3 24  1  0
  4 25  1  0
  4 26  1  0
  5 27  1  0
  5 28  1  0
  6 29  1  0
  6 30  1  0
  9 31  1  0
  9 32  1  0
 10 33  1  0
 10 34  1  0
 14 35  1  0
 16 36  1  0
 17 37  1  0
 20 38  1  0
 21 39  1  0
 22 40  1  0
 22 41  1  0
 23 42  1  0
 23 43  1  0
M  END
$$$$
