
     RDKit          3D

 53 55  0  0  0  0  0  0  0  0999 V2000
   -6.5058   -2.6712   -0.3602 C   0  0  0  0  0  0  0  0  0  0  0  0
   -5.7639   -1.3678   -0.6137 C   0  0  0  0  0  0  0  0  0  0  0  0
   -5.3866   -0.6768    0.6979 C   0  0  0  0  0  0  0  0  0  0  0  0
   -4.7301    0.6927    0.4985 C   0  0  0  0  0  0  0  0  0  0  0  0
   -3.4194    0.5899   -0.1035 N   0  0  0  0  0  0  0  0  0  0  0  0
   -2.2592    0.1867    0.5570 C   0  0  0  0  0  0  0  0  0  0  0  0
   -2.1981   -0.1223    1.8058 N   0  0  0  0  0  0  0  0  0  0  0  0
   -1.2207    0.1886   -0.3835 N   0  0  0  0  0  0  0  0  0  0  0  0
    0.0656   -0.4746   -0.2408 C   0  0  0  0  0  0  0  0  0  0  0  0
    0.9495    0.2410    0.7936 C   0  0  0  0  0  0  0  0  0  0  0  0
    0.5627   -0.1634    2.1200 O   0  0  0  0  0  0  0  0  0  0  0  0
    2.4274   -0.1179    0.5933 C   0  0  0  0  0  0  0  0  0  0  0  0
    3.1854    0.6441    1.5407 O   0  0  0  0  0  0  0  0  0  0  0  0
    4.5432    0.4835    1.5237 C   0  0  0  0  0  0  0  0  0  0  0  0
    5.2366    1.2870    2.4311 C   0  0  0  0  0  0  0  0  0  0  0  0
    6.6292    1.2242    2.5207 C   0  0  0  0  0  0  0  0  0  0  0  0
    7.3491    0.3438    1.7079 C   0  0  0  0  0  0  0  0  0  0  0  0
    8.8465    0.2958    1.7769 C   0  0  0  0  0  0  0  0  0  0  0  0
    6.6537   -0.4512    0.7901 C   0  0  0  0  0  0  0  0  0  0  0  0
    5.2581   -0.3866    0.7015 C   0  0  0  0  0  0  0  0  0  0  0  0
   -1.7548    0.5399   -1.6314 C   0  0  0  0  0  0  0  0  0  0  0  0
   -1.1701    0.6602   -2.8770 C   0  0  0  0  0  0  0  0  0  0  0  0
   -1.9790    1.0487   -3.9502 C   0  0  0  0  0  0  0  0  0  0  0  0
   -3.3467    1.3112   -3.7645 C   0  0  0  0  0  0  0  0  0  0  0  0
   -3.9331    1.1911   -2.5018 C   0  0  0  0  0  0  0  0  0  0  0  0
   -3.1305    0.8059   -1.4470 C   0  0  0  0  0  0  0  0  0  0  0  0
   -7.4335   -2.4939    0.1931 H   0  0  0  0  0  0  0  0  0  0  0  0
   -6.7634   -3.1513   -1.3095 H   0  0  0  0  0  0  0  0  0  0  0  0
   -5.8889   -3.3677    0.2165 H   0  0  0  0  0  0  0  0  0  0  0  0
   -6.3973   -0.7063   -1.2157 H   0  0  0  0  0  0  0  0  0  0  0  0
   -4.8651   -1.5863   -1.2001 H   0  0  0  0  0  0  0  0  0  0  0  0
   -6.2946   -0.5339    1.2971 H   0  0  0  0  0  0  0  0  0  0  0  0
   -4.7271   -1.3327    1.2787 H   0  0  0  0  0  0  0  0  0  0  0  0
   -5.3917    1.3443   -0.0840 H   0  0  0  0  0  0  0  0  0  0  0  0
   -4.6330    1.1772    1.4783 H   0  0  0  0  0  0  0  0  0  0  0  0
   -1.2166   -0.3403    2.0405 H   0  0  0  0  0  0  0  0  0  0  0  0
   -0.1039   -1.5163    0.0593 H   0  0  0  0  0  0  0  0  0  0  0  0
    0.5942   -0.5040   -1.1987 H   0  0  0  0  0  0  0  0  0  0  0  0
    0.8192    1.3284    0.7382 H   0  0  0  0  0  0  0  0  0  0  0  0
    1.1947    0.2725    2.7258 H   0  0  0  0  0  0  0  0  0  0  0  0
    2.7391    0.1392   -0.4257 H   0  0  0  0  0  0  0  0  0  0  0  0
    2.5743   -1.1875    0.7867 H   0  0  0  0  0  0  0  0  0  0  0  0
    4.6894    1.9724    3.0736 H   0  0  0  0  0  0  0  0  0  0  0  0
    7.1452    1.8665    3.2306 H   0  0  0  0  0  0  0  0  0  0  0  0
    9.2767    1.0209    1.0793 H   0  0  0  0  0  0  0  0  0  0  0  0
    9.2173   -0.7029    1.5233 H   0  0  0  0  0  0  0  0  0  0  0  0
    9.1986    0.5252    2.7882 H   0  0  0  0  0  0  0  0  0  0  0  0
    7.1955   -1.1316    0.1363 H   0  0  0  0  0  0  0  0  0  0  0  0
    4.7670   -1.0306   -0.0196 H   0  0  0  0  0  0  0  0  0  0  0  0
   -0.1160    0.4764   -3.0405 H   0  0  0  0  0  0  0  0  0  0  0  0
   -1.5445    1.1535   -4.9420 H   0  0  0  0  0  0  0  0  0  0  0  0
   -3.9557    1.6127   -4.6139 H   0  0  0  0  0  0  0  0  0  0  0  0
   -4.9888    1.3938   -2.3698 H   0  0  0  0  0  0  0  0  0  0  0  0
  1  2  1  0
  2  3  1  0
  3  4  1  0
  4  5  1  0
  5  6  1  0
  6  7  2  3
  6  8  1  0
  8  9  1  0
  9 10  1  0
 10 11  1  0
 10 12  1  0
 12 13  1  0
 13 14  1  0
 14 15  2  0
 15 16  1  0
 16 17  2  0
 17 18  1  0
 17 19  1  0
 19 20  2  0
  8 21  1  0
 21 22  2  0
 22 23  1  0
 23 24  2  0
 24 25  1  0
 25 26  2  0
 26  5  1  0
 20 14  1  0
 26 21  1  0
  1 27  1  0
  1 28  1  0
  1 29  1  0
  2 30  1  0
  2 31  1  0
  3 32  1  0
  3 33  1  0
  4 34  1  0
  4 35  1  0
  7 36  1  0
  9 37  1  0
  9 38  1  0
 10 39  1  0
 11 40  1  0
 12 41  1  0
 12 42  1  0
 15 43  1  0
 16 44  1  0
 18 45  1  0
 18 46  1  0
 18 47  1  0
 19 48  1  0
 20 49  1  0
 22 50  1  0
 23 51  1  0
 24 52  1  0
 25 53  1  0
M  END
$$$$
