
     RDKit          3D

 69 71  0  0  0  0  0  0  0  0999 V2000
   -1.3639    3.5586    0.5986 C   0  0  0  0  0  0  0  0  0  0  0  0
   -2.6598    2.8221    0.8994 C   0  0  0  0  0  0  0  0  0  0  0  0
   -3.6164    2.8664   -0.2929 C   0  0  0  0  0  0  0  0  0  0  0  0
   -4.8332    2.0860   -0.0558 N   0  0  0  0  0  0  0  0  0  0  0  0
   -5.8845    2.7273    0.7396 C   0  0  0  0  0  0  0  0  0  0  0  0
   -6.8379    3.5556   -0.1231 C   0  0  0  0  0  0  0  0  0  0  0  0
   -7.8988    4.2392    0.7246 C   0  0  0  0  0  0  0  0  0  0  0  0
   -5.1258    0.8600   -0.6458 C   0  0  0  0  0  0  0  0  0  0  0  0
   -6.2538    0.3603   -0.5558 O   0  0  0  0  0  0  0  0  0  0  0  0
   -4.0489    0.1070   -1.4427 C   0  0  0  0  0  0  0  0  0  0  0  0
   -2.9157   -0.3761   -0.6441 N   0  0  0  0  0  0  0  0  0  0  0  0
   -1.6277    0.0415   -0.9992 C   0  0  0  0  0  0  0  0  0  0  0  0
   -1.4423    0.8064   -1.9505 O   0  0  0  0  0  0  0  0  0  0  0  0
   -0.5535   -0.4249   -0.2277 N   0  0  0  0  0  0  0  0  0  0  0  0
    0.7868    0.0312   -0.5968 C   0  0  0  0  0  0  0  0  0  0  0  0
    1.3510   -0.6806   -1.8352 C   0  0  0  0  0  0  0  0  0  0  0  0
    1.6369   -2.1755   -1.6591 C   0  0  0  0  0  0  0  0  0  0  0  0
    2.7368   -2.5369   -0.6560 C   0  0  0  0  0  0  0  0  0  0  0  0
    4.0985   -1.9259   -0.9868 C   0  0  0  0  0  0  0  0  0  0  0  0
    5.2128   -2.4683   -0.0994 C   0  0  0  0  0  0  0  0  0  0  0  0
    5.0355   -3.4004    0.6760 O   0  0  0  0  0  0  0  0  0  0  0  0
    6.4025   -1.7876   -0.3140 N   0  0  0  0  0  0  0  0  0  0  0  0
    7.6383   -1.9916    0.3353 C   0  0  0  0  0  0  0  0  0  0  0  0
    7.8517   -2.9497    1.3273 C   0  0  0  0  0  0  0  0  0  0  0  0
    9.1082   -3.0809    1.9285 C   0  0  0  0  0  0  0  0  0  0  0  0
   10.1610   -2.2549    1.5434 C   0  0  0  0  0  0  0  0  0  0  0  0
    9.9603   -1.2967    0.5540 C   0  0  0  0  0  0  0  0  0  0  0  0
    8.7052   -1.1661   -0.0467 C   0  0  0  0  0  0  0  0  0  0  0  0
   -0.6714   -1.2444    0.9016 C   0  0  0  0  0  0  0  0  0  0  0  0
    0.2868   -1.5410    1.6120 O   0  0  0  0  0  0  0  0  0  0  0  0
   -2.0135   -1.6890    1.1445 C   0  0  0  0  0  0  0  0  0  0  0  0
   -2.4186   -2.7701    2.3891 S   0  0  0  0  0  0  0  0  0  0  0  0
   -4.0690   -2.7376    1.9404 C   0  0  0  0  0  0  0  0  0  0  0  0
   -4.2921   -1.9061    0.8615 C   0  0  0  0  0  0  0  0  0  0  0  0
   -3.0914   -1.2854    0.4035 C   0  0  0  0  0  0  0  0  0  0  0  0
   -0.6888    3.5027    1.4584 H   0  0  0  0  0  0  0  0  0  0  0  0
   -1.5547    4.6144    0.3836 H   0  0  0  0  0  0  0  0  0  0  0  0
   -0.8515    3.1206   -0.2636 H   0  0  0  0  0  0  0  0  0  0  0  0
   -2.4342    1.7869    1.1747 H   0  0  0  0  0  0  0  0  0  0  0  0
   -3.1315    3.2765    1.7790 H   0  0  0  0  0  0  0  0  0  0  0  0
   -3.9127    3.9026   -0.4952 H   0  0  0  0  0  0  0  0  0  0  0  0
   -3.1192    2.5177   -1.1981 H   0  0  0  0  0  0  0  0  0  0  0  0
   -5.4162    3.3545    1.5057 H   0  0  0  0  0  0  0  0  0  0  0  0
   -6.4502    1.9521    1.2707 H   0  0  0  0  0  0  0  0  0  0  0  0
   -6.2788    4.3154   -0.6815 H   0  0  0  0  0  0  0  0  0  0  0  0
   -7.3263    2.9155   -0.8672 H   0  0  0  0  0  0  0  0  0  0  0  0
   -8.4961    3.5054    1.2758 H   0  0  0  0  0  0  0  0  0  0  0  0
   -7.4412    4.9222    1.4477 H   0  0  0  0  0  0  0  0  0  0  0  0
   -8.5746    4.8203    0.0903 H   0  0  0  0  0  0  0  0  0  0  0  0
   -4.5160   -0.7746   -1.9002 H   0  0  0  0  0  0  0  0  0  0  0  0
   -3.7327    0.7379   -2.2788 H   0  0  0  0  0  0  0  0  0  0  0  0
    0.7282    1.1048   -0.8151 H   0  0  0  0  0  0  0  0  0  0  0  0
    1.4815   -0.0680    0.2434 H   0  0  0  0  0  0  0  0  0  0  0  0
    2.2671   -0.1668   -2.1485 H   0  0  0  0  0  0  0  0  0  0  0  0
    0.6486   -0.5719   -2.6703 H   0  0  0  0  0  0  0  0  0  0  0  0
    0.7134   -2.6925   -1.3722 H   0  0  0  0  0  0  0  0  0  0  0  0
    1.9189   -2.5835   -2.6385 H   0  0  0  0  0  0  0  0  0  0  0  0
    2.8235   -3.6311   -0.6371 H   0  0  0  0  0  0  0  0  0  0  0  0
    2.4449   -2.2415    0.3570 H   0  0  0  0  0  0  0  0  0  0  0  0
    4.0597   -0.8382   -0.8579 H   0  0  0  0  0  0  0  0  0  0  0  0
    4.3633   -2.1436   -2.0281 H   0  0  0  0  0  0  0  0  0  0  0  0
    6.3880   -1.0554   -1.0117 H   0  0  0  0  0  0  0  0  0  0  0  0
    7.0609   -3.6172    1.6577 H   0  0  0  0  0  0  0  0  0  0  0  0
    9.2586   -3.8323    2.6997 H   0  0  0  0  0  0  0  0  0  0  0  0
   11.1349   -2.3585    2.0149 H   0  0  0  0  0  0  0  0  0  0  0  0
   10.7779   -0.6457    0.2534 H   0  0  0  0  0  0  0  0  0  0  0  0
    8.5771   -0.4082   -0.8146 H   0  0  0  0  0  0  0  0  0  0  0  0
   -4.7950   -3.3254    2.4862 H   0  0  0  0  0  0  0  0  0  0  0  0
   -5.2805   -1.7670    0.4406 H   0  0  0  0  0  0  0  0  0  0  0  0
  1  2  1  0
  2  3  1  0
  3  4  1  0
  4  5  1  0
  5  6  1  0
  6  7  1  0
  4  8  1  0
  8  9  2  0
  8 10  1  0
 10 11  1  0
 11 12  1  0
 12 13  2  0
 12 14  1  0
 14 15  1  0
 15 16  1  0
 16 17  1  0
 17 18  1  0
 18 19  1  0
 19 20  1  0
 20 21  2  0
 20 22  1  0
 22 23  1  0
 23 24  2  0
 24 25  1  0
 25 26  2  0
 26 27  1  0
 27 28  2  0
 14 29  1  0
 29 30  2  0
 29 31  1  0
 31 32  1  0
 32 33  1  0
 33 34  2  0
 34 35  1  0
 35 11  1  0
 28 23  1  0
 35 31  2  0
  1 36  1  0
  1 37  1  0
  1 38  1  0
  2 39  1  0
  2 40  1  0
  3 41  1  0
  3 42  1  0
  5 43  1  0
  5 44  1  0
  6 45  1  0
  6 46  1  0
  7 47  1  0
  7 48  1  0
  7 49  1  0
 10 50  1  0
 10 51  1  0
 15 52  1  0
 15 53  1  0
 16 54  1  0
 16 55  1  0
 17 56  1  0
 17 57  1  0
 18 58  1  0
 18 59  1  0
 19 60  1  0
 19 61  1  0
 22 62  1  0
 24 63  1  0
 25 64  1  0
 26 65  1  0
 27 66  1  0
 28 67  1  0
 33 68  1  0
 34 69  1  0
M  END
$$$$
