
     RDKit          3D

 42 44  0  0  0  0  0  0  0  0999 V2000
    8.2520   -1.4138   -1.1667 C   0  0  0  0  0  0  0  0  0  0  0  0
    7.0330   -1.8456   -1.7592 O   0  0  0  0  0  0  0  0  0  0  0  0
    5.8899   -1.2165   -1.3510 C   0  0  0  0  0  0  0  0  0  0  0  0
    5.8069   -0.2003   -0.3990 C   0  0  0  0  0  0  0  0  0  0  0  0
    4.5649    0.3575   -0.0744 C   0  0  0  0  0  0  0  0  0  0  0  0
    3.3959   -0.1038   -0.6917 C   0  0  0  0  0  0  0  0  0  0  0  0
    2.0959    0.5215   -0.3103 C   0  0  0  0  0  0  0  0  0  0  0  0
    2.1024    1.7075   -0.0070 O   0  0  0  0  0  0  0  0  0  0  0  0
    1.0190   -0.3492   -0.3068 N   0  0  0  0  0  0  0  0  0  0  0  0
   -0.3060   -0.0336   -0.0259 C   0  0  0  0  0  0  0  0  0  0  0  0
   -0.8026    1.5708    0.2580 S   0  0  0  0  0  0  0  0  0  0  0  0
   -2.4214    1.1139    0.4993 C   0  0  0  0  0  0  0  0  0  0  0  0
   -2.6070   -0.2455    0.3443 C   0  0  0  0  0  0  0  0  0  0  0  0
   -1.3753   -0.9109    0.0449 C   0  0  0  0  0  0  0  0  0  0  0  0
   -1.2441   -2.3219   -0.1623 C   0  0  0  0  0  0  0  0  0  0  0  0
   -1.1099   -3.4600   -0.3437 N   0  0  0  0  0  0  0  0  0  0  0  0
   -3.9671   -0.8480    0.5142 C   0  0  0  0  0  0  0  0  0  0  0  0
   -5.0592    0.2214    0.3429 C   0  0  0  0  0  0  0  0  0  0  0  0
   -4.7614    1.4496    1.1013 N   0  0  0  0  0  0  0  0  0  0  0  0
   -5.7354    2.2302    1.7123 C   0  0  0  0  0  0  0  0  0  0  0  0
   -7.0892    1.6055    1.9324 C   0  0  0  0  0  0  0  0  0  0  0  0
   -5.5221    3.3861    2.0787 O   0  0  0  0  0  0  0  0  0  0  0  0
   -3.4835    2.1226    0.8168 C   0  0  0  0  0  0  0  0  0  0  0  0
    3.4799   -1.1099   -1.6603 C   0  0  0  0  0  0  0  0  0  0  0  0
    4.7235   -1.6632   -1.9796 C   0  0  0  0  0  0  0  0  0  0  0  0
    8.2503   -1.5922   -0.0863 H   0  0  0  0  0  0  0  0  0  0  0  0
    8.4504   -0.3612   -1.3942 H   0  0  0  0  0  0  0  0  0  0  0  0
    9.0628   -2.0068   -1.6007 H   0  0  0  0  0  0  0  0  0  0  0  0
    6.6857    0.1855    0.1073 H   0  0  0  0  0  0  0  0  0  0  0  0
    4.5120    1.1556    0.6646 H   0  0  0  0  0  0  0  0  0  0  0  0
    1.2212   -1.3310   -0.4538 H   0  0  0  0  0  0  0  0  0  0  0  0
   -4.0323   -1.2773    1.5216 H   0  0  0  0  0  0  0  0  0  0  0  0
   -4.1318   -1.6562   -0.2065 H   0  0  0  0  0  0  0  0  0  0  0  0
   -6.0210   -0.2075    0.6327 H   0  0  0  0  0  0  0  0  0  0  0  0
   -5.1449    0.5164   -0.7108 H   0  0  0  0  0  0  0  0  0  0  0  0
   -6.9895    0.6627    2.4766 H   0  0  0  0  0  0  0  0  0  0  0  0
   -7.5922    1.4502    0.9745 H   0  0  0  0  0  0  0  0  0  0  0  0
   -7.7034    2.2791    2.5380 H   0  0  0  0  0  0  0  0  0  0  0  0
   -3.6451    2.7872   -0.0404 H   0  0  0  0  0  0  0  0  0  0  0  0
   -3.1922    2.7313    1.6805 H   0  0  0  0  0  0  0  0  0  0  0  0
    2.6024   -1.4563   -2.1986 H   0  0  0  0  0  0  0  0  0  0  0  0
    4.7887   -2.4439   -2.7347 H   0  0  0  0  0  0  0  0  0  0  0  0
  1  2  1  0
  2  3  1  0
  3  4  2  0
  4  5  1  0
  5  6  2  0
  6  7  1  0
  7  8  2  0
  7  9  1  0
  9 10  1  0
 10 11  1  0
 11 12  1  0
 12 13  2  0
 13 14  1  0
 14 15  1  0
 15 16  3  0
 13 17  1  0
 17 18  1  0
 18 19  1  0
 19 20  1  0
 20 21  1  0
 20 22  2  0
 19 23  1  0
  6 24  1  0
 24 25  2  0
 25  3  1  0
 14 10  2  0
 23 12  1  0
  1 26  1  0
  1 27  1  0
  1 28  1  0
  4 29  1  0
  5 30  1  0
  9 31  1  0
 17 32  1  0
 17 33  1  0
 18 34  1  0
 18 35  1  0
 21 36  1  0
 21 37  1  0
 21 38  1  0
 23 39  1  0
 23 40  1  0
 24 41  1  0
 25 42  1  0
M  END
$$$$
