
     RDKit          3D

 48 50  0  0  0  0  0  0  0  0999 V2000
    6.4034   -2.3215   -0.6279 C   0  0  0  0  0  0  0  0  0  0  0  0
    5.0665   -2.7275   -1.2342 C   0  0  0  0  0  0  0  0  0  0  0  0
    3.8622   -2.0900   -0.5474 C   0  0  0  0  0  0  0  0  0  0  0  0
    3.7588   -0.3237   -0.7803 S   0  0  0  0  0  6  0  0  0  0  0  0
    3.6493   -0.0412   -2.1999 O   0  0  0  0  0  0  0  0  0  0  0  0
    4.7291    0.3278    0.0777 O   0  0  0  0  0  0  0  0  0  0  0  0
    2.1738    0.0691   -0.0881 C   0  0  0  0  0  0  0  0  0  0  0  0
    1.2874   -0.8072    0.3293 N   0  0  0  0  0  0  0  0  0  0  0  0
    0.1826   -0.1188    0.8381 C   0  0  0  0  0  0  0  0  0  0  0  0
   -1.2015   -1.0168    1.4293 S   0  0  0  0  0  6  0  0  0  0  0  0
   -0.6419   -2.1852    2.0837 O   0  0  0  0  0  0  0  0  0  0  0  0
   -2.0337   -0.0639    2.1444 O   0  0  0  0  0  0  0  0  0  0  0  0
   -2.0404   -1.5188   -0.0456 C   0  0  0  0  0  0  0  0  0  0  0  0
   -2.8651   -0.6103   -0.7125 C   0  0  0  0  0  0  0  0  0  0  0  0
   -3.5262   -1.0101   -1.8737 C   0  0  0  0  0  0  0  0  0  0  0  0
   -3.3689   -2.3122   -2.3696 C   0  0  0  0  0  0  0  0  0  0  0  0
   -4.0938   -2.7507   -3.6114 C   0  0  0  0  0  0  0  0  0  0  0  0
   -2.5576   -3.2201   -1.6765 C   0  0  0  0  0  0  0  0  0  0  0  0
   -1.8916   -2.8252   -0.5155 C   0  0  0  0  0  0  0  0  0  0  0  0
    0.2553    1.2738    0.8014 C   0  0  0  0  0  0  0  0  0  0  0  0
   -0.6753    2.1798    1.2354 N   0  0  0  0  0  0  0  0  0  0  0  0
   -0.3021    3.5450    1.6113 C   0  0  0  0  0  0  0  0  0  0  0  0
   -1.4200    4.3588    2.1853 C   0  0  0  0  0  0  0  0  0  0  0  0
   -2.7788    4.1579    2.3463 C   0  0  0  0  0  0  0  0  0  0  0  0
   -3.2874    5.3196    2.9807 C   0  0  0  0  0  0  0  0  0  0  0  0
   -2.2143    6.1603    3.1549 C   0  0  0  0  0  0  0  0  0  0  0  0
   -1.0775    5.5860    2.6767 O   0  0  0  0  0  0  0  0  0  0  0  0
    1.7534    1.7115    0.0536 S   0  0  0  0  0  0  0  0  0  0  0  0
    7.2114   -2.9165   -1.0685 H   0  0  0  0  0  0  0  0  0  0  0  0
    6.4139   -2.4922    0.4551 H   0  0  0  0  0  0  0  0  0  0  0  0
    6.6310   -1.2701   -0.8193 H   0  0  0  0  0  0  0  0  0  0  0  0
    4.9698   -3.8193   -1.1425 H   0  0  0  0  0  0  0  0  0  0  0  0
    5.0655   -2.4995   -2.3082 H   0  0  0  0  0  0  0  0  0  0  0  0
    2.9538   -2.5194   -0.9790 H   0  0  0  0  0  0  0  0  0  0  0  0
    3.8675   -2.2927    0.5285 H   0  0  0  0  0  0  0  0  0  0  0  0
   -2.9988    0.4003   -0.3423 H   0  0  0  0  0  0  0  0  0  0  0  0
   -4.1682   -0.2983   -2.3898 H   0  0  0  0  0  0  0  0  0  0  0  0
   -3.4114   -3.2821   -4.2862 H   0  0  0  0  0  0  0  0  0  0  0  0
   -4.9258   -3.4131   -3.3472 H   0  0  0  0  0  0  0  0  0  0  0  0
   -4.4952   -1.8912   -4.1621 H   0  0  0  0  0  0  0  0  0  0  0  0
   -2.4426   -4.2423   -2.0361 H   0  0  0  0  0  0  0  0  0  0  0  0
   -1.2636   -3.5387    0.0124 H   0  0  0  0  0  0  0  0  0  0  0  0
   -1.3889    1.7997    1.8733 H   0  0  0  0  0  0  0  0  0  0  0  0
    0.5033    3.5047    2.3558 H   0  0  0  0  0  0  0  0  0  0  0  0
    0.0757    4.0762    0.7295 H   0  0  0  0  0  0  0  0  0  0  0  0
   -3.3343    3.2799    2.0452 H   0  0  0  0  0  0  0  0  0  0  0  0
   -4.3098    5.5205    3.2734 H   0  0  0  0  0  0  0  0  0  0  0  0
   -2.0991    7.1475    3.5802 H   0  0  0  0  0  0  0  0  0  0  0  0
  1  2  1  0
  2  3  1  0
  3  4  1  0
  4  5  2  0
  4  6  2  0
  4  7  1  0
  7  8  2  0
  8  9  1  0
  9 10  1  0
 10 11  2  0
 10 12  2  0
 10 13  1  0
 13 14  2  0
 14 15  1  0
 15 16  2  0
 16 17  1  0
 16 18  1  0
 18 19  2  0
  9 20  2  0
 20 21  1  0
 21 22  1  0
 22 23  1  0
 23 24  2  0
 24 25  1  0
 25 26  2  0
 26 27  1  0
 20 28  1  0
 28  7  1  0
 19 13  1  0
 27 23  1  0
  1 29  1  0
  1 30  1  0
  1 31  1  0
  2 32  1  0
  2 33  1  0
  3 34  1  0
  3 35  1  0
 14 36  1  0
 15 37  1  0
 17 38  1  0
 17 39  1  0
 17 40  1  0
 18 41  1  0
 19 42  1  0
 21 43  1  0
 22 44  1  0
 22 45  1  0
 24 46  1  0
 25 47  1  0
 26 48  1  0
M  END
$$$$
