
     RDKit          3D

 45 47  0  0  0  0  0  0  0  0999 V2000
   -0.0618   -1.2997   -2.3227 C   0  0  0  0  0  0  0  0  0  0  0  0
    0.3773   -0.9996   -0.9372 C   0  0  0  0  0  0  0  0  0  0  0  0
    1.6298   -0.8057   -0.5753 N   0  0  0  0  0  0  0  0  0  0  0  0
    1.5654   -0.7096    0.8007 C   0  0  0  0  0  0  0  0  0  0  0  0
    2.7765   -0.4976    1.6269 C   0  0  0  0  0  0  0  0  0  0  0  0
    2.7433   -0.3859    2.8479 O   0  0  0  0  0  0  0  0  0  0  0  0
    3.9146   -0.4406    0.8395 N   0  0  0  0  0  0  0  0  0  0  0  0
    5.2567   -0.2546    1.2312 C   0  0  0  0  0  0  0  0  0  0  0  0
    5.6491   -0.0951    2.5634 C   0  0  0  0  0  0  0  0  0  0  0  0
    6.9984    0.0857    2.8897 C   0  0  0  0  0  0  0  0  0  0  0  0
    7.9635    0.1079    1.8862 C   0  0  0  0  0  0  0  0  0  0  0  0
    9.6188    0.3309    2.2966 Cl  0  0  0  0  0  0  0  0  0  0  0  0
    7.5968   -0.0490    0.5542 C   0  0  0  0  0  0  0  0  0  0  0  0
    6.2499   -0.2292    0.2317 C   0  0  0  0  0  0  0  0  0  0  0  0
    5.8362   -0.4202   -1.4399 Cl  0  0  0  0  0  0  0  0  0  0  0  0
    0.3248   -0.8279    1.2891 N   0  0  0  0  0  0  0  0  0  0  0  0
   -0.4399   -0.9831    0.1872 N   0  0  0  0  0  0  0  0  0  0  0  0
   -1.8568   -0.9965    0.2831 C   0  0  0  0  0  0  0  0  0  0  0  0
   -2.6103   -0.3432   -0.7070 C   0  0  0  0  0  0  0  0  0  0  0  0
   -4.0036   -0.2763   -0.6121 C   0  0  0  0  0  0  0  0  0  0  0  0
   -4.6611    0.3569   -1.6340 O   0  0  0  0  0  0  0  0  0  0  0  0
   -5.1208    1.6717   -1.2679 C   0  0  0  0  0  0  0  0  0  0  0  0
   -4.1021    2.7089   -1.7343 C   0  0  0  0  0  0  0  0  0  0  0  0
   -6.4567    1.8961   -1.9698 C   0  0  0  0  0  0  0  0  0  0  0  0
   -4.6664   -0.9062    0.4424 C   0  0  0  0  0  0  0  0  0  0  0  0
   -6.3869   -0.9408    0.5514 Cl  0  0  0  0  0  0  0  0  0  0  0  0
   -3.9274   -1.5554    1.4305 C   0  0  0  0  0  0  0  0  0  0  0  0
   -2.5271   -1.5998    1.3627 C   0  0  0  0  0  0  0  0  0  0  0  0
   -1.7515   -2.5501    2.5840 Cl  0  0  0  0  0  0  0  0  0  0  0  0
    0.7633   -1.7499   -2.8852 H   0  0  0  0  0  0  0  0  0  0  0  0
   -0.3530   -0.3833   -2.8437 H   0  0  0  0  0  0  0  0  0  0  0  0
   -0.8933   -2.0100   -2.3439 H   0  0  0  0  0  0  0  0  0  0  0  0
    3.7440   -0.5500   -0.1604 H   0  0  0  0  0  0  0  0  0  0  0  0
    4.9314   -0.1066    3.3787 H   0  0  0  0  0  0  0  0  0  0  0  0
    7.2836    0.2078    3.9323 H   0  0  0  0  0  0  0  0  0  0  0  0
    8.3518   -0.0314   -0.2267 H   0  0  0  0  0  0  0  0  0  0  0  0
   -2.1400    0.1773   -1.5363 H   0  0  0  0  0  0  0  0  0  0  0  0
   -5.2708    1.7712   -0.1851 H   0  0  0  0  0  0  0  0  0  0  0  0
   -4.4594    3.7267   -1.5493 H   0  0  0  0  0  0  0  0  0  0  0  0
   -3.1502    2.5820   -1.2087 H   0  0  0  0  0  0  0  0  0  0  0  0
   -3.8899    2.5983   -2.8034 H   0  0  0  0  0  0  0  0  0  0  0  0
   -6.3508    1.7995   -3.0562 H   0  0  0  0  0  0  0  0  0  0  0  0
   -6.8628    2.8868   -1.7440 H   0  0  0  0  0  0  0  0  0  0  0  0
   -7.1874    1.1425   -1.6588 H   0  0  0  0  0  0  0  0  0  0  0  0
   -4.4451   -2.0525    2.2487 H   0  0  0  0  0  0  0  0  0  0  0  0
  1  2  1  0
  2  3  2  0
  3  4  1  0
  4  5  1  0
  5  6  2  0
  5  7  1  0
  7  8  1  0
  8  9  2  0
  9 10  1  0
 10 11  2  0
 11 12  1  0
 11 13  1  0
 13 14  2  0
 14 15  1  0
  4 16  2  0
 16 17  1  0
 17 18  1  0
 18 19  2  0
 19 20  1  0
 20 21  1  0
 21 22  1  0
 22 23  1  0
 22 24  1  0
 20 25  2  0
 25 26  1  0
 25 27  1  0
 27 28  2  0
 28 29  1  0
 17  2  1  0
 28 18  1  0
 14  8  1  0
  1 30  1  0
  1 31  1  0
  1 32  1  0
  7 33  1  0
  9 34  1  0
 10 35  1  0
 13 36  1  0
 19 37  1  0
 22 38  1  0
 23 39  1  0
 23 40  1  0
 23 41  1  0
 24 42  1  0
 24 43  1  0
 24 44  1  0
 27 45  1  0
M  END
$$$$
