
     RDKit          3D

 47 49  0  0  0  0  0  0  0  0999 V2000
    8.2323    1.4203   -0.5111 C   0  0  0  0  0  0  0  0  0  0  0  0
    6.7560    1.2502   -0.8219 C   0  0  0  0  0  0  0  0  0  0  0  0
    6.2161    0.3127    0.1079 O   0  0  0  0  0  0  0  0  0  0  0  0
    4.8818    0.0335    0.0052 C   0  0  0  0  0  0  0  0  0  0  0  0
    4.0027    0.5553   -0.9421 C   0  0  0  0  0  0  0  0  0  0  0  0
    2.6515    0.1833   -0.9349 C   0  0  0  0  0  0  0  0  0  0  0  0
    2.1674   -0.7248    0.0141 C   0  0  0  0  0  0  0  0  0  0  0  0
    0.7896   -1.1118    0.0189 N   0  0  0  0  0  0  0  0  0  0  0  0
    0.2718   -2.3417    0.4494 C   0  0  0  0  0  0  0  0  0  0  0  0
    1.0098   -3.4130    0.7460 O   0  0  0  0  0  0  0  0  0  0  0  0
   -1.1049   -2.2594    0.4502 C   0  0  0  0  0  0  0  0  0  0  0  0
   -1.4568   -1.0195   -0.1097 C   0  0  0  0  0  0  0  0  0  0  0  0
   -2.7054   -0.5152   -0.3534 N   0  0  0  0  0  0  0  0  0  0  0  0
   -3.0956   -0.4549   -1.7731 C   0  0  0  0  0  0  0  0  0  0  0  0
   -3.7989   -0.9498    0.5408 C   0  0  0  0  0  0  0  0  0  0  0  0
   -4.8750    0.1096    0.6497 C   0  0  0  0  0  0  0  0  0  0  0  0
   -6.1995   -0.1721    0.2852 C   0  0  0  0  0  0  0  0  0  0  0  0
   -7.1877    0.8077    0.3987 C   0  0  0  0  0  0  0  0  0  0  0  0
   -6.8637    2.0753    0.8799 C   0  0  0  0  0  0  0  0  0  0  0  0
   -5.5518    2.3660    1.2494 C   0  0  0  0  0  0  0  0  0  0  0  0
   -4.5628    1.3883    1.1368 C   0  0  0  0  0  0  0  0  0  0  0  0
   -0.2939   -0.3265   -0.3728 C   0  0  0  0  0  0  0  0  0  0  0  0
   -0.1779    0.9258   -0.8180 O   0  0  0  0  0  0  0  0  0  0  0  0
    3.0504   -1.2355    0.9746 C   0  0  0  0  0  0  0  0  0  0  0  0
    4.3971   -0.8590    0.9625 C   0  0  0  0  0  0  0  0  0  0  0  0
    8.6961    2.1325   -1.1994 H   0  0  0  0  0  0  0  0  0  0  0  0
    8.3717    1.7776    0.5146 H   0  0  0  0  0  0  0  0  0  0  0  0
    8.7556    0.4615   -0.5885 H   0  0  0  0  0  0  0  0  0  0  0  0
    6.2551    2.2199   -0.7199 H   0  0  0  0  0  0  0  0  0  0  0  0
    6.6473    0.8753   -1.8461 H   0  0  0  0  0  0  0  0  0  0  0  0
    4.3304    1.2542   -1.7044 H   0  0  0  0  0  0  0  0  0  0  0  0
    2.0035    0.5975   -1.7035 H   0  0  0  0  0  0  0  0  0  0  0  0
    1.8735   -3.3282    0.3033 H   0  0  0  0  0  0  0  0  0  0  0  0
   -1.7644   -3.0601    0.7536 H   0  0  0  0  0  0  0  0  0  0  0  0
   -2.2913   -0.0509   -2.3980 H   0  0  0  0  0  0  0  0  0  0  0  0
   -3.9615    0.1994   -1.9151 H   0  0  0  0  0  0  0  0  0  0  0  0
   -3.3501   -1.4535   -2.1463 H   0  0  0  0  0  0  0  0  0  0  0  0
   -3.4267   -1.1284    1.5590 H   0  0  0  0  0  0  0  0  0  0  0  0
   -4.2195   -1.8991    0.1845 H   0  0  0  0  0  0  0  0  0  0  0  0
   -6.4707   -1.1559   -0.0905 H   0  0  0  0  0  0  0  0  0  0  0  0
   -8.2119    0.5820    0.1131 H   0  0  0  0  0  0  0  0  0  0  0  0
   -7.6341    2.8368    0.9685 H   0  0  0  0  0  0  0  0  0  0  0  0
   -5.2979    3.3533    1.6259 H   0  0  0  0  0  0  0  0  0  0  0  0
   -3.5397    1.6220    1.4257 H   0  0  0  0  0  0  0  0  0  0  0  0
   -1.0989    1.2557   -0.8234 H   0  0  0  0  0  0  0  0  0  0  0  0
    2.7088   -1.8838    1.7786 H   0  0  0  0  0  0  0  0  0  0  0  0
    5.0721   -1.2526    1.7191 H   0  0  0  0  0  0  0  0  0  0  0  0
  1  2  1  0
  2  3  1  0
  3  4  1  0
  4  5  2  0
  5  6  1  0
  6  7  2  0
  7  8  1  0
  8  9  1  0
  9 10  1  0
  9 11  2  0
 11 12  1  0
 12 13  1  0
 13 14  1  0
 13 15  1  0
 15 16  1  0
 16 17  2  0
 17 18  1  0
 18 19  2  0
 19 20  1  0
 20 21  2  0
 12 22  2  0
 22 23  1  0
  7 24  1  0
 24 25  2  0
 25  4  1  0
 22  8  1  0
 21 16  1  0
  1 26  1  0
  1 27  1  0
  1 28  1  0
  2 29  1  0
  2 30  1  0
  5 31  1  0
  6 32  1  0
 10 33  1  0
 11 34  1  0
 14 35  1  0
 14 36  1  0
 14 37  1  0
 15 38  1  0
 15 39  1  0
 17 40  1  0
 18 41  1  0
 19 42  1  0
 20 43  1  0
 21 44  1  0
 23 45  1  0
 24 46  1  0
 25 47  1  0
M  END
$$$$
