
     RDKit          3D

 53 58  0  0  0  0  0  0  0  0999 V2000
   -1.4777   -1.9582   -0.4926 O   0  0  0  0  0  0  0  0  0  0  0  0
   -1.5779   -1.1362    0.4215 C   0  0  0  0  0  0  0  0  0  0  0  0
   -0.4520   -1.0558    1.4727 C   0  0  0  0  0  0  0  0  0  0  0  0
    0.8470   -0.9442    0.7883 N   0  0  0  0  0  4  0  0  0  0  0  0
    1.5199    0.2349    0.4672 C   0  0  0  0  0  0  0  0  0  0  0  0
    2.6425   -0.0785   -0.2899 C   0  0  0  0  0  0  0  0  0  0  0  0
    3.6974    0.9391   -0.8547 C   0  0  0  0  0  0  0  0  0  0  0  0
    3.5151    2.3144   -0.6573 C   0  0  0  0  0  0  0  0  0  0  0  0
    4.4525    3.2263   -1.1482 C   0  0  0  0  0  0  0  0  0  0  0  0
    5.5743    2.7731   -1.8371 C   0  0  0  0  0  0  0  0  0  0  0  0
    5.7582    1.4085   -2.0392 C   0  0  0  0  0  0  0  0  0  0  0  0
    4.8228    0.4924   -1.5480 C   0  0  0  0  0  0  0  0  0  0  0  0
    2.5725   -1.4563   -0.4053 N   0  0  0  0  0  0  0  0  0  0  0  0
    1.5196   -1.9508    0.2394 C   0  0  0  0  0  0  0  0  0  0  0  0
    1.4171   -3.4253    0.1457 C   0  0  0  0  0  0  0  0  0  0  0  0
    2.4070   -3.7426   -0.9919 C   0  0  0  0  0  0  0  0  0  0  0  0
    3.3353   -2.4990   -1.0765 C   0  0  0  0  0  0  0  0  0  0  0  0
   -2.5552   -0.1384    0.5482 N   0  0  0  0  0  0  0  0  0  0  0  0
   -3.0035    0.6322   -0.5912 C   0  0  0  0  0  0  0  0  0  0  0  0
   -2.8105    0.1684   -1.9081 C   0  0  0  0  0  0  0  0  0  0  0  0
   -3.2192    0.9080   -3.0246 C   0  0  0  0  0  0  0  0  0  0  0  0
   -3.8291    2.1407   -2.8558 C   0  0  0  0  0  0  0  0  0  0  0  0
   -4.0168    2.6359   -1.5720 C   0  0  0  0  0  0  0  0  0  0  0  0
   -3.6035    1.8986   -0.4475 C   0  0  0  0  0  0  0  0  0  0  0  0
   -3.7750    2.7144    1.1208 S   0  0  0  0  0  0  0  0  0  0  0  0
   -3.7780    1.3076    2.1874 C   0  0  0  0  0  0  0  0  0  0  0  0
   -4.3716    1.4636    3.4510 C   0  0  0  0  0  0  0  0  0  0  0  0
   -4.4080    0.4096    4.3587 C   0  0  0  0  0  0  0  0  0  0  0  0
   -3.8608   -0.8153    4.0057 C   0  0  0  0  0  0  0  0  0  0  0  0
   -3.2653   -0.9755    2.7524 C   0  0  0  0  0  0  0  0  0  0  0  0
   -3.1878    0.0887    1.8264 C   0  0  0  0  0  0  0  0  0  0  0  0
   -0.4561   -1.9677    2.0770 H   0  0  0  0  0  0  0  0  0  0  0  0
   -0.5547   -0.1919    2.1332 H   0  0  0  0  0  0  0  0  0  0  0  0
    1.1054    1.1651    0.8208 H   0  0  0  0  0  0  0  0  0  0  0  0
    2.6547    2.7147   -0.1293 H   0  0  0  0  0  0  0  0  0  0  0  0
    4.3092    4.2916   -0.9862 H   0  0  0  0  0  0  0  0  0  0  0  0
    6.3040    3.4844   -2.2177 H   0  0  0  0  0  0  0  0  0  0  0  0
    6.6376    1.0559   -2.5742 H   0  0  0  0  0  0  0  0  0  0  0  0
    5.0164   -0.5570   -1.7200 H   0  0  0  0  0  0  0  0  0  0  0  0
    1.7477   -3.8210    1.1087 H   0  0  0  0  0  0  0  0  0  0  0  0
    0.3912   -3.7124   -0.0798 H   0  0  0  0  0  0  0  0  0  0  0  0
    1.8505   -3.8265   -1.9320 H   0  0  0  0  0  0  0  0  0  0  0  0
    2.9554   -4.6754   -0.8372 H   0  0  0  0  0  0  0  0  0  0  0  0
    3.5325   -2.2338   -2.1185 H   0  0  0  0  0  0  0  0  0  0  0  0
    4.2686   -2.6610   -0.5294 H   0  0  0  0  0  0  0  0  0  0  0  0
   -2.3801   -0.8033   -2.1241 H   0  0  0  0  0  0  0  0  0  0  0  0
   -3.0660    0.5117   -4.0268 H   0  0  0  0  0  0  0  0  0  0  0  0
   -4.1560    2.7169   -3.7176 H   0  0  0  0  0  0  0  0  0  0  0  0
   -4.4864    3.6117   -1.4507 H   0  0  0  0  0  0  0  0  0  0  0  0
   -4.8288    2.4114    3.7353 H   0  0  0  0  0  0  0  0  0  0  0  0
   -4.8867    0.5380    5.3267 H   0  0  0  0  0  0  0  0  0  0  0  0
   -3.9229   -1.6537    4.6967 H   0  0  0  0  0  0  0  0  0  0  0  0
   -2.9244   -1.9774    2.4993 H   0  0  0  0  0  0  0  0  0  0  0  0
  1  2  2  0
  2  3  1  0
  3  4  1  0
  4  5  1  0
  5  6  2  0
  6  7  1  0
  7  8  2  0
  8  9  1  0
  9 10  2  0
 10 11  1  0
 11 12  2  0
  6 13  1  0
 13 14  1  0
 14 15  1  0
 15 16  1  0
 16 17  1  0
  2 18  1  0
 18 19  1  0
 19 20  2  0
 20 21  1  0
 21 22  2  0
 22 23  1  0
 23 24  2  0
 24 25  1  0
 25 26  1  0
 26 27  2  0
 27 28  1  0
 28 29  2  0
 29 30  1  0
 30 31  2  0
 14  4  2  0
 31 18  1  0
 12  7  1  0
 17 13  1  0
 24 19  1  0
 31 26  1  0
  3 32  1  0
  3 33  1  0
  5 34  1  0
  8 35  1  0
  9 36  1  0
 10 37  1  0
 11 38  1  0
 12 39  1  0
 15 40  1  0
 15 41  1  0
 16 42  1  0
 16 43  1  0
 17 44  1  0
 17 45  1  0
 20 46  1  0
 21 47  1  0
 22 48  1  0
 23 49  1  0
 27 50  1  0
 28 51  1  0
 29 52  1  0
 30 53  1  0
M  CHG  1   4   1
M  END
$$$$
