
     RDKit          3D

 52 54  0  0  0  0  0  0  0  0999 V2000
   -4.1855    3.0606   -2.0173 C   0  0  0  0  0  0  0  0  0  0  0  0
   -3.5781    1.7916   -1.3816 C   0  0  0  0  0  0  0  0  0  0  0  0
   -4.3264    0.5753   -1.9620 C   0  0  0  0  0  0  0  0  0  0  0  0
   -2.0662    1.7436   -1.7478 C   0  0  0  0  0  0  0  0  0  0  0  0
   -1.3171    0.7569   -0.8989 C   0  0  0  0  0  0  0  0  0  0  0  0
   -1.8333    0.3898    0.3332 C   0  0  0  0  0  0  0  0  0  0  0  0
   -0.8764   -0.8054    1.0801 S   0  0  0  0  0  0  0  0  0  0  0  0
    0.2244   -0.8457   -0.2068 C   0  0  0  0  0  0  0  0  0  0  0  0
    1.3033   -1.7173   -0.2054 N   0  0  0  0  0  0  0  0  0  0  0  0
    1.6082   -2.6898    0.7294 C   0  0  0  0  0  0  0  0  0  0  0  0
    0.9748   -2.9945    1.7355 O   0  0  0  0  0  0  0  0  0  0  0  0
    2.8939   -3.4416    0.3733 C   0  0  0  0  0  0  0  0  0  0  0  0
    3.9566   -2.5946   -0.0521 O   0  0  0  0  0  0  0  0  0  0  0  0
    4.7556   -2.0359    0.9229 C   0  0  0  0  0  0  0  0  0  0  0  0
    4.3988   -1.9239    2.2743 C   0  0  0  0  0  0  0  0  0  0  0  0
    5.2765   -1.3416    3.1985 C   0  0  0  0  0  0  0  0  0  0  0  0
    6.5143   -0.8614    2.7776 C   0  0  0  0  0  0  0  0  0  0  0  0
    7.5934   -0.1580    3.9224 Cl  0  0  0  0  0  0  0  0  0  0  0  0
    6.8813   -0.9438    1.4389 C   0  0  0  0  0  0  0  0  0  0  0  0
    6.0006   -1.5235    0.5163 C   0  0  0  0  0  0  0  0  0  0  0  0
    6.5021   -1.6110   -1.1375 Cl  0  0  0  0  0  0  0  0  0  0  0  0
   -0.0682    0.0869   -1.1965 C   0  0  0  0  0  0  0  0  0  0  0  0
    0.8082    0.2613   -2.3556 C   0  0  0  0  0  0  0  0  0  0  0  0
    0.7508    1.4645   -2.9988 N   0  0  0  0  0  0  0  0  0  0  0  0
    1.6268   -0.5837   -2.7112 O   0  0  0  0  0  0  0  0  0  0  0  0
   -3.1065    0.9395    0.9612 C   0  0  0  0  0  0  0  0  0  0  0  0
   -2.7573    1.7365    2.2364 C   0  0  0  0  0  0  0  0  0  0  0  0
   -4.0967   -0.1812    1.3393 C   0  0  0  0  0  0  0  0  0  0  0  0
   -3.7788    1.9252    0.0744 N   0  0  0  0  0  0  0  0  0  0  0  0
   -3.7089    3.9700   -1.6317 H   0  0  0  0  0  0  0  0  0  0  0  0
   -4.0535    3.0571   -3.1056 H   0  0  0  0  0  0  0  0  0  0  0  0
   -5.2596    3.1378   -1.8143 H   0  0  0  0  0  0  0  0  0  0  0  0
   -5.3807    0.5782   -1.6638 H   0  0  0  0  0  0  0  0  0  0  0  0
   -4.3009    0.5895   -3.0586 H   0  0  0  0  0  0  0  0  0  0  0  0
   -3.8882   -0.3758   -1.6485 H   0  0  0  0  0  0  0  0  0  0  0  0
   -1.6141    2.7329   -1.5928 H   0  0  0  0  0  0  0  0  0  0  0  0
   -1.9571    1.4914   -2.8106 H   0  0  0  0  0  0  0  0  0  0  0  0
    1.9215   -1.6422   -1.0171 H   0  0  0  0  0  0  0  0  0  0  0  0
    2.6544   -4.1014   -0.4623 H   0  0  0  0  0  0  0  0  0  0  0  0
    3.1979   -4.0883    1.1976 H   0  0  0  0  0  0  0  0  0  0  0  0
    3.4409   -2.2729    2.6491 H   0  0  0  0  0  0  0  0  0  0  0  0
    4.9832   -1.2679    4.2440 H   0  0  0  0  0  0  0  0  0  0  0  0
    7.8458   -0.5636    1.1171 H   0  0  0  0  0  0  0  0  0  0  0  0
    0.3852    2.2735   -2.5177 H   0  0  0  0  0  0  0  0  0  0  0  0
    1.4940    1.6315   -3.6633 H   0  0  0  0  0  0  0  0  0  0  0  0
   -2.3011    1.0982    3.0035 H   0  0  0  0  0  0  0  0  0  0  0  0
   -2.0465    2.5464    2.0241 H   0  0  0  0  0  0  0  0  0  0  0  0
   -3.6515    2.1858    2.6847 H   0  0  0  0  0  0  0  0  0  0  0  0
   -3.6937   -0.8234    2.1324 H   0  0  0  0  0  0  0  0  0  0  0  0
   -4.3359   -0.8318    0.4931 H   0  0  0  0  0  0  0  0  0  0  0  0
   -5.0390    0.2318    1.7196 H   0  0  0  0  0  0  0  0  0  0  0  0
   -4.7716    1.9644    0.2943 H   0  0  0  0  0  0  0  0  0  0  0  0
  1  2  1  0
  2  3  1  0
  2  4  1  0
  4  5  1  0
  5  6  2  0
  6  7  1  0
  7  8  1  0
  8  9  1  0
  9 10  1  0
 10 11  2  0
 10 12  1  0
 12 13  1  0
 13 14  1  0
 14 15  2  0
 15 16  1  0
 16 17  2  0
 17 18  1  0
 17 19  1  0
 19 20  2  0
 20 21  1  0
  8 22  2  0
 22 23  1  0
 23 24  1  0
 23 25  2  0
  6 26  1  0
 26 27  1  0
 26 28  1  0
 26 29  1  0
 29  2  1  0
 22  5  1  0
 20 14  1  0
  1 30  1  0
  1 31  1  0
  1 32  1  0
  3 33  1  0
  3 34  1  0
  3 35  1  0
  4 36  1  0
  4 37  1  0
  9 38  1  0
 12 39  1  0
 12 40  1  0
 15 41  1  0
 16 42  1  0
 19 43  1  0
 24 44  1  0
 24 45  1  0
 27 46  1  0
 27 47  1  0
 27 48  1  0
 28 49  1  0
 28 50  1  0
 28 51  1  0
 29 52  1  0
M  END
$$$$
