
     RDKit          3D

 48 52  0  0  0  0  0  0  0  0999 V2000
    5.6314   -1.1287   -0.9055 C   0  0  0  0  0  0  0  0  0  0  0  0
    4.1864   -0.7315   -0.9621 C   0  0  0  0  0  0  0  0  0  0  0  0
    3.4641   -0.5135    0.2148 C   0  0  0  0  0  0  0  0  0  0  0  0
    2.1250   -0.1160    0.1631 C   0  0  0  0  0  0  0  0  0  0  0  0
    1.4796    0.0921   -1.0682 C   0  0  0  0  0  0  0  0  0  0  0  0
    0.0318    0.5325   -1.1796 C   0  0  0  0  0  0  0  0  0  0  0  0
   -0.0621    1.8419   -0.4971 C   0  0  0  0  0  0  0  0  0  0  0  0
   -0.9363    1.7761    0.6001 C   0  0  0  0  0  0  0  0  0  0  0  0
   -1.0751    3.0373    1.1146 C   0  0  0  0  0  0  0  0  0  0  0  0
   -1.8855    3.5213    2.0470 O   0  0  0  0  0  0  0  0  0  0  0  0
   -0.1965    3.8449    0.4179 N   0  0  0  0  0  0  0  0  0  0  0  0
    0.0089    5.2541    0.6638 C   0  0  0  0  0  0  0  0  0  0  0  0
    0.4200    3.1223   -0.5893 C   0  0  0  0  0  0  0  0  0  0  0  0
    1.2931    3.6897   -1.4111 O   0  0  0  0  0  0  0  0  0  0  0  0
   -1.4708    0.4051    0.8067 C   0  0  0  0  0  0  0  0  0  0  0  0
   -2.9951    0.4044    0.9311 C   0  0  0  0  0  0  0  0  0  0  0  0
   -3.6386    1.3908    1.3136 O   0  0  0  0  0  0  0  0  0  0  0  0
   -3.6745   -0.7785    0.8426 N   0  0  0  0  0  0  0  0  0  0  0  0
   -3.1616   -2.0817    0.7468 C   0  0  0  0  0  0  0  0  0  0  0  0
   -3.9672   -3.0771    1.3318 C   0  0  0  0  0  0  0  0  0  0  0  0
   -3.5692   -4.4151    1.3552 C   0  0  0  0  0  0  0  0  0  0  0  0
   -2.3659   -4.7863    0.7732 C   0  0  0  0  0  0  0  0  0  0  0  0
   -1.5781   -3.8192    0.1515 C   0  0  0  0  0  0  0  0  0  0  0  0
   -1.9660   -2.4632    0.1256 C   0  0  0  0  0  0  0  0  0  0  0  0
   -1.1285   -1.5884   -0.7281 C   0  0  0  0  0  0  0  0  0  0  0  0
   -0.6244   -2.0829   -1.7361 O   0  0  0  0  0  0  0  0  0  0  0  0
   -0.9347   -0.2748   -0.3920 N   0  0  0  0  0  0  0  0  0  0  0  0
    2.2173   -0.1240   -2.2443 C   0  0  0  0  0  0  0  0  0  0  0  0
    3.5554   -0.5242   -2.1920 C   0  0  0  0  0  0  0  0  0  0  0  0
    6.2642   -0.2361   -0.8859 H   0  0  0  0  0  0  0  0  0  0  0  0
    5.8371   -1.7284   -0.0126 H   0  0  0  0  0  0  0  0  0  0  0  0
    5.9038   -1.7370   -1.7744 H   0  0  0  0  0  0  0  0  0  0  0  0
    3.9388   -0.6520    1.1836 H   0  0  0  0  0  0  0  0  0  0  0  0
    1.5938    0.0433    1.0981 H   0  0  0  0  0  0  0  0  0  0  0  0
   -0.3165    0.5811   -2.2172 H   0  0  0  0  0  0  0  0  0  0  0  0
   -2.6404    2.8965    2.1102 H   0  0  0  0  0  0  0  0  0  0  0  0
   -0.2351    5.4845    1.7038 H   0  0  0  0  0  0  0  0  0  0  0  0
   -0.6403    5.8149   -0.0130 H   0  0  0  0  0  0  0  0  0  0  0  0
    1.0579    5.5014    0.4819 H   0  0  0  0  0  0  0  0  0  0  0  0
    1.7066    2.9755   -1.9293 H   0  0  0  0  0  0  0  0  0  0  0  0
   -1.0351   -0.0594    1.6984 H   0  0  0  0  0  0  0  0  0  0  0  0
   -4.6382   -0.6712    1.1408 H   0  0  0  0  0  0  0  0  0  0  0  0
   -4.9132   -2.8188    1.8046 H   0  0  0  0  0  0  0  0  0  0  0  0
   -4.2012   -5.1644    1.8261 H   0  0  0  0  0  0  0  0  0  0  0  0
   -2.0503   -5.8267    0.7764 H   0  0  0  0  0  0  0  0  0  0  0  0
   -0.6599   -4.1310   -0.3470 H   0  0  0  0  0  0  0  0  0  0  0  0
    1.7469    0.0033   -3.2176 H   0  0  0  0  0  0  0  0  0  0  0  0
    4.0985   -0.6826   -3.1211 H   0  0  0  0  0  0  0  0  0  0  0  0
  1  2  1  0
  2  3  2  0
  3  4  1  0
  4  5  2  0
  5  6  1  0
  6  7  1  0
  7  8  1  0
  8  9  2  0
  9 10  1  0
  9 11  1  0
 11 12  1  0
 11 13  1  0
 13 14  1  0
  8 15  1  0
 15 16  1  0
 16 17  2  0
 16 18  1  0
 18 19  1  0
 19 20  2  0
 20 21  1  0
 21 22  2  0
 22 23  1  0
 23 24  2  0
 24 25  1  0
 25 26  2  0
 25 27  1  0
  5 28  1  0
 28 29  2  0
 29  2  1  0
 27  6  1  0
 13  7  2  0
 27 15  1  0
 24 19  1  0
  1 30  1  0
  1 31  1  0
  1 32  1  0
  3 33  1  0
  4 34  1  0
  6 35  1  0
 10 36  1  0
 12 37  1  0
 12 38  1  0
 12 39  1  0
 14 40  1  0
 15 41  1  0
 18 42  1  0
 20 43  1  0
 21 44  1  0
 22 45  1  0
 23 46  1  0
 28 47  1  0
 29 48  1  0
M  END
$$$$
