
     RDKit          3D

 37 37  0  0  0  0  0  0  0  0999 V2000
    5.9896    1.2149    0.8333 C   0  0  0  0  0  0  0  0  0  0  0  0
    5.3495    0.6697   -0.4335 C   0  0  0  0  0  0  0  0  0  0  0  0
    3.9913    0.0300   -0.1442 C   0  0  0  0  0  0  0  0  0  0  0  0
    3.3538   -0.5206   -1.4237 C   0  0  0  0  0  0  0  0  0  0  0  0
    2.0032   -1.1861   -1.1615 C   0  0  0  0  0  0  0  0  0  0  0  0
    0.8780   -0.2008   -0.8877 C   0  0  0  0  0  0  0  0  0  0  0  0
    1.0032    1.0133   -1.0119 O   0  0  0  0  0  0  0  0  0  0  0  0
   -0.2879   -0.8544   -0.5041 N   0  0  0  0  0  0  0  0  0  0  0  0
   -1.4159   -0.1334   -0.2671 N   0  0  0  0  0  0  0  0  0  0  0  0
   -2.4954   -0.7378    0.1353 C   0  0  0  0  0  0  0  0  0  0  0  0
   -2.5774   -2.2252    0.4102 C   0  0  0  0  0  0  0  0  0  0  0  0
   -3.7248    0.0911    0.3411 C   0  0  0  0  0  0  0  0  0  0  0  0
   -3.5794    1.4505    0.6551 C   0  0  0  0  0  0  0  0  0  0  0  0
   -4.7050    2.2561    0.8482 C   0  0  0  0  0  0  0  0  0  0  0  0
   -5.9779    1.7062    0.7192 C   0  0  0  0  0  0  0  0  0  0  0  0
   -7.3659    2.6941    0.9560 Cl  0  0  0  0  0  0  0  0  0  0  0  0
   -6.1347    0.3597    0.3926 C   0  0  0  0  0  0  0  0  0  0  0  0
   -5.0093   -0.4486    0.1989 C   0  0  0  0  0  0  0  0  0  0  0  0
    6.9593    1.6675    0.6034 H   0  0  0  0  0  0  0  0  0  0  0  0
    6.1518    0.4175    1.5654 H   0  0  0  0  0  0  0  0  0  0  0  0
    5.3577    1.9812    1.2936 H   0  0  0  0  0  0  0  0  0  0  0  0
    6.0209   -0.0694   -0.8860 H   0  0  0  0  0  0  0  0  0  0  0  0
    5.2304    1.4855   -1.1559 H   0  0  0  0  0  0  0  0  0  0  0  0
    4.1169   -0.7832    0.5811 H   0  0  0  0  0  0  0  0  0  0  0  0
    3.3310    0.7728    0.3175 H   0  0  0  0  0  0  0  0  0  0  0  0
    4.0285   -1.2670   -1.8609 H   0  0  0  0  0  0  0  0  0  0  0  0
    3.2454    0.2824   -2.1626 H   0  0  0  0  0  0  0  0  0  0  0  0
    2.0830   -1.8859   -0.3215 H   0  0  0  0  0  0  0  0  0  0  0  0
    1.7163   -1.7602   -2.0510 H   0  0  0  0  0  0  0  0  0  0  0  0
   -0.3149   -1.8649   -0.4714 H   0  0  0  0  0  0  0  0  0  0  0  0
   -3.4682   -2.4922    0.9829 H   0  0  0  0  0  0  0  0  0  0  0  0
   -1.7163   -2.5417    1.0065 H   0  0  0  0  0  0  0  0  0  0  0  0
   -2.5823   -2.7688   -0.5387 H   0  0  0  0  0  0  0  0  0  0  0  0
   -2.5874    1.8908    0.7492 H   0  0  0  0  0  0  0  0  0  0  0  0
   -4.5776    3.3075    1.0925 H   0  0  0  0  0  0  0  0  0  0  0  0
   -7.1294   -0.0641    0.2793 H   0  0  0  0  0  0  0  0  0  0  0  0
   -5.1602   -1.4864   -0.0835 H   0  0  0  0  0  0  0  0  0  0  0  0
  1  2  1  0
  2  3  1  0
  3  4  1  0
  4  5  1  0
  5  6  1  0
  6  7  2  0
  6  8  1  0
  8  9  1  0
  9 10  2  3
 10 11  1  0
 10 12  1  0
 12 13  2  0
 13 14  1  0
 14 15  2  0
 15 16  1  0
 15 17  1  0
 17 18  2  0
 18 12  1  0
  1 19  1  0
  1 20  1  0
  1 21  1  0
  2 22  1  0
  2 23  1  0
  3 24  1  0
  3 25  1  0
  4 26  1  0
  4 27  1  0
  5 28  1  0
  5 29  1  0
  8 30  1  0
 11 31  1  0
 11 32  1  0
 11 33  1  0
 13 34  1  0
 14 35  1  0
 17 36  1  0
 18 37  1  0
M  END
$$$$
