
     RDKit          3D

 56 59  0  0  0  0  0  0  0  0999 V2000
    2.1340   -1.3601   -3.8092 C   0  0  0  0  0  0  0  0  0  0  0  0
    2.0752   -2.5466   -2.8565 C   0  0  0  0  0  0  0  0  0  0  0  0
    3.2245   -2.6030   -2.0007 O   0  0  0  0  0  0  0  0  0  0  0  0
    3.2117   -1.6520   -1.0087 C   0  0  0  0  0  0  0  0  0  0  0  0
    2.2060   -1.6460   -0.0384 C   0  0  0  0  0  0  0  0  0  0  0  0
    2.2016   -0.6679    0.9585 C   0  0  0  0  0  0  0  0  0  0  0  0
    1.1389   -0.6159    1.9655 C   0  0  0  0  0  0  0  0  0  0  0  0
   -0.1426   -0.2760    1.7530 C   0  0  0  0  0  0  0  0  0  0  0  0
   -1.2891   -0.2242    3.0312 S   0  0  0  0  0  0  0  0  0  0  0  0
   -2.5524    0.4292    2.0035 C   0  0  0  0  0  0  0  0  0  0  0  0
   -3.7115    0.8313    2.4179 N   0  0  0  0  0  0  0  0  0  0  0  0
   -4.0706    0.7420    3.7684 C   0  0  0  0  0  0  0  0  0  0  0  0
   -3.8190    1.8059    4.6381 C   0  0  0  0  0  0  0  0  0  0  0  0
   -4.1958    1.7257    5.9804 C   0  0  0  0  0  0  0  0  0  0  0  0
   -4.8390    0.5836    6.4560 C   0  0  0  0  0  0  0  0  0  0  0  0
   -5.1119   -0.4743    5.5894 C   0  0  0  0  0  0  0  0  0  0  0  0
   -4.7347   -0.3904    4.2478 C   0  0  0  0  0  0  0  0  0  0  0  0
   -2.1202    0.5009    0.6865 N   0  0  0  0  0  0  0  0  0  0  0  0
   -2.9650    0.9236   -0.4023 C   0  0  0  0  0  0  0  0  0  0  0  0
   -4.3568    0.7328   -0.3776 C   0  0  0  0  0  0  0  0  0  0  0  0
   -5.1706    1.1262   -1.4472 C   0  0  0  0  0  0  0  0  0  0  0  0
   -4.6094    1.7217   -2.5701 C   0  0  0  0  0  0  0  0  0  0  0  0
   -3.2358    1.9250   -2.6215 C   0  0  0  0  0  0  0  0  0  0  0  0
   -2.4248    1.5291   -1.5513 C   0  0  0  0  0  0  0  0  0  0  0  0
   -0.7978    0.1161    0.4671 C   0  0  0  0  0  0  0  0  0  0  0  0
   -0.2158    0.0383   -0.6076 O   0  0  0  0  0  0  0  0  0  0  0  0
    3.2417    0.2639    1.0081 C   0  0  0  0  0  0  0  0  0  0  0  0
    4.2729    0.2314    0.0615 C   0  0  0  0  0  0  0  0  0  0  0  0
    4.2695   -0.7303   -0.9516 C   0  0  0  0  0  0  0  0  0  0  0  0
    5.2143   -0.8350   -1.9379 O   0  0  0  0  0  0  0  0  0  0  0  0
    6.4004   -0.0692   -1.7899 C   0  0  0  0  0  0  0  0  0  0  0  0
    7.3734   -0.3861   -2.9060 C   0  0  0  0  0  0  0  0  0  0  0  0
    8.5693   -0.6068   -2.7738 O   0  0  0  0  0  0  0  0  0  0  0  0
    6.8251   -0.3385   -4.1375 O   0  0  0  0  0  0  0  0  0  0  0  0
    3.0885   -1.3376   -4.3461 H   0  0  0  0  0  0  0  0  0  0  0  0
    2.0441   -0.4135   -3.2671 H   0  0  0  0  0  0  0  0  0  0  0  0
    1.3194   -1.4135   -4.5358 H   0  0  0  0  0  0  0  0  0  0  0  0
    2.0898   -3.4706   -3.4473 H   0  0  0  0  0  0  0  0  0  0  0  0
    1.1341   -2.5582   -2.2929 H   0  0  0  0  0  0  0  0  0  0  0  0
    1.4219   -2.3965   -0.0682 H   0  0  0  0  0  0  0  0  0  0  0  0
    1.4780   -0.8621    2.9707 H   0  0  0  0  0  0  0  0  0  0  0  0
   -3.3329    2.7022    4.2661 H   0  0  0  0  0  0  0  0  0  0  0  0
   -3.9919    2.5556    6.6528 H   0  0  0  0  0  0  0  0  0  0  0  0
   -5.1345    0.5204    7.5003 H   0  0  0  0  0  0  0  0  0  0  0  0
   -5.6197   -1.3610    5.9562 H   0  0  0  0  0  0  0  0  0  0  0  0
   -4.9659   -1.2084    3.5715 H   0  0  0  0  0  0  0  0  0  0  0  0
   -4.8485    0.2349    0.4538 H   0  0  0  0  0  0  0  0  0  0  0  0
   -6.2434    0.9470   -1.4062 H   0  0  0  0  0  0  0  0  0  0  0  0
   -5.2392    2.0200   -3.4034 H   0  0  0  0  0  0  0  0  0  0  0  0
   -2.7856    2.3862   -3.4958 H   0  0  0  0  0  0  0  0  0  0  0  0
   -1.3614    1.7344   -1.6366 H   0  0  0  0  0  0  0  0  0  0  0  0
    3.2584    1.0293    1.7799 H   0  0  0  0  0  0  0  0  0  0  0  0
    5.0520    0.9813    0.1394 H   0  0  0  0  0  0  0  0  0  0  0  0
    6.8941   -0.3176   -0.8424 H   0  0  0  0  0  0  0  0  0  0  0  0
    6.1893    1.0049   -1.8394 H   0  0  0  0  0  0  0  0  0  0  0  0
    7.5577   -0.5814   -4.7394 H   0  0  0  0  0  0  0  0  0  0  0  0
  1  2  1  0
  2  3  1  0
  3  4  1  0
  4  5  2  0
  5  6  1  0
  6  7  1  0
  7  8  2  3
  8  9  1  0
  9 10  1  0
 10 11  2  3
 11 12  1  0
 12 13  2  0
 13 14  1  0
 14 15  2  0
 15 16  1  0
 16 17  2  0
 10 18  1  0
 18 19  1  0
 19 20  2  0
 20 21  1  0
 21 22  2  0
 22 23  1  0
 23 24  2  0
 18 25  1  0
 25 26  2  0
  6 27  2  0
 27 28  1  0
 28 29  2  0
 29 30  1  0
 30 31  1  0
 31 32  1  0
 32 33  2  0
 32 34  1  0
 29  4  1  0
 25  8  1  0
 17 12  1  0
 24 19  1  0
  1 35  1  0
  1 36  1  0
  1 37  1  0
  2 38  1  0
  2 39  1  0
  5 40  1  0
  7 41  1  0
 13 42  1  0
 14 43  1  0
 15 44  1  0
 16 45  1  0
 17 46  1  0
 20 47  1  0
 21 48  1  0
 22 49  1  0
 23 50  1  0
 24 51  1  0
 27 52  1  0
 28 53  1  0
 31 54  1  0
 31 55  1  0
 34 56  1  0
M  END
$$$$
