
     RDKit          3D

 28 29  0  0  0  0  0  0  0  0999 V2000
    5.3254   -0.6132    0.7399 O   0  0  0  0  0  0  0  0  0  0  0  0
    4.1991   -1.0740    0.7554 C   0  0  0  0  0  0  0  0  0  0  0  0
    3.9573   -2.3070    1.2353 O   0  0  0  0  0  0  0  0  0  0  0  0
    2.9756   -0.3959    0.2650 C   0  0  0  0  0  0  0  0  0  0  0  0
    3.1029    0.8824   -0.2856 C   0  0  0  0  0  0  0  0  0  0  0  0
    1.9737    1.5532   -0.7492 C   0  0  0  0  0  0  0  0  0  0  0  0
    0.7162    0.9485   -0.6668 C   0  0  0  0  0  0  0  0  0  0  0  0
    0.5677   -0.3363   -0.1298 C   0  0  0  0  0  0  0  0  0  0  0  0
   -0.6855   -0.9685    0.0245 N   0  0  0  0  0  0  0  0  0  0  0  0
   -1.9788   -0.4377   -0.1413 C   0  0  0  0  0  0  0  0  0  0  0  0
   -2.8226   -1.0261   -1.0925 C   0  0  0  0  0  0  0  0  0  0  0  0
   -4.0703   -0.4662   -1.3389 C   0  0  0  0  0  0  0  0  0  0  0  0
   -4.5371    0.6352   -0.7124 N   0  0  0  0  0  0  0  0  0  0  0  0
   -3.7221    1.2005    0.2077 C   0  0  0  0  0  0  0  0  0  0  0  0
   -2.4645    0.7008    0.5109 C   0  0  0  0  0  0  0  0  0  0  0  0
   -1.7393    1.3504    1.5732 N   0  0  0  0  0  4  0  0  0  0  0  0
   -1.4275    0.6683    2.5584 O   0  0  0  0  0  0  0  0  0  0  0  0
   -1.5328    2.5661    1.4452 O   0  0  0  0  0  1  0  0  0  0  0  0
    1.7109   -0.9960    0.3457 C   0  0  0  0  0  0  0  0  0  0  0  0
    4.8398   -2.6194    1.5266 H   0  0  0  0  0  0  0  0  0  0  0  0
    4.0784    1.3609   -0.3490 H   0  0  0  0  0  0  0  0  0  0  0  0
    2.0693    2.5505   -1.1724 H   0  0  0  0  0  0  0  0  0  0  0  0
   -0.1386    1.4983   -1.0514 H   0  0  0  0  0  0  0  0  0  0  0  0
   -0.6247   -1.9735   -0.1210 H   0  0  0  0  0  0  0  0  0  0  0  0
   -2.5105   -1.8985   -1.6580 H   0  0  0  0  0  0  0  0  0  0  0  0
   -4.7419   -0.8995   -2.0760 H   0  0  0  0  0  0  0  0  0  0  0  0
   -4.1311    2.0764    0.7057 H   0  0  0  0  0  0  0  0  0  0  0  0
    1.6111   -1.9795    0.7991 H   0  0  0  0  0  0  0  0  0  0  0  0
  1  2  2  0
  2  3  1  0
  2  4  1  0
  4  5  2  0
  5  6  1  0
  6  7  2  0
  7  8  1  0
  8  9  1  0
  9 10  1  0
 10 11  2  0
 11 12  1  0
 12 13  2  0
 13 14  1  0
 14 15  2  0
 15 16  1  0
 16 17  2  0
 16 18  1  0
  8 19  2  0
 19  4  1  0
 15 10  1  0
  3 20  1  0
  5 21  1  0
  6 22  1  0
  7 23  1  0
  9 24  1  0
 11 25  1  0
 12 26  1  0
 14 27  1  0
 19 28  1  0
M  CHG  2  16   1  18  -1
M  END
$$$$
