
     RDKit          3D

 43 45  0  0  0  0  0  0  0  0999 V2000
   -4.1690   -2.0182    1.2915 C   0  0  0  0  0  0  0  0  0  0  0  0
   -3.1311   -2.1766    0.2697 N   0  0  0  0  0  0  0  0  0  0  0  0
   -3.0887   -3.5689   -0.1803 C   0  0  0  0  0  0  0  0  0  0  0  0
   -3.3731   -1.2846   -0.8815 C   0  0  0  0  0  0  0  0  0  0  0  0
   -3.1349    0.1714   -0.5698 C   0  0  0  0  0  0  0  0  0  0  0  0
   -4.1761    1.1116   -0.4782 C   0  0  0  0  0  0  0  0  0  0  0  0
   -5.4614    0.6902   -0.6882 O   0  0  0  0  0  0  0  0  0  0  0  0
   -3.9377    2.4689   -0.1760 C   0  0  0  0  0  0  0  0  0  0  0  0
   -2.6376    2.9264    0.0451 C   0  0  0  0  0  0  0  0  0  0  0  0
   -1.6224    1.9968   -0.0485 C   0  0  0  0  0  0  0  0  0  0  0  0
   -1.8537    0.6552   -0.3486 C   0  0  0  0  0  0  0  0  0  0  0  0
   -0.6915   -0.0858   -0.3982 O   0  0  0  0  0  0  0  0  0  0  0  0
    0.3420    0.7988   -0.1105 C   0  0  0  0  0  0  0  0  0  0  0  0
    1.6428    0.4859   -0.0474 C   0  0  0  0  0  0  0  0  0  0  0  0
    2.1635   -0.8481   -0.2649 C   0  0  0  0  0  0  0  0  0  0  0  0
    3.4560   -1.2120   -0.2446 C   0  0  0  0  0  0  0  0  0  0  0  0
    4.6024   -0.3264   -0.0252 C   0  0  0  0  0  0  0  0  0  0  0  0
    4.9819    0.6113   -0.9924 C   0  0  0  0  0  0  0  0  0  0  0  0
    6.0817    1.4429   -0.7727 C   0  0  0  0  0  0  0  0  0  0  0  0
    6.8099    1.3381    0.4116 C   0  0  0  0  0  0  0  0  0  0  0  0
    6.4405    0.4019    1.3765 C   0  0  0  0  0  0  0  0  0  0  0  0
    5.3405   -0.4303    1.1584 C   0  0  0  0  0  0  0  0  0  0  0  0
   -0.1854    2.1678    0.1220 C   0  0  0  0  0  0  0  0  0  0  0  0
    0.4099    3.1901    0.3831 O   0  0  0  0  0  0  0  0  0  0  0  0
   -3.9854   -2.6983    2.1313 H   0  0  0  0  0  0  0  0  0  0  0  0
   -4.1603   -1.0080    1.7139 H   0  0  0  0  0  0  0  0  0  0  0  0
   -5.1719   -2.2230    0.8994 H   0  0  0  0  0  0  0  0  0  0  0  0
   -4.0308   -3.8839   -0.6437 H   0  0  0  0  0  0  0  0  0  0  0  0
   -2.2806   -3.7152   -0.9057 H   0  0  0  0  0  0  0  0  0  0  0  0
   -2.8762   -4.2393    0.6601 H   0  0  0  0  0  0  0  0  0  0  0  0
   -4.3778   -1.4444   -1.2937 H   0  0  0  0  0  0  0  0  0  0  0  0
   -2.6837   -1.5433   -1.6976 H   0  0  0  0  0  0  0  0  0  0  0  0
   -6.0661    1.4427   -0.5774 H   0  0  0  0  0  0  0  0  0  0  0  0
   -4.7597    3.1769   -0.1096 H   0  0  0  0  0  0  0  0  0  0  0  0
   -2.4272    3.9643    0.2799 H   0  0  0  0  0  0  0  0  0  0  0  0
    2.3518    1.2764    0.1919 H   0  0  0  0  0  0  0  0  0  0  0  0
    1.4256   -1.6302   -0.4444 H   0  0  0  0  0  0  0  0  0  0  0  0
    3.7137   -2.2585   -0.3938 H   0  0  0  0  0  0  0  0  0  0  0  0
    4.4218    0.7006   -1.9202 H   0  0  0  0  0  0  0  0  0  0  0  0
    6.3682    2.1729   -1.5251 H   0  0  0  0  0  0  0  0  0  0  0  0
    7.6645    1.9874    0.5831 H   0  0  0  0  0  0  0  0  0  0  0  0
    7.0068    0.3211    2.3005 H   0  0  0  0  0  0  0  0  0  0  0  0
    5.0590   -1.1531    1.9203 H   0  0  0  0  0  0  0  0  0  0  0  0
  1  2  1  0
  2  3  1  0
  2  4  1  0
  4  5  1  0
  5  6  2  0
  6  7  1  0
  6  8  1  0
  8  9  2  0
  9 10  1  0
 10 11  2  0
 11 12  1  0
 12 13  1  0
 13 14  2  3
 14 15  1  0
 15 16  2  3
 16 17  1  0
 17 18  2  0
 18 19  1  0
 19 20  2  0
 20 21  1  0
 21 22  2  0
 13 23  1  0
 23 24  2  0
 11  5  1  0
 22 17  1  0
 23 10  1  0
  1 25  1  0
  1 26  1  0
  1 27  1  0
  3 28  1  0
  3 29  1  0
  3 30  1  0
  4 31  1  0
  4 32  1  0
  7 33  1  0
  8 34  1  0
  9 35  1  0
 14 36  1  0
 15 37  1  0
 16 38  1  0
 18 39  1  0
 19 40  1  0
 20 41  1  0
 21 42  1  0
 22 43  1  0
M  END
$$$$
