
     RDKit          3D

 45 46  0  0  0  0  0  0  0  0999 V2000
    6.7254   -0.9673   -1.5732 C   0  0  0  0  0  0  0  0  0  0  0  0
    6.6908   -0.3334   -0.1944 C   0  0  0  0  0  0  0  0  0  0  0  0
    5.4300    0.3379    0.0692 N   0  0  0  0  0  0  0  0  0  0  0  0
    5.2853    1.6155   -0.3301 N   0  0  0  0  0  0  0  0  0  0  0  0
    4.0492    1.9312    0.0565 C   0  0  0  0  0  0  0  0  0  0  0  0
    3.3937    0.8681    0.7135 C   0  0  0  0  0  0  0  0  0  0  0  0
    2.0625    0.8455    1.2748 C   0  0  0  0  0  0  0  0  0  0  0  0
    1.3398    1.9160    1.1822 N   0  0  0  0  0  0  0  0  0  0  0  0
    0.0598    1.8965    1.6802 N   0  0  0  0  0  0  0  0  0  0  0  0
   -0.7893    0.7861    1.6869 C   0  0  0  0  0  0  0  0  0  0  0  0
   -0.4658   -0.3545    1.3697 O   0  0  0  0  0  0  0  0  0  0  0  0
   -2.2046    1.1620    2.1490 C   0  0  0  0  0  0  0  0  0  0  0  0
   -3.1811    0.1388    2.0617 O   0  0  0  0  0  0  0  0  0  0  0  0
   -3.8228   -0.0294    0.8656 C   0  0  0  0  0  0  0  0  0  0  0  0
   -3.4204    0.4915   -0.3646 C   0  0  0  0  0  0  0  0  0  0  0  0
   -4.1799    0.2549   -1.5210 C   0  0  0  0  0  0  0  0  0  0  0  0
   -3.7249    0.7904   -2.8478 C   0  0  0  0  0  0  0  0  0  0  0  0
   -5.3297   -0.5406   -1.4381 C   0  0  0  0  0  0  0  0  0  0  0  0
   -5.7273   -1.0952   -0.2164 C   0  0  0  0  0  0  0  0  0  0  0  0
   -6.9716   -1.9268   -0.1235 C   0  0  0  0  0  0  0  0  0  0  0  0
   -4.9720   -0.8227    0.9305 C   0  0  0  0  0  0  0  0  0  0  0  0
    4.3170   -0.1678    0.6994 C   0  0  0  0  0  0  0  0  0  0  0  0
    4.2390   -1.5603    1.2126 C   0  0  0  0  0  0  0  0  0  0  0  0
    7.6935   -1.4483   -1.7457 H   0  0  0  0  0  0  0  0  0  0  0  0
    6.5705   -0.2192   -2.3582 H   0  0  0  0  0  0  0  0  0  0  0  0
    5.9428   -1.7266   -1.6793 H   0  0  0  0  0  0  0  0  0  0  0  0
    6.8477   -1.0876    0.5831 H   0  0  0  0  0  0  0  0  0  0  0  0
    7.4885    0.4113   -0.0926 H   0  0  0  0  0  0  0  0  0  0  0  0
    3.6690    2.9243   -0.1516 H   0  0  0  0  0  0  0  0  0  0  0  0
    1.7463   -0.0753    1.7883 H   0  0  0  0  0  0  0  0  0  0  0  0
   -0.3606    2.8210    1.7178 H   0  0  0  0  0  0  0  0  0  0  0  0
   -2.1187    1.4110    3.2143 H   0  0  0  0  0  0  0  0  0  0  0  0
   -2.5419    2.0786    1.6477 H   0  0  0  0  0  0  0  0  0  0  0  0
   -2.5089    1.0709   -0.4626 H   0  0  0  0  0  0  0  0  0  0  0  0
   -3.2062    1.7478   -2.7242 H   0  0  0  0  0  0  0  0  0  0  0  0
   -3.0457    0.0777   -3.3254 H   0  0  0  0  0  0  0  0  0  0  0  0
   -4.5775    0.9666   -3.5127 H   0  0  0  0  0  0  0  0  0  0  0  0
   -5.9135   -0.7396   -2.3352 H   0  0  0  0  0  0  0  0  0  0  0  0
   -7.8256   -1.2949    0.1390 H   0  0  0  0  0  0  0  0  0  0  0  0
   -7.1814   -2.4266   -1.0753 H   0  0  0  0  0  0  0  0  0  0  0  0
   -6.8612   -2.7084    0.6355 H   0  0  0  0  0  0  0  0  0  0  0  0
   -5.2751   -1.2348    1.8912 H   0  0  0  0  0  0  0  0  0  0  0  0
    4.8786   -1.6789    2.0928 H   0  0  0  0  0  0  0  0  0  0  0  0
    4.5579   -2.2781    0.4502 H   0  0  0  0  0  0  0  0  0  0  0  0
    3.2182   -1.8272    1.5019 H   0  0  0  0  0  0  0  0  0  0  0  0
  1  2  1  0
  2  3  1  0
  3  4  1  0
  4  5  2  0
  5  6  1  0
  6  7  1  0
  7  8  2  3
  8  9  1  0
  9 10  1  0
 10 11  2  0
 10 12  1  0
 12 13  1  0
 13 14  1  0
 14 15  2  0
 15 16  1  0
 16 17  1  0
 16 18  2  0
 18 19  1  0
 19 20  1  0
 19 21  2  0
  6 22  2  0
 22 23  1  0
 22  3  1  0
 21 14  1  0
  1 24  1  0
  1 25  1  0
  1 26  1  0
  2 27  1  0
  2 28  1  0
  5 29  1  0
  7 30  1  0
  9 31  1  0
 12 32  1  0
 12 33  1  0
 15 34  1  0
 17 35  1  0
 17 36  1  0
 17 37  1  0
 18 38  1  0
 20 39  1  0
 20 40  1  0
 20 41  1  0
 21 42  1  0
 23 43  1  0
 23 44  1  0
 23 45  1  0
M  END
$$$$
