
     RDKit          3D

 42 45  0  0  0  0  0  0  0  0999 V2000
    8.0895    2.7831    0.4684 O   0  0  0  0  0  0  0  0  0  0  0  0
    6.8872    2.5930    0.5232 C   0  0  0  0  0  0  0  0  0  0  0  0
    6.0237    3.6183    0.4097 O   0  0  0  0  0  0  0  0  0  0  0  0
    6.2043    1.2808    0.7785 C   0  0  0  0  0  0  0  0  0  0  0  0
    5.3003    0.8959   -0.3925 C   0  0  0  0  0  0  0  0  0  0  0  0
    6.0224    0.0626   -1.4505 C   0  0  0  0  0  0  0  0  0  0  0  0
    5.5845   -0.9201   -2.0285 O   0  0  0  0  0  0  0  0  0  0  0  0
    7.2335    0.5535   -1.7752 O   0  0  0  0  0  0  0  0  0  0  0  0
    4.0668    0.1634   -0.0039 N   0  0  0  0  0  0  0  0  0  0  0  0
    2.8833    0.5458   -0.6184 C   0  0  0  0  0  0  0  0  0  0  0  0
    2.7574    1.4658   -1.4160 O   0  0  0  0  0  0  0  0  0  0  0  0
    1.7533   -0.3234   -0.1917 C   0  0  0  0  0  0  0  0  0  0  0  0
    0.5127   -0.0763   -0.6308 C   0  0  0  0  0  0  0  0  0  0  0  0
   -0.6705   -0.7979   -0.3073 C   0  0  0  0  0  0  0  0  0  0  0  0
   -0.8981   -2.1159    0.0656 C   0  0  0  0  0  0  0  0  0  0  0  0
   -2.2915   -2.2857    0.2462 C   0  0  0  0  0  0  0  0  0  0  0  0
   -2.8880   -1.0731   -0.0359 C   0  0  0  0  0  0  0  0  0  0  0  0
   -4.2872   -0.7444    0.0009 C   0  0  0  0  0  0  0  0  0  0  0  0
   -5.2063   -1.6263    0.3337 N   0  0  0  0  0  0  0  0  0  0  0  0
   -6.4596   -1.0391    0.2844 C   0  0  0  0  0  0  0  0  0  0  0  0
   -7.6826   -1.6767    0.5762 C   0  0  0  0  0  0  0  0  0  0  0  0
   -8.8805   -0.9600    0.4856 C   0  0  0  0  0  0  0  0  0  0  0  0
   -8.8733    0.3794    0.1091 C   0  0  0  0  0  0  0  0  0  0  0  0
   -7.6738    1.0350   -0.1858 C   0  0  0  0  0  0  0  0  0  0  0  0
   -6.4769    0.3054   -0.0915 C   0  0  0  0  0  0  0  0  0  0  0  0
   -4.8624    0.8235   -0.3862 S   0  0  0  0  0  0  0  0  0  0  0  0
   -1.9034   -0.1853   -0.3796 O   0  0  0  0  0  0  0  0  0  0  0  0
    2.3265   -1.5240    0.8843 S   0  0  0  0  0  0  0  0  0  0  0  0
    3.9962   -0.9780    0.7711 C   0  0  0  0  0  0  0  0  0  0  0  0
    5.2205   -1.8130    1.5373 S   0  0  0  0  0  0  0  0  0  0  0  0
    6.5956    4.4066    0.2829 H   0  0  0  0  0  0  0  0  0  0  0  0
    6.9902    0.5384    0.9550 H   0  0  0  0  0  0  0  0  0  0  0  0
    5.6385    1.3979    1.7104 H   0  0  0  0  0  0  0  0  0  0  0  0
    4.9911    1.8018   -0.9272 H   0  0  0  0  0  0  0  0  0  0  0  0
    7.5740   -0.0481   -2.4725 H   0  0  0  0  0  0  0  0  0  0  0  0
    0.3536    0.7842   -1.2796 H   0  0  0  0  0  0  0  0  0  0  0  0
   -0.1505   -2.8873    0.1850 H   0  0  0  0  0  0  0  0  0  0  0  0
   -2.8127   -3.1875    0.5390 H   0  0  0  0  0  0  0  0  0  0  0  0
   -7.6841   -2.7219    0.8696 H   0  0  0  0  0  0  0  0  0  0  0  0
   -9.8216   -1.4559    0.7117 H   0  0  0  0  0  0  0  0  0  0  0  0
   -9.8123    0.9255    0.0426 H   0  0  0  0  0  0  0  0  0  0  0  0
   -7.6695    2.0803   -0.4797 H   0  0  0  0  0  0  0  0  0  0  0  0
  1  2  2  0
  2  3  1  0
  2  4  1  0
  4  5  1  0
  5  6  1  0
  6  7  2  0
  6  8  1  0
  5  9  1  0
  9 10  1  0
 10 11  2  0
 10 12  1  0
 12 13  2  3
 13 14  1  0
 14 15  2  0
 15 16  1  0
 16 17  2  0
 17 18  1  0
 18 19  2  0
 19 20  1  0
 20 21  2  0
 21 22  1  0
 22 23  2  0
 23 24  1  0
 24 25  2  0
 25 26  1  0
 17 27  1  0
 12 28  1  0
 28 29  1  0
 29 30  2  0
 29  9  1  0
 27 14  1  0
 26 18  1  0
 25 20  1  0
  3 31  1  0
  4 32  1  0
  4 33  1  0
  5 34  1  0
  8 35  1  0
 13 36  1  0
 15 37  1  0
 16 38  1  0
 21 39  1  0
 22 40  1  0
 23 41  1  0
 24 42  1  0
M  END
$$$$
