
     RDKit          3D

 39 41  0  0  0  0  0  0  0  0999 V2000
   -7.4751    1.1187   -1.0942 C   0  0  0  0  0  0  0  0  0  0  0  0
   -6.5710    0.1970   -1.6894 O   0  0  0  0  0  0  0  0  0  0  0  0
   -5.2871    0.2031   -1.2204 C   0  0  0  0  0  0  0  0  0  0  0  0
   -4.7821    1.0233   -0.2155 C   0  0  0  0  0  0  0  0  0  0  0  0
   -3.4372    0.9240    0.1725 C   0  0  0  0  0  0  0  0  0  0  0  0
   -2.5727    0.0040   -0.4382 C   0  0  0  0  0  0  0  0  0  0  0  0
   -1.1937   -0.0932   -0.0363 N   0  0  0  0  0  0  0  0  0  0  0  0
   -0.6594    0.2778    1.2079 C   0  0  0  0  0  0  0  0  0  0  0  0
   -1.4083    0.7286    2.2137 O   0  0  0  0  0  0  0  0  0  0  0  0
    0.6989    0.0404    1.1973 C   0  0  0  0  0  0  0  0  0  0  0  0
    1.0316   -0.4840   -0.0620 C   0  0  0  0  0  0  0  0  0  0  0  0
    2.2637   -0.8397   -0.5023 N   0  0  0  0  0  0  0  0  0  0  0  0
    3.4281   -0.5275    0.2290 N   0  0  0  0  0  0  0  0  0  0  0  0
    4.5887   -0.3213   -0.5144 C   0  0  0  0  0  0  0  0  0  0  0  0
    4.5371   -0.2350   -1.7432 O   0  0  0  0  0  0  0  0  0  0  0  0
    5.8087   -0.2505    0.2659 C   0  0  0  0  0  0  0  0  0  0  0  0
    6.0650   -0.2193    1.6275 C   0  0  0  0  0  0  0  0  0  0  0  0
    7.4720   -0.1465    1.7814 C   0  0  0  0  0  0  0  0  0  0  0  0
    7.9939   -0.1346    0.5114 C   0  0  0  0  0  0  0  0  0  0  0  0
    7.0008   -0.1953   -0.4094 O   0  0  0  0  0  0  0  0  0  0  0  0
   -0.1270   -0.5845   -0.8060 C   0  0  0  0  0  0  0  0  0  0  0  0
   -0.2821   -1.0189   -2.0582 O   0  0  0  0  0  0  0  0  0  0  0  0
   -3.0907   -0.8142   -1.4498 C   0  0  0  0  0  0  0  0  0  0  0  0
   -4.4341   -0.7135   -1.8328 C   0  0  0  0  0  0  0  0  0  0  0  0
   -7.6013    0.9145   -0.0258 H   0  0  0  0  0  0  0  0  0  0  0  0
   -8.4496    0.9888   -1.5748 H   0  0  0  0  0  0  0  0  0  0  0  0
   -7.1552    2.1520   -1.2648 H   0  0  0  0  0  0  0  0  0  0  0  0
   -5.4002    1.7589    0.2879 H   0  0  0  0  0  0  0  0  0  0  0  0
   -3.0887    1.6129    0.9358 H   0  0  0  0  0  0  0  0  0  0  0  0
   -0.8240    0.8765    2.9776 H   0  0  0  0  0  0  0  0  0  0  0  0
    1.3717    0.2348    2.0194 H   0  0  0  0  0  0  0  0  0  0  0  0
    2.4594   -0.8072   -1.5113 H   0  0  0  0  0  0  0  0  0  0  0  0
    3.4830   -0.9405    1.1523 H   0  0  0  0  0  0  0  0  0  0  0  0
    5.3326   -0.2356    2.4219 H   0  0  0  0  0  0  0  0  0  0  0  0
    8.0365   -0.1028    2.7025 H   0  0  0  0  0  0  0  0  0  0  0  0
    8.9979   -0.0859    0.1121 H   0  0  0  0  0  0  0  0  0  0  0  0
    0.5754   -1.3700   -2.3524 H   0  0  0  0  0  0  0  0  0  0  0  0
   -2.4893   -1.5711   -1.9426 H   0  0  0  0  0  0  0  0  0  0  0  0
   -4.8164   -1.3643   -2.6156 H   0  0  0  0  0  0  0  0  0  0  0  0
  1  2  1  0
  2  3  1  0
  3  4  2  0
  4  5  1  0
  5  6  2  0
  6  7  1  0
  7  8  1  0
  8  9  1  0
  8 10  2  0
 10 11  1  0
 11 12  1  0
 12 13  1  0
 13 14  1  0
 14 15  2  0
 14 16  1  0
 16 17  2  0
 17 18  1  0
 18 19  2  0
 19 20  1  0
 11 21  2  0
 21 22  1  0
  6 23  1  0
 23 24  2  0
 24  3  1  0
 21  7  1  0
 20 16  1  0
  1 25  1  0
  1 26  1  0
  1 27  1  0
  4 28  1  0
  5 29  1  0
  9 30  1  0
 10 31  1  0
 12 32  1  0
 13 33  1  0
 17 34  1  0
 18 35  1  0
 19 36  1  0
 22 37  1  0
 23 38  1  0
 24 39  1  0
M  END
$$$$
