
     RDKit          3D

 36 38  0  0  0  0  0  0  0  0999 V2000
   -2.3009    1.4099    2.7831 C   0  0  0  0  0  0  0  0  0  0  0  0
   -2.4294    0.6573    1.4905 C   0  0  0  0  0  0  0  0  0  0  0  0
   -2.7575   -0.7054    1.4951 C   0  0  0  0  0  0  0  0  0  0  0  0
   -2.8501   -1.4154    0.2973 C   0  0  0  0  0  0  0  0  0  0  0  0
   -2.5834   -0.7642   -0.9093 C   0  0  0  0  0  0  0  0  0  0  0  0
   -2.6555   -1.6736   -2.4346 S   0  0  0  0  0  6  0  0  0  0  0  0
   -3.6007   -2.7542   -2.2453 O   0  0  0  0  0  0  0  0  0  0  0  0
   -2.8000   -0.7319   -3.5204 O   0  0  0  0  0  0  0  0  0  0  0  0
   -1.1286   -2.4233   -2.5545 N   0  0  0  0  0  0  0  0  0  0  0  0
    0.0124   -1.8509   -1.7448 N   0  0  0  0  0  0  0  0  0  0  0  0
    0.5881   -0.6426   -2.1051 C   0  0  0  0  0  0  0  0  0  0  0  0
    0.2845    0.0683   -3.0513 O   0  0  0  0  0  0  0  0  0  0  0  0
    1.6588   -0.3054   -1.1214 C   0  0  0  0  0  0  0  0  0  0  0  0
    2.3654    0.8257   -1.2542 C   0  0  0  0  0  0  0  0  0  0  0  0
    3.4085    1.2540   -0.3829 C   0  0  0  0  0  0  0  0  0  0  0  0
    3.5142    1.2335    0.9983 C   0  0  0  0  0  0  0  0  0  0  0  0
    4.7422    1.7794    1.4752 C   0  0  0  0  0  0  0  0  0  0  0  0
    5.5403    2.2222    0.4475 C   0  0  0  0  0  0  0  0  0  0  0  0
    4.8079    1.9898   -1.0763 S   0  0  0  0  0  0  0  0  0  0  0  0
    1.8014   -1.5545    0.0598 S   0  0  0  0  0  0  0  0  0  0  0  0
    0.5240   -2.5206   -0.6543 C   0  0  0  0  0  0  0  0  0  0  0  0
    0.0438   -4.0093   -0.0802 S   0  0  0  0  0  0  0  0  0  0  0  0
   -2.2743    0.5984   -0.9306 C   0  0  0  0  0  0  0  0  0  0  0  0
   -2.1832    1.3017    0.2707 C   0  0  0  0  0  0  0  0  0  0  0  0
   -2.9741    0.9995    3.5430 H   0  0  0  0  0  0  0  0  0  0  0  0
   -1.2719    1.3473    3.1504 H   0  0  0  0  0  0  0  0  0  0  0  0
   -2.5663    2.4638    2.6495 H   0  0  0  0  0  0  0  0  0  0  0  0
   -2.9530   -1.2193    2.4348 H   0  0  0  0  0  0  0  0  0  0  0  0
   -3.1251   -2.4681    0.3176 H   0  0  0  0  0  0  0  0  0  0  0  0
   -1.2544   -3.4345   -2.4352 H   0  0  0  0  0  0  0  0  0  0  0  0
    2.1580    1.4683   -2.1108 H   0  0  0  0  0  0  0  0  0  0  0  0
    2.7422    0.8503    1.6545 H   0  0  0  0  0  0  0  0  0  0  0  0
    5.0205    1.8485    2.5197 H   0  0  0  0  0  0  0  0  0  0  0  0
    6.5173    2.6805    0.5173 H   0  0  0  0  0  0  0  0  0  0  0  0
   -2.0926    1.1147   -1.8728 H   0  0  0  0  0  0  0  0  0  0  0  0
   -1.9286    2.3600    0.2492 H   0  0  0  0  0  0  0  0  0  0  0  0
  1  2  1  0
  2  3  2  0
  3  4  1  0
  4  5  2  0
  5  6  1  0
  6  7  2  0
  6  8  2  0
  6  9  1  0
  9 10  1  0
 10 11  1  0
 11 12  2  0
 11 13  1  0
 13 14  2  3
 14 15  1  0
 15 16  2  0
 16 17  1  0
 17 18  2  0
 18 19  1  0
 13 20  1  0
 20 21  1  0
 21 22  2  0
  5 23  1  0
 23 24  2  0
 24  2  1  0
 21 10  1  0
 19 15  1  0
  1 25  1  0
  1 26  1  0
  1 27  1  0
  3 28  1  0
  4 29  1  0
  9 30  1  0
 14 31  1  0
 16 32  1  0
 17 33  1  0
 18 34  1  0
 23 35  1  0
 24 36  1  0
M  END
$$$$
