
     RDKit          3D

 68 70  0  0  0  0  0  0  0  0999 V2000
    4.9182    0.1466   -1.8617 C   0  0  0  0  0  0  0  0  0  0  0  0
    5.5421    0.8080   -0.6438 C   0  0  0  0  0  0  0  0  0  0  0  0
    4.7543    2.0039   -0.2681 N   0  0  0  0  0  0  0  0  0  0  0  0
    5.1804    3.2687   -0.9144 C   0  0  0  0  0  0  0  0  0  0  0  0
    6.3887    3.9032   -0.2467 C   0  0  0  0  0  0  0  0  0  0  0  0
    4.2196    2.1123    1.3419 S   0  0  0  0  0  6  0  0  0  0  0  0
    3.4780    3.3422    1.5150 O   0  0  0  0  0  0  0  0  0  0  0  0
    5.3426    1.7852    2.1977 O   0  0  0  0  0  0  0  0  0  0  0  0
    3.0460    0.7809    1.4344 C   0  0  0  0  0  0  0  0  0  0  0  0
    3.2496   -0.2771    2.3223 C   0  0  0  0  0  0  0  0  0  0  0  0
    2.3230   -1.3205    2.3732 C   0  0  0  0  0  0  0  0  0  0  0  0
    1.1897   -1.3092    1.5473 C   0  0  0  0  0  0  0  0  0  0  0  0
    0.2529   -2.3677    1.5163 N   0  0  0  0  0  0  0  0  0  0  0  0
   -0.2869   -2.7901    2.8276 C   0  0  0  0  0  0  0  0  0  0  0  0
   -1.0823   -4.0937    2.6474 C   0  0  0  0  0  0  0  0  0  0  0  0
   -0.2831   -5.1938    2.1781 O   0  0  0  0  0  0  0  0  0  0  0  0
    0.8970   -4.7805    1.4743 C   0  0  0  0  0  0  0  0  0  0  0  0
    0.6961   -3.4962    0.6542 C   0  0  0  0  0  0  0  0  0  0  0  0
    1.0026   -0.2220    0.6526 C   0  0  0  0  0  0  0  0  0  0  0  0
   -0.1711   -0.2717   -0.1265 N   0  0  0  0  0  0  0  0  0  0  0  0
   -0.5561    0.5603   -1.1525 C   0  0  0  0  0  0  0  0  0  0  0  0
    0.1011    1.4775   -1.6335 O   0  0  0  0  0  0  0  0  0  0  0  0
   -1.9553    0.2555   -1.6547 C   0  0  0  0  0  0  0  0  0  0  0  0
   -2.9931    0.9539   -0.7758 C   0  0  0  0  0  0  0  0  0  0  0  0
   -4.4461    0.5430   -1.0761 C   0  0  0  0  0  0  0  0  0  0  0  0
   -4.8820    0.8644   -2.5111 C   0  0  0  0  0  0  0  0  0  0  0  0
   -6.3035    0.3740   -2.8046 C   0  0  0  0  0  0  0  0  0  0  0  0
   -7.2124    0.3427   -1.5764 C   0  0  0  0  0  0  0  0  0  0  0  0
   -6.8220    1.4072   -0.5645 C   0  0  0  0  0  0  0  0  0  0  0  0
   -5.3922    1.2131   -0.0556 C   0  0  0  0  0  0  0  0  0  0  0  0
    1.9246    0.8200    0.6009 C   0  0  0  0  0  0  0  0  0  0  0  0
    3.8691   -0.1075   -1.6814 H   0  0  0  0  0  0  0  0  0  0  0  0
    4.9592    0.8031   -2.7373 H   0  0  0  0  0  0  0  0  0  0  0  0
    5.4544   -0.7762   -2.1054 H   0  0  0  0  0  0  0  0  0  0  0  0
    5.5657    0.0786    0.1730 H   0  0  0  0  0  0  0  0  0  0  0  0
    6.5826    1.0762   -0.8537 H   0  0  0  0  0  0  0  0  0  0  0  0
    5.4103    3.0745   -1.9684 H   0  0  0  0  0  0  0  0  0  0  0  0
    4.3386    3.9696   -0.9164 H   0  0  0  0  0  0  0  0  0  0  0  0
    6.6880    4.8024   -0.7946 H   0  0  0  0  0  0  0  0  0  0  0  0
    6.1734    4.1988    0.7839 H   0  0  0  0  0  0  0  0  0  0  0  0
    7.2440    3.2207   -0.2263 H   0  0  0  0  0  0  0  0  0  0  0  0
    4.1234   -0.2999    2.9695 H   0  0  0  0  0  0  0  0  0  0  0  0
    2.5123   -2.1490    3.0491 H   0  0  0  0  0  0  0  0  0  0  0  0
    0.5099   -2.9661    3.5589 H   0  0  0  0  0  0  0  0  0  0  0  0
   -0.9486   -2.0079    3.2143 H   0  0  0  0  0  0  0  0  0  0  0  0
   -1.8962   -3.9477    1.9272 H   0  0  0  0  0  0  0  0  0  0  0  0
   -1.5348   -4.3975    3.5956 H   0  0  0  0  0  0  0  0  0  0  0  0
    1.6996   -4.6481    2.2092 H   0  0  0  0  0  0  0  0  0  0  0  0
    1.1948   -5.6036    0.8178 H   0  0  0  0  0  0  0  0  0  0  0  0
   -0.0978   -3.6634   -0.0839 H   0  0  0  0  0  0  0  0  0  0  0  0
    1.6134   -3.2620    0.1017 H   0  0  0  0  0  0  0  0  0  0  0  0
   -0.7597   -1.0650    0.1159 H   0  0  0  0  0  0  0  0  0  0  0  0
   -2.0200    0.5940   -2.6944 H   0  0  0  0  0  0  0  0  0  0  0  0
   -2.1123   -0.8295   -1.6585 H   0  0  0  0  0  0  0  0  0  0  0  0
   -2.7787    0.7379    0.2793 H   0  0  0  0  0  0  0  0  0  0  0  0
   -2.8822    2.0399   -0.8911 H   0  0  0  0  0  0  0  0  0  0  0  0
   -4.5215   -0.5450   -0.9399 H   0  0  0  0  0  0  0  0  0  0  0  0
   -4.8348    1.9497   -2.6702 H   0  0  0  0  0  0  0  0  0  0  0  0
   -4.2056    0.4143   -3.2455 H   0  0  0  0  0  0  0  0  0  0  0  0
   -6.2660   -0.6333   -3.2363 H   0  0  0  0  0  0  0  0  0  0  0  0
   -6.7429    1.0178   -3.5773 H   0  0  0  0  0  0  0  0  0  0  0  0
   -7.1506   -0.6445   -1.1015 H   0  0  0  0  0  0  0  0  0  0  0  0
   -8.2555    0.4740   -1.8862 H   0  0  0  0  0  0  0  0  0  0  0  0
   -7.5167    1.4031    0.2831 H   0  0  0  0  0  0  0  0  0  0  0  0
   -6.9082    2.3964   -1.0322 H   0  0  0  0  0  0  0  0  0  0  0  0
   -5.4132    0.5963    0.8530 H   0  0  0  0  0  0  0  0  0  0  0  0
   -5.0041    2.1919    0.2547 H   0  0  0  0  0  0  0  0  0  0  0  0
    1.7901    1.6673   -0.0649 H   0  0  0  0  0  0  0  0  0  0  0  0
  1  2  1  0
  2  3  1  0
  3  4  1  0
  4  5  1  0
  3  6  1  0
  6  7  2  0
  6  8  2  0
  6  9  1  0
  9 10  2  0
 10 11  1  0
 11 12  2  0
 12 13  1  0
 13 14  1  0
 14 15  1  0
 15 16  1  0
 16 17  1  0
 17 18  1  0
 12 19  1  0
 19 20  1  0
 20 21  1  0
 21 22  2  0
 21 23  1  0
 23 24  1  0
 24 25  1  0
 25 26  1  0
 26 27  1  0
 27 28  1  0
 28 29  1  0
 29 30  1  0
 19 31  2  0
 31  9  1  0
 18 13  1  0
 30 25  1  0
  1 32  1  0
  1 33  1  0
  1 34  1  0
  2 35  1  0
  2 36  1  0
  4 37  1  0
  4 38  1  0
  5 39  1  0
  5 40  1  0
  5 41  1  0
 10 42  1  0
 11 43  1  0
 14 44  1  0
 14 45  1  0
 15 46  1  0
 15 47  1  0
 17 48  1  0
 17 49  1  0
 18 50  1  0
 18 51  1  0
 20 52  1  0
 23 53  1  0
 23 54  1  0
 24 55  1  0
 24 56  1  0
 25 57  1  0
 26 58  1  0
 26 59  1  0
 27 60  1  0
 27 61  1  0
 28 62  1  0
 28 63  1  0
 29 64  1  0
 29 65  1  0
 30 66  1  0
 30 67  1  0
 31 68  1  0
M  END
$$$$
