
     RDKit          3D

 51 55  0  0  0  0  0  0  0  0999 V2000
    3.0407   -2.8251    0.4041 C   0  0  0  0  0  0  0  0  0  0  0  0
    3.0248   -1.6251    1.3388 C   0  0  0  0  0  0  0  0  0  0  0  0
    2.6125   -0.4212    0.6265 N   0  0  0  0  0  0  0  0  0  0  0  0
    1.3090    0.0777    0.5374 C   0  0  0  0  0  0  0  0  0  0  0  0
    0.1857   -0.5606    0.9219 C   0  0  0  0  0  0  0  0  0  0  0  0
   -1.1792   -0.0237    0.8270 C   0  0  0  0  0  0  0  0  0  0  0  0
   -1.6426    0.7484    1.8920 C   0  0  0  0  0  0  0  0  0  0  0  0
   -2.9221    1.2683    1.8649 C   0  0  0  0  0  0  0  0  0  0  0  0
   -3.7441    1.0021    0.7772 C   0  0  0  0  0  0  0  0  0  0  0  0
   -5.0489    1.5201    0.7554 C   0  0  0  0  0  0  0  0  0  0  0  0
   -5.9129    1.2557   -0.3103 C   0  0  0  0  0  0  0  0  0  0  0  0
   -7.2949    1.8439   -0.3350 C   0  0  0  0  0  0  0  0  0  0  0  0
   -5.4527    0.4822   -1.3735 C   0  0  0  0  0  0  0  0  0  0  0  0
   -4.1528   -0.0385   -1.3656 C   0  0  0  0  0  0  0  0  0  0  0  0
   -3.2642    0.2088   -0.3010 C   0  0  0  0  0  0  0  0  0  0  0  0
   -1.9767   -0.2802   -0.2542 N   0  0  0  0  0  4  0  0  0  0  0  0
   -1.4274   -1.0723   -1.3963 C   0  0  0  0  0  0  0  0  0  0  0  0
   -1.7648   -2.5401   -1.2123 C   0  0  0  0  0  0  0  0  0  0  0  0
    1.1965    1.6854   -0.2084 S   0  0  0  0  0  0  0  0  0  0  0  0
    2.9725    1.6658   -0.4362 C   0  0  0  0  0  0  0  0  0  0  0  0
    3.6690    2.7046   -1.0210 C   0  0  0  0  0  0  0  0  0  0  0  0
    5.0439    2.5854   -1.1601 C   0  0  0  0  0  0  0  0  0  0  0  0
    5.6870    1.4073   -0.7205 C   0  0  0  0  0  0  0  0  0  0  0  0
    7.3826    1.1100   -0.8437 S   0  0  0  0  0  0  0  0  0  0  0  0
    7.2347   -0.4331   -0.1580 C   0  0  0  0  0  0  0  0  0  0  0  0
    5.9314   -0.7247    0.1695 C   0  0  0  0  0  0  0  0  0  0  0  0
    4.9960    0.3353   -0.1265 C   0  0  0  0  0  0  0  0  0  0  0  0
    3.5829    0.4677    0.0465 C   0  0  0  0  0  0  0  0  0  0  0  0
    2.0399   -3.0265    0.0074 H   0  0  0  0  0  0  0  0  0  0  0  0
    3.3775   -3.7180    0.9398 H   0  0  0  0  0  0  0  0  0  0  0  0
    3.7055   -2.6665   -0.4503 H   0  0  0  0  0  0  0  0  0  0  0  0
    2.3284   -1.8338    2.1605 H   0  0  0  0  0  0  0  0  0  0  0  0
    3.9852   -1.4908    1.8428 H   0  0  0  0  0  0  0  0  0  0  0  0
    0.2385   -1.5529    1.3586 H   0  0  0  0  0  0  0  0  0  0  0  0
   -1.0007    0.9570    2.7473 H   0  0  0  0  0  0  0  0  0  0  0  0
   -3.2687    1.8764    2.7002 H   0  0  0  0  0  0  0  0  0  0  0  0
   -5.4074    2.1383    1.5799 H   0  0  0  0  0  0  0  0  0  0  0  0
   -7.6985    1.9332    0.6790 H   0  0  0  0  0  0  0  0  0  0  0  0
   -7.2704    2.8359   -0.7963 H   0  0  0  0  0  0  0  0  0  0  0  0
   -7.9810    1.2063   -0.9024 H   0  0  0  0  0  0  0  0  0  0  0  0
   -6.1078    0.2757   -2.2203 H   0  0  0  0  0  0  0  0  0  0  0  0
   -3.8840   -0.6451   -2.2245 H   0  0  0  0  0  0  0  0  0  0  0  0
   -1.8198   -0.6698   -2.3337 H   0  0  0  0  0  0  0  0  0  0  0  0
   -0.3469   -0.9309   -1.4653 H   0  0  0  0  0  0  0  0  0  0  0  0
   -1.3336   -2.9324   -0.2861 H   0  0  0  0  0  0  0  0  0  0  0  0
   -1.3679   -3.1264   -2.0466 H   0  0  0  0  0  0  0  0  0  0  0  0
   -2.8456   -2.7030   -1.1666 H   0  0  0  0  0  0  0  0  0  0  0  0
    3.1631    3.6017   -1.3650 H   0  0  0  0  0  0  0  0  0  0  0  0
    5.6204    3.3891   -1.6130 H   0  0  0  0  0  0  0  0  0  0  0  0
    8.1066   -1.0606   -0.0282 H   0  0  0  0  0  0  0  0  0  0  0  0
    5.6812   -1.6810    0.6031 H   0  0  0  0  0  0  0  0  0  0  0  0
  1  2  1  0
  2  3  1  0
  3  4  1  0
  4  5  2  3
  5  6  1  0
  6  7  2  0
  7  8  1  0
  8  9  2  0
  9 10  1  0
 10 11  2  0
 11 12  1  0
 11 13  1  0
 13 14  2  0
 14 15  1  0
 15 16  2  0
 16 17  1  0
 17 18  1  0
  4 19  1  0
 19 20  1  0
 20 21  2  0
 21 22  1  0
 22 23  2  0
 23 24  1  0
 24 25  1  0
 25 26  2  0
 26 27  1  0
 27 28  2  0
 28  3  1  0
 16  6  1  0
 28 20  1  0
 15  9  1  0
 27 23  1  0
  1 29  1  0
  1 30  1  0
  1 31  1  0
  2 32  1  0
  2 33  1  0
  5 34  1  0
  7 35  1  0
  8 36  1  0
 10 37  1  0
 12 38  1  0
 12 39  1  0
 12 40  1  0
 13 41  1  0
 14 42  1  0
 17 43  1  0
 17 44  1  0
 18 45  1  0
 18 46  1  0
 18 47  1  0
 21 48  1  0
 22 49  1  0
 25 50  1  0
 26 51  1  0
M  CHG  1  16   1
M  END
$$$$
