
     RDKit          3D

 43 46  0  0  0  0  0  0  0  0999 V2000
    5.1215   -1.4204   -0.2029 C   0  0  0  0  0  0  0  0  0  0  0  0
    3.9279   -0.6553   -0.3051 O   0  0  0  0  0  0  0  0  0  0  0  0
    2.8929   -1.1560    0.4577 C   0  0  0  0  0  0  0  0  0  0  0  0
    1.7790   -0.4376    0.4035 N   0  0  0  0  0  0  0  0  0  0  0  0
    0.7674   -0.8978    1.1185 C   0  0  0  0  0  0  0  0  0  0  0  0
   -0.4447   -0.2381    1.1590 N   0  0  0  0  0  0  0  0  0  0  0  0
   -0.9388    0.5772    0.0489 C   0  0  0  0  0  0  0  0  0  0  0  0
   -2.4131    0.9477    0.3879 C   0  0  0  0  0  0  0  0  0  0  0  0
   -3.0352    1.8126   -0.7196 C   0  0  0  0  0  0  0  0  0  0  0  0
   -2.2183    3.1049   -0.8666 C   0  0  0  0  0  0  0  0  0  0  0  0
   -0.7627    2.7652   -1.2207 C   0  0  0  0  0  0  0  0  0  0  0  0
   -0.7318    1.9767   -2.5419 C   0  0  0  0  0  0  0  0  0  0  0  0
   -1.5513    0.6812   -2.4081 C   0  0  0  0  0  0  0  0  0  0  0  0
   -3.0018    1.0349   -2.0443 C   0  0  0  0  0  0  0  0  0  0  0  0
   -0.9446   -0.1911   -1.2937 C   0  0  0  0  0  0  0  0  0  0  0  0
   -0.1530    1.9017   -0.1009 C   0  0  0  0  0  0  0  0  0  0  0  0
    0.8221   -2.0030    1.8486 N   0  0  0  0  0  0  0  0  0  0  0  0
    1.9908   -2.6378    1.8295 C   0  0  0  0  0  0  0  0  0  0  0  0
    2.1509   -3.7996    2.5561 O   0  0  0  0  0  0  0  0  0  0  0  0
    1.0143   -4.1323    3.3420 C   0  0  0  0  0  0  0  0  0  0  0  0
    3.0648   -2.2715    1.1502 N   0  0  0  0  0  0  0  0  0  0  0  0
    5.8807   -0.9390   -0.8271 H   0  0  0  0  0  0  0  0  0  0  0  0
    4.9761   -2.4375   -0.5835 H   0  0  0  0  0  0  0  0  0  0  0  0
    5.4990   -1.4351    0.8256 H   0  0  0  0  0  0  0  0  0  0  0  0
   -1.1155   -0.8928    1.5466 H   0  0  0  0  0  0  0  0  0  0  0  0
   -2.4575    1.4840    1.3456 H   0  0  0  0  0  0  0  0  0  0  0  0
   -3.0120    0.0363    0.5204 H   0  0  0  0  0  0  0  0  0  0  0  0
   -4.0713    2.0576   -0.4607 H   0  0  0  0  0  0  0  0  0  0  0  0
   -2.2529    3.6793    0.0673 H   0  0  0  0  0  0  0  0  0  0  0  0
   -2.6564    3.7392   -1.6470 H   0  0  0  0  0  0  0  0  0  0  0  0
   -0.1846    3.6898   -1.3287 H   0  0  0  0  0  0  0  0  0  0  0  0
    0.3044    1.7384   -2.8119 H   0  0  0  0  0  0  0  0  0  0  0  0
   -1.1383    2.5929   -3.3534 H   0  0  0  0  0  0  0  0  0  0  0  0
   -1.5324    0.1324   -3.3563 H   0  0  0  0  0  0  0  0  0  0  0  0
   -3.4530    1.6357   -2.8434 H   0  0  0  0  0  0  0  0  0  0  0  0
   -3.6004    0.1197   -1.9574 H   0  0  0  0  0  0  0  0  0  0  0  0
   -1.5155   -1.1239   -1.1964 H   0  0  0  0  0  0  0  0  0  0  0  0
    0.0707   -0.4812   -1.5884 H   0  0  0  0  0  0  0  0  0  0  0  0
   -0.1595    2.4569    0.8463 H   0  0  0  0  0  0  0  0  0  0  0  0
    0.8995    1.7204   -0.3419 H   0  0  0  0  0  0  0  0  0  0  0  0
    0.1428   -4.3413    2.7119 H   0  0  0  0  0  0  0  0  0  0  0  0
    0.7916   -3.3477    4.0738 H   0  0  0  0  0  0  0  0  0  0  0  0
    1.2482   -5.0460    3.8971 H   0  0  0  0  0  0  0  0  0  0  0  0
  1  2  1  0
  2  3  1  0
  3  4  2  0
  4  5  1  0
  5  6  1  0
  6  7  1  0
  7  8  1  0
  8  9  1  0
  9 10  1  0
 10 11  1  0
 11 12  1  0
 12 13  1  0
 13 14  1  0
 13 15  1  0
 11 16  1  0
  5 17  2  0
 17 18  1  0
 18 19  1  0
 19 20  1  0
 18 21  2  0
 21  3  1  0
 15  7  1  0
 16  7  1  0
 14  9  1  0
  1 22  1  0
  1 23  1  0
  1 24  1  0
  6 25  1  0
  8 26  1  0
  8 27  1  0
  9 28  1  0
 10 29  1  0
 10 30  1  0
 11 31  1  0
 12 32  1  0
 12 33  1  0
 13 34  1  0
 14 35  1  0
 14 36  1  0
 15 37  1  0
 15 38  1  0
 16 39  1  0
 16 40  1  0
 20 41  1  0
 20 42  1  0
 20 43  1  0
M  END
$$$$
