
     RDKit          3D

 55 58  0  0  0  0  0  0  0  0999 V2000
    3.0865   -1.3526    0.8611 C   0  0  0  0  0  0  0  0  0  0  0  0
    3.1565   -0.0516    0.2908 O   0  0  0  0  0  0  0  0  0  0  0  0
    4.3156    0.6556    0.4844 C   0  0  0  0  0  0  0  0  0  0  0  0
    5.4859    0.1307    1.0413 C   0  0  0  0  0  0  0  0  0  0  0  0
    6.6276    0.9263    1.1664 C   0  0  0  0  0  0  0  0  0  0  0  0
    6.6123    2.2476    0.7301 C   0  0  0  0  0  0  0  0  0  0  0  0
    5.4519    2.7804    0.1727 C   0  0  0  0  0  0  0  0  0  0  0  0
    4.2922    1.9971    0.0554 C   0  0  0  0  0  0  0  0  0  0  0  0
    3.0475    2.5953   -0.5597 C   0  0  0  0  0  0  0  0  0  0  0  0
    2.9080    2.1837   -1.9586 N   0  0  0  0  0  0  0  0  0  0  0  0
    1.5163    2.6472   -2.7707 S   0  0  0  0  0  6  0  0  0  0  0  0
    1.5835    2.0603   -4.0909 O   0  0  0  0  0  0  0  0  0  0  0  0
    1.3310    4.0675   -2.5732 O   0  0  0  0  0  0  0  0  0  0  0  0
    0.2405    1.7865   -1.8784 C   0  0  0  0  0  0  0  0  0  0  0  0
   -0.6076    2.4940   -1.0103 C   0  0  0  0  0  0  0  0  0  0  0  0
   -1.6156    1.8210   -0.3099 C   0  0  0  0  0  0  0  0  0  0  0  0
   -1.7530    0.4527   -0.4869 C   0  0  0  0  0  0  0  0  0  0  0  0
   -0.9203   -0.2346   -1.3774 C   0  0  0  0  0  0  0  0  0  0  0  0
    0.0788    0.4132   -2.0878 C   0  0  0  0  0  0  0  0  0  0  0  0
   -1.3366   -1.6665   -1.4992 C   0  0  0  0  0  0  0  0  0  0  0  0
   -2.2632   -1.8153   -0.2742 C   0  0  0  0  0  0  0  0  0  0  0  0
   -1.4884   -2.4512    0.8910 C   0  0  0  0  0  0  0  0  0  0  0  0
   -2.6931   -0.4402    0.0838 N   0  0  0  0  0  0  0  0  0  0  0  0
   -3.7122   -0.0654    0.9577 C   0  0  0  0  0  0  0  0  0  0  0  0
   -3.6742    1.0171    1.5671 O   0  0  0  0  0  0  0  0  0  0  0  0
   -4.9642   -0.9468    1.1190 C   0  0  0  0  0  0  0  0  0  0  0  0
   -4.9633   -2.4114    1.6078 C   0  0  0  0  0  0  0  0  0  0  0  0
   -6.1997   -2.6430    0.7137 C   0  0  0  0  0  0  0  0  0  0  0  0
   -5.7407   -1.4364   -0.1292 C   0  0  0  0  0  0  0  0  0  0  0  0
    3.2470   -1.3216    1.9439 H   0  0  0  0  0  0  0  0  0  0  0  0
    3.7922   -2.0327    0.3736 H   0  0  0  0  0  0  0  0  0  0  0  0
    2.0781   -1.7392    0.6847 H   0  0  0  0  0  0  0  0  0  0  0  0
    5.5489   -0.8979    1.3801 H   0  0  0  0  0  0  0  0  0  0  0  0
    7.5343    0.5096    1.5982 H   0  0  0  0  0  0  0  0  0  0  0  0
    7.5047    2.8620    0.8187 H   0  0  0  0  0  0  0  0  0  0  0  0
    5.4548    3.8115   -0.1759 H   0  0  0  0  0  0  0  0  0  0  0  0
    2.1836    2.2832    0.0359 H   0  0  0  0  0  0  0  0  0  0  0  0
    3.0938    3.6889   -0.5024 H   0  0  0  0  0  0  0  0  0  0  0  0
    3.1683    1.2165   -2.1454 H   0  0  0  0  0  0  0  0  0  0  0  0
   -0.4932    3.5679   -0.8751 H   0  0  0  0  0  0  0  0  0  0  0  0
   -2.2636    2.3833    0.3544 H   0  0  0  0  0  0  0  0  0  0  0  0
    0.7025   -0.1256   -2.7949 H   0  0  0  0  0  0  0  0  0  0  0  0
   -1.9038   -1.7973   -2.4276 H   0  0  0  0  0  0  0  0  0  0  0  0
   -0.4892   -2.3582   -1.4859 H   0  0  0  0  0  0  0  0  0  0  0  0
   -3.1205   -2.4413   -0.5256 H   0  0  0  0  0  0  0  0  0  0  0  0
   -0.5600   -1.9075    1.1001 H   0  0  0  0  0  0  0  0  0  0  0  0
   -2.0684   -2.4462    1.8180 H   0  0  0  0  0  0  0  0  0  0  0  0
   -1.2252   -3.4873    0.6553 H   0  0  0  0  0  0  0  0  0  0  0  0
   -5.6675   -0.3799    1.7591 H   0  0  0  0  0  0  0  0  0  0  0  0
   -4.1210   -3.0394    1.3192 H   0  0  0  0  0  0  0  0  0  0  0  0
   -5.1372   -2.5455    2.6796 H   0  0  0  0  0  0  0  0  0  0  0  0
   -7.1527   -2.4818    1.2305 H   0  0  0  0  0  0  0  0  0  0  0  0
   -6.2351   -3.6016    0.1900 H   0  0  0  0  0  0  0  0  0  0  0  0
   -6.5444   -0.7765   -0.4687 H   0  0  0  0  0  0  0  0  0  0  0  0
   -5.1286   -1.7044   -0.9952 H   0  0  0  0  0  0  0  0  0  0  0  0
  1  2  1  0
  2  3  1  0
  3  4  2  0
  4  5  1  0
  5  6  2  0
  6  7  1  0
  7  8  2  0
  8  9  1  0
  9 10  1  0
 10 11  1  0
 11 12  2  0
 11 13  2  0
 11 14  1  0
 14 15  2  0
 15 16  1  0
 16 17  2  0
 17 18  1  0
 18 19  2  0
 18 20  1  0
 20 21  1  0
 21 22  1  0
 21 23  1  0
 23 24  1  0
 24 25  2  0
 24 26  1  0
 26 27  1  0
 27 28  1  0
 28 29  1  0
  8  3  1  0
 19 14  1  0
 29 26  1  0
 23 17  1  0
  1 30  1  0
  1 31  1  0
  1 32  1  0
  4 33  1  0
  5 34  1  0
  6 35  1  0
  7 36  1  0
  9 37  1  0
  9 38  1  0
 10 39  1  0
 15 40  1  0
 16 41  1  0
 19 42  1  0
 20 43  1  0
 20 44  1  0
 21 45  1  0
 22 46  1  0
 22 47  1  0
 22 48  1  0
 26 49  1  0
 27 50  1  0
 27 51  1  0
 28 52  1  0
 28 53  1  0
 29 54  1  0
 29 55  1  0
M  END
$$$$
