
     RDKit          3D

 64 68  0  0  0  0  0  0  0  0999 V2000
    0.9261    1.2033    1.9930 O   0  0  0  0  0  0  0  0  0  0  0  0
    1.1746    0.2004    1.3214 C   0  0  0  0  0  0  0  0  0  0  0  0
    0.0456   -0.7216    0.8314 C   0  0  0  0  0  0  0  0  0  0  0  0
   -0.1619   -0.5912   -0.6894 C   0  0  0  0  0  0  0  0  0  0  0  0
   -1.4681    0.0990   -1.0928 C   0  0  0  0  0  0  0  0  0  0  0  0
   -1.7737    1.2790   -0.1669 C   0  0  0  0  0  0  0  0  0  0  0  0
   -2.9043    2.1843   -0.6860 C   0  0  0  0  0  0  0  0  0  0  0  0
   -4.1185    1.4484   -0.9933 N   0  0  0  0  0  0  0  0  0  0  0  0
   -5.2637    1.2733   -0.2338 C   0  0  0  0  0  0  0  0  0  0  0  0
   -5.4157    1.9876    0.9252 N   0  0  0  0  0  0  0  0  0  0  0  0
   -6.4796    1.9153    1.7843 C   0  0  0  0  0  0  0  0  0  0  0  0
   -6.4441    2.8819    3.1546 S   0  0  0  0  0  0  0  0  0  0  0  0
   -7.5052    1.0654    1.4851 N   0  0  0  0  0  0  0  0  0  0  0  0
   -7.4083    0.3760    0.3944 C   0  0  0  0  0  0  0  0  0  0  0  0
   -8.5169   -0.5588    0.0500 C   0  0  0  0  0  0  0  0  0  0  0  0
   -8.4717   -1.2977   -1.0658 C   0  0  0  0  0  0  0  0  0  0  0  0
   -7.3638   -1.2278   -1.9853 C   0  0  0  0  0  0  0  0  0  0  0  0
   -6.3196   -0.4175   -1.7600 C   0  0  0  0  0  0  0  0  0  0  0  0
   -6.2620    0.4253   -0.5758 C   0  0  0  0  0  0  0  0  0  0  0  0
   -2.0102    0.7898    1.2696 C   0  0  0  0  0  0  0  0  0  0  0  0
   -1.2551   -0.4976    1.6167 C   0  0  0  0  0  0  0  0  0  0  0  0
    2.4759   -0.1087    0.9508 N   0  0  0  0  0  0  0  0  0  0  0  0
    3.5494    0.8196    1.3192 C   0  0  0  0  0  0  0  0  0  0  0  0
    4.7076    0.8319    0.3045 C   0  0  0  0  0  0  0  0  0  0  0  0
    5.2400   -0.5212    0.0478 N   0  0  0  0  0  0  0  0  0  0  0  0
    6.5661   -0.6893   -0.3250 C   0  0  0  0  0  0  0  0  0  0  0  0
    7.2661    0.3194   -1.0140 C   0  0  0  0  0  0  0  0  0  0  0  0
    8.6007    0.1613   -1.4055 C   0  0  0  0  0  0  0  0  0  0  0  0
    9.2614   -1.0198   -1.1135 C   0  0  0  0  0  0  0  0  0  0  0  0
   10.5370   -1.1775   -1.4882 F   0  0  0  0  0  0  0  0  0  0  0  0
    8.6110   -2.0411   -0.4411 C   0  0  0  0  0  0  0  0  0  0  0  0
    7.2755   -1.8735   -0.0548 C   0  0  0  0  0  0  0  0  0  0  0  0
    4.4033   -1.6566    0.4615 C   0  0  0  0  0  0  0  0  0  0  0  0
    2.9042   -1.3428    0.2790 C   0  0  0  0  0  0  0  0  0  0  0  0
    0.3531   -1.7478    1.0603 H   0  0  0  0  0  0  0  0  0  0  0  0
   -0.1461   -1.5894   -1.1443 H   0  0  0  0  0  0  0  0  0  0  0  0
    0.6667   -0.0379   -1.1474 H   0  0  0  0  0  0  0  0  0  0  0  0
   -1.3873    0.4339   -2.1338 H   0  0  0  0  0  0  0  0  0  0  0  0
   -2.2864   -0.6314   -1.0598 H   0  0  0  0  0  0  0  0  0  0  0  0
   -0.8753    1.9129   -0.1442 H   0  0  0  0  0  0  0  0  0  0  0  0
   -2.5676    2.6574   -1.6168 H   0  0  0  0  0  0  0  0  0  0  0  0
   -3.0860    3.0074    0.0127 H   0  0  0  0  0  0  0  0  0  0  0  0
   -4.0429    0.8524   -1.8086 H   0  0  0  0  0  0  0  0  0  0  0  0
   -4.6896    2.6301    1.2000 H   0  0  0  0  0  0  0  0  0  0  0  0
   -9.3489   -0.6069    0.7425 H   0  0  0  0  0  0  0  0  0  0  0  0
   -9.2858   -1.9751   -1.3062 H   0  0  0  0  0  0  0  0  0  0  0  0
   -7.4014   -1.8520   -2.8735 H   0  0  0  0  0  0  0  0  0  0  0  0
   -5.5119   -0.3918   -2.4805 H   0  0  0  0  0  0  0  0  0  0  0  0
   -1.7215    1.5885    1.9641 H   0  0  0  0  0  0  0  0  0  0  0  0
   -3.0715    0.6060    1.4615 H   0  0  0  0  0  0  0  0  0  0  0  0
   -1.0647   -0.5235    2.6968 H   0  0  0  0  0  0  0  0  0  0  0  0
   -1.9218   -1.3463    1.4106 H   0  0  0  0  0  0  0  0  0  0  0  0
    3.1548    1.8355    1.4303 H   0  0  0  0  0  0  0  0  0  0  0  0
    3.9164    0.5011    2.3029 H   0  0  0  0  0  0  0  0  0  0  0  0
    4.3532    1.2528   -0.6443 H   0  0  0  0  0  0  0  0  0  0  0  0
    5.4870    1.4928    0.7031 H   0  0  0  0  0  0  0  0  0  0  0  0
    6.7709    1.2484   -1.2836 H   0  0  0  0  0  0  0  0  0  0  0  0
    9.1172    0.9506   -1.9408 H   0  0  0  0  0  0  0  0  0  0  0  0
    9.1407   -2.9604   -0.2155 H   0  0  0  0  0  0  0  0  0  0  0  0
    6.8088   -2.6904    0.4879 H   0  0  0  0  0  0  0  0  0  0  0  0
    4.6071   -1.8923    1.5130 H   0  0  0  0  0  0  0  0  0  0  0  0
    4.6242   -2.5470   -0.1388 H   0  0  0  0  0  0  0  0  0  0  0  0
    2.6884   -1.2139   -0.7876 H   0  0  0  0  0  0  0  0  0  0  0  0
    2.3180   -2.1903    0.6426 H   0  0  0  0  0  0  0  0  0  0  0  0
  1  2  2  0
  2  3  1  0
  3  4  1  0
  4  5  1  0
  5  6  1  0
  6  7  1  0
  7  8  1  0
  8  9  1  0
  9 10  1  0
 10 11  1  0
 11 12  2  0
 11 13  1  0
 13 14  2  0
 14 15  1  0
 15 16  2  0
 16 17  1  0
 17 18  2  0
 18 19  1  0
  6 20  1  0
 20 21  1  0
  2 22  1  0
 22 23  1  0
 23 24  1  0
 24 25  1  0
 25 26  1  0
 26 27  2  0
 27 28  1  0
 28 29  2  0
 29 30  1  0
 29 31  1  0
 31 32  2  0
 25 33  1  0
 33 34  1  0
 21  3  1  0
 34 22  1  0
 19  9  2  0
 32 26  1  0
 19 14  1  0
  3 35  1  0
  4 36  1  0
  4 37  1  0
  5 38  1  0
  5 39  1  0
  6 40  1  0
  7 41  1  0
  7 42  1  0
  8 43  1  0
 10 44  1  0
 15 45  1  0
 16 46  1  0
 17 47  1  0
 18 48  1  0
 20 49  1  0
 20 50  1  0
 21 51  1  0
 21 52  1  0
 23 53  1  0
 23 54  1  0
 24 55  1  0
 24 56  1  0
 27 57  1  0
 28 58  1  0
 31 59  1  0
 32 60  1  0
 33 61  1  0
 33 62  1  0
 34 63  1  0
 34 64  1  0
M  END
$$$$
