
     RDKit          3D

 39 42  0  0  0  0  0  0  0  0999 V2000
    0.4220   -5.3638    0.3564 N   0  0  0  0  0  0  0  0  0  0  0  0
    0.4584   -4.2340    0.0902 C   0  0  0  0  0  0  0  0  0  0  0  0
    0.5253   -2.8019   -0.2293 C   0  0  0  0  0  0  0  0  0  0  0  0
   -1.1119   -2.1136   -0.6364 S   0  0  0  0  0  0  0  0  0  0  0  0
   -0.7073   -0.4014   -0.7077 C   0  0  0  0  0  0  0  0  0  0  0  0
    0.5224   -0.1303   -1.0158 N   0  0  0  0  0  0  0  0  0  0  0  0
    0.8476    1.1773   -1.1600 C   0  0  0  0  0  0  0  0  0  0  0  0
   -0.0153    2.1842   -1.0769 C   0  0  0  0  0  0  0  0  0  0  0  0
    0.6936    3.7240   -1.3121 S   0  0  0  0  0  0  0  0  0  0  0  0
    2.2918    2.9698   -1.5385 C   0  0  0  0  0  0  0  0  0  0  0  0
    3.6716    3.8536   -1.8328 S   0  0  0  0  0  0  0  0  0  0  0  0
    2.1437    1.5848   -1.4252 N   0  0  0  0  0  0  0  0  0  0  0  0
    3.2357    0.6136   -1.5227 C   0  0  0  0  0  0  0  0  0  0  0  0
    3.7029    0.2226   -0.1634 C   0  0  0  0  0  0  0  0  0  0  0  0
    4.3974    0.8822    0.8309 C   0  0  0  0  0  0  0  0  0  0  0  0
    4.5540   -0.0417    1.8916 C   0  0  0  0  0  0  0  0  0  0  0  0
    3.9522   -1.2063    1.4785 C   0  0  0  0  0  0  0  0  0  0  0  0
    3.4292   -1.0563    0.2345 O   0  0  0  0  0  0  0  0  0  0  0  0
   -1.4236    1.9174   -0.7623 C   0  0  0  0  0  0  0  0  0  0  0  0
   -2.2238    2.8473   -0.6860 O   0  0  0  0  0  0  0  0  0  0  0  0
   -1.7115    0.5617   -0.5269 N   0  0  0  0  0  0  0  0  0  0  0  0
   -3.0367    0.2442   -0.0724 C   0  0  0  0  0  0  0  0  0  0  0  0
   -3.2399   -0.5179    1.0910 C   0  0  0  0  0  0  0  0  0  0  0  0
   -4.5329   -0.8056    1.5378 C   0  0  0  0  0  0  0  0  0  0  0  0
   -5.6268   -0.3215    0.8329 C   0  0  0  0  0  0  0  0  0  0  0  0
   -6.8643   -0.5958    1.2640 F   0  0  0  0  0  0  0  0  0  0  0  0
   -5.4530    0.4521   -0.3063 C   0  0  0  0  0  0  0  0  0  0  0  0
   -4.1610    0.7405   -0.7543 C   0  0  0  0  0  0  0  0  0  0  0  0
    0.9283   -2.2648    0.6354 H   0  0  0  0  0  0  0  0  0  0  0  0
    1.2021   -2.6525   -1.0767 H   0  0  0  0  0  0  0  0  0  0  0  0
    4.0729    1.0366   -2.0861 H   0  0  0  0  0  0  0  0  0  0  0  0
    2.8915   -0.2591   -2.0905 H   0  0  0  0  0  0  0  0  0  0  0  0
    4.7535    1.9030    0.7937 H   0  0  0  0  0  0  0  0  0  0  0  0
    5.0523    0.1184    2.8378 H   0  0  0  0  0  0  0  0  0  0  0  0
    3.8222   -2.1807    1.9291 H   0  0  0  0  0  0  0  0  0  0  0  0
   -2.4018   -0.8724    1.6859 H   0  0  0  0  0  0  0  0  0  0  0  0
   -4.6923   -1.3949    2.4356 H   0  0  0  0  0  0  0  0  0  0  0  0
   -6.3207    0.8314   -0.8370 H   0  0  0  0  0  0  0  0  0  0  0  0
   -4.0478    1.3496   -1.6490 H   0  0  0  0  0  0  0  0  0  0  0  0
  1  2  3  0
  2  3  1  0
  3  4  1  0
  4  5  1  0
  5  6  2  0
  6  7  1  0
  7  8  2  0
  8  9  1  0
  9 10  1  0
 10 11  2  0
 10 12  1  0
 12 13  1  0
 13 14  1  0
 14 15  2  0
 15 16  1  0
 16 17  2  0
 17 18  1  0
  8 19  1  0
 19 20  2  0
 19 21  1  0
 21 22  1  0
 22 23  2  0
 23 24  1  0
 24 25  2  0
 25 26  1  0
 25 27  1  0
 27 28  2  0
 21  5  1  0
 28 22  1  0
 12  7  1  0
 18 14  1  0
  3 29  1  0
  3 30  1  0
 13 31  1  0
 13 32  1  0
 15 33  1  0
 16 34  1  0
 17 35  1  0
 23 36  1  0
 24 37  1  0
 27 38  1  0
 28 39  1  0
M  END
$$$$
