
     RDKit          3D

 60 61  0  0  0  0  0  0  0  0999 V2000
   -7.1472    0.2873    0.5056 C   0  0  0  0  0  0  0  0  0  0  0  0
   -6.3392    1.4216    0.2186 O   0  0  0  0  0  0  0  0  0  0  0  0
   -4.9869    1.2885    0.3894 C   0  0  0  0  0  0  0  0  0  0  0  0
   -4.3262    0.1396    0.8264 C   0  0  0  0  0  0  0  0  0  0  0  0
   -2.9312    0.1319    0.9559 C   0  0  0  0  0  0  0  0  0  0  0  0
   -2.2047   -0.9570    1.3783 O   0  0  0  0  0  0  0  0  0  0  0  0
   -2.8909   -2.1916    1.5382 C   0  0  0  0  0  0  0  0  0  0  0  0
   -2.1949    1.2996    0.6549 C   0  0  0  0  0  0  0  0  0  0  0  0
   -0.7394    1.3000    0.8002 C   0  0  0  0  0  0  0  0  0  0  0  0
   -0.1355    2.0471    1.7387 N   0  0  0  0  0  0  0  0  0  0  0  0
    1.2136    1.7917    1.6211 O   0  0  0  0  0  0  0  0  0  0  0  0
    1.4328    0.8962    0.6172 C   0  0  0  0  0  0  0  0  0  0  0  0
    2.7894    0.5572    0.2787 C   0  0  0  0  0  0  0  0  0  0  0  0
    3.1472    0.0209   -0.7614 O   0  0  0  0  0  0  0  0  0  0  0  0
    3.6240    0.9325    1.2867 O   0  0  0  0  0  0  0  0  0  0  0  0
    5.0532    0.7034    1.2005 C   0  0  0  0  0  0  0  0  0  0  0  0
    5.6155    1.2524    2.5205 C   0  0  0  0  0  0  0  0  0  0  0  0
    5.3737   -0.7931    1.1173 C   0  0  0  0  0  0  0  0  0  0  0  0
    5.6738    1.4886    0.0401 C   0  0  0  0  0  0  0  0  0  0  0  0
    0.2149    0.5254    0.0823 C   0  0  0  0  0  0  0  0  0  0  0  0
   -0.0282   -0.4356   -0.9636 C   0  0  0  0  0  0  0  0  0  0  0  0
   -0.9352   -0.3247   -1.7769 O   0  0  0  0  0  0  0  0  0  0  0  0
    0.8310   -1.4872   -0.8928 O   0  0  0  0  0  0  0  0  0  0  0  0
    0.7689   -2.5743   -1.8483 C   0  0  0  0  0  0  0  0  0  0  0  0
    1.9132   -3.5149   -1.4404 C   0  0  0  0  0  0  0  0  0  0  0  0
   -0.5567   -3.3344   -1.7328 C   0  0  0  0  0  0  0  0  0  0  0  0
    1.0262   -2.0808   -3.2758 C   0  0  0  0  0  0  0  0  0  0  0  0
   -2.8615    2.4581    0.2080 C   0  0  0  0  0  0  0  0  0  0  0  0
   -2.0792    3.5391   -0.1153 O   0  0  0  0  0  0  0  0  0  0  0  0
   -2.7340    4.7804   -0.3396 C   0  0  0  0  0  0  0  0  0  0  0  0
   -4.2532    2.4370    0.0792 C   0  0  0  0  0  0  0  0  0  0  0  0
   -7.0670    0.0031    1.5601 H   0  0  0  0  0  0  0  0  0  0  0  0
   -8.1889    0.5615    0.3129 H   0  0  0  0  0  0  0  0  0  0  0  0
   -6.8969   -0.5520   -0.1518 H   0  0  0  0  0  0  0  0  0  0  0  0
   -4.8970   -0.7466    1.0686 H   0  0  0  0  0  0  0  0  0  0  0  0
   -3.6088   -2.1373    2.3625 H   0  0  0  0  0  0  0  0  0  0  0  0
   -2.1492   -2.9542    1.7937 H   0  0  0  0  0  0  0  0  0  0  0  0
   -3.3767   -2.5000    0.6063 H   0  0  0  0  0  0  0  0  0  0  0  0
    5.3735    2.3155    2.6346 H   0  0  0  0  0  0  0  0  0  0  0  0
    6.7029    1.1368    2.5798 H   0  0  0  0  0  0  0  0  0  0  0  0
    5.1655    0.7397    3.3787 H   0  0  0  0  0  0  0  0  0  0  0  0
    4.8507   -1.3469    1.9053 H   0  0  0  0  0  0  0  0  0  0  0  0
    5.0559   -1.2280    0.1650 H   0  0  0  0  0  0  0  0  0  0  0  0
    6.4491   -0.9762    1.2177 H   0  0  0  0  0  0  0  0  0  0  0  0
    5.3630    1.0959   -0.9325 H   0  0  0  0  0  0  0  0  0  0  0  0
    5.3605    2.5382    0.0696 H   0  0  0  0  0  0  0  0  0  0  0  0
    6.7679    1.4505    0.0737 H   0  0  0  0  0  0  0  0  0  0  0  0
    1.9688   -4.3943   -2.0902 H   0  0  0  0  0  0  0  0  0  0  0  0
    1.7875   -3.8554   -0.4058 H   0  0  0  0  0  0  0  0  0  0  0  0
    2.8769   -2.9941   -1.4800 H   0  0  0  0  0  0  0  0  0  0  0  0
   -1.4043   -2.7315   -2.0726 H   0  0  0  0  0  0  0  0  0  0  0  0
   -0.7617   -3.6030   -0.6903 H   0  0  0  0  0  0  0  0  0  0  0  0
   -0.5440   -4.2507   -2.3326 H   0  0  0  0  0  0  0  0  0  0  0  0
    0.2034   -1.4644   -3.6498 H   0  0  0  0  0  0  0  0  0  0  0  0
    1.1490   -2.9186   -3.9705 H   0  0  0  0  0  0  0  0  0  0  0  0
    1.9282   -1.4599   -3.3153 H   0  0  0  0  0  0  0  0  0  0  0  0
   -3.3170    4.7530   -1.2657 H   0  0  0  0  0  0  0  0  0  0  0  0
   -3.3585    5.0629    0.5145 H   0  0  0  0  0  0  0  0  0  0  0  0
   -1.9630    5.5479   -0.4555 H   0  0  0  0  0  0  0  0  0  0  0  0
   -4.8029    3.3031   -0.2754 H   0  0  0  0  0  0  0  0  0  0  0  0
  1  2  1  0
  2  3  1  0
  3  4  2  0
  4  5  1  0
  5  6  1  0
  6  7  1  0
  5  8  2  0
  8  9  1  0
  9 10  2  0
 10 11  1  0
 11 12  1  0
 12 13  1  0
 13 14  2  0
 13 15  1  0
 15 16  1  0
 16 17  1  0
 16 18  1  0
 16 19  1  0
 12 20  2  0
 20 21  1  0
 21 22  2  0
 21 23  1  0
 23 24  1  0
 24 25  1  0
 24 26  1  0
 24 27  1  0
  8 28  1  0
 28 29  1  0
 29 30  1  0
 28 31  2  0
 31  3  1  0
 20  9  1  0
  1 32  1  0
  1 33  1  0
  1 34  1  0
  4 35  1  0
  7 36  1  0
  7 37  1  0
  7 38  1  0
 17 39  1  0
 17 40  1  0
 17 41  1  0
 18 42  1  0
 18 43  1  0
 18 44  1  0
 19 45  1  0
 19 46  1  0
 19 47  1  0
 25 48  1  0
 25 49  1  0
 25 50  1  0
 26 51  1  0
 26 52  1  0
 26 53  1  0
 27 54  1  0
 27 55  1  0
 27 56  1  0
 30 57  1  0
 30 58  1  0
 30 59  1  0
 31 60  1  0
M  END
$$$$
