
     RDKit          3D

 62 63  0  0  0  0  0  0  0  0999 V2000
   -6.9501   -1.4105    1.3868 C   0  0  0  0  0  0  0  0  0  0  0  0
   -6.4619   -1.1469   -0.0544 C   0  0  0  0  0  0  0  0  0  0  0  0
   -6.3579   -2.4904   -0.8085 C   0  0  0  0  0  0  0  0  0  0  0  0
   -7.5544   -0.3117   -0.7611 C   0  0  0  0  0  0  0  0  0  0  0  0
   -5.0798   -0.4688   -0.0158 C   0  0  0  0  0  0  0  0  0  0  0  0
   -3.9900   -1.1241    0.5858 C   0  0  0  0  0  0  0  0  0  0  0  0
   -2.7179   -0.5435    0.6321 C   0  0  0  0  0  0  0  0  0  0  0  0
   -2.5002    0.7114    0.0674 C   0  0  0  0  0  0  0  0  0  0  0  0
   -1.2938    1.3723    0.0649 O   0  0  0  0  0  0  0  0  0  0  0  0
   -0.1104    0.5913    0.2433 C   0  0  0  0  0  0  0  0  0  0  0  0
    0.3776    0.6658    1.6919 C   0  0  0  0  0  0  0  0  0  0  0  0
    1.4573   -0.2380    1.9469 O   0  0  0  0  0  0  0  0  0  0  0  0
    2.6588    0.0407    1.3402 C   0  0  0  0  0  0  0  0  0  0  0  0
    3.1403    1.3291    1.1160 C   0  0  0  0  0  0  0  0  0  0  0  0
    4.3701    1.5205    0.4760 C   0  0  0  0  0  0  0  0  0  0  0  0
    5.1528    0.4337    0.0556 C   0  0  0  0  0  0  0  0  0  0  0  0
    6.5060    0.6078   -0.6586 C   0  0  0  0  0  0  0  0  0  0  0  0
    6.4532   -0.0676   -2.0461 C   0  0  0  0  0  0  0  0  0  0  0  0
    6.9051    2.0835   -0.8868 C   0  0  0  0  0  0  0  0  0  0  0  0
    7.6254   -0.0435    0.1818 C   0  0  0  0  0  0  0  0  0  0  0  0
    4.6589   -0.8624    0.3181 C   0  0  0  0  0  0  0  0  0  0  0  0
    3.4338   -1.0685    0.9608 C   0  0  0  0  0  0  0  0  0  0  0  0
    2.9136   -2.3476    1.2556 N   0  0  0  0  0  0  0  0  0  0  0  0
    3.4452   -3.5738    0.9427 C   0  0  0  0  0  0  0  0  0  0  0  0
    4.4591   -3.8367    0.3137 O   0  0  0  0  0  0  0  0  0  0  0  0
   -3.5765    1.4002   -0.5246 C   0  0  0  0  0  0  0  0  0  0  0  0
   -3.2991    2.6763   -1.0647 N   0  0  0  0  0  0  0  0  0  0  0  0
   -4.1572    3.5391   -1.6969 C   0  0  0  0  0  0  0  0  0  0  0  0
   -5.3481    3.4086   -1.9360 O   0  0  0  0  0  0  0  0  0  0  0  0
   -4.8455    0.8067   -0.5633 C   0  0  0  0  0  0  0  0  0  0  0  0
   -6.2865   -2.0921    1.9310 H   0  0  0  0  0  0  0  0  0  0  0  0
   -7.0077   -0.4784    1.9615 H   0  0  0  0  0  0  0  0  0  0  0  0
   -7.9477   -1.8650    1.3888 H   0  0  0  0  0  0  0  0  0  0  0  0
   -5.6824   -3.1960   -0.3108 H   0  0  0  0  0  0  0  0  0  0  0  0
   -5.9845   -2.3423   -1.8294 H   0  0  0  0  0  0  0  0  0  0  0  0
   -7.3364   -2.9801   -0.8787 H   0  0  0  0  0  0  0  0  0  0  0  0
   -7.7206    0.6462   -0.2549 H   0  0  0  0  0  0  0  0  0  0  0  0
   -7.2934   -0.1064   -1.8060 H   0  0  0  0  0  0  0  0  0  0  0  0
   -8.5143   -0.8412   -0.7680 H   0  0  0  0  0  0  0  0  0  0  0  0
   -4.1183   -2.1080    1.0343 H   0  0  0  0  0  0  0  0  0  0  0  0
   -1.9295   -1.1005    1.1268 H   0  0  0  0  0  0  0  0  0  0  0  0
    0.6470    1.0310   -0.4154 H   0  0  0  0  0  0  0  0  0  0  0  0
   -0.2157   -0.4425   -0.1080 H   0  0  0  0  0  0  0  0  0  0  0  0
   -0.4364    0.3656    2.3614 H   0  0  0  0  0  0  0  0  0  0  0  0
    0.6116    1.6927    1.9939 H   0  0  0  0  0  0  0  0  0  0  0  0
    2.5940    2.2091    1.4394 H   0  0  0  0  0  0  0  0  0  0  0  0
    4.6984    2.5457    0.3227 H   0  0  0  0  0  0  0  0  0  0  0  0
    6.2824   -1.1470   -1.9774 H   0  0  0  0  0  0  0  0  0  0  0  0
    5.6483    0.3548   -2.6599 H   0  0  0  0  0  0  0  0  0  0  0  0
    7.3952    0.0718   -2.5898 H   0  0  0  0  0  0  0  0  0  0  0  0
    7.0085    2.6253    0.0605 H   0  0  0  0  0  0  0  0  0  0  0  0
    7.8685    2.1552   -1.4059 H   0  0  0  0  0  0  0  0  0  0  0  0
    6.1668    2.6105   -1.5028 H   0  0  0  0  0  0  0  0  0  0  0  0
    7.6696    0.3937    1.1861 H   0  0  0  0  0  0  0  0  0  0  0  0
    7.4814   -1.1226    0.2997 H   0  0  0  0  0  0  0  0  0  0  0  0
    8.6061    0.0985   -0.2871 H   0  0  0  0  0  0  0  0  0  0  0  0
    5.2556   -1.7176    0.0151 H   0  0  0  0  0  0  0  0  0  0  0  0
    2.0381   -2.3340    1.7681 H   0  0  0  0  0  0  0  0  0  0  0  0
    2.8043   -4.3809    1.3375 H   0  0  0  0  0  0  0  0  0  0  0  0
   -2.3323    2.9677   -0.9635 H   0  0  0  0  0  0  0  0  0  0  0  0
   -3.6219    4.4550   -2.0026 H   0  0  0  0  0  0  0  0  0  0  0  0
   -5.6626    1.3465   -1.0295 H   0  0  0  0  0  0  0  0  0  0  0  0
  1  2  1  0
  2  3  1  0
  2  4  1  0
  2  5  1  0
  5  6  2  0
  6  7  1  0
  7  8  2  0
  8  9  1  0
  9 10  1  0
 10 11  1  0
 11 12  1  0
 12 13  1  0
 13 14  2  0
 14 15  1  0
 15 16  2  0
 16 17  1  0
 17 18  1  0
 17 19  1  0
 17 20  1  0
 16 21  1  0
 21 22  2  0
 22 23  1  0
 23 24  1  0
 24 25  2  0
  8 26  1  0
 26 27  1  0
 27 28  1  0
 28 29  2  0
 26 30  2  0
 30  5  1  0
 22 13  1  0
  1 31  1  0
  1 32  1  0
  1 33  1  0
  3 34  1  0
  3 35  1  0
  3 36  1  0
  4 37  1  0
  4 38  1  0
  4 39  1  0
  6 40  1  0
  7 41  1  0
 10 42  1  0
 10 43  1  0
 11 44  1  0
 11 45  1  0
 14 46  1  0
 15 47  1  0
 18 48  1  0
 18 49  1  0
 18 50  1  0
 19 51  1  0
 19 52  1  0
 19 53  1  0
 20 54  1  0
 20 55  1  0
 20 56  1  0
 21 57  1  0
 23 58  1  0
 24 59  1  0
 27 60  1  0
 28 61  1  0
 30 62  1  0
M  END
$$$$
