
     RDKit          3D

 46 48  0  0  0  0  0  0  0  0999 V2000
   -0.7268   -1.0697    1.6970 O   0  0  0  0  0  0  0  0  0  0  0  0
   -0.5738   -0.4034    0.6801 C   0  0  0  0  0  0  0  0  0  0  0  0
    0.8021   -0.0394    0.1478 C   0  0  0  0  0  0  0  0  0  0  0  0
    1.9119   -0.5137    1.0897 C   0  0  0  0  0  0  0  0  0  0  0  0
    3.2469   -0.1107    0.6009 N   0  0  0  0  0  0  0  0  0  0  0  0
    3.7247   -0.9636   -0.4927 C   0  0  0  0  0  0  0  0  0  0  0  0
    4.4663   -0.1207   -1.5336 C   0  0  0  0  0  0  0  0  0  0  0  0
    5.8568    0.3608   -1.1277 C   0  0  0  0  0  0  0  0  0  0  0  0
    5.9321    1.0915    0.2114 C   0  0  0  0  0  0  0  0  0  0  0  0
    5.6681    0.1596    1.3906 C   0  0  0  0  0  0  0  0  0  0  0  0
    4.1866   -0.0395    1.7289 C   0  0  0  0  0  0  0  0  0  0  0  0
   -1.5773    0.0993   -0.1348 N   0  0  0  0  0  0  0  0  0  0  0  0
   -2.9716   -0.0312    0.0334 C   0  0  0  0  0  0  0  0  0  0  0  0
   -3.5711   -0.7023    1.1027 C   0  0  0  0  0  0  0  0  0  0  0  0
   -4.9651   -0.7922    1.1948 C   0  0  0  0  0  0  0  0  0  0  0  0
   -5.7677   -0.2153    0.2161 C   0  0  0  0  0  0  0  0  0  0  0  0
   -5.1787    0.4808   -0.8407 C   0  0  0  0  0  0  0  0  0  0  0  0
   -3.7888    0.5603   -0.9395 C   0  0  0  0  0  0  0  0  0  0  0  0
   -5.9023    1.1051   -1.8257 O   0  0  0  0  0  0  0  0  0  0  0  0
   -7.2770    1.2509   -1.4489 C   0  0  0  0  0  0  0  0  0  0  0  0
   -7.8120   -0.0417   -0.8549 C   0  0  0  0  0  0  0  0  0  0  0  0
   -7.1229   -0.3628    0.3587 O   0  0  0  0  0  0  0  0  0  0  0  0
    0.9041   -0.4896   -0.8456 H   0  0  0  0  0  0  0  0  0  0  0  0
    0.8518    1.0511    0.0377 H   0  0  0  0  0  0  0  0  0  0  0  0
    1.7237   -0.0529    2.0693 H   0  0  0  0  0  0  0  0  0  0  0  0
    1.8645   -1.5999    1.2447 H   0  0  0  0  0  0  0  0  0  0  0  0
    4.3392   -1.7986   -0.1339 H   0  0  0  0  0  0  0  0  0  0  0  0
    2.8825   -1.4292   -1.0182 H   0  0  0  0  0  0  0  0  0  0  0  0
    3.8505    0.7461   -1.8085 H   0  0  0  0  0  0  0  0  0  0  0  0
    4.5700   -0.7155   -2.4502 H   0  0  0  0  0  0  0  0  0  0  0  0
    6.2294    1.0310   -1.9125 H   0  0  0  0  0  0  0  0  0  0  0  0
    6.5412   -0.4970   -1.1116 H   0  0  0  0  0  0  0  0  0  0  0  0
    5.2549    1.9534    0.2269 H   0  0  0  0  0  0  0  0  0  0  0  0
    6.9493    1.4900    0.3136 H   0  0  0  0  0  0  0  0  0  0  0  0
    6.1428   -0.8132    1.2111 H   0  0  0  0  0  0  0  0  0  0  0  0
    6.1587    0.5739    2.2808 H   0  0  0  0  0  0  0  0  0  0  0  0
    4.1078   -0.9410    2.3517 H   0  0  0  0  0  0  0  0  0  0  0  0
    3.8800    0.8034    2.3623 H   0  0  0  0  0  0  0  0  0  0  0  0
   -1.2778    0.6228   -0.9486 H   0  0  0  0  0  0  0  0  0  0  0  0
   -2.9834   -1.1723    1.8849 H   0  0  0  0  0  0  0  0  0  0  0  0
   -5.4180   -1.3233    2.0277 H   0  0  0  0  0  0  0  0  0  0  0  0
   -3.3590    1.0972   -1.7804 H   0  0  0  0  0  0  0  0  0  0  0  0
   -7.8408    1.5154   -2.3490 H   0  0  0  0  0  0  0  0  0  0  0  0
   -7.3570    2.0833   -0.7385 H   0  0  0  0  0  0  0  0  0  0  0  0
   -7.6998   -0.8815   -1.5521 H   0  0  0  0  0  0  0  0  0  0  0  0
   -8.8748    0.0633   -0.6152 H   0  0  0  0  0  0  0  0  0  0  0  0
  1  2  2  0
  2  3  1  0
  3  4  1  0
  4  5  1  0
  5  6  1  0
  6  7  1  0
  7  8  1  0
  8  9  1  0
  9 10  1  0
 10 11  1  0
  2 12  1  0
 12 13  1  0
 13 14  2  0
 14 15  1  0
 15 16  2  0
 16 17  1  0
 17 18  2  0
 17 19  1  0
 19 20  1  0
 20 21  1  0
 21 22  1  0
 11  5  1  0
 18 13  1  0
 22 16  1  0
  3 23  1  0
  3 24  1  0
  4 25  1  0
  4 26  1  0
  6 27  1  0
  6 28  1  0
  7 29  1  0
  7 30  1  0
  8 31  1  0
  8 32  1  0
  9 33  1  0
  9 34  1  0
 10 35  1  0
 10 36  1  0
 11 37  1  0
 11 38  1  0
 12 39  1  0
 14 40  1  0
 15 41  1  0
 18 42  1  0
 20 43  1  0
 20 44  1  0
 21 45  1  0
 21 46  1  0
M  END
$$$$
