
     RDKit          3D

 55 59  0  0  0  0  0  0  0  0999 V2000
   -1.4049   -0.5406   -0.9924 C   0  0  0  0  0  0  0  0  0  0  0  0
   -2.3963    0.0099   -0.0056 C   0  0  0  0  0  0  0  0  0  0  0  0
   -3.6714    0.4274   -0.3816 C   0  0  0  0  0  0  0  0  0  0  0  0
   -4.1636    0.4325   -1.7682 C   0  0  0  0  0  0  0  0  0  0  0  0
   -5.2766   -0.3457   -2.1320 C   0  0  0  0  0  0  0  0  0  0  0  0
   -5.7583   -0.3482   -3.4437 C   0  0  0  0  0  0  0  0  0  0  0  0
   -5.1373    0.4369   -4.4132 C   0  0  0  0  0  0  0  0  0  0  0  0
   -4.0436    1.2253   -4.0638 C   0  0  0  0  0  0  0  0  0  0  0  0
   -3.2806    2.2035   -5.2574 Cl  0  0  0  0  0  0  0  0  0  0  0  0
   -3.5596    1.2304   -2.7549 C   0  0  0  0  0  0  0  0  0  0  0  0
   -4.5857    0.8805    0.5133 N   0  0  0  0  0  0  0  0  0  0  0  0
   -4.2673    0.9719    1.8121 C   0  0  0  0  0  0  0  0  0  0  0  0
   -5.2296    1.4449    2.6945 C   0  0  0  0  0  0  0  0  0  0  0  0
   -4.9772    1.5808    4.0609 C   0  0  0  0  0  0  0  0  0  0  0  0
   -3.7324    1.2364    4.5658 C   0  0  0  0  0  0  0  0  0  0  0  0
   -2.7505    0.7598    3.6995 C   0  0  0  0  0  0  0  0  0  0  0  0
   -3.0036    0.6208    2.3096 C   0  0  0  0  0  0  0  0  0  0  0  0
   -2.0709    0.1517    1.3557 C   0  0  0  0  0  0  0  0  0  0  0  0
   -0.7116   -0.1890    1.8096 C   0  0  0  0  0  0  0  0  0  0  0  0
   -0.4060   -1.2056    2.4077 O   0  0  0  0  0  0  0  0  0  0  0  0
    0.1112    0.8387    1.4821 O   0  0  0  0  0  0  0  0  0  0  0  0
    1.4572    0.6541    1.9238 C   0  0  0  0  0  0  0  0  0  0  0  0
    2.2252   -0.3815    1.0943 C   0  0  0  0  0  0  0  0  0  0  0  0
    1.7567   -0.8166    0.0310 O   0  0  0  0  0  0  0  0  0  0  0  0
    3.5649   -0.8931    1.6145 C   0  0  0  0  0  0  0  0  0  0  0  0
    4.0463   -0.1163    2.7648 C   0  0  0  0  0  0  0  0  0  0  0  0
    4.3277    0.5045    3.7056 N   0  0  0  0  0  0  0  0  0  0  0  0
    4.5735   -0.8905    0.4999 C   0  0  0  0  0  0  0  0  0  0  0  0
    5.8049   -0.4159    0.5340 N   0  0  0  0  0  0  0  0  0  0  0  0
    6.3414   -0.6560   -0.7075 C   0  0  0  0  0  0  0  0  0  0  0  0
    7.6129   -0.3481   -1.2115 C   0  0  0  0  0  0  0  0  0  0  0  0
    7.9122   -0.6998   -2.5341 C   0  0  0  0  0  0  0  0  0  0  0  0
    6.9651   -1.3440   -3.3355 C   0  0  0  0  0  0  0  0  0  0  0  0
    5.6911   -1.6583   -2.8477 C   0  0  0  0  0  0  0  0  0  0  0  0
    5.4215   -1.2980   -1.5262 C   0  0  0  0  0  0  0  0  0  0  0  0
    4.3101   -1.4405   -0.7387 N   0  0  0  0  0  0  0  0  0  0  0  0
   -1.8944   -0.9769   -1.8686 H   0  0  0  0  0  0  0  0  0  0  0  0
   -0.8244   -1.3565   -0.5503 H   0  0  0  0  0  0  0  0  0  0  0  0
   -0.7245    0.2489   -1.3256 H   0  0  0  0  0  0  0  0  0  0  0  0
   -5.7782   -0.9531   -1.3794 H   0  0  0  0  0  0  0  0  0  0  0  0
   -6.6209   -0.9572   -3.7035 H   0  0  0  0  0  0  0  0  0  0  0  0
   -5.5148    0.4367   -5.4320 H   0  0  0  0  0  0  0  0  0  0  0  0
   -2.7156    1.8664   -2.4980 H   0  0  0  0  0  0  0  0  0  0  0  0
   -6.2078    1.7196    2.3051 H   0  0  0  0  0  0  0  0  0  0  0  0
   -5.7544    1.9551    4.7223 H   0  0  0  0  0  0  0  0  0  0  0  0
   -3.5248    1.3351    5.6286 H   0  0  0  0  0  0  0  0  0  0  0  0
   -1.7848    0.4880    4.1220 H   0  0  0  0  0  0  0  0  0  0  0  0
    1.4530    0.3758    2.9835 H   0  0  0  0  0  0  0  0  0  0  0  0
    1.9659    1.6177    1.8178 H   0  0  0  0  0  0  0  0  0  0  0  0
    3.3988   -1.9278    1.9396 H   0  0  0  0  0  0  0  0  0  0  0  0
    8.3411    0.1559   -0.5853 H   0  0  0  0  0  0  0  0  0  0  0  0
    8.8937   -0.4654   -2.9401 H   0  0  0  0  0  0  0  0  0  0  0  0
    7.2230   -1.6050   -4.3599 H   0  0  0  0  0  0  0  0  0  0  0  0
    4.9567   -2.1574   -3.4706 H   0  0  0  0  0  0  0  0  0  0  0  0
    3.4178   -1.8222   -1.0306 H   0  0  0  0  0  0  0  0  0  0  0  0
  1  2  1  0
  2  3  2  0
  3  4  1  0
  4  5  2  0
  5  6  1  0
  6  7  2  0
  7  8  1  0
  8  9  1  0
  8 10  2  0
  3 11  1  0
 11 12  2  0
 12 13  1  0
 13 14  2  0
 14 15  1  0
 15 16  2  0
 16 17  1  0
 17 18  2  0
 18 19  1  0
 19 20  2  0
 19 21  1  0
 21 22  1  0
 22 23  1  0
 23 24  2  0
 23 25  1  0
 25 26  1  0
 26 27  3  0
 25 28  1  0
 28 29  2  0
 29 30  1  0
 30 31  2  0
 31 32  1  0
 32 33  2  0
 33 34  1  0
 34 35  2  0
 35 36  1  0
 18  2  1  0
 36 28  1  0
 10  4  1  0
 17 12  1  0
 35 30  1  0
  1 37  1  0
  1 38  1  0
  1 39  1  0
  5 40  1  0
  6 41  1  0
  7 42  1  0
 10 43  1  0
 13 44  1  0
 14 45  1  0
 15 46  1  0
 16 47  1  0
 22 48  1  0
 22 49  1  0
 25 50  1  0
 31 51  1  0
 32 52  1  0
 33 53  1  0
 34 54  1  0
 36 55  1  0
M  END
$$$$
