
     RDKit          3D

 69 71  0  0  0  0  0  0  0  0999 V2000
   -8.2110   -0.2103   -0.2138 C   0  0  0  0  0  0  0  0  0  0  0  0
   -7.4834   -1.0172    0.8522 C   0  0  0  0  0  0  0  0  0  0  0  0
   -6.6777   -0.1467    1.8241 C   0  0  0  0  0  0  0  0  0  0  0  0
   -5.5740    0.5711    1.1797 N   0  0  0  0  0  0  0  0  0  0  0  0
   -5.7322    2.0180    0.9882 C   0  0  0  0  0  0  0  0  0  0  0  0
   -5.6069    2.8266    2.2852 C   0  0  0  0  0  0  0  0  0  0  0  0
   -4.2201    2.7781    2.9051 C   0  0  0  0  0  0  0  0  0  0  0  0
   -4.4276   -0.1619    0.8583 C   0  0  0  0  0  0  0  0  0  0  0  0
   -4.3386   -1.3622    1.1340 O   0  0  0  0  0  0  0  0  0  0  0  0
   -3.3137    0.5617    0.0862 C   0  0  0  0  0  0  0  0  0  0  0  0
   -2.1303   -0.2880   -0.0598 N   0  0  0  0  0  0  0  0  0  0  0  0
   -1.1744   -0.2281    0.9606 C   0  0  0  0  0  0  0  0  0  0  0  0
   -1.2906    0.5759    1.8912 O   0  0  0  0  0  0  0  0  0  0  0  0
   -0.0780   -1.0992    0.8767 N   0  0  0  0  0  0  0  0  0  0  0  0
    0.9233   -1.0133    1.9377 C   0  0  0  0  0  0  0  0  0  0  0  0
    1.9332    0.1218    1.7145 C   0  0  0  0  0  0  0  0  0  0  0  0
    2.9248   -0.1051    0.5694 C   0  0  0  0  0  0  0  0  0  0  0  0
    3.9488   -1.2019    0.8837 C   0  0  0  0  0  0  0  0  0  0  0  0
    4.9185   -1.4538   -0.2700 C   0  0  0  0  0  0  0  0  0  0  0  0
    5.9817   -0.3752   -0.4317 C   0  0  0  0  0  0  0  0  0  0  0  0
    6.0407    0.6052    0.3023 O   0  0  0  0  0  0  0  0  0  0  0  0
    6.8366   -0.6724   -1.4824 N   0  0  0  0  0  0  0  0  0  0  0  0
    7.9321    0.0875   -1.9425 C   0  0  0  0  0  0  0  0  0  0  0  0
    8.6947   -0.4548   -2.9863 C   0  0  0  0  0  0  0  0  0  0  0  0
    9.8042    0.2302   -3.4893 C   0  0  0  0  0  0  0  0  0  0  0  0
   10.1588    1.4668   -2.9553 C   0  0  0  0  0  0  0  0  0  0  0  0
    9.3956    2.0213   -1.9295 C   0  0  0  0  0  0  0  0  0  0  0  0
    8.2844    1.3369   -1.4274 C   0  0  0  0  0  0  0  0  0  0  0  0
    0.1269   -2.0400   -0.1401 C   0  0  0  0  0  0  0  0  0  0  0  0
    1.1152   -2.7738   -0.1813 O   0  0  0  0  0  0  0  0  0  0  0  0
   -0.9181   -2.0523   -1.1261 C   0  0  0  0  0  0  0  0  0  0  0  0
   -0.9300   -3.1096   -2.4547 S   0  0  0  0  0  0  0  0  0  0  0  0
   -2.4275   -2.4811   -2.9983 C   0  0  0  0  0  0  0  0  0  0  0  0
   -2.8929   -1.4739   -2.1766 C   0  0  0  0  0  0  0  0  0  0  0  0
   -2.0057   -1.2211   -1.0889 C   0  0  0  0  0  0  0  0  0  0  0  0
   -8.8431   -0.8707   -0.8186 H   0  0  0  0  0  0  0  0  0  0  0  0
   -8.8494    0.5560    0.2384 H   0  0  0  0  0  0  0  0  0  0  0  0
   -7.5052    0.2820   -0.8897 H   0  0  0  0  0  0  0  0  0  0  0  0
   -8.2236   -1.5854    1.4282 H   0  0  0  0  0  0  0  0  0  0  0  0
   -6.8333   -1.7497    0.3596 H   0  0  0  0  0  0  0  0  0  0  0  0
   -6.2564   -0.7893    2.6079 H   0  0  0  0  0  0  0  0  0  0  0  0
   -7.3415    0.5690    2.3220 H   0  0  0  0  0  0  0  0  0  0  0  0
   -6.7263    2.1855    0.5578 H   0  0  0  0  0  0  0  0  0  0  0  0
   -5.0152    2.3910    0.2536 H   0  0  0  0  0  0  0  0  0  0  0  0
   -5.8541    3.8725    2.0660 H   0  0  0  0  0  0  0  0  0  0  0  0
   -6.3366    2.4810    3.0262 H   0  0  0  0  0  0  0  0  0  0  0  0
   -3.4682    3.1760    2.2165 H   0  0  0  0  0  0  0  0  0  0  0  0
   -3.9408    1.7566    3.1792 H   0  0  0  0  0  0  0  0  0  0  0  0
   -4.1947    3.3862    3.8159 H   0  0  0  0  0  0  0  0  0  0  0  0
   -3.6845    0.8481   -0.9027 H   0  0  0  0  0  0  0  0  0  0  0  0
   -3.0327    1.4736    0.6170 H   0  0  0  0  0  0  0  0  0  0  0  0
    0.4015   -0.8301    2.8849 H   0  0  0  0  0  0  0  0  0  0  0  0
    1.4341   -1.9742    2.0581 H   0  0  0  0  0  0  0  0  0  0  0  0
    2.4951    0.2768    2.6414 H   0  0  0  0  0  0  0  0  0  0  0  0
    1.3933    1.0537    1.5169 H   0  0  0  0  0  0  0  0  0  0  0  0
    2.3907   -0.3343   -0.3580 H   0  0  0  0  0  0  0  0  0  0  0  0
    3.4517    0.8397    0.3913 H   0  0  0  0  0  0  0  0  0  0  0  0
    3.4294   -2.1419    1.0919 H   0  0  0  0  0  0  0  0  0  0  0  0
    4.5041   -0.9383    1.7912 H   0  0  0  0  0  0  0  0  0  0  0  0
    4.3677   -1.5562   -1.2127 H   0  0  0  0  0  0  0  0  0  0  0  0
    5.4412   -2.4014   -0.0820 H   0  0  0  0  0  0  0  0  0  0  0  0
    6.6831   -1.5536   -1.9559 H   0  0  0  0  0  0  0  0  0  0  0  0
    8.4491   -1.4235   -3.4145 H   0  0  0  0  0  0  0  0  0  0  0  0
   10.3927   -0.2054   -4.2933 H   0  0  0  0  0  0  0  0  0  0  0  0
   11.0254    2.0002   -3.3367 H   0  0  0  0  0  0  0  0  0  0  0  0
    9.6617    2.9876   -1.5105 H   0  0  0  0  0  0  0  0  0  0  0  0
    7.7210    1.8053   -0.6275 H   0  0  0  0  0  0  0  0  0  0  0  0
   -2.8932   -2.8819   -3.8887 H   0  0  0  0  0  0  0  0  0  0  0  0
   -3.8297   -0.9638   -2.3608 H   0  0  0  0  0  0  0  0  0  0  0  0
  1  2  1  0
  2  3  1  0
  3  4  1  0
  4  5  1  0
  5  6  1  0
  6  7  1  0
  4  8  1  0
  8  9  2  0
  8 10  1  0
 10 11  1  0
 11 12  1  0
 12 13  2  0
 12 14  1  0
 14 15  1  0
 15 16  1  0
 16 17  1  0
 17 18  1  0
 18 19  1  0
 19 20  1  0
 20 21  2  0
 20 22  1  0
 22 23  1  0
 23 24  2  0
 24 25  1  0
 25 26  2  0
 26 27  1  0
 27 28  2  0
 14 29  1  0
 29 30  2  0
 29 31  1  0
 31 32  1  0
 32 33  1  0
 33 34  2  0
 34 35  1  0
 35 11  1  0
 28 23  1  0
 35 31  2  0
  1 36  1  0
  1 37  1  0
  1 38  1  0
  2 39  1  0
  2 40  1  0
  3 41  1  0
  3 42  1  0
  5 43  1  0
  5 44  1  0
  6 45  1  0
  6 46  1  0
  7 47  1  0
  7 48  1  0
  7 49  1  0
 10 50  1  0
 10 51  1  0
 15 52  1  0
 15 53  1  0
 16 54  1  0
 16 55  1  0
 17 56  1  0
 17 57  1  0
 18 58  1  0
 18 59  1  0
 19 60  1  0
 19 61  1  0
 22 62  1  0
 24 63  1  0
 25 64  1  0
 26 65  1  0
 27 66  1  0
 28 67  1  0
 33 68  1  0
 34 69  1  0
M  END
$$$$
