
     RDKit          3D

 35 38  0  0  0  0  0  0  0  0999 V2000
   -1.5631   -2.5890   -1.4264 O   0  0  0  0  0  0  0  0  0  0  0  0
   -2.3816   -1.7804   -1.0367 C   0  0  0  0  0  0  0  0  0  0  0  0
   -3.7449   -1.8312   -1.2918 N   0  0  0  0  0  0  0  0  0  0  0  0
   -4.4110   -0.7466   -0.7349 C   0  0  0  0  0  0  0  0  0  0  0  0
   -5.7639   -0.4822   -0.8065 C   0  0  0  0  0  0  0  0  0  0  0  0
   -6.2254    0.6732   -0.1729 C   0  0  0  0  0  0  0  0  0  0  0  0
   -5.3350    1.5241    0.5071 C   0  0  0  0  0  0  0  0  0  0  0  0
   -3.9664    1.2346    0.5654 C   0  0  0  0  0  0  0  0  0  0  0  0
   -3.5128    0.0880   -0.0650 C   0  0  0  0  0  0  0  0  0  0  0  0
   -2.1839   -0.5301   -0.2140 C   0  0  0  0  0  0  0  0  0  0  0  0
   -1.0553   -0.0079    0.2896 C   0  0  0  0  0  0  0  0  0  0  0  0
    0.2821   -0.4785    0.2451 C   0  0  0  0  0  0  0  0  0  0  0  0
    0.7794   -1.7502    0.1519 C   0  0  0  0  0  0  0  0  0  0  0  0
    2.1387   -1.5992    0.1798 N   0  0  0  0  0  0  0  0  0  0  0  0
    2.4295   -0.2615    0.3328 C   0  0  0  0  0  0  0  0  0  0  0  0
    3.7851    0.2959    0.4252 C   0  0  0  0  0  0  0  0  0  0  0  0
    4.9404   -0.4891    0.2905 C   0  0  0  0  0  0  0  0  0  0  0  0
    6.2120    0.0872    0.3873 C   0  0  0  0  0  0  0  0  0  0  0  0
    6.3465    1.4540    0.6188 C   0  0  0  0  0  0  0  0  0  0  0  0
    5.2113    2.2479    0.7525 C   0  0  0  0  0  0  0  0  0  0  0  0
    3.9421    1.6718    0.6556 C   0  0  0  0  0  0  0  0  0  0  0  0
    1.3010    0.4278    0.3928 N   0  0  0  0  0  0  0  0  0  0  0  0
   -4.1656   -2.5675   -1.8365 H   0  0  0  0  0  0  0  0  0  0  0  0
   -6.4469   -1.1396   -1.3318 H   0  0  0  0  0  0  0  0  0  0  0  0
   -7.2844    0.9205   -0.2044 H   0  0  0  0  0  0  0  0  0  0  0  0
   -5.7161    2.4198    0.9936 H   0  0  0  0  0  0  0  0  0  0  0  0
   -3.2919    1.9005    1.0931 H   0  0  0  0  0  0  0  0  0  0  0  0
   -1.1373    0.9461    0.8052 H   0  0  0  0  0  0  0  0  0  0  0  0
    0.3203   -2.7240    0.0664 H   0  0  0  0  0  0  0  0  0  0  0  0
    2.8124   -2.3466    0.1157 H   0  0  0  0  0  0  0  0  0  0  0  0
    4.8814   -1.5565    0.1040 H   0  0  0  0  0  0  0  0  0  0  0  0
    7.0985   -0.5328    0.2797 H   0  0  0  0  0  0  0  0  0  0  0  0
    7.3346    1.9006    0.6929 H   0  0  0  0  0  0  0  0  0  0  0  0
    5.3079    3.3156    0.9311 H   0  0  0  0  0  0  0  0  0  0  0  0
    3.0625    2.3055    0.7607 H   0  0  0  0  0  0  0  0  0  0  0  0
  1  2  2  0
  2  3  1  0
  3  4  1  0
  4  5  2  0
  5  6  1  0
  6  7  2  0
  7  8  1  0
  8  9  2  0
  9 10  1  0
 10 11  2  3
 11 12  1  0
 12 13  2  0
 13 14  1  0
 14 15  1  0
 15 16  1  0
 16 17  2  0
 17 18  1  0
 18 19  2  0
 19 20  1  0
 20 21  2  0
 15 22  2  0
 10  2  1  0
 22 12  1  0
  9  4  1  0
 21 16  1  0
  3 23  1  0
  5 24  1  0
  6 25  1  0
  7 26  1  0
  8 27  1  0
 11 28  1  0
 13 29  1  0
 14 30  1  0
 17 31  1  0
 18 32  1  0
 19 33  1  0
 20 34  1  0
 21 35  1  0
M  END
$$$$
