
     RDKit          3D

 43 45  0  0  0  0  0  0  0  0999 V2000
    5.6083    1.4763    1.9455 C   0  0  0  0  0  0  0  0  0  0  0  0
    5.8699    0.2063    1.3605 O   0  0  0  0  0  0  0  0  0  0  0  0
    4.8615   -0.3476    0.6166 C   0  0  0  0  0  0  0  0  0  0  0  0
    5.1607   -1.5986    0.0768 C   0  0  0  0  0  0  0  0  0  0  0  0
    4.2383   -2.2993   -0.7066 C   0  0  0  0  0  0  0  0  0  0  0  0
    2.9968   -1.6976   -0.9334 C   0  0  0  0  0  0  0  0  0  0  0  0
    1.9149   -2.1492   -1.6491 N   0  0  0  0  0  0  0  0  0  0  0  0
    0.9041   -1.2277   -1.6099 C   0  0  0  0  0  0  0  0  0  0  0  0
    1.3175   -0.1480   -0.8478 C   0  0  0  0  0  0  0  0  0  0  0  0
    0.5329    1.0574   -0.5481 C   0  0  0  0  0  0  0  0  0  0  0  0
    0.9799    1.9455    0.1842 O   0  0  0  0  0  0  0  0  0  0  0  0
   -0.8581    1.2240   -1.1708 C   0  0  0  0  0  0  0  0  0  0  0  0
   -1.8607    0.3127   -0.5690 N   0  0  0  0  0  0  0  0  0  0  0  0
   -3.1170    0.3871   -1.3295 C   0  0  0  0  0  0  0  0  0  0  0  0
   -4.1629   -0.5817   -0.7733 C   0  0  0  0  0  0  0  0  0  0  0  0
   -4.4317   -0.3663    0.7203 C   0  0  0  0  0  0  0  0  0  0  0  0
   -5.2692    0.8900    0.9718 C   0  0  0  0  0  0  0  0  0  0  0  0
   -3.1014   -0.3245    1.4808 C   0  0  0  0  0  0  0  0  0  0  0  0
   -2.0870    0.6346    0.8508 C   0  0  0  0  0  0  0  0  0  0  0  0
    2.6552   -0.4481   -0.4148 C   0  0  0  0  0  0  0  0  0  0  0  0
    3.6114    0.2339    0.3750 C   0  0  0  0  0  0  0  0  0  0  0  0
    6.4993    1.7750    2.5063 H   0  0  0  0  0  0  0  0  0  0  0  0
    5.4295    2.2358    1.1771 H   0  0  0  0  0  0  0  0  0  0  0  0
    4.7737    1.4219    2.6523 H   0  0  0  0  0  0  0  0  0  0  0  0
    6.1354   -2.0413    0.2712 H   0  0  0  0  0  0  0  0  0  0  0  0
    4.4859   -3.2725   -1.1171 H   0  0  0  0  0  0  0  0  0  0  0  0
    1.8763   -3.0385   -2.1283 H   0  0  0  0  0  0  0  0  0  0  0  0
   -0.0322   -1.4286   -2.1144 H   0  0  0  0  0  0  0  0  0  0  0  0
   -1.1640    2.2726   -1.0610 H   0  0  0  0  0  0  0  0  0  0  0  0
   -0.7585    1.0368   -2.2474 H   0  0  0  0  0  0  0  0  0  0  0  0
   -2.9291    0.1119   -2.3748 H   0  0  0  0  0  0  0  0  0  0  0  0
   -3.5139    1.4101   -1.3346 H   0  0  0  0  0  0  0  0  0  0  0  0
   -3.8071   -1.6099   -0.9235 H   0  0  0  0  0  0  0  0  0  0  0  0
   -5.0934   -0.4889   -1.3458 H   0  0  0  0  0  0  0  0  0  0  0  0
   -5.0140   -1.2194    1.0918 H   0  0  0  0  0  0  0  0  0  0  0  0
   -4.7680    1.8016    0.6337 H   0  0  0  0  0  0  0  0  0  0  0  0
   -6.2290    0.8226    0.4486 H   0  0  0  0  0  0  0  0  0  0  0  0
   -5.4814    1.0022    2.0404 H   0  0  0  0  0  0  0  0  0  0  0  0
   -3.2698   -0.0468    2.5281 H   0  0  0  0  0  0  0  0  0  0  0  0
   -2.6704   -1.3346    1.4931 H   0  0  0  0  0  0  0  0  0  0  0  0
   -2.4244    1.6719    0.9689 H   0  0  0  0  0  0  0  0  0  0  0  0
   -1.1530    0.5349    1.4157 H   0  0  0  0  0  0  0  0  0  0  0  0
    3.3446    1.2038    0.7788 H   0  0  0  0  0  0  0  0  0  0  0  0
  1  2  1  0
  2  3  1  0
  3  4  2  0
  4  5  1  0
  5  6  2  0
  6  7  1  0
  7  8  1  0
  8  9  2  0
  9 10  1  0
 10 11  2  0
 10 12  1  0
 12 13  1  0
 13 14  1  0
 14 15  1  0
 15 16  1  0
 16 17  1  0
 16 18  1  0
 18 19  1  0
  9 20  1  0
 20 21  2  0
 21  3  1  0
 20  6  1  0
 19 13  1  0
  1 22  1  0
  1 23  1  0
  1 24  1  0
  4 25  1  0
  5 26  1  0
  7 27  1  0
  8 28  1  0
 12 29  1  0
 12 30  1  0
 14 31  1  0
 14 32  1  0
 15 33  1  0
 15 34  1  0
 16 35  1  0
 17 36  1  0
 17 37  1  0
 17 38  1  0
 18 39  1  0
 18 40  1  0
 19 41  1  0
 19 42  1  0
 21 43  1  0
M  END
$$$$
