
     RDKit          3D

 60 64  0  0  0  0  0  0  0  0999 V2000
   -2.9820   -2.3855    0.1422 O   0  0  0  0  0  0  0  0  0  0  0  0
   -2.9017   -1.1714    0.3338 C   0  0  0  0  0  0  0  0  0  0  0  0
   -1.5568   -0.4742    0.3917 C   0  0  0  0  0  0  0  0  0  0  0  0
   -0.4124   -1.4833    0.3244 C   0  0  0  0  0  0  0  0  0  0  0  0
    0.8967   -0.8307    0.4004 N   0  0  0  0  0  0  0  0  0  0  0  0
    1.4184   -0.6001    1.6635 C   0  0  0  0  0  0  0  0  0  0  0  0
    0.8179   -0.8480    2.7073 O   0  0  0  0  0  0  0  0  0  0  0  0
    2.7602   -0.0048    1.7265 C   0  0  0  0  0  0  0  0  0  0  0  0
    3.3741    0.1651    2.9790 C   0  0  0  0  0  0  0  0  0  0  0  0
    4.6432    0.7268    3.0641 C   0  0  0  0  0  0  0  0  0  0  0  0
    5.2920    1.1215    1.9007 C   0  0  0  0  0  0  0  0  0  0  0  0
    4.6734    0.9525    0.6555 C   0  0  0  0  0  0  0  0  0  0  0  0
    3.3968    0.3787    0.5462 C   0  0  0  0  0  0  0  0  0  0  0  0
    2.7316    0.1956   -0.7007 N   0  0  0  0  0  0  0  0  0  0  0  0
    3.3760    0.5718   -1.9646 C   0  0  0  0  0  0  0  0  0  0  0  0
    4.3379   -0.4833   -2.4820 C   0  0  0  0  0  0  0  0  0  0  0  0
    3.8741   -1.7624   -2.8385 C   0  0  0  0  0  0  0  0  0  0  0  0
    4.7513   -2.7431   -3.3105 C   0  0  0  0  0  0  0  0  0  0  0  0
    6.1111   -2.4629   -3.4409 C   0  0  0  0  0  0  0  0  0  0  0  0
    6.5827   -1.1877   -3.1043 C   0  0  0  0  0  0  0  0  0  0  0  0
    8.0140   -0.8827   -3.2355 N   0  0  0  0  0  4  0  0  0  0  0  0
    8.7359   -1.7215   -3.7930 O   0  0  0  0  0  0  0  0  0  0  0  0
    8.4163    0.1973   -2.7767 O   0  0  0  0  0  1  0  0  0  0  0  0
    5.7048   -0.1969   -2.6362 C   0  0  0  0  0  0  0  0  0  0  0  0
    1.4645   -0.3784   -0.7818 C   0  0  0  0  0  0  0  0  0  0  0  0
    0.8671   -0.4797   -1.8567 O   0  0  0  0  0  0  0  0  0  0  0  0
   -4.0313   -0.3815    0.5166 N   0  0  0  0  0  0  0  0  0  0  0  0
   -4.0470    1.0766    0.4109 C   0  0  0  0  0  0  0  0  0  0  0  0
   -4.9810    1.6959    1.4480 C   0  0  0  0  0  0  0  0  0  0  0  0
   -6.3418    1.0521    1.4278 C   0  0  0  0  0  0  0  0  0  0  0  0
   -7.4490    1.7364    1.9486 C   0  0  0  0  0  0  0  0  0  0  0  0
   -8.7051    1.1330    1.9686 C   0  0  0  0  0  0  0  0  0  0  0  0
   -8.8642   -0.1595    1.4758 C   0  0  0  0  0  0  0  0  0  0  0  0
   -7.7668   -0.8516    0.9648 C   0  0  0  0  0  0  0  0  0  0  0  0
   -6.4941   -0.2595    0.9442 C   0  0  0  0  0  0  0  0  0  0  0  0
   -5.3272   -1.0439    0.3868 C   0  0  0  0  0  0  0  0  0  0  0  0
   -1.4917    0.0942    1.3260 H   0  0  0  0  0  0  0  0  0  0  0  0
   -1.4837    0.2222   -0.4508 H   0  0  0  0  0  0  0  0  0  0  0  0
   -0.4996   -2.2064    1.1452 H   0  0  0  0  0  0  0  0  0  0  0  0
   -0.4709   -2.0627   -0.6053 H   0  0  0  0  0  0  0  0  0  0  0  0
    2.8624   -0.1442    3.8889 H   0  0  0  0  0  0  0  0  0  0  0  0
    5.1216    0.8565    4.0319 H   0  0  0  0  0  0  0  0  0  0  0  0
    6.2840    1.5651    1.9575 H   0  0  0  0  0  0  0  0  0  0  0  0
    5.2305    1.2916   -0.2092 H   0  0  0  0  0  0  0  0  0  0  0  0
    3.8666    1.5455   -1.8498 H   0  0  0  0  0  0  0  0  0  0  0  0
    2.6217    0.7404   -2.7436 H   0  0  0  0  0  0  0  0  0  0  0  0
    2.8141   -2.0066   -2.7571 H   0  0  0  0  0  0  0  0  0  0  0  0
    4.3689   -3.7275   -3.5755 H   0  0  0  0  0  0  0  0  0  0  0  0
    6.7815   -3.2393   -3.8042 H   0  0  0  0  0  0  0  0  0  0  0  0
    6.0822    0.7958   -2.3929 H   0  0  0  0  0  0  0  0  0  0  0  0
   -3.0492    1.5037    0.5323 H   0  0  0  0  0  0  0  0  0  0  0  0
   -4.3776    1.3204   -0.6070 H   0  0  0  0  0  0  0  0  0  0  0  0
   -5.0664    2.7714    1.2539 H   0  0  0  0  0  0  0  0  0  0  0  0
   -4.5570    1.5654    2.4513 H   0  0  0  0  0  0  0  0  0  0  0  0
   -7.3366    2.7432    2.3448 H   0  0  0  0  0  0  0  0  0  0  0  0
   -9.5598    1.6708    2.3716 H   0  0  0  0  0  0  0  0  0  0  0  0
   -9.8431   -0.6311    1.4943 H   0  0  0  0  0  0  0  0  0  0  0  0
   -7.9051   -1.8634    0.5888 H   0  0  0  0  0  0  0  0  0  0  0  0
   -5.2786   -2.0187    0.8866 H   0  0  0  0  0  0  0  0  0  0  0  0
   -5.4939   -1.2151   -0.6837 H   0  0  0  0  0  0  0  0  0  0  0  0
  1  2  2  0
  2  3  1  0
  3  4  1  0
  4  5  1  0
  5  6  1  0
  6  7  2  0
  6  8  1  0
  8  9  2  0
  9 10  1  0
 10 11  2  0
 11 12  1  0
 12 13  2  0
 13 14  1  0
 14 15  1  0
 15 16  1  0
 16 17  2  0
 17 18  1  0
 18 19  2  0
 19 20  1  0
 20 21  1  0
 21 22  2  0
 21 23  1  0
 20 24  2  0
 14 25  1  0
 25 26  2  0
  2 27  1  0
 27 28  1  0
 28 29  1  0
 29 30  1  0
 30 31  2  0
 31 32  1  0
 32 33  2  0
 33 34  1  0
 34 35  2  0
 35 36  1  0
 25  5  1  0
 36 27  1  0
 13  8  1  0
 24 16  1  0
 35 30  1  0
  3 37  1  0
  3 38  1  0
  4 39  1  0
  4 40  1  0
  9 41  1  0
 10 42  1  0
 11 43  1  0
 12 44  1  0
 15 45  1  0
 15 46  1  0
 17 47  1  0
 18 48  1  0
 19 49  1  0
 24 50  1  0
 28 51  1  0
 28 52  1  0
 29 53  1  0
 29 54  1  0
 31 55  1  0
 32 56  1  0
 33 57  1  0
 34 58  1  0
 36 59  1  0
 36 60  1  0
M  CHG  2  21   1  23  -1
M  END
$$$$
