
     RDKit          3D

 48 50  0  0  0  0  0  0  0  0999 V2000
    4.8247   -0.4456    3.3125 C   0  0  0  0  0  0  0  0  0  0  0  0
    4.1974   -0.0142    2.0117 C   0  0  0  0  0  0  0  0  0  0  0  0
    4.9290    0.8129    1.1509 C   0  0  0  0  0  0  0  0  0  0  0  0
    4.4038    1.2446   -0.0677 C   0  0  0  0  0  0  0  0  0  0  0  0
    3.1121    0.8286   -0.4116 C   0  0  0  0  0  0  0  0  0  0  0  0
    2.2121    1.1837   -1.8332 S   0  0  0  0  0  0  0  0  0  0  0  0
    0.8835    0.2943   -1.2263 C   0  0  0  0  0  0  0  0  0  0  0  0
   -0.2689    0.1101   -1.9875 N   0  0  0  0  0  0  0  0  0  0  0  0
   -1.0952   -1.0764   -1.7524 C   0  0  0  0  0  0  0  0  0  0  0  0
   -2.2069   -0.7912   -0.7393 C   0  0  0  0  0  0  0  0  0  0  0  0
   -3.0410   -2.0503   -0.4796 C   0  0  0  0  0  0  0  0  0  0  0  0
   -4.1935   -1.7999    0.4029 N   0  0  0  0  0  0  0  0  0  0  0  0
   -5.0943   -2.9566    0.3894 C   0  0  0  0  0  0  0  0  0  0  0  0
   -3.7826   -1.5151    1.7798 C   0  0  0  0  0  0  0  0  0  0  0  0
   -0.6815    0.9910   -2.9994 C   0  0  0  0  0  0  0  0  0  0  0  0
   -1.2716    0.5599   -3.9932 O   0  0  0  0  0  0  0  0  0  0  0  0
   -0.5382    2.4281   -2.7675 C   0  0  0  0  0  0  0  0  0  0  0  0
   -0.6361    3.1461   -1.5852 C   0  0  0  0  0  0  0  0  0  0  0  0
   -0.4474    4.5475   -1.7817 C   0  0  0  0  0  0  0  0  0  0  0  0
   -0.2396    4.8367   -3.1056 C   0  0  0  0  0  0  0  0  0  0  0  0
    0.0491    6.6075   -3.7636 Br  0  0  0  0  0  0  0  0  0  0  0  0
   -0.2754    3.4722   -4.1061 S   0  0  0  0  0  0  0  0  0  0  0  0
    1.0932   -0.3107   -0.0806 N   0  0  0  0  0  0  0  0  0  0  0  0
    2.3501    0.0072    0.4182 C   0  0  0  0  0  0  0  0  0  0  0  0
    2.8881   -0.4336    1.6572 C   0  0  0  0  0  0  0  0  0  0  0  0
    2.0962   -1.3238    2.5788 C   0  0  0  0  0  0  0  0  0  0  0  0
    4.9027   -1.5364    3.3543 H   0  0  0  0  0  0  0  0  0  0  0  0
    5.8356   -0.0398    3.4260 H   0  0  0  0  0  0  0  0  0  0  0  0
    4.2303   -0.0863    4.1585 H   0  0  0  0  0  0  0  0  0  0  0  0
    5.9339    1.1332    1.4236 H   0  0  0  0  0  0  0  0  0  0  0  0
    4.9830    1.8832   -0.7277 H   0  0  0  0  0  0  0  0  0  0  0  0
   -0.4562   -1.8985   -1.4066 H   0  0  0  0  0  0  0  0  0  0  0  0
   -1.5401   -1.4074   -2.6980 H   0  0  0  0  0  0  0  0  0  0  0  0
   -2.8511    0.0131   -1.1168 H   0  0  0  0  0  0  0  0  0  0  0  0
   -1.7573   -0.4271    0.1911 H   0  0  0  0  0  0  0  0  0  0  0  0
   -3.4100   -2.4047   -1.4511 H   0  0  0  0  0  0  0  0  0  0  0  0
   -2.4046   -2.8468   -0.0723 H   0  0  0  0  0  0  0  0  0  0  0  0
   -5.4626   -3.1470   -0.6250 H   0  0  0  0  0  0  0  0  0  0  0  0
   -4.6043   -3.8659    0.7562 H   0  0  0  0  0  0  0  0  0  0  0  0
   -5.9778   -2.7654    1.0089 H   0  0  0  0  0  0  0  0  0  0  0  0
   -3.1788   -2.3241    2.2066 H   0  0  0  0  0  0  0  0  0  0  0  0
   -4.6603   -1.3694    2.4202 H   0  0  0  0  0  0  0  0  0  0  0  0
   -3.2109   -0.5841    1.8401 H   0  0  0  0  0  0  0  0  0  0  0  0
   -0.8361    2.6913   -0.6213 H   0  0  0  0  0  0  0  0  0  0  0  0
   -0.4743    5.2888   -0.9925 H   0  0  0  0  0  0  0  0  0  0  0  0
    1.1089   -1.5564    2.1676 H   0  0  0  0  0  0  0  0  0  0  0  0
    2.6201   -2.2722    2.7336 H   0  0  0  0  0  0  0  0  0  0  0  0
    1.9429   -0.8310    3.5438 H   0  0  0  0  0  0  0  0  0  0  0  0
  1  2  1  0
  2  3  2  0
  3  4  1  0
  4  5  2  0
  5  6  1  0
  6  7  1  0
  7  8  1  0
  8  9  1  0
  9 10  1  0
 10 11  1  0
 11 12  1  0
 12 13  1  0
 12 14  1  0
  8 15  1  0
 15 16  2  0
 15 17  1  0
 17 18  2  0
 18 19  1  0
 19 20  2  0
 20 21  1  0
 20 22  1  0
  7 23  2  0
 23 24  1  0
 24 25  2  0
 25 26  1  0
 25  2  1  0
 24  5  1  0
 22 17  1  0
  1 27  1  0
  1 28  1  0
  1 29  1  0
  3 30  1  0
  4 31  1  0
  9 32  1  0
  9 33  1  0
 10 34  1  0
 10 35  1  0
 11 36  1  0
 11 37  1  0
 13 38  1  0
 13 39  1  0
 13 40  1  0
 14 41  1  0
 14 42  1  0
 14 43  1  0
 18 44  1  0
 19 45  1  0
 26 46  1  0
 26 47  1  0
 26 48  1  0
M  END
$$$$
