
     RDKit          3D

 51 54  0  0  0  0  0  0  0  0999 V2000
   -5.0867    1.3356   -0.9218 C   0  0  0  0  0  0  0  0  0  0  0  0
   -3.9679    0.4880   -0.7003 O   0  0  0  0  0  0  0  0  0  0  0  0
   -4.2090   -0.7819   -0.2441 C   0  0  0  0  0  0  0  0  0  0  0  0
   -5.4891   -1.2995   -0.0073 C   0  0  0  0  0  0  0  0  0  0  0  0
   -5.6559   -2.6076    0.4516 C   0  0  0  0  0  0  0  0  0  0  0  0
   -4.5462   -3.4121    0.6783 C   0  0  0  0  0  0  0  0  0  0  0  0
   -3.2675   -2.9086    0.4467 C   0  0  0  0  0  0  0  0  0  0  0  0
   -3.0764   -1.5921   -0.0159 C   0  0  0  0  0  0  0  0  0  0  0  0
   -1.6465   -1.1127   -0.2384 C   0  0  0  0  0  0  0  0  0  0  0  0
   -1.2470    0.0333    0.6991 C   0  0  0  0  0  0  0  0  0  0  0  0
    0.2261    0.4206    0.5053 C   0  0  0  0  0  0  0  0  0  0  0  0
    0.7121    0.2785   -0.8792 N   0  0  0  0  0  0  0  0  0  0  0  0
    1.8110    1.2100   -1.1767 C   0  0  0  0  0  0  0  0  0  0  0  0
    3.0259    0.8799   -0.3558 C   0  0  0  0  0  0  0  0  0  0  0  0
    3.7812   -0.2844   -0.4176 C   0  0  0  0  0  0  0  0  0  0  0  0
    3.6090   -1.5018   -1.2511 C   0  0  0  0  0  0  0  0  0  0  0  0
    4.7963   -0.1762    0.4976 N   0  0  0  0  0  0  0  0  0  0  0  0
    4.7369    1.0329    1.1473 C   0  0  0  0  0  0  0  0  0  0  0  0
    5.5675    1.5618    2.1430 C   0  0  0  0  0  0  0  0  0  0  0  0
    5.2643    2.8352    2.6321 C   0  0  0  0  0  0  0  0  0  0  0  0
    4.1723    3.5478    2.1444 C   0  0  0  0  0  0  0  0  0  0  0  0
    3.3525    3.0029    1.1491 C   0  0  0  0  0  0  0  0  0  0  0  0
    3.6367    1.7196    0.6354 C   0  0  0  0  0  0  0  0  0  0  0  0
   -0.3717    0.4065   -1.8521 C   0  0  0  0  0  0  0  0  0  0  0  0
   -1.3434   -0.7689   -1.7102 C   0  0  0  0  0  0  0  0  0  0  0  0
   -5.6404    1.5109    0.0065 H   0  0  0  0  0  0  0  0  0  0  0  0
   -4.7087    2.3019   -1.2697 H   0  0  0  0  0  0  0  0  0  0  0  0
   -5.7383    0.9334   -1.7043 H   0  0  0  0  0  0  0  0  0  0  0  0
   -6.3839   -0.7091   -0.1720 H   0  0  0  0  0  0  0  0  0  0  0  0
   -6.6548   -2.9966    0.6312 H   0  0  0  0  0  0  0  0  0  0  0  0
   -4.6733   -4.4304    1.0359 H   0  0  0  0  0  0  0  0  0  0  0  0
   -2.4116   -3.5547    0.6319 H   0  0  0  0  0  0  0  0  0  0  0  0
   -0.9789   -1.9495    0.0177 H   0  0  0  0  0  0  0  0  0  0  0  0
   -1.8666    0.9194    0.5181 H   0  0  0  0  0  0  0  0  0  0  0  0
   -1.4145   -0.2491    1.7460 H   0  0  0  0  0  0  0  0  0  0  0  0
    0.8416   -0.2174    1.1510 H   0  0  0  0  0  0  0  0  0  0  0  0
    0.3411    1.4498    0.8699 H   0  0  0  0  0  0  0  0  0  0  0  0
    2.1017    1.1206   -2.2319 H   0  0  0  0  0  0  0  0  0  0  0  0
    1.4974    2.2501   -1.0262 H   0  0  0  0  0  0  0  0  0  0  0  0
    3.2989   -1.2372   -2.2669 H   0  0  0  0  0  0  0  0  0  0  0  0
    4.5420   -2.0700   -1.3251 H   0  0  0  0  0  0  0  0  0  0  0  0
    2.8450   -2.1535   -0.8155 H   0  0  0  0  0  0  0  0  0  0  0  0
    5.4943   -0.8840    0.6762 H   0  0  0  0  0  0  0  0  0  0  0  0
    6.4183    1.0075    2.5252 H   0  0  0  0  0  0  0  0  0  0  0  0
    5.8902    3.2738    3.4057 H   0  0  0  0  0  0  0  0  0  0  0  0
    3.9518    4.5364    2.5389 H   0  0  0  0  0  0  0  0  0  0  0  0
    2.5026    3.5687    0.7804 H   0  0  0  0  0  0  0  0  0  0  0  0
   -0.8999    1.3615   -1.7321 H   0  0  0  0  0  0  0  0  0  0  0  0
    0.0210    0.3888   -2.8764 H   0  0  0  0  0  0  0  0  0  0  0  0
   -2.2482   -0.5427   -2.2852 H   0  0  0  0  0  0  0  0  0  0  0  0
   -0.9114   -1.6587   -2.1886 H   0  0  0  0  0  0  0  0  0  0  0  0
  1  2  1  0
  2  3  1  0
  3  4  2  0
  4  5  1  0
  5  6  2  0
  6  7  1  0
  7  8  2  0
  8  9  1  0
  9 10  1  0
 10 11  1  0
 11 12  1  0
 12 13  1  0
 13 14  1  0
 14 15  2  0
 15 16  1  0
 15 17  1  0
 17 18  1  0
 18 19  2  0
 19 20  1  0
 20 21  2  0
 21 22  1  0
 22 23  2  0
 12 24  1  0
 24 25  1  0
  8  3  1  0
 25  9  1  0
 23 14  1  0
 23 18  1  0
  1 26  1  0
  1 27  1  0
  1 28  1  0
  4 29  1  0
  5 30  1  0
  6 31  1  0
  7 32  1  0
  9 33  1  0
 10 34  1  0
 10 35  1  0
 11 36  1  0
 11 37  1  0
 13 38  1  0
 13 39  1  0
 16 40  1  0
 16 41  1  0
 16 42  1  0
 17 43  1  0
 19 44  1  0
 20 45  1  0
 21 46  1  0
 22 47  1  0
 24 48  1  0
 24 49  1  0
 25 50  1  0
 25 51  1  0
M  END
$$$$
