
     RDKit          3D

 40 41  0  0  0  0  0  0  0  0999 V2000
   -0.9813    0.5502    1.9589 O   0  0  0  0  0  0  0  0  0  0  0  0
   -1.2234    1.2334    0.9680 C   0  0  0  0  0  0  0  0  0  0  0  0
   -0.1107    1.9958    0.2308 C   0  0  0  0  0  0  0  0  0  0  0  0
    1.1901    1.4663    0.4775 O   0  0  0  0  0  0  0  0  0  0  0  0
    1.4177    0.2692   -0.1358 C   0  0  0  0  0  0  0  0  0  0  0  0
    0.6416   -0.2740   -0.9092 O   0  0  0  0  0  0  0  0  0  0  0  0
    2.7662   -0.2668    0.2902 C   0  0  0  0  0  0  0  0  0  0  0  0
    3.1490   -1.5572   -0.4505 C   0  0  0  0  0  0  0  0  0  0  0  0
    4.3992   -2.2072    0.1450 C   0  0  0  0  0  0  0  0  0  0  0  0
    5.5676   -1.4491   -0.4740 C   0  0  0  0  0  0  0  0  0  0  0  0
    5.0600   -0.9184   -1.8136 C   0  0  0  0  0  0  0  0  0  0  0  0
    3.5856   -1.3067   -1.8964 C   0  0  0  0  0  0  0  0  0  0  0  0
   -2.4699    1.4389    0.3971 N   0  0  0  0  0  0  0  0  0  0  0  0
   -3.7280    0.9099    0.7930 C   0  0  0  0  0  0  0  0  0  0  0  0
   -3.8498    0.0713    1.9100 C   0  0  0  0  0  0  0  0  0  0  0  0
   -5.0892   -0.4507    2.3011 C   0  0  0  0  0  0  0  0  0  0  0  0
   -6.2404   -0.1477    1.5844 C   0  0  0  0  0  0  0  0  0  0  0  0
   -6.1564    0.6808    0.4693 C   0  0  0  0  0  0  0  0  0  0  0  0
   -4.9108    1.2080    0.0721 C   0  0  0  0  0  0  0  0  0  0  0  0
   -4.8972    2.0762   -1.1185 N   0  0  0  0  0  4  0  0  0  0  0  0
   -3.8392    2.6601   -1.4063 O   0  0  0  0  0  0  0  0  0  0  0  0
   -5.9444    2.1829   -1.7724 O   0  0  0  0  0  1  0  0  0  0  0  0
   -0.3063    2.0381   -0.8474 H   0  0  0  0  0  0  0  0  0  0  0  0
   -0.1197    3.0251    0.6056 H   0  0  0  0  0  0  0  0  0  0  0  0
    2.7039   -0.4699    1.3659 H   0  0  0  0  0  0  0  0  0  0  0  0
    3.5147    0.5163    0.1262 H   0  0  0  0  0  0  0  0  0  0  0  0
    2.3073   -2.2591   -0.4197 H   0  0  0  0  0  0  0  0  0  0  0  0
    4.4468   -3.2596   -0.1617 H   0  0  0  0  0  0  0  0  0  0  0  0
    4.4227   -2.1809    1.2388 H   0  0  0  0  0  0  0  0  0  0  0  0
    5.8628   -0.6122    0.1695 H   0  0  0  0  0  0  0  0  0  0  0  0
    6.4446   -2.0929   -0.5953 H   0  0  0  0  0  0  0  0  0  0  0  0
    5.1756    0.1707   -1.8528 H   0  0  0  0  0  0  0  0  0  0  0  0
    5.6239   -1.3363   -2.6539 H   0  0  0  0  0  0  0  0  0  0  0  0
    2.9911   -0.5452   -2.4098 H   0  0  0  0  0  0  0  0  0  0  0  0
    3.4914   -2.2371   -2.4707 H   0  0  0  0  0  0  0  0  0  0  0  0
   -2.4903    2.0365   -0.4305 H   0  0  0  0  0  0  0  0  0  0  0  0
   -2.9908   -0.2077    2.5136 H   0  0  0  0  0  0  0  0  0  0  0  0
   -5.1457   -1.0998    3.1730 H   0  0  0  0  0  0  0  0  0  0  0  0
   -7.1994   -0.5574    1.8930 H   0  0  0  0  0  0  0  0  0  0  0  0
   -7.0692    0.9062   -0.0798 H   0  0  0  0  0  0  0  0  0  0  0  0
  1  2  2  0
  2  3  1  0
  3  4  1  0
  4  5  1  0
  5  6  2  0
  5  7  1  0
  7  8  1  0
  8  9  1  0
  9 10  1  0
 10 11  1  0
 11 12  1  0
  2 13  1  0
 13 14  1  0
 14 15  2  0
 15 16  1  0
 16 17  2  0
 17 18  1  0
 18 19  2  0
 19 20  1  0
 20 21  2  0
 20 22  1  0
 12  8  1  0
 19 14  1  0
  3 23  1  0
  3 24  1  0
  7 25  1  0
  7 26  1  0
  8 27  1  0
  9 28  1  0
  9 29  1  0
 10 30  1  0
 10 31  1  0
 11 32  1  0
 11 33  1  0
 12 34  1  0
 12 35  1  0
 13 36  1  0
 15 37  1  0
 16 38  1  0
 17 39  1  0
 18 40  1  0
M  CHG  2  20   1  22  -1
M  END
$$$$
