
     RDKit          3D

 63 67  0  0  0  0  0  0  0  0999 V2000
   -4.4773    0.3533    7.6559 Cl  0  0  0  0  0  0  0  0  0  0  0  0
   -3.6454   -0.2605    6.2835 C   0  0  0  0  0  0  0  0  0  0  0  0
   -3.6972   -1.6194    5.9900 C   0  0  0  0  0  0  0  0  0  0  0  0
   -3.0195   -2.1166    4.8732 C   0  0  0  0  0  0  0  0  0  0  0  0
   -2.2756   -1.2610    4.0367 C   0  0  0  0  0  0  0  0  0  0  0  0
   -1.5712   -1.8527    2.8209 C   0  0  0  0  0  0  0  0  0  0  0  0
   -2.4488   -2.1171    1.6039 C   0  0  0  0  0  0  0  0  0  0  0  0
   -2.0525   -3.1009    0.6770 C   0  0  0  0  0  0  0  0  0  0  0  0
   -2.8180   -3.3604   -0.4633 C   0  0  0  0  0  0  0  0  0  0  0  0
   -3.9811   -2.6333   -0.6986 C   0  0  0  0  0  0  0  0  0  0  0  0
   -4.9195   -2.9465   -2.1027 Cl  0  0  0  0  0  0  0  0  0  0  0  0
   -4.3867   -1.6504    0.1991 C   0  0  0  0  0  0  0  0  0  0  0  0
   -3.6259   -1.3914    1.3434 C   0  0  0  0  0  0  0  0  0  0  0  0
   -0.4125   -1.0184    2.4332 N   0  0  0  0  0  0  0  0  0  0  0  0
    0.8166   -1.0142    3.0848 C   0  0  0  0  0  0  0  0  0  0  0  0
    1.6122   -0.1198    2.4277 C   0  0  0  0  0  0  0  0  0  0  0  0
    0.8608    0.3851    1.3799 N   0  0  0  0  0  4  0  0  0  0  0  0
    1.3083    1.3751    0.3847 C   0  0  0  0  0  0  0  0  0  0  0  0
    2.0656    0.7660   -0.8187 C   0  0  0  0  0  0  0  0  0  0  0  0
    2.5113    1.8592   -1.6367 O   0  0  0  0  0  0  0  0  0  0  0  0
    3.6439    1.5287   -2.4454 C   0  0  0  0  0  0  0  0  0  0  0  0
    3.8442    2.6468   -3.4337 C   0  0  0  0  0  0  0  0  0  0  0  0
    4.5675    3.7846   -3.0312 C   0  0  0  0  0  0  0  0  0  0  0  0
    4.7582    4.8570   -3.9050 C   0  0  0  0  0  0  0  0  0  0  0  0
    4.2220    4.8068   -5.1884 C   0  0  0  0  0  0  0  0  0  0  0  0
    4.4525    6.1306   -6.2611 Cl  0  0  0  0  0  0  0  0  0  0  0  0
    3.4948    3.6962   -5.6058 C   0  0  0  0  0  0  0  0  0  0  0  0
    3.3028    2.6233   -4.7308 C   0  0  0  0  0  0  0  0  0  0  0  0
    2.3746    1.2851   -5.3088 Cl  0  0  0  0  0  0  0  0  0  0  0  0
    1.1600   -0.1566   -1.6229 C   0  0  0  0  0  0  0  0  0  0  0  0
    0.2188    0.3990   -2.5121 C   0  0  0  0  0  0  0  0  0  0  0  0
   -0.6151   -0.4168   -3.2797 C   0  0  0  0  0  0  0  0  0  0  0  0
   -0.5205   -1.7991   -3.1697 C   0  0  0  0  0  0  0  0  0  0  0  0
   -1.5343   -2.8056   -4.1234 Cl  0  0  0  0  0  0  0  0  0  0  0  0
    0.3883   -2.3737   -2.2871 C   0  0  0  0  0  0  0  0  0  0  0  0
    1.2179   -1.5579   -1.5129 C   0  0  0  0  0  0  0  0  0  0  0  0
    2.2841   -2.3464   -0.4060 Cl  0  0  0  0  0  0  0  0  0  0  0  0
   -0.3651   -0.1650    1.3980 C   0  0  0  0  0  0  0  0  0  0  0  0
   -2.2463    0.1106    4.3479 C   0  0  0  0  0  0  0  0  0  0  0  0
   -2.9244    0.6055    5.4667 C   0  0  0  0  0  0  0  0  0  0  0  0
   -4.2671   -2.2952    6.6239 H   0  0  0  0  0  0  0  0  0  0  0  0
   -3.0870   -3.1837    4.6610 H   0  0  0  0  0  0  0  0  0  0  0  0
   -1.1488   -2.8177    3.1398 H   0  0  0  0  0  0  0  0  0  0  0  0
   -1.1464   -3.6844    0.8375 H   0  0  0  0  0  0  0  0  0  0  0  0
   -2.5083   -4.1342   -1.1633 H   0  0  0  0  0  0  0  0  0  0  0  0
   -5.3022   -1.0900    0.0186 H   0  0  0  0  0  0  0  0  0  0  0  0
   -3.9841   -0.6231    2.0274 H   0  0  0  0  0  0  0  0  0  0  0  0
    0.9607   -1.6469    3.9448 H   0  0  0  0  0  0  0  0  0  0  0  0
    2.6246    0.2195    2.5676 H   0  0  0  0  0  0  0  0  0  0  0  0
    1.9543    2.0993    0.8967 H   0  0  0  0  0  0  0  0  0  0  0  0
    0.4320    1.9442    0.0502 H   0  0  0  0  0  0  0  0  0  0  0  0
    2.9495    0.2418   -0.4402 H   0  0  0  0  0  0  0  0  0  0  0  0
    3.5133    0.5640   -2.9454 H   0  0  0  0  0  0  0  0  0  0  0  0
    4.5266    1.4361   -1.8004 H   0  0  0  0  0  0  0  0  0  0  0  0
    4.9862    3.8449   -2.0281 H   0  0  0  0  0  0  0  0  0  0  0  0
    5.3217    5.7285   -3.5788 H   0  0  0  0  0  0  0  0  0  0  0  0
    3.0756    3.6690   -6.6085 H   0  0  0  0  0  0  0  0  0  0  0  0
    0.1513    1.4794   -2.6450 H   0  0  0  0  0  0  0  0  0  0  0  0
   -1.3183    0.0324   -3.9785 H   0  0  0  0  0  0  0  0  0  0  0  0
    0.4533   -3.4566   -2.2110 H   0  0  0  0  0  0  0  0  0  0  0  0
   -1.1622    0.0559    0.6955 H   0  0  0  0  0  0  0  0  0  0  0  0
   -1.7008    0.8192    3.7304 H   0  0  0  0  0  0  0  0  0  0  0  0
   -2.8911    1.6685    5.6963 H   0  0  0  0  0  0  0  0  0  0  0  0
  1  2  1  0
  2  3  2  0
  3  4  1  0
  4  5  2  0
  5  6  1  0
  6  7  1  0
  7  8  2  0
  8  9  1  0
  9 10  2  0
 10 11  1  0
 10 12  1  0
 12 13  2  0
  6 14  1  0
 14 15  1  0
 15 16  2  0
 16 17  1  0
 17 18  1  0
 18 19  1  0
 19 20  1  0
 20 21  1  0
 21 22  1  0
 22 23  2  0
 23 24  1  0
 24 25  2  0
 25 26  1  0
 25 27  1  0
 27 28  2  0
 28 29  1  0
 19 30  1  0
 30 31  2  0
 31 32  1  0
 32 33  2  0
 33 34  1  0
 33 35  1  0
 35 36  2  0
 36 37  1  0
 17 38  2  0
  5 39  1  0
 39 40  2  0
 40  2  1  0
 13  7  1  0
 38 14  1  0
 28 22  1  0
 36 30  1  0
  3 41  1  0
  4 42  1  0
  6 43  1  0
  8 44  1  0
  9 45  1  0
 12 46  1  0
 13 47  1  0
 15 48  1  0
 16 49  1  0
 18 50  1  0
 18 51  1  0
 19 52  1  0
 21 53  1  0
 21 54  1  0
 23 55  1  0
 24 56  1  0
 27 57  1  0
 31 58  1  0
 32 59  1  0
 35 60  1  0
 38 61  1  0
 39 62  1  0
 40 63  1  0
M  CHG  1  17   1
M  END
$$$$
