
     RDKit          3D

 38 39  0  0  0  0  0  0  0  0999 V2000
    6.7181    0.5466    0.6886 C   0  0  0  0  0  0  0  0  0  0  0  0
    5.2325    0.4664    0.5044 C   0  0  0  0  0  0  0  0  0  0  0  0
    4.6629   -0.5714   -0.2365 C   0  0  0  0  0  0  0  0  0  0  0  0
    3.2775   -0.6306   -0.4368 C   0  0  0  0  0  0  0  0  0  0  0  0
    2.4263    0.3468    0.0853 C   0  0  0  0  0  0  0  0  0  0  0  0
    1.0363    0.3444   -0.0761 N   0  0  0  0  0  0  0  0  0  0  0  0
    0.1360   -0.4945   -0.7288 C   0  0  0  0  0  0  0  0  0  0  0  0
    0.5316   -1.5691   -1.3852 N   0  0  0  0  0  0  0  0  0  0  0  0
   -0.4568   -2.2435   -1.9459 C   0  0  0  0  0  0  0  0  0  0  0  0
   -0.0068   -3.6503   -2.8071 Cl  0  0  0  0  0  0  0  0  0  0  0  0
   -1.7519   -1.9739   -1.9151 N   0  0  0  0  0  0  0  0  0  0  0  0
   -2.0454   -0.8834   -1.2354 C   0  0  0  0  0  0  0  0  0  0  0  0
   -3.3874   -0.5633   -1.1987 N   0  0  0  0  0  0  0  0  0  0  0  0
   -4.0086    0.1254   -0.0630 C   0  0  0  0  0  0  0  0  0  0  0  0
   -5.5306    0.1082   -0.3199 C   0  0  0  0  0  0  0  0  0  0  0  0
   -3.7358   -0.6073    1.2585 C   0  0  0  0  0  0  0  0  0  0  0  0
   -3.5651    1.5935    0.0168 C   0  0  0  0  0  0  0  0  0  0  0  0
   -1.1401   -0.1251   -0.6311 N   0  0  0  0  0  0  0  0  0  0  0  0
    3.0131    1.3924    0.8164 C   0  0  0  0  0  0  0  0  0  0  0  0
    4.3962    1.4576    1.0202 C   0  0  0  0  0  0  0  0  0  0  0  0
    6.9686    1.0399    1.6337 H   0  0  0  0  0  0  0  0  0  0  0  0
    7.1627   -0.4538    0.7173 H   0  0  0  0  0  0  0  0  0  0  0  0
    7.1676    1.1102   -0.1347 H   0  0  0  0  0  0  0  0  0  0  0  0
    5.2905   -1.3487   -0.6672 H   0  0  0  0  0  0  0  0  0  0  0  0
    2.8892   -1.4628   -1.0155 H   0  0  0  0  0  0  0  0  0  0  0  0
    0.5315    1.1113    0.3446 H   0  0  0  0  0  0  0  0  0  0  0  0
   -3.8870   -1.3844   -1.5277 H   0  0  0  0  0  0  0  0  0  0  0  0
   -5.7779    0.6086   -1.2637 H   0  0  0  0  0  0  0  0  0  0  0  0
   -6.0779    0.6147    0.4831 H   0  0  0  0  0  0  0  0  0  0  0  0
   -5.9105   -0.9182   -0.3868 H   0  0  0  0  0  0  0  0  0  0  0  0
   -4.0252   -1.6626    1.1931 H   0  0  0  0  0  0  0  0  0  0  0  0
   -4.2994   -0.1551    2.0825 H   0  0  0  0  0  0  0  0  0  0  0  0
   -2.6770   -0.5748    1.5358 H   0  0  0  0  0  0  0  0  0  0  0  0
   -4.1685    2.1465    0.7461 H   0  0  0  0  0  0  0  0  0  0  0  0
   -3.6715    2.0925   -0.9533 H   0  0  0  0  0  0  0  0  0  0  0  0
   -2.5222    1.6992    0.3294 H   0  0  0  0  0  0  0  0  0  0  0  0
    2.3934    2.1800    1.2382 H   0  0  0  0  0  0  0  0  0  0  0  0
    4.8116    2.2886    1.5854 H   0  0  0  0  0  0  0  0  0  0  0  0
  1  2  1  0
  2  3  2  0
  3  4  1  0
  4  5  2  0
  5  6  1  0
  6  7  1  0
  7  8  2  0
  8  9  1  0
  9 10  1  0
  9 11  2  0
 11 12  1  0
 12 13  1  0
 13 14  1  0
 14 15  1  0
 14 16  1  0
 14 17  1  0
 12 18  2  0
  5 19  1  0
 19 20  2  0
 20  2  1  0
 18  7  1  0
  1 21  1  0
  1 22  1  0
  1 23  1  0
  3 24  1  0
  4 25  1  0
  6 26  1  0
 13 27  1  0
 15 28  1  0
 15 29  1  0
 15 30  1  0
 16 31  1  0
 16 32  1  0
 16 33  1  0
 17 34  1  0
 17 35  1  0
 17 36  1  0
 19 37  1  0
 20 38  1  0
M  END
$$$$
