
     RDKit          3D

 48 49  0  0  0  0  0  0  0  0999 V2000
    1.0969   -1.6168    2.4798 C   0  0  0  0  0  0  0  0  0  0  0  0
    1.7182   -0.8643    1.4454 O   0  0  0  0  0  0  0  0  0  0  0  0
    0.8909   -0.2540    0.5378 C   0  0  0  0  0  0  0  0  0  0  0  0
   -0.4846   -0.0733    0.7172 C   0  0  0  0  0  0  0  0  0  0  0  0
   -1.2694    0.5491   -0.2705 C   0  0  0  0  0  0  0  0  0  0  0  0
   -2.7578    0.7224   -0.0588 C   0  0  0  0  0  0  0  0  0  0  0  0
   -3.4240   -0.5734   -0.0919 N   0  0  0  0  0  0  0  0  0  0  0  0
   -4.8738   -0.5732    0.2057 C   0  0  0  0  0  0  0  0  0  0  0  0
   -5.1087   -0.3436    1.7065 C   0  0  0  0  0  0  0  0  0  0  0  0
   -5.6484    0.4766   -0.6128 C   0  0  0  0  0  0  0  0  0  0  0  0
   -5.4019   -1.9897   -0.1636 C   0  0  0  0  0  0  0  0  0  0  0  0
   -5.1763   -2.2611   -1.5497 O   0  0  0  0  0  0  0  0  0  0  0  0
   -0.6598    0.9828   -1.4546 C   0  0  0  0  0  0  0  0  0  0  0  0
    0.7142    0.8177   -1.6383 C   0  0  0  0  0  0  0  0  0  0  0  0
    1.4808    1.4286   -3.2643 Br  0  0  0  0  0  0  0  0  0  0  0  0
    1.4932    0.2245   -0.6377 C   0  0  0  0  0  0  0  0  0  0  0  0
    2.8391    0.0418   -0.8533 O   0  0  0  0  0  0  0  0  0  0  0  0
    3.5991    1.0148   -0.1318 C   0  0  0  0  0  0  0  0  0  0  0  0
    5.0288    0.9317   -0.6096 C   0  0  0  0  0  0  0  0  0  0  0  0
    5.4812    1.7526   -1.6529 C   0  0  0  0  0  0  0  0  0  0  0  0
    6.7993    1.6593   -2.1054 C   0  0  0  0  0  0  0  0  0  0  0  0
    7.6676    0.7384   -1.5229 C   0  0  0  0  0  0  0  0  0  0  0  0
    9.2917    0.6239   -2.0807 Cl  0  0  0  0  0  0  0  0  0  0  0  0
    7.2286   -0.0941   -0.4957 C   0  0  0  0  0  0  0  0  0  0  0  0
    5.9105   -0.0010   -0.0435 C   0  0  0  0  0  0  0  0  0  0  0  0
    0.4063   -2.3634    2.0732 H   0  0  0  0  0  0  0  0  0  0  0  0
    1.8831   -2.1514    3.0215 H   0  0  0  0  0  0  0  0  0  0  0  0
    0.5927   -0.9570    3.1931 H   0  0  0  0  0  0  0  0  0  0  0  0
   -0.9868   -0.4173    1.6172 H   0  0  0  0  0  0  0  0  0  0  0  0
   -2.9017    1.2254    0.9040 H   0  0  0  0  0  0  0  0  0  0  0  0
   -3.1539    1.3884   -0.8337 H   0  0  0  0  0  0  0  0  0  0  0  0
   -3.3090   -0.9787   -1.0269 H   0  0  0  0  0  0  0  0  0  0  0  0
   -4.5499   -1.0664    2.3125 H   0  0  0  0  0  0  0  0  0  0  0  0
   -6.1700   -0.4559    1.9573 H   0  0  0  0  0  0  0  0  0  0  0  0
   -4.8063    0.6611    2.0203 H   0  0  0  0  0  0  0  0  0  0  0  0
   -6.7297    0.3506   -0.4832 H   0  0  0  0  0  0  0  0  0  0  0  0
   -5.4059    1.4979   -0.2991 H   0  0  0  0  0  0  0  0  0  0  0  0
   -5.4336    0.3937   -1.6842 H   0  0  0  0  0  0  0  0  0  0  0  0
   -6.4779   -2.0699    0.0272 H   0  0  0  0  0  0  0  0  0  0  0  0
   -4.8905   -2.7630    0.4219 H   0  0  0  0  0  0  0  0  0  0  0  0
   -5.4357   -3.1867   -1.6984 H   0  0  0  0  0  0  0  0  0  0  0  0
   -1.2595    1.4454   -2.2353 H   0  0  0  0  0  0  0  0  0  0  0  0
    3.5674    0.8206    0.9471 H   0  0  0  0  0  0  0  0  0  0  0  0
    3.2128    2.0288   -0.3028 H   0  0  0  0  0  0  0  0  0  0  0  0
    4.8054    2.4631   -2.1244 H   0  0  0  0  0  0  0  0  0  0  0  0
    7.1380    2.3007   -2.9142 H   0  0  0  0  0  0  0  0  0  0  0  0
    7.9016   -0.8203   -0.0488 H   0  0  0  0  0  0  0  0  0  0  0  0
    5.5677   -0.6656    0.7472 H   0  0  0  0  0  0  0  0  0  0  0  0
  1  2  1  0
  2  3  1  0
  3  4  2  0
  4  5  1  0
  5  6  1  0
  6  7  1  0
  7  8  1  0
  8  9  1  0
  8 10  1  0
  8 11  1  0
 11 12  1  0
  5 13  2  0
 13 14  1  0
 14 15  1  0
 14 16  2  0
 16 17  1  0
 17 18  1  0
 18 19  1  0
 19 20  2  0
 20 21  1  0
 21 22  2  0
 22 23  1  0
 22 24  1  0
 24 25  2  0
 16  3  1  0
 25 19  1  0
  1 26  1  0
  1 27  1  0
  1 28  1  0
  4 29  1  0
  6 30  1  0
  6 31  1  0
  7 32  1  0
  9 33  1  0
  9 34  1  0
  9 35  1  0
 10 36  1  0
 10 37  1  0
 10 38  1  0
 11 39  1  0
 11 40  1  0
 12 41  1  0
 13 42  1  0
 18 43  1  0
 18 44  1  0
 20 45  1  0
 21 46  1  0
 24 47  1  0
 25 48  1  0
M  END
$$$$
