
     RDKit          3D

 41 42  0  0  0  0  0  0  0  0999 V2000
   -6.3438   -2.0496   -0.4344 C   0  0  0  0  0  0  0  0  0  0  0  0
   -5.8573   -0.7327   -0.6581 O   0  0  0  0  0  0  0  0  0  0  0  0
   -4.9198   -0.2644    0.2215 C   0  0  0  0  0  0  0  0  0  0  0  0
   -4.5102    1.0502   -0.0059 C   0  0  0  0  0  0  0  0  0  0  0  0
   -3.5592    1.6564    0.8188 C   0  0  0  0  0  0  0  0  0  0  0  0
   -3.0011    0.9468    1.8870 C   0  0  0  0  0  0  0  0  0  0  0  0
   -1.9547    1.5785    2.7735 C   0  0  0  0  0  0  0  0  0  0  0  0
   -0.5547    1.0814    2.5006 C   0  0  0  0  0  0  0  0  0  0  0  0
    0.1752    0.6198    3.3715 O   0  0  0  0  0  0  0  0  0  0  0  0
   -0.2539    1.2662    1.1726 O   0  0  0  0  0  0  0  0  0  0  0  0
    1.0649    0.8562    0.9054 N   0  0  0  0  0  0  0  0  0  0  0  0
    1.3128    0.8912   -0.3707 C   0  0  0  0  0  0  0  0  0  0  0  0
    0.3767    1.2560   -1.3136 N   0  0  0  0  0  0  0  0  0  0  0  0
    2.6808    0.4922   -0.8298 C   0  0  0  0  0  0  0  0  0  0  0  0
    3.4709   -0.3381   -0.0275 C   0  0  0  0  0  0  0  0  0  0  0  0
    4.7443   -0.7324   -0.4548 C   0  0  0  0  0  0  0  0  0  0  0  0
    5.2369   -0.2967   -1.6844 C   0  0  0  0  0  0  0  0  0  0  0  0
    6.4590   -0.6099   -2.2128 O   0  0  0  0  0  0  0  0  0  0  0  0
    7.1614   -1.6770   -1.5923 C   0  0  0  0  0  0  0  0  0  0  0  0
    4.4577    0.5549   -2.4710 C   0  0  0  0  0  0  0  0  0  0  0  0
    3.1826    0.9475   -2.0523 C   0  0  0  0  0  0  0  0  0  0  0  0
   -3.4076   -0.3745    2.1084 C   0  0  0  0  0  0  0  0  0  0  0  0
   -4.3620   -0.9770    1.2814 C   0  0  0  0  0  0  0  0  0  0  0  0
   -7.0976   -2.2632   -1.1984 H   0  0  0  0  0  0  0  0  0  0  0  0
   -6.8291   -2.1285    0.5419 H   0  0  0  0  0  0  0  0  0  0  0  0
   -5.5425   -2.7886   -0.5398 H   0  0  0  0  0  0  0  0  0  0  0  0
   -4.9416    1.6094   -0.8325 H   0  0  0  0  0  0  0  0  0  0  0  0
   -3.2624    2.6838    0.6165 H   0  0  0  0  0  0  0  0  0  0  0  0
   -2.2019    1.3709    3.8211 H   0  0  0  0  0  0  0  0  0  0  0  0
   -1.9558    2.6682    2.6706 H   0  0  0  0  0  0  0  0  0  0  0  0
   -0.5650    1.2373   -0.9357 H   0  0  0  0  0  0  0  0  0  0  0  0
    0.4367    0.7593   -2.1958 H   0  0  0  0  0  0  0  0  0  0  0  0
    3.1012   -0.6839    0.9362 H   0  0  0  0  0  0  0  0  0  0  0  0
    5.3277   -1.3679    0.2029 H   0  0  0  0  0  0  0  0  0  0  0  0
    6.5514   -2.5843   -1.5471 H   0  0  0  0  0  0  0  0  0  0  0  0
    8.0401   -1.8968   -2.2038 H   0  0  0  0  0  0  0  0  0  0  0  0
    7.5118   -1.3868   -0.5980 H   0  0  0  0  0  0  0  0  0  0  0  0
    4.8478    0.9162   -3.4192 H   0  0  0  0  0  0  0  0  0  0  0  0
    2.6071    1.6253   -2.6758 H   0  0  0  0  0  0  0  0  0  0  0  0
   -2.9822   -0.9488    2.9291 H   0  0  0  0  0  0  0  0  0  0  0  0
   -4.6446   -2.0025    1.4944 H   0  0  0  0  0  0  0  0  0  0  0  0
  1  2  1  0
  2  3  1  0
  3  4  2  0
  4  5  1  0
  5  6  2  0
  6  7  1  0
  7  8  1  0
  8  9  2  0
  8 10  1  0
 10 11  1  0
 11 12  2  3
 12 13  1  0
 12 14  1  0
 14 15  2  0
 15 16  1  0
 16 17  2  0
 17 18  1  0
 18 19  1  0
 17 20  1  0
 20 21  2  0
  6 22  1  0
 22 23  2  0
 23  3  1  0
 21 14  1  0
  1 24  1  0
  1 25  1  0
  1 26  1  0
  4 27  1  0
  5 28  1  0
  7 29  1  0
  7 30  1  0
 13 31  1  0
 13 32  1  0
 15 33  1  0
 16 34  1  0
 19 35  1  0
 19 36  1  0
 19 37  1  0
 20 38  1  0
 21 39  1  0
 22 40  1  0
 23 41  1  0
M  END
$$$$
