
     RDKit          3D

 50 52  0  0  0  0  0  0  0  0999 V2000
   -3.9514   -2.8074   -1.8091 C   0  0  0  0  0  0  0  0  0  0  0  0
   -4.2544   -2.0816   -0.6246 O   0  0  0  0  0  0  0  0  0  0  0  0
   -3.6062   -0.8888   -0.4356 C   0  0  0  0  0  0  0  0  0  0  0  0
   -2.4993   -0.4600   -1.1702 C   0  0  0  0  0  0  0  0  0  0  0  0
   -1.8986    0.7685   -0.8629 C   0  0  0  0  0  0  0  0  0  0  0  0
   -0.7247    1.2035   -1.6362 C   0  0  0  0  0  0  0  0  0  0  0  0
   -0.9288    1.8845   -2.6368 O   0  0  0  0  0  0  0  0  0  0  0  0
    0.5366    0.8123   -1.1937 N   0  0  0  0  0  0  0  0  0  0  0  0
    1.6580    1.0214   -2.1212 C   0  0  0  0  0  0  0  0  0  0  0  0
    3.0229    1.1134   -1.4144 C   0  0  0  0  0  0  0  0  0  0  0  0
    3.1905   -0.0437   -0.5088 N   0  0  0  0  0  0  0  0  0  0  0  0
    4.4979   -0.2407   -0.0306 C   0  0  0  0  0  0  0  0  0  0  0  0
    5.1255   -1.4259   -0.4610 C   0  0  0  0  0  0  0  0  0  0  0  0
    6.4237   -1.7472   -0.0640 C   0  0  0  0  0  0  0  0  0  0  0  0
    7.1548   -3.2001   -0.6249 Cl  0  0  0  0  0  0  0  0  0  0  0  0
    7.1329   -0.8959    0.7744 C   0  0  0  0  0  0  0  0  0  0  0  0
    6.5374    0.2861    1.2114 C   0  0  0  0  0  0  0  0  0  0  0  0
    5.2302    0.6145    0.8208 C   0  0  0  0  0  0  0  0  0  0  0  0
    4.5992    2.0989    1.4464 Cl  0  0  0  0  0  0  0  0  0  0  0  0
    2.1354   -0.1025    0.5219 C   0  0  0  0  0  0  0  0  0  0  0  0
    0.7548   -0.2140   -0.1570 C   0  0  0  0  0  0  0  0  0  0  0  0
   -2.3996    1.5994    0.1391 C   0  0  0  0  0  0  0  0  0  0  0  0
   -3.5139    1.1805    0.8565 C   0  0  0  0  0  0  0  0  0  0  0  0
   -3.9763    1.9920    1.8606 O   0  0  0  0  0  0  0  0  0  0  0  0
   -5.1151    2.7263    1.4089 C   0  0  0  0  0  0  0  0  0  0  0  0
   -4.0911   -0.0728    0.6019 C   0  0  0  0  0  0  0  0  0  0  0  0
   -5.1911   -0.4697    1.3254 O   0  0  0  0  0  0  0  0  0  0  0  0
   -4.7722   -1.1961    2.4803 C   0  0  0  0  0  0  0  0  0  0  0  0
   -2.9365   -3.2161   -1.7658 H   0  0  0  0  0  0  0  0  0  0  0  0
   -4.0903   -2.1944   -2.7073 H   0  0  0  0  0  0  0  0  0  0  0  0
   -4.6458   -3.6511   -1.8710 H   0  0  0  0  0  0  0  0  0  0  0  0
   -2.0753   -1.0553   -1.9724 H   0  0  0  0  0  0  0  0  0  0  0  0
    1.6534    0.1707   -2.8151 H   0  0  0  0  0  0  0  0  0  0  0  0
    1.4934    1.9286   -2.7131 H   0  0  0  0  0  0  0  0  0  0  0  0
    3.8155    1.1281   -2.1724 H   0  0  0  0  0  0  0  0  0  0  0  0
    3.0640    2.0567   -0.8595 H   0  0  0  0  0  0  0  0  0  0  0  0
    4.5821   -2.1007   -1.1198 H   0  0  0  0  0  0  0  0  0  0  0  0
    8.1469   -1.1394    1.0824 H   0  0  0  0  0  0  0  0  0  0  0  0
    7.0971    0.9528    1.8639 H   0  0  0  0  0  0  0  0  0  0  0  0
    2.2791   -0.9727    1.1736 H   0  0  0  0  0  0  0  0  0  0  0  0
    2.1458    0.7963    1.1486 H   0  0  0  0  0  0  0  0  0  0  0  0
    0.6618   -1.1874   -0.6551 H   0  0  0  0  0  0  0  0  0  0  0  0
   -0.0230   -0.1571    0.6099 H   0  0  0  0  0  0  0  0  0  0  0  0
   -1.9357    2.5582    0.3495 H   0  0  0  0  0  0  0  0  0  0  0  0
   -5.9174    2.0704    1.0547 H   0  0  0  0  0  0  0  0  0  0  0  0
   -4.8279    3.4340    0.6231 H   0  0  0  0  0  0  0  0  0  0  0  0
   -5.5031    3.3003    2.2569 H   0  0  0  0  0  0  0  0  0  0  0  0
   -4.2106   -2.0947    2.2038 H   0  0  0  0  0  0  0  0  0  0  0  0
   -4.1792   -0.5679    3.1532 H   0  0  0  0  0  0  0  0  0  0  0  0
   -5.6714   -1.5139    3.0187 H   0  0  0  0  0  0  0  0  0  0  0  0
  1  2  1  0
  2  3  1  0
  3  4  2  0
  4  5  1  0
  5  6  1  0
  6  7  2  0
  6  8  1  0
  8  9  1  0
  9 10  1  0
 10 11  1  0
 11 12  1  0
 12 13  2  0
 13 14  1  0
 14 15  1  0
 14 16  2  0
 16 17  1  0
 17 18  2  0
 18 19  1  0
 11 20  1  0
 20 21  1  0
  5 22  2  0
 22 23  1  0
 23 24  1  0
 24 25  1  0
 23 26  2  0
 26 27  1  0
 27 28  1  0
 26  3  1  0
 21  8  1  0
 18 12  1  0
  1 29  1  0
  1 30  1  0
  1 31  1  0
  4 32  1  0
  9 33  1  0
  9 34  1  0
 10 35  1  0
 10 36  1  0
 13 37  1  0
 16 38  1  0
 17 39  1  0
 20 40  1  0
 20 41  1  0
 21 42  1  0
 21 43  1  0
 22 44  1  0
 25 45  1  0
 25 46  1  0
 25 47  1  0
 28 48  1  0
 28 49  1  0
 28 50  1  0
M  END
$$$$
