
     RDKit          3D

 43 46  0  0  0  0  0  0  0  0999 V2000
    8.0265    0.2821    1.2053 C   0  0  0  0  0  0  0  0  0  0  0  0
    6.6818    0.3755    0.5441 C   0  0  0  0  0  0  0  0  0  0  0  0
    6.5926    0.7792   -0.7972 C   0  0  0  0  0  0  0  0  0  0  0  0
    5.3604    0.8895   -1.4545 C   0  0  0  0  0  0  0  0  0  0  0  0
    4.2242    0.5793   -0.7071 C   0  0  0  0  0  0  0  0  0  0  0  0
    2.8879    0.5766   -1.0158 N   0  0  0  0  0  0  0  0  0  0  0  0
    2.1754    0.1867    0.1022 C   0  0  0  0  0  0  0  0  0  0  0  0
    0.7455    0.1019    0.0517 C   0  0  0  0  0  0  0  0  0  0  0  0
    0.0560    0.4101   -1.1631 C   0  0  0  0  0  0  0  0  0  0  0  0
   -0.3912    0.6836   -2.1998 N   0  0  0  0  0  0  0  0  0  0  0  0
    0.1184   -0.2750    1.1853 C   0  0  0  0  0  0  0  0  0  0  0  0
   -1.2911   -0.4153    1.3334 C   0  0  0  0  0  0  0  0  0  0  0  0
   -2.0030   -0.7996    2.4630 C   0  0  0  0  0  0  0  0  0  0  0  0
   -3.3802   -0.7936    2.1318 C   0  0  0  0  0  0  0  0  0  0  0  0
   -3.4615   -0.4087    0.8147 C   0  0  0  0  0  0  0  0  0  0  0  0
   -4.4916   -0.2225   -0.0392 N   0  0  0  0  0  0  0  0  0  0  0  0
   -4.2483    0.1864   -1.4291 C   0  0  0  0  0  0  0  0  0  0  0  0
   -5.5452    0.7293   -2.0497 C   0  0  0  0  0  0  0  0  0  0  0  0
   -6.6399   -0.2009   -2.0400 O   0  0  0  0  0  0  0  0  0  0  0  0
   -6.5540   -1.1708   -0.9866 C   0  0  0  0  0  0  0  0  0  0  0  0
   -5.8531   -0.6551    0.2809 C   0  0  0  0  0  0  0  0  0  0  0  0
   -2.2094   -0.1801    0.3406 O   0  0  0  0  0  0  0  0  0  0  0  0
    3.0067   -0.0568    1.1021 N   0  0  0  0  0  0  0  0  0  0  0  0
    4.2704    0.1798    0.6200 C   0  0  0  0  0  0  0  0  0  0  0  0
    5.5122    0.0745    1.2638 C   0  0  0  0  0  0  0  0  0  0  0  0
    7.9475   -0.1164    2.2222 H   0  0  0  0  0  0  0  0  0  0  0  0
    8.6820   -0.3849    0.6360 H   0  0  0  0  0  0  0  0  0  0  0  0
    8.4852    1.2744    1.2647 H   0  0  0  0  0  0  0  0  0  0  0  0
    7.5016    1.0158   -1.3489 H   0  0  0  0  0  0  0  0  0  0  0  0
    5.3024    1.2028   -2.4911 H   0  0  0  0  0  0  0  0  0  0  0  0
    2.5024    0.8223   -1.9177 H   0  0  0  0  0  0  0  0  0  0  0  0
    0.7126   -0.4948    2.0715 H   0  0  0  0  0  0  0  0  0  0  0  0
   -1.5713   -1.0530    3.4216 H   0  0  0  0  0  0  0  0  0  0  0  0
   -4.2078   -1.0361    2.7811 H   0  0  0  0  0  0  0  0  0  0  0  0
   -3.4850    0.9712   -1.4817 H   0  0  0  0  0  0  0  0  0  0  0  0
   -3.8972   -0.6811   -2.0007 H   0  0  0  0  0  0  0  0  0  0  0  0
   -5.3714    1.0202   -3.0906 H   0  0  0  0  0  0  0  0  0  0  0  0
   -5.8741    1.6258   -1.5114 H   0  0  0  0  0  0  0  0  0  0  0  0
   -7.5745   -1.4876   -0.7490 H   0  0  0  0  0  0  0  0  0  0  0  0
   -6.0258   -2.0458   -1.3837 H   0  0  0  0  0  0  0  0  0  0  0  0
   -6.4038    0.2010    0.6877 H   0  0  0  0  0  0  0  0  0  0  0  0
   -5.8603   -1.4541    1.0307 H   0  0  0  0  0  0  0  0  0  0  0  0
    5.5484   -0.2358    2.3024 H   0  0  0  0  0  0  0  0  0  0  0  0
  1  2  1  0
  2  3  2  0
  3  4  1  0
  4  5  2  0
  5  6  1  0
  6  7  1  0
  7  8  1  0
  8  9  1  0
  9 10  3  0
  8 11  2  3
 11 12  1  0
 12 13  2  0
 13 14  1  0
 14 15  2  0
 15 16  1  0
 16 17  1  0
 17 18  1  0
 18 19  1  0
 19 20  1  0
 20 21  1  0
 15 22  1  0
  7 23  2  0
 23 24  1  0
 24 25  2  0
 25  2  1  0
 24  5  1  0
 22 12  1  0
 21 16  1  0
  1 26  1  0
  1 27  1  0
  1 28  1  0
  3 29  1  0
  4 30  1  0
  6 31  1  0
 11 32  1  0
 13 33  1  0
 14 34  1  0
 17 35  1  0
 17 36  1  0
 18 37  1  0
 18 38  1  0
 20 39  1  0
 20 40  1  0
 21 41  1  0
 21 42  1  0
 25 43  1  0
M  END
$$$$
