
     RDKit          3D

 50 51  0  0  0  0  0  0  0  0999 V2000
    6.1860    0.7334   -1.6010 C   0  0  0  0  0  0  0  0  0  0  0  0
    5.2555    0.9706   -0.4481 C   0  0  0  0  0  0  0  0  0  0  0  0
    5.6127    0.5694    0.8449 C   0  0  0  0  0  0  0  0  0  0  0  0
    4.7619    0.8190    1.9244 C   0  0  0  0  0  0  0  0  0  0  0  0
    3.5446    1.4786    1.7243 C   0  0  0  0  0  0  0  0  0  0  0  0
    2.6510    1.7422    2.8515 C   0  0  0  0  0  0  0  0  0  0  0  0
    2.7162    2.8753    3.5619 C   0  0  0  0  0  0  0  0  0  0  0  0
    1.5165    2.9228    4.8082 S   0  0  0  0  0  0  0  0  0  0  0  0
    0.8781    1.3359    4.3241 C   0  0  0  0  0  0  0  0  0  0  0  0
   -0.4207    0.6160    5.0769 S   0  0  0  0  0  0  0  0  0  0  0  0
    1.6579    0.8594    3.2663 N   0  0  0  0  0  0  0  0  0  0  0  0
    1.3935   -0.4023    2.5612 C   0  0  0  0  0  0  0  0  0  0  0  0
    0.5732   -0.1865    1.2962 C   0  0  0  0  0  0  0  0  0  0  0  0
   -0.1067    0.7994    1.0401 O   0  0  0  0  0  0  0  0  0  0  0  0
    0.6989   -1.2735    0.4788 O   0  0  0  0  0  0  0  0  0  0  0  0
   -0.1521   -1.2353   -0.6652 C   0  0  0  0  0  0  0  0  0  0  0  0
   -1.6068   -1.5605   -0.3169 C   0  0  0  0  0  0  0  0  0  0  0  0
   -1.9211   -2.1704    0.7019 O   0  0  0  0  0  0  0  0  0  0  0  0
   -2.5203   -1.1205   -1.2549 N   0  0  0  0  0  0  0  0  0  0  0  0
   -3.9505   -1.3944   -1.1297 C   0  0  0  0  0  0  0  0  0  0  0  0
   -4.2584   -2.8010   -1.6477 C   0  0  0  0  0  0  0  0  0  0  0  0
   -4.7781   -0.2708   -1.8044 C   0  0  0  0  0  0  0  0  0  0  0  0
   -4.7079   -0.2840   -3.3346 C   0  0  0  0  0  0  0  0  0  0  0  0
   -6.2429   -0.3094   -1.3568 C   0  0  0  0  0  0  0  0  0  0  0  0
    3.1962    1.9016    0.4366 C   0  0  0  0  0  0  0  0  0  0  0  0
    4.0476    1.6511   -0.6417 C   0  0  0  0  0  0  0  0  0  0  0  0
    5.6262    0.5990   -2.5324 H   0  0  0  0  0  0  0  0  0  0  0  0
    6.7788   -0.1740   -1.4446 H   0  0  0  0  0  0  0  0  0  0  0  0
    6.8648    1.5842   -1.7150 H   0  0  0  0  0  0  0  0  0  0  0  0
    6.5580    0.0599    1.0201 H   0  0  0  0  0  0  0  0  0  0  0  0
    5.0561    0.4957    2.9207 H   0  0  0  0  0  0  0  0  0  0  0  0
    3.4117    3.6868    3.3941 H   0  0  0  0  0  0  0  0  0  0  0  0
    2.3491   -0.8724    2.3073 H   0  0  0  0  0  0  0  0  0  0  0  0
    0.8443   -1.0956    3.2037 H   0  0  0  0  0  0  0  0  0  0  0  0
   -0.0750   -0.2699   -1.1790 H   0  0  0  0  0  0  0  0  0  0  0  0
    0.1987   -2.0061   -1.3595 H   0  0  0  0  0  0  0  0  0  0  0  0
   -2.1791   -0.7235   -2.1198 H   0  0  0  0  0  0  0  0  0  0  0  0
   -4.1802   -1.3821   -0.0563 H   0  0  0  0  0  0  0  0  0  0  0  0
   -5.3231   -3.0364   -1.5649 H   0  0  0  0  0  0  0  0  0  0  0  0
   -3.7101   -3.5537   -1.0701 H   0  0  0  0  0  0  0  0  0  0  0  0
   -3.9556   -2.9214   -2.6931 H   0  0  0  0  0  0  0  0  0  0  0  0
   -4.3669    0.6913   -1.4685 H   0  0  0  0  0  0  0  0  0  0  0  0
   -3.6739   -0.2472   -3.6898 H   0  0  0  0  0  0  0  0  0  0  0  0
   -5.2267    0.5884   -3.7470 H   0  0  0  0  0  0  0  0  0  0  0  0
   -5.1831   -1.1760   -3.7549 H   0  0  0  0  0  0  0  0  0  0  0  0
   -6.3184   -0.2776   -0.2649 H   0  0  0  0  0  0  0  0  0  0  0  0
   -6.7882    0.5550   -1.7512 H   0  0  0  0  0  0  0  0  0  0  0  0
   -6.7526   -1.2116   -1.7087 H   0  0  0  0  0  0  0  0  0  0  0  0
    2.2581    2.4278    0.2656 H   0  0  0  0  0  0  0  0  0  0  0  0
    3.7625    1.9934   -1.6342 H   0  0  0  0  0  0  0  0  0  0  0  0
  1  2  1  0
  2  3  2  0
  3  4  1  0
  4  5  2  0
  5  6  1  0
  6  7  2  0
  7  8  1  0
  8  9  1  0
  9 10  2  0
  9 11  1  0
 11 12  1  0
 12 13  1  0
 13 14  2  0
 13 15  1  0
 15 16  1  0
 16 17  1  0
 17 18  2  0
 17 19  1  0
 19 20  1  0
 20 21  1  0
 20 22  1  0
 22 23  1  0
 22 24  1  0
  5 25  1  0
 25 26  2  0
 26  2  1  0
 11  6  1  0
  1 27  1  0
  1 28  1  0
  1 29  1  0
  3 30  1  0
  4 31  1  0
  7 32  1  0
 12 33  1  0
 12 34  1  0
 16 35  1  0
 16 36  1  0
 19 37  1  0
 20 38  1  0
 21 39  1  0
 21 40  1  0
 21 41  1  0
 22 42  1  0
 23 43  1  0
 23 44  1  0
 23 45  1  0
 24 46  1  0
 24 47  1  0
 24 48  1  0
 25 49  1  0
 26 50  1  0
M  END
$$$$
