
     RDKit          3D

 59 62  0  0  0  0  0  0  0  0999 V2000
    9.6376    1.5347   -2.0210 C   0  0  0  0  0  0  0  0  0  0  0  0
    8.3689    0.7874   -1.6510 C   0  0  0  0  0  0  0  0  0  0  0  0
    7.9525    1.2387   -0.3634 O   0  0  0  0  0  0  0  0  0  0  0  0
    6.8371    0.6550    0.1702 C   0  0  0  0  0  0  0  0  0  0  0  0
    6.5124    1.0874    1.4578 C   0  0  0  0  0  0  0  0  0  0  0  0
    5.3971    0.5744    2.1239 C   0  0  0  0  0  0  0  0  0  0  0  0
    4.5848   -0.3820    1.5051 C   0  0  0  0  0  0  0  0  0  0  0  0
    3.3616   -0.9256    2.2071 C   0  0  0  0  0  0  0  0  0  0  0  0
    2.2001    0.0746    2.2331 C   0  0  0  0  0  0  0  0  0  0  0  0
    1.7354    0.4395    0.9064 N   0  0  0  0  0  0  0  0  0  0  0  0
    0.9175   -0.3973    0.1755 C   0  0  0  0  0  0  0  0  0  0  0  0
    0.4632   -1.4467    0.6245 O   0  0  0  0  0  0  0  0  0  0  0  0
    0.6246    0.0899   -1.2343 C   0  0  0  0  0  0  0  0  0  0  0  0
   -0.8462    0.3344   -1.4629 C   0  0  0  0  0  0  0  0  0  0  0  0
   -1.4229    1.5658   -1.1241 C   0  0  0  0  0  0  0  0  0  0  0  0
   -2.7914    1.7776   -1.3070 C   0  0  0  0  0  0  0  0  0  0  0  0
   -3.6035    0.7615   -1.8140 C   0  0  0  0  0  0  0  0  0  0  0  0
   -4.9805    0.9612   -1.9678 N   0  0  0  0  0  0  0  0  0  0  0  0
   -5.7385    0.7017   -0.9633 C   0  0  0  0  0  0  0  0  0  0  0  0
   -5.4412    0.2309    0.2881 N   0  0  0  0  0  0  0  0  0  0  0  0
   -6.5576   -0.2839    1.0575 C   0  0  0  0  0  0  0  0  0  0  0  0
   -6.8277   -1.7473    0.7447 C   0  0  0  0  0  0  0  0  0  0  0  0
   -8.5365   -1.9501    1.1660 S   0  0  0  0  0  6  0  0  0  0  0  0
   -9.1631   -2.8220    0.1976 O   0  0  0  0  0  0  0  0  0  0  0  0
   -8.6082   -2.2017    2.5913 O   0  0  0  0  0  0  0  0  0  0  0  0
   -9.0526   -0.2699    0.8795 C   0  0  0  0  0  0  0  0  0  0  0  0
   -7.7879    0.5316    0.6245 C   0  0  0  0  0  0  0  0  0  0  0  0
   -7.4823    0.9126   -1.1417 S   0  0  0  0  0  0  0  0  0  0  0  0
   -3.0281   -0.4595   -2.1702 C   0  0  0  0  0  0  0  0  0  0  0  0
   -1.6611   -0.6777   -1.9871 C   0  0  0  0  0  0  0  0  0  0  0  0
    4.9119   -0.8131    0.2131 C   0  0  0  0  0  0  0  0  0  0  0  0
    6.0312   -0.2983   -0.4506 C   0  0  0  0  0  0  0  0  0  0  0  0
   10.4222    1.3527   -1.2792 H   0  0  0  0  0  0  0  0  0  0  0  0
    9.4580    2.6148   -2.0366 H   0  0  0  0  0  0  0  0  0  0  0  0
   10.0013    1.2227   -3.0040 H   0  0  0  0  0  0  0  0  0  0  0  0
    7.5957    1.0038   -2.3972 H   0  0  0  0  0  0  0  0  0  0  0  0
    8.5809   -0.2879   -1.6286 H   0  0  0  0  0  0  0  0  0  0  0  0
    7.1385    1.8287    1.9486 H   0  0  0  0  0  0  0  0  0  0  0  0
    5.1729    0.9259    3.1283 H   0  0  0  0  0  0  0  0  0  0  0  0
    3.0445   -1.8595    1.7270 H   0  0  0  0  0  0  0  0  0  0  0  0
    3.6360   -1.1919    3.2354 H   0  0  0  0  0  0  0  0  0  0  0  0
    1.3608   -0.3576    2.7894 H   0  0  0  0  0  0  0  0  0  0  0  0
    2.4922    1.0036    2.7342 H   0  0  0  0  0  0  0  0  0  0  0  0
    2.2560    1.1597    0.4209 H   0  0  0  0  0  0  0  0  0  0  0  0
    1.0033   -0.6651   -1.9341 H   0  0  0  0  0  0  0  0  0  0  0  0
    1.1842    1.0070   -1.4545 H   0  0  0  0  0  0  0  0  0  0  0  0
   -0.8142    2.3684   -0.7139 H   0  0  0  0  0  0  0  0  0  0  0  0
   -3.2325    2.7359   -1.0466 H   0  0  0  0  0  0  0  0  0  0  0  0
   -4.5174   -0.1703    0.4177 H   0  0  0  0  0  0  0  0  0  0  0  0
   -6.3784   -0.1522    2.1310 H   0  0  0  0  0  0  0  0  0  0  0  0
   -6.2154   -2.4243    1.3451 H   0  0  0  0  0  0  0  0  0  0  0  0
   -6.7040   -1.9946   -0.3141 H   0  0  0  0  0  0  0  0  0  0  0  0
   -9.7710   -0.2425    0.0564 H   0  0  0  0  0  0  0  0  0  0  0  0
   -9.5466    0.0691    1.7957 H   0  0  0  0  0  0  0  0  0  0  0  0
   -7.8250    1.4961    1.1428 H   0  0  0  0  0  0  0  0  0  0  0  0
   -3.6513   -1.2467   -2.5858 H   0  0  0  0  0  0  0  0  0  0  0  0
   -1.2382   -1.6456   -2.2493 H   0  0  0  0  0  0  0  0  0  0  0  0
    4.2963   -1.5583   -0.2874 H   0  0  0  0  0  0  0  0  0  0  0  0
    6.2444   -0.6654   -1.4488 H   0  0  0  0  0  0  0  0  0  0  0  0
  1  2  1  0
  2  3  1  0
  3  4  1  0
  4  5  2  0
  5  6  1  0
  6  7  2  0
  7  8  1  0
  8  9  1  0
  9 10  1  0
 10 11  1  0
 11 12  2  0
 11 13  1  0
 13 14  1  0
 14 15  2  0
 15 16  1  0
 16 17  2  0
 17 18  1  0
 18 19  2  3
 19 20  1  0
 20 21  1  0
 21 22  1  0
 22 23  1  0
 23 24  2  0
 23 25  2  0
 23 26  1  0
 26 27  1  0
 27 28  1  0
 17 29  1  0
 29 30  2  0
  7 31  1  0
 31 32  2  0
 32  4  1  0
 30 14  1  0
 28 19  1  0
 27 21  1  0
  1 33  1  0
  1 34  1  0
  1 35  1  0
  2 36  1  0
  2 37  1  0
  5 38  1  0
  6 39  1  0
  8 40  1  0
  8 41  1  0
  9 42  1  0
  9 43  1  0
 10 44  1  0
 13 45  1  0
 13 46  1  0
 15 47  1  0
 16 48  1  0
 20 49  1  0
 21 50  1  0
 22 51  1  0
 22 52  1  0
 26 53  1  0
 26 54  1  0
 27 55  1  0
 29 56  1  0
 30 57  1  0
 31 58  1  0
 32 59  1  0
M  END
$$$$
