
     RDKit          3D

 47 49  0  0  0  0  0  0  0  0999 V2000
    8.3136   -1.1856   -0.2812 C   0  0  0  0  0  0  0  0  0  0  0  0
    6.8060   -1.3122   -0.1552 C   0  0  0  0  0  0  0  0  0  0  0  0
    6.2231   -0.0903   -0.6043 O   0  0  0  0  0  0  0  0  0  0  0  0
    4.8598    0.0018   -0.5635 C   0  0  0  0  0  0  0  0  0  0  0  0
    4.3443    1.2281   -0.9869 C   0  0  0  0  0  0  0  0  0  0  0  0
    2.9654    1.4637   -0.9974 C   0  0  0  0  0  0  0  0  0  0  0  0
    2.0790    0.4609   -0.5936 C   0  0  0  0  0  0  0  0  0  0  0  0
    0.6633    0.6819   -0.6044 N   0  0  0  0  0  0  0  0  0  0  0  0
    0.0129    1.8917   -0.3645 C   0  0  0  0  0  0  0  0  0  0  0  0
    0.6644    3.0326   -0.1441 O   0  0  0  0  0  0  0  0  0  0  0  0
   -1.3422    1.6469   -0.3114 C   0  0  0  0  0  0  0  0  0  0  0  0
   -1.5616    0.2777   -0.5837 C   0  0  0  0  0  0  0  0  0  0  0  0
   -2.7771   -0.3499   -0.6227 N   0  0  0  0  0  0  0  0  0  0  0  0
   -2.8678   -1.8000   -0.7758 C   0  0  0  0  0  0  0  0  0  0  0  0
   -4.0307    0.3859   -0.8141 C   0  0  0  0  0  0  0  0  0  0  0  0
   -4.9261    0.3464    0.4094 C   0  0  0  0  0  0  0  0  0  0  0  0
   -4.4060    0.4169    1.7107 C   0  0  0  0  0  0  0  0  0  0  0  0
   -5.2539    0.4185    2.8201 C   0  0  0  0  0  0  0  0  0  0  0  0
   -6.6344    0.3612    2.6434 C   0  0  0  0  0  0  0  0  0  0  0  0
   -7.1680    0.3047    1.3580 C   0  0  0  0  0  0  0  0  0  0  0  0
   -6.3204    0.3023    0.2479 C   0  0  0  0  0  0  0  0  0  0  0  0
   -0.3211   -0.2907   -0.8300 C   0  0  0  0  0  0  0  0  0  0  0  0
   -0.0417   -1.5240   -1.2722 O   0  0  0  0  0  0  0  0  0  0  0  0
    2.5981   -0.7670   -0.1560 C   0  0  0  0  0  0  0  0  0  0  0  0
    3.9805   -0.9945   -0.1435 C   0  0  0  0  0  0  0  0  0  0  0  0
    8.8109   -2.1008    0.0522 H   0  0  0  0  0  0  0  0  0  0  0  0
    8.6813   -0.3451    0.3167 H   0  0  0  0  0  0  0  0  0  0  0  0
    8.5982   -0.9866   -1.3198 H   0  0  0  0  0  0  0  0  0  0  0  0
    6.4641   -2.1478   -0.7767 H   0  0  0  0  0  0  0  0  0  0  0  0
    6.5488   -1.4932    0.8949 H   0  0  0  0  0  0  0  0  0  0  0  0
    5.0231    2.0126   -1.3135 H   0  0  0  0  0  0  0  0  0  0  0  0
    2.6132    2.4271   -1.3558 H   0  0  0  0  0  0  0  0  0  0  0  0
    0.0002    3.7111    0.0718 H   0  0  0  0  0  0  0  0  0  0  0  0
   -2.0921    2.3896   -0.0801 H   0  0  0  0  0  0  0  0  0  0  0  0
   -2.5984   -2.0992   -1.7943 H   0  0  0  0  0  0  0  0  0  0  0  0
   -3.8866   -2.1585   -0.5886 H   0  0  0  0  0  0  0  0  0  0  0  0
   -2.2217   -2.3164   -0.0574 H   0  0  0  0  0  0  0  0  0  0  0  0
   -3.8668    1.4354   -1.0850 H   0  0  0  0  0  0  0  0  0  0  0  0
   -4.5615   -0.0554   -1.6685 H   0  0  0  0  0  0  0  0  0  0  0  0
   -3.3300    0.4603    1.8669 H   0  0  0  0  0  0  0  0  0  0  0  0
   -4.8336    0.4636    3.8213 H   0  0  0  0  0  0  0  0  0  0  0  0
   -7.2932    0.3619    3.5075 H   0  0  0  0  0  0  0  0  0  0  0  0
   -8.2452    0.2641    1.2190 H   0  0  0  0  0  0  0  0  0  0  0  0
   -6.7570    0.2643   -0.7476 H   0  0  0  0  0  0  0  0  0  0  0  0
    0.8049   -1.4889   -1.7513 H   0  0  0  0  0  0  0  0  0  0  0  0
    1.9481   -1.5492    0.2326 H   0  0  0  0  0  0  0  0  0  0  0  0
    4.3342   -1.9558    0.2140 H   0  0  0  0  0  0  0  0  0  0  0  0
  1  2  1  0
  2  3  1  0
  3  4  1  0
  4  5  2  0
  5  6  1  0
  6  7  2  0
  7  8  1  0
  8  9  1  0
  9 10  1  0
  9 11  2  0
 11 12  1  0
 12 13  1  0
 13 14  1  0
 13 15  1  0
 15 16  1  0
 16 17  2  0
 17 18  1  0
 18 19  2  0
 19 20  1  0
 20 21  2  0
 12 22  2  0
 22 23  1  0
  7 24  1  0
 24 25  2  0
 25  4  1  0
 22  8  1  0
 21 16  1  0
  1 26  1  0
  1 27  1  0
  1 28  1  0
  2 29  1  0
  2 30  1  0
  5 31  1  0
  6 32  1  0
 10 33  1  0
 11 34  1  0
 14 35  1  0
 14 36  1  0
 14 37  1  0
 15 38  1  0
 15 39  1  0
 17 40  1  0
 18 41  1  0
 19 42  1  0
 20 43  1  0
 21 44  1  0
 23 45  1  0
 24 46  1  0
 25 47  1  0
M  END
$$$$
