
     RDKit          3D

 43 45  0  0  0  0  0  0  0  0999 V2000
    6.3418    2.1424   -2.0828 C   0  0  0  0  0  0  0  0  0  0  0  0
    5.6856    0.9120   -1.8038 O   0  0  0  0  0  0  0  0  0  0  0  0
    4.6297    0.9569   -0.9349 C   0  0  0  0  0  0  0  0  0  0  0  0
    4.1394    2.0962   -0.2989 C   0  0  0  0  0  0  0  0  0  0  0  0
    3.0557    1.9941    0.5759 C   0  0  0  0  0  0  0  0  0  0  0  0
    2.4524    0.7569    0.8110 C   0  0  0  0  0  0  0  0  0  0  0  0
    2.9173   -0.3862    0.1611 C   0  0  0  0  0  0  0  0  0  0  0  0
    2.3816   -1.6769    0.3719 N   0  0  0  0  0  0  0  0  0  0  0  0
    1.2802   -2.0454    1.0950 C   0  0  0  0  0  0  0  0  0  0  0  0
    1.4328   -3.4361    2.0261 S   0  0  0  0  0  0  0  0  0  0  0  0
    0.1132   -1.3108    0.9500 N   0  0  0  0  0  0  0  0  0  0  0  0
   -0.2317   -0.6986   -0.3533 C   0  0  0  0  0  0  0  0  0  0  0  0
   -1.7274   -0.8288   -0.6981 C   0  0  0  0  0  0  0  0  0  0  0  0
   -2.5466   -0.1903    0.3462 N   0  0  0  0  0  0  0  0  0  0  0  0
   -3.9159   -0.1485    0.0941 C   0  0  0  0  0  0  0  0  0  0  0  0
   -4.7769    0.5648    0.9312 C   0  0  0  0  0  0  0  0  0  0  0  0
   -6.1441    0.6128    0.6580 C   0  0  0  0  0  0  0  0  0  0  0  0
   -6.6335   -0.0463   -0.4572 C   0  0  0  0  0  0  0  0  0  0  0  0
   -5.7262   -0.7169   -1.2532 C   0  0  0  0  0  0  0  0  0  0  0  0
   -4.3983   -0.7726   -1.0038 N   0  0  0  0  0  0  0  0  0  0  0  0
   -2.0956   -0.3787    1.7365 C   0  0  0  0  0  0  0  0  0  0  0  0
   -1.0327   -1.4871    1.8619 C   0  0  0  0  0  0  0  0  0  0  0  0
    4.0199   -0.2792   -0.6937 C   0  0  0  0  0  0  0  0  0  0  0  0
    7.1536    1.9360   -2.7869 H   0  0  0  0  0  0  0  0  0  0  0  0
    6.7869    2.5667   -1.1767 H   0  0  0  0  0  0  0  0  0  0  0  0
    5.6601    2.8541   -2.5600 H   0  0  0  0  0  0  0  0  0  0  0  0
    4.5807    3.0750   -0.4536 H   0  0  0  0  0  0  0  0  0  0  0  0
    2.6846    2.8802    1.0850 H   0  0  0  0  0  0  0  0  0  0  0  0
    1.6363    0.7055    1.5253 H   0  0  0  0  0  0  0  0  0  0  0  0
    3.0530   -2.4288    0.2536 H   0  0  0  0  0  0  0  0  0  0  0  0
    0.3663   -1.1500   -1.1518 H   0  0  0  0  0  0  0  0  0  0  0  0
    0.0170    0.3656   -0.2898 H   0  0  0  0  0  0  0  0  0  0  0  0
   -1.8984   -0.3422   -1.6664 H   0  0  0  0  0  0  0  0  0  0  0  0
   -1.9873   -1.8913   -0.7932 H   0  0  0  0  0  0  0  0  0  0  0  0
   -4.3907    1.1087    1.7862 H   0  0  0  0  0  0  0  0  0  0  0  0
   -6.8125    1.1689    1.3082 H   0  0  0  0  0  0  0  0  0  0  0  0
   -7.6881   -0.0311   -0.7050 H   0  0  0  0  0  0  0  0  0  0  0  0
   -6.0481   -1.2456   -2.1455 H   0  0  0  0  0  0  0  0  0  0  0  0
   -1.6690    0.5704    2.0827 H   0  0  0  0  0  0  0  0  0  0  0  0
   -2.9207   -0.6355    2.4117 H   0  0  0  0  0  0  0  0  0  0  0  0
   -0.6659   -1.5237    2.8937 H   0  0  0  0  0  0  0  0  0  0  0  0
   -1.4902   -2.4579    1.6322 H   0  0  0  0  0  0  0  0  0  0  0  0
    4.4114   -1.1591   -1.1984 H   0  0  0  0  0  0  0  0  0  0  0  0
  1  2  1  0
  2  3  1  0
  3  4  2  0
  4  5  1  0
  5  6  2  0
  6  7  1  0
  7  8  1  0
  8  9  1  0
  9 10  2  0
  9 11  1  0
 11 12  1  0
 12 13  1  0
 13 14  1  0
 14 15  1  0
 15 16  2  0
 16 17  1  0
 17 18  2  0
 18 19  1  0
 19 20  2  0
 14 21  1  0
 21 22  1  0
  7 23  2  0
 23  3  1  0
 22 11  1  0
 20 15  1  0
  1 24  1  0
  1 25  1  0
  1 26  1  0
  4 27  1  0
  5 28  1  0
  6 29  1  0
  8 30  1  0
 12 31  1  0
 12 32  1  0
 13 33  1  0
 13 34  1  0
 16 35  1  0
 17 36  1  0
 18 37  1  0
 19 38  1  0
 21 39  1  0
 21 40  1  0
 22 41  1  0
 22 42  1  0
 23 43  1  0
M  END
$$$$
