
     RDKit          3D

 41 44  0  0  0  0  0  0  0  0999 V2000
   -4.5237   -0.4388    2.5550 C   0  0  0  0  0  0  0  0  0  0  0  0
   -4.0431   -0.5691    1.2234 O   0  0  0  0  0  0  0  0  0  0  0  0
   -4.5711    0.2736    0.2774 C   0  0  0  0  0  0  0  0  0  0  0  0
   -5.5823    1.2092    0.5187 C   0  0  0  0  0  0  0  0  0  0  0  0
   -6.0588    2.0194   -0.5164 C   0  0  0  0  0  0  0  0  0  0  0  0
   -5.5324    1.9017   -1.8000 C   0  0  0  0  0  0  0  0  0  0  0  0
   -4.5250    0.9728   -2.0543 C   0  0  0  0  0  0  0  0  0  0  0  0
   -4.0389    0.1581   -1.0224 C   0  0  0  0  0  0  0  0  0  0  0  0
   -2.9713   -0.8012   -1.3356 C   0  0  0  0  0  0  0  0  0  0  0  0
   -1.6705   -0.6102   -1.0773 C   0  0  0  0  0  0  0  0  0  0  0  0
   -0.9336    0.8070   -0.3502 S   0  0  0  0  0  0  0  0  0  0  0  0
    0.6010    0.0525   -0.4624 C   0  0  0  0  0  0  0  0  0  0  0  0
    1.8191    0.3745   -0.1416 N   0  0  0  0  0  0  0  0  0  0  0  0
    2.5367   -0.7433   -0.5610 C   0  0  0  0  0  0  0  0  0  0  0  0
    3.9861   -0.8614   -0.4030 C   0  0  0  0  0  0  0  0  0  0  0  0
    4.5623   -2.1398   -0.2854 C   0  0  0  0  0  0  0  0  0  0  0  0
    5.9427   -2.2986   -0.1313 C   0  0  0  0  0  0  0  0  0  0  0  0
    6.7730   -1.1817   -0.1037 C   0  0  0  0  0  0  0  0  0  0  0  0
    6.2235    0.0929   -0.2278 C   0  0  0  0  0  0  0  0  0  0  0  0
    4.8379    0.2540   -0.3599 C   0  0  0  0  0  0  0  0  0  0  0  0
    4.3584    1.5257   -0.5508 O   0  0  0  0  0  0  0  0  0  0  0  0
    4.2902    2.2250    0.6926 C   0  0  0  0  0  0  0  0  0  0  0  0
    1.7701   -1.7322   -1.0803 N   0  0  0  0  0  0  0  0  0  0  0  0
    0.5501   -1.1737   -1.0139 N   0  0  0  0  0  0  0  0  0  0  0  0
   -0.6721   -1.6708   -1.4106 C   0  0  0  0  0  0  0  0  0  0  0  0
   -0.8351   -2.7623   -1.9256 O   0  0  0  0  0  0  0  0  0  0  0  0
   -3.9836   -1.1594    3.1766 H   0  0  0  0  0  0  0  0  0  0  0  0
   -5.5896   -0.6817    2.6148 H   0  0  0  0  0  0  0  0  0  0  0  0
   -4.3208    0.5610    2.9530 H   0  0  0  0  0  0  0  0  0  0  0  0
   -6.0248    1.3342    1.5013 H   0  0  0  0  0  0  0  0  0  0  0  0
   -6.8450    2.7442   -0.3181 H   0  0  0  0  0  0  0  0  0  0  0  0
   -5.9056    2.5332   -2.6023 H   0  0  0  0  0  0  0  0  0  0  0  0
   -4.1206    0.8909   -3.0607 H   0  0  0  0  0  0  0  0  0  0  0  0
   -3.3142   -1.7289   -1.7900 H   0  0  0  0  0  0  0  0  0  0  0  0
    3.9328   -3.0280   -0.3161 H   0  0  0  0  0  0  0  0  0  0  0  0
    6.3664   -3.2960   -0.0440 H   0  0  0  0  0  0  0  0  0  0  0  0
    7.8480   -1.3035   -0.0003 H   0  0  0  0  0  0  0  0  0  0  0  0
    6.8752    0.9622   -0.2387 H   0  0  0  0  0  0  0  0  0  0  0  0
    3.7016    3.1335    0.5337 H   0  0  0  0  0  0  0  0  0  0  0  0
    3.7961    1.6318    1.4705 H   0  0  0  0  0  0  0  0  0  0  0  0
    5.2908    2.5231    1.0229 H   0  0  0  0  0  0  0  0  0  0  0  0
  1  2  1  0
  2  3  1  0
  3  4  2  0
  4  5  1  0
  5  6  2  0
  6  7  1  0
  7  8  2  0
  8  9  1  0
  9 10  2  3
 10 11  1  0
 11 12  1  0
 12 13  2  0
 13 14  1  0
 14 15  1  0
 15 16  2  0
 16 17  1  0
 17 18  2  0
 18 19  1  0
 19 20  2  0
 20 21  1  0
 21 22  1  0
 14 23  2  0
 23 24  1  0
 24 25  1  0
 25 26  2  0
  8  3  1  0
 25 10  1  0
 24 12  1  0
 20 15  1  0
  1 27  1  0
  1 28  1  0
  1 29  1  0
  4 30  1  0
  5 31  1  0
  6 32  1  0
  7 33  1  0
  9 34  1  0
 16 35  1  0
 17 36  1  0
 18 37  1  0
 19 38  1  0
 22 39  1  0
 22 40  1  0
 22 41  1  0
M  END
$$$$
