
     RDKit          3D

 60 64  0  0  0  0  0  0  0  0999 V2000
    3.1857    2.6387   -0.8830 C   0  0  0  0  0  0  0  0  0  0  0  0
    3.3749    1.3108   -0.4136 O   0  0  0  0  0  0  0  0  0  0  0  0
    4.6375    0.9294   -0.0346 C   0  0  0  0  0  0  0  0  0  0  0  0
    5.7489    1.7843   -0.0701 C   0  0  0  0  0  0  0  0  0  0  0  0
    7.0007    1.3477    0.3712 C   0  0  0  0  0  0  0  0  0  0  0  0
    7.1573    0.0558    0.8585 C   0  0  0  0  0  0  0  0  0  0  0  0
    6.0615   -0.8053    0.8956 C   0  0  0  0  0  0  0  0  0  0  0  0
    4.7950   -0.3915    0.4405 C   0  0  0  0  0  0  0  0  0  0  0  0
    3.6996   -1.3592    0.5058 C   0  0  0  0  0  0  0  0  0  0  0  0
    3.5436   -2.3794    1.3297 N   0  0  0  0  0  0  0  0  0  0  0  0
    2.3485   -2.9335    0.9246 C   0  0  0  0  0  0  0  0  0  0  0  0
    1.8014   -4.0726    1.5832 C   0  0  0  0  0  0  0  0  0  0  0  0
    1.3252   -4.9898    2.1150 N   0  0  0  0  0  0  0  0  0  0  0  0
    1.8218   -2.2448   -0.1523 C   0  0  0  0  0  0  0  0  0  0  0  0
    0.6968   -2.3220   -0.9200 N   0  0  0  0  0  0  0  0  0  0  0  0
   -0.5548   -2.7808   -0.2824 C   0  0  0  0  0  0  0  0  0  0  0  0
   -1.8102   -2.2381   -1.0058 C   0  0  0  0  0  0  0  0  0  0  0  0
   -1.8484   -0.7661   -1.2150 N   0  0  0  0  0  0  0  0  0  0  0  0
   -2.3798   -0.0269   -0.0296 C   0  0  0  0  0  0  0  0  0  0  0  0
   -2.3572    1.5000   -0.2043 C   0  0  0  0  0  0  0  0  0  0  0  0
   -1.8465    2.3139    0.8219 C   0  0  0  0  0  0  0  0  0  0  0  0
   -1.8258    3.7036    0.6869 C   0  0  0  0  0  0  0  0  0  0  0  0
   -2.3185    4.3001   -0.4716 C   0  0  0  0  0  0  0  0  0  0  0  0
   -2.8340    3.5092   -1.4960 C   0  0  0  0  0  0  0  0  0  0  0  0
   -2.8558    2.1197   -1.3630 C   0  0  0  0  0  0  0  0  0  0  0  0
   -3.7891   -0.4678    0.3879 C   0  0  0  0  0  0  0  0  0  0  0  0
   -4.8138   -0.6626   -0.5546 C   0  0  0  0  0  0  0  0  0  0  0  0
   -6.0923   -1.0504   -0.1503 C   0  0  0  0  0  0  0  0  0  0  0  0
   -6.3679   -1.2430    1.2014 C   0  0  0  0  0  0  0  0  0  0  0  0
   -5.3671   -1.0461    2.1503 C   0  0  0  0  0  0  0  0  0  0  0  0
   -4.0873   -0.6582    1.7483 C   0  0  0  0  0  0  0  0  0  0  0  0
   -0.4917   -0.2659   -1.5887 C   0  0  0  0  0  0  0  0  0  0  0  0
    0.5050   -1.3597   -2.0222 C   0  0  0  0  0  0  0  0  0  0  0  0
    2.7175   -1.2510   -0.4384 O   0  0  0  0  0  0  0  0  0  0  0  0
    2.1274    2.7546   -1.1366 H   0  0  0  0  0  0  0  0  0  0  0  0
    3.7676    2.8226   -1.7920 H   0  0  0  0  0  0  0  0  0  0  0  0
    3.4226    3.3704   -0.1038 H   0  0  0  0  0  0  0  0  0  0  0  0
    5.6740    2.8051   -0.4307 H   0  0  0  0  0  0  0  0  0  0  0  0
    7.8526    2.0228    0.3399 H   0  0  0  0  0  0  0  0  0  0  0  0
    8.1285   -0.2836    1.2097 H   0  0  0  0  0  0  0  0  0  0  0  0
    6.1968   -1.8156    1.2801 H   0  0  0  0  0  0  0  0  0  0  0  0
   -0.5817   -3.8763   -0.2947 H   0  0  0  0  0  0  0  0  0  0  0  0
   -0.5936   -2.4528    0.7641 H   0  0  0  0  0  0  0  0  0  0  0  0
   -1.8599   -2.7015   -2.0007 H   0  0  0  0  0  0  0  0  0  0  0  0
   -2.7027   -2.6100   -0.4924 H   0  0  0  0  0  0  0  0  0  0  0  0
   -1.7074   -0.2675    0.8073 H   0  0  0  0  0  0  0  0  0  0  0  0
   -1.4621    1.8688    1.7367 H   0  0  0  0  0  0  0  0  0  0  0  0
   -1.4298    4.3208    1.4891 H   0  0  0  0  0  0  0  0  0  0  0  0
   -2.3065    5.3819   -0.5741 H   0  0  0  0  0  0  0  0  0  0  0  0
   -3.2235    3.9726   -2.3985 H   0  0  0  0  0  0  0  0  0  0  0  0
   -3.2594    1.5153   -2.1722 H   0  0  0  0  0  0  0  0  0  0  0  0
   -4.6132   -0.5189   -1.6139 H   0  0  0  0  0  0  0  0  0  0  0  0
   -6.8729   -1.1991   -0.8915 H   0  0  0  0  0  0  0  0  0  0  0  0
   -7.3642   -1.5422    1.5156 H   0  0  0  0  0  0  0  0  0  0  0  0
   -5.5846   -1.1896    3.2056 H   0  0  0  0  0  0  0  0  0  0  0  0
   -3.3237   -0.5008    2.5065 H   0  0  0  0  0  0  0  0  0  0  0  0
   -0.0238    0.2698   -0.7520 H   0  0  0  0  0  0  0  0  0  0  0  0
   -0.6048    0.4492   -2.4112 H   0  0  0  0  0  0  0  0  0  0  0  0
    0.1200   -1.8954   -2.8992 H   0  0  0  0  0  0  0  0  0  0  0  0
    1.4432   -0.8993   -2.3532 H   0  0  0  0  0  0  0  0  0  0  0  0
  1  2  1  0
  2  3  1  0
  3  4  2  0
  4  5  1  0
  5  6  2  0
  6  7  1  0
  7  8  2  0
  8  9  1  0
  9 10  2  0
 10 11  1  0
 11 12  1  0
 12 13  3  0
 11 14  2  0
 14 15  1  0
 15 16  1  0
 16 17  1  0
 17 18  1  0
 18 19  1  0
 19 20  1  0
 20 21  2  0
 21 22  1  0
 22 23  2  0
 23 24  1  0
 24 25  2  0
 19 26  1  0
 26 27  2  0
 27 28  1  0
 28 29  2  0
 29 30  1  0
 30 31  2  0
 18 32  1  0
 32 33  1  0
 14 34  1  0
  8  3  1  0
 34  9  1  0
 33 15  1  0
 25 20  1  0
 31 26  1  0
  1 35  1  0
  1 36  1  0
  1 37  1  0
  4 38  1  0
  5 39  1  0
  6 40  1  0
  7 41  1  0
 16 42  1  0
 16 43  1  0
 17 44  1  0
 17 45  1  0
 19 46  1  0
 21 47  1  0
 22 48  1  0
 23 49  1  0
 24 50  1  0
 25 51  1  0
 27 52  1  0
 28 53  1  0
 29 54  1  0
 30 55  1  0
 31 56  1  0
 32 57  1  0
 32 58  1  0
 33 59  1  0
 33 60  1  0
M  END
$$$$
