
     RDKit          3D

 45 48  0  0  0  0  0  0  0  0999 V2000
   -0.5357   -2.1549   -3.8297 O   0  0  0  0  0  0  0  0  0  0  0  0
    0.6268   -1.8077   -3.8330 C   0  0  0  0  0  0  0  0  0  0  0  0
    1.5043   -2.3080   -4.7215 O   0  0  0  0  0  0  0  0  0  0  0  0
    1.3224   -0.8553   -2.9526 C   0  0  0  0  0  0  0  0  0  0  0  0
    0.7955   -0.0749   -1.9961 C   0  0  0  0  0  0  0  0  0  0  0  0
   -0.5602    0.0997   -1.5953 C   0  0  0  0  0  0  0  0  0  0  0  0
   -1.6620    0.1652   -2.4151 C   0  0  0  0  0  0  0  0  0  0  0  0
   -2.7626    0.3612   -1.6097 N   0  0  0  0  0  0  0  0  0  0  0  0
   -4.1297    0.4470   -2.0005 C   0  0  0  0  0  0  0  0  0  0  0  0
   -4.5170    0.2734   -3.3367 C   0  0  0  0  0  0  0  0  0  0  0  0
   -5.8664    0.3641   -3.6919 C   0  0  0  0  0  0  0  0  0  0  0  0
   -6.8330    0.6258   -2.7223 C   0  0  0  0  0  0  0  0  0  0  0  0
   -6.4559    0.7956   -1.3921 C   0  0  0  0  0  0  0  0  0  0  0  0
   -5.1101    0.7059   -1.0295 C   0  0  0  0  0  0  0  0  0  0  0  0
   -2.4027    0.4987   -0.3071 N   0  0  0  0  0  0  0  0  0  0  0  0
   -1.0758    0.3274   -0.2978 C   0  0  0  0  0  0  0  0  0  0  0  0
   -0.2605    0.3852    1.0391 C   0  0  0  0  0  0  0  0  0  0  0  0
   -0.7915    0.6156    2.2917 C   0  0  0  0  0  0  0  0  0  0  0  0
    0.2894    0.5833    3.2057 C   0  0  0  0  0  0  0  0  0  0  0  0
    1.4274    0.3302    2.4654 C   0  0  0  0  0  0  0  0  0  0  0  0
    2.8447    0.1743    2.7873 C   0  0  0  0  0  0  0  0  0  0  0  0
    3.3124    0.4239    4.0882 C   0  0  0  0  0  0  0  0  0  0  0  0
    4.6673    0.2770    4.4096 C   0  0  0  0  0  0  0  0  0  0  0  0
    5.5717   -0.1258    3.4210 C   0  0  0  0  0  0  0  0  0  0  0  0
    6.9935   -0.2815    3.7518 N   0  0  0  0  0  4  0  0  0  0  0  0
    7.3421   -0.0523    4.9188 O   0  0  0  0  0  0  0  0  0  0  0  0
    7.7616   -0.6322    2.8446 O   0  0  0  0  0  1  0  0  0  0  0  0
    5.1286   -0.3813    2.1192 C   0  0  0  0  0  0  0  0  0  0  0  0
    3.7717   -0.2302    1.8113 C   0  0  0  0  0  0  0  0  0  0  0  0
    1.0908    0.2129    1.1459 O   0  0  0  0  0  0  0  0  0  0  0  0
    0.9658   -2.9339   -5.2497 H   0  0  0  0  0  0  0  0  0  0  0  0
    2.3991   -0.8273   -3.0973 H   0  0  0  0  0  0  0  0  0  0  0  0
    1.5163    0.5099   -1.4237 H   0  0  0  0  0  0  0  0  0  0  0  0
   -1.7512    0.0795   -3.4865 H   0  0  0  0  0  0  0  0  0  0  0  0
   -3.8009    0.0571   -4.1233 H   0  0  0  0  0  0  0  0  0  0  0  0
   -6.1639    0.2261   -4.7287 H   0  0  0  0  0  0  0  0  0  0  0  0
   -7.8809    0.6940   -3.0030 H   0  0  0  0  0  0  0  0  0  0  0  0
   -7.2083    0.9969   -0.6339 H   0  0  0  0  0  0  0  0  0  0  0  0
   -4.8404    0.8414    0.0163 H   0  0  0  0  0  0  0  0  0  0  0  0
   -1.8377    0.7850    2.5078 H   0  0  0  0  0  0  0  0  0  0  0  0
    0.2350    0.7231    4.2758 H   0  0  0  0  0  0  0  0  0  0  0  0
    2.6270    0.7409    4.8717 H   0  0  0  0  0  0  0  0  0  0  0  0
    4.9947    0.4803    5.4274 H   0  0  0  0  0  0  0  0  0  0  0  0
    5.8165   -0.6975    1.3376 H   0  0  0  0  0  0  0  0  0  0  0  0
    3.4420   -0.4379    0.7947 H   0  0  0  0  0  0  0  0  0  0  0  0
  1  2  2  0
  2  3  1  0
  2  4  1  0
  4  5  2  3
  5  6  1  0
  6  7  2  0
  7  8  1  0
  8  9  1  0
  9 10  2  0
 10 11  1  0
 11 12  2  0
 12 13  1  0
 13 14  2  0
  8 15  1  0
 15 16  2  0
 16 17  1  0
 17 18  2  0
 18 19  1  0
 19 20  2  0
 20 21  1  0
 21 22  2  0
 22 23  1  0
 23 24  2  0
 24 25  1  0
 25 26  2  0
 25 27  1  0
 24 28  1  0
 28 29  2  0
 20 30  1  0
 16  6  1  0
 30 17  1  0
 14  9  1  0
 29 21  1  0
  3 31  1  0
  4 32  1  0
  5 33  1  0
  7 34  1  0
 10 35  1  0
 11 36  1  0
 12 37  1  0
 13 38  1  0
 14 39  1  0
 18 40  1  0
 19 41  1  0
 22 42  1  0
 23 43  1  0
 28 44  1  0
 29 45  1  0
M  CHG  2  25   1  27  -1
M  END
$$$$
