
     RDKit          3D

 56 59  0  0  0  0  0  0  0  0999 V2000
   -0.0505   -2.1752   -2.5975 C   0  0  0  0  0  0  0  0  0  0  0  0
   -0.8520   -1.8182   -1.4770 O   0  0  0  0  0  0  0  0  0  0  0  0
   -1.8840   -0.9441   -1.6863 C   0  0  0  0  0  0  0  0  0  0  0  0
   -2.2187   -0.3970   -2.9275 C   0  0  0  0  0  0  0  0  0  0  0  0
   -3.2845    0.5009   -3.0435 C   0  0  0  0  0  0  0  0  0  0  0  0
   -4.0331    0.8678   -1.9215 C   0  0  0  0  0  0  0  0  0  0  0  0
   -5.1570    1.8352   -2.0995 C   0  0  0  0  0  0  0  0  0  0  0  0
   -5.9745    2.2355   -0.8994 C   0  0  0  0  0  0  0  0  0  0  0  0
   -5.3993    2.2916   -3.2149 O   0  0  0  0  0  0  0  0  0  0  0  0
   -3.7024    0.3227   -0.6771 C   0  0  0  0  0  0  0  0  0  0  0  0
   -2.6319   -0.5877   -0.5476 C   0  0  0  0  0  0  0  0  0  0  0  0
   -2.2916   -1.1238    0.8272 C   0  0  0  0  0  0  0  0  0  0  0  0
   -1.2604    0.0421    1.7692 S   0  0  0  0  0  0  0  0  0  0  0  0
    0.2988   -0.4516    1.1449 C   0  0  0  0  0  0  0  0  0  0  0  0
    0.7351   -1.5912    1.5738 N   0  0  0  0  0  0  0  0  0  0  0  0
    1.9596   -2.0603    1.0992 C   0  0  0  0  0  0  0  0  0  0  0  0
    2.4476   -3.2780    1.5810 C   0  0  0  0  0  0  0  0  0  0  0  0
    3.6656   -3.7901    1.1145 C   0  0  0  0  0  0  0  0  0  0  0  0
    4.2141   -5.0783    1.6011 C   0  0  0  0  0  0  0  0  0  0  0  0
    5.2580   -5.5873    1.2376 O   0  0  0  0  0  0  0  0  0  0  0  0
    3.4285   -5.6678    2.5178 O   0  0  0  0  0  0  0  0  0  0  0  0
    4.3985   -3.0765    0.1572 C   0  0  0  0  0  0  0  0  0  0  0  0
    3.9151   -1.8604   -0.3272 C   0  0  0  0  0  0  0  0  0  0  0  0
    2.6975   -1.3618    0.1502 C   0  0  0  0  0  0  0  0  0  0  0  0
    2.1517   -0.0833   -0.3357 C   0  0  0  0  0  0  0  0  0  0  0  0
    2.7542    0.5054   -1.2315 O   0  0  0  0  0  0  0  0  0  0  0  0
    0.9677    0.3618    0.2463 N   0  0  0  0  0  0  0  0  0  0  0  0
    0.4848    1.6766   -0.1895 C   0  0  0  0  0  0  0  0  0  0  0  0
    0.9513    2.7985    0.7173 C   0  0  0  0  0  0  0  0  0  0  0  0
    0.0572    3.4389    1.5878 C   0  0  0  0  0  0  0  0  0  0  0  0
    0.4926    4.4675    2.4260 C   0  0  0  0  0  0  0  0  0  0  0  0
    1.8250    4.8722    2.4013 C   0  0  0  0  0  0  0  0  0  0  0  0
    2.7228    4.2512    1.5367 C   0  0  0  0  0  0  0  0  0  0  0  0
    2.2891    3.2221    0.6989 C   0  0  0  0  0  0  0  0  0  0  0  0
   -0.6431   -2.6973   -3.3556 H   0  0  0  0  0  0  0  0  0  0  0  0
    0.4512   -1.2977   -3.0185 H   0  0  0  0  0  0  0  0  0  0  0  0
    0.7235   -2.8647   -2.2472 H   0  0  0  0  0  0  0  0  0  0  0  0
   -1.6711   -0.6447   -3.8317 H   0  0  0  0  0  0  0  0  0  0  0  0
   -3.5257    0.9144   -4.0221 H   0  0  0  0  0  0  0  0  0  0  0  0
   -6.7535    2.9374   -1.2135 H   0  0  0  0  0  0  0  0  0  0  0  0
   -5.3434    2.7379   -0.1618 H   0  0  0  0  0  0  0  0  0  0  0  0
   -6.4638    1.3601   -0.4647 H   0  0  0  0  0  0  0  0  0  0  0  0
   -4.2608    0.5958    0.2151 H   0  0  0  0  0  0  0  0  0  0  0  0
   -1.8297   -2.1154    0.7755 H   0  0  0  0  0  0  0  0  0  0  0  0
   -3.2222   -1.2689    1.3888 H   0  0  0  0  0  0  0  0  0  0  0  0
    1.8641   -3.8197    2.3219 H   0  0  0  0  0  0  0  0  0  0  0  0
    3.9067   -6.4915    2.7495 H   0  0  0  0  0  0  0  0  0  0  0  0
    5.3466   -3.4647   -0.2119 H   0  0  0  0  0  0  0  0  0  0  0  0
    4.4860   -1.3060   -1.0692 H   0  0  0  0  0  0  0  0  0  0  0  0
   -0.6066    1.6820   -0.2628 H   0  0  0  0  0  0  0  0  0  0  0  0
    0.8340    1.8902   -1.2077 H   0  0  0  0  0  0  0  0  0  0  0  0
   -0.9891    3.1445    1.6230 H   0  0  0  0  0  0  0  0  0  0  0  0
   -0.2095    4.9530    3.0989 H   0  0  0  0  0  0  0  0  0  0  0  0
    2.1633    5.6728    3.0537 H   0  0  0  0  0  0  0  0  0  0  0  0
    3.7622    4.5682    1.5117 H   0  0  0  0  0  0  0  0  0  0  0  0
    3.0059    2.7572    0.0245 H   0  0  0  0  0  0  0  0  0  0  0  0
  1  2  1  0
  2  3  1  0
  3  4  2  0
  4  5  1  0
  5  6  2  0
  6  7  1  0
  7  8  1  0
  7  9  2  0
  6 10  1  0
 10 11  2  0
 11 12  1  0
 12 13  1  0
 13 14  1  0
 14 15  2  0
 15 16  1  0
 16 17  2  0
 17 18  1  0
 18 19  1  0
 19 20  2  0
 19 21  1  0
 18 22  2  0
 22 23  1  0
 23 24  2  0
 24 25  1  0
 25 26  2  0
 25 27  1  0
 27 28  1  0
 28 29  1  0
 29 30  2  0
 30 31  1  0
 31 32  2  0
 32 33  1  0
 33 34  2  0
 11  3  1  0
 27 14  1  0
 34 29  1  0
 24 16  1  0
  1 35  1  0
  1 36  1  0
  1 37  1  0
  4 38  1  0
  5 39  1  0
  8 40  1  0
  8 41  1  0
  8 42  1  0
 10 43  1  0
 12 44  1  0
 12 45  1  0
 17 46  1  0
 21 47  1  0
 22 48  1  0
 23 49  1  0
 28 50  1  0
 28 51  1  0
 30 52  1  0
 31 53  1  0
 32 54  1  0
 33 55  1  0
 34 56  1  0
M  END
$$$$
