
     RDKit          3D

 40 42  0  0  0  0  0  0  0  0999 V2000
    5.5478   -0.0457   -3.2212 C   0  0  0  0  0  0  0  0  0  0  0  0
    6.0956    0.3279   -1.9640 O   0  0  0  0  0  0  0  0  0  0  0  0
    5.2213    0.4786   -0.9225 C   0  0  0  0  0  0  0  0  0  0  0  0
    5.8180    0.8235    0.2901 C   0  0  0  0  0  0  0  0  0  0  0  0
    5.0401    1.0087    1.4309 C   0  0  0  0  0  0  0  0  0  0  0  0
    3.6546    0.8492    1.3670 C   0  0  0  0  0  0  0  0  0  0  0  0
    3.0399    0.5019    0.1635 C   0  0  0  0  0  0  0  0  0  0  0  0
    1.6460    0.3300    0.0154 N   0  0  0  0  0  0  0  0  0  0  0  0
    0.6834    0.3754    1.0085 C   0  0  0  0  0  0  0  0  0  0  0  0
    0.8707    0.5023    2.2121 O   0  0  0  0  0  0  0  0  0  0  0  0
   -0.7159    0.2041    0.5253 C   0  0  0  0  0  0  0  0  0  0  0  0
   -1.1497    0.7692   -0.6821 C   0  0  0  0  0  0  0  0  0  0  0  0
   -2.4660    0.5809   -1.1096 C   0  0  0  0  0  0  0  0  0  0  0  0
   -3.3589   -0.1521   -0.3228 C   0  0  0  0  0  0  0  0  0  0  0  0
   -2.9318   -0.7037    0.8974 C   0  0  0  0  0  0  0  0  0  0  0  0
   -1.6107   -0.5251    1.3179 C   0  0  0  0  0  0  0  0  0  0  0  0
   -3.9158   -1.5178    1.6943 C   0  0  0  0  0  0  0  0  0  0  0  0
   -5.2857   -0.8383    1.7386 C   0  0  0  0  0  0  0  0  0  0  0  0
   -5.7539   -0.2373    0.4043 C   0  0  0  0  0  0  0  0  0  0  0  0
   -4.7766   -0.4116   -0.7596 C   0  0  0  0  0  0  0  0  0  0  0  0
    3.8335    0.3209   -0.9819 C   0  0  0  0  0  0  0  0  0  0  0  0
    4.8638    0.7222   -3.5972 H   0  0  0  0  0  0  0  0  0  0  0  0
    5.0540   -1.0214   -3.1628 H   0  0  0  0  0  0  0  0  0  0  0  0
    6.3738   -0.1330   -3.9336 H   0  0  0  0  0  0  0  0  0  0  0  0
    6.8964    0.9490    0.3465 H   0  0  0  0  0  0  0  0  0  0  0  0
    5.5102    1.2787    2.3730 H   0  0  0  0  0  0  0  0  0  0  0  0
    3.0830    1.0084    2.2760 H   0  0  0  0  0  0  0  0  0  0  0  0
    1.3304    0.0780   -0.9116 H   0  0  0  0  0  0  0  0  0  0  0  0
   -0.4835    1.3788   -1.2863 H   0  0  0  0  0  0  0  0  0  0  0  0
   -2.7929    1.0177   -2.0505 H   0  0  0  0  0  0  0  0  0  0  0  0
   -1.2711   -0.9524    2.2597 H   0  0  0  0  0  0  0  0  0  0  0  0
   -4.0024   -2.5087    1.2315 H   0  0  0  0  0  0  0  0  0  0  0  0
   -3.5574   -1.6705    2.7190 H   0  0  0  0  0  0  0  0  0  0  0  0
   -6.0329   -1.5505    2.1086 H   0  0  0  0  0  0  0  0  0  0  0  0
   -5.2529   -0.0294    2.4811 H   0  0  0  0  0  0  0  0  0  0  0  0
   -5.9282    0.8361    0.5593 H   0  0  0  0  0  0  0  0  0  0  0  0
   -6.7275   -0.6591    0.1276 H   0  0  0  0  0  0  0  0  0  0  0  0
   -4.8374   -1.4344   -1.1516 H   0  0  0  0  0  0  0  0  0  0  0  0
   -5.0640    0.2633   -1.5742 H   0  0  0  0  0  0  0  0  0  0  0  0
    3.3525    0.0542   -1.9159 H   0  0  0  0  0  0  0  0  0  0  0  0
  1  2  1  0
  2  3  1  0
  3  4  2  0
  4  5  1  0
  5  6  2  0
  6  7  1  0
  7  8  1  0
  8  9  1  0
  9 10  2  0
  9 11  1  0
 11 12  2  0
 12 13  1  0
 13 14  2  0
 14 15  1  0
 15 16  2  0
 15 17  1  0
 17 18  1  0
 18 19  1  0
 19 20  1  0
  7 21  2  0
 21  3  1  0
 16 11  1  0
 20 14  1  0
  1 22  1  0
  1 23  1  0
  1 24  1  0
  4 25  1  0
  5 26  1  0
  6 27  1  0
  8 28  1  0
 12 29  1  0
 13 30  1  0
 16 31  1  0
 17 32  1  0
 17 33  1  0
 18 34  1  0
 18 35  1  0
 19 36  1  0
 19 37  1  0
 20 38  1  0
 20 39  1  0
 21 40  1  0
M  END
$$$$
