
     RDKit          3D

 52 55  0  0  0  0  0  0  0  0999 V2000
   -7.9422   -3.2573    0.5095 C   0  0  0  0  0  0  0  0  0  0  0  0
   -6.7775   -4.0243    0.7874 O   0  0  0  0  0  0  0  0  0  0  0  0
   -5.6316   -3.6638    0.1340 C   0  0  0  0  0  0  0  0  0  0  0  0
   -5.5002   -2.6221   -0.7844 C   0  0  0  0  0  0  0  0  0  0  0  0
   -4.2638   -2.3681   -1.3895 C   0  0  0  0  0  0  0  0  0  0  0  0
   -3.1502   -3.1500   -1.0756 C   0  0  0  0  0  0  0  0  0  0  0  0
   -1.8670   -2.9037   -1.7297 C   0  0  0  0  0  0  0  0  0  0  0  0
   -0.8730   -2.1353   -1.2578 C   0  0  0  0  0  0  0  0  0  0  0  0
    0.6123   -1.9515   -2.1236 S   0  0  0  0  0  0  0  0  0  0  0  0
    1.1323   -0.6586   -1.0620 C   0  0  0  0  0  0  0  0  0  0  0  0
    2.1147    0.1938   -1.4366 C   0  0  0  0  0  0  0  0  0  0  0  0
    2.9024    0.0155   -2.6077 C   0  0  0  0  0  0  0  0  0  0  0  0
    3.5887   -0.1117   -3.5339 N   0  0  0  0  0  0  0  0  0  0  0  0
    2.2974    1.5025   -0.7558 C   0  0  0  0  0  0  0  0  0  0  0  0
    1.3588    2.2807   -0.6293 O   0  0  0  0  0  0  0  0  0  0  0  0
    3.5791    1.7692   -0.3378 N   0  0  0  0  0  0  0  0  0  0  0  0
    3.9190    3.0376    0.2751 C   0  0  0  0  0  0  0  0  0  0  0  0
    4.7061    3.8655   -0.6734 C   0  0  0  0  0  0  0  0  0  0  0  0
    4.9977    3.7907   -2.0223 C   0  0  0  0  0  0  0  0  0  0  0  0
    5.8011    4.9152   -2.3229 C   0  0  0  0  0  0  0  0  0  0  0  0
    5.9394    5.6104   -1.1456 C   0  0  0  0  0  0  0  0  0  0  0  0
    5.2923    4.9737   -0.1382 O   0  0  0  0  0  0  0  0  0  0  0  0
    0.3373   -0.6102    0.0857 N   0  0  0  0  0  0  0  0  0  0  0  0
    0.7147   -0.0349    1.3432 C   0  0  0  0  0  0  0  0  0  0  0  0
   -0.2136    0.6466    2.1376 C   0  0  0  0  0  0  0  0  0  0  0  0
    0.1640    1.1941    3.3674 C   0  0  0  0  0  0  0  0  0  0  0  0
    1.4713    1.0526    3.8252 C   0  0  0  0  0  0  0  0  0  0  0  0
    2.4006    0.3532    3.0612 C   0  0  0  0  0  0  0  0  0  0  0  0
    2.0240   -0.1903    1.8302 C   0  0  0  0  0  0  0  0  0  0  0  0
   -0.8458   -1.3759    0.0274 C   0  0  0  0  0  0  0  0  0  0  0  0
   -1.7084   -1.4808    0.8886 O   0  0  0  0  0  0  0  0  0  0  0  0
   -3.2802   -4.1883   -0.1514 C   0  0  0  0  0  0  0  0  0  0  0  0
   -4.5154   -4.4405    0.4482 C   0  0  0  0  0  0  0  0  0  0  0  0
   -8.7638   -3.6731    1.1018 H   0  0  0  0  0  0  0  0  0  0  0  0
   -7.8089   -2.2128    0.8107 H   0  0  0  0  0  0  0  0  0  0  0  0
   -8.2234   -3.3369   -0.5462 H   0  0  0  0  0  0  0  0  0  0  0  0
   -6.3382   -1.9877   -1.0547 H   0  0  0  0  0  0  0  0  0  0  0  0
   -4.1814   -1.5517   -2.1018 H   0  0  0  0  0  0  0  0  0  0  0  0
   -1.7597   -3.4184   -2.6835 H   0  0  0  0  0  0  0  0  0  0  0  0
    4.3404    1.1300   -0.5185 H   0  0  0  0  0  0  0  0  0  0  0  0
    4.5203    2.8124    1.1629 H   0  0  0  0  0  0  0  0  0  0  0  0
    3.0194    3.5738    0.5908 H   0  0  0  0  0  0  0  0  0  0  0  0
    4.6629    3.0240   -2.7102 H   0  0  0  0  0  0  0  0  0  0  0  0
    6.2175    5.1878   -3.2805 H   0  0  0  0  0  0  0  0  0  0  0  0
    6.4424    6.5246   -0.8715 H   0  0  0  0  0  0  0  0  0  0  0  0
   -1.2393    0.7820    1.8036 H   0  0  0  0  0  0  0  0  0  0  0  0
   -0.5690    1.7292    3.9658 H   0  0  0  0  0  0  0  0  0  0  0  0
    1.7590    1.4749    4.7844 H   0  0  0  0  0  0  0  0  0  0  0  0
    3.4130    0.2159    3.4327 H   0  0  0  0  0  0  0  0  0  0  0  0
    2.7578   -0.7833    1.2877 H   0  0  0  0  0  0  0  0  0  0  0  0
   -2.4263   -4.8038    0.1151 H   0  0  0  0  0  0  0  0  0  0  0  0
   -4.6069   -5.2486    1.1685 H   0  0  0  0  0  0  0  0  0  0  0  0
  1  2  1  0
  2  3  1  0
  3  4  2  0
  4  5  1  0
  5  6  2  0
  6  7  1  0
  7  8  2  3
  8  9  1  0
  9 10  1  0
 10 11  2  3
 11 12  1  0
 12 13  3  0
 11 14  1  0
 14 15  2  0
 14 16  1  0
 16 17  1  0
 17 18  1  0
 18 19  2  0
 19 20  1  0
 20 21  2  0
 21 22  1  0
 10 23  1  0
 23 24  1  0
 24 25  2  0
 25 26  1  0
 26 27  2  0
 27 28  1  0
 28 29  2  0
 23 30  1  0
 30 31  2  0
  6 32  1  0
 32 33  2  0
 33  3  1  0
 30  8  1  0
 22 18  1  0
 29 24  1  0
  1 34  1  0
  1 35  1  0
  1 36  1  0
  4 37  1  0
  5 38  1  0
  7 39  1  0
 16 40  1  0
 17 41  1  0
 17 42  1  0
 19 43  1  0
 20 44  1  0
 21 45  1  0
 25 46  1  0
 26 47  1  0
 27 48  1  0
 28 49  1  0
 29 50  1  0
 32 51  1  0
 33 52  1  0
M  END
$$$$
