
     RDKit          3D

 41 43  0  0  0  0  0  0  0  0999 V2000
   -1.6305    0.5855    2.8268 O   0  0  0  0  0  0  0  0  0  0  0  0
   -2.1870    0.4596    1.7345 C   0  0  0  0  0  0  0  0  0  0  0  0
   -3.3230   -0.5310    1.5342 C   0  0  0  0  0  0  0  0  0  0  0  0
   -4.2121   -0.2670    0.3409 C   0  0  0  0  0  0  0  0  0  0  0  0
   -5.1084    0.8117    0.3523 C   0  0  0  0  0  0  0  0  0  0  0  0
   -5.9021    1.0816   -0.7626 C   0  0  0  0  0  0  0  0  0  0  0  0
   -5.8090    0.2772   -1.8968 C   0  0  0  0  0  0  0  0  0  0  0  0
   -4.9244   -0.8002   -1.9167 C   0  0  0  0  0  0  0  0  0  0  0  0
   -4.1283   -1.0724   -0.8031 C   0  0  0  0  0  0  0  0  0  0  0  0
   -1.7989    1.1732    0.6160 N   0  0  0  0  0  0  0  0  0  0  0  0
   -0.5913    1.8836    0.7027 N   0  0  0  0  0  0  0  0  0  0  0  0
    0.5946    1.2081    0.4613 C   0  0  0  0  0  0  0  0  0  0  0  0
    0.6820    0.0576    0.0549 O   0  0  0  0  0  0  0  0  0  0  0  0
    1.7388    2.1306    0.7288 C   0  0  0  0  0  0  0  0  0  0  0  0
    3.0515    1.8607    0.6754 C   0  0  0  0  0  0  0  0  0  0  0  0
    3.6687    0.5669    0.3708 C   0  0  0  0  0  0  0  0  0  0  0  0
    3.4791   -0.5444    1.2023 C   0  0  0  0  0  0  0  0  0  0  0  0
    4.1075   -1.7606    0.9145 C   0  0  0  0  0  0  0  0  0  0  0  0
    4.9435   -1.8710   -0.2027 C   0  0  0  0  0  0  0  0  0  0  0  0
    5.6364   -3.1360   -0.5465 C   0  0  0  0  0  0  0  0  0  0  0  0
    6.3760   -3.3063   -1.4981 O   0  0  0  0  0  0  0  0  0  0  0  0
    5.3766   -4.1285    0.3225 O   0  0  0  0  0  0  0  0  0  0  0  0
    5.1458   -0.7573   -1.0274 C   0  0  0  0  0  0  0  0  0  0  0  0
    4.5136    0.4564   -0.7394 C   0  0  0  0  0  0  0  0  0  0  0  0
    1.1417    3.7094    1.1392 S   0  0  0  0  0  0  0  0  0  0  0  0
   -0.5449    3.2129    1.0616 C   0  0  0  0  0  0  0  0  0  0  0  0
   -1.8204    4.2481    1.3495 S   0  0  0  0  0  0  0  0  0  0  0  0
   -3.9460   -0.5192    2.4380 H   0  0  0  0  0  0  0  0  0  0  0  0
   -2.8782   -1.5310    1.4645 H   0  0  0  0  0  0  0  0  0  0  0  0
   -5.1919    1.4516    1.2303 H   0  0  0  0  0  0  0  0  0  0  0  0
   -6.5952    1.9197   -0.7459 H   0  0  0  0  0  0  0  0  0  0  0  0
   -6.4308    0.4869   -2.7636 H   0  0  0  0  0  0  0  0  0  0  0  0
   -4.8586   -1.4313   -2.7998 H   0  0  0  0  0  0  0  0  0  0  0  0
   -3.4467   -1.9197   -0.8363 H   0  0  0  0  0  0  0  0  0  0  0  0
   -2.0475    0.8388   -0.3099 H   0  0  0  0  0  0  0  0  0  0  0  0
    3.7735    2.6523    0.8720 H   0  0  0  0  0  0  0  0  0  0  0  0
    2.8351   -0.4798    2.0763 H   0  0  0  0  0  0  0  0  0  0  0  0
    3.9353   -2.6124    1.5669 H   0  0  0  0  0  0  0  0  0  0  0  0
    5.8914   -4.8856   -0.0264 H   0  0  0  0  0  0  0  0  0  0  0  0
    5.7971   -0.8295   -1.8955 H   0  0  0  0  0  0  0  0  0  0  0  0
    4.6873    1.3108   -1.3912 H   0  0  0  0  0  0  0  0  0  0  0  0
  1  2  2  0
  2  3  1  0
  3  4  1  0
  4  5  2  0
  5  6  1  0
  6  7  2  0
  7  8  1  0
  8  9  2  0
  2 10  1  0
 10 11  1  0
 11 12  1  0
 12 13  2  0
 12 14  1  0
 14 15  2  3
 15 16  1  0
 16 17  2  0
 17 18  1  0
 18 19  2  0
 19 20  1  0
 20 21  2  0
 20 22  1  0
 19 23  1  0
 23 24  2  0
 14 25  1  0
 25 26  1  0
 26 27  2  0
  9  4  1  0
 26 11  1  0
 24 16  1  0
  3 28  1  0
  3 29  1  0
  5 30  1  0
  6 31  1  0
  7 32  1  0
  8 33  1  0
  9 34  1  0
 10 35  1  0
 15 36  1  0
 17 37  1  0
 18 38  1  0
 22 39  1  0
 23 40  1  0
 24 41  1  0
M  END
$$$$
