
     RDKit          3D

 46 49  0  0  0  0  0  0  0  0999 V2000
    5.7029    0.1241   -0.4781 C   0  0  0  0  0  0  0  0  0  0  0  0
    4.7182   -0.3422   -1.2571 C   0  0  0  0  0  0  0  0  0  0  0  0
    3.2297   -0.1050   -1.1140 C   0  0  0  0  0  0  0  0  0  0  0  0
    2.4466   -1.4511   -1.1561 C   0  0  0  0  0  0  0  0  0  0  0  0
    1.2554   -1.4315   -0.2629 N   0  0  0  0  0  0  0  0  0  0  0  0
    1.7595   -1.3904    1.1353 C   0  0  0  0  0  0  0  0  0  0  0  0
    2.7617   -0.2490    1.3588 C   0  0  0  0  0  0  0  0  0  0  0  0
    2.7424    0.6799    0.1345 C   0  0  0  0  0  0  0  0  0  0  0  0
    1.2618    1.0566   -0.0939 C   0  0  0  0  0  0  0  0  0  0  0  0
    0.4823   -0.1887   -0.5712 C   0  0  0  0  0  0  0  0  0  0  0  0
   -0.9310   -0.2651   -0.0513 C   0  0  0  0  0  0  0  0  0  0  0  0
   -1.4319   -1.4610    0.4125 N   0  0  0  0  0  0  0  0  0  0  0  0
   -2.7325   -1.3338    0.8217 C   0  0  0  0  0  0  0  0  0  0  0  0
   -3.6020   -2.2811    1.3751 C   0  0  0  0  0  0  0  0  0  0  0  0
   -4.8991   -1.8647    1.6870 C   0  0  0  0  0  0  0  0  0  0  0  0
   -5.3068   -0.5547    1.4497 C   0  0  0  0  0  0  0  0  0  0  0  0
   -4.4227    0.3771    0.8929 C   0  0  0  0  0  0  0  0  0  0  0  0
   -3.1052   -0.0156    0.5751 C   0  0  0  0  0  0  0  0  0  0  0  0
   -1.9727    0.6564    0.0005 C   0  0  0  0  0  0  0  0  0  0  0  0
   -1.9666    2.0773   -0.4722 C   0  0  0  0  0  0  0  0  0  0  0  0
   -2.3181    2.1940   -1.9523 C   0  0  0  0  0  0  0  0  0  0  0  0
   -2.2685    3.5609   -2.3501 O   0  0  0  0  0  0  0  0  0  0  0  0
    5.5213    0.7498    0.3887 H   0  0  0  0  0  0  0  0  0  0  0  0
    6.7395   -0.1128   -0.7012 H   0  0  0  0  0  0  0  0  0  0  0  0
    5.0073   -0.9478   -2.1168 H   0  0  0  0  0  0  0  0  0  0  0  0
    2.9403    0.4792   -2.0000 H   0  0  0  0  0  0  0  0  0  0  0  0
    3.0861   -2.3021   -0.8850 H   0  0  0  0  0  0  0  0  0  0  0  0
    2.1211   -1.6497   -2.1858 H   0  0  0  0  0  0  0  0  0  0  0  0
    0.9281   -1.2970    1.8439 H   0  0  0  0  0  0  0  0  0  0  0  0
    2.2342   -2.3495    1.3780 H   0  0  0  0  0  0  0  0  0  0  0  0
    3.7639   -0.6564    1.5284 H   0  0  0  0  0  0  0  0  0  0  0  0
    2.4877    0.3104    2.2613 H   0  0  0  0  0  0  0  0  0  0  0  0
    3.3340    1.5835    0.3136 H   0  0  0  0  0  0  0  0  0  0  0  0
    0.8456    1.4718    0.8328 H   0  0  0  0  0  0  0  0  0  0  0  0
    1.2008    1.8412   -0.8583 H   0  0  0  0  0  0  0  0  0  0  0  0
    0.3708   -0.1268   -1.6644 H   0  0  0  0  0  0  0  0  0  0  0  0
   -0.8832   -2.3103    0.4430 H   0  0  0  0  0  0  0  0  0  0  0  0
   -3.2858   -3.3031    1.5556 H   0  0  0  0  0  0  0  0  0  0  0  0
   -5.5992   -2.5757    2.1194 H   0  0  0  0  0  0  0  0  0  0  0  0
   -6.3203   -0.2503    1.6979 H   0  0  0  0  0  0  0  0  0  0  0  0
   -4.7534    1.3954    0.7120 H   0  0  0  0  0  0  0  0  0  0  0  0
   -2.6765    2.6742    0.1144 H   0  0  0  0  0  0  0  0  0  0  0  0
   -0.9969    2.5493   -0.2868 H   0  0  0  0  0  0  0  0  0  0  0  0
   -1.6100    1.6310   -2.5697 H   0  0  0  0  0  0  0  0  0  0  0  0
   -3.3266    1.8128   -2.1460 H   0  0  0  0  0  0  0  0  0  0  0  0
   -2.5321    3.5902   -3.2860 H   0  0  0  0  0  0  0  0  0  0  0  0
  1  2  2  0
  2  3  1  0
  3  4  1  0
  4  5  1  0
  5  6  1  0
  6  7  1  0
  7  8  1  0
  8  9  1  0
  9 10  1  0
 10 11  1  0
 11 12  1  0
 12 13  1  0
 13 14  2  0
 14 15  1  0
 15 16  2  0
 16 17  1  0
 17 18  2  0
 18 19  1  0
 19 20  1  0
 20 21  1  0
 21 22  1  0
  8  3  1  0
 19 11  2  0
 10  5  1  0
 18 13  1  0
  1 23  1  0
  1 24  1  0
  2 25  1  0
  3 26  1  0
  4 27  1  0
  4 28  1  0
  6 29  1  0
  6 30  1  0
  7 31  1  0
  7 32  1  0
  8 33  1  0
  9 34  1  0
  9 35  1  0
 10 36  1  0
 12 37  1  0
 14 38  1  0
 15 39  1  0
 16 40  1  0
 17 41  1  0
 20 42  1  0
 20 43  1  0
 21 44  1  0
 21 45  1  0
 22 46  1  0
M  END
$$$$
