
     RDKit          3D

 55 58  0  0  0  0  0  0  0  0999 V2000
    0.9498   -3.7970   -4.0529 C   0  0  0  0  0  0  0  0  0  0  0  0
    1.5525   -3.2494   -2.8881 O   0  0  0  0  0  0  0  0  0  0  0  0
    0.9245   -2.1901   -2.2865 C   0  0  0  0  0  0  0  0  0  0  0  0
   -0.3119   -1.6763   -2.6835 C   0  0  0  0  0  0  0  0  0  0  0  0
   -0.8560   -0.5682   -2.0339 C   0  0  0  0  0  0  0  0  0  0  0  0
   -0.1699    0.0391   -0.9834 C   0  0  0  0  0  0  0  0  0  0  0  0
    1.0673   -0.4616   -0.5446 C   0  0  0  0  0  0  0  0  0  0  0  0
    1.8284    0.1988    0.5913 C   0  0  0  0  0  0  0  0  0  0  0  0
    2.2398    1.6369    0.2260 C   0  0  0  0  0  0  0  0  0  0  0  0
    1.2311    2.4676    0.9940 C   0  0  0  0  0  0  0  0  0  0  0  0
    1.0459    3.9127    0.7283 C   0  0  0  0  0  0  0  0  0  0  0  0
    0.0219    4.5991    1.3935 C   0  0  0  0  0  0  0  0  0  0  0  0
   -0.1786    5.9610    1.1610 C   0  0  0  0  0  0  0  0  0  0  0  0
    0.6429    6.6437    0.2660 C   0  0  0  0  0  0  0  0  0  0  0  0
    1.6668    5.9671   -0.3955 C   0  0  0  0  0  0  0  0  0  0  0  0
    1.8711    4.6037   -0.1660 C   0  0  0  0  0  0  0  0  0  0  0  0
    0.5635    1.8205    1.9030 N   0  0  0  0  0  0  0  0  0  0  0  0
    1.0688    0.4292    1.8306 N   0  0  0  0  0  0  0  0  0  0  0  0
    0.4622   -0.8331    2.7703 S   0  0  0  0  0  6  0  0  0  0  0  0
    1.3369   -1.9799    2.6067 O   0  0  0  0  0  0  0  0  0  0  0  0
    0.1481   -0.3367    4.0963 O   0  0  0  0  0  0  0  0  0  0  0  0
   -1.0932   -1.2217    2.0023 C   0  0  0  0  0  0  0  0  0  0  0  0
   -1.2737   -2.4442    1.3519 C   0  0  0  0  0  0  0  0  0  0  0  0
   -2.5087   -2.7376    0.7710 C   0  0  0  0  0  0  0  0  0  0  0  0
   -3.5640   -1.8172    0.8392 C   0  0  0  0  0  0  0  0  0  0  0  0
   -4.9001   -2.1531    0.2444 C   0  0  0  0  0  0  0  0  0  0  0  0
   -3.3787   -0.6087    1.5249 C   0  0  0  0  0  0  0  0  0  0  0  0
   -2.1466   -0.3091    2.1072 C   0  0  0  0  0  0  0  0  0  0  0  0
    1.5967   -1.5887   -1.2029 C   0  0  0  0  0  0  0  0  0  0  0  0
    2.8372   -2.0265   -0.8000 O   0  0  0  0  0  0  0  0  0  0  0  0
    2.7839   -3.3414   -0.2418 C   0  0  0  0  0  0  0  0  0  0  0  0
    0.8618   -3.0462   -4.8447 H   0  0  0  0  0  0  0  0  0  0  0  0
    1.6009   -4.5944   -4.4225 H   0  0  0  0  0  0  0  0  0  0  0  0
   -0.0218   -4.2443   -3.8199 H   0  0  0  0  0  0  0  0  0  0  0  0
   -0.8791   -2.1118   -3.4991 H   0  0  0  0  0  0  0  0  0  0  0  0
   -1.8221   -0.1771   -2.3445 H   0  0  0  0  0  0  0  0  0  0  0  0
   -0.6269    0.8981   -0.4959 H   0  0  0  0  0  0  0  0  0  0  0  0
    2.7373   -0.3575    0.8426 H   0  0  0  0  0  0  0  0  0  0  0  0
    2.2219    1.8382   -0.8483 H   0  0  0  0  0  0  0  0  0  0  0  0
    3.2348    1.8660    0.6247 H   0  0  0  0  0  0  0  0  0  0  0  0
   -0.6246    4.0814    2.0995 H   0  0  0  0  0  0  0  0  0  0  0  0
   -0.9738    6.4886    1.6819 H   0  0  0  0  0  0  0  0  0  0  0  0
    0.4881    7.7052    0.0877 H   0  0  0  0  0  0  0  0  0  0  0  0
    2.3104    6.5040   -1.0886 H   0  0  0  0  0  0  0  0  0  0  0  0
    2.6836    4.1098   -0.6900 H   0  0  0  0  0  0  0  0  0  0  0  0
   -0.4657   -3.1684    1.2904 H   0  0  0  0  0  0  0  0  0  0  0  0
   -2.6433   -3.6912    0.2649 H   0  0  0  0  0  0  0  0  0  0  0  0
   -5.4237   -1.2465   -0.0769 H   0  0  0  0  0  0  0  0  0  0  0  0
   -4.7846   -2.7907   -0.6383 H   0  0  0  0  0  0  0  0  0  0  0  0
   -5.5171   -2.6762    0.9815 H   0  0  0  0  0  0  0  0  0  0  0  0
   -4.1956    0.1041    1.6142 H   0  0  0  0  0  0  0  0  0  0  0  0
   -2.0097    0.6287    2.6420 H   0  0  0  0  0  0  0  0  0  0  0  0
    3.5278   -3.3937    0.5586 H   0  0  0  0  0  0  0  0  0  0  0  0
    3.0571   -4.0797   -1.0008 H   0  0  0  0  0  0  0  0  0  0  0  0
    1.8066   -3.5853    0.1895 H   0  0  0  0  0  0  0  0  0  0  0  0
  1  2  1  0
  2  3  1  0
  3  4  2  0
  4  5  1  0
  5  6  2  0
  6  7  1  0
  7  8  1  0
  8  9  1  0
  9 10  1  0
 10 11  1  0
 11 12  2  0
 12 13  1  0
 13 14  2  0
 14 15  1  0
 15 16  2  0
 10 17  2  0
 17 18  1  0
 18 19  1  0
 19 20  2  0
 19 21  2  0
 19 22  1  0
 22 23  2  0
 23 24  1  0
 24 25  2  0
 25 26  1  0
 25 27  1  0
 27 28  2  0
  7 29  2  0
 29 30  1  0
 30 31  1  0
 29  3  1  0
 18  8  1  0
 28 22  1  0
 16 11  1  0
  1 32  1  0
  1 33  1  0
  1 34  1  0
  4 35  1  0
  5 36  1  0
  6 37  1  0
  8 38  1  0
  9 39  1  0
  9 40  1  0
 12 41  1  0
 13 42  1  0
 14 43  1  0
 15 44  1  0
 16 45  1  0
 23 46  1  0
 24 47  1  0
 26 48  1  0
 26 49  1  0
 26 50  1  0
 27 51  1  0
 28 52  1  0
 31 53  1  0
 31 54  1  0
 31 55  1  0
M  END
$$$$
