
     RDKit          3D

 57 61  0  0  0  0  0  0  0  0999 V2000
    7.8550    0.5000   -2.7249 C   0  0  0  0  0  0  0  0  0  0  0  0
    7.3768    0.6780   -1.3973 O   0  0  0  0  0  0  0  0  0  0  0  0
    6.4252   -0.2013   -0.9553 C   0  0  0  0  0  0  0  0  0  0  0  0
    5.9120    0.0821    0.3124 C   0  0  0  0  0  0  0  0  0  0  0  0
    4.9317   -0.7334    0.8824 C   0  0  0  0  0  0  0  0  0  0  0  0
    4.4525   -1.8552    0.1943 C   0  0  0  0  0  0  0  0  0  0  0  0
    3.3700   -2.7103    0.7995 C   0  0  0  0  0  0  0  0  0  0  0  0
    2.0618   -2.1903    0.4638 N   0  0  0  0  0  0  0  0  0  0  0  0
    1.4019   -1.3253    1.3048 C   0  0  0  0  0  0  0  0  0  0  0  0
    1.8195   -1.0192    2.4170 O   0  0  0  0  0  0  0  0  0  0  0  0
    0.1618   -0.6946    0.7652 C   0  0  0  0  0  0  0  0  0  0  0  0
   -0.6059   -1.3032   -0.1541 C   0  0  0  0  0  0  0  0  0  0  0  0
   -1.8092   -0.7000   -0.7076 C   0  0  0  0  0  0  0  0  0  0  0  0
   -2.5622   -1.4226   -1.7721 C   0  0  0  0  0  0  0  0  0  0  0  0
   -2.1362   -2.5004   -2.1939 O   0  0  0  0  0  0  0  0  0  0  0  0
   -3.7109   -0.8055   -2.2308 N   0  0  0  0  0  0  0  0  0  0  0  0
   -4.4773   -1.4239   -3.2127 C   0  0  0  0  0  0  0  0  0  0  0  0
   -5.5900   -0.8594   -3.6970 C   0  0  0  0  0  0  0  0  0  0  0  0
   -6.0195    0.4186   -3.1989 C   0  0  0  0  0  0  0  0  0  0  0  0
   -5.3084    1.0519   -2.2600 C   0  0  0  0  0  0  0  0  0  0  0  0
   -4.0652    0.4291   -1.7229 C   0  0  0  0  0  0  0  0  0  0  0  0
   -3.3911    1.0699   -0.8239 N   0  0  0  0  0  0  0  0  0  0  0  0
   -2.2541    0.5061   -0.2894 C   0  0  0  0  0  0  0  0  0  0  0  0
   -1.5204    1.1833    0.7168 N   0  0  0  0  0  0  0  0  0  0  0  0
   -2.0183    2.4678    1.2409 C   0  0  0  0  0  0  0  0  0  0  0  0
   -3.0531    2.2745    2.3236 C   0  0  0  0  0  0  0  0  0  0  0  0
   -2.6946    1.9835    3.6433 C   0  0  0  0  0  0  0  0  0  0  0  0
   -3.6833    1.8209    4.6106 C   0  0  0  0  0  0  0  0  0  0  0  0
   -5.0071    1.9545    4.2244 C   0  0  0  0  0  0  0  0  0  0  0  0
   -5.3975    2.2297    2.9612 N   0  0  0  0  0  0  0  0  0  0  0  0
   -4.4127    2.3768    2.0431 C   0  0  0  0  0  0  0  0  0  0  0  0
   -0.3487    0.6403    1.2646 C   0  0  0  0  0  0  0  0  0  0  0  0
    0.3016    1.2855    2.1951 N   0  0  0  0  0  0  0  0  0  0  0  0
    4.9657   -2.1341   -1.0789 C   0  0  0  0  0  0  0  0  0  0  0  0
    5.9510   -1.3160   -1.6485 C   0  0  0  0  0  0  0  0  0  0  0  0
    8.5504    1.3181   -2.9415 H   0  0  0  0  0  0  0  0  0  0  0  0
    7.0399    0.5563   -3.4542 H   0  0  0  0  0  0  0  0  0  0  0  0
    8.4062   -0.4418   -2.8224 H   0  0  0  0  0  0  0  0  0  0  0  0
    6.2725    0.9506    0.8596 H   0  0  0  0  0  0  0  0  0  0  0  0
    4.5386   -0.4843    1.8665 H   0  0  0  0  0  0  0  0  0  0  0  0
    3.4946   -2.7711    1.8866 H   0  0  0  0  0  0  0  0  0  0  0  0
    3.4280   -3.7327    0.4094 H   0  0  0  0  0  0  0  0  0  0  0  0
    1.8032   -2.2290   -0.5129 H   0  0  0  0  0  0  0  0  0  0  0  0
   -0.3613   -2.2948   -0.5215 H   0  0  0  0  0  0  0  0  0  0  0  0
   -4.1344   -2.3898   -3.5744 H   0  0  0  0  0  0  0  0  0  0  0  0
   -6.1823   -1.3488   -4.4635 H   0  0  0  0  0  0  0  0  0  0  0  0
   -6.9302    0.8527   -3.5984 H   0  0  0  0  0  0  0  0  0  0  0  0
   -5.6014    2.0131   -1.8559 H   0  0  0  0  0  0  0  0  0  0  0  0
   -2.4383    3.0757    0.4275 H   0  0  0  0  0  0  0  0  0  0  0  0
   -1.2046    3.0941    1.6307 H   0  0  0  0  0  0  0  0  0  0  0  0
   -1.6462    1.8845    3.9194 H   0  0  0  0  0  0  0  0  0  0  0  0
   -3.4248    1.5958    5.6394 H   0  0  0  0  0  0  0  0  0  0  0  0
   -5.8132    1.8407    4.9439 H   0  0  0  0  0  0  0  0  0  0  0  0
   -4.7636    2.5909    1.0363 H   0  0  0  0  0  0  0  0  0  0  0  0
    1.1142    0.7302    2.5173 H   0  0  0  0  0  0  0  0  0  0  0  0
    4.6055   -2.9916   -1.6397 H   0  0  0  0  0  0  0  0  0  0  0  0
    6.3267   -1.5767   -2.6334 H   0  0  0  0  0  0  0  0  0  0  0  0
  1  2  1  0
  2  3  1  0
  3  4  2  0
  4  5  1  0
  5  6  2  0
  6  7  1  0
  7  8  1  0
  8  9  1  0
  9 10  2  0
  9 11  1  0
 11 12  2  0
 12 13  1  0
 13 14  1  0
 14 15  2  0
 14 16  1  0
 16 17  1  0
 17 18  2  0
 18 19  1  0
 19 20  2  0
 20 21  1  0
 21 22  2  0
 22 23  1  0
 23 24  1  0
 24 25  1  0
 25 26  1  0
 26 27  2  0
 27 28  1  0
 28 29  2  0
 29 30  1  0
 30 31  2  0
 24 32  1  0
 32 33  2  3
  6 34  1  0
 34 35  2  0
 35  3  1  0
 32 11  1  0
 23 13  2  0
 31 26  1  0
 21 16  1  0
  1 36  1  0
  1 37  1  0
  1 38  1  0
  4 39  1  0
  5 40  1  0
  7 41  1  0
  7 42  1  0
  8 43  1  0
 12 44  1  0
 17 45  1  0
 18 46  1  0
 19 47  1  0
 20 48  1  0
 25 49  1  0
 25 50  1  0
 27 51  1  0
 28 52  1  0
 29 53  1  0
 31 54  1  0
 33 55  1  0
 34 56  1  0
 35 57  1  0
M  END
$$$$
