
     RDKit          3D

 44 47  0  0  0  0  0  0  0  0999 V2000
    6.5035   -0.3129    0.9647 C   0  0  0  0  0  0  0  0  0  0  0  0
    5.2906   -0.3318    1.8831 C   0  0  0  0  0  0  0  0  0  0  0  0
    4.0078   -0.3138    1.1077 C   0  0  0  0  0  0  0  0  0  0  0  0
    3.2642   -1.3899    0.6638 C   0  0  0  0  0  0  0  0  0  0  0  0
    2.1036   -0.9766   -0.0537 C   0  0  0  0  0  0  0  0  0  0  0  0
    1.0774   -1.7833   -0.6789 C   0  0  0  0  0  0  0  0  0  0  0  0
    1.1261   -3.0106   -0.6401 O   0  0  0  0  0  0  0  0  0  0  0  0
    0.0580   -1.0509   -1.3000 N   0  0  0  0  0  0  0  0  0  0  0  0
   -1.0248   -1.8424   -1.8958 C   0  0  0  0  0  0  0  0  0  0  0  0
   -2.2450   -1.9370   -0.9981 C   0  0  0  0  0  0  0  0  0  0  0  0
   -2.1677   -2.5402    0.2669 C   0  0  0  0  0  0  0  0  0  0  0  0
   -3.2938   -2.6160    1.0907 C   0  0  0  0  0  0  0  0  0  0  0  0
   -4.5118   -2.0971    0.6576 C   0  0  0  0  0  0  0  0  0  0  0  0
   -4.6076   -1.5082   -0.6017 C   0  0  0  0  0  0  0  0  0  0  0  0
   -3.4835   -1.4338   -1.4269 C   0  0  0  0  0  0  0  0  0  0  0  0
    0.0930    0.3472   -1.3083 C   0  0  0  0  0  0  0  0  0  0  0  0
   -1.1837    1.2041   -2.1553 S   0  0  0  0  0  0  0  0  0  0  0  0
   -1.2089    2.7693   -1.2387 C   0  0  0  0  0  0  0  0  0  0  0  0
   -1.7164    2.6101    0.1805 C   0  0  0  0  0  0  0  0  0  0  0  0
   -2.2729    3.9835    0.4639 C   0  0  0  0  0  0  0  0  0  0  0  0
   -2.8175    4.4297   -0.7773 O   0  0  0  0  0  0  0  0  0  0  0  0
   -2.2219    3.7383   -1.8041 C   0  0  0  0  0  0  0  0  0  0  0  0
   -2.4680    3.9462   -2.9824 O   0  0  0  0  0  0  0  0  0  0  0  0
    1.0118    1.0757   -0.7516 N   0  0  0  0  0  0  0  0  0  0  0  0
    1.9939    0.3885   -0.1305 C   0  0  0  0  0  0  0  0  0  0  0  0
    3.2794    1.1761    0.6645 S   0  0  0  0  0  0  0  0  0  0  0  0
    7.4240   -0.3760    1.5543 H   0  0  0  0  0  0  0  0  0  0  0  0
    6.4890   -1.1567    0.2663 H   0  0  0  0  0  0  0  0  0  0  0  0
    6.5399    0.6117    0.3765 H   0  0  0  0  0  0  0  0  0  0  0  0
    5.3251   -1.2362    2.5039 H   0  0  0  0  0  0  0  0  0  0  0  0
    5.3369    0.5208    2.5711 H   0  0  0  0  0  0  0  0  0  0  0  0
    3.5360   -2.4259    0.8390 H   0  0  0  0  0  0  0  0  0  0  0  0
   -1.2918   -1.4148   -2.8691 H   0  0  0  0  0  0  0  0  0  0  0  0
   -0.6850   -2.8627   -2.1179 H   0  0  0  0  0  0  0  0  0  0  0  0
   -1.2324   -2.9687    0.6222 H   0  0  0  0  0  0  0  0  0  0  0  0
   -3.2207   -3.0849    2.0698 H   0  0  0  0  0  0  0  0  0  0  0  0
   -5.3888   -2.1615    1.2977 H   0  0  0  0  0  0  0  0  0  0  0  0
   -5.5594   -1.1099   -0.9454 H   0  0  0  0  0  0  0  0  0  0  0  0
   -3.5851   -0.9740   -2.4097 H   0  0  0  0  0  0  0  0  0  0  0  0
   -0.2355    3.2719   -1.2708 H   0  0  0  0  0  0  0  0  0  0  0  0
   -0.9460    2.3193    0.8998 H   0  0  0  0  0  0  0  0  0  0  0  0
   -2.5330    1.8765    0.2414 H   0  0  0  0  0  0  0  0  0  0  0  0
   -3.0609    3.9562    1.2239 H   0  0  0  0  0  0  0  0  0  0  0  0
   -1.4980    4.6908    0.7816 H   0  0  0  0  0  0  0  0  0  0  0  0
  1  2  1  0
  2  3  1  0
  3  4  2  0
  4  5  1  0
  5  6  1  0
  6  7  2  0
  6  8  1  0
  8  9  1  0
  9 10  1  0
 10 11  2  0
 11 12  1  0
 12 13  2  0
 13 14  1  0
 14 15  2  0
  8 16  1  0
 16 17  1  0
 17 18  1  0
 18 19  1  0
 19 20  1  0
 20 21  1  0
 21 22  1  0
 22 23  2  0
 16 24  2  0
 24 25  1  0
 25 26  1  0
 26  3  1  0
 25  5  2  0
 15 10  1  0
 22 18  1  0
  1 27  1  0
  1 28  1  0
  1 29  1  0
  2 30  1  0
  2 31  1  0
  4 32  1  0
  9 33  1  0
  9 34  1  0
 11 35  1  0
 12 36  1  0
 13 37  1  0
 14 38  1  0
 15 39  1  0
 18 40  1  0
 19 41  1  0
 19 42  1  0
 20 43  1  0
 20 44  1  0
M  END
$$$$
