
     RDKit          3D

 52 55  0  0  0  0  0  0  0  0999 V2000
   -7.2087    0.9513    1.6390 C   0  0  0  0  0  0  0  0  0  0  0  0
   -6.1226    1.7486    0.9350 C   0  0  0  0  0  0  0  0  0  0  0  0
   -4.7284    1.3229    1.3949 C   0  0  0  0  0  0  0  0  0  0  0  0
   -3.6399    2.1355    0.6907 C   0  0  0  0  0  0  0  0  0  0  0  0
   -2.2763    1.6926    1.0904 C   0  0  0  0  0  0  0  0  0  0  0  0
   -1.5778    2.2893    2.0411 N   0  0  0  0  0  0  0  0  0  0  0  0
   -0.3723    1.6587    2.1623 N   0  0  0  0  0  0  0  0  0  0  0  0
   -0.3422    0.6912    1.2750 C   0  0  0  0  0  0  0  0  0  0  0  0
    0.7162   -0.2454    1.0075 C   0  0  0  0  0  0  0  0  0  0  0  0
    1.9224   -0.1504    1.7543 N   0  0  0  0  0  0  0  0  0  0  0  0
    2.3948    1.1056    2.3800 C   0  0  0  0  0  0  0  0  0  0  0  0
    3.0220   -1.4443    1.8407 S   0  0  0  0  0  6  0  0  0  0  0  0
    3.7939   -1.2961    3.0607 O   0  0  0  0  0  0  0  0  0  0  0  0
    2.3656   -2.7036    1.5613 O   0  0  0  0  0  0  0  0  0  0  0  0
    4.1161   -1.0923    0.4780 C   0  0  0  0  0  0  0  0  0  0  0  0
    3.7799   -1.5301   -0.8048 C   0  0  0  0  0  0  0  0  0  0  0  0
    4.6436   -1.2719   -1.8704 C   0  0  0  0  0  0  0  0  0  0  0  0
    5.8459   -0.5831   -1.6598 C   0  0  0  0  0  0  0  0  0  0  0  0
    6.7851   -0.3398   -2.8047 C   0  0  0  0  0  0  0  0  0  0  0  0
    6.1888   -0.1823   -0.3615 C   0  0  0  0  0  0  0  0  0  0  0  0
    5.3282   -0.4360    0.7083 C   0  0  0  0  0  0  0  0  0  0  0  0
    0.5661   -1.1425    0.0858 N   0  0  0  0  0  0  0  0  0  0  0  0
   -0.6461   -1.2118   -0.6297 C   0  0  0  0  0  0  0  0  0  0  0  0
   -0.7654   -2.2189   -1.5904 C   0  0  0  0  0  0  0  0  0  0  0  0
   -1.9335   -2.3531   -2.3386 C   0  0  0  0  0  0  0  0  0  0  0  0
   -2.9959   -1.4782   -2.1272 C   0  0  0  0  0  0  0  0  0  0  0  0
   -2.8996   -0.4651   -1.1688 C   0  0  0  0  0  0  0  0  0  0  0  0
   -1.7279   -0.3290   -0.4219 C   0  0  0  0  0  0  0  0  0  0  0  0
   -1.5258    0.6509    0.5741 N   0  0  0  0  0  0  0  0  0  0  0  0
   -7.1058   -0.1189    1.4332 H   0  0  0  0  0  0  0  0  0  0  0  0
   -7.1637    1.0990    2.7227 H   0  0  0  0  0  0  0  0  0  0  0  0
   -8.1972    1.2699    1.2936 H   0  0  0  0  0  0  0  0  0  0  0  0
   -6.2720    2.8158    1.1353 H   0  0  0  0  0  0  0  0  0  0  0  0
   -6.2163    1.6048   -0.1477 H   0  0  0  0  0  0  0  0  0  0  0  0
   -4.5921    0.2512    1.2068 H   0  0  0  0  0  0  0  0  0  0  0  0
   -4.6422    1.4585    2.4810 H   0  0  0  0  0  0  0  0  0  0  0  0
   -3.7539    3.1892    0.9799 H   0  0  0  0  0  0  0  0  0  0  0  0
   -3.7559    2.1285   -0.3965 H   0  0  0  0  0  0  0  0  0  0  0  0
    2.1713    1.9604    1.7338 H   0  0  0  0  0  0  0  0  0  0  0  0
    3.4777    1.1226    2.5283 H   0  0  0  0  0  0  0  0  0  0  0  0
    1.9188    1.2391    3.3555 H   0  0  0  0  0  0  0  0  0  0  0  0
    2.8554   -2.0760   -0.9802 H   0  0  0  0  0  0  0  0  0  0  0  0
    4.3760   -1.6174   -2.8668 H   0  0  0  0  0  0  0  0  0  0  0  0
    7.4002   -1.2276   -2.9800 H   0  0  0  0  0  0  0  0  0  0  0  0
    7.4446    0.5098   -2.5993 H   0  0  0  0  0  0  0  0  0  0  0  0
    6.2283   -0.1053   -3.7177 H   0  0  0  0  0  0  0  0  0  0  0  0
    7.1334    0.3248   -0.1747 H   0  0  0  0  0  0  0  0  0  0  0  0
    5.6149   -0.1279    1.7110 H   0  0  0  0  0  0  0  0  0  0  0  0
    0.0603   -2.9093   -1.7479 H   0  0  0  0  0  0  0  0  0  0  0  0
   -2.0147   -3.1442   -3.0799 H   0  0  0  0  0  0  0  0  0  0  0  0
   -3.9089   -1.5900   -2.7090 H   0  0  0  0  0  0  0  0  0  0  0  0
   -3.7644    0.1706   -1.0445 H   0  0  0  0  0  0  0  0  0  0  0  0
  1  2  1  0
  2  3  1  0
  3  4  1  0
  4  5  1  0
  5  6  2  0
  6  7  1  0
  7  8  2  0
  8  9  1  0
  9 10  1  0
 10 11  1  0
 10 12  1  0
 12 13  2  0
 12 14  2  0
 12 15  1  0
 15 16  2  0
 16 17  1  0
 17 18  2  0
 18 19  1  0
 18 20  1  0
 20 21  2  0
  9 22  2  0
 22 23  1  0
 23 24  2  0
 24 25  1  0
 25 26  2  0
 26 27  1  0
 27 28  2  0
 28 29  1  0
 29  5  1  0
 29  8  1  0
 21 15  1  0
 28 23  1  0
  1 30  1  0
  1 31  1  0
  1 32  1  0
  2 33  1  0
  2 34  1  0
  3 35  1  0
  3 36  1  0
  4 37  1  0
  4 38  1  0
 11 39  1  0
 11 40  1  0
 11 41  1  0
 16 42  1  0
 17 43  1  0
 19 44  1  0
 19 45  1  0
 19 46  1  0
 20 47  1  0
 21 48  1  0
 24 49  1  0
 25 50  1  0
 26 51  1  0
 27 52  1  0
M  END
$$$$
