
     RDKit          3D

 40 41  0  0  0  0  0  0  0  0999 V2000
   -6.6789   -0.3192    0.3063 C   0  0  0  0  0  0  0  0  0  0  0  0
   -5.2253    0.0311    0.1965 C   0  0  0  0  0  0  0  0  0  0  0  0
   -4.2932   -0.9187   -0.2234 C   0  0  0  0  0  0  0  0  0  0  0  0
   -2.9349   -0.5920   -0.2918 C   0  0  0  0  0  0  0  0  0  0  0  0
   -2.4744    0.6835    0.0664 C   0  0  0  0  0  0  0  0  0  0  0  0
   -1.0875    0.8936   -0.0441 N   0  0  0  0  0  0  0  0  0  0  0  0
   -0.2465    1.9544    0.2012 C   0  0  0  0  0  0  0  0  0  0  0  0
   -0.5651    3.4917    0.7542 S   0  0  0  0  0  0  0  0  0  0  0  0
    1.0793    1.6432   -0.0637 N   0  0  0  0  0  0  0  0  0  0  0  0
    1.4288    0.4345   -0.7303 N   0  0  0  0  0  0  0  0  0  0  0  0
    1.5654    0.6403   -2.1821 C   0  0  0  0  0  0  0  0  0  0  0  0
    2.6149   -0.1190   -0.1577 C   0  0  0  0  0  0  0  0  0  0  0  0
    3.7624   -0.1280   -0.8877 N   0  0  0  0  0  0  0  0  0  0  0  0
    4.8736   -0.6513   -0.3142 C   0  0  0  0  0  0  0  0  0  0  0  0
    6.1385   -0.6547   -1.1127 C   0  0  0  0  0  0  0  0  0  0  0  0
    4.8490   -1.1673    0.9703 C   0  0  0  0  0  0  0  0  0  0  0  0
    3.7302   -1.1884    1.7216 N   0  0  0  0  0  0  0  0  0  0  0  0
    2.6106   -0.6655    1.1448 C   0  0  0  0  0  0  0  0  0  0  0  0
    1.3691   -0.7271    1.9839 C   0  0  0  0  0  0  0  0  0  0  0  0
   -3.4071    1.6223    0.4990 C   0  0  0  0  0  0  0  0  0  0  0  0
   -4.7693    1.2984    0.5686 C   0  0  0  0  0  0  0  0  0  0  0  0
   -6.9571   -1.0709   -0.4399 H   0  0  0  0  0  0  0  0  0  0  0  0
   -7.3069    0.5605    0.1302 H   0  0  0  0  0  0  0  0  0  0  0  0
   -6.8944   -0.7142    1.3038 H   0  0  0  0  0  0  0  0  0  0  0  0
   -4.6145   -1.9199   -0.5009 H   0  0  0  0  0  0  0  0  0  0  0  0
   -2.2391   -1.3571   -0.6279 H   0  0  0  0  0  0  0  0  0  0  0  0
   -0.5460    0.1015   -0.3765 H   0  0  0  0  0  0  0  0  0  0  0  0
    1.7916    2.3687   -0.0055 H   0  0  0  0  0  0  0  0  0  0  0  0
    0.6105    0.9842   -2.5961 H   0  0  0  0  0  0  0  0  0  0  0  0
    2.3235    1.3950   -2.4242 H   0  0  0  0  0  0  0  0  0  0  0  0
    1.8087   -0.2999   -2.6905 H   0  0  0  0  0  0  0  0  0  0  0  0
    6.9107   -0.0713   -0.6018 H   0  0  0  0  0  0  0  0  0  0  0  0
    6.4957   -1.6797   -1.2525 H   0  0  0  0  0  0  0  0  0  0  0  0
    5.9760   -0.2130   -2.1011 H   0  0  0  0  0  0  0  0  0  0  0  0
    5.7344   -1.5853    1.4369 H   0  0  0  0  0  0  0  0  0  0  0  0
    0.5408   -1.1682    1.4217 H   0  0  0  0  0  0  0  0  0  0  0  0
    1.0921    0.2699    2.3365 H   0  0  0  0  0  0  0  0  0  0  0  0
    1.5330   -1.3555    2.8662 H   0  0  0  0  0  0  0  0  0  0  0  0
   -3.1275    2.6233    0.7982 H   0  0  0  0  0  0  0  0  0  0  0  0
   -5.4710    2.0531    0.9184 H   0  0  0  0  0  0  0  0  0  0  0  0
  1  2  1  0
  2  3  2  0
  3  4  1  0
  4  5  2  0
  5  6  1  0
  6  7  1  0
  7  8  2  0
  7  9  1  0
  9 10  1  0
 10 11  1  0
 10 12  1  0
 12 13  2  0
 13 14  1  0
 14 15  1  0
 14 16  2  0
 16 17  1  0
 17 18  2  0
 18 19  1  0
  5 20  1  0
 20 21  2  0
 21  2  1  0
 18 12  1  0
  1 22  1  0
  1 23  1  0
  1 24  1  0
  3 25  1  0
  4 26  1  0
  6 27  1  0
  9 28  1  0
 11 29  1  0
 11 30  1  0
 11 31  1  0
 15 32  1  0
 15 33  1  0
 15 34  1  0
 16 35  1  0
 19 36  1  0
 19 37  1  0
 19 38  1  0
 20 39  1  0
 21 40  1  0
M  END
$$$$
