
     RDKit          3D

 44 46  0  0  0  0  0  0  0  0999 V2000
   -2.0217   -2.1742    3.4261 O   0  0  0  0  0  0  0  0  0  0  0  0
   -1.2490   -1.2730    3.1085 C   0  0  0  0  0  0  0  0  0  0  0  0
   -0.1520   -0.7798    4.0383 C   0  0  0  0  0  0  0  0  0  0  0  0
    1.3903   -1.7181    3.7819 S   0  0  0  0  0  0  0  0  0  0  0  0
    1.9043   -1.0865    2.2036 C   0  0  0  0  0  0  0  0  0  0  0  0
    2.7355   -1.8341    1.3920 C   0  0  0  0  0  0  0  0  0  0  0  0
    3.1002   -1.3248    0.1445 C   0  0  0  0  0  0  0  0  0  0  0  0
    2.6259   -0.0803   -0.2576 C   0  0  0  0  0  0  0  0  0  0  0  0
    2.9348    0.5472   -1.5603 C   0  0  0  0  0  0  0  0  0  0  0  0
    2.0804    1.5250   -2.1088 C   0  0  0  0  0  0  0  0  0  0  0  0
    2.3526    2.1320   -3.3389 C   0  0  0  0  0  0  0  0  0  0  0  0
    3.4900    1.7756   -4.0543 C   0  0  0  0  0  0  0  0  0  0  0  0
    4.3539    0.8159   -3.5393 C   0  0  0  0  0  0  0  0  0  0  0  0
    4.0808    0.2120   -2.3062 C   0  0  0  0  0  0  0  0  0  0  0  0
    1.8132    0.6207    0.5700 N   0  0  0  0  0  0  0  0  0  0  0  0
    1.4651    0.1246    1.8065 N   0  0  0  0  0  0  0  0  0  0  0  0
   -1.3010   -0.6293    1.8894 N   0  0  0  0  0  0  0  0  0  0  0  0
   -2.2901   -0.9527    0.8706 C   0  0  0  0  0  0  0  0  0  0  0  0
   -1.7648   -0.5853   -0.5288 C   0  0  0  0  0  0  0  0  0  0  0  0
   -2.1061    0.8516   -0.9053 C   0  0  0  0  0  0  0  0  0  0  0  0
   -3.6171    1.1008   -0.9161 C   0  0  0  0  0  0  0  0  0  0  0  0
   -4.4058    0.1207   -0.0446 C   0  0  0  0  0  0  0  0  0  0  0  0
   -3.6287   -0.2707    1.2060 C   0  0  0  0  0  0  0  0  0  0  0  0
    0.0037    0.2983    3.9263 H   0  0  0  0  0  0  0  0  0  0  0  0
   -0.4876   -0.9433    5.0674 H   0  0  0  0  0  0  0  0  0  0  0  0
    3.0898   -2.8113    1.7036 H   0  0  0  0  0  0  0  0  0  0  0  0
    3.7351   -1.9240   -0.4999 H   0  0  0  0  0  0  0  0  0  0  0  0
    1.1805    1.8266   -1.5745 H   0  0  0  0  0  0  0  0  0  0  0  0
    1.6740    2.8848   -3.7330 H   0  0  0  0  0  0  0  0  0  0  0  0
    3.7039    2.2469   -5.0106 H   0  0  0  0  0  0  0  0  0  0  0  0
    5.2459    0.5386   -4.0938 H   0  0  0  0  0  0  0  0  0  0  0  0
    4.7965   -0.5173   -1.9351 H   0  0  0  0  0  0  0  0  0  0  0  0
   -0.5771    0.0514    1.6656 H   0  0  0  0  0  0  0  0  0  0  0  0
   -2.4330   -2.0409    0.8951 H   0  0  0  0  0  0  0  0  0  0  0  0
   -0.6822   -0.7440   -0.5942 H   0  0  0  0  0  0  0  0  0  0  0  0
   -2.2194   -1.2568   -1.2691 H   0  0  0  0  0  0  0  0  0  0  0  0
   -1.6870    1.0950   -1.8886 H   0  0  0  0  0  0  0  0  0  0  0  0
   -1.6323    1.5357   -0.1901 H   0  0  0  0  0  0  0  0  0  0  0  0
   -3.8063    2.1292   -0.5827 H   0  0  0  0  0  0  0  0  0  0  0  0
   -3.9968    1.0417   -1.9441 H   0  0  0  0  0  0  0  0  0  0  0  0
   -4.6361   -0.7819   -0.6252 H   0  0  0  0  0  0  0  0  0  0  0  0
   -5.3676    0.5672    0.2319 H   0  0  0  0  0  0  0  0  0  0  0  0
   -4.2345   -0.9441    1.8252 H   0  0  0  0  0  0  0  0  0  0  0  0
   -3.4604    0.6307    1.8121 H   0  0  0  0  0  0  0  0  0  0  0  0
  1  2  2  0
  2  3  1  0
  3  4  1  0
  4  5  1  0
  5  6  2  0
  6  7  1  0
  7  8  2  0
  8  9  1  0
  9 10  2  0
 10 11  1  0
 11 12  2  0
 12 13  1  0
 13 14  2  0
  8 15  1  0
 15 16  2  0
  2 17  1  0
 17 18  1  0
 18 19  1  0
 19 20  1  0
 20 21  1  0
 21 22  1  0
 22 23  1  0
 16  5  1  0
 23 18  1  0
 14  9  1  0
  3 24  1  0
  3 25  1  0
  6 26  1  0
  7 27  1  0
 10 28  1  0
 11 29  1  0
 12 30  1  0
 13 31  1  0
 14 32  1  0
 17 33  1  0
 18 34  1  0
 19 35  1  0
 19 36  1  0
 20 37  1  0
 20 38  1  0
 21 39  1  0
 21 40  1  0
 22 41  1  0
 22 42  1  0
 23 43  1  0
 23 44  1  0
M  END
$$$$
