
     RDKit          3D

 54 56  0  0  0  0  0  0  0  0999 V2000
    8.2682    2.0104   -1.0898 C   0  0  0  0  0  0  0  0  0  0  0  0
    7.7330    0.8826   -1.7704 O   0  0  0  0  0  0  0  0  0  0  0  0
    6.4613    0.5064   -1.4352 C   0  0  0  0  0  0  0  0  0  0  0  0
    5.6492    1.1164   -0.4801 C   0  0  0  0  0  0  0  0  0  0  0  0
    4.3618    0.6251   -0.2357 C   0  0  0  0  0  0  0  0  0  0  0  0
    3.8680   -0.4819   -0.9405 C   0  0  0  0  0  0  0  0  0  0  0  0
    2.4761   -1.0041   -0.6680 C   0  0  0  0  0  0  0  0  0  0  0  0
    1.4660   -0.0268   -1.0782 N   0  0  0  0  0  0  0  0  0  0  0  0
    0.0995   -0.5482   -0.9863 C   0  0  0  0  0  0  0  0  0  0  0  0
   -0.3991   -0.6415    0.4627 C   0  0  0  0  0  0  0  0  0  0  0  0
   -1.8480   -1.1858    0.5560 C   0  0  0  0  0  0  0  0  0  0  0  0
   -2.2764   -1.5713    1.9746 C   0  0  0  0  0  0  0  0  0  0  0  0
   -1.7821   -0.9242    3.1204 C   0  0  0  0  0  0  0  0  0  0  0  0
   -2.2143   -1.3016    4.3942 C   0  0  0  0  0  0  0  0  0  0  0  0
   -3.1473   -2.3208    4.5303 C   0  0  0  0  0  0  0  0  0  0  0  0
   -3.5602   -2.6794    5.7531 F   0  0  0  0  0  0  0  0  0  0  0  0
   -3.6609   -2.9696    3.4164 C   0  0  0  0  0  0  0  0  0  0  0  0
   -3.2297   -2.5946    2.1428 C   0  0  0  0  0  0  0  0  0  0  0  0
   -2.8679   -0.2601   -0.0988 C   0  0  0  0  0  0  0  0  0  0  0  0
   -3.0554    1.0583    0.3423 C   0  0  0  0  0  0  0  0  0  0  0  0
   -3.9951    1.8960   -0.2705 C   0  0  0  0  0  0  0  0  0  0  0  0
   -4.7653    1.4280   -1.3334 C   0  0  0  0  0  0  0  0  0  0  0  0
   -5.7124    2.1388   -2.0175 O   0  0  0  0  0  0  0  0  0  0  0  0
   -5.9350    3.4792   -1.5986 C   0  0  0  0  0  0  0  0  0  0  0  0
   -4.5882    0.1160   -1.7746 C   0  0  0  0  0  0  0  0  0  0  0  0
   -3.6519   -0.7230   -1.1650 C   0  0  0  0  0  0  0  0  0  0  0  0
    4.6872   -1.0868   -1.9006 C   0  0  0  0  0  0  0  0  0  0  0  0
    5.9729   -0.5949   -2.1418 C   0  0  0  0  0  0  0  0  0  0  0  0
    7.6784    2.9104   -1.2920 H   0  0  0  0  0  0  0  0  0  0  0  0
    8.3470    1.8215   -0.0140 H   0  0  0  0  0  0  0  0  0  0  0  0
    9.2791    2.1825   -1.4718 H   0  0  0  0  0  0  0  0  0  0  0  0
    5.9815    1.9762    0.0911 H   0  0  0  0  0  0  0  0  0  0  0  0
    3.7338    1.1161    0.5055 H   0  0  0  0  0  0  0  0  0  0  0  0
    2.3301   -1.9507   -1.2029 H   0  0  0  0  0  0  0  0  0  0  0  0
    2.4032   -1.2225    0.4034 H   0  0  0  0  0  0  0  0  0  0  0  0
    1.6556    0.2280   -2.0485 H   0  0  0  0  0  0  0  0  0  0  0  0
   -0.5434    0.1440   -1.5413 H   0  0  0  0  0  0  0  0  0  0  0  0
    0.0212   -1.5188   -1.4906 H   0  0  0  0  0  0  0  0  0  0  0  0
   -0.3170    0.3474    0.9310 H   0  0  0  0  0  0  0  0  0  0  0  0
    0.2574   -1.3135    1.0295 H   0  0  0  0  0  0  0  0  0  0  0  0
   -1.8341   -2.1290   -0.0111 H   0  0  0  0  0  0  0  0  0  0  0  0
   -1.0601   -0.1157    3.0409 H   0  0  0  0  0  0  0  0  0  0  0  0
   -1.8314   -0.8038    5.2792 H   0  0  0  0  0  0  0  0  0  0  0  0
   -4.3954   -3.7580    3.5440 H   0  0  0  0  0  0  0  0  0  0  0  0
   -3.6480   -3.1023    1.2758 H   0  0  0  0  0  0  0  0  0  0  0  0
   -2.4734    1.4486    1.1741 H   0  0  0  0  0  0  0  0  0  0  0  0
   -4.0994    2.9061    0.1106 H   0  0  0  0  0  0  0  0  0  0  0  0
   -6.7152    3.9039   -2.2377 H   0  0  0  0  0  0  0  0  0  0  0  0
   -6.2952    3.5154   -0.5652 H   0  0  0  0  0  0  0  0  0  0  0  0
   -5.0334    4.0875   -1.7255 H   0  0  0  0  0  0  0  0  0  0  0  0
   -5.1878   -0.2574   -2.6012 H   0  0  0  0  0  0  0  0  0  0  0  0
   -3.5434   -1.7403   -1.5333 H   0  0  0  0  0  0  0  0  0  0  0  0
    4.3351   -1.9442   -2.4687 H   0  0  0  0  0  0  0  0  0  0  0  0
    6.6006   -1.0740   -2.8892 H   0  0  0  0  0  0  0  0  0  0  0  0
  1  2  1  0
  2  3  1  0
  3  4  2  0
  4  5  1  0
  5  6  2  0
  6  7  1  0
  7  8  1  0
  8  9  1  0
  9 10  1  0
 10 11  1  0
 11 12  1  0
 12 13  2  0
 13 14  1  0
 14 15  2  0
 15 16  1  0
 15 17  1  0
 17 18  2  0
 11 19  1  0
 19 20  2  0
 20 21  1  0
 21 22  2  0
 22 23  1  0
 23 24  1  0
 22 25  1  0
 25 26  2  0
  6 27  1  0
 27 28  2  0
 28  3  1  0
 18 12  1  0
 26 19  1  0
  1 29  1  0
  1 30  1  0
  1 31  1  0
  4 32  1  0
  5 33  1  0
  7 34  1  0
  7 35  1  0
  8 36  1  0
  9 37  1  0
  9 38  1  0
 10 39  1  0
 10 40  1  0
 11 41  1  0
 13 42  1  0
 14 43  1  0
 17 44  1  0
 18 45  1  0
 20 46  1  0
 21 47  1  0
 24 48  1  0
 24 49  1  0
 24 50  1  0
 25 51  1  0
 26 52  1  0
 27 53  1  0
 28 54  1  0
M  END
$$$$
