
     RDKit          3D

 43 44  0  0  0  0  0  0  0  0999 V2000
   -6.7528    1.4314    2.5760 C   0  0  0  0  0  0  0  0  0  0  0  0
   -6.0679    2.3646    1.5864 C   0  0  0  0  0  0  0  0  0  0  0  0
   -4.5438    2.2472    1.6072 C   0  0  0  0  0  0  0  0  0  0  0  0
   -4.0664    0.9497    1.0767 C   0  0  0  0  0  0  0  0  0  0  0  0
   -3.6586   -0.1210    1.7215 N   0  0  0  0  0  0  0  0  0  0  0  0
   -3.3277   -1.0474    0.7551 N   0  0  0  0  0  0  0  0  0  0  0  0
   -3.5537   -0.4792   -0.4103 C   0  0  0  0  0  0  0  0  0  0  0  0
   -3.2926   -1.2247   -1.9571 S   0  0  0  0  0  0  0  0  0  0  0  0
   -2.4472   -2.7545   -1.4593 C   0  0  0  0  0  0  0  0  0  0  0  0
   -1.0360   -2.5324   -0.9255 C   0  0  0  0  0  0  0  0  0  0  0  0
   -0.5689   -3.3058   -0.0924 O   0  0  0  0  0  0  0  0  0  0  0  0
   -0.3519   -1.4918   -1.5316 N   0  0  0  0  0  0  0  0  0  0  0  0
    0.9580   -1.0459   -1.2693 C   0  0  0  0  0  0  0  0  0  0  0  0
    1.8014   -1.6131   -0.3127 C   0  0  0  0  0  0  0  0  0  0  0  0
    3.0924   -1.1067   -0.1083 C   0  0  0  0  0  0  0  0  0  0  0  0
    3.5556   -0.0225   -0.8612 C   0  0  0  0  0  0  0  0  0  0  0  0
    4.9159    0.5552   -0.6856 C   0  0  0  0  0  0  0  0  0  0  0  0
    5.3387    1.4887   -1.3495 O   0  0  0  0  0  0  0  0  0  0  0  0
    5.5887   -0.0972    0.2938 O   0  0  0  0  0  0  0  0  0  0  0  0
    6.9195    0.3711    0.5572 C   0  0  0  0  0  0  0  0  0  0  0  0
    7.9075   -0.3193   -0.3641 C   0  0  0  0  0  0  0  0  0  0  0  0
    2.7119    0.5481   -1.8206 C   0  0  0  0  0  0  0  0  0  0  0  0
    1.4238    0.0401   -2.0211 C   0  0  0  0  0  0  0  0  0  0  0  0
   -4.0265    0.8006   -0.2824 O   0  0  0  0  0  0  0  0  0  0  0  0
   -6.3957    1.6104    3.5953 H   0  0  0  0  0  0  0  0  0  0  0  0
   -6.5738    0.3808    2.3270 H   0  0  0  0  0  0  0  0  0  0  0  0
   -7.8348    1.5982    2.5624 H   0  0  0  0  0  0  0  0  0  0  0  0
   -6.4533    2.1684    0.5784 H   0  0  0  0  0  0  0  0  0  0  0  0
   -6.3419    3.3961    1.8382 H   0  0  0  0  0  0  0  0  0  0  0  0
   -4.1154    3.0556    1.0027 H   0  0  0  0  0  0  0  0  0  0  0  0
   -4.1700    2.3870    2.6282 H   0  0  0  0  0  0  0  0  0  0  0  0
   -3.0426   -3.2772   -0.7037 H   0  0  0  0  0  0  0  0  0  0  0  0
   -2.3689   -3.4050   -2.3365 H   0  0  0  0  0  0  0  0  0  0  0  0
   -0.8714   -0.9689   -2.2277 H   0  0  0  0  0  0  0  0  0  0  0  0
    1.4870   -2.4520    0.3011 H   0  0  0  0  0  0  0  0  0  0  0  0
    3.7200   -1.5744    0.6469 H   0  0  0  0  0  0  0  0  0  0  0  0
    6.9836    1.4616    0.4688 H   0  0  0  0  0  0  0  0  0  0  0  0
    7.1474    0.1183    1.5978 H   0  0  0  0  0  0  0  0  0  0  0  0
    8.9327   -0.0194   -0.1291 H   0  0  0  0  0  0  0  0  0  0  0  0
    7.7034   -0.0763   -1.4116 H   0  0  0  0  0  0  0  0  0  0  0  0
    7.8262   -1.4073   -0.2695 H   0  0  0  0  0  0  0  0  0  0  0  0
    3.0529    1.3926   -2.4171 H   0  0  0  0  0  0  0  0  0  0  0  0
    0.7953    0.5084   -2.7745 H   0  0  0  0  0  0  0  0  0  0  0  0
  1  2  1  0
  2  3  1  0
  3  4  1  0
  4  5  2  0
  5  6  1  0
  6  7  2  0
  7  8  1  0
  8  9  1  0
  9 10  1  0
 10 11  2  0
 10 12  1  0
 12 13  1  0
 13 14  2  0
 14 15  1  0
 15 16  2  0
 16 17  1  0
 17 18  2  0
 17 19  1  0
 19 20  1  0
 20 21  1  0
 16 22  1  0
 22 23  2  0
  7 24  1  0
 24  4  1  0
 23 13  1  0
  1 25  1  0
  1 26  1  0
  1 27  1  0
  2 28  1  0
  2 29  1  0
  3 30  1  0
  3 31  1  0
  9 32  1  0
  9 33  1  0
 12 34  1  0
 14 35  1  0
 15 36  1  0
 20 37  1  0
 20 38  1  0
 21 39  1  0
 21 40  1  0
 21 41  1  0
 22 42  1  0
 23 43  1  0
M  END
$$$$
