
     RDKit          3D

 42 44  0  0  0  0  0  0  0  0999 V2000
   -1.3924    0.3549   -4.3381 C   0  0  0  0  0  0  0  0  0  0  0  0
   -1.9334    0.6465   -2.9931 C   0  0  0  0  0  0  0  0  0  0  0  0
   -2.9711    1.5164   -2.9399 O   0  0  0  0  0  0  0  0  0  0  0  0
   -3.3561    1.7002   -1.6285 N   0  0  0  0  0  0  0  0  0  0  0  0
   -2.5386    0.9368   -0.8867 C   0  0  0  0  0  0  0  0  0  0  0  0
   -2.6284    0.9697    0.5668 C   0  0  0  0  0  0  0  0  0  0  0  0
   -1.5408    1.4542    1.3058 C   0  0  0  0  0  0  0  0  0  0  0  0
   -0.4128    1.8242    0.6820 F   0  0  0  0  0  0  0  0  0  0  0  0
   -1.5792    1.5369    2.6970 C   0  0  0  0  0  0  0  0  0  0  0  0
   -2.7217    1.1303    3.3785 C   0  0  0  0  0  0  0  0  0  0  0  0
   -3.8118    0.6308    2.6636 C   0  0  0  0  0  0  0  0  0  0  0  0
   -3.7669    0.5466    1.2652 C   0  0  0  0  0  0  0  0  0  0  0  0
   -5.1267   -0.1619    0.4707 Cl  0  0  0  0  0  0  0  0  0  0  0  0
   -1.6263    0.2164   -1.7178 C   0  0  0  0  0  0  0  0  0  0  0  0
   -0.5697   -0.7182   -1.3879 C   0  0  0  0  0  0  0  0  0  0  0  0
    0.3941   -0.8792   -2.1285 O   0  0  0  0  0  0  0  0  0  0  0  0
   -0.8003   -1.4518   -0.2309 N   0  0  0  0  0  0  0  0  0  0  0  0
    0.0326   -2.2783    0.4575 C   0  0  0  0  0  0  0  0  0  0  0  0
   -0.6282   -3.4803    1.4054 S   0  0  0  0  0  0  0  0  0  0  0  0
    1.3756   -2.1420    0.4220 N   0  0  0  0  0  0  0  0  0  0  0  0
    2.1382   -0.9016    0.2791 C   0  0  0  0  0  0  0  0  0  0  0  0
    3.3344   -1.0721   -0.6598 C   0  0  0  0  0  0  0  0  0  0  0  0
    4.1187    0.2291   -0.5605 C   0  0  0  0  0  0  0  0  0  0  0  0
    3.9965    0.7156    1.1547 S   0  0  0  0  0  6  0  0  0  0  0  0
    3.4455    2.0518    1.2240 O   0  0  0  0  0  0  0  0  0  0  0  0
    5.2167    0.3458    1.8389 O   0  0  0  0  0  0  0  0  0  0  0  0
    2.7224   -0.4408    1.6138 C   0  0  0  0  0  0  0  0  0  0  0  0
   -1.3920   -0.7221   -4.5255 H   0  0  0  0  0  0  0  0  0  0  0  0
   -1.9904    0.8312   -5.1218 H   0  0  0  0  0  0  0  0  0  0  0  0
   -0.3655    0.7250   -4.4256 H   0  0  0  0  0  0  0  0  0  0  0  0
   -0.7195    1.9227    3.2375 H   0  0  0  0  0  0  0  0  0  0  0  0
   -2.7635    1.1922    4.4652 H   0  0  0  0  0  0  0  0  0  0  0  0
   -4.6949    0.2998    3.2049 H   0  0  0  0  0  0  0  0  0  0  0  0
   -1.7742   -1.5906    0.0082 H   0  0  0  0  0  0  0  0  0  0  0  0
    1.8547   -2.8984    0.9018 H   0  0  0  0  0  0  0  0  0  0  0  0
    1.4927   -0.0972   -0.0824 H   0  0  0  0  0  0  0  0  0  0  0  0
    3.0304   -1.2760   -1.6928 H   0  0  0  0  0  0  0  0  0  0  0  0
    3.9544   -1.9146   -0.3306 H   0  0  0  0  0  0  0  0  0  0  0  0
    3.6552    1.0140   -1.1650 H   0  0  0  0  0  0  0  0  0  0  0  0
    5.1674    0.1093   -0.8392 H   0  0  0  0  0  0  0  0  0  0  0  0
    1.9825    0.0504    2.2498 H   0  0  0  0  0  0  0  0  0  0  0  0
    3.1924   -1.2637    2.1621 H   0  0  0  0  0  0  0  0  0  0  0  0
  1  2  1  0
  2  3  1  0
  3  4  1  0
  4  5  2  0
  5  6  1  0
  6  7  2  0
  7  8  1  0
  7  9  1  0
  9 10  2  0
 10 11  1  0
 11 12  2  0
 12 13  1  0
  5 14  1  0
 14 15  1  0
 15 16  2  0
 15 17  1  0
 17 18  1  0
 18 19  2  0
 18 20  1  0
 20 21  1  0
 21 22  1  0
 22 23  1  0
 23 24  1  0
 24 25  2  0
 24 26  2  0
 24 27  1  0
 14  2  2  0
 27 21  1  0
 12  6  1  0
  1 28  1  0
  1 29  1  0
  1 30  1  0
  9 31  1  0
 10 32  1  0
 11 33  1  0
 17 34  1  0
 20 35  1  0
 21 36  1  0
 22 37  1  0
 22 38  1  0
 23 39  1  0
 23 40  1  0
 27 41  1  0
 27 42  1  0
M  END
$$$$
