
     RDKit          3D

 48 51  0  0  0  0  0  0  0  0999 V2000
    4.4840    0.0306   -3.1376 C   0  0  0  0  0  0  0  0  0  0  0  0
    3.7228    0.2899   -1.8759 C   0  0  0  0  0  0  0  0  0  0  0  0
    2.9738    1.4512   -1.7202 C   0  0  0  0  0  0  0  0  0  0  0  0
    2.2090    1.6551   -0.5642 C   0  0  0  0  0  0  0  0  0  0  0  0
    2.1570    0.7200    0.4540 C   0  0  0  0  0  0  0  0  0  0  0  0
    1.3779    0.9483    1.5280 N   0  0  0  0  0  0  0  0  0  0  0  0
    1.3304    0.0054    2.5036 C   0  0  0  0  0  0  0  0  0  0  0  0
    0.2154    0.3605    3.8624 S   0  0  0  0  0  0  0  0  0  0  0  0
   -1.3257    0.6712    2.9439 C   0  0  0  0  0  0  0  0  0  0  0  0
   -1.5740   -0.3307    1.8096 C   0  0  0  0  0  0  0  0  0  0  0  0
   -1.3049   -1.5267    1.9713 O   0  0  0  0  0  0  0  0  0  0  0  0
   -2.1916    0.1667    0.6614 N   0  0  0  0  0  0  0  0  0  0  0  0
   -2.6099   -0.6278   -0.4385 C   0  0  0  0  0  0  0  0  0  0  0  0
   -2.3127   -1.9502   -0.7355 C   0  0  0  0  0  0  0  0  0  0  0  0
   -2.8581   -2.5182   -1.8977 C   0  0  0  0  0  0  0  0  0  0  0  0
   -3.6986   -1.7717   -2.7381 C   0  0  0  0  0  0  0  0  0  0  0  0
   -3.9959   -0.4407   -2.4344 C   0  0  0  0  0  0  0  0  0  0  0  0
   -3.4414    0.1149   -1.2856 C   0  0  0  0  0  0  0  0  0  0  0  0
   -3.6650    1.4992   -0.7543 C   0  0  0  0  0  0  0  0  0  0  0  0
   -2.6286    1.5725    0.3933 C   0  0  0  0  0  0  0  0  0  0  0  0
   -1.4539    2.4721   -0.0329 C   0  0  0  0  0  0  0  0  0  0  0  0
    2.0823   -1.1721    2.4697 C   0  0  0  0  0  0  0  0  0  0  0  0
    2.0011   -2.2236    3.5414 C   0  0  0  0  0  0  0  0  0  0  0  0
    2.8751   -1.3967    1.3377 C   0  0  0  0  0  0  0  0  0  0  0  0
    2.9206   -0.4516    0.3050 C   0  0  0  0  0  0  0  0  0  0  0  0
    3.6896   -0.6619   -0.8553 C   0  0  0  0  0  0  0  0  0  0  0  0
    4.8377    0.9627   -3.5893 H   0  0  0  0  0  0  0  0  0  0  0  0
    3.8400   -0.4833   -3.8571 H   0  0  0  0  0  0  0  0  0  0  0  0
    5.3669   -0.5912   -2.9502 H   0  0  0  0  0  0  0  0  0  0  0  0
    2.9655    2.2131   -2.4939 H   0  0  0  0  0  0  0  0  0  0  0  0
    1.6217    2.5659   -0.4750 H   0  0  0  0  0  0  0  0  0  0  0  0
   -2.1663    0.5582    3.6587 H   0  0  0  0  0  0  0  0  0  0  0  0
   -1.3217    1.7148    2.6226 H   0  0  0  0  0  0  0  0  0  0  0  0
   -1.6424   -2.5445   -0.1142 H   0  0  0  0  0  0  0  0  0  0  0  0
   -2.6311   -3.5574   -2.1426 H   0  0  0  0  0  0  0  0  0  0  0  0
   -4.1227   -2.2247   -3.6359 H   0  0  0  0  0  0  0  0  0  0  0  0
   -4.6495    0.1376   -3.0850 H   0  0  0  0  0  0  0  0  0  0  0  0
   -4.6856    1.5866   -0.3611 H   0  0  0  0  0  0  0  0  0  0  0  0
   -3.5064    2.2515   -1.5229 H   0  0  0  0  0  0  0  0  0  0  0  0
   -3.0987    1.9875    1.2955 H   0  0  0  0  0  0  0  0  0  0  0  0
   -1.8055    3.4897   -0.2509 H   0  0  0  0  0  0  0  0  0  0  0  0
   -0.9500    2.0792   -0.9338 H   0  0  0  0  0  0  0  0  0  0  0  0
   -0.6966    2.5528    0.7506 H   0  0  0  0  0  0  0  0  0  0  0  0
    2.8304   -2.9477    3.4821 H   0  0  0  0  0  0  0  0  0  0  0  0
    2.0738   -1.7693    4.5378 H   0  0  0  0  0  0  0  0  0  0  0  0
    1.0566   -2.7762    3.4637 H   0  0  0  0  0  0  0  0  0  0  0  0
    3.4441   -2.3265    1.2522 H   0  0  0  0  0  0  0  0  0  0  0  0
    4.2612   -1.5868   -0.9625 H   0  0  0  0  0  0  0  0  0  0  0  0
  1  2  1  0
  2  3  2  0
  3  4  1  0
  4  5  2  0
  5  6  1  0
  6  7  2  0
  7  8  1  0
  8  9  1  0
  9 10  1  0
 10 11  2  0
 10 12  1  0
 12 13  1  0
 13 14  2  0
 14 15  1  0
 15 16  2  0
 16 17  1  0
 17 18  2  0
 18 19  1  0
 19 20  1  0
 20 21  1  0
  7 22  1  0
 22 23  1  0
 22 24  2  0
 24 25  1  0
 25 26  2  0
 26  2  1  0
 25  5  1  0
 20 12  1  0
 18 13  1  0
  1 27  1  0
  1 28  1  0
  1 29  1  0
  3 30  1  0
  4 31  1  0
  9 32  1  0
  9 33  1  0
 14 34  1  0
 15 35  1  0
 16 36  1  0
 17 37  1  0
 19 38  1  0
 19 39  1  0
 20 40  1  0
 21 41  1  0
 21 42  1  0
 21 43  1  0
 23 44  1  0
 23 45  1  0
 23 46  1  0
 24 47  1  0
 26 48  1  0
M  END
$$$$
