
     RDKit          3D

 37 39  0  0  0  0  0  0  0  0999 V2000
   -0.0697    1.8882    1.7125 C   0  0  0  0  0  0  0  0  0  0  0  0
   -0.7037    0.9755    0.6869 C   0  0  0  0  0  0  0  0  0  0  0  0
   -0.1540   -0.0824    0.1584 N   0  0  0  0  0  0  0  0  0  0  0  0
    1.1674   -0.3451    0.4049 N   0  0  0  0  0  0  0  0  0  0  0  0
    2.1660    0.5396   -0.0037 C   0  0  0  0  0  0  0  0  0  0  0  0
    1.9832    1.6839   -0.4054 O   0  0  0  0  0  0  0  0  0  0  0  0
    3.5532   -0.0013    0.0440 C   0  0  0  0  0  0  0  0  0  0  0  0
    3.9314   -0.9878    0.9669 C   0  0  0  0  0  0  0  0  0  0  0  0
    5.2444   -1.4638    0.9819 C   0  0  0  0  0  0  0  0  0  0  0  0
    6.1817   -0.9527    0.0834 C   0  0  0  0  0  0  0  0  0  0  0  0
    5.8073    0.0390   -0.8229 C   0  0  0  0  0  0  0  0  0  0  0  0
    6.9711    0.6700   -1.9216 Cl  0  0  0  0  0  0  0  0  0  0  0  0
    4.5007    0.5209   -0.8452 C   0  0  0  0  0  0  0  0  0  0  0  0
   -2.1304    1.2881    0.3066 C   0  0  0  0  0  0  0  0  0  0  0  0
   -2.4276    1.1559   -1.1708 C   0  0  0  0  0  0  0  0  0  0  0  0
   -1.9463    1.7953   -2.0881 O   0  0  0  0  0  0  0  0  0  0  0  0
   -3.4601    0.1358   -1.3499 C   0  0  0  0  0  0  0  0  0  0  0  0
   -4.0228   -0.3238   -2.5262 C   0  0  0  0  0  0  0  0  0  0  0  0
   -5.0120   -1.3069   -2.4271 C   0  0  0  0  0  0  0  0  0  0  0  0
   -5.4144   -1.8018   -1.1706 C   0  0  0  0  0  0  0  0  0  0  0  0
   -4.8342   -1.3217    0.0075 C   0  0  0  0  0  0  0  0  0  0  0  0
   -3.8572   -0.3508   -0.1130 C   0  0  0  0  0  0  0  0  0  0  0  0
   -3.1000    0.3176    0.9438 C   0  0  0  0  0  0  0  0  0  0  0  0
   -3.2530    0.1041    2.1332 O   0  0  0  0  0  0  0  0  0  0  0  0
   -0.8041    2.1160    2.4914 H   0  0  0  0  0  0  0  0  0  0  0  0
    0.2240    2.8242    1.2306 H   0  0  0  0  0  0  0  0  0  0  0  0
    0.7941    1.4315    2.1987 H   0  0  0  0  0  0  0  0  0  0  0  0
    1.3935   -1.3290    0.2854 H   0  0  0  0  0  0  0  0  0  0  0  0
    3.2263   -1.3761    1.6980 H   0  0  0  0  0  0  0  0  0  0  0  0
    5.5410   -2.2255    1.6996 H   0  0  0  0  0  0  0  0  0  0  0  0
    7.2036   -1.3241    0.0997 H   0  0  0  0  0  0  0  0  0  0  0  0
    4.2154    1.2980   -1.5517 H   0  0  0  0  0  0  0  0  0  0  0  0
   -2.4084    2.3022    0.6137 H   0  0  0  0  0  0  0  0  0  0  0  0
   -3.7051    0.0659   -3.4887 H   0  0  0  0  0  0  0  0  0  0  0  0
   -5.4779   -1.6956   -3.3311 H   0  0  0  0  0  0  0  0  0  0  0  0
   -6.1867   -2.5675   -1.1186 H   0  0  0  0  0  0  0  0  0  0  0  0
   -5.1368   -1.6960    0.9807 H   0  0  0  0  0  0  0  0  0  0  0  0
  1  2  1  0
  2  3  2  3
  3  4  1  0
  4  5  1  0
  5  6  2  0
  5  7  1  0
  7  8  2  0
  8  9  1  0
  9 10  2  0
 10 11  1  0
 11 12  1  0
 11 13  2  0
  2 14  1  0
 14 15  1  0
 15 16  2  0
 15 17  1  0
 17 18  2  0
 18 19  1  0
 19 20  2  0
 20 21  1  0
 21 22  2  0
 22 23  1  0
 23 24  2  0
 13  7  1  0
 23 14  1  0
 22 17  1  0
  1 25  1  0
  1 26  1  0
  1 27  1  0
  4 28  1  0
  8 29  1  0
  9 30  1  0
 10 31  1  0
 13 32  1  0
 14 33  1  0
 18 34  1  0
 19 35  1  0
 20 36  1  0
 21 37  1  0
M  END
$$$$
