
     RDKit          3D

 57 58  0  0  0  0  0  0  0  0999 V2000
    8.6129   -2.5276    1.1180 C   0  0  0  0  0  0  0  0  0  0  0  0
    8.9663   -1.0729    0.8507 C   0  0  0  0  0  0  0  0  0  0  0  0
    7.9878   -0.3706   -0.0893 C   0  0  0  0  0  0  0  0  0  0  0  0
    6.5745   -0.2461    0.4775 C   0  0  0  0  0  0  0  0  0  0  0  0
    5.8036    0.5268   -0.4439 O   0  0  0  0  0  0  0  0  0  0  0  0
    4.4990    0.7698   -0.1151 C   0  0  0  0  0  0  0  0  0  0  0  0
    3.8066    1.5689   -1.0251 C   0  0  0  0  0  0  0  0  0  0  0  0
    2.4640    1.8942   -0.8135 C   0  0  0  0  0  0  0  0  0  0  0  0
    1.7859    1.4297    0.3224 C   0  0  0  0  0  0  0  0  0  0  0  0
    0.3174    1.7699    0.5072 C   0  0  0  0  0  0  0  0  0  0  0  0
   -0.0363    2.1616    1.9455 C   0  0  0  0  0  0  0  0  0  0  0  0
   -0.4914    0.6507    0.0516 N   0  0  0  0  0  0  0  0  0  0  0  0
   -1.8076    0.7953   -0.3147 C   0  0  0  0  0  0  0  0  0  0  0  0
   -2.4068    1.8643   -0.2969 O   0  0  0  0  0  0  0  0  0  0  0  0
   -2.4443   -0.4994   -0.7565 C   0  0  0  0  0  0  0  0  0  0  0  0
   -3.9184   -0.2966   -1.0646 C   0  0  0  0  0  0  0  0  0  0  0  0
   -4.6589   -1.8221   -1.6102 S   0  0  0  0  0  6  0  0  0  0  0  0
   -3.9797   -2.2111   -2.8344 O   0  0  0  0  0  0  0  0  0  0  0  0
   -4.6842   -2.7365   -0.4828 O   0  0  0  0  0  0  0  0  0  0  0  0
   -6.3399   -1.3951   -2.0613 C   0  0  0  0  0  0  0  0  0  0  0  0
   -7.0515   -0.6868   -0.9394 C   0  0  0  0  0  0  0  0  0  0  0  0
   -7.4818   -1.3880    0.1973 C   0  0  0  0  0  0  0  0  0  0  0  0
   -8.1426   -0.7272    1.2351 C   0  0  0  0  0  0  0  0  0  0  0  0
   -8.3899    0.6416    1.1467 C   0  0  0  0  0  0  0  0  0  0  0  0
   -7.9779    1.3442    0.0175 C   0  0  0  0  0  0  0  0  0  0  0  0
   -8.2899    3.0321   -0.0999 Cl  0  0  0  0  0  0  0  0  0  0  0  0
   -7.3143    0.6900   -1.0221 C   0  0  0  0  0  0  0  0  0  0  0  0
    2.4854    0.6133    1.2242 C   0  0  0  0  0  0  0  0  0  0  0  0
    3.8319    0.2911    1.0107 C   0  0  0  0  0  0  0  0  0  0  0  0
    7.6743   -2.6167    1.6730 H   0  0  0  0  0  0  0  0  0  0  0  0
    8.5175   -3.0873    0.1822 H   0  0  0  0  0  0  0  0  0  0  0  0
    9.3976   -3.0004    1.7169 H   0  0  0  0  0  0  0  0  0  0  0  0
    9.0230   -0.5312    1.8020 H   0  0  0  0  0  0  0  0  0  0  0  0
    9.9670   -1.0333    0.4037 H   0  0  0  0  0  0  0  0  0  0  0  0
    8.3698    0.6332   -0.3162 H   0  0  0  0  0  0  0  0  0  0  0  0
    7.9487   -0.8939   -1.0529 H   0  0  0  0  0  0  0  0  0  0  0  0
    6.6130    0.2599    1.4496 H   0  0  0  0  0  0  0  0  0  0  0  0
    6.1296   -1.2412    0.5866 H   0  0  0  0  0  0  0  0  0  0  0  0
    4.3171    1.9418   -1.9097 H   0  0  0  0  0  0  0  0  0  0  0  0
    1.9514    2.5133   -1.5475 H   0  0  0  0  0  0  0  0  0  0  0  0
    0.0730    2.6336   -0.1255 H   0  0  0  0  0  0  0  0  0  0  0  0
   -1.0686    2.5223    2.0082 H   0  0  0  0  0  0  0  0  0  0  0  0
    0.6195    2.9603    2.3087 H   0  0  0  0  0  0  0  0  0  0  0  0
    0.0439    1.3132    2.6338 H   0  0  0  0  0  0  0  0  0  0  0  0
   -0.0550   -0.2615    0.0027 H   0  0  0  0  0  0  0  0  0  0  0  0
   -2.3204   -1.2431    0.0390 H   0  0  0  0  0  0  0  0  0  0  0  0
   -1.9106   -0.8601   -1.6433 H   0  0  0  0  0  0  0  0  0  0  0  0
   -4.4510    0.0400   -0.1705 H   0  0  0  0  0  0  0  0  0  0  0  0
   -4.0583    0.4383   -1.8637 H   0  0  0  0  0  0  0  0  0  0  0  0
   -6.8583   -2.3228   -2.3243 H   0  0  0  0  0  0  0  0  0  0  0  0
   -6.2870   -0.7717   -2.9598 H   0  0  0  0  0  0  0  0  0  0  0  0
   -7.2996   -2.4589    0.2895 H   0  0  0  0  0  0  0  0  0  0  0  0
   -8.4643   -1.2820    2.1136 H   0  0  0  0  0  0  0  0  0  0  0  0
   -8.9045    1.1513    1.9569 H   0  0  0  0  0  0  0  0  0  0  0  0
   -7.0062    1.2609   -1.8958 H   0  0  0  0  0  0  0  0  0  0  0  0
    1.9923    0.2121    2.1068 H   0  0  0  0  0  0  0  0  0  0  0  0
    4.3261   -0.3393    1.7426 H   0  0  0  0  0  0  0  0  0  0  0  0
  1  2  1  0
  2  3  1  0
  3  4  1  0
  4  5  1  0
  5  6  1  0
  6  7  2  0
  7  8  1  0
  8  9  2  0
  9 10  1  0
 10 11  1  0
 10 12  1  0
 12 13  1  0
 13 14  2  0
 13 15  1  0
 15 16  1  0
 16 17  1  0
 17 18  2  0
 17 19  2  0
 17 20  1  0
 20 21  1  0
 21 22  2  0
 22 23  1  0
 23 24  2  0
 24 25  1  0
 25 26  1  0
 25 27  2  0
  9 28  1  0
 28 29  2  0
 29  6  1  0
 27 21  1  0
  1 30  1  0
  1 31  1  0
  1 32  1  0
  2 33  1  0
  2 34  1  0
  3 35  1  0
  3 36  1  0
  4 37  1  0
  4 38  1  0
  7 39  1  0
  8 40  1  0
 10 41  1  0
 11 42  1  0
 11 43  1  0
 11 44  1  0
 12 45  1  0
 15 46  1  0
 15 47  1  0
 16 48  1  0
 16 49  1  0
 20 50  1  0
 20 51  1  0
 22 52  1  0
 23 53  1  0
 24 54  1  0
 27 55  1  0
 28 56  1  0
 29 57  1  0
M  END
$$$$
