
     RDKit          3D

 39 41  0  0  0  0  0  0  0  0999 V2000
   -1.6897   -3.1902   -0.3554 C   0  0  0  0  0  0  0  0  0  0  0  0
   -1.5203   -2.1995    0.7888 C   0  0  0  0  0  0  0  0  0  0  0  0
   -1.9127   -0.8414    0.3973 N   0  0  0  0  0  0  0  0  0  0  0  0
   -1.0191    0.1040   -0.0812 C   0  0  0  0  0  0  0  0  0  0  0  0
    0.3990   -0.3135   -0.2361 C   0  0  0  0  0  0  0  0  0  0  0  0
    1.3689    0.4846    0.2357 C   0  0  0  0  0  0  0  0  0  0  0  0
    2.8042    0.1808    0.1478 C   0  0  0  0  0  0  0  0  0  0  0  0
    3.6553    0.6538    1.1624 C   0  0  0  0  0  0  0  0  0  0  0  0
    5.0335    0.4116    1.1210 C   0  0  0  0  0  0  0  0  0  0  0  0
    5.5618   -0.2993    0.0527 C   0  0  0  0  0  0  0  0  0  0  0  0
    6.8979   -0.5697   -0.0480 O   0  0  0  0  0  0  0  0  0  0  0  0
    4.7293   -0.7578   -0.9639 C   0  0  0  0  0  0  0  0  0  0  0  0
    5.2582   -1.4497   -2.0165 O   0  0  0  0  0  0  0  0  0  0  0  0
    3.3609   -0.5195   -0.9307 C   0  0  0  0  0  0  0  0  0  0  0  0
   -1.3555    1.3135   -0.4082 N   0  0  0  0  0  0  0  0  0  0  0  0
   -2.6921    1.6997   -0.2827 C   0  0  0  0  0  0  0  0  0  0  0  0
   -3.0530    3.0049   -0.6264 C   0  0  0  0  0  0  0  0  0  0  0  0
   -4.3807    3.4289   -0.5207 C   0  0  0  0  0  0  0  0  0  0  0  0
   -5.3615    2.5463   -0.0694 C   0  0  0  0  0  0  0  0  0  0  0  0
   -5.0128    1.2412    0.2758 C   0  0  0  0  0  0  0  0  0  0  0  0
   -3.6788    0.8290    0.1660 C   0  0  0  0  0  0  0  0  0  0  0  0
   -3.2705   -0.5387    0.5235 C   0  0  0  0  0  0  0  0  0  0  0  0
   -4.1223   -1.3376    0.9085 O   0  0  0  0  0  0  0  0  0  0  0  0
   -1.0877   -2.9051   -1.2236 H   0  0  0  0  0  0  0  0  0  0  0  0
   -1.3811   -4.1912   -0.0385 H   0  0  0  0  0  0  0  0  0  0  0  0
   -2.7338   -3.2434   -0.6806 H   0  0  0  0  0  0  0  0  0  0  0  0
   -0.4845   -2.2109    1.1416 H   0  0  0  0  0  0  0  0  0  0  0  0
   -2.1358   -2.5232    1.6367 H   0  0  0  0  0  0  0  0  0  0  0  0
    0.5992   -1.2493   -0.7399 H   0  0  0  0  0  0  0  0  0  0  0  0
    1.1080    1.4161    0.7356 H   0  0  0  0  0  0  0  0  0  0  0  0
    3.2466    1.2131    2.0023 H   0  0  0  0  0  0  0  0  0  0  0  0
    5.6634    0.7842    1.9220 H   0  0  0  0  0  0  0  0  0  0  0  0
    7.3447   -0.1796    0.7230 H   0  0  0  0  0  0  0  0  0  0  0  0
    6.2178   -1.4836   -1.8298 H   0  0  0  0  0  0  0  0  0  0  0  0
    2.7494   -0.8725   -1.7554 H   0  0  0  0  0  0  0  0  0  0  0  0
   -2.2901    3.6935   -0.9813 H   0  0  0  0  0  0  0  0  0  0  0  0
   -4.6468    4.4474   -0.7927 H   0  0  0  0  0  0  0  0  0  0  0  0
   -6.3949    2.8739    0.0125 H   0  0  0  0  0  0  0  0  0  0  0  0
   -5.7743    0.5493    0.6280 H   0  0  0  0  0  0  0  0  0  0  0  0
  1  2  1  0
  2  3  1  0
  3  4  1  0
  4  5  1  0
  5  6  2  3
  6  7  1  0
  7  8  2  0
  8  9  1  0
  9 10  2  0
 10 11  1  0
 10 12  1  0
 12 13  1  0
 12 14  2  0
  4 15  2  0
 15 16  1  0
 16 17  2  0
 17 18  1  0
 18 19  2  0
 19 20  1  0
 20 21  2  0
 21 22  1  0
 22 23  2  0
 22  3  1  0
 14  7  1  0
 21 16  1  0
  1 24  1  0
  1 25  1  0
  1 26  1  0
  2 27  1  0
  2 28  1  0
  5 29  1  0
  6 30  1  0
  8 31  1  0
  9 32  1  0
 11 33  1  0
 13 34  1  0
 14 35  1  0
 17 36  1  0
 18 37  1  0
 19 38  1  0
 20 39  1  0
M  END
$$$$
