
     RDKit          3D

 55 58  0  0  0  0  0  0  0  0999 V2000
   -7.9183   -0.8939   -0.2426 C   0  0  0  0  0  0  0  0  0  0  0  0
   -7.5839    0.5886   -0.1793 C   0  0  0  0  0  0  0  0  0  0  0  0
   -7.4869    1.2487   -1.5574 C   0  0  0  0  0  0  0  0  0  0  0  0
   -6.3133    0.7815   -2.4195 C   0  0  0  0  0  0  0  0  0  0  0  0
   -5.0348    1.2018   -1.8806 N   0  0  0  0  0  0  0  0  0  0  0  0
   -4.1974    0.3348   -1.2098 C   0  0  0  0  0  0  0  0  0  0  0  0
   -4.4490   -0.8505   -1.0272 O   0  0  0  0  0  0  0  0  0  0  0  0
   -2.9434    0.9214   -0.6610 C   0  0  0  0  0  0  0  0  0  0  0  0
   -2.3050    2.0118   -1.2610 C   0  0  0  0  0  0  0  0  0  0  0  0
   -1.1267    2.5258   -0.7088 C   0  0  0  0  0  0  0  0  0  0  0  0
   -0.5588    1.9522    0.4391 C   0  0  0  0  0  0  0  0  0  0  0  0
    0.7263    2.5064    1.0290 C   0  0  0  0  0  0  0  0  0  0  0  0
    1.8824    1.6262    0.8176 N   0  0  0  0  0  0  0  0  0  0  0  0
    2.6677    1.7040   -0.3518 C   0  0  0  0  0  0  0  0  0  0  0  0
    2.4824    2.7853   -1.6254 S   0  0  0  0  0  0  0  0  0  0  0  0
    3.7128    0.8126   -0.4763 N   0  0  0  0  0  0  0  0  0  0  0  0
    4.0065   -0.1076    0.4926 C   0  0  0  0  0  0  0  0  0  0  0  0
    3.2505   -0.1439    1.6245 C   0  0  0  0  0  0  0  0  0  0  0  0
    3.7437   -1.1340    2.4276 N   0  0  0  0  0  0  0  0  0  0  0  0
    4.8217   -1.7373    1.8104 C   0  0  0  0  0  0  0  0  0  0  0  0
    5.6386   -2.7867    2.2421 C   0  0  0  0  0  0  0  0  0  0  0  0
    6.6758   -3.1981    1.3932 C   0  0  0  0  0  0  0  0  0  0  0  0
    6.8890   -2.5837    0.1588 C   0  0  0  0  0  0  0  0  0  0  0  0
    7.8705   -2.9084   -0.7398 O   0  0  0  0  0  0  0  0  0  0  0  0
    8.7393   -3.9776   -0.3879 C   0  0  0  0  0  0  0  0  0  0  0  0
    6.0578   -1.5332   -0.2542 C   0  0  0  0  0  0  0  0  0  0  0  0
    5.0081   -1.1006    0.5783 C   0  0  0  0  0  0  0  0  0  0  0  0
    2.1479    0.7279    1.8734 C   0  0  0  0  0  0  0  0  0  0  0  0
    1.5175    0.6811    2.9263 O   0  0  0  0  0  0  0  0  0  0  0  0
   -1.2047    0.8553    1.0291 C   0  0  0  0  0  0  0  0  0  0  0  0
   -2.3823    0.3399    0.4803 C   0  0  0  0  0  0  0  0  0  0  0  0
   -7.1234   -1.4688   -0.7249 H   0  0  0  0  0  0  0  0  0  0  0  0
   -8.0494   -1.2922    0.7687 H   0  0  0  0  0  0  0  0  0  0  0  0
   -8.8484   -1.0624   -0.7947 H   0  0  0  0  0  0  0  0  0  0  0  0
   -8.3748    1.0940    0.3884 H   0  0  0  0  0  0  0  0  0  0  0  0
   -6.6559    0.7345    0.3840 H   0  0  0  0  0  0  0  0  0  0  0  0
   -8.4198    1.0680   -2.1054 H   0  0  0  0  0  0  0  0  0  0  0  0
   -7.4131    2.3343   -1.4142 H   0  0  0  0  0  0  0  0  0  0  0  0
   -6.3292   -0.3026   -2.5656 H   0  0  0  0  0  0  0  0  0  0  0  0
   -6.3924    1.2464   -3.4085 H   0  0  0  0  0  0  0  0  0  0  0  0
   -4.8369    2.1922   -1.8676 H   0  0  0  0  0  0  0  0  0  0  0  0
   -2.6898    2.4559   -2.1743 H   0  0  0  0  0  0  0  0  0  0  0  0
   -0.6500    3.3752   -1.1950 H   0  0  0  0  0  0  0  0  0  0  0  0
    0.9328    3.5000    0.6167 H   0  0  0  0  0  0  0  0  0  0  0  0
    0.5658    2.6759    2.1012 H   0  0  0  0  0  0  0  0  0  0  0  0
    4.2822    0.8459   -1.3141 H   0  0  0  0  0  0  0  0  0  0  0  0
    3.3694   -1.3815    3.3347 H   0  0  0  0  0  0  0  0  0  0  0  0
    5.4816   -3.2720    3.2004 H   0  0  0  0  0  0  0  0  0  0  0  0
    7.3058   -4.0133    1.7354 H   0  0  0  0  0  0  0  0  0  0  0  0
    9.4534   -4.1111   -1.2064 H   0  0  0  0  0  0  0  0  0  0  0  0
    9.3102   -3.7411    0.5162 H   0  0  0  0  0  0  0  0  0  0  0  0
    8.1854   -4.9154   -0.2734 H   0  0  0  0  0  0  0  0  0  0  0  0
    6.2279   -1.0592   -1.2163 H   0  0  0  0  0  0  0  0  0  0  0  0
   -0.8016    0.3892    1.9262 H   0  0  0  0  0  0  0  0  0  0  0  0
   -2.8636   -0.5167    0.9489 H   0  0  0  0  0  0  0  0  0  0  0  0
  1  2  1  0
  2  3  1  0
  3  4  1  0
  4  5  1  0
  5  6  1  0
  6  7  2  0
  6  8  1  0
  8  9  2  0
  9 10  1  0
 10 11  2  0
 11 12  1  0
 12 13  1  0
 13 14  1  0
 14 15  2  0
 14 16  1  0
 16 17  1  0
 17 18  2  0
 18 19  1  0
 19 20  1  0
 20 21  2  0
 21 22  1  0
 22 23  2  0
 23 24  1  0
 24 25  1  0
 23 26  1  0
 26 27  2  0
 18 28  1  0
 28 29  2  0
 11 30  1  0
 30 31  2  0
 31  8  1  0
 28 13  1  0
 27 17  1  0
 27 20  1  0
  1 32  1  0
  1 33  1  0
  1 34  1  0
  2 35  1  0
  2 36  1  0
  3 37  1  0
  3 38  1  0
  4 39  1  0
  4 40  1  0
  5 41  1  0
  9 42  1  0
 10 43  1  0
 12 44  1  0
 12 45  1  0
 16 46  1  0
 19 47  1  0
 21 48  1  0
 22 49  1  0
 25 50  1  0
 25 51  1  0
 25 52  1  0
 26 53  1  0
 30 54  1  0
 31 55  1  0
M  END
$$$$
