
     RDKit          3D

 51 53  0  0  0  0  0  0  0  0999 V2000
   -2.9662   -3.2938   -1.9421 C   0  0  0  0  0  0  0  0  0  0  0  0
   -3.9083   -2.2293   -1.8967 O   0  0  0  0  0  0  0  0  0  0  0  0
   -4.1297   -1.7236   -0.5805 C   0  0  0  0  0  0  0  0  0  0  0  0
   -2.9552   -0.8796   -0.0948 C   0  0  0  0  0  0  0  0  0  0  0  0
   -3.2995   -0.1334    1.1913 C   0  0  0  0  0  0  0  0  0  0  0  0
   -2.2279    0.7413    1.6245 N   0  0  0  0  0  0  0  0  0  0  0  0
   -1.1187    0.4079    2.3537 C   0  0  0  0  0  0  0  0  0  0  0  0
   -0.7591   -1.1895    2.9045 S   0  0  0  0  0  0  0  0  0  0  0  0
    1.0550   -1.1571    2.7557 C   0  0  0  0  0  0  0  0  0  0  0  0
    1.4922   -1.0232    1.3119 C   0  0  0  0  0  0  0  0  0  0  0  0
    0.8362   -1.3484    0.3297 O   0  0  0  0  0  0  0  0  0  0  0  0
    2.7667   -0.5381    1.2693 O   0  0  0  0  0  0  0  0  0  0  0  0
    3.3258   -0.3327   -0.0396 C   0  0  0  0  0  0  0  0  0  0  0  0
    4.3435    0.8072    0.0669 C   0  0  0  0  0  0  0  0  0  0  0  0
    5.0879    1.0176   -1.2480 C   0  0  0  0  0  0  0  0  0  0  0  0
    5.7588   -0.2711   -1.7204 C   0  0  0  0  0  0  0  0  0  0  0  0
    4.7544   -1.4188   -1.8243 C   0  0  0  0  0  0  0  0  0  0  0  0
    3.9963   -1.6258   -0.5170 C   0  0  0  0  0  0  0  0  0  0  0  0
   -0.3733    1.4693    2.5531 N   0  0  0  0  0  0  0  0  0  0  0  0
   -1.0182    2.5394    1.9817 N   0  0  0  0  0  0  0  0  0  0  0  0
   -2.1278    2.0989    1.4202 C   0  0  0  0  0  0  0  0  0  0  0  0
   -3.0751    2.9295    0.7410 C   0  0  0  0  0  0  0  0  0  0  0  0
   -3.4915    2.8518   -0.5745 C   0  0  0  0  0  0  0  0  0  0  0  0
   -4.4660    3.8442   -0.8958 C   0  0  0  0  0  0  0  0  0  0  0  0
   -4.7539    4.6510    0.1851 C   0  0  0  0  0  0  0  0  0  0  0  0
   -3.8463    4.2171    1.5678 S   0  0  0  0  0  0  0  0  0  0  0  0
   -3.2768   -4.1144   -1.2868 H   0  0  0  0  0  0  0  0  0  0  0  0
   -1.9687   -2.9451   -1.6604 H   0  0  0  0  0  0  0  0  0  0  0  0
   -2.9216   -3.6669   -2.9690 H   0  0  0  0  0  0  0  0  0  0  0  0
   -5.0283   -1.0967   -0.6328 H   0  0  0  0  0  0  0  0  0  0  0  0
   -4.3486   -2.5464    0.1110 H   0  0  0  0  0  0  0  0  0  0  0  0
   -2.0844   -1.5241    0.0713 H   0  0  0  0  0  0  0  0  0  0  0  0
   -2.6509   -0.1834   -0.8820 H   0  0  0  0  0  0  0  0  0  0  0  0
   -3.5135   -0.8345    2.0060 H   0  0  0  0  0  0  0  0  0  0  0  0
   -4.2041    0.4714    1.0626 H   0  0  0  0  0  0  0  0  0  0  0  0
    1.4581   -2.0949    3.1474 H   0  0  0  0  0  0  0  0  0  0  0  0
    1.4519   -0.3281    3.3508 H   0  0  0  0  0  0  0  0  0  0  0  0
    2.5415   -0.0262   -0.7489 H   0  0  0  0  0  0  0  0  0  0  0  0
    5.0570    0.5970    0.8757 H   0  0  0  0  0  0  0  0  0  0  0  0
    3.8316    1.7310    0.3608 H   0  0  0  0  0  0  0  0  0  0  0  0
    5.8379    1.8076   -1.1246 H   0  0  0  0  0  0  0  0  0  0  0  0
    4.3823    1.3653   -2.0158 H   0  0  0  0  0  0  0  0  0  0  0  0
    6.5576   -0.5441   -1.0185 H   0  0  0  0  0  0  0  0  0  0  0  0
    6.2296   -0.1052   -2.6949 H   0  0  0  0  0  0  0  0  0  0  0  0
    5.2731   -2.3442   -2.1041 H   0  0  0  0  0  0  0  0  0  0  0  0
    4.0384   -1.2032   -2.6267 H   0  0  0  0  0  0  0  0  0  0  0  0
    4.6804   -1.9960    0.2568 H   0  0  0  0  0  0  0  0  0  0  0  0
    3.2423   -2.4113   -0.6475 H   0  0  0  0  0  0  0  0  0  0  0  0
   -3.1093    2.1318   -1.2835 H   0  0  0  0  0  0  0  0  0  0  0  0
   -4.9280    3.9672   -1.8686 H   0  0  0  0  0  0  0  0  0  0  0  0
   -5.4475    5.4826    0.2285 H   0  0  0  0  0  0  0  0  0  0  0  0
  1  2  1  0
  2  3  1  0
  3  4  1  0
  4  5  1  0
  5  6  1  0
  6  7  1  0
  7  8  1  0
  8  9  1  0
  9 10  1  0
 10 11  2  0
 10 12  1  0
 12 13  1  0
 13 14  1  0
 14 15  1  0
 15 16  1  0
 16 17  1  0
 17 18  1  0
  7 19  2  0
 19 20  1  0
 20 21  2  0
 21 22  1  0
 22 23  2  0
 23 24  1  0
 24 25  2  0
 25 26  1  0
 21  6  1  0
 26 22  1  0
 18 13  1  0
  1 27  1  0
  1 28  1  0
  1 29  1  0
  3 30  1  0
  3 31  1  0
  4 32  1  0
  4 33  1  0
  5 34  1  0
  5 35  1  0
  9 36  1  0
  9 37  1  0
 13 38  1  0
 14 39  1  0
 14 40  1  0
 15 41  1  0
 15 42  1  0
 16 43  1  0
 16 44  1  0
 17 45  1  0
 17 46  1  0
 18 47  1  0
 18 48  1  0
 23 49  1  0
 24 50  1  0
 25 51  1  0
M  END
$$$$
