
     RDKit          3D

 57 61  0  0  0  0  0  0  0  0999 V2000
    7.7204    0.2366    1.5690 C   0  0  0  0  0  0  0  0  0  0  0  0
    6.6281   -0.7293    1.2175 C   0  0  0  0  0  0  0  0  0  0  0  0
    6.7971   -1.6360    0.1655 C   0  0  0  0  0  0  0  0  0  0  0  0
    5.7690   -2.5132   -0.1866 C   0  0  0  0  0  0  0  0  0  0  0  0
    4.5497   -2.4949    0.5042 C   0  0  0  0  0  0  0  0  0  0  0  0
    3.4349   -3.4326    0.1152 C   0  0  0  0  0  0  0  0  0  0  0  0
    2.6892   -2.9303   -1.0192 N   0  0  0  0  0  0  0  0  0  0  0  0
    2.9645   -3.3572   -2.2773 N   0  0  0  0  0  0  0  0  0  0  0  0
    2.1181   -2.7468   -3.1070 N   0  0  0  0  0  0  0  0  0  0  0  0
    1.3077   -1.9576   -2.3499 C   0  0  0  0  0  0  0  0  0  0  0  0
    0.2240   -1.0890   -2.7244 C   0  0  0  0  0  0  0  0  0  0  0  0
   -0.1848   -0.9121   -3.8661 O   0  0  0  0  0  0  0  0  0  0  0  0
   -0.3389   -0.4593   -1.6214 N   0  0  0  0  0  0  0  0  0  0  0  0
    0.0738   -0.6641   -0.3054 C   0  0  0  0  0  0  0  0  0  0  0  0
   -0.6873    0.1065    0.7659 C   0  0  0  0  0  0  0  0  0  0  0  0
   -2.1584   -0.3510    0.7733 C   0  0  0  0  0  0  0  0  0  0  0  0
   -3.1245    0.6668    1.3559 C   0  0  0  0  0  0  0  0  0  0  0  0
   -2.8630    2.0272    0.8333 N   0  0  0  0  0  0  0  0  0  0  0  0
   -3.2973    2.3750   -0.7837 S   0  0  0  0  0  6  0  0  0  0  0  0
   -2.6568    1.3808   -1.6255 O   0  0  0  0  0  0  0  0  0  0  0  0
   -3.0818    3.7866   -1.0108 O   0  0  0  0  0  0  0  0  0  0  0  0
   -5.0487    2.0951   -0.7982 C   0  0  0  0  0  0  0  0  0  0  0  0
   -5.5899    1.0624   -1.5722 C   0  0  0  0  0  0  0  0  0  0  0  0
   -6.9706    0.8596   -1.5682 C   0  0  0  0  0  0  0  0  0  0  0  0
   -7.7869    1.6877   -0.8016 C   0  0  0  0  0  0  0  0  0  0  0  0
   -9.1108    1.4866   -0.7997 F   0  0  0  0  0  0  0  0  0  0  0  0
   -7.2515    2.7216   -0.0382 C   0  0  0  0  0  0  0  0  0  0  0  0
   -5.8727    2.9323   -0.0358 C   0  0  0  0  0  0  0  0  0  0  0  0
   -1.5082    2.4821    1.2294 C   0  0  0  0  0  0  0  0  0  0  0  0
   -0.4469    1.6151    0.5730 C   0  0  0  0  0  0  0  0  0  0  0  0
    1.0473   -1.4595    0.0446 N   0  0  0  0  0  0  0  0  0  0  0  0
    1.6307   -2.0674   -1.0184 C   0  0  0  0  0  0  0  0  0  0  0  0
    4.3742   -1.5696    1.5420 C   0  0  0  0  0  0  0  0  0  0  0  0
    5.4038   -0.6936    1.8935 C   0  0  0  0  0  0  0  0  0  0  0  0
    7.6766    0.5077    2.6292 H   0  0  0  0  0  0  0  0  0  0  0  0
    8.7057   -0.2057    1.3878 H   0  0  0  0  0  0  0  0  0  0  0  0
    7.6238    1.1457    0.9675 H   0  0  0  0  0  0  0  0  0  0  0  0
    7.7306   -1.6621   -0.3925 H   0  0  0  0  0  0  0  0  0  0  0  0
    5.9227   -3.2039   -1.0144 H   0  0  0  0  0  0  0  0  0  0  0  0
    2.7324   -3.5799    0.9436 H   0  0  0  0  0  0  0  0  0  0  0  0
    3.8330   -4.4209   -0.1439 H   0  0  0  0  0  0  0  0  0  0  0  0
   -1.1116    0.1692   -1.8367 H   0  0  0  0  0  0  0  0  0  0  0  0
   -0.2633   -0.1628    1.7434 H   0  0  0  0  0  0  0  0  0  0  0  0
   -2.4999   -0.6318   -0.2284 H   0  0  0  0  0  0  0  0  0  0  0  0
   -2.2343   -1.2826    1.3500 H   0  0  0  0  0  0  0  0  0  0  0  0
   -3.0221    0.6911    2.4482 H   0  0  0  0  0  0  0  0  0  0  0  0
   -4.1602    0.3694    1.1659 H   0  0  0  0  0  0  0  0  0  0  0  0
   -4.9539    0.4219   -2.1792 H   0  0  0  0  0  0  0  0  0  0  0  0
   -7.4177    0.0667   -2.1605 H   0  0  0  0  0  0  0  0  0  0  0  0
   -7.9123    3.3569    0.5440 H   0  0  0  0  0  0  0  0  0  0  0  0
   -5.4459    3.7426    0.5519 H   0  0  0  0  0  0  0  0  0  0  0  0
   -1.3672    3.5367    0.9698 H   0  0  0  0  0  0  0  0  0  0  0  0
   -1.4199    2.4270    2.3215 H   0  0  0  0  0  0  0  0  0  0  0  0
    0.5361    1.8744    0.9870 H   0  0  0  0  0  0  0  0  0  0  0  0
   -0.3772    1.8774   -0.4885 H   0  0  0  0  0  0  0  0  0  0  0  0
    3.4286   -1.5164    2.0781 H   0  0  0  0  0  0  0  0  0  0  0  0
    5.2424    0.0212    2.6972 H   0  0  0  0  0  0  0  0  0  0  0  0
  1  2  1  0
  2  3  2  0
  3  4  1  0
  4  5  2  0
  5  6  1  0
  6  7  1  0
  7  8  1  0
  8  9  2  0
  9 10  1  0
 10 11  1  0
 11 12  2  0
 11 13  1  0
 13 14  1  0
 14 15  1  0
 15 16  1  0
 16 17  1  0
 17 18  1  0
 18 19  1  0
 19 20  2  0
 19 21  2  0
 19 22  1  0
 22 23  2  0
 23 24  1  0
 24 25  2  0
 25 26  1  0
 25 27  1  0
 27 28  2  0
 18 29  1  0
 29 30  1  0
 14 31  2  0
 31 32  1  0
  5 33  1  0
 33 34  2  0
 34  2  1  0
 32  7  1  0
 32 10  2  0
 30 15  1  0
 28 22  1  0
  1 35  1  0
  1 36  1  0
  1 37  1  0
  3 38  1  0
  4 39  1  0
  6 40  1  0
  6 41  1  0
 13 42  1  0
 15 43  1  0
 16 44  1  0
 16 45  1  0
 17 46  1  0
 17 47  1  0
 23 48  1  0
 24 49  1  0
 27 50  1  0
 28 51  1  0
 29 52  1  0
 29 53  1  0
 30 54  1  0
 30 55  1  0
 33 56  1  0
 34 57  1  0
M  END
$$$$
