
     RDKit          3D

 36 39  0  0  0  0  0  0  0  0999 V2000
   -3.5515   -3.0131    0.0984 C   0  0  0  0  0  0  0  0  0  0  0  0
   -2.9302   -1.7936   -0.5360 C   0  0  0  0  0  0  0  0  0  0  0  0
   -3.8562   -0.7896   -1.1381 C   0  0  0  0  0  0  0  0  0  0  0  0
   -3.2953    0.2962   -1.7034 C   0  0  0  0  0  0  0  0  0  0  0  0
   -4.1582    1.3486   -2.3277 C   0  0  0  0  0  0  0  0  0  0  0  0
   -1.8914    0.4057   -1.6854 N   0  0  0  0  0  0  0  0  0  0  0  0
   -1.0132    1.3611   -2.1612 C   0  0  0  0  0  0  0  0  0  0  0  0
   -1.3725    2.9935   -3.0793 Br  0  0  0  0  0  0  0  0  0  0  0  0
    0.2555    0.9235   -1.8353 C   0  0  0  0  0  0  0  0  0  0  0  0
    1.5866    1.5537   -2.0774 C   0  0  0  0  0  0  0  0  0  0  0  0
    1.9697    2.7976   -0.8077 S   0  0  0  0  0  0  0  0  0  0  0  0
    2.4322    1.7205    0.4909 C   0  0  0  0  0  0  0  0  0  0  0  0
    3.5149    0.9858    0.3987 N   0  0  0  0  0  0  0  0  0  0  0  0
    3.6466    0.2194    1.5446 C   0  0  0  0  0  0  0  0  0  0  0  0
    4.6763   -0.7080    1.8039 C   0  0  0  0  0  0  0  0  0  0  0  0
    4.6895   -1.4154    3.0106 C   0  0  0  0  0  0  0  0  0  0  0  0
    3.6925   -1.2094    3.9590 C   0  0  0  0  0  0  0  0  0  0  0  0
    2.6605   -0.2945    3.7276 C   0  0  0  0  0  0  0  0  0  0  0  0
    2.6568    0.4101    2.5122 C   0  0  0  0  0  0  0  0  0  0  0  0
    1.5395    1.5903    1.9419 S   0  0  0  0  0  0  0  0  0  0  0  0
    0.1830   -0.2841   -1.1871 N   0  0  0  0  0  0  0  0  0  0  0  0
   -1.0940   -0.5861   -1.0954 C   0  0  0  0  0  0  0  0  0  0  0  0
   -1.6372   -1.6948   -0.5188 N   0  0  0  0  0  0  0  0  0  0  0  0
   -4.6420   -2.9931    0.0285 H   0  0  0  0  0  0  0  0  0  0  0  0
   -3.2659   -3.0552    1.1536 H   0  0  0  0  0  0  0  0  0  0  0  0
   -3.1816   -3.9101   -0.4070 H   0  0  0  0  0  0  0  0  0  0  0  0
   -4.9230   -0.9673   -1.0991 H   0  0  0  0  0  0  0  0  0  0  0  0
   -5.2228    1.0986   -2.2483 H   0  0  0  0  0  0  0  0  0  0  0  0
   -3.9398    1.4508   -3.3950 H   0  0  0  0  0  0  0  0  0  0  0  0
   -4.0250    2.3117   -1.8259 H   0  0  0  0  0  0  0  0  0  0  0  0
    2.3719    0.7906   -2.1117 H   0  0  0  0  0  0  0  0  0  0  0  0
    1.5954    2.0500   -3.0533 H   0  0  0  0  0  0  0  0  0  0  0  0
    5.4505   -0.8671    1.0600 H   0  0  0  0  0  0  0  0  0  0  0  0
    5.4841   -2.1320    3.2040 H   0  0  0  0  0  0  0  0  0  0  0  0
    3.7130   -1.7682    4.8923 H   0  0  0  0  0  0  0  0  0  0  0  0
    1.8814   -0.1363    4.4668 H   0  0  0  0  0  0  0  0  0  0  0  0
  1  2  1  0
  2  3  1  0
  3  4  2  0
  4  5  1  0
  4  6  1  0
  6  7  1  0
  7  8  1  0
  7  9  2  0
  9 10  1  0
 10 11  1  0
 11 12  1  0
 12 13  2  0
 13 14  1  0
 14 15  2  0
 15 16  1  0
 16 17  2  0
 17 18  1  0
 18 19  2  0
 19 20  1  0
  9 21  1  0
 21 22  2  0
 22 23  1  0
 23  2  2  0
 22  6  1  0
 20 12  1  0
 19 14  1  0
  1 24  1  0
  1 25  1  0
  1 26  1  0
  3 27  1  0
  5 28  1  0
  5 29  1  0
  5 30  1  0
 10 31  1  0
 10 32  1  0
 15 33  1  0
 16 34  1  0
 17 35  1  0
 18 36  1  0
M  END
$$$$
