
     RDKit          3D

 45 48  0  0  0  0  0  0  0  0999 V2000
   -2.9594   -2.7792   -1.0665 C   0  0  0  0  0  0  0  0  0  0  0  0
   -2.9683   -1.4035   -0.5025 C   0  0  0  0  0  0  0  0  0  0  0  0
   -4.0115   -0.7995    0.1902 C   0  0  0  0  0  0  0  0  0  0  0  0
   -5.2198   -1.2328    0.5272 O   0  0  0  0  0  0  0  0  0  0  0  0
   -3.6087    0.4580    0.5267 N   0  0  0  0  0  0  0  0  0  0  0  0
   -2.3349    0.6882    0.0777 C   0  0  0  0  0  0  0  0  0  0  0  0
   -1.6056    1.8669    0.2483 C   0  0  0  0  0  0  0  0  0  0  0  0
   -0.3291    1.8886   -0.3145 C   0  0  0  0  0  0  0  0  0  0  0  0
    0.1620    0.7543   -0.9760 C   0  0  0  0  0  0  0  0  0  0  0  0
    1.7985    0.7775   -1.6675 S   0  0  0  0  0  6  0  0  0  0  0  0
    1.6850    0.3710   -3.0521 O   0  0  0  0  0  0  0  0  0  0  0  0
    2.4431    2.0217   -1.3005 O   0  0  0  0  0  0  0  0  0  0  0  0
    2.5850   -0.4713   -0.8045 N   0  0  0  0  0  0  0  0  0  0  0  0
    2.7212   -0.2690    0.6665 C   0  0  0  0  0  0  0  0  0  0  0  0
    4.1735   -0.0691    1.0778 C   0  0  0  0  0  0  0  0  0  0  0  0
    5.0394   -1.2671    0.6944 C   0  0  0  0  0  0  0  0  0  0  0  0
    4.5519   -1.9516   -0.5808 C   0  0  0  0  0  0  0  0  0  0  0  0
    3.8076   -0.9782   -1.4855 C   0  0  0  0  0  0  0  0  0  0  0  0
   -0.6003   -0.4229   -1.1207 C   0  0  0  0  0  0  0  0  0  0  0  0
   -1.8957   -0.4498   -0.5732 C   0  0  0  0  0  0  0  0  0  0  0  0
   -2.2609    3.0179    0.9556 C   0  0  0  0  0  0  0  0  0  0  0  0
   -3.3739    2.5075    1.9006 C   0  0  0  0  0  0  0  0  0  0  0  0
   -4.3353    1.5032    1.2293 C   0  0  0  0  0  0  0  0  0  0  0  0
   -2.1115   -2.9348   -1.7403 H   0  0  0  0  0  0  0  0  0  0  0  0
   -3.8755   -2.9677   -1.6357 H   0  0  0  0  0  0  0  0  0  0  0  0
   -2.8946   -3.5173   -0.2608 H   0  0  0  0  0  0  0  0  0  0  0  0
   -5.3060   -2.1404    0.1873 H   0  0  0  0  0  0  0  0  0  0  0  0
    0.2807    2.7863   -0.2349 H   0  0  0  0  0  0  0  0  0  0  0  0
    2.3016   -1.1510    1.1651 H   0  0  0  0  0  0  0  0  0  0  0  0
    2.1325    0.5875    1.0092 H   0  0  0  0  0  0  0  0  0  0  0  0
    4.2427    0.1038    2.1576 H   0  0  0  0  0  0  0  0  0  0  0  0
    4.5677    0.8320    0.5907 H   0  0  0  0  0  0  0  0  0  0  0  0
    5.0508   -2.0001    1.5099 H   0  0  0  0  0  0  0  0  0  0  0  0
    6.0753   -0.9303    0.5682 H   0  0  0  0  0  0  0  0  0  0  0  0
    5.4028   -2.3929   -1.1117 H   0  0  0  0  0  0  0  0  0  0  0  0
    3.8841   -2.7802   -0.3119 H   0  0  0  0  0  0  0  0  0  0  0  0
    4.4635   -0.1456   -1.7656 H   0  0  0  0  0  0  0  0  0  0  0  0
    3.5090   -1.5050   -2.3985 H   0  0  0  0  0  0  0  0  0  0  0  0
   -0.1959   -1.2825   -1.6474 H   0  0  0  0  0  0  0  0  0  0  0  0
   -1.5207    3.5768    1.5389 H   0  0  0  0  0  0  0  0  0  0  0  0
   -2.6892    3.6956    0.2081 H   0  0  0  0  0  0  0  0  0  0  0  0
   -3.9417    3.3565    2.2974 H   0  0  0  0  0  0  0  0  0  0  0  0
   -2.9005    2.0122    2.7595 H   0  0  0  0  0  0  0  0  0  0  0  0
   -4.9763    1.0312    1.9805 H   0  0  0  0  0  0  0  0  0  0  0  0
   -4.9625    2.0051    0.4843 H   0  0  0  0  0  0  0  0  0  0  0  0
  1  2  1  0
  2  3  2  0
  3  4  1  0
  3  5  1  0
  5  6  1  0
  6  7  2  0
  7  8  1  0
  8  9  2  0
  9 10  1  0
 10 11  2  0
 10 12  2  0
 10 13  1  0
 13 14  1  0
 14 15  1  0
 15 16  1  0
 16 17  1  0
 17 18  1  0
  9 19  1  0
 19 20  2  0
  7 21  1  0
 21 22  1  0
 22 23  1  0
 20  2  1  0
 23  5  1  0
 20  6  1  0
 18 13  1  0
  1 24  1  0
  1 25  1  0
  1 26  1  0
  4 27  1  0
  8 28  1  0
 14 29  1  0
 14 30  1  0
 15 31  1  0
 15 32  1  0
 16 33  1  0
 16 34  1  0
 17 35  1  0
 17 36  1  0
 18 37  1  0
 18 38  1  0
 19 39  1  0
 21 40  1  0
 21 41  1  0
 22 42  1  0
 22 43  1  0
 23 44  1  0
 23 45  1  0
M  END
$$$$
