
     RDKit          3D

 57 60  0  0  0  0  0  0  0  0999 V2000
    6.4238    0.4113   -1.9309 C   0  0  0  0  0  0  0  0  0  0  0  0
    6.7523    0.1252   -0.4704 C   0  0  0  0  0  0  0  0  0  0  0  0
    6.3801    1.2537    0.5091 C   0  0  0  0  0  0  0  0  0  0  0  0
    7.1070    2.5646    0.2080 C   0  0  0  0  0  0  0  0  0  0  0  0
    4.9409    1.4773    0.5355 N   0  0  0  0  0  0  0  0  0  0  0  0
    4.1186    0.8999    1.4803 C   0  0  0  0  0  0  0  0  0  0  0  0
    4.5087    0.1944    2.3991 O   0  0  0  0  0  0  0  0  0  0  0  0
    2.6736    1.2181    1.3510 C   0  0  0  0  0  0  0  0  0  0  0  0
    2.0535    1.2936    0.0997 C   0  0  0  0  0  0  0  0  0  0  0  0
    0.6935    1.6145    0.0128 C   0  0  0  0  0  0  0  0  0  0  0  0
   -0.0587    1.8663    1.1717 C   0  0  0  0  0  0  0  0  0  0  0  0
   -1.5186    2.2452    1.0690 C   0  0  0  0  0  0  0  0  0  0  0  0
   -2.6354    0.8482    1.3740 S   0  0  0  0  0  0  0  0  0  0  0  0
   -3.1207    0.4355   -0.2392 C   0  0  0  0  0  0  0  0  0  0  0  0
   -2.5078    0.8324   -1.3320 N   0  0  0  0  0  0  0  0  0  0  0  0
   -3.2680    0.3405   -2.3675 C   0  0  0  0  0  0  0  0  0  0  0  0
   -3.0731    0.4736   -3.7411 C   0  0  0  0  0  0  0  0  0  0  0  0
   -4.0366   -0.1069   -4.5462 C   0  0  0  0  0  0  0  0  0  0  0  0
   -5.1249   -0.7815   -4.0900 N   0  0  0  0  0  0  0  0  0  0  0  0
   -5.3110   -0.9188   -2.7564 C   0  0  0  0  0  0  0  0  0  0  0  0
   -4.3773   -0.3565   -1.8930 C   0  0  0  0  0  0  0  0  0  0  0  0
   -4.2498   -0.3113   -0.5192 N   0  0  0  0  0  0  0  0  0  0  0  0
   -5.2040   -0.8669    0.4284 C   0  0  0  0  0  0  0  0  0  0  0  0
   -4.7639   -2.1967    0.9970 C   0  0  0  0  0  0  0  0  0  0  0  0
   -4.6235   -3.3304    0.1757 C   0  0  0  0  0  0  0  0  0  0  0  0
   -4.2660   -4.5657    0.7225 C   0  0  0  0  0  0  0  0  0  0  0  0
   -4.0549   -4.6722    2.0905 C   0  0  0  0  0  0  0  0  0  0  0  0
   -3.7348   -5.8551    2.6186 F   0  0  0  0  0  0  0  0  0  0  0  0
   -4.1839   -3.5679    2.9214 C   0  0  0  0  0  0  0  0  0  0  0  0
   -4.5334   -2.3336    2.3769 C   0  0  0  0  0  0  0  0  0  0  0  0
    0.5652    1.7578    2.4231 C   0  0  0  0  0  0  0  0  0  0  0  0
    1.9233    1.4293    2.5123 C   0  0  0  0  0  0  0  0  0  0  0  0
    7.0135    1.2523   -2.3148 H   0  0  0  0  0  0  0  0  0  0  0  0
    6.6648   -0.4657   -2.5480 H   0  0  0  0  0  0  0  0  0  0  0  0
    5.3591    0.6420   -2.0706 H   0  0  0  0  0  0  0  0  0  0  0  0
    7.8306   -0.0694   -0.3936 H   0  0  0  0  0  0  0  0  0  0  0  0
    6.2424   -0.8009   -0.1690 H   0  0  0  0  0  0  0  0  0  0  0  0
    6.6889    0.9306    1.5086 H   0  0  0  0  0  0  0  0  0  0  0  0
    6.8840    3.3089    0.9839 H   0  0  0  0  0  0  0  0  0  0  0  0
    6.8019    2.9972   -0.7516 H   0  0  0  0  0  0  0  0  0  0  0  0
    8.1963    2.4146    0.1850 H   0  0  0  0  0  0  0  0  0  0  0  0
    4.5497    2.1145   -0.1408 H   0  0  0  0  0  0  0  0  0  0  0  0
    2.6074    1.0805   -0.8103 H   0  0  0  0  0  0  0  0  0  0  0  0
    0.2196    1.6585   -0.9657 H   0  0  0  0  0  0  0  0  0  0  0  0
   -1.7182    2.7224    0.1051 H   0  0  0  0  0  0  0  0  0  0  0  0
   -1.7326    3.0185    1.8122 H   0  0  0  0  0  0  0  0  0  0  0  0
   -2.2217    1.0017   -4.1430 H   0  0  0  0  0  0  0  0  0  0  0  0
   -3.9603   -0.0393   -5.6298 H   0  0  0  0  0  0  0  0  0  0  0  0
   -6.1834   -1.4734   -2.4365 H   0  0  0  0  0  0  0  0  0  0  0  0
   -6.1680   -0.9927   -0.0752 H   0  0  0  0  0  0  0  0  0  0  0  0
   -5.3710   -0.1208    1.2154 H   0  0  0  0  0  0  0  0  0  0  0  0
   -4.7936   -3.2689   -0.8956 H   0  0  0  0  0  0  0  0  0  0  0  0
   -4.1560   -5.4432    0.0883 H   0  0  0  0  0  0  0  0  0  0  0  0
   -4.0083   -3.6749    3.9870 H   0  0  0  0  0  0  0  0  0  0  0  0
   -4.6291   -1.4842    3.0412 H   0  0  0  0  0  0  0  0  0  0  0  0
   -0.0047    1.9288    3.3385 H   0  0  0  0  0  0  0  0  0  0  0  0
    2.3945    1.3453    3.4888 H   0  0  0  0  0  0  0  0  0  0  0  0
  1  2  1  0
  2  3  1  0
  3  4  1  0
  3  5  1  0
  5  6  1  0
  6  7  2  0
  6  8  1  0
  8  9  2  0
  9 10  1  0
 10 11  2  0
 11 12  1  0
 12 13  1  0
 13 14  1  0
 14 15  2  0
 15 16  1  0
 16 17  2  0
 17 18  1  0
 18 19  2  0
 19 20  1  0
 20 21  2  0
 21 22  1  0
 22 23  1  0
 23 24  1  0
 24 25  2  0
 25 26  1  0
 26 27  2  0
 27 28  1  0
 27 29  1  0
 29 30  2  0
 11 31  1  0
 31 32  2  0
 32  8  1  0
 22 14  1  0
 30 24  1  0
 21 16  1  0
  1 33  1  0
  1 34  1  0
  1 35  1  0
  2 36  1  0
  2 37  1  0
  3 38  1  0
  4 39  1  0
  4 40  1  0
  4 41  1  0
  5 42  1  0
  9 43  1  0
 10 44  1  0
 12 45  1  0
 12 46  1  0
 17 47  1  0
 18 48  1  0
 20 49  1  0
 23 50  1  0
 23 51  1  0
 25 52  1  0
 26 53  1  0
 29 54  1  0
 30 55  1  0
 31 56  1  0
 32 57  1  0
M  END
$$$$
