
     RDKit          3D

 37 38  0  0  0  0  0  0  0  0999 V2000
   -3.7442   -0.4338    2.6573 C   0  0  0  0  0  0  0  0  0  0  0  0
   -3.5051   -0.4983    1.1781 C   0  0  0  0  0  0  0  0  0  0  0  0
   -4.4876   -0.0723    0.2932 C   0  0  0  0  0  0  0  0  0  0  0  0
   -4.2462   -0.1564   -1.0811 C   0  0  0  0  0  0  0  0  0  0  0  0
   -5.3009    0.2621   -2.0693 C   0  0  0  0  0  0  0  0  0  0  0  0
   -5.9790    1.3757   -1.6754 F   0  0  0  0  0  0  0  0  0  0  0  0
   -4.7997    0.5466   -3.3029 F   0  0  0  0  0  0  0  0  0  0  0  0
   -6.2423   -0.7020   -2.2586 F   0  0  0  0  0  0  0  0  0  0  0  0
   -3.0194   -0.6708   -1.5134 C   0  0  0  0  0  0  0  0  0  0  0  0
   -2.0720   -1.0529   -0.5722 C   0  0  0  0  0  0  0  0  0  0  0  0
   -0.8390   -1.5924   -1.0228 N   0  0  0  0  0  0  0  0  0  0  0  0
    0.0825   -1.7033    0.0664 N   0  0  0  0  0  0  0  0  0  0  0  0
    1.1164   -0.7727    0.0436 C   0  0  0  0  0  0  0  0  0  0  0  0
    1.3893   -0.1330   -0.9694 O   0  0  0  0  0  0  0  0  0  0  0  0
    1.8299   -0.7617    1.2231 N   0  0  0  0  0  0  0  0  0  0  0  0
    2.6395    0.3038    1.5397 C   0  0  0  0  0  0  0  0  0  0  0  0
    2.4184    0.9608    2.5542 O   0  0  0  0  0  0  0  0  0  0  0  0
    3.7911    0.6359    0.6528 C   0  0  0  0  0  0  0  0  0  0  0  0
    4.3692   -0.3114   -0.2037 C   0  0  0  0  0  0  0  0  0  0  0  0
    5.4625    0.0395   -1.0015 C   0  0  0  0  0  0  0  0  0  0  0  0
    5.9882    1.3293   -0.9324 C   0  0  0  0  0  0  0  0  0  0  0  0
    7.3430    1.7530   -1.9059 Cl  0  0  0  0  0  0  0  0  0  0  0  0
    5.4344    2.2724   -0.0686 C   0  0  0  0  0  0  0  0  0  0  0  0
    4.3391    1.9250    0.7267 C   0  0  0  0  0  0  0  0  0  0  0  0
   -2.3123   -0.9848    0.7623 N   0  0  0  0  0  0  0  0  0  0  0  0
   -3.8742    0.6053    2.9766 H   0  0  0  0  0  0  0  0  0  0  0  0
   -2.8973   -0.8567    3.2080 H   0  0  0  0  0  0  0  0  0  0  0  0
   -4.6398   -1.0061    2.9203 H   0  0  0  0  0  0  0  0  0  0  0  0
   -5.4337    0.3128    0.6659 H   0  0  0  0  0  0  0  0  0  0  0  0
   -2.8060   -0.7731   -2.5744 H   0  0  0  0  0  0  0  0  0  0  0  0
   -0.4427   -0.9796   -1.7473 H   0  0  0  0  0  0  0  0  0  0  0  0
   -0.4191   -1.8295    0.9469 H   0  0  0  0  0  0  0  0  0  0  0  0
    1.2164   -0.9479    2.0020 H   0  0  0  0  0  0  0  0  0  0  0  0
    3.9780   -1.3237   -0.2654 H   0  0  0  0  0  0  0  0  0  0  0  0
    5.9006   -0.6982   -1.6695 H   0  0  0  0  0  0  0  0  0  0  0  0
    5.8493    3.2751   -0.0068 H   0  0  0  0  0  0  0  0  0  0  0  0
    3.9126    2.6630    1.4037 H   0  0  0  0  0  0  0  0  0  0  0  0
  1  2  1  0
  2  3  2  0
  3  4  1  0
  4  5  1  0
  5  6  1  0
  5  7  1  0
  5  8  1  0
  4  9  2  0
  9 10  1  0
 10 11  1  0
 11 12  1  0
 12 13  1  0
 13 14  2  0
 13 15  1  0
 15 16  1  0
 16 17  2  0
 16 18  1  0
 18 19  2  0
 19 20  1  0
 20 21  2  0
 21 22  1  0
 21 23  1  0
 23 24  2  0
 10 25  2  0
 25  2  1  0
 24 18  1  0
  1 26  1  0
  1 27  1  0
  1 28  1  0
  3 29  1  0
  9 30  1  0
 11 31  1  0
 12 32  1  0
 15 33  1  0
 19 34  1  0
 20 35  1  0
 23 36  1  0
 24 37  1  0
M  END
$$$$
