
     RDKit          3D

 56 59  0  0  0  0  0  0  0  0999 V2000
    1.6916   -0.8490   -2.8285 C   0  0  0  0  0  0  0  0  0  0  0  0
    1.7468    0.0089   -1.5643 C   0  0  0  0  0  0  0  0  0  0  0  0
    3.2012    0.3017   -1.1591 C   0  0  0  0  0  0  0  0  0  0  0  0
    3.2956    1.2378    0.0494 C   0  0  0  0  0  0  0  0  0  0  0  0
    4.7280    1.5714    0.3864 C   0  0  0  0  0  0  0  0  0  0  0  0
    5.5054    0.6733    1.1311 C   0  0  0  0  0  0  0  0  0  0  0  0
    6.8344    0.9712    1.4344 C   0  0  0  0  0  0  0  0  0  0  0  0
    7.3999    2.1664    0.9921 C   0  0  0  0  0  0  0  0  0  0  0  0
    6.6377    3.0628    0.2446 C   0  0  0  0  0  0  0  0  0  0  0  0
    5.3076    2.7667   -0.0588 C   0  0  0  0  0  0  0  0  0  0  0  0
    0.9516   -0.5700   -0.4880 N   0  0  0  0  0  0  0  0  0  0  0  0
    1.2128   -1.7792    0.1258 C   0  0  0  0  0  0  0  0  0  0  0  0
    2.1728   -2.4935   -0.1461 O   0  0  0  0  0  0  0  0  0  0  0  0
    0.2350   -2.1300    1.2495 C   0  0  0  0  0  0  0  0  0  0  0  0
   -1.0052   -1.4243    1.1533 O   0  0  0  0  0  0  0  0  0  0  0  0
   -1.9452   -2.0335    0.3879 C   0  0  0  0  0  0  0  0  0  0  0  0
   -1.8479   -3.0940   -0.1999 O   0  0  0  0  0  0  0  0  0  0  0  0
   -3.1143   -1.1377    0.3252 C   0  0  0  0  0  0  0  0  0  0  0  0
   -3.3136   -0.3769   -0.8597 C   0  0  0  0  0  0  0  0  0  0  0  0
   -2.4955   -0.4594   -2.0152 C   0  0  0  0  0  0  0  0  0  0  0  0
   -2.7353    0.3306   -3.1411 C   0  0  0  0  0  0  0  0  0  0  0  0
   -3.7991    1.2216   -3.1444 C   0  0  0  0  0  0  0  0  0  0  0  0
   -4.6249    1.3166   -2.0254 C   0  0  0  0  0  0  0  0  0  0  0  0
   -4.3971    0.5262   -0.8853 C   0  0  0  0  0  0  0  0  0  0  0  0
   -5.2436    0.6311    0.2300 C   0  0  0  0  0  0  0  0  0  0  0  0
   -5.0536   -0.1421    1.3863 C   0  0  0  0  0  0  0  0  0  0  0  0
   -5.9340   -0.0169    2.4750 C   0  0  0  0  0  0  0  0  0  0  0  0
   -5.7630   -0.7786    3.6297 C   0  0  0  0  0  0  0  0  0  0  0  0
   -4.7080   -1.6774    3.7116 C   0  0  0  0  0  0  0  0  0  0  0  0
   -3.8266   -1.8140    2.6377 C   0  0  0  0  0  0  0  0  0  0  0  0
   -3.9747   -1.0492    1.4534 C   0  0  0  0  0  0  0  0  0  0  0  0
    2.1930   -0.3449   -3.6616 H   0  0  0  0  0  0  0  0  0  0  0  0
    2.1768   -1.8196   -2.6836 H   0  0  0  0  0  0  0  0  0  0  0  0
    0.6549   -1.0386   -3.1259 H   0  0  0  0  0  0  0  0  0  0  0  0
    1.2589    0.9644   -1.7957 H   0  0  0  0  0  0  0  0  0  0  0  0
    3.7363   -0.6317   -0.9473 H   0  0  0  0  0  0  0  0  0  0  0  0
    3.7197    0.7611   -2.0109 H   0  0  0  0  0  0  0  0  0  0  0  0
    2.7392    2.1631   -0.1476 H   0  0  0  0  0  0  0  0  0  0  0  0
    2.8254    0.7841    0.9304 H   0  0  0  0  0  0  0  0  0  0  0  0
    5.0782   -0.2672    1.4743 H   0  0  0  0  0  0  0  0  0  0  0  0
    7.4286    0.2688    2.0141 H   0  0  0  0  0  0  0  0  0  0  0  0
    8.4354    2.3968    1.2270 H   0  0  0  0  0  0  0  0  0  0  0  0
    7.0805    3.9922   -0.1040 H   0  0  0  0  0  0  0  0  0  0  0  0
    4.7275    3.4747   -0.6464 H   0  0  0  0  0  0  0  0  0  0  0  0
    0.1354   -0.0589   -0.1683 H   0  0  0  0  0  0  0  0  0  0  0  0
    0.0796   -3.2148    1.2736 H   0  0  0  0  0  0  0  0  0  0  0  0
    0.7032   -1.8385    2.1954 H   0  0  0  0  0  0  0  0  0  0  0  0
   -1.6650   -1.1629   -2.0610 H   0  0  0  0  0  0  0  0  0  0  0  0
   -2.0967    0.2377   -4.0161 H   0  0  0  0  0  0  0  0  0  0  0  0
   -3.9951    1.8361   -4.0195 H   0  0  0  0  0  0  0  0  0  0  0  0
   -5.4591    2.0158   -2.0527 H   0  0  0  0  0  0  0  0  0  0  0  0
   -6.0789    1.3305    0.1943 H   0  0  0  0  0  0  0  0  0  0  0  0
   -6.7711    0.6783    2.4305 H   0  0  0  0  0  0  0  0  0  0  0  0
   -6.4561   -0.6728    4.4608 H   0  0  0  0  0  0  0  0  0  0  0  0
   -4.5716   -2.2775    4.6075 H   0  0  0  0  0  0  0  0  0  0  0  0
   -3.0181   -2.5369    2.7366 H   0  0  0  0  0  0  0  0  0  0  0  0
  1  2  1  0
  2  3  1  0
  3  4  1  0
  4  5  1  0
  5  6  2  0
  6  7  1  0
  7  8  2  0
  8  9  1  0
  9 10  2  0
  2 11  1  0
 11 12  1  0
 12 13  2  0
 12 14  1  0
 14 15  1  0
 15 16  1  0
 16 17  2  0
 16 18  1  0
 18 19  1  0
 19 20  2  0
 20 21  1  0
 21 22  2  0
 22 23  1  0
 23 24  2  0
 24 25  1  0
 25 26  2  0
 26 27  1  0
 27 28  2  0
 28 29  1  0
 29 30  2  0
 30 31  1  0
 10  5  1  0
 31 18  2  0
 24 19  1  0
 31 26  1  0
  1 32  1  0
  1 33  1  0
  1 34  1  0
  2 35  1  0
  3 36  1  0
  3 37  1  0
  4 38  1  0
  4 39  1  0
  6 40  1  0
  7 41  1  0
  8 42  1  0
  9 43  1  0
 10 44  1  0
 11 45  1  0
 14 46  1  0
 14 47  1  0
 20 48  1  0
 21 49  1  0
 22 50  1  0
 23 51  1  0
 25 52  1  0
 27 53  1  0
 28 54  1  0
 29 55  1  0
 30 56  1  0
M  END
$$$$
