
     RDKit          3D

 53 58  0  0  0  0  0  0  0  0999 V2000
    7.4121    1.6779    1.4855 C   0  0  0  0  0  0  0  0  0  0  0  0
    6.4246    1.1133    0.4799 C   0  0  0  0  0  0  0  0  0  0  0  0
    5.1081    1.4021    0.9467 O   0  0  0  0  0  0  0  0  0  0  0  0
    4.0661    0.9578    0.1814 C   0  0  0  0  0  0  0  0  0  0  0  0
    4.1665    0.2753   -1.0282 C   0  0  0  0  0  0  0  0  0  0  0  0
    3.0098   -0.1223   -1.7107 C   0  0  0  0  0  0  0  0  0  0  0  0
    1.7289    0.1533   -1.2011 C   0  0  0  0  0  0  0  0  0  0  0  0
    0.4992   -0.3051   -1.9802 C   0  0  0  0  0  0  0  0  0  0  0  0
   -0.3246    0.8399   -2.4147 N   0  0  0  0  0  0  0  0  0  0  0  0
   -1.3057    1.2696   -1.5035 C   0  0  0  0  0  0  0  0  0  0  0  0
   -1.7647    2.5846   -1.5821 C   0  0  0  0  0  0  0  0  0  0  0  0
   -2.6676    3.0721   -0.6438 C   0  0  0  0  0  0  0  0  0  0  0  0
   -3.0929    2.2695    0.4188 C   0  0  0  0  0  0  0  0  0  0  0  0
   -3.9200    2.8211    1.4120 C   0  0  0  0  0  0  0  0  0  0  0  0
   -4.3088    2.0739    2.5206 C   0  0  0  0  0  0  0  0  0  0  0  0
   -3.8602    0.7696    2.6569 C   0  0  0  0  0  0  0  0  0  0  0  0
   -3.0490    0.2065    1.6680 C   0  0  0  0  0  0  0  0  0  0  0  0
   -2.6730    0.9164    0.4990 C   0  0  0  0  0  0  0  0  0  0  0  0
   -1.8718    0.3817   -0.5599 C   0  0  0  0  0  0  0  0  0  0  0  0
   -1.5361   -1.0726   -0.7196 C   0  0  0  0  0  0  0  0  0  0  0  0
   -0.3435   -1.3429   -1.2920 C   0  0  0  0  0  0  0  0  0  0  0  0
    0.2054   -2.7153   -1.3785 C   0  0  0  0  0  0  0  0  0  0  0  0
    1.2411   -2.9682   -1.9854 O   0  0  0  0  0  0  0  0  0  0  0  0
   -0.4675   -3.7035   -0.6812 O   0  0  0  0  0  0  0  0  0  0  0  0
   -1.8191   -3.5072   -0.3736 C   0  0  0  0  0  0  0  0  0  0  0  0
   -2.5608   -4.6522   -0.0771 C   0  0  0  0  0  0  0  0  0  0  0  0
   -3.9347   -4.5443    0.1120 C   0  0  0  0  0  0  0  0  0  0  0  0
   -4.5517   -3.3024   -0.0206 C   0  0  0  0  0  0  0  0  0  0  0  0
   -3.7895   -2.1641   -0.3093 C   0  0  0  0  0  0  0  0  0  0  0  0
   -2.3961   -2.2421   -0.4416 C   0  0  0  0  0  0  0  0  0  0  0  0
    1.6446    0.8353    0.0214 C   0  0  0  0  0  0  0  0  0  0  0  0
    2.8009    1.2342    0.6995 C   0  0  0  0  0  0  0  0  0  0  0  0
    7.2522    1.2339    2.4737 H   0  0  0  0  0  0  0  0  0  0  0  0
    8.4417    1.4826    1.1728 H   0  0  0  0  0  0  0  0  0  0  0  0
    7.2747    2.7587    1.5956 H   0  0  0  0  0  0  0  0  0  0  0  0
    6.5727    0.0299    0.4030 H   0  0  0  0  0  0  0  0  0  0  0  0
    6.5954    1.5875   -0.4935 H   0  0  0  0  0  0  0  0  0  0  0  0
    5.1263    0.0292   -1.4697 H   0  0  0  0  0  0  0  0  0  0  0  0
    3.1211   -0.6687   -2.6467 H   0  0  0  0  0  0  0  0  0  0  0  0
    0.8484   -0.7333   -2.9295 H   0  0  0  0  0  0  0  0  0  0  0  0
    0.2538    1.6075   -2.7465 H   0  0  0  0  0  0  0  0  0  0  0  0
   -1.4008    3.2485   -2.3618 H   0  0  0  0  0  0  0  0  0  0  0  0
   -2.9940    4.1070   -0.7229 H   0  0  0  0  0  0  0  0  0  0  0  0
   -4.2559    3.8537    1.3379 H   0  0  0  0  0  0  0  0  0  0  0  0
   -4.9407    2.5186    3.2846 H   0  0  0  0  0  0  0  0  0  0  0  0
   -4.1309    0.1864    3.5332 H   0  0  0  0  0  0  0  0  0  0  0  0
   -2.6882   -0.8048    1.8407 H   0  0  0  0  0  0  0  0  0  0  0  0
   -2.0740   -5.6219   -0.0237 H   0  0  0  0  0  0  0  0  0  0  0  0
   -4.5271   -5.4282    0.3330 H   0  0  0  0  0  0  0  0  0  0  0  0
   -5.6298   -3.2155    0.0932 H   0  0  0  0  0  0  0  0  0  0  0  0
   -4.3095   -1.2166   -0.4345 H   0  0  0  0  0  0  0  0  0  0  0  0
    0.6831    1.0694    0.4695 H   0  0  0  0  0  0  0  0  0  0  0  0
    2.7115    1.7640    1.6451 H   0  0  0  0  0  0  0  0  0  0  0  0
  1  2  1  0
  2  3  1  0
  3  4  1  0
  4  5  2  0
  5  6  1  0
  6  7  2  0
  7  8  1  0
  8  9  1  0
  9 10  1  0
 10 11  2  0
 11 12  1  0
 12 13  2  0
 13 14  1  0
 14 15  2  0
 15 16  1  0
 16 17  2  0
 17 18  1  0
 18 19  2  0
 19 20  1  0
 20 21  2  0
 21 22  1  0
 22 23  2  0
 22 24  1  0
 24 25  1  0
 25 26  2  0
 26 27  1  0
 27 28  2  0
 28 29  1  0
 29 30  2  0
  7 31  1  0
 31 32  2  0
 32  4  1  0
 21  8  1  0
 30 25  1  0
 19 10  1  0
 30 20  1  0
 18 13  1  0
  1 33  1  0
  1 34  1  0
  1 35  1  0
  2 36  1  0
  2 37  1  0
  5 38  1  0
  6 39  1  0
  8 40  1  0
  9 41  1  0
 11 42  1  0
 12 43  1  0
 14 44  1  0
 15 45  1  0
 16 46  1  0
 17 47  1  0
 26 48  1  0
 27 49  1  0
 28 50  1  0
 29 51  1  0
 31 52  1  0
 32 53  1  0
M  END
$$$$
