
     RDKit          3D

 62 66  0  0  0  0  0  0  0  0999 V2000
   -5.1109   -4.8585   -2.8623 C   0  0  0  0  0  0  0  0  0  0  0  0
   -5.0790   -3.5385   -2.3364 O   0  0  0  0  0  0  0  0  0  0  0  0
   -4.3140   -3.3346   -1.2207 C   0  0  0  0  0  0  0  0  0  0  0  0
   -3.5444   -4.2973   -0.5675 C   0  0  0  0  0  0  0  0  0  0  0  0
   -2.8029   -3.9519    0.5651 C   0  0  0  0  0  0  0  0  0  0  0  0
   -2.8281   -2.6433    1.0493 C   0  0  0  0  0  0  0  0  0  0  0  0
   -3.5959   -1.6663    0.4052 C   0  0  0  0  0  0  0  0  0  0  0  0
   -3.6060   -0.2844    0.9007 C   0  0  0  0  0  0  0  0  0  0  0  0
   -5.0682    0.3406    1.5319 S   0  0  0  0  0  0  0  0  0  0  0  0
   -4.3645    1.8623    1.9013 C   0  0  0  0  0  0  0  0  0  0  0  0
   -5.0080    2.9703    2.4848 C   0  0  0  0  0  0  0  0  0  0  0  0
   -4.2808    4.1455    2.7072 C   0  0  0  0  0  0  0  0  0  0  0  0
   -2.9399    4.2250    2.3558 C   0  0  0  0  0  0  0  0  0  0  0  0
   -2.1285    5.3160    2.5148 O   0  0  0  0  0  0  0  0  0  0  0  0
   -2.7284    6.4943    3.0360 C   0  0  0  0  0  0  0  0  0  0  0  0
   -2.3113    3.1134    1.7822 C   0  0  0  0  0  0  0  0  0  0  0  0
   -3.0157    1.9029    1.5471 C   0  0  0  0  0  0  0  0  0  0  0  0
   -2.5804    0.6464    0.9756 C   0  0  0  0  0  0  0  0  0  0  0  0
   -1.2283    0.3395    0.5180 C   0  0  0  0  0  0  0  0  0  0  0  0
   -0.1823    0.2512    1.4430 C   0  0  0  0  0  0  0  0  0  0  0  0
    1.1154   -0.0583    1.0199 C   0  0  0  0  0  0  0  0  0  0  0  0
    1.3754   -0.2807   -0.3320 C   0  0  0  0  0  0  0  0  0  0  0  0
    2.5896   -0.5965   -0.8745 O   0  0  0  0  0  0  0  0  0  0  0  0
    3.6304   -0.9689    0.0319 C   0  0  0  0  0  0  0  0  0  0  0  0
    4.8365   -1.4935   -0.7695 C   0  0  0  0  0  0  0  0  0  0  0  0
    5.5679   -0.4507   -1.5046 N   0  0  0  0  0  0  0  0  0  0  0  0
    6.5549   -1.0171   -2.4238 C   0  0  0  0  0  0  0  0  0  0  0  0
    7.4025    0.1900   -2.7962 C   0  0  0  0  0  0  0  0  0  0  0  0
    7.3090    1.1227   -1.5948 C   0  0  0  0  0  0  0  0  0  0  0  0
    6.3255    0.4563   -0.6408 C   0  0  0  0  0  0  0  0  0  0  0  0
    0.3341   -0.1709   -1.2568 C   0  0  0  0  0  0  0  0  0  0  0  0
   -0.9631    0.1353   -0.8385 C   0  0  0  0  0  0  0  0  0  0  0  0
   -4.3347   -2.0246   -0.7312 C   0  0  0  0  0  0  0  0  0  0  0  0
   -5.5226   -5.5649   -2.1335 H   0  0  0  0  0  0  0  0  0  0  0  0
   -5.7746   -4.8557   -3.7333 H   0  0  0  0  0  0  0  0  0  0  0  0
   -4.1178   -5.1716   -3.2003 H   0  0  0  0  0  0  0  0  0  0  0  0
   -3.4949   -5.3234   -0.9152 H   0  0  0  0  0  0  0  0  0  0  0  0
   -2.2024   -4.7046    1.0697 H   0  0  0  0  0  0  0  0  0  0  0  0
   -2.2446   -2.3891    1.9312 H   0  0  0  0  0  0  0  0  0  0  0  0
   -6.0586    2.9167    2.7581 H   0  0  0  0  0  0  0  0  0  0  0  0
   -4.8043    4.9826    3.1571 H   0  0  0  0  0  0  0  0  0  0  0  0
   -3.0823    6.3349    4.0606 H   0  0  0  0  0  0  0  0  0  0  0  0
   -3.5369    6.8477    2.3865 H   0  0  0  0  0  0  0  0  0  0  0  0
   -1.9603    7.2747    3.0654 H   0  0  0  0  0  0  0  0  0  0  0  0
   -1.2625    3.1856    1.5025 H   0  0  0  0  0  0  0  0  0  0  0  0
   -0.3712    0.4187    2.5010 H   0  0  0  0  0  0  0  0  0  0  0  0
    1.8974   -0.1083    1.7683 H   0  0  0  0  0  0  0  0  0  0  0  0
    3.2779   -1.7836    0.6771 H   0  0  0  0  0  0  0  0  0  0  0  0
    3.9181   -0.1168    0.6577 H   0  0  0  0  0  0  0  0  0  0  0  0
    5.5164   -2.0243   -0.0910 H   0  0  0  0  0  0  0  0  0  0  0  0
    4.4572   -2.2273   -1.4925 H   0  0  0  0  0  0  0  0  0  0  0  0
    6.0856   -1.4631   -3.3075 H   0  0  0  0  0  0  0  0  0  0  0  0
    7.1777   -1.7798   -1.9347 H   0  0  0  0  0  0  0  0  0  0  0  0
    8.4386   -0.0915   -3.0173 H   0  0  0  0  0  0  0  0  0  0  0  0
    6.9934    0.6905   -3.6843 H   0  0  0  0  0  0  0  0  0  0  0  0
    6.9434    2.1063   -1.9138 H   0  0  0  0  0  0  0  0  0  0  0  0
    8.2854    1.2643   -1.1207 H   0  0  0  0  0  0  0  0  0  0  0  0
    6.8811   -0.0912    0.1317 H   0  0  0  0  0  0  0  0  0  0  0  0
    5.6878    1.1989   -0.1505 H   0  0  0  0  0  0  0  0  0  0  0  0
    0.5347   -0.3321   -2.3136 H   0  0  0  0  0  0  0  0  0  0  0  0
   -1.7573    0.2085   -1.5767 H   0  0  0  0  0  0  0  0  0  0  0  0
   -4.9307   -1.2778   -1.2515 H   0  0  0  0  0  0  0  0  0  0  0  0
  1  2  1  0
  2  3  1  0
  3  4  2  0
  4  5  1  0
  5  6  2  0
  6  7  1  0
  7  8  1  0
  8  9  1  0
  9 10  1  0
 10 11  2  0
 11 12  1  0
 12 13  2  0
 13 14  1  0
 14 15  1  0
 13 16  1  0
 16 17  2  0
 17 18  1  0
 18 19  1  0
 19 20  2  0
 20 21  1  0
 21 22  2  0
 22 23  1  0
 23 24  1  0
 24 25  1  0
 25 26  1  0
 26 27  1  0
 27 28  1  0
 28 29  1  0
 29 30  1  0
 22 31  1  0
 31 32  2  0
  7 33  2  0
 33  3  1  0
 18  8  2  0
 32 19  1  0
 17 10  1  0
 30 26  1  0
  1 34  1  0
  1 35  1  0
  1 36  1  0
  4 37  1  0
  5 38  1  0
  6 39  1  0
 11 40  1  0
 12 41  1  0
 15 42  1  0
 15 43  1  0
 15 44  1  0
 16 45  1  0
 20 46  1  0
 21 47  1  0
 24 48  1  0
 24 49  1  0
 25 50  1  0
 25 51  1  0
 27 52  1  0
 27 53  1  0
 28 54  1  0
 28 55  1  0
 29 56  1  0
 29 57  1  0
 30 58  1  0
 30 59  1  0
 31 60  1  0
 32 61  1  0
 33 62  1  0
M  END
$$$$
