
     RDKit          3D

 41 42  0  0  0  0  0  0  0  0999 V2000
    0.2323   -1.2652    0.3332 O   0  0  0  0  0  0  0  0  0  0  0  0
   -0.1786   -0.4158   -0.7506 C   0  0  0  0  0  0  0  0  0  0  0  0
    1.0086    0.4333   -1.2277 C   0  0  0  0  0  0  0  0  0  0  0  0
    1.3321    1.4432   -0.2655 O   0  0  0  0  0  0  0  0  0  0  0  0
    2.5535    2.1201   -0.5616 C   0  0  0  0  0  0  0  0  0  0  0  0
    3.7780    1.3587   -0.1059 C   0  0  0  0  0  0  0  0  0  0  0  0
    5.0119    1.5838   -0.7354 C   0  0  0  0  0  0  0  0  0  0  0  0
    6.1603    0.9121   -0.3078 C   0  0  0  0  0  0  0  0  0  0  0  0
    6.0839    0.0177    0.7576 C   0  0  0  0  0  0  0  0  0  0  0  0
    7.4991   -0.8089    1.2819 Cl  0  0  0  0  0  0  0  0  0  0  0  0
    4.8707   -0.2078    1.4020 C   0  0  0  0  0  0  0  0  0  0  0  0
    3.7237    0.4656    0.9756 C   0  0  0  0  0  0  0  0  0  0  0  0
   -1.3775    0.4389   -0.2847 C   0  0  0  0  0  0  0  0  0  0  0  0
   -2.4617   -0.4021    0.2781 N   0  0  0  0  0  0  0  0  0  0  0  0
   -3.2223   -1.1197   -0.7479 C   0  0  0  0  0  0  0  0  0  0  0  0
   -4.1338   -2.1643   -0.0908 C   0  0  0  0  0  0  0  0  0  0  0  0
   -4.7350   -1.6946    1.2355 C   0  0  0  0  0  0  0  0  0  0  0  0
   -4.7580   -0.1760    1.3125 C   0  0  0  0  0  0  0  0  0  0  0  0
   -3.3557    0.4187    1.1196 C   0  0  0  0  0  0  0  0  0  0  0  0
   -0.5986   -1.4649    0.8121 H   0  0  0  0  0  0  0  0  0  0  0  0
   -0.4684   -1.0784   -1.5724 H   0  0  0  0  0  0  0  0  0  0  0  0
    0.7515    0.9275   -2.1714 H   0  0  0  0  0  0  0  0  0  0  0  0
    1.8748   -0.2181   -1.3895 H   0  0  0  0  0  0  0  0  0  0  0  0
    2.5317    3.0734   -0.0218 H   0  0  0  0  0  0  0  0  0  0  0  0
    2.6018    2.3465   -1.6337 H   0  0  0  0  0  0  0  0  0  0  0  0
    5.0873    2.2846   -1.5640 H   0  0  0  0  0  0  0  0  0  0  0  0
    7.1084    1.0921   -0.8071 H   0  0  0  0  0  0  0  0  0  0  0  0
    4.8060   -0.9039    2.2337 H   0  0  0  0  0  0  0  0  0  0  0  0
    2.7783    0.2804    1.4850 H   0  0  0  0  0  0  0  0  0  0  0  0
   -1.7463    1.0723   -1.1007 H   0  0  0  0  0  0  0  0  0  0  0  0
   -1.0245    1.1012    0.5163 H   0  0  0  0  0  0  0  0  0  0  0  0
   -3.8168   -0.4200   -1.3502 H   0  0  0  0  0  0  0  0  0  0  0  0
   -2.5661   -1.6511   -1.4448 H   0  0  0  0  0  0  0  0  0  0  0  0
   -3.5760   -3.0923    0.0859 H   0  0  0  0  0  0  0  0  0  0  0  0
   -4.9395   -2.4145   -0.7916 H   0  0  0  0  0  0  0  0  0  0  0  0
   -5.7441   -2.1036    1.3566 H   0  0  0  0  0  0  0  0  0  0  0  0
   -4.1350   -2.0883    2.0657 H   0  0  0  0  0  0  0  0  0  0  0  0
   -5.4284    0.2101    0.5339 H   0  0  0  0  0  0  0  0  0  0  0  0
   -5.1693    0.1486    2.2749 H   0  0  0  0  0  0  0  0  0  0  0  0
   -2.8803    0.5327    2.1015 H   0  0  0  0  0  0  0  0  0  0  0  0
   -3.4777    1.4282    0.7051 H   0  0  0  0  0  0  0  0  0  0  0  0
  1  2  1  0
  2  3  1  0
  3  4  1  0
  4  5  1  0
  5  6  1  0
  6  7  2  0
  7  8  1  0
  8  9  2  0
  9 10  1  0
  9 11  1  0
 11 12  2  0
  2 13  1  0
 13 14  1  0
 14 15  1  0
 15 16  1  0
 16 17  1  0
 17 18  1  0
 18 19  1  0
 12  6  1  0
 19 14  1  0
  1 20  1  0
  2 21  1  0
  3 22  1  0
  3 23  1  0
  5 24  1  0
  5 25  1  0
  7 26  1  0
  8 27  1  0
 11 28  1  0
 12 29  1  0
 13 30  1  0
 13 31  1  0
 15 32  1  0
 15 33  1  0
 16 34  1  0
 16 35  1  0
 17 36  1  0
 17 37  1  0
 18 38  1  0
 18 39  1  0
 19 40  1  0
 19 41  1  0
M  END
$$$$
