
     RDKit          3D

 70 73  0  0  0  0  0  0  0  0999 V2000
   -1.0763    2.4076   -3.7953 C   0  0  0  0  0  0  0  0  0  0  0  0
   -0.1884    2.6715   -2.7063 O   0  0  0  0  0  0  0  0  0  0  0  0
   -0.8786    2.9187   -1.5428 C   0  0  0  0  0  0  0  0  0  0  0  0
   -1.6810    4.0667   -1.4594 C   0  0  0  0  0  0  0  0  0  0  0  0
   -2.3874    4.3562   -0.2916 C   0  0  0  0  0  0  0  0  0  0  0  0
   -3.1978    5.4513   -0.1267 O   0  0  0  0  0  0  0  0  0  0  0  0
   -3.3006    6.3661   -1.2109 C   0  0  0  0  0  0  0  0  0  0  0  0
   -2.2813    3.4819    0.8026 C   0  0  0  0  0  0  0  0  0  0  0  0
   -3.0068    3.7112    2.0524 C   0  0  0  0  0  0  0  0  0  0  0  0
   -2.8952    2.8602    3.0754 C   0  0  0  0  0  0  0  0  0  0  0  0
   -2.0525    1.6622    2.9995 C   0  0  0  0  0  0  0  0  0  0  0  0
   -1.9729    0.8812    3.9401 O   0  0  0  0  0  0  0  0  0  0  0  0
   -1.3664    1.4701    1.8111 O   0  0  0  0  0  0  0  0  0  0  0  0
   -1.4497    2.3530    0.7066 C   0  0  0  0  0  0  0  0  0  0  0  0
   -0.7053    2.0510   -0.4482 C   0  0  0  0  0  0  0  0  0  0  0  0
    0.2273    0.8403   -0.5847 C   0  0  0  0  0  0  0  0  0  0  0  0
    1.0425    0.4731    0.6834 C   0  0  0  0  0  0  0  0  0  0  0  0
    2.2424   -0.4376    0.3608 C   0  0  0  0  0  0  0  0  0  0  0  0
    3.1506   -0.6435    1.5045 N   0  0  0  0  0  0  0  0  0  0  0  0
    4.3680   -1.3638    1.0930 C   0  0  0  0  0  0  0  0  0  0  0  0
    4.4914   -2.7720    1.6698 C   0  0  0  0  0  0  0  0  0  0  0  0
    4.4517   -2.7564    3.1960 C   0  0  0  0  0  0  0  0  0  0  0  0
    3.4427   -1.7383    3.7518 C   0  0  0  0  0  0  0  0  0  0  0  0
    4.1541   -0.5646    4.4340 C   0  0  0  0  0  0  0  0  0  0  0  0
    2.4732   -1.2569    2.6581 C   0  0  0  0  0  0  0  0  0  0  0  0
   -0.4851   -0.3695   -1.1830 C   0  0  0  0  0  0  0  0  0  0  0  0
   -0.1607   -0.8093   -2.4694 C   0  0  0  0  0  0  0  0  0  0  0  0
   -0.8043   -1.9189   -3.0378 C   0  0  0  0  0  0  0  0  0  0  0  0
   -1.7896   -2.6499   -2.3532 C   0  0  0  0  0  0  0  0  0  0  0  0
   -2.4395   -3.7463   -2.9361 N   0  0  0  0  0  0  0  0  0  0  0  0
   -3.3056   -4.5803   -2.1047 C   0  0  0  0  0  0  0  0  0  0  0  0
   -1.7806   -4.4359   -4.0448 C   0  0  0  0  0  0  0  0  0  0  0  0
   -2.1093   -2.1807   -1.0681 C   0  0  0  0  0  0  0  0  0  0  0  0
   -1.4711   -1.0724   -0.4890 C   0  0  0  0  0  0  0  0  0  0  0  0
   -0.5031    1.8996   -4.5767 H   0  0  0  0  0  0  0  0  0  0  0  0
   -1.9040    1.7518   -3.5011 H   0  0  0  0  0  0  0  0  0  0  0  0
   -1.4599    3.3431   -4.2144 H   0  0  0  0  0  0  0  0  0  0  0  0
   -1.7234    4.7232   -2.3210 H   0  0  0  0  0  0  0  0  0  0  0  0
   -3.9684    7.1758   -0.9018 H   0  0  0  0  0  0  0  0  0  0  0  0
   -3.7435    5.8869   -2.0902 H   0  0  0  0  0  0  0  0  0  0  0  0
   -2.3278    6.8102   -1.4477 H   0  0  0  0  0  0  0  0  0  0  0  0
   -3.6392    4.5893    2.1343 H   0  0  0  0  0  0  0  0  0  0  0  0
   -3.4242    3.0129    4.0076 H   0  0  0  0  0  0  0  0  0  0  0  0
    1.0004    1.1508   -1.3023 H   0  0  0  0  0  0  0  0  0  0  0  0
    1.4160    1.3942    1.1503 H   0  0  0  0  0  0  0  0  0  0  0  0
    0.4074   -0.0335    1.4163 H   0  0  0  0  0  0  0  0  0  0  0  0
    2.8111    0.0384   -0.4485 H   0  0  0  0  0  0  0  0  0  0  0  0
    1.8909   -1.4063   -0.0160 H   0  0  0  0  0  0  0  0  0  0  0  0
    4.4602   -1.4198    0.0010 H   0  0  0  0  0  0  0  0  0  0  0  0
    5.2296   -0.7721    1.4268 H   0  0  0  0  0  0  0  0  0  0  0  0
    3.6778   -3.3999    1.2842 H   0  0  0  0  0  0  0  0  0  0  0  0
    5.4262   -3.2353    1.3336 H   0  0  0  0  0  0  0  0  0  0  0  0
    4.1891   -3.7625    3.5458 H   0  0  0  0  0  0  0  0  0  0  0  0
    5.4570   -2.5558    3.5866 H   0  0  0  0  0  0  0  0  0  0  0  0
    2.8504   -2.2399    4.5287 H   0  0  0  0  0  0  0  0  0  0  0  0
    3.4267    0.1486    4.8360 H   0  0  0  0  0  0  0  0  0  0  0  0
    4.8124   -0.0254    3.7456 H   0  0  0  0  0  0  0  0  0  0  0  0
    4.7655   -0.9208    5.2703 H   0  0  0  0  0  0  0  0  0  0  0  0
    1.7859   -0.5314    3.1090 H   0  0  0  0  0  0  0  0  0  0  0  0
    1.8640   -2.1115    2.3329 H   0  0  0  0  0  0  0  0  0  0  0  0
    0.5958   -0.2893   -3.0534 H   0  0  0  0  0  0  0  0  0  0  0  0
   -0.5110   -2.1881   -4.0475 H   0  0  0  0  0  0  0  0  0  0  0  0
   -2.7374   -5.0598   -1.3000 H   0  0  0  0  0  0  0  0  0  0  0  0
   -4.1296   -3.9976   -1.6790 H   0  0  0  0  0  0  0  0  0  0  0  0
   -3.7762   -5.3730   -2.6972 H   0  0  0  0  0  0  0  0  0  0  0  0
   -0.7861   -4.7917   -3.7533 H   0  0  0  0  0  0  0  0  0  0  0  0
   -1.6973   -3.7867   -4.9228 H   0  0  0  0  0  0  0  0  0  0  0  0
   -2.3593   -5.3076   -4.3710 H   0  0  0  0  0  0  0  0  0  0  0  0
   -2.8701   -2.6689   -0.4669 H   0  0  0  0  0  0  0  0  0  0  0  0
   -1.7638   -0.7743    0.5145 H   0  0  0  0  0  0  0  0  0  0  0  0
  1  2  1  0
  2  3  1  0
  3  4  2  0
  4  5  1  0
  5  6  1  0
  6  7  1  0
  5  8  2  0
  8  9  1  0
  9 10  2  0
 10 11  1  0
 11 12  2  0
 11 13  1  0
 13 14  1  0
 14 15  2  0
 15 16  1  0
 16 17  1  0
 17 18  1  0
 18 19  1  0
 19 20  1  0
 20 21  1  0
 21 22  1  0
 22 23  1  0
 23 24  1  0
 23 25  1  0
 16 26  1  0
 26 27  2  0
 27 28  1  0
 28 29  2  0
 29 30  1  0
 30 31  1  0
 30 32  1  0
 29 33  1  0
 33 34  2  0
 15  3  1  0
 25 19  1  0
 34 26  1  0
 14  8  1  0
  1 35  1  0
  1 36  1  0
  1 37  1  0
  4 38  1  0
  7 39  1  0
  7 40  1  0
  7 41  1  0
  9 42  1  0
 10 43  1  0
 16 44  1  0
 17 45  1  0
 17 46  1  0
 18 47  1  0
 18 48  1  0
 20 49  1  0
 20 50  1  0
 21 51  1  0
 21 52  1  0
 22 53  1  0
 22 54  1  0
 23 55  1  0
 24 56  1  0
 24 57  1  0
 24 58  1  0
 25 59  1  0
 25 60  1  0
 27 61  1  0
 28 62  1  0
 31 63  1  0
 31 64  1  0
 31 65  1  0
 32 66  1  0
 32 67  1  0
 32 68  1  0
 33 69  1  0
 34 70  1  0
M  END
$$$$
