
     RDKit          3D

 55 57  0  0  0  0  0  0  0  0999 V2000
    2.6839    2.4248   -0.0907 O   0  0  0  0  0  0  0  0  0  0  0  0
    2.2906    1.3783    0.4097 C   0  0  0  0  0  0  0  0  0  0  0  0
    2.7933    0.7318    1.5220 N   0  0  0  0  0  0  0  0  0  0  0  0
    3.9098    1.1023    2.2980 C   0  0  0  0  0  0  0  0  0  0  0  0
    4.7350    2.1903    2.0084 C   0  0  0  0  0  0  0  0  0  0  0  0
    5.8292    2.4872    2.8276 C   0  0  0  0  0  0  0  0  0  0  0  0
    6.1073    1.6991    3.9421 C   0  0  0  0  0  0  0  0  0  0  0  0
    5.2918    0.6105    4.2385 C   0  0  0  0  0  0  0  0  0  0  0  0
    4.1993    0.3134    3.4196 C   0  0  0  0  0  0  0  0  0  0  0  0
    1.1045    0.6724   -0.1846 C   0  0  0  0  0  0  0  0  0  0  0  0
    1.2028   -0.6285   -0.5097 C   0  0  0  0  0  0  0  0  0  0  0  0
    0.0534   -1.3923   -1.1082 C   0  0  0  0  0  0  0  0  0  0  0  0
   -0.1292   -2.7501   -0.4489 C   0  0  0  0  0  0  0  0  0  0  0  0
   -0.4705   -2.8674    0.9079 C   0  0  0  0  0  0  0  0  0  0  0  0
   -0.6239   -4.1239    1.4999 C   0  0  0  0  0  0  0  0  0  0  0  0
   -0.4423   -5.2936    0.7489 C   0  0  0  0  0  0  0  0  0  0  0  0
   -0.5858   -6.6488    1.3964 C   0  0  0  0  0  0  0  0  0  0  0  0
   -1.5447   -6.6790    2.3639 F   0  0  0  0  0  0  0  0  0  0  0  0
   -0.9166   -7.6342    0.5156 F   0  0  0  0  0  0  0  0  0  0  0  0
    0.5652   -7.0571    1.9989 F   0  0  0  0  0  0  0  0  0  0  0  0
   -0.0892   -5.1790   -0.6028 C   0  0  0  0  0  0  0  0  0  0  0  0
    0.0628   -3.9221   -1.1951 C   0  0  0  0  0  0  0  0  0  0  0  0
   -1.2345   -0.5626   -1.0879 C   0  0  0  0  0  0  0  0  0  0  0  0
   -0.9064    0.8928   -1.4088 C   0  0  0  0  0  0  0  0  0  0  0  0
   -2.1479    1.6036   -1.4263 O   0  0  0  0  0  0  0  0  0  0  0  0
   -1.9833    2.9689   -1.8041 C   0  0  0  0  0  0  0  0  0  0  0  0
   -3.3514    3.6427   -1.8739 C   0  0  0  0  0  0  0  0  0  0  0  0
   -4.2474    3.0221   -2.9523 C   0  0  0  0  0  0  0  0  0  0  0  0
   -5.5689    3.7669   -3.0996 C   0  0  0  0  0  0  0  0  0  0  0  0
   -6.3210    3.6687   -1.8997 O   0  0  0  0  0  0  0  0  0  0  0  0
   -0.0172    1.4373   -0.4294 O   0  0  0  0  0  0  0  0  0  0  0  0
    2.2819   -0.0799    1.8428 H   0  0  0  0  0  0  0  0  0  0  0  0
    4.5559    2.8304    1.1500 H   0  0  0  0  0  0  0  0  0  0  0  0
    6.4623    3.3388    2.5906 H   0  0  0  0  0  0  0  0  0  0  0  0
    6.9577    1.9342    4.5766 H   0  0  0  0  0  0  0  0  0  0  0  0
    5.5048   -0.0070    5.1072 H   0  0  0  0  0  0  0  0  0  0  0  0
    3.5785   -0.5414    3.6750 H   0  0  0  0  0  0  0  0  0  0  0  0
    2.1367   -1.1674   -0.3642 H   0  0  0  0  0  0  0  0  0  0  0  0
    0.3192   -1.5561   -2.1625 H   0  0  0  0  0  0  0  0  0  0  0  0
   -0.6230   -1.9787    1.5181 H   0  0  0  0  0  0  0  0  0  0  0  0
   -0.8913   -4.1869    2.5542 H   0  0  0  0  0  0  0  0  0  0  0  0
    0.0676   -6.0731   -1.2052 H   0  0  0  0  0  0  0  0  0  0  0  0
    0.3344   -3.8690   -2.2481 H   0  0  0  0  0  0  0  0  0  0  0  0
   -1.9654   -0.9643   -1.8012 H   0  0  0  0  0  0  0  0  0  0  0  0
   -1.7237   -0.6029   -0.1054 H   0  0  0  0  0  0  0  0  0  0  0  0
   -0.4452    0.9687   -2.4034 H   0  0  0  0  0  0  0  0  0  0  0  0
   -1.3695    3.4854   -1.0584 H   0  0  0  0  0  0  0  0  0  0  0  0
   -1.4825    3.0301   -2.7772 H   0  0  0  0  0  0  0  0  0  0  0  0
   -3.2121    4.7104   -2.0781 H   0  0  0  0  0  0  0  0  0  0  0  0
   -3.8463    3.5520   -0.8998 H   0  0  0  0  0  0  0  0  0  0  0  0
   -4.4515    1.9767   -2.6913 H   0  0  0  0  0  0  0  0  0  0  0  0
   -3.7245    3.0291   -3.9159 H   0  0  0  0  0  0  0  0  0  0  0  0
   -5.3990    4.8247   -3.3231 H   0  0  0  0  0  0  0  0  0  0  0  0
   -6.1573    3.3274   -3.9110 H   0  0  0  0  0  0  0  0  0  0  0  0
   -7.1565    4.1443   -2.0449 H   0  0  0  0  0  0  0  0  0  0  0  0
  1  2  2  0
  2  3  1  0
  3  4  1  0
  4  5  2  0
  5  6  1  0
  6  7  2  0
  7  8  1  0
  8  9  2  0
  2 10  1  0
 10 11  2  0
 11 12  1  0
 12 13  1  0
 13 14  2  0
 14 15  1  0
 15 16  2  0
 16 17  1  0
 17 18  1  0
 17 19  1  0
 17 20  1  0
 16 21  1  0
 21 22  2  0
 12 23  1  0
 23 24  1  0
 24 25  1  0
 25 26  1  0
 26 27  1  0
 27 28  1  0
 28 29  1  0
 29 30  1  0
 24 31  1  0
  9  4  1  0
 31 10  1  0
 22 13  1  0
  3 32  1  0
  5 33  1  0
  6 34  1  0
  7 35  1  0
  8 36  1  0
  9 37  1  0
 11 38  1  0
 12 39  1  0
 14 40  1  0
 15 41  1  0
 21 42  1  0
 22 43  1  0
 23 44  1  0
 23 45  1  0
 24 46  1  0
 26 47  1  0
 26 48  1  0
 27 49  1  0
 27 50  1  0
 28 51  1  0
 28 52  1  0
 29 53  1  0
 29 54  1  0
 30 55  1  0
M  END
$$$$
