
     RDKit          3D

 69 73  0  0  0  0  0  0  0  0999 V2000
   -1.2793   -6.5383   -1.8045 C   0  0  0  0  0  0  0  0  0  0  0  0
   -1.9363   -5.5564   -1.0136 O   0  0  0  0  0  0  0  0  0  0  0  0
   -1.1412   -4.6476   -0.3700 C   0  0  0  0  0  0  0  0  0  0  0  0
    0.2525   -4.6059   -0.4092 C   0  0  0  0  0  0  0  0  0  0  0  0
    0.9442   -3.6170    0.2943 C   0  0  0  0  0  0  0  0  0  0  0  0
    0.2458   -2.6665    1.0396 C   0  0  0  0  0  0  0  0  0  0  0  0
   -1.1528   -2.6946    1.0899 C   0  0  0  0  0  0  0  0  0  0  0  0
   -1.8872   -1.6790    1.8555 C   0  0  0  0  0  0  0  0  0  0  0  0
   -2.8314   -2.1875    3.1887 S   0  0  0  0  0  0  0  0  0  0  0  0
   -3.3198   -0.5860    3.5734 C   0  0  0  0  0  0  0  0  0  0  0  0
   -4.1654   -0.1971    4.6332 C   0  0  0  0  0  0  0  0  0  0  0  0
   -4.4706    1.1587    4.8044 C   0  0  0  0  0  0  0  0  0  0  0  0
   -5.2804    1.6442    5.8038 O   0  0  0  0  0  0  0  0  0  0  0  0
   -5.8334    0.7100    6.7197 C   0  0  0  0  0  0  0  0  0  0  0  0
   -3.9435    2.1149    3.9239 C   0  0  0  0  0  0  0  0  0  0  0  0
   -4.2983    3.4202    4.1655 O   0  0  0  0  0  0  0  0  0  0  0  0
   -3.8552    4.4068    3.2447 C   0  0  0  0  0  0  0  0  0  0  0  0
   -3.1031    1.7096    2.8780 C   0  0  0  0  0  0  0  0  0  0  0  0
   -2.7717    0.3409    2.6900 C   0  0  0  0  0  0  0  0  0  0  0  0
   -1.9331   -0.3016    1.6999 C   0  0  0  0  0  0  0  0  0  0  0  0
   -1.1980    0.3777    0.6372 C   0  0  0  0  0  0  0  0  0  0  0  0
   -1.5623    0.2095   -0.7006 C   0  0  0  0  0  0  0  0  0  0  0  0
   -0.8432    0.8613   -1.7052 C   0  0  0  0  0  0  0  0  0  0  0  0
    0.2440    1.6820   -1.3914 C   0  0  0  0  0  0  0  0  0  0  0  0
    0.8508    2.2521   -2.4737 O   0  0  0  0  0  0  0  0  0  0  0  0
    2.1321    2.8633   -2.3103 C   0  0  0  0  0  0  0  0  0  0  0  0
    3.2838    1.8391   -2.2095 C   0  0  0  0  0  0  0  0  0  0  0  0
    3.3819    0.8828   -3.3299 N   0  0  0  0  0  0  0  0  0  0  0  0
    3.6893    1.4970   -4.6277 C   0  0  0  0  0  0  0  0  0  0  0  0
    5.1341    1.9866   -4.7523 C   0  0  0  0  0  0  0  0  0  0  0  0
    6.1251    0.8714   -4.4332 C   0  0  0  0  0  0  0  0  0  0  0  0
    5.7929    0.2071   -3.1010 C   0  0  0  0  0  0  0  0  0  0  0  0
    4.3215   -0.2107   -3.0399 C   0  0  0  0  0  0  0  0  0  0  0  0
    0.5970    1.8622   -0.0544 C   0  0  0  0  0  0  0  0  0  0  0  0
   -0.1205    1.2117    0.9564 C   0  0  0  0  0  0  0  0  0  0  0  0
   -1.8357   -3.6922    0.3793 C   0  0  0  0  0  0  0  0  0  0  0  0
   -0.7157   -6.0756   -2.6214 H   0  0  0  0  0  0  0  0  0  0  0  0
   -2.0475   -7.1772   -2.2504 H   0  0  0  0  0  0  0  0  0  0  0  0
   -0.6344   -7.1737   -1.1889 H   0  0  0  0  0  0  0  0  0  0  0  0
    0.8315   -5.3249   -0.9789 H   0  0  0  0  0  0  0  0  0  0  0  0
    2.0299   -3.5846    0.2588 H   0  0  0  0  0  0  0  0  0  0  0  0
    0.8000   -1.9022    1.5792 H   0  0  0  0  0  0  0  0  0  0  0  0
   -4.5605   -0.9626    5.2905 H   0  0  0  0  0  0  0  0  0  0  0  0
   -5.0476    0.1920    7.2793 H   0  0  0  0  0  0  0  0  0  0  0  0
   -6.4920   -0.0005    6.2095 H   0  0  0  0  0  0  0  0  0  0  0  0
   -6.4405    1.2670    7.4401 H   0  0  0  0  0  0  0  0  0  0  0  0
   -2.7634    4.4886    3.2505 H   0  0  0  0  0  0  0  0  0  0  0  0
   -4.2334    4.2078    2.2366 H   0  0  0  0  0  0  0  0  0  0  0  0
   -4.2617    5.3706    3.5663 H   0  0  0  0  0  0  0  0  0  0  0  0
   -2.6836    2.4286    2.1832 H   0  0  0  0  0  0  0  0  0  0  0  0
   -2.3982   -0.4305   -0.9725 H   0  0  0  0  0  0  0  0  0  0  0  0
   -1.1242    0.7190   -2.7460 H   0  0  0  0  0  0  0  0  0  0  0  0
    2.2849    3.5065   -3.1835 H   0  0  0  0  0  0  0  0  0  0  0  0
    2.1404    3.5501   -1.4562 H   0  0  0  0  0  0  0  0  0  0  0  0
    3.1279    1.2630   -1.2896 H   0  0  0  0  0  0  0  0  0  0  0  0
    4.2221    2.3898   -2.0749 H   0  0  0  0  0  0  0  0  0  0  0  0
    3.5040    0.7493   -5.4106 H   0  0  0  0  0  0  0  0  0  0  0  0
    2.9984    2.3149   -4.8554 H   0  0  0  0  0  0  0  0  0  0  0  0
    5.3109    2.3511   -5.7709 H   0  0  0  0  0  0  0  0  0  0  0  0
    5.3050    2.8362   -4.0807 H   0  0  0  0  0  0  0  0  0  0  0  0
    6.0925    0.1189   -5.2310 H   0  0  0  0  0  0  0  0  0  0  0  0
    7.1454    1.2697   -4.4111 H   0  0  0  0  0  0  0  0  0  0  0  0
    6.4308   -0.6735   -2.9624 H   0  0  0  0  0  0  0  0  0  0  0  0
    6.0240    0.8951   -2.2794 H   0  0  0  0  0  0  0  0  0  0  0  0
    4.1015   -0.6557   -2.0617 H   0  0  0  0  0  0  0  0  0  0  0  0
    4.1503   -1.0146   -3.7679 H   0  0  0  0  0  0  0  0  0  0  0  0
    1.4210    2.5003    0.2421 H   0  0  0  0  0  0  0  0  0  0  0  0
    0.1724    1.3558    1.9939 H   0  0  0  0  0  0  0  0  0  0  0  0
   -2.9227   -3.7271    0.3961 H   0  0  0  0  0  0  0  0  0  0  0  0
  1  2  1  0
  2  3  1  0
  3  4  2  0
  4  5  1  0
  5  6  2  0
  6  7  1  0
  7  8  1  0
  8  9  1  0
  9 10  1  0
 10 11  2  0
 11 12  1  0
 12 13  1  0
 13 14  1  0
 12 15  2  0
 15 16  1  0
 16 17  1  0
 15 18  1  0
 18 19  2  0
 19 20  1  0
 20 21  1  0
 21 22  2  0
 22 23  1  0
 23 24  2  0
 24 25  1  0
 25 26  1  0
 26 27  1  0
 27 28  1  0
 28 29  1  0
 29 30  1  0
 30 31  1  0
 31 32  1  0
 32 33  1  0
 24 34  1  0
 34 35  2  0
  7 36  2  0
 36  3  1  0
 20  8  2  0
 35 21  1  0
 19 10  1  0
 33 28  1  0
  1 37  1  0
  1 38  1  0
  1 39  1  0
  4 40  1  0
  5 41  1  0
  6 42  1  0
 11 43  1  0
 14 44  1  0
 14 45  1  0
 14 46  1  0
 17 47  1  0
 17 48  1  0
 17 49  1  0
 18 50  1  0
 22 51  1  0
 23 52  1  0
 26 53  1  0
 26 54  1  0
 27 55  1  0
 27 56  1  0
 29 57  1  0
 29 58  1  0
 30 59  1  0
 30 60  1  0
 31 61  1  0
 31 62  1  0
 32 63  1  0
 32 64  1  0
 33 65  1  0
 33 66  1  0
 34 67  1  0
 35 68  1  0
 36 69  1  0
M  END
$$$$
