
     RDKit          3D

 48 50  0  0  0  0  0  0  0  0999 V2000
    0.4804    3.9867   -0.5536 C   0  0  0  0  0  0  0  0  0  0  0  0
    0.0329    2.8383   -1.4373 C   0  0  0  0  0  0  0  0  0  0  0  0
    0.2176    1.5939   -0.7455 O   0  0  0  0  0  0  0  0  0  0  0  0
   -0.8430    1.1511   -0.0013 C   0  0  0  0  0  0  0  0  0  0  0  0
   -1.9049    1.7554    0.0893 O   0  0  0  0  0  0  0  0  0  0  0  0
   -0.5821   -0.1341    0.6663 C   0  0  0  0  0  0  0  0  0  0  0  0
    0.6760   -0.7142    0.8012 C   0  0  0  0  0  0  0  0  0  0  0  0
    1.8721   -0.2298    0.2879 N   0  0  0  0  0  0  0  0  0  0  0  0
    3.1829   -0.4921    0.6018 C   0  0  0  0  0  0  0  0  0  0  0  0
    3.8208   -1.2078    1.9745 S   0  0  0  0  0  0  0  0  0  0  0  0
    4.1119    0.0157   -0.2803 N   0  0  0  0  0  0  0  0  0  0  0  0
    4.0069    0.4158   -1.6281 C   0  0  0  0  0  0  0  0  0  0  0  0
    2.9538    0.0550   -2.4725 C   0  0  0  0  0  0  0  0  0  0  0  0
    2.9334    0.4847   -3.8035 C   0  0  0  0  0  0  0  0  0  0  0  0
    3.9719    1.2652   -4.3042 C   0  0  0  0  0  0  0  0  0  0  0  0
    5.0407    1.6046   -3.4788 C   0  0  0  0  0  0  0  0  0  0  0  0
    5.0624    1.1724   -2.1504 C   0  0  0  0  0  0  0  0  0  0  0  0
    0.6114   -2.2169    1.5805 S   0  0  0  0  0  0  0  0  0  0  0  0
   -1.0578   -2.0944    1.8786 C   0  0  0  0  0  0  0  0  0  0  0  0
   -1.6015   -0.9579    1.3060 C   0  0  0  0  0  0  0  0  0  0  0  0
   -3.0732   -0.6203    1.3844 C   0  0  0  0  0  0  0  0  0  0  0  0
   -4.0089   -1.8091    1.7111 C   0  0  0  0  0  0  0  0  0  0  0  0
   -4.1404   -2.7745    0.5216 C   0  0  0  0  0  0  0  0  0  0  0  0
   -5.4072   -1.2668    2.0546 C   0  0  0  0  0  0  0  0  0  0  0  0
   -3.4102   -2.7162    3.2035 S   0  0  0  0  0  0  0  0  0  0  0  0
   -1.7450   -3.1863    2.6366 C   0  0  0  0  0  0  0  0  0  0  0  0
   -0.1216    4.0353    0.3596 H   0  0  0  0  0  0  0  0  0  0  0  0
    1.5214    3.8496   -0.2429 H   0  0  0  0  0  0  0  0  0  0  0  0
    0.3935    4.9398   -1.0826 H   0  0  0  0  0  0  0  0  0  0  0  0
   -1.0033    2.9678   -1.7706 H   0  0  0  0  0  0  0  0  0  0  0  0
    0.6567    2.8002   -2.3368 H   0  0  0  0  0  0  0  0  0  0  0  0
    1.7635    0.6014   -0.2876 H   0  0  0  0  0  0  0  0  0  0  0  0
    5.0473    0.0402    0.1150 H   0  0  0  0  0  0  0  0  0  0  0  0
    2.1563   -0.6034   -2.1436 H   0  0  0  0  0  0  0  0  0  0  0  0
    2.1136    0.1897   -4.4550 H   0  0  0  0  0  0  0  0  0  0  0  0
    3.9578    1.5934   -5.3402 H   0  0  0  0  0  0  0  0  0  0  0  0
    5.8608    2.2026   -3.8688 H   0  0  0  0  0  0  0  0  0  0  0  0
    5.9065    1.4540   -1.5249 H   0  0  0  0  0  0  0  0  0  0  0  0
   -3.3962   -0.1868    0.4296 H   0  0  0  0  0  0  0  0  0  0  0  0
   -3.1879    0.1665    2.1434 H   0  0  0  0  0  0  0  0  0  0  0  0
   -4.5715   -2.2598   -0.3455 H   0  0  0  0  0  0  0  0  0  0  0  0
   -3.1795   -3.1859    0.1974 H   0  0  0  0  0  0  0  0  0  0  0  0
   -4.8024   -3.6158    0.7577 H   0  0  0  0  0  0  0  0  0  0  0  0
   -5.8225   -0.7043    1.2097 H   0  0  0  0  0  0  0  0  0  0  0  0
   -5.3818   -0.5857    2.9142 H   0  0  0  0  0  0  0  0  0  0  0  0
   -6.1127   -2.0748    2.2834 H   0  0  0  0  0  0  0  0  0  0  0  0
   -1.8321   -4.0822    2.0128 H   0  0  0  0  0  0  0  0  0  0  0  0
   -1.1668   -3.4599    3.5261 H   0  0  0  0  0  0  0  0  0  0  0  0
  1  2  1  0
  2  3  1  0
  3  4  1  0
  4  5  2  0
  4  6  1  0
  6  7  2  0
  7  8  1  0
  8  9  1  0
  9 10  2  0
  9 11  1  0
 11 12  1  0
 12 13  2  0
 13 14  1  0
 14 15  2  0
 15 16  1  0
 16 17  2  0
  7 18  1  0
 18 19  1  0
 19 20  2  0
 20 21  1  0
 21 22  1  0
 22 23  1  0
 22 24  1  0
 22 25  1  0
 25 26  1  0
 20  6  1  0
 17 12  1  0
 26 19  1  0
  1 27  1  0
  1 28  1  0
  1 29  1  0
  2 30  1  0
  2 31  1  0
  8 32  1  0
 11 33  1  0
 13 34  1  0
 14 35  1  0
 15 36  1  0
 16 37  1  0
 17 38  1  0
 21 39  1  0
 21 40  1  0
 23 41  1  0
 23 42  1  0
 23 43  1  0
 24 44  1  0
 24 45  1  0
 24 46  1  0
 26 47  1  0
 26 48  1  0
M  END
$$$$
