
     RDKit          3D

 63 67  0  0  0  0  0  0  0  0999 V2000
   -2.3321    6.4122    1.3927 C   0  0  0  0  0  0  0  0  0  0  0  0
   -3.1294    5.8993    0.3335 O   0  0  0  0  0  0  0  0  0  0  0  0
   -3.2349    4.5386    0.2495 C   0  0  0  0  0  0  0  0  0  0  0  0
   -2.8318    3.6246    1.2210 C   0  0  0  0  0  0  0  0  0  0  0  0
   -2.9981    2.2499    1.0077 C   0  0  0  0  0  0  0  0  0  0  0  0
   -3.5646    1.7691   -0.1803 C   0  0  0  0  0  0  0  0  0  0  0  0
   -3.7017    0.3220   -0.4134 C   0  0  0  0  0  0  0  0  0  0  0  0
   -5.2630   -0.2986   -0.7522 S   0  0  0  0  0  0  0  0  0  0  0  0
   -4.6997   -1.9124   -0.8855 C   0  0  0  0  0  0  0  0  0  0  0  0
   -5.4730   -3.0544   -1.1737 C   0  0  0  0  0  0  0  0  0  0  0  0
   -4.8577   -4.3070   -1.2520 C   0  0  0  0  0  0  0  0  0  0  0  0
   -5.7117   -5.3380   -1.5351 O   0  0  0  0  0  0  0  0  0  0  0  0
   -5.1531   -6.6456   -1.5798 C   0  0  0  0  0  0  0  0  0  0  0  0
   -3.4888   -4.4150   -1.0530 C   0  0  0  0  0  0  0  0  0  0  0  0
   -2.7237   -3.2763   -0.7663 C   0  0  0  0  0  0  0  0  0  0  0  0
   -3.3249   -1.9939   -0.6693 C   0  0  0  0  0  0  0  0  0  0  0  0
   -2.7529   -0.6928   -0.3801 C   0  0  0  0  0  0  0  0  0  0  0  0
   -1.3447   -0.4337   -0.0784 C   0  0  0  0  0  0  0  0  0  0  0  0
   -0.5789    0.4108   -0.8864 C   0  0  0  0  0  0  0  0  0  0  0  0
    0.7579    0.6632   -0.5671 C   0  0  0  0  0  0  0  0  0  0  0  0
    1.3518    0.0621    0.5449 C   0  0  0  0  0  0  0  0  0  0  0  0
    2.6600    0.4017    0.7493 O   0  0  0  0  0  0  0  0  0  0  0  0
    3.3941   -0.3842    1.6911 C   0  0  0  0  0  0  0  0  0  0  0  0
    4.8704    0.0617    1.7054 C   0  0  0  0  0  0  0  0  0  0  0  0
    5.6873   -0.4745    0.5972 N   0  0  0  0  0  0  0  0  0  0  0  0
    7.1190   -0.1384    0.7642 C   0  0  0  0  0  0  0  0  0  0  0  0
    7.5610    1.0836   -0.0560 C   0  0  0  0  0  0  0  0  0  0  0  0
    7.3693    0.9166   -1.4671 O   0  0  0  0  0  0  0  0  0  0  0  0
    6.3100    0.0013   -1.7844 C   0  0  0  0  0  0  0  0  0  0  0  0
    5.1993   -0.0062   -0.7221 C   0  0  0  0  0  0  0  0  0  0  0  0
    0.5932   -0.7878    1.3479 C   0  0  0  0  0  0  0  0  0  0  0  0
   -0.7500   -1.0310    1.0395 C   0  0  0  0  0  0  0  0  0  0  0  0
   -3.9734    2.6963   -1.1480 C   0  0  0  0  0  0  0  0  0  0  0  0
   -3.8153    4.0680   -0.9298 C   0  0  0  0  0  0  0  0  0  0  0  0
   -2.8084    6.2345    2.3615 H   0  0  0  0  0  0  0  0  0  0  0  0
   -1.3200    5.9947    1.3673 H   0  0  0  0  0  0  0  0  0  0  0  0
   -2.2498    7.4948    1.2551 H   0  0  0  0  0  0  0  0  0  0  0  0
   -2.3895    3.9437    2.1589 H   0  0  0  0  0  0  0  0  0  0  0  0
   -2.6771    1.5559    1.7815 H   0  0  0  0  0  0  0  0  0  0  0  0
   -6.5442   -2.9651   -1.3340 H   0  0  0  0  0  0  0  0  0  0  0  0
   -4.4168   -6.7323   -2.3861 H   0  0  0  0  0  0  0  0  0  0  0  0
   -5.9639   -7.3493   -1.7935 H   0  0  0  0  0  0  0  0  0  0  0  0
   -4.7174   -6.9217   -0.6139 H   0  0  0  0  0  0  0  0  0  0  0  0
   -2.9728   -5.3677   -1.1157 H   0  0  0  0  0  0  0  0  0  0  0  0
   -1.6508   -3.3837   -0.6222 H   0  0  0  0  0  0  0  0  0  0  0  0
   -1.0149    0.8889   -1.7607 H   0  0  0  0  0  0  0  0  0  0  0  0
    1.3403    1.3352   -1.1930 H   0  0  0  0  0  0  0  0  0  0  0  0
    3.3275   -1.4518    1.4471 H   0  0  0  0  0  0  0  0  0  0  0  0
    2.9837   -0.2137    2.6936 H   0  0  0  0  0  0  0  0  0  0  0  0
    4.9286    1.1576    1.7281 H   0  0  0  0  0  0  0  0  0  0  0  0
    5.2960   -0.3130    2.6446 H   0  0  0  0  0  0  0  0  0  0  0  0
    7.6919   -1.0090    0.4182 H   0  0  0  0  0  0  0  0  0  0  0  0
    7.3827   -0.0012    1.8200 H   0  0  0  0  0  0  0  0  0  0  0  0
    7.0130    1.9795    0.2568 H   0  0  0  0  0  0  0  0  0  0  0  0
    8.6258    1.2808    0.1062 H   0  0  0  0  0  0  0  0  0  0  0  0
    6.7434   -0.9986   -1.9099 H   0  0  0  0  0  0  0  0  0  0  0  0
    5.9002    0.3020   -2.7533 H   0  0  0  0  0  0  0  0  0  0  0  0
    4.3833   -0.6555   -1.0541 H   0  0  0  0  0  0  0  0  0  0  0  0
    4.8143    1.0181   -0.6458 H   0  0  0  0  0  0  0  0  0  0  0  0
    1.0093   -1.2668    2.2275 H   0  0  0  0  0  0  0  0  0  0  0  0
   -1.3313   -1.6826    1.6868 H   0  0  0  0  0  0  0  0  0  0  0  0
   -4.4133    2.3608   -2.0835 H   0  0  0  0  0  0  0  0  0  0  0  0
   -4.1392    4.7744   -1.6899 H   0  0  0  0  0  0  0  0  0  0  0  0
  1  2  1  0
  2  3  1  0
  3  4  2  0
  4  5  1  0
  5  6  2  0
  6  7  1  0
  7  8  1  0
  8  9  1  0
  9 10  2  0
 10 11  1  0
 11 12  1  0
 12 13  1  0
 11 14  2  0
 14 15  1  0
 15 16  2  0
 16 17  1  0
 17 18  1  0
 18 19  2  0
 19 20  1  0
 20 21  2  0
 21 22  1  0
 22 23  1  0
 23 24  1  0
 24 25  1  0
 25 26  1  0
 26 27  1  0
 27 28  1  0
 28 29  1  0
 29 30  1  0
 21 31  1  0
 31 32  2  0
  6 33  1  0
 33 34  2  0
 34  3  1  0
 17  7  2  0
 32 18  1  0
 16  9  1  0
 30 25  1  0
  1 35  1  0
  1 36  1  0
  1 37  1  0
  4 38  1  0
  5 39  1  0
 10 40  1  0
 13 41  1  0
 13 42  1  0
 13 43  1  0
 14 44  1  0
 15 45  1  0
 19 46  1  0
 20 47  1  0
 23 48  1  0
 23 49  1  0
 24 50  1  0
 24 51  1  0
 26 52  1  0
 26 53  1  0
 27 54  1  0
 27 55  1  0
 29 56  1  0
 29 57  1  0
 30 58  1  0
 30 59  1  0
 31 60  1  0
 32 61  1  0
 33 62  1  0
 34 63  1  0
M  END
$$$$
