
     RDKit          3D

 35 38  0  0  0  0  0  0  0  0999 V2000
    1.4375    2.0380    2.2389 O   0  0  0  0  0  0  0  0  0  0  0  0
    0.3366    1.4146    1.4049 P   0  0  0  0  0  5  0  0  0  0  0  0
   -0.2821    2.4075    0.2405 N   0  0  0  0  0  0  0  0  0  0  0  0
   -1.1824    1.9798   -0.6642 C   0  0  0  0  0  0  0  0  0  0  0  0
   -1.9451    0.9191   -0.5534 N   0  0  0  0  0  0  0  0  0  0  0  0
   -2.7284    0.7646   -1.6793 C   0  0  0  0  0  0  0  0  0  0  0  0
   -2.5616    1.7238   -2.6510 C   0  0  0  0  0  0  0  0  0  0  0  0
   -1.3848    2.8555   -2.1392 S   0  0  0  0  0  0  0  0  0  0  0  0
   -0.7521    0.4165    2.3980 C   0  0  0  0  0  0  0  0  0  0  0  0
   -2.1315    0.6565    2.4652 C   0  0  0  0  0  0  0  0  0  0  0  0
   -2.9563   -0.1144    3.2881 C   0  0  0  0  0  0  0  0  0  0  0  0
   -2.4095   -1.1222    4.0782 C   0  0  0  0  0  0  0  0  0  0  0  0
   -1.0368   -1.3512    4.0568 C   0  0  0  0  0  0  0  0  0  0  0  0
   -0.2151   -0.5803    3.2325 C   0  0  0  0  0  0  0  0  0  0  0  0
    1.0970    0.3710    0.1544 C   0  0  0  0  0  0  0  0  0  0  0  0
    1.9421    0.8790   -0.7306 N   0  0  0  0  0  0  0  0  0  0  0  0
    2.3684   -0.1100   -1.5985 C   0  0  0  0  0  0  0  0  0  0  0  0
    3.2701    0.0633   -2.6680 C   0  0  0  0  0  0  0  0  0  0  0  0
    3.6139   -1.0279   -3.4727 C   0  0  0  0  0  0  0  0  0  0  0  0
    3.0712   -2.2846   -3.2243 C   0  0  0  0  0  0  0  0  0  0  0  0
    2.1750   -2.4824   -2.1693 C   0  0  0  0  0  0  0  0  0  0  0  0
    1.8372   -1.3794   -1.3674 C   0  0  0  0  0  0  0  0  0  0  0  0
    0.7790   -1.3066   -0.0144 S   0  0  0  0  0  0  0  0  0  0  0  0
    0.4204    3.0272   -0.1441 H   0  0  0  0  0  0  0  0  0  0  0  0
   -3.4108   -0.0747   -1.7391 H   0  0  0  0  0  0  0  0  0  0  0  0
   -3.0579    1.8106   -3.6065 H   0  0  0  0  0  0  0  0  0  0  0  0
   -2.5783    1.4530    1.8748 H   0  0  0  0  0  0  0  0  0  0  0  0
   -4.0257    0.0786    3.3157 H   0  0  0  0  0  0  0  0  0  0  0  0
   -3.0514   -1.7188    4.7209 H   0  0  0  0  0  0  0  0  0  0  0  0
   -0.6034   -2.1221    4.6888 H   0  0  0  0  0  0  0  0  0  0  0  0
    0.8607   -0.7497    3.2496 H   0  0  0  0  0  0  0  0  0  0  0  0
    3.6926    1.0450   -2.8569 H   0  0  0  0  0  0  0  0  0  0  0  0
    4.3113   -0.8899   -4.2957 H   0  0  0  0  0  0  0  0  0  0  0  0
    3.3475   -3.1256   -3.8570 H   0  0  0  0  0  0  0  0  0  0  0  0
    1.7527   -3.4638   -1.9755 H   0  0  0  0  0  0  0  0  0  0  0  0
  1  2  2  0
  2  3  1  0
  3  4  1  0
  4  5  2  0
  5  6  1  0
  6  7  2  0
  7  8  1  0
  2  9  1  0
  9 10  2  0
 10 11  1  0
 11 12  2  0
 12 13  1  0
 13 14  2  0
  2 15  1  0
 15 16  2  0
 16 17  1  0
 17 18  2  0
 18 19  1  0
 19 20  2  0
 20 21  1  0
 21 22  2  0
 22 23  1  0
  8  4  1  0
 14  9  1  0
 23 15  1  0
 22 17  1  0
  3 24  1  0
  6 25  1  0
  7 26  1  0
 10 27  1  0
 11 28  1  0
 12 29  1  0
 13 30  1  0
 14 31  1  0
 18 32  1  0
 19 33  1  0
 20 34  1  0
 21 35  1  0
M  END
$$$$
