
     RDKit          3D

 61 61  0  0  0  0  0  0  0  0999 V2000
    8.5943    3.3038    0.4614 C   0  0  0  0  0  0  0  0  0  0  0  0
    8.0737    1.9336    0.0575 C   0  0  0  0  0  0  0  0  0  0  0  0
    6.5463    1.9072    0.0057 C   0  0  0  0  0  0  0  0  0  0  0  0
    6.0279    0.5267   -0.4006 C   0  0  0  0  0  0  0  0  0  0  0  0
    4.4983    0.4970   -0.4470 C   0  0  0  0  0  0  0  0  0  0  0  0
    3.9841   -0.8866   -0.8511 C   0  0  0  0  0  0  0  0  0  0  0  0
    2.4572   -1.0052   -0.8021 C   0  0  0  0  0  0  0  0  0  0  0  0
    1.7491   -0.1275   -1.8341 C   0  0  0  0  0  0  0  0  0  0  0  0
    0.2446   -0.3990   -1.9584 C   0  0  0  0  0  0  0  0  0  0  0  0
   -0.5673   -0.0674   -0.7005 C   0  0  0  0  0  0  0  0  0  0  0  0
   -0.8512   -1.2974    0.1676 C   0  0  0  0  0  0  0  0  0  0  0  0
   -1.5153   -0.9551    1.5052 C   0  0  0  0  0  0  0  0  0  0  0  0
   -2.9101   -0.3423    1.3538 C   0  0  0  0  0  0  0  0  0  0  0  0
   -3.5723   -0.1335    2.7176 C   0  0  0  0  0  0  0  0  0  0  0  0
   -4.9006    0.6274    2.6521 C   0  0  0  0  0  0  0  0  0  0  0  0
   -6.1035   -0.2174    2.2384 C   0  0  0  0  0  0  0  0  0  0  0  0
   -6.1126   -0.5846    0.8197 N   0  0  0  0  0  0  0  0  0  0  0  0
   -6.1806   -1.8756    0.3152 C   0  0  0  0  0  0  0  0  0  0  0  0
   -6.1927   -1.7681   -1.0466 C   0  0  0  0  0  0  0  0  0  0  0  0
   -6.1549   -0.4154   -1.3404 N   0  0  0  0  0  4  0  0  0  0  0  0
   -6.1444    0.1698   -2.6747 C   0  0  0  0  0  0  0  0  0  0  0  0
   -6.1174    0.2891   -0.1997 C   0  0  0  0  0  0  0  0  0  0  0  0
    9.6883    3.2992    0.4935 H   0  0  0  0  0  0  0  0  0  0  0  0
    8.2786    4.0699   -0.2540 H   0  0  0  0  0  0  0  0  0  0  0  0
    8.2266    3.5865    1.4527 H   0  0  0  0  0  0  0  0  0  0  0  0
    8.4843    1.6676   -0.9235 H   0  0  0  0  0  0  0  0  0  0  0  0
    8.4350    1.1864    0.7738 H   0  0  0  0  0  0  0  0  0  0  0  0
    6.1896    2.6590   -0.7090 H   0  0  0  0  0  0  0  0  0  0  0  0
    6.1408    2.1776    0.9883 H   0  0  0  0  0  0  0  0  0  0  0  0
    6.3886   -0.2247    0.3125 H   0  0  0  0  0  0  0  0  0  0  0  0
    6.4300    0.2578   -1.3851 H   0  0  0  0  0  0  0  0  0  0  0  0
    4.1463    1.2517   -1.1594 H   0  0  0  0  0  0  0  0  0  0  0  0
    4.0966    0.7654    0.5377 H   0  0  0  0  0  0  0  0  0  0  0  0
    4.3413   -1.1361   -1.8577 H   0  0  0  0  0  0  0  0  0  0  0  0
    4.4061   -1.6377   -0.1717 H   0  0  0  0  0  0  0  0  0  0  0  0
    2.1913   -2.0542   -0.9797 H   0  0  0  0  0  0  0  0  0  0  0  0
    2.1136   -0.7503    0.2065 H   0  0  0  0  0  0  0  0  0  0  0  0
    2.2049   -0.2924   -2.8182 H   0  0  0  0  0  0  0  0  0  0  0  0
    1.8991    0.9309   -1.5922 H   0  0  0  0  0  0  0  0  0  0  0  0
    0.0718   -1.4351   -2.2728 H   0  0  0  0  0  0  0  0  0  0  0  0
   -0.1266    0.2348   -2.7743 H   0  0  0  0  0  0  0  0  0  0  0  0
   -1.5270    0.3523   -1.0255 H   0  0  0  0  0  0  0  0  0  0  0  0
   -0.0660    0.7112   -0.1139 H   0  0  0  0  0  0  0  0  0  0  0  0
    0.0804   -1.8304    0.3822 H   0  0  0  0  0  0  0  0  0  0  0  0
   -1.4876   -1.9973   -0.3880 H   0  0  0  0  0  0  0  0  0  0  0  0
   -0.8692   -0.2721    2.0698 H   0  0  0  0  0  0  0  0  0  0  0  0
   -1.5915   -1.8773    2.0947 H   0  0  0  0  0  0  0  0  0  0  0  0
   -2.8411    0.6209    0.8364 H   0  0  0  0  0  0  0  0  0  0  0  0
   -3.5187   -1.0054    0.7345 H   0  0  0  0  0  0  0  0  0  0  0  0
   -2.8863    0.4478    3.3472 H   0  0  0  0  0  0  0  0  0  0  0  0
   -3.7154   -1.0980    3.2195 H   0  0  0  0  0  0  0  0  0  0  0  0
   -5.1071    1.0106    3.6597 H   0  0  0  0  0  0  0  0  0  0  0  0
   -4.8007    1.5039    2.0022 H   0  0  0  0  0  0  0  0  0  0  0  0
   -6.1599   -1.1274    2.8462 H   0  0  0  0  0  0  0  0  0  0  0  0
   -7.0246    0.3500    2.4181 H   0  0  0  0  0  0  0  0  0  0  0  0
   -6.2024   -2.7091    0.9965 H   0  0  0  0  0  0  0  0  0  0  0  0
   -6.2269   -2.4827   -1.8513 H   0  0  0  0  0  0  0  0  0  0  0  0
   -6.5832    1.1708   -2.6385 H   0  0  0  0  0  0  0  0  0  0  0  0
   -5.1102    0.2328   -3.0228 H   0  0  0  0  0  0  0  0  0  0  0  0
   -6.7294   -0.4537   -3.3563 H   0  0  0  0  0  0  0  0  0  0  0  0
   -6.0921    1.3695   -0.1175 H   0  0  0  0  0  0  0  0  0  0  0  0
  1  2  1  0
  2  3  1  0
  3  4  1  0
  4  5  1  0
  5  6  1  0
  6  7  1  0
  7  8  1  0
  8  9  1  0
  9 10  1  0
 10 11  1  0
 11 12  1  0
 12 13  1  0
 13 14  1  0
 14 15  1  0
 15 16  1  0
 16 17  1  0
 17 18  1  0
 18 19  2  0
 19 20  1  0
 20 21  1  0
 20 22  2  0
 22 17  1  0
  1 23  1  0
  1 24  1  0
  1 25  1  0
  2 26  1  0
  2 27  1  0
  3 28  1  0
  3 29  1  0
  4 30  1  0
  4 31  1  0
  5 32  1  0
  5 33  1  0
  6 34  1  0
  6 35  1  0
  7 36  1  0
  7 37  1  0
  8 38  1  0
  8 39  1  0
  9 40  1  0
  9 41  1  0
 10 42  1  0
 10 43  1  0
 11 44  1  0
 11 45  1  0
 12 46  1  0
 12 47  1  0
 13 48  1  0
 13 49  1  0
 14 50  1  0
 14 51  1  0
 15 52  1  0
 15 53  1  0
 16 54  1  0
 16 55  1  0
 18 56  1  0
 19 57  1  0
 21 58  1  0
 21 59  1  0
 21 60  1  0
 22 61  1  0
M  CHG  1  20   1
M  END
$$$$
