
     RDKit          3D

 63 67  0  0  0  0  0  0  0  0999 V2000
   -6.1248   -4.0946    0.5383 Cl  0  0  0  0  0  0  0  0  0  0  0  0
   -5.1527   -2.8475    1.2105 C   0  0  0  0  0  0  0  0  0  0  0  0
   -3.9377   -2.5210    0.6136 C   0  0  0  0  0  0  0  0  0  0  0  0
   -3.1459   -1.5030    1.1533 C   0  0  0  0  0  0  0  0  0  0  0  0
   -3.5638   -0.7947    2.2961 C   0  0  0  0  0  0  0  0  0  0  0  0
   -2.7328    0.3171    2.9264 C   0  0  0  0  0  0  0  0  0  0  0  0
   -1.7941   -0.0969    4.0544 C   0  0  0  0  0  0  0  0  0  0  0  0
   -1.2744   -1.3995    4.1778 C   0  0  0  0  0  0  0  0  0  0  0  0
   -0.3798   -1.7182    5.2059 C   0  0  0  0  0  0  0  0  0  0  0  0
    0.0094   -0.7418    6.1193 C   0  0  0  0  0  0  0  0  0  0  0  0
    1.1189   -1.1338    7.3714 Cl  0  0  0  0  0  0  0  0  0  0  0  0
   -0.4919    0.5532    6.0167 C   0  0  0  0  0  0  0  0  0  0  0  0
   -1.3859    0.8756    4.9905 C   0  0  0  0  0  0  0  0  0  0  0  0
   -1.9785    1.0412    1.8772 N   0  0  0  0  0  0  0  0  0  0  0  0
   -2.5404    1.9428    0.9766 C   0  0  0  0  0  0  0  0  0  0  0  0
   -1.5304    2.3848    0.1721 C   0  0  0  0  0  0  0  0  0  0  0  0
   -0.3761    1.7560    0.6067 N   0  0  0  0  0  4  0  0  0  0  0  0
    0.9678    1.9243    0.0156 C   0  0  0  0  0  0  0  0  0  0  0  0
    1.2105    0.9392   -1.1537 C   0  0  0  0  0  0  0  0  0  0  0  0
    0.3498    1.3204   -2.2455 O   0  0  0  0  0  0  0  0  0  0  0  0
   -0.0835    0.2296   -3.0708 C   0  0  0  0  0  0  0  0  0  0  0  0
    0.9615   -0.2055   -4.0676 C   0  0  0  0  0  0  0  0  0  0  0  0
    1.6339   -1.4264   -3.8695 C   0  0  0  0  0  0  0  0  0  0  0  0
    2.6328   -1.8416   -4.7535 C   0  0  0  0  0  0  0  0  0  0  0  0
    2.9643   -1.0467   -5.8477 C   0  0  0  0  0  0  0  0  0  0  0  0
    4.2005   -1.5577   -6.9299 Cl  0  0  0  0  0  0  0  0  0  0  0  0
    2.3038    0.1584   -6.0709 C   0  0  0  0  0  0  0  0  0  0  0  0
    1.3083    0.5774   -5.1835 C   0  0  0  0  0  0  0  0  0  0  0  0
    0.5364    2.0900   -5.5031 Cl  0  0  0  0  0  0  0  0  0  0  0  0
    2.6772    0.9847   -1.5471 C   0  0  0  0  0  0  0  0  0  0  0  0
    3.1387    1.9656   -2.4464 C   0  0  0  0  0  0  0  0  0  0  0  0
    4.4814    2.0103   -2.8304 C   0  0  0  0  0  0  0  0  0  0  0  0
    5.3834    1.0859   -2.3083 C   0  0  0  0  0  0  0  0  0  0  0  0
    7.0351    1.1383   -2.7857 Cl  0  0  0  0  0  0  0  0  0  0  0  0
    4.9591    0.1261   -1.3943 C   0  0  0  0  0  0  0  0  0  0  0  0
    3.6155    0.0814   -1.0114 C   0  0  0  0  0  0  0  0  0  0  0  0
    3.1577   -1.1085    0.1590 Cl  0  0  0  0  0  0  0  0  0  0  0  0
   -0.6580    0.9565    1.6473 C   0  0  0  0  0  0  0  0  0  0  0  0
   -4.7894   -1.1524    2.8905 C   0  0  0  0  0  0  0  0  0  0  0  0
   -5.5802   -2.1694    2.3481 C   0  0  0  0  0  0  0  0  0  0  0  0
   -3.6029   -3.0601   -0.2717 H   0  0  0  0  0  0  0  0  0  0  0  0
   -2.2011   -1.2781    0.6656 H   0  0  0  0  0  0  0  0  0  0  0  0
   -3.4402    1.0524    3.3409 H   0  0  0  0  0  0  0  0  0  0  0  0
   -1.5593   -2.1950    3.4903 H   0  0  0  0  0  0  0  0  0  0  0  0
    0.0059   -2.7329    5.2929 H   0  0  0  0  0  0  0  0  0  0  0  0
   -0.1922    1.3149    6.7346 H   0  0  0  0  0  0  0  0  0  0  0  0
   -1.7636    1.8970    4.9340 H   0  0  0  0  0  0  0  0  0  0  0  0
   -3.5986    2.1422    1.0179 H   0  0  0  0  0  0  0  0  0  0  0  0
   -1.4798    3.0641   -0.6624 H   0  0  0  0  0  0  0  0  0  0  0  0
    1.0486    2.9657   -0.3245 H   0  0  0  0  0  0  0  0  0  0  0  0
    1.6984    1.7792    0.8213 H   0  0  0  0  0  0  0  0  0  0  0  0
    0.9135   -0.0627   -0.8235 H   0  0  0  0  0  0  0  0  0  0  0  0
   -0.9789    0.5615   -3.6109 H   0  0  0  0  0  0  0  0  0  0  0  0
   -0.4186   -0.6085   -2.4456 H   0  0  0  0  0  0  0  0  0  0  0  0
    1.3921   -2.0662   -3.0214 H   0  0  0  0  0  0  0  0  0  0  0  0
    3.1491   -2.7846   -4.5853 H   0  0  0  0  0  0  0  0  0  0  0  0
    2.5668    0.7684   -6.9324 H   0  0  0  0  0  0  0  0  0  0  0  0
    2.4505    2.6927   -2.8791 H   0  0  0  0  0  0  0  0  0  0  0  0
    4.8156    2.7632   -3.5426 H   0  0  0  0  0  0  0  0  0  0  0  0
    5.6751   -0.5836   -0.9828 H   0  0  0  0  0  0  0  0  0  0  0  0
    0.0629    0.3482    2.1841 H   0  0  0  0  0  0  0  0  0  0  0  0
   -5.1430   -0.6460    3.7873 H   0  0  0  0  0  0  0  0  0  0  0  0
   -6.5259   -2.4315    2.8186 H   0  0  0  0  0  0  0  0  0  0  0  0
  1  2  1  0
  2  3  2  0
  3  4  1  0
  4  5  2  0
  5  6  1  0
  6  7  1  0
  7  8  2  0
  8  9  1  0
  9 10  2  0
 10 11  1  0
 10 12  1  0
 12 13  2  0
  6 14  1  0
 14 15  1  0
 15 16  2  0
 16 17  1  0
 17 18  1  0
 18 19  1  0
 19 20  1  0
 20 21  1  0
 21 22  1  0
 22 23  2  0
 23 24  1  0
 24 25  2  0
 25 26  1  0
 25 27  1  0
 27 28  2  0
 28 29  1  0
 19 30  1  0
 30 31  2  0
 31 32  1  0
 32 33  2  0
 33 34  1  0
 33 35  1  0
 35 36  2  0
 36 37  1  0
 17 38  2  0
  5 39  1  0
 39 40  2  0
 40  2  1  0
 13  7  1  0
 38 14  1  0
 28 22  1  0
 36 30  1  0
  3 41  1  0
  4 42  1  0
  6 43  1  0
  8 44  1  0
  9 45  1  0
 12 46  1  0
 13 47  1  0
 15 48  1  0
 16 49  1  0
 18 50  1  0
 18 51  1  0
 19 52  1  0
 21 53  1  0
 21 54  1  0
 23 55  1  0
 24 56  1  0
 27 57  1  0
 31 58  1  0
 32 59  1  0
 35 60  1  0
 38 61  1  0
 39 62  1  0
 40 63  1  0
M  CHG  1  17   1
M  END
$$$$
