
     RDKit          3D

 48 50  0  0  0  0  0  0  0  0999 V2000
    2.6416    1.9585    0.4615 C   0  0  0  0  0  0  0  0  0  0  0  0
    1.3940    1.4825    0.5927 C   0  0  0  0  0  0  0  0  0  0  0  0
    0.3007    2.1136    1.3335 C   0  0  0  0  0  0  0  0  0  0  0  0
    0.2732    3.3053    2.1936 C   0  0  0  0  0  0  0  0  0  0  0  0
   -0.7786    3.8105    2.5756 O   0  0  0  0  0  0  0  0  0  0  0  0
    1.5093    3.7313    2.5406 O   0  0  0  0  0  0  0  0  0  0  0  0
    1.5184    4.8666    3.4074 C   0  0  0  0  0  0  0  0  0  0  0  0
   -0.8216    1.3963    1.1263 C   0  0  0  0  0  0  0  0  0  0  0  0
   -2.0754    1.6321    1.6173 O   0  0  0  0  0  0  0  0  0  0  0  0
   -0.5318    0.2346    0.2857 C   0  0  0  0  0  0  0  0  0  0  0  0
   -1.3819   -0.7452   -0.0798 C   0  0  0  0  0  0  0  0  0  0  0  0
   -2.8106   -0.8566    0.2259 C   0  0  0  0  0  0  0  0  0  0  0  0
   -3.7488   -0.0443   -0.4232 C   0  0  0  0  0  0  0  0  0  0  0  0
   -5.1115   -0.1791   -0.1457 C   0  0  0  0  0  0  0  0  0  0  0  0
   -5.5297   -1.1337    0.7763 C   0  0  0  0  0  0  0  0  0  0  0  0
   -6.8496   -1.2991    1.0769 O   0  0  0  0  0  0  0  0  0  0  0  0
   -4.6107   -1.9526    1.4221 C   0  0  0  0  0  0  0  0  0  0  0  0
   -3.2490   -1.8158    1.1460 C   0  0  0  0  0  0  0  0  0  0  0  0
    0.8440    0.3321   -0.0049 N   0  0  0  0  0  0  0  0  0  0  0  0
    1.5621   -0.5649   -0.8401 C   0  0  0  0  0  0  0  0  0  0  0  0
    2.6657   -1.2758   -0.3438 C   0  0  0  0  0  0  0  0  0  0  0  0
    3.3724   -2.1762   -1.1520 C   0  0  0  0  0  0  0  0  0  0  0  0
    4.5607   -2.9117   -0.6074 C   0  0  0  0  0  0  0  0  0  0  0  0
    2.9853   -2.3424   -2.4871 C   0  0  0  0  0  0  0  0  0  0  0  0
    1.8979   -1.6336   -3.0117 C   0  0  0  0  0  0  0  0  0  0  0  0
    1.4641   -1.8469   -4.4316 C   0  0  0  0  0  0  0  0  0  0  0  0
    1.1859   -0.7611   -2.1780 C   0  0  0  0  0  0  0  0  0  0  0  0
    3.3779    1.4457   -0.1485 H   0  0  0  0  0  0  0  0  0  0  0  0
    2.9802    2.8766    0.9236 H   0  0  0  0  0  0  0  0  0  0  0  0
    1.0257    4.6287    4.3553 H   0  0  0  0  0  0  0  0  0  0  0  0
    1.0378    5.7226    2.9234 H   0  0  0  0  0  0  0  0  0  0  0  0
    2.5604    5.1260    3.6142 H   0  0  0  0  0  0  0  0  0  0  0  0
   -2.0503    2.4703    2.1244 H   0  0  0  0  0  0  0  0  0  0  0  0
   -1.0095   -1.5886   -0.6554 H   0  0  0  0  0  0  0  0  0  0  0  0
   -3.4194    0.7048   -1.1388 H   0  0  0  0  0  0  0  0  0  0  0  0
   -5.8212    0.4657   -0.6530 H   0  0  0  0  0  0  0  0  0  0  0  0
   -7.3613   -0.6403    0.5800 H   0  0  0  0  0  0  0  0  0  0  0  0
   -4.9514   -2.6925    2.1401 H   0  0  0  0  0  0  0  0  0  0  0  0
   -2.5343   -2.4561    1.6566 H   0  0  0  0  0  0  0  0  0  0  0  0
    2.9611   -1.1380    0.6943 H   0  0  0  0  0  0  0  0  0  0  0  0
    4.6814   -3.8809   -1.1027 H   0  0  0  0  0  0  0  0  0  0  0  0
    5.4687   -2.3204   -0.7605 H   0  0  0  0  0  0  0  0  0  0  0  0
    4.4419   -3.1077    0.4635 H   0  0  0  0  0  0  0  0  0  0  0  0
    3.5357   -3.0320   -3.1248 H   0  0  0  0  0  0  0  0  0  0  0  0
    0.7288   -2.6559   -4.4802 H   0  0  0  0  0  0  0  0  0  0  0  0
    2.3177   -2.1056   -5.0668 H   0  0  0  0  0  0  0  0  0  0  0  0
    1.0172   -0.9364   -4.8444 H   0  0  0  0  0  0  0  0  0  0  0  0
    0.3365   -0.2102   -2.5767 H   0  0  0  0  0  0  0  0  0  0  0  0
  1  2  2  0
  2  3  1  0
  3  4  1  0
  4  5  2  0
  4  6  1  0
  6  7  1  0
  3  8  2  0
  8  9  1  0
  8 10  1  0
 10 11  2  3
 11 12  1  0
 12 13  2  0
 13 14  1  0
 14 15  2  0
 15 16  1  0
 15 17  1  0
 17 18  2  0
 10 19  1  0
 19 20  1  0
 20 21  2  0
 21 22  1  0
 22 23  1  0
 22 24  2  0
 24 25  1  0
 25 26  1  0
 25 27  2  0
 19  2  1  0
 27 20  1  0
 18 12  1  0
  1 28  1  0
  1 29  1  0
  7 30  1  0
  7 31  1  0
  7 32  1  0
  9 33  1  0
 11 34  1  0
 13 35  1  0
 14 36  1  0
 16 37  1  0
 17 38  1  0
 18 39  1  0
 21 40  1  0
 23 41  1  0
 23 42  1  0
 23 43  1  0
 24 44  1  0
 26 45  1  0
 26 46  1  0
 26 47  1  0
 27 48  1  0
M  END
$$$$
