
     RDKit          3D

 43 46  0  0  0  0  0  0  0  0999 V2000
    4.8820    2.4366    0.4253 C   0  0  0  0  0  0  0  0  0  0  0  0
    3.9342    1.4356    0.7976 O   0  0  0  0  0  0  0  0  0  0  0  0
    2.6586    1.8863    0.8693 C   0  0  0  0  0  0  0  0  0  0  0  0
    2.2790    3.0257    0.6484 O   0  0  0  0  0  0  0  0  0  0  0  0
    1.7350    0.7780    1.1749 C   0  0  0  0  0  0  0  0  0  0  0  0
    1.9069   -0.0953    2.1880 C   0  0  0  0  0  0  0  0  0  0  0  0
    3.0407   -0.0392    3.1793 C   0  0  0  0  0  0  0  0  0  0  0  0
    1.0021   -1.1081    2.4385 N   0  0  0  0  0  0  0  0  0  0  0  0
   -0.1073   -1.0859    1.7827 C   0  0  0  0  0  0  0  0  0  0  0  0
   -1.3987   -2.2045    2.0856 S   0  0  0  0  0  0  0  0  0  0  0  0
   -2.4737   -1.3798    0.9916 C   0  0  0  0  0  0  0  0  0  0  0  0
   -3.7387   -1.7947    0.8190 C   0  0  0  0  0  0  0  0  0  0  0  0
   -4.7811   -1.2721   -0.0006 C   0  0  0  0  0  0  0  0  0  0  0  0
   -5.8090   -2.0337   -0.6190 C   0  0  0  0  0  0  0  0  0  0  0  0
   -6.6220   -1.1331   -1.2666 C   0  0  0  0  0  0  0  0  0  0  0  0
   -6.1755    0.1328   -1.0701 O   0  0  0  0  0  0  0  0  0  0  0  0
   -5.0601    0.0431   -0.2965 C   0  0  0  0  0  0  0  0  0  0  0  0
   -1.7353   -0.2544    0.3359 C   0  0  0  0  0  0  0  0  0  0  0  0
   -2.2053    0.5095   -0.4925 O   0  0  0  0  0  0  0  0  0  0  0  0
   -0.4448   -0.2014    0.8098 N   0  0  0  0  0  0  0  0  0  0  0  0
    0.5468    0.7048    0.2572 C   0  0  0  0  0  0  0  0  0  0  0  0
    0.9543    0.2685   -1.1515 C   0  0  0  0  0  0  0  0  0  0  0  0
    1.5981   -0.9599   -1.3872 C   0  0  0  0  0  0  0  0  0  0  0  0
    1.9623   -1.3346   -2.6816 C   0  0  0  0  0  0  0  0  0  0  0  0
    1.6869   -0.4922   -3.7561 C   0  0  0  0  0  0  0  0  0  0  0  0
    1.0465    0.7256   -3.5391 C   0  0  0  0  0  0  0  0  0  0  0  0
    0.6821    1.1047   -2.2461 C   0  0  0  0  0  0  0  0  0  0  0  0
    5.8718    1.9725    0.3982 H   0  0  0  0  0  0  0  0  0  0  0  0
    4.6548    2.8272   -0.5716 H   0  0  0  0  0  0  0  0  0  0  0  0
    4.8976    3.2435    1.1645 H   0  0  0  0  0  0  0  0  0  0  0  0
    3.8187   -0.7579    2.9030 H   0  0  0  0  0  0  0  0  0  0  0  0
    3.4890    0.9554    3.2577 H   0  0  0  0  0  0  0  0  0  0  0  0
    2.6817   -0.2951    4.1828 H   0  0  0  0  0  0  0  0  0  0  0  0
   -4.0340   -2.6865    1.3739 H   0  0  0  0  0  0  0  0  0  0  0  0
   -5.9437   -3.1062   -0.6029 H   0  0  0  0  0  0  0  0  0  0  0  0
   -7.5136   -1.2254   -1.8708 H   0  0  0  0  0  0  0  0  0  0  0  0
   -4.6032    0.9910   -0.0470 H   0  0  0  0  0  0  0  0  0  0  0  0
    0.0634    1.6897    0.2051 H   0  0  0  0  0  0  0  0  0  0  0  0
    1.8269   -1.6366   -0.5660 H   0  0  0  0  0  0  0  0  0  0  0  0
    2.4608   -2.2855   -2.8520 H   0  0  0  0  0  0  0  0  0  0  0  0
    1.9678   -0.7859   -4.7641 H   0  0  0  0  0  0  0  0  0  0  0  0
    0.8247    1.3805   -4.3781 H   0  0  0  0  0  0  0  0  0  0  0  0
    0.1734    2.0568   -2.1016 H   0  0  0  0  0  0  0  0  0  0  0  0
  1  2  1  0
  2  3  1  0
  3  4  2  0
  3  5  1  0
  5  6  2  0
  6  7  1  0
  6  8  1  0
  8  9  2  0
  9 10  1  0
 10 11  1  0
 11 12  2  3
 12 13  1  0
 13 14  1  0
 14 15  2  0
 15 16  1  0
 16 17  1  0
 11 18  1  0
 18 19  2  0
 18 20  1  0
 20 21  1  0
 21 22  1  0
 22 23  2  0
 23 24  1  0
 24 25  2  0
 25 26  1  0
 26 27  2  0
 21  5  1  0
 27 22  1  0
 20  9  1  0
 17 13  2  0
  1 28  1  0
  1 29  1  0
  1 30  1  0
  7 31  1  0
  7 32  1  0
  7 33  1  0
 12 34  1  0
 14 35  1  0
 15 36  1  0
 17 37  1  0
 21 38  1  0
 23 39  1  0
 24 40  1  0
 25 41  1  0
 26 42  1  0
 27 43  1  0
M  END
$$$$
