
     RDKit          3D

 30 31  0  0  0  0  0  0  0  0999 V2000
    0.6491    0.2991    1.5981 O   0  0  0  0  0  0  0  0  0  0  0  0
    0.6703   -0.1389    0.4525 C   0  0  0  0  0  0  0  0  0  0  0  0
   -0.5356   -0.1587   -0.4923 C   0  0  0  0  0  0  0  0  0  0  0  0
   -1.6827    0.4035    0.1245 O   0  0  0  0  0  0  0  0  0  0  0  0
   -2.8441    0.4593   -0.5991 C   0  0  0  0  0  0  0  0  0  0  0  0
   -2.9849   -0.0057   -1.9115 C   0  0  0  0  0  0  0  0  0  0  0  0
   -4.2162    0.0954   -2.5690 C   0  0  0  0  0  0  0  0  0  0  0  0
   -5.3110    0.6606   -1.9193 C   0  0  0  0  0  0  0  0  0  0  0  0
   -6.8194    0.7799   -2.7369 Cl  0  0  0  0  0  0  0  0  0  0  0  0
   -5.1911    1.1281   -0.6157 C   0  0  0  0  0  0  0  0  0  0  0  0
   -3.9616    1.0269    0.0401 C   0  0  0  0  0  0  0  0  0  0  0  0
   -3.8640    1.6234    1.6611 Cl  0  0  0  0  0  0  0  0  0  0  0  0
    1.8202   -0.6611   -0.1107 N   0  0  0  0  0  0  0  0  0  0  0  0
    3.0198   -0.8486    0.6946 C   0  0  0  0  0  0  0  0  0  0  0  0
    3.7338    0.4599    1.0243 C   0  0  0  0  0  0  0  0  0  0  0  0
    5.1254    0.0931    1.5079 C   0  0  0  0  0  0  0  0  0  0  0  0
    5.6861   -1.1811    0.3434 S   0  0  0  0  0  0  0  0  0  0  0  0
    4.0473   -1.6648   -0.0739 C   0  0  0  0  0  0  0  0  0  0  0  0
    3.7866   -2.5448   -0.8827 O   0  0  0  0  0  0  0  0  0  0  0  0
   -0.7248   -1.2063   -0.7559 H   0  0  0  0  0  0  0  0  0  0  0  0
   -0.2618    0.4218   -1.3815 H   0  0  0  0  0  0  0  0  0  0  0  0
   -2.1602   -0.4531   -2.4565 H   0  0  0  0  0  0  0  0  0  0  0  0
   -4.3133   -0.2697   -3.5890 H   0  0  0  0  0  0  0  0  0  0  0  0
   -6.0461    1.5687   -0.1105 H   0  0  0  0  0  0  0  0  0  0  0  0
    1.7335   -1.2492   -0.9353 H   0  0  0  0  0  0  0  0  0  0  0  0
    2.7538   -1.3965    1.6066 H   0  0  0  0  0  0  0  0  0  0  0  0
    3.1981    1.0336    1.7879 H   0  0  0  0  0  0  0  0  0  0  0  0
    3.7985    1.1026    0.1353 H   0  0  0  0  0  0  0  0  0  0  0  0
    5.0937   -0.3306    2.5166 H   0  0  0  0  0  0  0  0  0  0  0  0
    5.8004    0.9530    1.5030 H   0  0  0  0  0  0  0  0  0  0  0  0
  1  2  2  0
  2  3  1  0
  3  4  1  0
  4  5  1  0
  5  6  2  0
  6  7  1  0
  7  8  2  0
  8  9  1  0
  8 10  1  0
 10 11  2  0
 11 12  1  0
  2 13  1  0
 13 14  1  0
 14 15  1  0
 15 16  1  0
 16 17  1  0
 17 18  1  0
 18 19  2  0
 11  5  1  0
 18 14  1  0
  3 20  1  0
  3 21  1  0
  6 22  1  0
  7 23  1  0
 10 24  1  0
 13 25  1  0
 14 26  1  0
 15 27  1  0
 15 28  1  0
 16 29  1  0
 16 30  1  0
M  END
$$$$
