
     RDKit          3D

 49 52  0  0  0  0  0  0  0  0999 V2000
    6.2351   -2.0656   -1.7551 C   0  0  0  0  0  0  0  0  0  0  0  0
    5.0611   -2.5904   -0.9428 C   0  0  0  0  0  0  0  0  0  0  0  0
    4.1895   -1.4727   -0.4320 C   0  0  0  0  0  0  0  0  0  0  0  0
    3.1186   -0.9961   -1.1971 C   0  0  0  0  0  0  0  0  0  0  0  0
    2.3150    0.0535   -0.7313 C   0  0  0  0  0  0  0  0  0  0  0  0
    2.5624    0.6563    0.5075 C   0  0  0  0  0  0  0  0  0  0  0  0
    1.7625    1.7643    1.0565 C   0  0  0  0  0  0  0  0  0  0  0  0
    0.6082    2.3614    0.2810 C   0  0  0  0  0  0  0  0  0  0  0  0
   -0.5283    1.4492    0.0888 N   0  0  0  0  0  0  0  0  0  0  0  0
   -1.1765    1.1031    1.3650 C   0  0  0  0  0  0  0  0  0  0  0  0
   -2.4806    0.3738    1.1995 C   0  0  0  0  0  0  0  0  0  0  0  0
   -3.1467    0.3051    0.0325 C   0  0  0  0  0  0  0  0  0  0  0  0
   -4.4109   -0.4438   -0.0764 C   0  0  0  0  0  0  0  0  0  0  0  0
   -5.5724    0.1677   -0.5655 C   0  0  0  0  0  0  0  0  0  0  0  0
   -6.7658   -0.5520   -0.6717 C   0  0  0  0  0  0  0  0  0  0  0  0
   -6.8099   -1.8918   -0.2918 C   0  0  0  0  0  0  0  0  0  0  0  0
   -5.6622   -2.5130    0.1951 C   0  0  0  0  0  0  0  0  0  0  0  0
   -4.4698   -1.7929    0.3022 C   0  0  0  0  0  0  0  0  0  0  0  0
   -2.6194    1.0203   -1.1856 C   0  0  0  0  0  0  0  0  0  0  0  0
   -1.5109    2.0306   -0.8389 C   0  0  0  0  0  0  0  0  0  0  0  0
    2.1145    2.2609    2.2530 C   0  0  0  0  0  0  0  0  0  0  0  0
    3.2349    1.7473    3.0526 C   0  0  0  0  0  0  0  0  0  0  0  0
    3.4939    2.2370    4.1462 O   0  0  0  0  0  0  0  0  0  0  0  0
    3.9670    0.7081    2.5122 O   0  0  0  0  0  0  0  0  0  0  0  0
    3.6371    0.1689    1.2538 C   0  0  0  0  0  0  0  0  0  0  0  0
    4.4488   -0.8756    0.8040 C   0  0  0  0  0  0  0  0  0  0  0  0
    5.8928   -1.4975   -2.6268 H   0  0  0  0  0  0  0  0  0  0  0  0
    6.8499   -2.8976   -2.1127 H   0  0  0  0  0  0  0  0  0  0  0  0
    6.8715   -1.4072   -1.1540 H   0  0  0  0  0  0  0  0  0  0  0  0
    5.4309   -3.1852   -0.0987 H   0  0  0  0  0  0  0  0  0  0  0  0
    4.4622   -3.2745   -1.5563 H   0  0  0  0  0  0  0  0  0  0  0  0
    2.8955   -1.4412   -2.1649 H   0  0  0  0  0  0  0  0  0  0  0  0
    1.4875    0.3764   -1.3580 H   0  0  0  0  0  0  0  0  0  0  0  0
    1.0006    2.6731   -0.6970 H   0  0  0  0  0  0  0  0  0  0  0  0
    0.2635    3.2885    0.7607 H   0  0  0  0  0  0  0  0  0  0  0  0
   -0.5096    0.4510    1.9409 H   0  0  0  0  0  0  0  0  0  0  0  0
   -1.3672    1.9997    1.9689 H   0  0  0  0  0  0  0  0  0  0  0  0
   -2.8748   -0.1057    2.0919 H   0  0  0  0  0  0  0  0  0  0  0  0
   -5.5661    1.2156   -0.8537 H   0  0  0  0  0  0  0  0  0  0  0  0
   -7.6611   -0.0644   -1.0482 H   0  0  0  0  0  0  0  0  0  0  0  0
   -7.7379   -2.4512   -0.3748 H   0  0  0  0  0  0  0  0  0  0  0  0
   -5.6918   -3.5586    0.4897 H   0  0  0  0  0  0  0  0  0  0  0  0
   -3.5801   -2.2969    0.6735 H   0  0  0  0  0  0  0  0  0  0  0  0
   -3.4154    1.5605   -1.7096 H   0  0  0  0  0  0  0  0  0  0  0  0
   -2.2228    0.2712   -1.8832 H   0  0  0  0  0  0  0  0  0  0  0  0
   -1.0217    2.3228   -1.7764 H   0  0  0  0  0  0  0  0  0  0  0  0
   -1.9558    2.9398   -0.4114 H   0  0  0  0  0  0  0  0  0  0  0  0
    1.5783    3.0837    2.7123 H   0  0  0  0  0  0  0  0  0  0  0  0
    5.2764   -1.2161    1.4212 H   0  0  0  0  0  0  0  0  0  0  0  0
  1  2  1  0
  2  3  1  0
  3  4  2  0
  4  5  1  0
  5  6  2  0
  6  7  1  0
  7  8  1  0
  8  9  1  0
  9 10  1  0
 10 11  1  0
 11 12  2  0
 12 13  1  0
 13 14  2  0
 14 15  1  0
 15 16  2  0
 16 17  1  0
 17 18  2  0
 12 19  1  0
 19 20  1  0
  7 21  2  0
 21 22  1  0
 22 23  2  0
 22 24  1  0
 24 25  1  0
 25 26  2  0
 26  3  1  0
 25  6  1  0
 20  9  1  0
 18 13  1  0
  1 27  1  0
  1 28  1  0
  1 29  1  0
  2 30  1  0
  2 31  1  0
  4 32  1  0
  5 33  1  0
  8 34  1  0
  8 35  1  0
 10 36  1  0
 10 37  1  0
 11 38  1  0
 14 39  1  0
 15 40  1  0
 16 41  1  0
 17 42  1  0
 18 43  1  0
 19 44  1  0
 19 45  1  0
 20 46  1  0
 20 47  1  0
 21 48  1  0
 26 49  1  0
M  END
$$$$
