
     RDKit          3D

 60 65  0  0  0  0  0  0  0  0999 V2000
    0.8521    2.1976   -4.0099 O   0  0  0  0  0  0  0  0  0  0  0  0
    0.9581    1.3026   -3.1742 C   0  0  0  0  0  0  0  0  0  0  0  0
   -0.2707    0.8578   -2.3839 C   0  0  0  0  0  0  0  0  0  0  0  0
   -0.1419   -0.8592   -1.7840 S   0  0  0  0  0  0  0  0  0  0  0  0
   -1.2134   -0.7379   -0.3934 C   0  0  0  0  0  0  0  0  0  0  0  0
   -2.3782   -0.2365   -0.6320 N   0  0  0  0  0  0  0  0  0  0  0  0
   -3.2354   -0.0228    0.4409 C   0  0  0  0  0  0  0  0  0  0  0  0
   -4.4456    0.4678    0.0988 N   0  0  0  0  0  0  0  0  0  0  0  0
   -5.3133    0.7365    1.1015 C   0  0  0  0  0  0  0  0  0  0  0  0
   -5.0131    0.5385    2.4510 C   0  0  0  0  0  0  0  0  0  0  0  0
   -3.7638    0.0189    2.7781 C   0  0  0  0  0  0  0  0  0  0  0  0
   -2.8640   -0.2589    1.7487 C   0  0  0  0  0  0  0  0  0  0  0  0
   -1.5319   -0.8191    1.9972 C   0  0  0  0  0  0  0  0  0  0  0  0
   -1.2193   -1.0292    3.1687 O   0  0  0  0  0  0  0  0  0  0  0  0
   -0.7463   -1.0974    0.8712 N   0  0  0  0  0  0  0  0  0  0  0  0
    0.5123   -1.7535    1.0899 C   0  0  0  0  0  0  0  0  0  0  0  0
    0.8472   -2.9261    0.3949 C   0  0  0  0  0  0  0  0  0  0  0  0
    2.0682   -3.5673    0.6229 C   0  0  0  0  0  0  0  0  0  0  0  0
    2.9642   -3.0515    1.5564 C   0  0  0  0  0  0  0  0  0  0  0  0
    2.6390   -1.8987    2.2658 C   0  0  0  0  0  0  0  0  0  0  0  0
    1.4176   -1.2584    2.0405 C   0  0  0  0  0  0  0  0  0  0  0  0
   -6.0651    0.8407    3.4768 C   0  0  0  0  0  0  0  0  0  0  0  0
   -6.7939    2.1506    3.1597 C   0  0  0  0  0  0  0  0  0  0  0  0
   -7.0997    2.3851    1.6709 C   0  0  0  0  0  0  0  0  0  0  0  0
   -6.6883    1.2395    0.7473 C   0  0  0  0  0  0  0  0  0  0  0  0
    2.1340    0.6800   -2.7926 N   0  0  0  0  0  0  0  0  0  0  0  0
    3.4584    0.9050   -3.2473 C   0  0  0  0  0  0  0  0  0  0  0  0
    3.7447    1.9168   -4.1723 C   0  0  0  0  0  0  0  0  0  0  0  0
    5.0465    2.1414   -4.6095 C   0  0  0  0  0  0  0  0  0  0  0  0
    6.0876    1.3600   -4.1235 C   0  0  0  0  0  0  0  0  0  0  0  0
    5.8455    0.3397   -3.1953 C   0  0  0  0  0  0  0  0  0  0  0  0
    6.9239   -0.4300   -2.7246 C   0  0  0  0  0  0  0  0  0  0  0  0
    6.7303   -1.4566   -1.8045 C   0  0  0  0  0  0  0  0  0  0  0  0
    5.4511   -1.7291   -1.3463 C   0  0  0  0  0  0  0  0  0  0  0  0
    4.3674   -0.9710   -1.8031 C   0  0  0  0  0  0  0  0  0  0  0  0
    4.5232    0.0881   -2.7390 C   0  0  0  0  0  0  0  0  0  0  0  0
   -0.3835    1.5509   -1.5436 H   0  0  0  0  0  0  0  0  0  0  0  0
   -1.1481    0.9288   -3.0345 H   0  0  0  0  0  0  0  0  0  0  0  0
   -3.4916   -0.1699    3.8134 H   0  0  0  0  0  0  0  0  0  0  0  0
    0.1504   -3.3785   -0.3078 H   0  0  0  0  0  0  0  0  0  0  0  0
    2.3115   -4.4786    0.0817 H   0  0  0  0  0  0  0  0  0  0  0  0
    3.9096   -3.5556    1.7424 H   0  0  0  0  0  0  0  0  0  0  0  0
    3.3306   -1.5002    3.0049 H   0  0  0  0  0  0  0  0  0  0  0  0
    1.1882   -0.3630    2.6141 H   0  0  0  0  0  0  0  0  0  0  0  0
   -5.6244    0.9085    4.4787 H   0  0  0  0  0  0  0  0  0  0  0  0
   -6.7813    0.0097    3.4951 H   0  0  0  0  0  0  0  0  0  0  0  0
   -7.7225    2.1967    3.7414 H   0  0  0  0  0  0  0  0  0  0  0  0
   -6.1804    2.9897    3.5151 H   0  0  0  0  0  0  0  0  0  0  0  0
   -8.1675    2.5961    1.5393 H   0  0  0  0  0  0  0  0  0  0  0  0
   -6.5749    3.2970    1.3569 H   0  0  0  0  0  0  0  0  0  0  0  0
   -7.3968    0.4083    0.8406 H   0  0  0  0  0  0  0  0  0  0  0  0
   -6.7161    1.5758   -0.2953 H   0  0  0  0  0  0  0  0  0  0  0  0
    2.0040   -0.0781   -2.1372 H   0  0  0  0  0  0  0  0  0  0  0  0
    2.9702    2.5591   -4.5781 H   0  0  0  0  0  0  0  0  0  0  0  0
    5.2455    2.9308   -5.3302 H   0  0  0  0  0  0  0  0  0  0  0  0
    7.0970    1.5572   -4.4791 H   0  0  0  0  0  0  0  0  0  0  0  0
    7.9346   -0.2329   -3.0773 H   0  0  0  0  0  0  0  0  0  0  0  0
    7.5760   -2.0424   -1.4535 H   0  0  0  0  0  0  0  0  0  0  0  0
    5.2882   -2.5327   -0.6340 H   0  0  0  0  0  0  0  0  0  0  0  0
    3.3934   -1.2402   -1.4089 H   0  0  0  0  0  0  0  0  0  0  0  0
  1  2  2  0
  2  3  1  0
  3  4  1  0
  4  5  1  0
  5  6  2  0
  6  7  1  0
  7  8  2  0
  8  9  1  0
  9 10  2  0
 10 11  1  0
 11 12  2  0
 12 13  1  0
 13 14  2  0
 13 15  1  0
 15 16  1  0
 16 17  2  0
 17 18  1  0
 18 19  2  0
 19 20  1  0
 20 21  2  0
 10 22  1  0
 22 23  1  0
 23 24  1  0
 24 25  1  0
  2 26  1  0
 26 27  1  0
 27 28  2  0
 28 29  1  0
 29 30  2  0
 30 31  1  0
 31 32  2  0
 32 33  1  0
 33 34  2  0
 34 35  1  0
 35 36  2  0
 15  5  1  0
 21 16  1  0
 36 27  1  0
 12  7  1  0
 36 31  1  0
 25  9  1  0
  3 37  1  0
  3 38  1  0
 11 39  1  0
 17 40  1  0
 18 41  1  0
 19 42  1  0
 20 43  1  0
 21 44  1  0
 22 45  1  0
 22 46  1  0
 23 47  1  0
 23 48  1  0
 24 49  1  0
 24 50  1  0
 25 51  1  0
 25 52  1  0
 26 53  1  0
 28 54  1  0
 29 55  1  0
 30 56  1  0
 32 57  1  0
 33 58  1  0
 34 59  1  0
 35 60  1  0
M  END
$$$$
