
     RDKit          3D

 40 41  0  0  0  0  0  0  0  0999 V2000
    1.3850    3.6700    1.6420 C   0  0  0  0  0  0  0  0  0  0  0  0
    0.3740    2.8411    0.8666 C   0  0  0  0  0  0  0  0  0  0  0  0
    0.7444    1.3538    0.7600 C   0  0  0  0  0  0  0  0  0  0  0  0
    1.9930    1.1229   -0.1099 C   0  0  0  0  0  0  0  0  0  0  0  0
    2.4256   -0.3277   -0.1125 C   0  0  0  0  0  0  0  0  0  0  0  0
    1.9929   -1.1965   -1.1239 C   0  0  0  0  0  0  0  0  0  0  0  0
    2.3731   -2.5390   -1.1138 C   0  0  0  0  0  0  0  0  0  0  0  0
    3.1866   -3.0260   -0.0925 C   0  0  0  0  0  0  0  0  0  0  0  0
    3.6186   -2.1718    0.9205 C   0  0  0  0  0  0  0  0  0  0  0  0
    3.2390   -0.8287    0.9128 C   0  0  0  0  0  0  0  0  0  0  0  0
   -0.3565    0.6719    0.1153 O   0  0  0  0  0  0  0  0  0  0  0  0
   -1.3255    0.1945    0.9317 C   0  0  0  0  0  0  0  0  0  0  0  0
   -1.3890    0.3057    2.1441 O   0  0  0  0  0  0  0  0  0  0  0  0
   -2.2571   -0.6257    0.1339 C   0  0  0  0  0  0  0  0  0  0  0  0
   -2.5762   -1.8962    0.6366 C   0  0  0  0  0  0  0  0  0  0  0  0
   -3.3877   -2.7602   -0.1011 C   0  0  0  0  0  0  0  0  0  0  0  0
   -3.8826   -2.3631   -1.3427 C   0  0  0  0  0  0  0  0  0  0  0  0
   -3.5828   -1.0937   -1.8410 C   0  0  0  0  0  0  0  0  0  0  0  0
   -2.7847   -0.2136   -1.0952 C   0  0  0  0  0  0  0  0  0  0  0  0
   -2.5687    1.1318   -1.6547 C   0  0  0  0  0  0  0  0  0  0  0  0
   -2.3648    1.3934   -2.8245 O   0  0  0  0  0  0  0  0  0  0  0  0
   -2.7379    2.0870   -0.7257 O   0  0  0  0  0  0  0  0  0  0  0  0
    1.5620    3.2451    2.6350 H   0  0  0  0  0  0  0  0  0  0  0  0
    2.3418    3.7360    1.1167 H   0  0  0  0  0  0  0  0  0  0  0  0
    1.0109    4.6906    1.7728 H   0  0  0  0  0  0  0  0  0  0  0  0
   -0.6027    2.9350    1.3574 H   0  0  0  0  0  0  0  0  0  0  0  0
    0.2380    3.2643   -0.1365 H   0  0  0  0  0  0  0  0  0  0  0  0
    0.9160    0.9368    1.7611 H   0  0  0  0  0  0  0  0  0  0  0  0
    1.7956    1.4359   -1.1435 H   0  0  0  0  0  0  0  0  0  0  0  0
    2.8366    1.7270    0.2419 H   0  0  0  0  0  0  0  0  0  0  0  0
    1.3509   -0.8315   -1.9230 H   0  0  0  0  0  0  0  0  0  0  0  0
    2.0329   -3.2047   -1.9025 H   0  0  0  0  0  0  0  0  0  0  0  0
    3.4824   -4.0716   -0.0848 H   0  0  0  0  0  0  0  0  0  0  0  0
    4.2504   -2.5522    1.7189 H   0  0  0  0  0  0  0  0  0  0  0  0
    3.5803   -0.1765    1.7134 H   0  0  0  0  0  0  0  0  0  0  0  0
   -2.1774   -2.2196    1.5968 H   0  0  0  0  0  0  0  0  0  0  0  0
   -3.6257   -3.7471    0.2899 H   0  0  0  0  0  0  0  0  0  0  0  0
   -4.5083   -3.0399   -1.9205 H   0  0  0  0  0  0  0  0  0  0  0  0
   -3.9838   -0.7857   -2.8052 H   0  0  0  0  0  0  0  0  0  0  0  0
   -2.6184    2.9285   -1.2137 H   0  0  0  0  0  0  0  0  0  0  0  0
  1  2  1  0
  2  3  1  0
  3  4  1  0
  4  5  1  0
  5  6  2  0
  6  7  1  0
  7  8  2  0
  8  9  1  0
  9 10  2  0
  3 11  1  0
 11 12  1  0
 12 13  2  0
 12 14  1  0
 14 15  2  0
 15 16  1  0
 16 17  2  0
 17 18  1  0
 18 19  2  0
 19 20  1  0
 20 21  2  0
 20 22  1  0
 10  5  1  0
 19 14  1  0
  1 23  1  0
  1 24  1  0
  1 25  1  0
  2 26  1  0
  2 27  1  0
  3 28  1  0
  4 29  1  0
  4 30  1  0
  6 31  1  0
  7 32  1  0
  8 33  1  0
  9 34  1  0
 10 35  1  0
 15 36  1  0
 16 37  1  0
 17 38  1  0
 18 39  1  0
 22 40  1  0
M  END
$$$$
