
     RDKit          3D

 63 66  0  0  0  0  0  0  0  0999 V2000
    8.0520    0.3230    1.4263 C   0  0  0  0  0  0  0  0  0  0  0  0
    6.6105    0.0700    0.9737 C   0  0  0  0  0  0  0  0  0  0  0  0
    5.6965    1.2344    1.4065 C   0  0  0  0  0  0  0  0  0  0  0  0
    4.2981    0.9974    1.0889 N   0  0  0  0  0  0  0  0  0  0  0  0
    3.5213    0.1735    1.8778 C   0  0  0  0  0  0  0  0  0  0  0  0
    3.9090   -0.3133    2.9338 O   0  0  0  0  0  0  0  0  0  0  0  0
    2.1654   -0.1501    1.3539 C   0  0  0  0  0  0  0  0  0  0  0  0
    1.4688    0.7212    0.5086 C   0  0  0  0  0  0  0  0  0  0  0  0
    0.1937    0.3810    0.0382 C   0  0  0  0  0  0  0  0  0  0  0  0
   -0.3959   -0.8269    0.4113 C   0  0  0  0  0  0  0  0  0  0  0  0
   -1.6267   -1.2821    0.0333 O   0  0  0  0  0  0  0  0  0  0  0  0
   -2.4209   -0.5054   -0.8743 C   0  0  0  0  0  0  0  0  0  0  0  0
   -3.3716   -1.4739   -1.5872 C   0  0  0  0  0  0  0  0  0  0  0  0
   -4.4433   -2.0207   -0.6404 C   0  0  0  0  0  0  0  0  0  0  0  0
   -5.2088   -0.9821    0.0620 N   0  0  0  0  0  0  0  0  0  0  0  0
   -6.1449   -0.2814   -0.8419 C   0  0  0  0  0  0  0  0  0  0  0  0
   -7.1246    0.6389   -0.1334 C   0  0  0  0  0  0  0  0  0  0  0  0
   -8.0362    0.1199    0.7855 C   0  0  0  0  0  0  0  0  0  0  0  0
   -8.9179    0.9873    1.4231 C   0  0  0  0  0  0  0  0  0  0  0  0
   -8.8671    2.3442    1.1305 C   0  0  0  0  0  0  0  0  0  0  0  0
   -7.9314    2.7797    0.2072 C   0  0  0  0  0  0  0  0  0  0  0  0
   -7.0636    1.9635   -0.4301 N   0  0  0  0  0  0  0  0  0  0  0  0
   -4.2965   -0.0703    0.7716 C   0  0  0  0  0  0  0  0  0  0  0  0
   -3.2217    0.5589   -0.1189 C   0  0  0  0  0  0  0  0  0  0  0  0
    0.2967   -1.6868    1.2686 C   0  0  0  0  0  0  0  0  0  0  0  0
    1.5679   -1.3518    1.7431 C   0  0  0  0  0  0  0  0  0  0  0  0
    6.5275   -0.1785   -0.5269 C   0  0  0  0  0  0  0  0  0  0  0  0
    5.9252   -1.3550   -1.0005 C   0  0  0  0  0  0  0  0  0  0  0  0
    5.8124   -1.5961   -2.3707 C   0  0  0  0  0  0  0  0  0  0  0  0
    6.2978   -0.6643   -3.2849 C   0  0  0  0  0  0  0  0  0  0  0  0
    6.8953    0.5090   -2.8306 C   0  0  0  0  0  0  0  0  0  0  0  0
    7.0089    0.7524   -1.4604 C   0  0  0  0  0  0  0  0  0  0  0  0
    8.7110   -0.4938    1.1114 H   0  0  0  0  0  0  0  0  0  0  0  0
    8.1041    0.3934    2.5182 H   0  0  0  0  0  0  0  0  0  0  0  0
    8.4543    1.2554    1.0158 H   0  0  0  0  0  0  0  0  0  0  0  0
    6.2747   -0.8387    1.4907 H   0  0  0  0  0  0  0  0  0  0  0  0
    5.7830    1.3948    2.4873 H   0  0  0  0  0  0  0  0  0  0  0  0
    5.9780    2.1679    0.9081 H   0  0  0  0  0  0  0  0  0  0  0  0
    4.0354    1.1109    0.1182 H   0  0  0  0  0  0  0  0  0  0  0  0
    1.8899    1.6826    0.2282 H   0  0  0  0  0  0  0  0  0  0  0  0
   -0.3129    1.0928   -0.6044 H   0  0  0  0  0  0  0  0  0  0  0  0
   -1.7905   -0.0486   -1.6449 H   0  0  0  0  0  0  0  0  0  0  0  0
   -3.8456   -0.9673   -2.4362 H   0  0  0  0  0  0  0  0  0  0  0  0
   -2.8038   -2.3202   -1.9936 H   0  0  0  0  0  0  0  0  0  0  0  0
   -5.1210   -2.6799   -1.1960 H   0  0  0  0  0  0  0  0  0  0  0  0
   -3.9684   -2.6660    0.1103 H   0  0  0  0  0  0  0  0  0  0  0  0
   -6.7529   -1.0210   -1.3803 H   0  0  0  0  0  0  0  0  0  0  0  0
   -5.6135    0.2916   -1.6107 H   0  0  0  0  0  0  0  0  0  0  0  0
   -8.0475   -0.9426    1.0078 H   0  0  0  0  0  0  0  0  0  0  0  0
   -9.6335    0.6059    2.1454 H   0  0  0  0  0  0  0  0  0  0  0  0
   -9.5378    3.0464    1.6123 H   0  0  0  0  0  0  0  0  0  0  0  0
   -7.8517    3.8312   -0.0522 H   0  0  0  0  0  0  0  0  0  0  0  0
   -4.8542    0.7197    1.2866 H   0  0  0  0  0  0  0  0  0  0  0  0
   -3.8075   -0.6348    1.5769 H   0  0  0  0  0  0  0  0  0  0  0  0
   -3.6829    1.2473   -0.8365 H   0  0  0  0  0  0  0  0  0  0  0  0
   -2.5620    1.1604    0.5165 H   0  0  0  0  0  0  0  0  0  0  0  0
   -0.1610   -2.6254    1.5725 H   0  0  0  0  0  0  0  0  0  0  0  0
    2.0913   -2.0293    2.4148 H   0  0  0  0  0  0  0  0  0  0  0  0
    5.5363   -2.0933   -0.3016 H   0  0  0  0  0  0  0  0  0  0  0  0
    5.3476   -2.5128   -2.7249 H   0  0  0  0  0  0  0  0  0  0  0  0
    6.2126   -0.8544   -4.3514 H   0  0  0  0  0  0  0  0  0  0  0  0
    7.2757    1.2351   -3.5445 H   0  0  0  0  0  0  0  0  0  0  0  0
    7.4767    1.6774   -1.1319 H   0  0  0  0  0  0  0  0  0  0  0  0
  1  2  1  0
  2  3  1  0
  3  4  1  0
  4  5  1  0
  5  6  2  0
  5  7  1  0
  7  8  2  0
  8  9  1  0
  9 10  2  0
 10 11  1  0
 11 12  1  0
 12 13  1  0
 13 14  1  0
 14 15  1  0
 15 16  1  0
 16 17  1  0
 17 18  2  0
 18 19  1  0
 19 20  2  0
 20 21  1  0
 21 22  2  0
 15 23  1  0
 23 24  1  0
 10 25  1  0
 25 26  2  0
  2 27  1  0
 27 28  2  0
 28 29  1  0
 29 30  2  0
 30 31  1  0
 31 32  2  0
 26  7  1  0
 32 27  1  0
 24 12  1  0
 22 17  1  0
  1 33  1  0
  1 34  1  0
  1 35  1  0
  2 36  1  0
  3 37  1  0
  3 38  1  0
  4 39  1  0
  8 40  1  0
  9 41  1  0
 12 42  1  0
 13 43  1  0
 13 44  1  0
 14 45  1  0
 14 46  1  0
 16 47  1  0
 16 48  1  0
 18 49  1  0
 19 50  1  0
 20 51  1  0
 21 52  1  0
 23 53  1  0
 23 54  1  0
 24 55  1  0
 24 56  1  0
 25 57  1  0
 26 58  1  0
 28 59  1  0
 29 60  1  0
 30 61  1  0
 31 62  1  0
 32 63  1  0
M  END
$$$$
