
     RDKit          3D

 38 41  0  0  0  0  0  0  0  0999 V2000
   -5.1845    2.4762    0.5441 C   0  0  0  0  0  0  0  0  0  0  0  0
   -4.0377    1.5213    0.3728 C   0  0  0  0  0  0  0  0  0  0  0  0
   -4.2972    0.1642    0.2140 C   0  0  0  0  0  0  0  0  0  0  0  0
   -3.2376   -0.7415    0.0523 C   0  0  0  0  0  0  0  0  0  0  0  0
   -3.5279   -2.2062   -0.1202 C   0  0  0  0  0  0  0  0  0  0  0  0
   -1.9213   -0.2062    0.0600 C   0  0  0  0  0  0  0  0  0  0  0  0
   -1.8003    1.1657    0.2256 C   0  0  0  0  0  0  0  0  0  0  0  0
   -2.8011    2.0540    0.3837 N   0  0  0  0  0  0  0  0  0  0  0  0
   -0.1903    1.7018    0.2168 S   0  0  0  0  0  0  0  0  0  0  0  0
    0.4268    0.1096   -0.0093 C   0  0  0  0  0  0  0  0  0  0  0  0
    1.7671   -0.3247   -0.1284 C   0  0  0  0  0  0  0  0  0  0  0  0
    2.8696    0.6409   -0.0646 C   0  0  0  0  0  0  0  0  0  0  0  0
    3.4182    1.0216    1.1699 C   0  0  0  0  0  0  0  0  0  0  0  0
    4.4707    1.9374    1.2291 C   0  0  0  0  0  0  0  0  0  0  0  0
    4.9875    2.4830    0.0561 C   0  0  0  0  0  0  0  0  0  0  0  0
    4.4529    2.1153   -1.1767 C   0  0  0  0  0  0  0  0  0  0  0  0
    3.4002    1.2000   -1.2375 C   0  0  0  0  0  0  0  0  0  0  0  0
    1.9672   -1.7058   -0.3110 C   0  0  0  0  0  0  0  0  0  0  0  0
    3.2911   -2.2416   -0.4404 C   0  0  0  0  0  0  0  0  0  0  0  0
    4.3574   -2.6951   -0.5185 N   0  0  0  0  0  0  0  0  0  0  0  0
    0.8668   -2.5599   -0.3542 C   0  0  0  0  0  0  0  0  0  0  0  0
    0.9963   -3.9323   -0.5742 N   0  0  0  0  0  0  0  0  0  0  0  0
   -0.4014   -2.1453   -0.2477 N   0  0  0  0  0  0  0  0  0  0  0  0
   -0.6187   -0.8124   -0.0740 C   0  0  0  0  0  0  0  0  0  0  0  0
   -4.8235    3.5036    0.6572 H   0  0  0  0  0  0  0  0  0  0  0  0
   -5.7611    2.2176    1.4377 H   0  0  0  0  0  0  0  0  0  0  0  0
   -5.8402    2.4401   -0.3314 H   0  0  0  0  0  0  0  0  0  0  0  0
   -5.3249   -0.1904    0.2152 H   0  0  0  0  0  0  0  0  0  0  0  0
   -3.1405   -2.5557   -1.0823 H   0  0  0  0  0  0  0  0  0  0  0  0
   -3.0624   -2.7796    0.6876 H   0  0  0  0  0  0  0  0  0  0  0  0
   -4.6033   -2.4104   -0.0986 H   0  0  0  0  0  0  0  0  0  0  0  0
    3.0281    0.6083    2.0977 H   0  0  0  0  0  0  0  0  0  0  0  0
    4.8878    2.2244    2.1910 H   0  0  0  0  0  0  0  0  0  0  0  0
    5.8078    3.1947    0.1025 H   0  0  0  0  0  0  0  0  0  0  0  0
    4.8564    2.5405   -2.0922 H   0  0  0  0  0  0  0  0  0  0  0  0
    2.9960    0.9273   -2.2104 H   0  0  0  0  0  0  0  0  0  0  0  0
    0.0709   -4.3522   -0.5240 H   0  0  0  0  0  0  0  0  0  0  0  0
    1.6552   -4.3884    0.0490 H   0  0  0  0  0  0  0  0  0  0  0  0
  1  2  1  0
  2  3  2  0
  3  4  1  0
  4  5  1  0
  4  6  2  0
  6  7  1  0
  7  8  2  0
  7  9  1  0
  9 10  1  0
 10 11  2  0
 11 12  1  0
 12 13  2  0
 13 14  1  0
 14 15  2  0
 15 16  1  0
 16 17  2  0
 11 18  1  0
 18 19  1  0
 19 20  3  0
 18 21  2  0
 21 22  1  0
 21 23  1  0
 23 24  2  0
  8  2  1  0
 24 10  1  0
 24  6  1  0
 17 12  1  0
  1 25  1  0
  1 26  1  0
  1 27  1  0
  3 28  1  0
  5 29  1  0
  5 30  1  0
  5 31  1  0
 13 32  1  0
 14 33  1  0
 15 34  1  0
 16 35  1  0
 17 36  1  0
 22 37  1  0
 22 38  1  0
M  END
$$$$
