
     RDKit          3D

 46 48  0  0  0  0  0  0  0  0999 V2000
    6.0755   -2.9850   -3.3321 C   0  0  0  0  0  0  0  0  0  0  0  0
    6.0805   -1.5048   -2.9997 C   0  0  0  0  0  0  0  0  0  0  0  0
    5.6635   -1.3020   -1.6407 O   0  0  0  0  0  0  0  0  0  0  0  0
    4.3266   -1.2037   -1.4355 C   0  0  0  0  0  0  0  0  0  0  0  0
    3.4670   -1.2764   -2.3035 O   0  0  0  0  0  0  0  0  0  0  0  0
    4.0117   -0.9922    0.0115 C   0  0  0  0  0  0  0  0  0  0  0  0
    5.0534   -0.9591    0.9584 C   0  0  0  0  0  0  0  0  0  0  0  0
    4.7780   -0.7668    2.3108 C   0  0  0  0  0  0  0  0  0  0  0  0
    3.4630   -0.6078    2.7295 C   0  0  0  0  0  0  0  0  0  0  0  0
    2.4182   -0.6384    1.8009 C   0  0  0  0  0  0  0  0  0  0  0  0
    2.6688   -0.8275    0.4356 C   0  0  0  0  0  0  0  0  0  0  0  0
    1.6226   -0.8633   -0.5229 N   0  0  0  0  0  0  0  0  0  0  0  0
    0.2629   -0.6857   -0.3311 C   0  0  0  0  0  0  0  0  0  0  0  0
   -0.2861   -0.4291    0.7373 O   0  0  0  0  0  0  0  0  0  0  0  0
   -0.5388   -0.8065   -1.6222 C   0  0  0  0  0  0  0  0  0  0  0  0
   -0.9982    0.8539   -2.2092 S   0  0  0  0  0  0  0  0  0  0  0  0
   -2.3645    1.1525   -1.1157 C   0  0  0  0  0  0  0  0  0  0  0  0
   -2.3814    2.2572   -0.2860 C   0  0  0  0  0  0  0  0  0  0  0  0
   -3.4827    2.4558    0.5470 C   0  0  0  0  0  0  0  0  0  0  0  0
   -4.5390    1.5515    0.5148 C   0  0  0  0  0  0  0  0  0  0  0  0
   -5.7430    1.6619    1.3519 C   0  0  0  0  0  0  0  0  0  0  0  0
   -6.2296    2.8841    1.8422 C   0  0  0  0  0  0  0  0  0  0  0  0
   -7.3769    2.9276    2.6360 C   0  0  0  0  0  0  0  0  0  0  0  0
   -8.0220    1.7393    2.9255 C   0  0  0  0  0  0  0  0  0  0  0  0
   -7.6035    0.5400    2.4786 N   0  0  0  0  0  0  0  0  0  0  0  0
   -6.4867    0.5323    1.7049 C   0  0  0  0  0  0  0  0  0  0  0  0
   -4.4870    0.4897   -0.3223 N   0  0  0  0  0  0  0  0  0  0  0  0
   -3.3991    0.2907   -1.1441 N   0  0  0  0  0  0  0  0  0  0  0  0
    6.7030   -3.5395   -2.6265 H   0  0  0  0  0  0  0  0  0  0  0  0
    6.4483   -3.1562   -4.3459 H   0  0  0  0  0  0  0  0  0  0  0  0
    5.0661   -3.4015   -3.2560 H   0  0  0  0  0  0  0  0  0  0  0  0
    7.0990   -1.1115   -3.0833 H   0  0  0  0  0  0  0  0  0  0  0  0
    5.4560   -0.9343   -3.6969 H   0  0  0  0  0  0  0  0  0  0  0  0
    6.0911   -1.0837    0.6574 H   0  0  0  0  0  0  0  0  0  0  0  0
    5.5879   -0.7433    3.0361 H   0  0  0  0  0  0  0  0  0  0  0  0
    3.2402   -0.4604    3.7841 H   0  0  0  0  0  0  0  0  0  0  0  0
    1.4106   -0.5141    2.1858 H   0  0  0  0  0  0  0  0  0  0  0  0
    1.9345   -1.0111   -1.4861 H   0  0  0  0  0  0  0  0  0  0  0  0
    0.0572   -1.2916   -2.4016 H   0  0  0  0  0  0  0  0  0  0  0  0
   -1.4104   -1.4449   -1.4477 H   0  0  0  0  0  0  0  0  0  0  0  0
   -1.5473    2.9501   -0.2628 H   0  0  0  0  0  0  0  0  0  0  0  0
   -3.4849    3.3036    1.2232 H   0  0  0  0  0  0  0  0  0  0  0  0
   -5.7355    3.8214    1.6006 H   0  0  0  0  0  0  0  0  0  0  0  0
   -7.7596    3.8690    3.0142 H   0  0  0  0  0  0  0  0  0  0  0  0
   -8.9183    1.7201    3.5386 H   0  0  0  0  0  0  0  0  0  0  0  0
   -6.1913   -0.4605    1.3689 H   0  0  0  0  0  0  0  0  0  0  0  0
  1  2  1  0
  2  3  1  0
  3  4  1  0
  4  5  2  0
  4  6  1  0
  6  7  2  0
  7  8  1  0
  8  9  2  0
  9 10  1  0
 10 11  2  0
 11 12  1  0
 12 13  1  0
 13 14  2  0
 13 15  1  0
 15 16  1  0
 16 17  1  0
 17 18  2  0
 18 19  1  0
 19 20  2  0
 20 21  1  0
 21 22  2  0
 22 23  1  0
 23 24  2  0
 24 25  1  0
 25 26  2  0
 20 27  1  0
 27 28  2  0
 11  6  1  0
 28 17  1  0
 26 21  1  0
  1 29  1  0
  1 30  1  0
  1 31  1  0
  2 32  1  0
  2 33  1  0
  7 34  1  0
  8 35  1  0
  9 36  1  0
 10 37  1  0
 12 38  1  0
 15 39  1  0
 15 40  1  0
 18 41  1  0
 19 42  1  0
 22 43  1  0
 23 44  1  0
 24 45  1  0
 26 46  1  0
M  END
$$$$
