
     RDKit          3D

 70 72  0  0  0  0  0  0  0  0999 V2000
    8.8637    0.2524    1.6168 C   0  0  0  0  0  0  0  0  0  0  0  0
    9.3919   -0.2212    0.2742 C   0  0  0  0  0  0  0  0  0  0  0  0
    8.6381    0.3352   -0.9369 C   0  0  0  0  0  0  0  0  0  0  0  0
    7.1744   -0.1065   -1.0408 C   0  0  0  0  0  0  0  0  0  0  0  0
    6.1949    0.9134   -0.4536 C   0  0  0  0  0  0  0  0  0  0  0  0
    4.7457    0.4452   -0.6137 C   0  0  0  0  0  0  0  0  0  0  0  0
    3.7655    1.4736   -0.0444 C   0  0  0  0  0  0  0  0  0  0  0  0
    2.2959    1.1043   -0.2803 C   0  0  0  0  0  0  0  0  0  0  0  0
    1.8717   -0.1714    0.4473 C   0  0  0  0  0  0  0  0  0  0  0  0
    0.3608   -0.3600    0.6298 C   0  0  0  0  0  0  0  0  0  0  0  0
   -0.4690   -0.6630   -0.6344 N   0  0  0  0  0  4  0  0  0  0  0  0
    0.2215   -1.7060   -1.5188 C   0  0  0  0  0  0  0  0  0  0  0  0
   -0.7285    0.5889   -1.4739 C   0  0  0  0  0  0  0  0  0  0  0  0
   -1.8385   -1.2860   -0.2086 C   0  0  0  0  0  0  0  0  0  0  0  0
   -2.6679   -0.3862    0.7187 C   0  0  0  0  0  0  0  0  0  0  0  0
   -4.0253   -0.9799    1.0050 C   0  0  0  0  0  0  0  0  0  0  0  0
   -5.2425   -0.5273    0.6233 C   0  0  0  0  0  0  0  0  0  0  0  0
   -6.4380   -1.1425    1.2648 C   0  0  0  0  0  0  0  0  0  0  0  0
   -6.6202   -2.5323    1.3321 C   0  0  0  0  0  0  0  0  0  0  0  0
   -7.7569   -3.0668    1.9419 C   0  0  0  0  0  0  0  0  0  0  0  0
   -8.7227   -2.2217    2.4832 C   0  0  0  0  0  0  0  0  0  0  0  0
   -8.5633   -0.8377    2.4061 C   0  0  0  0  0  0  0  0  0  0  0  0
   -7.4322   -0.2906    1.7890 C   0  0  0  0  0  0  0  0  0  0  0  0
   -7.2915    1.4970    1.6974 S   0  0  0  0  0  0  0  0  0  0  0  0
   -6.3231    1.6795    0.2018 C   0  0  0  0  0  0  0  0  0  0  0  0
   -6.4927    2.8378   -0.5686 C   0  0  0  0  0  0  0  0  0  0  0  0
   -5.7927    2.9980   -1.7668 C   0  0  0  0  0  0  0  0  0  0  0  0
   -4.9442    1.9875   -2.2064 C   0  0  0  0  0  0  0  0  0  0  0  0
   -4.0796    2.1652   -3.6821 Cl  0  0  0  0  0  0  0  0  0  0  0  0
   -4.7715    0.8274   -1.4525 C   0  0  0  0  0  0  0  0  0  0  0  0
   -5.4194    0.6839   -0.2188 C   0  0  0  0  0  0  0  0  0  0  0  0
    7.8800   -0.1758    1.8300 H   0  0  0  0  0  0  0  0  0  0  0  0
    8.7888    1.3433    1.6516 H   0  0  0  0  0  0  0  0  0  0  0  0
    9.5389   -0.0652    2.4182 H   0  0  0  0  0  0  0  0  0  0  0  0
   10.4441    0.0788    0.1895 H   0  0  0  0  0  0  0  0  0  0  0  0
    9.3778   -1.3175    0.2467 H   0  0  0  0  0  0  0  0  0  0  0  0
    8.7176    1.4288   -0.9598 H   0  0  0  0  0  0  0  0  0  0  0  0
    9.1609   -0.0290   -1.8313 H   0  0  0  0  0  0  0  0  0  0  0  0
    7.0342   -1.0880   -0.5732 H   0  0  0  0  0  0  0  0  0  0  0  0
    6.9324   -0.2303   -2.1046 H   0  0  0  0  0  0  0  0  0  0  0  0
    6.3237    1.8767   -0.9614 H   0  0  0  0  0  0  0  0  0  0  0  0
    6.4042    1.0810    0.6070 H   0  0  0  0  0  0  0  0  0  0  0  0
    4.6207   -0.5158   -0.1023 H   0  0  0  0  0  0  0  0  0  0  0  0
    4.5283    0.2802   -1.6760 H   0  0  0  0  0  0  0  0  0  0  0  0
    3.9454    1.6035    1.0299 H   0  0  0  0  0  0  0  0  0  0  0  0
    3.9528    2.4468   -0.5152 H   0  0  0  0  0  0  0  0  0  0  0  0
    2.1424    0.9930   -1.3572 H   0  0  0  0  0  0  0  0  0  0  0  0
    1.6750    1.9428    0.0568 H   0  0  0  0  0  0  0  0  0  0  0  0
    2.3180   -1.0500   -0.0298 H   0  0  0  0  0  0  0  0  0  0  0  0
    2.3007   -0.1401    1.4583 H   0  0  0  0  0  0  0  0  0  0  0  0
   -0.0777    0.5244    1.1051 H   0  0  0  0  0  0  0  0  0  0  0  0
    0.2099   -1.2145    1.3010 H   0  0  0  0  0  0  0  0  0  0  0  0
    1.1321   -1.2713   -1.9392 H   0  0  0  0  0  0  0  0  0  0  0  0
   -0.4614   -1.9769   -2.3303 H   0  0  0  0  0  0  0  0  0  0  0  0
    0.4526   -2.5806   -0.9039 H   0  0  0  0  0  0  0  0  0  0  0  0
   -1.0215    1.4081   -0.8130 H   0  0  0  0  0  0  0  0  0  0  0  0
   -1.5242    0.3642   -2.1904 H   0  0  0  0  0  0  0  0  0  0  0  0
    0.1764    0.8498   -2.0231 H   0  0  0  0  0  0  0  0  0  0  0  0
   -2.3845   -1.5050   -1.1344 H   0  0  0  0  0  0  0  0  0  0  0  0
   -1.6100   -2.2397    0.2842 H   0  0  0  0  0  0  0  0  0  0  0  0
   -2.1580   -0.2766    1.6834 H   0  0  0  0  0  0  0  0  0  0  0  0
   -2.7568    0.6250    0.3170 H   0  0  0  0  0  0  0  0  0  0  0  0
   -3.9847   -1.8224    1.6994 H   0  0  0  0  0  0  0  0  0  0  0  0
   -5.8891   -3.2121    0.9032 H   0  0  0  0  0  0  0  0  0  0  0  0
   -7.8932   -4.1447    1.9925 H   0  0  0  0  0  0  0  0  0  0  0  0
   -9.6079   -2.6394    2.9583 H   0  0  0  0  0  0  0  0  0  0  0  0
   -9.3328   -0.1919    2.8237 H   0  0  0  0  0  0  0  0  0  0  0  0
   -7.1811    3.6180   -0.2477 H   0  0  0  0  0  0  0  0  0  0  0  0
   -5.9347    3.9011   -2.3560 H   0  0  0  0  0  0  0  0  0  0  0  0
   -4.1440    0.0317   -1.8379 H   0  0  0  0  0  0  0  0  0  0  0  0
  1  2  1  0
  2  3  1  0
  3  4  1  0
  4  5  1  0
  5  6  1  0
  6  7  1  0
  7  8  1  0
  8  9  1  0
  9 10  1  0
 10 11  1  0
 11 12  1  0
 11 13  1  0
 11 14  1  0
 14 15  1  0
 15 16  1  0
 16 17  2  3
 17 18  1  0
 18 19  2  0
 19 20  1  0
 20 21  2  0
 21 22  1  0
 22 23  2  0
 23 24  1  0
 24 25  1  0
 25 26  2  0
 26 27  1  0
 27 28  2  0
 28 29  1  0
 28 30  1  0
 30 31  2  0
 31 17  1  0
 23 18  1  0
 31 25  1  0
  1 32  1  0
  1 33  1  0
  1 34  1  0
  2 35  1  0
  2 36  1  0
  3 37  1  0
  3 38  1  0
  4 39  1  0
  4 40  1  0
  5 41  1  0
  5 42  1  0
  6 43  1  0
  6 44  1  0
  7 45  1  0
  7 46  1  0
  8 47  1  0
  8 48  1  0
  9 49  1  0
  9 50  1  0
 10 51  1  0
 10 52  1  0
 12 53  1  0
 12 54  1  0
 12 55  1  0
 13 56  1  0
 13 57  1  0
 13 58  1  0
 14 59  1  0
 14 60  1  0
 15 61  1  0
 15 62  1  0
 16 63  1  0
 19 64  1  0
 20 65  1  0
 21 66  1  0
 22 67  1  0
 26 68  1  0
 27 69  1  0
 30 70  1  0
M  CHG  1  11   1
M  END
$$$$
