
     RDKit          3D

 63 67  0  0  0  0  0  0  0  0999 V2000
   -2.3916    0.6208   -1.3591 O   0  0  0  0  0  0  0  0  0  0  0  0
   -2.5684    0.0008   -0.3176 C   0  0  0  0  0  0  0  0  0  0  0  0
   -3.8057   -0.3802    0.1453 N   0  0  0  0  0  0  0  0  0  0  0  0
   -5.0256   -0.1139   -0.6075 C   0  0  0  0  0  0  0  0  0  0  0  0
   -5.1729   -1.1717   -1.7141 C   0  0  0  0  0  0  0  0  0  0  0  0
   -6.5655   -1.1367   -2.3273 C   0  0  0  0  0  0  0  0  0  0  0  0
   -7.6075   -1.4886   -1.2693 C   0  0  0  0  0  0  0  0  0  0  0  0
   -7.4453   -0.6865   -0.0014 C   0  0  0  0  0  0  0  0  0  0  0  0
   -8.5285   -0.6061    0.8886 C   0  0  0  0  0  0  0  0  0  0  0  0
   -8.4281    0.1275    2.0701 C   0  0  0  0  0  0  0  0  0  0  0  0
   -7.2459    0.7933    2.3745 C   0  0  0  0  0  0  0  0  0  0  0  0
   -6.1583    0.7105    1.5055 C   0  0  0  0  0  0  0  0  0  0  0  0
   -6.2293   -0.0520    0.3229 C   0  0  0  0  0  0  0  0  0  0  0  0
   -1.4064   -0.3568    0.5388 C   0  0  0  0  0  0  0  0  0  0  0  0
   -1.3872   -1.5286    1.3093 C   0  0  0  0  0  0  0  0  0  0  0  0
   -0.2753   -1.8325    2.1004 C   0  0  0  0  0  0  0  0  0  0  0  0
    0.8244   -0.9749    2.1193 C   0  0  0  0  0  0  0  0  0  0  0  0
    0.8083    0.1816    1.3346 C   0  0  0  0  0  0  0  0  0  0  0  0
    2.1987    1.2851    1.3424 S   0  0  0  0  0  6  0  0  0  0  0  0
    3.2520    0.6754    2.1266 O   0  0  0  0  0  0  0  0  0  0  0  0
    1.6898    2.5987    1.6737 O   0  0  0  0  0  0  0  0  0  0  0  0
    2.6840    1.2884   -0.2867 N   0  0  0  0  0  0  0  0  0  0  0  0
    3.2321    0.0051   -0.8389 C   0  0  0  0  0  0  0  0  0  0  0  0
    4.7206   -0.2230   -0.4933 C   0  0  0  0  0  0  0  0  0  0  0  0
    5.5417    0.9613   -0.8505 N   0  0  0  0  0  0  0  0  0  0  0  0
    6.9212    0.7112   -0.7392 C   0  0  0  0  0  0  0  0  0  0  0  0
    7.7504    1.3245    0.2126 C   0  0  0  0  0  0  0  0  0  0  0  0
    9.1199    1.0390    0.2770 C   0  0  0  0  0  0  0  0  0  0  0  0
    9.6901    0.1354   -0.6153 C   0  0  0  0  0  0  0  0  0  0  0  0
    8.8909   -0.4797   -1.5734 C   0  0  0  0  0  0  0  0  0  0  0  0
    7.5242   -0.1905   -1.6319 C   0  0  0  0  0  0  0  0  0  0  0  0
    5.0268    2.2135   -0.2527 C   0  0  0  0  0  0  0  0  0  0  0  0
    3.5651    2.4373   -0.6795 C   0  0  0  0  0  0  0  0  0  0  0  0
   -0.2989    0.4972    0.5429 C   0  0  0  0  0  0  0  0  0  0  0  0
   -3.9034   -0.8361    1.0405 H   0  0  0  0  0  0  0  0  0  0  0  0
   -4.9330    0.8724   -1.0832 H   0  0  0  0  0  0  0  0  0  0  0  0
   -4.4196   -1.0047   -2.4936 H   0  0  0  0  0  0  0  0  0  0  0  0
   -4.9800   -2.1764   -1.3107 H   0  0  0  0  0  0  0  0  0  0  0  0
   -6.7640   -0.1384   -2.7420 H   0  0  0  0  0  0  0  0  0  0  0  0
   -6.6282   -1.8508   -3.1580 H   0  0  0  0  0  0  0  0  0  0  0  0
   -7.5285   -2.5538   -1.0139 H   0  0  0  0  0  0  0  0  0  0  0  0
   -8.6061   -1.3230   -1.6916 H   0  0  0  0  0  0  0  0  0  0  0  0
   -9.4638   -1.1124    0.6604 H   0  0  0  0  0  0  0  0  0  0  0  0
   -9.2774    0.1875    2.7454 H   0  0  0  0  0  0  0  0  0  0  0  0
   -7.1696    1.3807    3.2866 H   0  0  0  0  0  0  0  0  0  0  0  0
   -5.2479    1.2545    1.7524 H   0  0  0  0  0  0  0  0  0  0  0  0
   -2.2191   -2.2274    1.2874 H   0  0  0  0  0  0  0  0  0  0  0  0
   -0.2650   -2.7406    2.6994 H   0  0  0  0  0  0  0  0  0  0  0  0
    1.6830   -1.2149    2.7435 H   0  0  0  0  0  0  0  0  0  0  0  0
    3.1178    0.0460   -1.9299 H   0  0  0  0  0  0  0  0  0  0  0  0
    2.6298   -0.8453   -0.5055 H   0  0  0  0  0  0  0  0  0  0  0  0
    4.8399   -0.4456    0.5736 H   0  0  0  0  0  0  0  0  0  0  0  0
    5.0493   -1.1109   -1.0472 H   0  0  0  0  0  0  0  0  0  0  0  0
    7.3488    2.0233    0.9390 H   0  0  0  0  0  0  0  0  0  0  0  0
    9.7354    1.5243    1.0291 H   0  0  0  0  0  0  0  0  0  0  0  0
   10.7526   -0.0870   -0.5667 H   0  0  0  0  0  0  0  0  0  0  0  0
    9.3273   -1.1780   -2.2811 H   0  0  0  0  0  0  0  0  0  0  0  0
    6.9254   -0.6611   -2.4075 H   0  0  0  0  0  0  0  0  0  0  0  0
    5.6174    3.0686   -0.6043 H   0  0  0  0  0  0  0  0  0  0  0  0
    5.0894    2.1778    0.8412 H   0  0  0  0  0  0  0  0  0  0  0  0
    3.1852    3.3743   -0.2579 H   0  0  0  0  0  0  0  0  0  0  0  0
    3.5072    2.5430   -1.7706 H   0  0  0  0  0  0  0  0  0  0  0  0
   -0.3028    1.4027   -0.0617 H   0  0  0  0  0  0  0  0  0  0  0  0
  1  2  2  0
  2  3  1  0
  3  4  1  0
  4  5  1  0
  5  6  1  0
  6  7  1  0
  7  8  1  0
  8  9  2  0
  9 10  1  0
 10 11  2  0
 11 12  1  0
 12 13  2  0
  2 14  1  0
 14 15  2  0
 15 16  1  0
 16 17  2  0
 17 18  1  0
 18 19  1  0
 19 20  2  0
 19 21  2  0
 19 22  1  0
 22 23  1  0
 23 24  1  0
 24 25  1  0
 25 26  1  0
 26 27  2  0
 27 28  1  0
 28 29  2  0
 29 30  1  0
 30 31  2  0
 25 32  1  0
 32 33  1  0
 18 34  2  0
 13  4  1  0
 34 14  1  0
 13  8  1  0
 33 22  1  0
 31 26  1  0
  3 35  1  0
  4 36  1  0
  5 37  1  0
  5 38  1  0
  6 39  1  0
  6 40  1  0
  7 41  1  0
  7 42  1  0
  9 43  1  0
 10 44  1  0
 11 45  1  0
 12 46  1  0
 15 47  1  0
 16 48  1  0
 17 49  1  0
 23 50  1  0
 23 51  1  0
 24 52  1  0
 24 53  1  0
 27 54  1  0
 28 55  1  0
 29 56  1  0
 30 57  1  0
 31 58  1  0
 32 59  1  0
 32 60  1  0
 33 61  1  0
 33 62  1  0
 34 63  1  0
M  END
$$$$
