
     RDKit          3D

 57 58  0  0  0  0  0  0  0  0999 V2000
    7.3406    2.9108    1.1445 C   0  0  0  0  0  0  0  0  0  0  0  0
    7.2195    1.5769    0.4598 C   0  0  0  0  0  0  0  0  0  0  0  0
    8.3370    1.0235   -0.1840 C   0  0  0  0  0  0  0  0  0  0  0  0
    8.2450   -0.2095   -0.8260 C   0  0  0  0  0  0  0  0  0  0  0  0
    7.0360   -0.8979   -0.8317 C   0  0  0  0  0  0  0  0  0  0  0  0
    5.9161   -0.3576   -0.1937 C   0  0  0  0  0  0  0  0  0  0  0  0
    5.9981    0.8767    0.4583 C   0  0  0  0  0  0  0  0  0  0  0  0
    4.9640    1.4987    1.1068 O   0  0  0  0  0  0  0  0  0  0  0  0
    3.7255    0.8078    1.2621 C   0  0  0  0  0  0  0  0  0  0  0  0
    2.8172    1.0622    0.0740 C   0  0  0  0  0  0  0  0  0  0  0  0
    1.5289    0.3205    0.2590 C   0  0  0  0  0  0  0  0  0  0  0  0
    0.5044    0.8113    0.7152 O   0  0  0  0  0  0  0  0  0  0  0  0
    1.6660   -0.9811   -0.1182 O   0  0  0  0  0  0  0  0  0  0  0  0
    0.4569   -1.7431   -0.0124 C   0  0  0  0  0  0  0  0  0  0  0  0
   -0.5995   -1.3002   -1.0304 C   0  0  0  0  0  0  0  0  0  0  0  0
   -0.2667   -0.7302   -2.0758 O   0  0  0  0  0  0  0  0  0  0  0  0
   -2.0494   -1.5061   -0.6910 C   0  0  0  0  0  0  0  0  0  0  0  0
   -2.9995   -0.6810   -1.1892 C   0  0  0  0  0  0  0  0  0  0  0  0
   -2.7015    0.3198   -2.1082 N   0  0  0  0  0  0  0  0  0  0  0  0
   -4.3270   -0.8512   -0.7930 N   0  0  0  0  0  0  0  0  0  0  0  0
   -5.3866   -0.0221   -1.3972 C   0  0  0  0  0  0  0  0  0  0  0  0
   -5.5960    1.3352   -0.6899 C   0  0  0  0  0  0  0  0  0  0  0  0
   -6.1595    1.1817    0.7236 C   0  0  0  0  0  0  0  0  0  0  0  0
   -6.5331    2.2108   -1.5254 C   0  0  0  0  0  0  0  0  0  0  0  0
   -4.7385   -1.8131    0.1293 C   0  0  0  0  0  0  0  0  0  0  0  0
   -5.9216   -1.9775    0.4340 O   0  0  0  0  0  0  0  0  0  0  0  0
   -3.7399   -2.5921    0.6835 N   0  0  0  0  0  0  0  0  0  0  0  0
   -4.1412   -3.6202    1.6264 C   0  0  0  0  0  0  0  0  0  0  0  0
   -2.4449   -2.5954    0.2261 C   0  0  0  0  0  0  0  0  0  0  0  0
   -1.6247   -3.4599    0.5345 O   0  0  0  0  0  0  0  0  0  0  0  0
    7.1176    2.8109    2.2117 H   0  0  0  0  0  0  0  0  0  0  0  0
    6.6512    3.6322    0.6938 H   0  0  0  0  0  0  0  0  0  0  0  0
    8.3529    3.3188    1.0542 H   0  0  0  0  0  0  0  0  0  0  0  0
    9.2869    1.5532   -0.1889 H   0  0  0  0  0  0  0  0  0  0  0  0
    9.1150   -0.6304   -1.3231 H   0  0  0  0  0  0  0  0  0  0  0  0
    6.9615   -1.8579   -1.3365 H   0  0  0  0  0  0  0  0  0  0  0  0
    4.9950   -0.9283   -0.2359 H   0  0  0  0  0  0  0  0  0  0  0  0
    3.2532    1.2226    2.1615 H   0  0  0  0  0  0  0  0  0  0  0  0
    3.8678   -0.2567    1.4836 H   0  0  0  0  0  0  0  0  0  0  0  0
    2.6014    2.1322   -0.0267 H   0  0  0  0  0  0  0  0  0  0  0  0
    3.2761    0.7683   -0.8759 H   0  0  0  0  0  0  0  0  0  0  0  0
    0.7189   -2.7841   -0.2249 H   0  0  0  0  0  0  0  0  0  0  0  0
    0.0826   -1.6721    1.0144 H   0  0  0  0  0  0  0  0  0  0  0  0
   -1.7018    0.3562   -2.3477 H   0  0  0  0  0  0  0  0  0  0  0  0
   -3.0074    1.2360   -1.7959 H   0  0  0  0  0  0  0  0  0  0  0  0
   -5.1513    0.1291   -2.4584 H   0  0  0  0  0  0  0  0  0  0  0  0
   -6.3323   -0.5791   -1.3976 H   0  0  0  0  0  0  0  0  0  0  0  0
   -4.6377    1.8596   -0.6053 H   0  0  0  0  0  0  0  0  0  0  0  0
   -7.1047    0.6287    0.7184 H   0  0  0  0  0  0  0  0  0  0  0  0
   -6.3473    2.1624    1.1744 H   0  0  0  0  0  0  0  0  0  0  0  0
   -5.4552    0.6562    1.3756 H   0  0  0  0  0  0  0  0  0  0  0  0
   -6.1236    2.3721   -2.5281 H   0  0  0  0  0  0  0  0  0  0  0  0
   -6.6668    3.1928   -1.0596 H   0  0  0  0  0  0  0  0  0  0  0  0
   -7.5202    1.7485   -1.6311 H   0  0  0  0  0  0  0  0  0  0  0  0
   -4.5560   -4.4636    1.0645 H   0  0  0  0  0  0  0  0  0  0  0  0
   -4.9093   -3.2357    2.3052 H   0  0  0  0  0  0  0  0  0  0  0  0
   -3.2918   -3.9694    2.2208 H   0  0  0  0  0  0  0  0  0  0  0  0
  1  2  1  0
  2  3  2  0
  3  4  1  0
  4  5  2  0
  5  6  1  0
  6  7  2  0
  7  8  1  0
  8  9  1  0
  9 10  1  0
 10 11  1  0
 11 12  2  0
 11 13  1  0
 13 14  1  0
 14 15  1  0
 15 16  2  0
 15 17  1  0
 17 18  2  0
 18 19  1  0
 18 20  1  0
 20 21  1  0
 21 22  1  0
 22 23  1  0
 22 24  1  0
 20 25  1  0
 25 26  2  0
 25 27  1  0
 27 28  1  0
 27 29  1  0
 29 30  2  0
  7  2  1  0
 29 17  1  0
  1 31  1  0
  1 32  1  0
  1 33  1  0
  3 34  1  0
  4 35  1  0
  5 36  1  0
  6 37  1  0
  9 38  1  0
  9 39  1  0
 10 40  1  0
 10 41  1  0
 14 42  1  0
 14 43  1  0
 19 44  1  0
 19 45  1  0
 21 46  1  0
 21 47  1  0
 22 48  1  0
 23 49  1  0
 23 50  1  0
 23 51  1  0
 24 52  1  0
 24 53  1  0
 24 54  1  0
 28 55  1  0
 28 56  1  0
 28 57  1  0
M  END
$$$$
