
     RDKit          3D

 32 35  0  0  0  0  0  0  0  0999 V2000
   -3.7366    2.9005   -0.0089 C   0  0  0  0  0  0  0  0  0  0  0  0
   -4.8203    1.9861   -0.1105 O   0  0  0  0  0  0  0  0  0  0  0  0
   -4.4952    0.6365   -0.0119 C   0  0  0  0  0  0  0  0  0  0  0  0
   -5.6216   -0.2006    0.0429 C   0  0  0  0  0  0  0  0  0  0  0  0
   -5.4870   -1.5804    0.1356 C   0  0  0  0  0  0  0  0  0  0  0  0
   -4.2226   -2.1664    0.1764 C   0  0  0  0  0  0  0  0  0  0  0  0
   -3.0950   -1.3295    0.1143 C   0  0  0  0  0  0  0  0  0  0  0  0
   -1.4368   -1.7805    0.1349 S   0  0  0  0  0  0  0  0  0  0  0  0
   -0.9618   -0.1332    0.0150 C   0  0  0  0  0  0  0  0  0  0  0  0
    0.3127    0.3134   -0.0279 N   0  0  0  0  0  0  0  0  0  0  0  0
    1.4665   -0.3656    0.0492 C   0  0  0  0  0  0  0  0  0  0  0  0
    1.7427   -1.6418    0.2015 N   0  0  0  0  0  0  0  0  0  0  0  0
    3.1167   -1.7531    0.2198 N   0  0  0  0  0  0  0  0  0  0  0  0
    3.6009   -0.5331    0.0721 C   0  0  0  0  0  0  0  0  0  0  0  0
    5.0018   -0.2275    0.0330 C   0  0  0  0  0  0  0  0  0  0  0  0
    6.0520   -1.1161    0.1703 C   0  0  0  0  0  0  0  0  0  0  0  0
    7.3244   -0.4794    0.0707 C   0  0  0  0  0  0  0  0  0  0  0  0
    7.2048    0.8760   -0.1387 C   0  0  0  0  0  0  0  0  0  0  0  0
    5.5689    1.3721   -0.2043 S   0  0  0  0  0  0  0  0  0  0  0  0
    2.5955    0.3993   -0.0406 O   0  0  0  0  0  0  0  0  0  0  0  0
   -1.9655    0.7137   -0.0382 N   0  0  0  0  0  0  0  0  0  0  0  0
   -3.1952    0.0607    0.0200 C   0  0  0  0  0  0  0  0  0  0  0  0
   -3.1879    2.7705    0.9297 H   0  0  0  0  0  0  0  0  0  0  0  0
   -4.1598    3.9099   -0.0009 H   0  0  0  0  0  0  0  0  0  0  0  0
   -3.0821    2.8310   -0.8829 H   0  0  0  0  0  0  0  0  0  0  0  0
   -6.6149    0.2420    0.0109 H   0  0  0  0  0  0  0  0  0  0  0  0
   -6.3749   -2.2071    0.1771 H   0  0  0  0  0  0  0  0  0  0  0  0
   -4.1132   -3.2445    0.2480 H   0  0  0  0  0  0  0  0  0  0  0  0
    0.3960    1.3169   -0.1209 H   0  0  0  0  0  0  0  0  0  0  0  0
    5.9133   -2.1797    0.3313 H   0  0  0  0  0  0  0  0  0  0  0  0
    8.2755   -0.9919    0.1453 H   0  0  0  0  0  0  0  0  0  0  0  0
    7.9988    1.6018   -0.2536 H   0  0  0  0  0  0  0  0  0  0  0  0
  1  2  1  0
  2  3  1  0
  3  4  2  0
  4  5  1  0
  5  6  2  0
  6  7  1  0
  7  8  1  0
  8  9  1  0
  9 10  1  0
 10 11  1  0
 11 12  2  0
 12 13  1  0
 13 14  2  0
 14 15  1  0
 15 16  2  0
 16 17  1  0
 17 18  2  0
 18 19  1  0
 14 20  1  0
  9 21  2  0
 21 22  1  0
 22  3  1  0
 22  7  2  0
 20 11  1  0
 19 15  1  0
  1 23  1  0
  1 24  1  0
  1 25  1  0
  4 26  1  0
  5 27  1  0
  6 28  1  0
 10 29  1  0
 16 30  1  0
 17 31  1  0
 18 32  1  0
M  END
$$$$
