
     RDKit          3D

 46 50  0  0  0  0  0  0  0  0999 V2000
   -8.1741   -1.6612    0.6377 C   0  0  0  0  0  0  0  0  0  0  0  0
   -6.6801   -1.4641    0.5963 C   0  0  0  0  0  0  0  0  0  0  0  0
   -5.8459   -2.5655    0.8574 C   0  0  0  0  0  0  0  0  0  0  0  0
   -4.4531   -2.4618    0.8374 C   0  0  0  0  0  0  0  0  0  0  0  0
   -3.9243   -1.2055    0.5441 C   0  0  0  0  0  0  0  0  0  0  0  0
   -4.7153   -0.0812    0.2779 C   0  0  0  0  0  0  0  0  0  0  0  0
   -3.9325    1.0335    0.0190 N   0  0  0  0  0  0  0  0  0  0  0  0
   -2.7150    0.5844    0.1270 C   0  0  0  0  0  0  0  0  0  0  0  0
   -1.1728    1.3251   -0.0433 S   0  0  0  0  0  0  0  0  0  0  0  0
   -0.3967   -0.1938    0.3249 C   0  0  0  0  0  0  0  0  0  0  0  0
    0.9079   -0.4931    0.3755 C   0  0  0  0  0  0  0  0  0  0  0  0
    1.9996    0.3922    0.1560 C   0  0  0  0  0  0  0  0  0  0  0  0
    2.1562    1.7615    0.3357 C   0  0  0  0  0  0  0  0  0  0  0  0
    3.4808    2.1074   -0.0298 C   0  0  0  0  0  0  0  0  0  0  0  0
    4.0996    0.9354   -0.3975 C   0  0  0  0  0  0  0  0  0  0  0  0
    5.4330    0.5762   -0.8726 C   0  0  0  0  0  0  0  0  0  0  0  0
    5.5578   -0.4254   -1.8537 C   0  0  0  0  0  0  0  0  0  0  0  0
    6.8015   -0.7584   -2.3999 C   0  0  0  0  0  0  0  0  0  0  0  0
    7.9488   -0.0922   -1.9806 C   0  0  0  0  0  0  0  0  0  0  0  0
    7.8544    0.8958   -1.0029 C   0  0  0  0  0  0  0  0  0  0  0  0
    6.6078    1.2159   -0.4398 C   0  0  0  0  0  0  0  0  0  0  0  0
    6.6222    2.2361    0.6216 C   0  0  0  0  0  0  0  0  0  0  0  0
    7.1024    3.3496    0.5356 O   0  0  0  0  0  0  0  0  0  0  0  0
    6.1138    1.7573    1.7689 O   0  0  0  0  0  0  0  0  0  0  0  0
    3.2124   -0.0929   -0.2869 O   0  0  0  0  0  0  0  0  0  0  0  0
   -1.3891   -1.2836    0.5728 C   0  0  0  0  0  0  0  0  0  0  0  0
   -1.2092   -2.4552    0.8486 O   0  0  0  0  0  0  0  0  0  0  0  0
   -2.6426   -0.7307    0.4371 N   0  0  0  0  0  0  0  0  0  0  0  0
   -6.1239   -0.1907    0.2993 C   0  0  0  0  0  0  0  0  0  0  0  0
   -7.0066    0.9940    0.0184 C   0  0  0  0  0  0  0  0  0  0  0  0
   -8.6208   -1.0207    1.4047 H   0  0  0  0  0  0  0  0  0  0  0  0
   -8.4374   -2.6964    0.8800 H   0  0  0  0  0  0  0  0  0  0  0  0
   -8.6151   -1.4297   -0.3369 H   0  0  0  0  0  0  0  0  0  0  0  0
   -6.2853   -3.5367    1.0838 H   0  0  0  0  0  0  0  0  0  0  0  0
   -3.8197   -3.3204    1.0408 H   0  0  0  0  0  0  0  0  0  0  0  0
    1.1977   -1.5258    0.5685 H   0  0  0  0  0  0  0  0  0  0  0  0
    1.4079    2.4502    0.7013 H   0  0  0  0  0  0  0  0  0  0  0  0
    3.9220    3.0945   -0.0203 H   0  0  0  0  0  0  0  0  0  0  0  0
    4.6726   -0.9471   -2.2153 H   0  0  0  0  0  0  0  0  0  0  0  0
    6.8682   -1.5327   -3.1607 H   0  0  0  0  0  0  0  0  0  0  0  0
    8.9150   -0.3443   -2.4106 H   0  0  0  0  0  0  0  0  0  0  0  0
    8.7534    1.4107   -0.6694 H   0  0  0  0  0  0  0  0  0  0  0  0
    6.2201    2.4874    2.4129 H   0  0  0  0  0  0  0  0  0  0  0  0
   -7.6418    1.2088    0.8834 H   0  0  0  0  0  0  0  0  0  0  0  0
   -7.6361    0.8006   -0.8558 H   0  0  0  0  0  0  0  0  0  0  0  0
   -6.4177    1.8927   -0.1906 H   0  0  0  0  0  0  0  0  0  0  0  0
  1  2  1  0
  2  3  2  0
  3  4  1  0
  4  5  2  0
  5  6  1  0
  6  7  1  0
  7  8  2  0
  8  9  1  0
  9 10  1  0
 10 11  2  3
 11 12  1  0
 12 13  2  0
 13 14  1  0
 14 15  2  0
 15 16  1  0
 16 17  2  0
 17 18  1  0
 18 19  2  0
 19 20  1  0
 20 21  2  0
 21 22  1  0
 22 23  2  0
 22 24  1  0
 15 25  1  0
 10 26  1  0
 26 27  2  0
 26 28  1  0
  6 29  2  0
 29 30  1  0
 29  2  1  0
 28  5  1  0
 28  8  1  0
 25 12  1  0
 21 16  1  0
  1 31  1  0
  1 32  1  0
  1 33  1  0
  3 34  1  0
  4 35  1  0
 11 36  1  0
 13 37  1  0
 14 38  1  0
 17 39  1  0
 18 40  1  0
 19 41  1  0
 20 42  1  0
 24 43  1  0
 30 44  1  0
 30 45  1  0
 30 46  1  0
M  END
$$$$
