
     RDKit          3D

 68 73  0  0  0  0  0  0  0  0999 V2000
   -2.7759    5.0007   -3.0114 C   0  0  0  0  0  0  0  0  0  0  0  0
   -2.1621    3.8181   -2.5169 O   0  0  0  0  0  0  0  0  0  0  0  0
   -2.3693    3.5135   -1.1982 C   0  0  0  0  0  0  0  0  0  0  0  0
   -3.1051    4.2914   -0.2830 C   0  0  0  0  0  0  0  0  0  0  0  0
   -3.2511    3.8894    1.0508 C   0  0  0  0  0  0  0  0  0  0  0  0
   -2.6529    2.7075    1.4300 C   0  0  0  0  0  0  0  0  0  0  0  0
   -1.9267    1.9173    0.5367 C   0  0  0  0  0  0  0  0  0  0  0  0
   -1.7720    2.3174   -0.7818 C   0  0  0  0  0  0  0  0  0  0  0  0
   -1.4167    0.7154    1.2683 C   0  0  1  0  0  0  0  0  0  0  0  0
   -1.9365    0.9373    2.7143 C   0  0  0  0  0  0  0  0  0  0  0  0
   -1.7494    0.2476    3.7068 O   0  0  0  0  0  0  0  0  0  0  0  0
   -2.6559    2.1366    2.6975 N   0  0  0  0  0  0  0  0  0  0  0  0
   -1.9472   -0.5203    0.6417 C   0  0  0  0  0  0  0  0  0  0  0  0
   -0.9424   -1.4981    0.5521 C   0  0  0  0  0  0  0  0  0  0  0  0
   -1.4750   -2.6296   -0.0063 C   0  0  0  0  0  0  0  0  0  0  0  0
   -0.9017   -3.7935   -0.2999 O   0  0  0  0  0  0  0  0  0  0  0  0
   -2.8216   -2.3423   -0.3149 N   0  0  0  0  0  0  0  0  0  0  0  0
   -3.7275   -3.1846   -1.0364 C   0  0  0  0  0  0  0  0  0  0  0  0
   -4.7137   -2.6141   -1.8570 C   0  0  0  0  0  0  0  0  0  0  0  0
   -5.6044   -3.4285   -2.5608 C   0  0  0  0  0  0  0  0  0  0  0  0
   -5.5149   -4.8143   -2.4570 C   0  0  0  0  0  0  0  0  0  0  0  0
   -4.5293   -5.3885   -1.6569 C   0  0  0  0  0  0  0  0  0  0  0  0
   -3.6340   -4.5789   -0.9523 C   0  0  0  0  0  0  0  0  0  0  0  0
   -3.1223   -1.0624    0.1988 C   0  0  0  0  0  0  0  0  0  0  0  0
   -4.3466   -0.5420    0.2762 O   0  0  0  0  0  0  0  0  0  0  0  0
    0.3148   -0.9878    1.1428 C   0  0  1  0  0  0  0  0  0  0  0  0
    1.6138   -1.2003    0.3687 C   0  0  0  0  0  0  0  0  0  0  0  0
    2.6969   -0.3208    0.8385 N   0  0  0  0  0  0  0  0  0  0  0  0
    3.9659   -0.5330    0.3378 C   0  0  0  0  0  0  0  0  0  0  0  0
    4.2115   -1.3557   -0.5355 O   0  0  0  0  0  0  0  0  0  0  0  0
    4.8920    0.2590    0.9344 O   0  0  0  0  0  0  0  0  0  0  0  0
    6.2881    0.2009    0.5465 C   0  0  0  0  0  0  0  0  0  0  0  0
    6.8915   -1.1788    0.8306 C   0  0  0  0  0  0  0  0  0  0  0  0
    6.4765    0.6213   -0.9149 C   0  0  0  0  0  0  0  0  0  0  0  0
    6.9837    1.2335    1.4474 C   0  0  0  0  0  0  0  0  0  0  0  0
    2.4070    0.5928    1.9572 C   0  0  0  0  0  0  0  0  0  0  0  0
    0.9992    1.2524    1.9055 C   0  0  0  0  0  0  0  0  0  0  0  0
    0.0352    0.4681    1.1620 N   0  0  0  0  0  0  0  0  0  0  0  0
   -3.8662    4.9472   -2.9234 H   0  0  0  0  0  0  0  0  0  0  0  0
   -2.5321    5.0844   -4.0751 H   0  0  0  0  0  0  0  0  0  0  0  0
   -2.3805    5.8894   -2.5086 H   0  0  0  0  0  0  0  0  0  0  0  0
   -3.5760    5.2218   -0.5839 H   0  0  0  0  0  0  0  0  0  0  0  0
   -3.8157    4.4931    1.7517 H   0  0  0  0  0  0  0  0  0  0  0  0
   -1.2021    1.7111   -1.4798 H   0  0  0  0  0  0  0  0  0  0  0  0
   -3.1122    2.5121    3.5142 H   0  0  0  0  0  0  0  0  0  0  0  0
    0.0432   -3.7351   -0.0777 H   0  0  0  0  0  0  0  0  0  0  0  0
   -4.7752   -1.5380   -2.0063 H   0  0  0  0  0  0  0  0  0  0  0  0
   -6.3576   -2.9801   -3.2041 H   0  0  0  0  0  0  0  0  0  0  0  0
   -6.2056   -5.4477   -3.0075 H   0  0  0  0  0  0  0  0  0  0  0  0
   -4.4558   -6.4705   -1.5776 H   0  0  0  0  0  0  0  0  0  0  0  0
   -2.8950   -5.0624   -0.3191 H   0  0  0  0  0  0  0  0  0  0  0  0
   -4.9959   -1.2665    0.2226 H   0  0  0  0  0  0  0  0  0  0  0  0
    0.4075   -1.3681    2.1693 H   0  0  0  0  0  0  0  0  0  0  0  0
    1.9447   -2.2420    0.4617 H   0  0  0  0  0  0  0  0  0  0  0  0
    1.4796   -1.0042   -0.7033 H   0  0  0  0  0  0  0  0  0  0  0  0
    6.6586   -1.5021    1.8513 H   0  0  0  0  0  0  0  0  0  0  0  0
    7.9800   -1.1707    0.7078 H   0  0  0  0  0  0  0  0  0  0  0  0
    6.4940   -1.9460    0.1594 H   0  0  0  0  0  0  0  0  0  0  0  0
    6.0603   -0.1145   -1.6096 H   0  0  0  0  0  0  0  0  0  0  0  0
    7.5369    0.7412   -1.1616 H   0  0  0  0  0  0  0  0  0  0  0  0
    5.9629    1.5683   -1.1158 H   0  0  0  0  0  0  0  0  0  0  0  0
    6.8422    0.9853    2.5057 H   0  0  0  0  0  0  0  0  0  0  0  0
    8.0584    1.2906    1.2467 H   0  0  0  0  0  0  0  0  0  0  0  0
    6.5513    2.2306    1.3039 H   0  0  0  0  0  0  0  0  0  0  0  0
    2.4841   -0.0186    2.8651 H   0  0  0  0  0  0  0  0  0  0  0  0
    3.1689    1.3750    2.0303 H   0  0  0  0  0  0  0  0  0  0  0  0
    0.6820    1.4394    2.9373 H   0  0  0  0  0  0  0  0  0  0  0  0
    1.0933    2.2301    1.4190 H   0  0  0  0  0  0  0  0  0  0  0  0
  1  2  1  0
  2  3  1  0
  3  4  2  0
  4  5  1  0
  5  6  2  0
  6  7  1  0
  7  8  2  0
  7  9  1  0
  9 10  1  0
 10 11  2  0
 10 12  1  0
  9 13  1  0
 13 14  1  0
 14 15  2  0
 15 16  1  0
 15 17  1  0
 17 18  1  0
 18 19  2  0
 19 20  1  0
 20 21  2  0
 21 22  1  0
 22 23  2  0
 17 24  1  0
 24 25  1  0
 14 26  1  0
 26 27  1  0
 27 28  1  0
 28 29  1  0
 29 30  2  0
 29 31  1  0
 31 32  1  0
 32 33  1  0
 32 34  1  0
 32 35  1  0
 28 36  1  0
 36 37  1  0
 37 38  1  0
  8  3  1  0
  9 38  1  1
 12  6  1  0
 24 13  2  0
 38 26  1  0
 23 18  1  0
  1 39  1  0
  1 40  1  0
  1 41  1  0
  4 42  1  0
  5 43  1  0
  8 44  1  0
 12 45  1  0
 16 46  1  0
 19 47  1  0
 20 48  1  0
 21 49  1  0
 22 50  1  0
 23 51  1  0
 25 52  1  0
 26 53  1  1
 27 54  1  0
 27 55  1  0
 33 56  1  0
 33 57  1  0
 33 58  1  0
 34 59  1  0
 34 60  1  0
 34 61  1  0
 35 62  1  0
 35 63  1  0
 35 64  1  0
 36 65  1  0
 36 66  1  0
 37 67  1  0
 37 68  1  0
M  END
$$$$
