
     RDKit          3D

 56 59  0  0  0  0  0  0  0  0999 V2000
   -2.7064   -4.7576    2.3336 C   0  0  0  0  0  0  0  0  0  0  0  0
   -2.3344   -4.2564    0.9516 C   0  0  0  0  0  0  0  0  0  0  0  0
   -2.3972   -2.8275    0.9649 O   0  0  0  0  0  0  0  0  0  0  0  0
   -2.0691   -2.2471   -0.2264 C   0  0  0  0  0  0  0  0  0  0  0  0
   -1.8405   -2.8727   -1.2575 O   0  0  0  0  0  0  0  0  0  0  0  0
   -2.0750   -0.7872   -0.1597 C   0  0  0  0  0  0  0  0  0  0  0  0
   -1.1569    0.0106   -0.8189 C   0  0  0  0  0  0  0  0  0  0  0  0
    0.0092   -0.2395   -1.5077 N   0  0  0  0  0  0  0  0  0  0  0  0
    0.8495   -1.2974   -1.1921 C   0  0  0  0  0  0  0  0  0  0  0  0
    0.7323   -2.0311   -0.2117 O   0  0  0  0  0  0  0  0  0  0  0  0
    2.0333   -1.4120   -2.1493 C   0  0  0  0  0  0  0  0  0  0  0  0
    3.1246   -0.5438   -1.7178 N   0  0  0  0  0  0  0  0  0  0  0  0
    4.2026   -1.1568   -1.1251 N   0  0  0  0  0  0  0  0  0  0  0  0
    5.2119   -0.4263   -0.7534 C   0  0  0  0  0  0  0  0  0  0  0  0
    6.3757   -1.1504   -0.0977 C   0  0  0  0  0  0  0  0  0  0  0  0
    6.7117   -0.9986    1.0585 O   0  0  0  0  0  0  0  0  0  0  0  0
    7.0172   -1.9479   -0.9570 O   0  0  0  0  0  0  0  0  0  0  0  0
    5.2824    1.0299   -0.9351 C   0  0  0  0  0  0  0  0  0  0  0  0
    6.3773    1.8017   -0.5272 C   0  0  0  0  0  0  0  0  0  0  0  0
    6.3734    3.1823   -0.7438 C   0  0  0  0  0  0  0  0  0  0  0  0
    5.2841    3.7929   -1.3646 C   0  0  0  0  0  0  0  0  0  0  0  0
    4.1929    3.0245   -1.7699 C   0  0  0  0  0  0  0  0  0  0  0  0
    4.1958    1.6408   -1.5530 C   0  0  0  0  0  0  0  0  0  0  0  0
    3.0454    0.8210   -1.9744 C   0  0  0  0  0  0  0  0  0  0  0  0
    2.0699    1.3499   -2.5058 O   0  0  0  0  0  0  0  0  0  0  0  0
   -1.5562    1.6626   -0.7955 S   0  0  0  0  0  0  0  0  0  0  0  0
   -2.8784    1.3819    0.2306 C   0  0  0  0  0  0  0  0  0  0  0  0
   -3.0533    0.0405    0.5224 C   0  0  0  0  0  0  0  0  0  0  0  0
   -4.2038   -0.4298    1.3693 C   0  0  0  0  0  0  0  0  0  0  0  0
   -4.8731    0.7216    2.1380 C   0  0  0  0  0  0  0  0  0  0  0  0
   -5.0857    1.9627    1.2485 C   0  0  0  0  0  0  0  0  0  0  0  0
   -5.8439    3.0505    2.0060 C   0  0  0  0  0  0  0  0  0  0  0  0
   -3.7335    2.5032    0.7367 C   0  0  0  0  0  0  0  0  0  0  0  0
   -2.0284   -4.3456    3.0891 H   0  0  0  0  0  0  0  0  0  0  0  0
   -2.6638   -5.8494    2.3773 H   0  0  0  0  0  0  0  0  0  0  0  0
   -3.7170   -4.4316    2.6003 H   0  0  0  0  0  0  0  0  0  0  0  0
   -1.3174   -4.5802    0.7024 H   0  0  0  0  0  0  0  0  0  0  0  0
   -3.0400   -4.6531    0.2135 H   0  0  0  0  0  0  0  0  0  0  0  0
    0.4267    0.5509   -2.0016 H   0  0  0  0  0  0  0  0  0  0  0  0
    1.7205   -1.1311   -3.1615 H   0  0  0  0  0  0  0  0  0  0  0  0
    2.3700   -2.4541   -2.1790 H   0  0  0  0  0  0  0  0  0  0  0  0
    7.6956   -2.4035   -0.4183 H   0  0  0  0  0  0  0  0  0  0  0  0
    7.2391    1.3589   -0.0338 H   0  0  0  0  0  0  0  0  0  0  0  0
    7.2214    3.7848   -0.4234 H   0  0  0  0  0  0  0  0  0  0  0  0
    5.2829    4.8682   -1.5297 H   0  0  0  0  0  0  0  0  0  0  0  0
    3.3434    3.5054   -2.2514 H   0  0  0  0  0  0  0  0  0  0  0  0
   -3.8693   -1.1766    2.0963 H   0  0  0  0  0  0  0  0  0  0  0  0
   -4.9431   -0.9100    0.7159 H   0  0  0  0  0  0  0  0  0  0  0  0
   -5.8289    0.3721    2.5454 H   0  0  0  0  0  0  0  0  0  0  0  0
   -4.2446    0.9951    2.9960 H   0  0  0  0  0  0  0  0  0  0  0  0
   -5.6946    1.6631    0.3842 H   0  0  0  0  0  0  0  0  0  0  0  0
   -6.0108    3.9235    1.3665 H   0  0  0  0  0  0  0  0  0  0  0  0
   -6.8221    2.6841    2.3351 H   0  0  0  0  0  0  0  0  0  0  0  0
   -5.2902    3.3793    2.8919 H   0  0  0  0  0  0  0  0  0  0  0  0
   -3.9126    3.2436   -0.0525 H   0  0  0  0  0  0  0  0  0  0  0  0
   -3.1986    3.0115    1.5490 H   0  0  0  0  0  0  0  0  0  0  0  0
  1  2  1  0
  2  3  1  0
  3  4  1  0
  4  5  2  0
  4  6  1  0
  6  7  2  0
  7  8  1  0
  8  9  1  0
  9 10  2  0
  9 11  1  0
 11 12  1  0
 12 13  1  0
 13 14  2  0
 14 15  1  0
 15 16  2  0
 15 17  1  0
 14 18  1  0
 18 19  2  0
 19 20  1  0
 20 21  2  0
 21 22  1  0
 22 23  2  0
 23 24  1  0
 24 25  2  0
  7 26  1  0
 26 27  1  0
 27 28  2  0
 28 29  1  0
 29 30  1  0
 30 31  1  0
 31 32  1  0
 31 33  1  0
 28  6  1  0
 24 12  1  0
 33 27  1  0
 23 18  1  0
  1 34  1  0
  1 35  1  0
  1 36  1  0
  2 37  1  0
  2 38  1  0
  8 39  1  0
 11 40  1  0
 11 41  1  0
 17 42  1  0
 19 43  1  0
 20 44  1  0
 21 45  1  0
 22 46  1  0
 29 47  1  0
 29 48  1  0
 30 49  1  0
 30 50  1  0
 31 51  1  0
 32 52  1  0
 32 53  1  0
 32 54  1  0
 33 55  1  0
 33 56  1  0
M  END
$$$$
