
     RDKit          3D

 62 65  0  0  0  0  0  0  0  0999 V2000
   -1.7856    0.5180    2.2394 O   0  0  0  0  0  0  0  0  0  0  0  0
   -1.3327    0.4032    1.1026 C   0  0  0  0  0  0  0  0  0  0  0  0
   -2.1054    0.0430    0.0245 N   0  0  0  0  0  0  0  0  0  0  0  0
   -3.5301   -0.2061    0.1492 C   0  0  0  0  0  0  0  0  0  0  0  0
   -4.3406    1.0907    0.2561 C   0  0  0  0  0  0  0  0  0  0  0  0
   -5.8347    0.8577    0.1914 C   0  0  0  0  0  0  0  0  0  0  0  0
   -6.5625    1.2369   -0.8775 C   0  0  0  0  0  0  0  0  0  0  0  0
   -8.0529    1.0841   -0.9710 C   0  0  0  0  0  0  0  0  0  0  0  0
   -8.7144    0.7858    0.3747 C   0  0  0  0  0  0  0  0  0  0  0  0
   -7.9153   -0.2438    1.1636 C   0  0  0  0  0  0  0  0  0  0  0  0
   -6.4783    0.2281    1.4070 C   0  0  0  0  0  0  0  0  0  0  0  0
    0.1476    0.6328    0.8082 C   0  0  0  0  0  0  0  0  0  0  0  0
    0.8459   -0.6651    0.3654 C   0  0  0  0  0  0  0  0  0  0  0  0
    1.1173   -0.7294   -1.1357 C   0  0  0  0  0  0  0  0  0  0  0  0
    1.9034    0.4854   -1.6701 C   0  0  0  0  0  0  0  0  0  0  0  0
    3.3774    0.1558   -1.9790 C   0  0  0  0  0  0  0  0  0  0  0  0
    4.0790   -0.3566   -0.8108 N   0  0  0  0  0  0  0  0  0  0  0  0
    5.3373   -0.9477   -0.7970 C   0  0  0  0  0  0  0  0  0  0  0  0
    5.8902   -1.3712   -1.9770 N   0  0  0  0  0  0  0  0  0  0  0  0
    7.1152   -1.9639   -2.1262 C   0  0  0  0  0  0  0  0  0  0  0  0
    7.5864   -2.3931   -3.6773 S   0  0  0  0  0  0  0  0  0  0  0  0
    7.8824   -2.1686   -1.0162 N   0  0  0  0  0  0  0  0  0  0  0  0
    7.3958   -1.7909    0.1230 C   0  0  0  0  0  0  0  0  0  0  0  0
    8.2157   -2.0092    1.3482 C   0  0  0  0  0  0  0  0  0  0  0  0
    7.7571   -1.6514    2.5545 C   0  0  0  0  0  0  0  0  0  0  0  0
    6.4603   -1.0469    2.7325 C   0  0  0  0  0  0  0  0  0  0  0  0
    5.6541   -0.8037    1.6889 C   0  0  0  0  0  0  0  0  0  0  0  0
    6.0579   -1.1409    0.3331 C   0  0  0  0  0  0  0  0  0  0  0  0
    1.7514    1.7390   -0.7908 C   0  0  0  0  0  0  0  0  0  0  0  0
    0.3651    1.8045   -0.1585 C   0  0  0  0  0  0  0  0  0  0  0  0
   -1.7033    0.0242   -0.9007 H   0  0  0  0  0  0  0  0  0  0  0  0
   -3.8278   -0.7741   -0.7400 H   0  0  0  0  0  0  0  0  0  0  0  0
   -3.6917   -0.8427    1.0271 H   0  0  0  0  0  0  0  0  0  0  0  0
   -4.0297    1.7676   -0.5506 H   0  0  0  0  0  0  0  0  0  0  0  0
   -4.1002    1.6163    1.1880 H   0  0  0  0  0  0  0  0  0  0  0  0
   -6.0749    1.6944   -1.7368 H   0  0  0  0  0  0  0  0  0  0  0  0
   -8.2730    0.2760   -1.6803 H   0  0  0  0  0  0  0  0  0  0  0  0
   -8.4864    2.0012   -1.3866 H   0  0  0  0  0  0  0  0  0  0  0  0
   -8.7939    1.7128    0.9572 H   0  0  0  0  0  0  0  0  0  0  0  0
   -9.7362    0.4250    0.2115 H   0  0  0  0  0  0  0  0  0  0  0  0
   -7.9002   -1.1922    0.6111 H   0  0  0  0  0  0  0  0  0  0  0  0
   -8.4042   -0.4451    2.1239 H   0  0  0  0  0  0  0  0  0  0  0  0
   -6.4709    0.9648    2.2204 H   0  0  0  0  0  0  0  0  0  0  0  0
   -5.8916   -0.6321    1.7490 H   0  0  0  0  0  0  0  0  0  0  0  0
    0.5936    0.9144    1.7727 H   0  0  0  0  0  0  0  0  0  0  0  0
    1.8057   -0.7354    0.8910 H   0  0  0  0  0  0  0  0  0  0  0  0
    0.2709   -1.5461    0.6729 H   0  0  0  0  0  0  0  0  0  0  0  0
    0.1572   -0.7792   -1.6650 H   0  0  0  0  0  0  0  0  0  0  0  0
    1.6314   -1.6668   -1.3798 H   0  0  0  0  0  0  0  0  0  0  0  0
    1.4530    0.7330   -2.6422 H   0  0  0  0  0  0  0  0  0  0  0  0
    3.8905    1.0497   -2.3525 H   0  0  0  0  0  0  0  0  0  0  0  0
    3.3906   -0.5908   -2.7816 H   0  0  0  0  0  0  0  0  0  0  0  0
    3.8765    0.1536    0.0417 H   0  0  0  0  0  0  0  0  0  0  0  0
    5.3640   -1.2656   -2.8299 H   0  0  0  0  0  0  0  0  0  0  0  0
    9.1873   -2.4693    1.2124 H   0  0  0  0  0  0  0  0  0  0  0  0
    8.3620   -1.8202    3.4406 H   0  0  0  0  0  0  0  0  0  0  0  0
    6.1508   -0.7987    3.7443 H   0  0  0  0  0  0  0  0  0  0  0  0
    4.6811   -0.3634    1.8685 H   0  0  0  0  0  0  0  0  0  0  0  0
    1.9198    2.6326   -1.4034 H   0  0  0  0  0  0  0  0  0  0  0  0
    2.5044    1.7664    0.0039 H   0  0  0  0  0  0  0  0  0  0  0  0
   -0.3929    1.8254   -0.9502 H   0  0  0  0  0  0  0  0  0  0  0  0
    0.2514    2.7489    0.3885 H   0  0  0  0  0  0  0  0  0  0  0  0
  1  2  2  0
  2  3  1  0
  3  4  1  0
  4  5  1  0
  5  6  1  0
  6  7  2  0
  7  8  1  0
  8  9  1  0
  9 10  1  0
 10 11  1  0
  2 12  1  0
 12 13  1  0
 13 14  1  0
 14 15  1  0
 15 16  1  0
 16 17  1  0
 17 18  1  0
 18 19  1  0
 19 20  1  0
 20 21  2  0
 20 22  1  0
 22 23  2  0
 23 24  1  0
 24 25  2  0
 25 26  1  0
 26 27  2  0
 27 28  1  0
 15 29  1  0
 29 30  1  0
 11  6  1  0
 30 12  1  0
 28 18  2  0
 28 23  1  0
  3 31  1  0
  4 32  1  0
  4 33  1  0
  5 34  1  0
  5 35  1  0
  7 36  1  0
  8 37  1  0
  8 38  1  0
  9 39  1  0
  9 40  1  0
 10 41  1  0
 10 42  1  0
 11 43  1  0
 11 44  1  0
 12 45  1  0
 13 46  1  0
 13 47  1  0
 14 48  1  0
 14 49  1  0
 15 50  1  0
 16 51  1  0
 16 52  1  0
 17 53  1  0
 19 54  1  0
 24 55  1  0
 25 56  1  0
 26 57  1  0
 27 58  1  0
 29 59  1  0
 29 60  1  0
 30 61  1  0
 30 62  1  0
M  END
$$$$
