
     RDKit          3D

 46 48  0  0  0  0  0  0  0  0999 V2000
   -2.3149    3.4246    0.9995 O   0  0  0  0  0  0  0  0  0  0  0  0
   -1.6681    2.4151    0.7637 C   0  0  0  0  0  0  0  0  0  0  0  0
   -2.1764    1.2868    0.1591 N   0  0  0  0  0  0  0  0  0  0  0  0
   -3.5929    1.1801   -0.1446 C   0  0  0  0  0  0  0  0  0  0  0  0
   -3.8750   -0.0584   -0.9912 C   0  0  0  0  0  0  0  0  0  0  0  0
   -5.3336   -0.1865   -1.4006 C   0  0  0  0  0  0  0  0  0  0  0  0
   -5.5217   -1.6828   -1.4356 C   0  0  0  0  0  0  0  0  0  0  0  0
   -4.6818   -2.1214   -0.2574 C   0  0  0  0  0  0  0  0  0  0  0  0
   -3.5483   -1.2439   -0.2267 O   0  0  0  0  0  0  0  0  0  0  0  0
   -0.2421    2.3307    1.1633 C   0  0  0  0  0  0  0  0  0  0  0  0
    0.1538    2.8811    2.3828 C   0  0  0  0  0  0  0  0  0  0  0  0
    1.4939    2.8197    2.7724 C   0  0  0  0  0  0  0  0  0  0  0  0
    2.4536    2.2290    1.9390 C   0  0  0  0  0  0  0  0  0  0  0  0
    4.2317    2.2084    2.6039 Br  0  0  0  0  0  0  0  0  0  0  0  0
    2.0567    1.6971    0.7048 C   0  0  0  0  0  0  0  0  0  0  0  0
    3.2173    1.0143   -0.4523 S   0  0  0  0  0  6  0  0  0  0  0  0
    2.4673    0.4989   -1.5808 O   0  0  0  0  0  0  0  0  0  0  0  0
    4.2576    1.9967   -0.6583 O   0  0  0  0  0  0  0  0  0  0  0  0
    3.8610   -0.3261    0.3701 N   0  0  0  0  0  0  0  0  0  0  0  0
    2.9465   -1.4838    0.6229 C   0  0  0  0  0  0  0  0  0  0  0  0
    2.8786   -2.4385   -0.5800 C   0  0  0  0  0  0  0  0  0  0  0  0
    4.1841   -2.8694   -0.9882 O   0  0  0  0  0  0  0  0  0  0  0  0
    5.0004   -1.7412   -1.3433 C   0  0  0  0  0  0  0  0  0  0  0  0
    5.1817   -0.8093   -0.1407 C   0  0  0  0  0  0  0  0  0  0  0  0
    0.7062    1.7436    0.3184 C   0  0  0  0  0  0  0  0  0  0  0  0
   -1.6888    0.4089    0.2884 H   0  0  0  0  0  0  0  0  0  0  0  0
   -3.9168    2.0939   -0.6525 H   0  0  0  0  0  0  0  0  0  0  0  0
   -4.1118    1.1143    0.8167 H   0  0  0  0  0  0  0  0  0  0  0  0
   -3.2311   -0.0707   -1.8779 H   0  0  0  0  0  0  0  0  0  0  0  0
   -5.9947    0.2542   -0.6443 H   0  0  0  0  0  0  0  0  0  0  0  0
   -5.5470    0.2986   -2.3583 H   0  0  0  0  0  0  0  0  0  0  0  0
   -5.1060   -2.0910   -2.3655 H   0  0  0  0  0  0  0  0  0  0  0  0
   -6.5658   -1.9934   -1.3568 H   0  0  0  0  0  0  0  0  0  0  0  0
   -5.2282   -1.9940    0.6875 H   0  0  0  0  0  0  0  0  0  0  0  0
   -4.3486   -3.1596   -0.3274 H   0  0  0  0  0  0  0  0  0  0  0  0
   -0.5786    3.3565    3.0305 H   0  0  0  0  0  0  0  0  0  0  0  0
    1.7816    3.2504    3.7323 H   0  0  0  0  0  0  0  0  0  0  0  0
    1.9457   -1.1413    0.9002 H   0  0  0  0  0  0  0  0  0  0  0  0
    3.3474   -2.0217    1.4916 H   0  0  0  0  0  0  0  0  0  0  0  0
    2.3688   -1.9895   -1.4381 H   0  0  0  0  0  0  0  0  0  0  0  0
    2.3111   -3.3336   -0.3017 H   0  0  0  0  0  0  0  0  0  0  0  0
    5.9740   -2.1284   -1.6613 H   0  0  0  0  0  0  0  0  0  0  0  0
    4.5534   -1.2232   -2.1999 H   0  0  0  0  0  0  0  0  0  0  0  0
    5.6644   -1.3550    0.6805 H   0  0  0  0  0  0  0  0  0  0  0  0
    5.8394    0.0303   -0.3893 H   0  0  0  0  0  0  0  0  0  0  0  0
    0.3962    1.3658   -0.6549 H   0  0  0  0  0  0  0  0  0  0  0  0
  1  2  2  0
  2  3  1  0
  3  4  1  0
  4  5  1  0
  5  6  1  0
  6  7  1  0
  7  8  1  0
  8  9  1  0
  2 10  1  0
 10 11  2  0
 11 12  1  0
 12 13  2  0
 13 14  1  0
 13 15  1  0
 15 16  1  0
 16 17  2  0
 16 18  2  0
 16 19  1  0
 19 20  1  0
 20 21  1  0
 21 22  1  0
 22 23  1  0
 23 24  1  0
 15 25  2  0
  9  5  1  0
 25 10  1  0
 24 19  1  0
  3 26  1  0
  4 27  1  0
  4 28  1  0
  5 29  1  0
  6 30  1  0
  6 31  1  0
  7 32  1  0
  7 33  1  0
  8 34  1  0
  8 35  1  0
 11 36  1  0
 12 37  1  0
 20 38  1  0
 20 39  1  0
 21 40  1  0
 21 41  1  0
 23 42  1  0
 23 43  1  0
 24 44  1  0
 24 45  1  0
 25 46  1  0
M  END
$$$$
