
     RDKit          3D

 67 71  0  0  0  0  0  0  0  0999 V2000
   -7.0161    4.2992    1.3331 C   0  0  0  0  0  0  0  0  0  0  0  0
   -5.6530    4.5433    1.0178 O   0  0  0  0  0  0  0  0  0  0  0  0
   -4.8911    3.4741    0.6084 C   0  0  0  0  0  0  0  0  0  0  0  0
   -5.4030    2.1905    0.3810 C   0  0  0  0  0  0  0  0  0  0  0  0
   -4.5309    1.1645   -0.0386 C   0  0  0  0  0  0  0  0  0  0  0  0
   -4.9542   -0.4694   -0.3689 S   0  0  0  0  0  0  0  0  0  0  0  0
   -3.3475   -0.8967   -0.7621 C   0  0  0  0  0  0  0  0  0  0  0  0
   -3.0713   -2.2807   -1.1678 C   0  0  0  0  0  0  0  0  0  0  0  0
   -3.0509   -2.5881   -2.5384 C   0  0  0  0  0  0  0  0  0  0  0  0
   -2.7814   -3.8856   -2.9689 C   0  0  0  0  0  0  0  0  0  0  0  0
   -2.5271   -4.8850   -2.0345 C   0  0  0  0  0  0  0  0  0  0  0  0
   -2.5396   -4.5918   -0.6675 C   0  0  0  0  0  0  0  0  0  0  0  0
   -2.8103   -3.2928   -0.2212 C   0  0  0  0  0  0  0  0  0  0  0  0
   -2.8227   -2.9141    1.0982 O   0  0  0  0  0  0  0  0  0  0  0  0
   -2.6987   -3.9383    2.0748 C   0  0  0  0  0  0  0  0  0  0  0  0
   -2.4907    0.1858   -0.6593 C   0  0  0  0  0  0  0  0  0  0  0  0
   -1.0693    0.0644   -0.9572 C   0  0  0  0  0  0  0  0  0  0  0  0
   -0.2112   -0.5713   -0.0548 C   0  0  0  0  0  0  0  0  0  0  0  0
    1.1553   -0.6821   -0.3353 C   0  0  0  0  0  0  0  0  0  0  0  0
    1.6733   -0.1569   -1.5195 C   0  0  0  0  0  0  0  0  0  0  0  0
    2.9807   -0.1873   -1.9174 O   0  0  0  0  0  0  0  0  0  0  0  0
    3.9264   -0.8987   -1.1134 C   0  0  0  0  0  0  0  0  0  0  0  0
    4.5144    0.0167   -0.0246 C   0  0  0  0  0  0  0  0  0  0  0  0
    5.4377   -0.6659    0.8987 N   0  0  0  0  0  0  0  0  0  0  0  0
    6.6301   -1.1962    0.1988 C   0  0  0  0  0  0  0  0  0  0  0  0
    7.8286   -1.3616    1.1458 C   0  0  0  0  0  0  0  0  0  0  0  0
    8.2798   -0.1125    1.6872 O   0  0  0  0  0  0  0  0  0  0  0  0
    7.2297    0.8545    1.8211 C   0  0  0  0  0  0  0  0  0  0  0  0
    5.8441    0.2188    2.0147 C   0  0  0  0  0  0  0  0  0  0  0  0
    0.8124    0.4853   -2.4150 C   0  0  0  0  0  0  0  0  0  0  0  0
   -0.5524    0.5985   -2.1394 C   0  0  0  0  0  0  0  0  0  0  0  0
   -3.1702    1.3905   -0.2375 C   0  0  0  0  0  0  0  0  0  0  0  0
   -2.6743    2.7007   -0.0027 C   0  0  0  0  0  0  0  0  0  0  0  0
   -3.5263    3.7331    0.4126 C   0  0  0  0  0  0  0  0  0  0  0  0
   -3.1146    5.0213    0.6563 O   0  0  0  0  0  0  0  0  0  0  0  0
   -1.7432    5.3265    0.4481 C   0  0  0  0  0  0  0  0  0  0  0  0
   -7.1119    3.5615    2.1366 H   0  0  0  0  0  0  0  0  0  0  0  0
   -7.4497    5.2377    1.6918 H   0  0  0  0  0  0  0  0  0  0  0  0
   -7.5769    3.9936    0.4439 H   0  0  0  0  0  0  0  0  0  0  0  0
   -6.4528    1.9582    0.5152 H   0  0  0  0  0  0  0  0  0  0  0  0
   -3.2440   -1.8109   -3.2750 H   0  0  0  0  0  0  0  0  0  0  0  0
   -2.7663   -4.1138   -4.0313 H   0  0  0  0  0  0  0  0  0  0  0  0
   -2.3124   -5.8968   -2.3697 H   0  0  0  0  0  0  0  0  0  0  0  0
   -2.3251   -5.4002    0.0230 H   0  0  0  0  0  0  0  0  0  0  0  0
   -2.7913   -3.4720    3.0602 H   0  0  0  0  0  0  0  0  0  0  0  0
   -1.7133   -4.4130    2.0241 H   0  0  0  0  0  0  0  0  0  0  0  0
   -3.5010   -4.6774    1.9796 H   0  0  0  0  0  0  0  0  0  0  0  0
   -0.6026   -0.9868    0.8717 H   0  0  0  0  0  0  0  0  0  0  0  0
    1.7799   -1.1802    0.3986 H   0  0  0  0  0  0  0  0  0  0  0  0
    3.5094   -1.8277   -0.7075 H   0  0  0  0  0  0  0  0  0  0  0  0
    4.7255   -1.2059   -1.7977 H   0  0  0  0  0  0  0  0  0  0  0  0
    4.9992    0.8792   -0.5012 H   0  0  0  0  0  0  0  0  0  0  0  0
    3.6803    0.4338    0.5522 H   0  0  0  0  0  0  0  0  0  0  0  0
    6.9305   -0.5173   -0.6101 H   0  0  0  0  0  0  0  0  0  0  0  0
    6.3839   -2.1666   -0.2454 H   0  0  0  0  0  0  0  0  0  0  0  0
    7.5813   -2.0299    1.9790 H   0  0  0  0  0  0  0  0  0  0  0  0
    8.6722   -1.8087    0.6102 H   0  0  0  0  0  0  0  0  0  0  0  0
    7.2414    1.4957    0.9321 H   0  0  0  0  0  0  0  0  0  0  0  0
    7.4763    1.4864    2.6802 H   0  0  0  0  0  0  0  0  0  0  0  0
    5.8751   -0.4045    2.9172 H   0  0  0  0  0  0  0  0  0  0  0  0
    5.0974    0.9976    2.2087 H   0  0  0  0  0  0  0  0  0  0  0  0
    1.2090    0.8986   -3.3393 H   0  0  0  0  0  0  0  0  0  0  0  0
   -1.2041    1.0979   -2.8521 H   0  0  0  0  0  0  0  0  0  0  0  0
   -1.6136    2.8695   -0.1516 H   0  0  0  0  0  0  0  0  0  0  0  0
   -1.4561    5.1664   -0.5965 H   0  0  0  0  0  0  0  0  0  0  0  0
   -1.5992    6.3878    0.6720 H   0  0  0  0  0  0  0  0  0  0  0  0
   -1.1037    4.7548    1.1285 H   0  0  0  0  0  0  0  0  0  0  0  0
  1  2  1  0
  2  3  1  0
  3  4  2  0
  4  5  1  0
  5  6  1  0
  6  7  1  0
  7  8  1  0
  8  9  2  0
  9 10  1  0
 10 11  2  0
 11 12  1  0
 12 13  2  0
 13 14  1  0
 14 15  1  0
  7 16  2  0
 16 17  1  0
 17 18  2  0
 18 19  1  0
 19 20  2  0
 20 21  1  0
 21 22  1  0
 22 23  1  0
 23 24  1  0
 24 25  1  0
 25 26  1  0
 26 27  1  0
 27 28  1  0
 28 29  1  0
 20 30  1  0
 30 31  2  0
 16 32  1  0
 32 33  1  0
 33 34  2  0
 34 35  1  0
 35 36  1  0
 34  3  1  0
 32  5  2  0
 13  8  1  0
 31 17  1  0
 29 24  1  0
  1 37  1  0
  1 38  1  0
  1 39  1  0
  4 40  1  0
  9 41  1  0
 10 42  1  0
 11 43  1  0
 12 44  1  0
 15 45  1  0
 15 46  1  0
 15 47  1  0
 18 48  1  0
 19 49  1  0
 22 50  1  0
 22 51  1  0
 23 52  1  0
 23 53  1  0
 25 54  1  0
 25 55  1  0
 26 56  1  0
 26 57  1  0
 28 58  1  0
 28 59  1  0
 29 60  1  0
 29 61  1  0
 30 62  1  0
 31 63  1  0
 33 64  1  0
 36 65  1  0
 36 66  1  0
 36 67  1  0
M  END
$$$$
