
     RDKit          3D

 57 58  0  0  0  0  0  0  0  0999 V2000
    6.2357    1.9383   -2.0735 C   0  0  0  0  0  0  0  0  0  0  0  0
    5.5560    2.1104   -0.7422 C   0  0  0  0  0  0  0  0  0  0  0  0
    5.7201    3.3083   -0.0288 C   0  0  0  0  0  0  0  0  0  0  0  0
    5.1009    3.4872    1.2065 C   0  0  0  0  0  0  0  0  0  0  0  0
    4.3141    2.4713    1.7391 C   0  0  0  0  0  0  0  0  0  0  0  0
    4.1435    1.2730    1.0389 C   0  0  0  0  0  0  0  0  0  0  0  0
    4.7605    1.0820   -0.2021 C   0  0  0  0  0  0  0  0  0  0  0  0
    4.6596   -0.0484   -0.9727 O   0  0  0  0  0  0  0  0  0  0  0  0
    3.8442   -1.1277   -0.5195 C   0  0  0  0  0  0  0  0  0  0  0  0
    2.3927   -0.8984   -0.9021 C   0  0  0  0  0  0  0  0  0  0  0  0
    1.5252   -1.9788   -0.3317 C   0  0  0  0  0  0  0  0  0  0  0  0
    0.9637   -2.8399   -0.9920 O   0  0  0  0  0  0  0  0  0  0  0  0
    1.4142   -1.8390    1.0163 O   0  0  0  0  0  0  0  0  0  0  0  0
    0.6108   -2.8224    1.6705 C   0  0  0  0  0  0  0  0  0  0  0  0
   -0.8786   -2.8554    1.3119 C   0  0  0  0  0  0  0  0  0  0  0  0
   -1.5052   -3.9190    1.3168 O   0  0  0  0  0  0  0  0  0  0  0  0
   -1.5440   -1.5757    0.9185 C   0  0  0  0  0  0  0  0  0  0  0  0
   -2.4163   -1.5475   -0.1121 C   0  0  0  0  0  0  0  0  0  0  0  0
   -2.8125   -2.7011   -0.7810 N   0  0  0  0  0  0  0  0  0  0  0  0
   -2.9447   -0.3216   -0.5160 N   0  0  0  0  0  0  0  0  0  0  0  0
   -4.0086   -0.2850   -1.5368 C   0  0  0  0  0  0  0  0  0  0  0  0
   -5.3998   -0.6806   -0.9988 C   0  0  0  0  0  0  0  0  0  0  0  0
   -5.9173    0.3031    0.0521 C   0  0  0  0  0  0  0  0  0  0  0  0
   -6.3946   -0.7704   -2.1579 C   0  0  0  0  0  0  0  0  0  0  0  0
   -2.5670    0.9014    0.0412 C   0  0  0  0  0  0  0  0  0  0  0  0
   -3.0638    1.9735   -0.3107 O   0  0  0  0  0  0  0  0  0  0  0  0
   -1.6038    0.8473    1.0340 N   0  0  0  0  0  0  0  0  0  0  0  0
   -1.2165    2.0994    1.6582 C   0  0  0  0  0  0  0  0  0  0  0  0
   -1.1908   -0.3261    1.6181 C   0  0  0  0  0  0  0  0  0  0  0  0
   -0.5586   -0.3749    2.6727 O   0  0  0  0  0  0  0  0  0  0  0  0
    6.7942    2.8372   -2.3581 H   0  0  0  0  0  0  0  0  0  0  0  0
    5.4933    1.7480   -2.8571 H   0  0  0  0  0  0  0  0  0  0  0  0
    6.9451    1.1039   -2.0321 H   0  0  0  0  0  0  0  0  0  0  0  0
    6.3343    4.1095   -0.4337 H   0  0  0  0  0  0  0  0  0  0  0  0
    5.2353    4.4171    1.7532 H   0  0  0  0  0  0  0  0  0  0  0  0
    3.8326    2.6087    2.7045 H   0  0  0  0  0  0  0  0  0  0  0  0
    3.5203    0.5137    1.4985 H   0  0  0  0  0  0  0  0  0  0  0  0
    3.9959   -1.3371    0.5456 H   0  0  0  0  0  0  0  0  0  0  0  0
    4.2040   -2.0257   -1.0370 H   0  0  0  0  0  0  0  0  0  0  0  0
    2.2856   -0.8917   -1.9933 H   0  0  0  0  0  0  0  0  0  0  0  0
    2.0157    0.0734   -0.5643 H   0  0  0  0  0  0  0  0  0  0  0  0
    0.6938   -2.6611    2.7503 H   0  0  0  0  0  0  0  0  0  0  0  0
    1.0385   -3.8117    1.4645 H   0  0  0  0  0  0  0  0  0  0  0  0
   -2.5733   -2.6630   -1.7687 H   0  0  0  0  0  0  0  0  0  0  0  0
   -2.4151   -3.5568   -0.3746 H   0  0  0  0  0  0  0  0  0  0  0  0
   -4.0664    0.7187   -1.9762 H   0  0  0  0  0  0  0  0  0  0  0  0
   -3.7169   -0.9371   -2.3690 H   0  0  0  0  0  0  0  0  0  0  0  0
   -5.3436   -1.6703   -0.5308 H   0  0  0  0  0  0  0  0  0  0  0  0
   -6.9225    0.0210    0.3847 H   0  0  0  0  0  0  0  0  0  0  0  0
   -5.9686    1.3219   -0.3467 H   0  0  0  0  0  0  0  0  0  0  0  0
   -5.2727    0.3127    0.9369 H   0  0  0  0  0  0  0  0  0  0  0  0
   -6.5067    0.1958   -2.6613 H   0  0  0  0  0  0  0  0  0  0  0  0
   -6.0616   -1.5038   -2.9002 H   0  0  0  0  0  0  0  0  0  0  0  0
   -7.3815   -1.0825   -1.8011 H   0  0  0  0  0  0  0  0  0  0  0  0
   -0.2742    1.9964    2.2039 H   0  0  0  0  0  0  0  0  0  0  0  0
   -1.1002    2.8815    0.9019 H   0  0  0  0  0  0  0  0  0  0  0  0
   -2.0043    2.3977    2.3571 H   0  0  0  0  0  0  0  0  0  0  0  0
  1  2  1  0
  2  3  2  0
  3  4  1  0
  4  5  2  0
  5  6  1  0
  6  7  2  0
  7  8  1  0
  8  9  1  0
  9 10  1  0
 10 11  1  0
 11 12  2  0
 11 13  1  0
 13 14  1  0
 14 15  1  0
 15 16  2  0
 15 17  1  0
 17 18  2  0
 18 19  1  0
 18 20  1  0
 20 21  1  0
 21 22  1  0
 22 23  1  0
 22 24  1  0
 20 25  1  0
 25 26  2  0
 25 27  1  0
 27 28  1  0
 27 29  1  0
 29 30  2  0
  7  2  1  0
 29 17  1  0
  1 31  1  0
  1 32  1  0
  1 33  1  0
  3 34  1  0
  4 35  1  0
  5 36  1  0
  6 37  1  0
  9 38  1  0
  9 39  1  0
 10 40  1  0
 10 41  1  0
 14 42  1  0
 14 43  1  0
 19 44  1  0
 19 45  1  0
 21 46  1  0
 21 47  1  0
 22 48  1  0
 23 49  1  0
 23 50  1  0
 23 51  1  0
 24 52  1  0
 24 53  1  0
 24 54  1  0
 28 55  1  0
 28 56  1  0
 28 57  1  0
M  END
$$$$
