
     RDKit          3D

 22 22  0  0  0  0  0  0  0  0999 V2000
    3.0245    1.0515   -0.1075 C   0  0  0  0  0  0  0  0  0  0  0  0
    1.5299    0.8926   -0.1515 C   0  0  0  0  0  0  0  0  0  0  0  0
    0.8520    1.9420   -0.6840 N   0  0  0  0  0  0  0  0  0  0  0  0
   -0.4866    1.8251   -0.8060 C   0  0  0  0  0  0  0  0  0  0  0  0
   -1.1930    0.7029   -0.4169 C   0  0  0  0  0  0  0  0  0  0  0  0
   -2.6308    0.7025   -0.6977 C   0  0  0  0  0  0  0  0  0  0  0  0
   -3.3923    1.6310   -0.5106 O   0  0  0  0  0  0  0  0  0  0  0  0
   -3.0032   -0.4260   -1.3245 O   0  0  0  0  0  0  0  0  0  0  0  0
   -0.4986   -0.3551    0.1795 C   0  0  0  0  0  0  0  0  0  0  0  0
   -1.2920   -1.4579    0.7753 C   0  0  0  0  0  0  0  0  0  0  0  0
   -2.3951   -1.3487    1.2792 O   0  0  0  0  0  0  0  0  0  0  0  0
   -0.6732   -2.6531    0.7445 O   0  0  0  0  0  0  0  0  0  0  0  0
    0.9044   -0.2737    0.3336 C   0  0  0  0  0  0  0  0  0  0  0  0
    1.6786   -1.3569    0.7855 N   0  0  0  0  0  0  0  0  0  0  0  0
    3.5116    0.2501   -0.6717 H   0  0  0  0  0  0  0  0  0  0  0  0
    3.3275    2.0051   -0.5527 H   0  0  0  0  0  0  0  0  0  0  0  0
    3.3783    1.0382    0.9280 H   0  0  0  0  0  0  0  0  0  0  0  0
   -0.9830    2.6820   -1.2563 H   0  0  0  0  0  0  0  0  0  0  0  0
   -3.9719   -0.3300   -1.4447 H   0  0  0  0  0  0  0  0  0  0  0  0
   -1.3455   -3.2689    1.1083 H   0  0  0  0  0  0  0  0  0  0  0  0
    2.5196   -1.1276    1.3033 H   0  0  0  0  0  0  0  0  0  0  0  0
    1.1393   -2.1253    1.1869 H   0  0  0  0  0  0  0  0  0  0  0  0
  1  2  1  0
  2  3  2  0
  3  4  1  0
  4  5  2  0
  5  6  1  0
  6  7  2  0
  6  8  1  0
  5  9  1  0
  9 10  1  0
 10 11  2  0
 10 12  1  0
  9 13  2  0
 13 14  1  0
 13  2  1  0
  1 15  1  0
  1 16  1  0
  1 17  1  0
  4 18  1  0
  8 19  1  0
 12 20  1  0
 14 21  1  0
 14 22  1  0
M  END
$$$$
