
     RDKit          3D

 48 51  0  0  0  0  0  0  0  0999 V2000
    8.9508   -0.5027    0.4184 C   0  0  0  0  0  0  0  0  0  0  0  0
    8.2695    0.6734    0.0002 O   0  0  0  0  0  0  0  0  0  0  0  0
    6.9033    0.6305    0.0094 C   0  0  0  0  0  0  0  0  0  0  0  0
    6.1172   -0.4506    0.3970 C   0  0  0  0  0  0  0  0  0  0  0  0
    4.7190   -0.3541    0.3559 C   0  0  0  0  0  0  0  0  0  0  0  0
    4.0674    0.8195   -0.0659 C   0  0  0  0  0  0  0  0  0  0  0  0
    2.5916    0.8942   -0.0941 C   0  0  0  0  0  0  0  0  0  0  0  0
    1.8860    2.0732    0.1248 C   0  0  0  0  0  0  0  0  0  0  0  0
    0.4914    2.0519    0.0826 C   0  0  0  0  0  0  0  0  0  0  0  0
   -0.1919    0.8565   -0.1732 C   0  0  0  0  0  0  0  0  0  0  0  0
   -1.6472    0.8430   -0.2066 C   0  0  0  0  0  0  0  0  0  0  0  0
   -2.3823    1.9338   -0.4858 N   0  0  0  0  0  0  0  0  0  0  0  0
   -3.6968    1.4817   -0.3893 O   0  0  0  0  0  0  0  0  0  0  0  0
   -3.6389    0.1647   -0.0374 C   0  0  0  0  0  0  0  0  0  0  0  0
   -4.8917   -0.5785    0.1119 C   0  0  0  0  0  0  0  0  0  0  0  0
   -4.7992   -1.9825    0.2092 C   0  0  0  0  0  0  0  0  0  0  0  0
   -5.9356   -2.7783    0.3480 C   0  0  0  0  0  0  0  0  0  0  0  0
   -7.1885   -2.1823    0.3954 C   0  0  0  0  0  0  0  0  0  0  0  0
   -7.3060   -0.7933    0.3078 C   0  0  0  0  0  0  0  0  0  0  0  0
   -6.1697    0.0191    0.1678 C   0  0  0  0  0  0  0  0  0  0  0  0
   -6.2273    1.3871    0.0981 O   0  0  0  0  0  0  0  0  0  0  0  0
   -7.5055    2.0089    0.0971 C   0  0  0  0  0  0  0  0  0  0  0  0
   -2.4024   -0.2682    0.0896 N   0  0  0  0  0  0  0  0  0  0  0  0
    0.5894   -0.2779   -0.3835 C   0  0  0  0  0  0  0  0  0  0  0  0
   -0.0384   -1.4690   -0.6895 O   0  0  0  0  0  0  0  0  0  0  0  0
    0.8526   -2.5632   -0.8693 C   0  0  0  0  0  0  0  0  0  0  0  0
    1.9486   -0.2738   -0.3413 N   0  0  0  0  0  0  0  0  0  0  0  0
    4.8813    1.8945   -0.4605 C   0  0  0  0  0  0  0  0  0  0  0  0
    6.2779    1.8003   -0.4206 C   0  0  0  0  0  0  0  0  0  0  0  0
   10.0255   -0.3085    0.3501 H   0  0  0  0  0  0  0  0  0  0  0  0
    8.7214   -0.7418    1.4621 H   0  0  0  0  0  0  0  0  0  0  0  0
    8.7226   -1.3469   -0.2407 H   0  0  0  0  0  0  0  0  0  0  0  0
    6.5513   -1.3851    0.7356 H   0  0  0  0  0  0  0  0  0  0  0  0
    4.1281   -1.2160    0.6642 H   0  0  0  0  0  0  0  0  0  0  0  0
    2.3967    3.0048    0.3458 H   0  0  0  0  0  0  0  0  0  0  0  0
   -0.0563    2.9755    0.2607 H   0  0  0  0  0  0  0  0  0  0  0  0
   -3.8225   -2.4655    0.1729 H   0  0  0  0  0  0  0  0  0  0  0  0
   -5.8382   -3.8587    0.4187 H   0  0  0  0  0  0  0  0  0  0  0  0
   -8.0789   -2.7969    0.5046 H   0  0  0  0  0  0  0  0  0  0  0  0
   -8.3059   -0.3741    0.3577 H   0  0  0  0  0  0  0  0  0  0  0  0
   -8.0311    1.8298    1.0406 H   0  0  0  0  0  0  0  0  0  0  0  0
   -8.1037    1.6829   -0.7602 H   0  0  0  0  0  0  0  0  0  0  0  0
   -7.3513    3.0881    0.0030 H   0  0  0  0  0  0  0  0  0  0  0  0
    1.4228   -2.7667    0.0438 H   0  0  0  0  0  0  0  0  0  0  0  0
    0.2501   -3.4502   -1.0881 H   0  0  0  0  0  0  0  0  0  0  0  0
    1.5194   -2.3966   -1.7223 H   0  0  0  0  0  0  0  0  0  0  0  0
    4.4431    2.8204   -0.8255 H   0  0  0  0  0  0  0  0  0  0  0  0
    6.8825    2.6479   -0.7349 H   0  0  0  0  0  0  0  0  0  0  0  0
  1  2  1  0
  2  3  1  0
  3  4  2  0
  4  5  1  0
  5  6  2  0
  6  7  1  0
  7  8  2  0
  8  9  1  0
  9 10  2  0
 10 11  1  0
 11 12  2  0
 12 13  1  0
 13 14  1  0
 14 15  1  0
 15 16  2  0
 16 17  1  0
 17 18  2  0
 18 19  1  0
 19 20  2  0
 20 21  1  0
 21 22  1  0
 14 23  2  0
 10 24  1  0
 24 25  1  0
 25 26  1  0
 24 27  2  0
  6 28  1  0
 28 29  2  0
 29  3  1  0
 27  7  1  0
 23 11  1  0
 20 15  1  0
  1 30  1  0
  1 31  1  0
  1 32  1  0
  4 33  1  0
  5 34  1  0
  8 35  1  0
  9 36  1  0
 16 37  1  0
 17 38  1  0
 18 39  1  0
 19 40  1  0
 22 41  1  0
 22 42  1  0
 22 43  1  0
 26 44  1  0
 26 45  1  0
 26 46  1  0
 28 47  1  0
 29 48  1  0
M  END
$$$$
