
     RDKit          3D

 43 45  0  0  0  0  0  0  0  0999 V2000
   -3.2033   -2.7483   -0.7441 C   0  0  0  0  0  0  0  0  0  0  0  0
   -2.1891   -2.1751    0.1444 N   0  0  0  0  0  0  0  0  0  0  0  0
   -1.5747   -3.2366    0.9435 C   0  0  0  0  0  0  0  0  0  0  0  0
   -2.7742   -1.1525    1.0342 C   0  0  0  0  0  0  0  0  0  0  0  0
   -3.1522    0.1181    0.3155 C   0  0  0  0  0  0  0  0  0  0  0  0
   -4.4865    0.5046    0.1000 C   0  0  0  0  0  0  0  0  0  0  0  0
   -5.4876   -0.3027    0.5686 O   0  0  0  0  0  0  0  0  0  0  0  0
   -4.8230    1.6923   -0.5833 C   0  0  0  0  0  0  0  0  0  0  0  0
   -3.8231    2.5335   -1.0744 C   0  0  0  0  0  0  0  0  0  0  0  0
   -2.5168    2.1468   -0.8565 C   0  0  0  0  0  0  0  0  0  0  0  0
   -2.1803    0.9749   -0.1802 C   0  0  0  0  0  0  0  0  0  0  0  0
   -0.8170    0.7964   -0.0728 O   0  0  0  0  0  0  0  0  0  0  0  0
   -0.2348    1.8861   -0.7097 C   0  0  0  0  0  0  0  0  0  0  0  0
    1.0799    2.1026   -0.8434 C   0  0  0  0  0  0  0  0  0  0  0  0
    2.1011    1.2111   -0.3369 C   0  0  0  0  0  0  0  0  0  0  0  0
    3.4134    1.4553   -0.4778 C   0  0  0  0  0  0  0  0  0  0  0  0
    4.4711    0.5689    0.0288 C   0  0  0  0  0  0  0  0  0  0  0  0
    4.3703   -0.8274   -0.0321 C   0  0  0  0  0  0  0  0  0  0  0  0
    5.4108   -1.6364    0.4323 C   0  0  0  0  0  0  0  0  0  0  0  0
    6.5664   -1.0578    0.9527 C   0  0  0  0  0  0  0  0  0  0  0  0
    6.6852    0.3293    1.0042 C   0  0  0  0  0  0  0  0  0  0  0  0
    5.6452    1.1383    0.5391 C   0  0  0  0  0  0  0  0  0  0  0  0
   -1.2743    2.8053   -1.2389 C   0  0  0  0  0  0  0  0  0  0  0  0
   -1.1439    3.8499   -1.8386 O   0  0  0  0  0  0  0  0  0  0  0  0
   -2.7580   -3.5166   -1.3866 H   0  0  0  0  0  0  0  0  0  0  0  0
   -3.6139   -1.9907   -1.4196 H   0  0  0  0  0  0  0  0  0  0  0  0
   -4.0308   -3.2051   -0.1891 H   0  0  0  0  0  0  0  0  0  0  0  0
   -0.7755   -2.8309    1.5741 H   0  0  0  0  0  0  0  0  0  0  0  0
   -1.1075   -3.9861    0.2948 H   0  0  0  0  0  0  0  0  0  0  0  0
   -2.3013   -3.7433    1.5891 H   0  0  0  0  0  0  0  0  0  0  0  0
   -3.6253   -1.5626    1.5929 H   0  0  0  0  0  0  0  0  0  0  0  0
   -2.0389   -0.8678    1.8000 H   0  0  0  0  0  0  0  0  0  0  0  0
   -6.3470    0.0859    0.3348 H   0  0  0  0  0  0  0  0  0  0  0  0
   -5.8625    1.9692   -0.7386 H   0  0  0  0  0  0  0  0  0  0  0  0
   -4.0552    3.4514   -1.6039 H   0  0  0  0  0  0  0  0  0  0  0  0
    1.4091    2.9989   -1.3665 H   0  0  0  0  0  0  0  0  0  0  0  0
    1.7609    0.3172    0.1830 H   0  0  0  0  0  0  0  0  0  0  0  0
    3.7576    2.3601   -0.9737 H   0  0  0  0  0  0  0  0  0  0  0  0
    3.4863   -1.3014   -0.4520 H   0  0  0  0  0  0  0  0  0  0  0  0
    5.3194   -2.7182    0.3815 H   0  0  0  0  0  0  0  0  0  0  0  0
    7.3758   -1.6874    1.3129 H   0  0  0  0  0  0  0  0  0  0  0  0
    7.5876    0.7835    1.4049 H   0  0  0  0  0  0  0  0  0  0  0  0
    5.7568    2.2191    0.5876 H   0  0  0  0  0  0  0  0  0  0  0  0
  1  2  1  0
  2  3  1  0
  2  4  1  0
  4  5  1  0
  5  6  2  0
  6  7  1  0
  6  8  1  0
  8  9  2  0
  9 10  1  0
 10 11  2  0
 11 12  1  0
 12 13  1  0
 13 14  2  3
 14 15  1  0
 15 16  2  3
 16 17  1  0
 17 18  2  0
 18 19  1  0
 19 20  2  0
 20 21  1  0
 21 22  2  0
 13 23  1  0
 23 24  2  0
 11  5  1  0
 22 17  1  0
 23 10  1  0
  1 25  1  0
  1 26  1  0
  1 27  1  0
  3 28  1  0
  3 29  1  0
  3 30  1  0
  4 31  1  0
  4 32  1  0
  7 33  1  0
  8 34  1  0
  9 35  1  0
 14 36  1  0
 15 37  1  0
 16 38  1  0
 18 39  1  0
 19 40  1  0
 20 41  1  0
 21 42  1  0
 22 43  1  0
M  END
$$$$
