
     RDKit          3D

 43 46  0  0  0  0  0  0  0  0999 V2000
   -2.2101   -2.8034   -0.5994 C   0  0  0  0  0  0  0  0  0  0  0  0
   -1.9225   -2.1385    0.7334 C   0  0  0  0  0  0  0  0  0  0  0  0
   -1.9116   -0.7114    0.5818 O   0  0  0  0  0  0  0  0  0  0  0  0
   -3.1204   -0.0924    0.6808 C   0  0  0  0  0  0  0  0  0  0  0  0
   -4.1739   -0.6721    0.9118 O   0  0  0  0  0  0  0  0  0  0  0  0
   -2.9947    1.3421    0.4653 C   0  0  0  0  0  0  0  0  0  0  0  0
   -4.0777    2.2136    0.3938 C   0  0  0  0  0  0  0  0  0  0  0  0
   -3.5550    3.5067    0.1370 C   0  0  0  0  0  0  0  0  0  0  0  0
   -4.1213    5.1241   -0.1077 S   0  0  0  0  0  0  0  0  0  0  0  0
   -2.4999    5.6535   -0.3227 C   0  0  0  0  0  0  0  0  0  0  0  0
   -1.5586    4.6527   -0.2073 C   0  0  0  0  0  0  0  0  0  0  0  0
   -2.1995    3.4109    0.0662 C   0  0  0  0  0  0  0  0  0  0  0  0
   -1.8426    2.0946    0.2891 N   0  0  0  0  0  0  0  0  0  0  0  0
   -0.4525    1.6675    0.3743 C   0  0  0  0  0  0  0  0  0  0  0  0
    0.0381    1.0016   -0.8957 C   0  0  0  0  0  0  0  0  0  0  0  0
   -0.4065    1.2747   -2.0095 O   0  0  0  0  0  0  0  0  0  0  0  0
    1.1273   -0.0133   -0.7925 C   0  0  0  0  0  0  0  0  0  0  0  0
    1.3175   -0.8948   -1.8677 C   0  0  0  0  0  0  0  0  0  0  0  0
    2.3183   -1.8678   -1.8178 C   0  0  0  0  0  0  0  0  0  0  0  0
    3.1392   -1.9580   -0.6978 C   0  0  0  0  0  0  0  0  0  0  0  0
    2.9438   -1.0926    0.3829 C   0  0  0  0  0  0  0  0  0  0  0  0
    1.9537   -0.1102    0.3327 C   0  0  0  0  0  0  0  0  0  0  0  0
    3.6959   -1.1417    1.5292 O   0  0  0  0  0  0  0  0  0  0  0  0
    4.4384   -2.3646    1.6184 C   0  0  0  0  0  0  0  0  0  0  0  0
    5.1004   -2.6916    0.2902 C   0  0  0  0  0  0  0  0  0  0  0  0
    4.1134   -2.9212   -0.7221 O   0  0  0  0  0  0  0  0  0  0  0  0
   -3.2028   -2.5288   -0.9697 H   0  0  0  0  0  0  0  0  0  0  0  0
   -2.1597   -3.8920   -0.5086 H   0  0  0  0  0  0  0  0  0  0  0  0
   -1.4886   -2.4781   -1.3558 H   0  0  0  0  0  0  0  0  0  0  0  0
   -2.6350   -2.4542    1.5039 H   0  0  0  0  0  0  0  0  0  0  0  0
   -0.9254   -2.4291    1.0808 H   0  0  0  0  0  0  0  0  0  0  0  0
   -5.1204    1.9410    0.4992 H   0  0  0  0  0  0  0  0  0  0  0  0
   -2.3189    6.6990   -0.5312 H   0  0  0  0  0  0  0  0  0  0  0  0
   -0.4940    4.8084   -0.3203 H   0  0  0  0  0  0  0  0  0  0  0  0
   -0.3796    1.0110    1.2452 H   0  0  0  0  0  0  0  0  0  0  0  0
    0.1712    2.5461    0.5695 H   0  0  0  0  0  0  0  0  0  0  0  0
    0.6845   -0.8278   -2.7518 H   0  0  0  0  0  0  0  0  0  0  0  0
    2.4632   -2.5438   -2.6565 H   0  0  0  0  0  0  0  0  0  0  0  0
    1.8550    0.5601    1.1805 H   0  0  0  0  0  0  0  0  0  0  0  0
    5.1961   -2.2360    2.3976 H   0  0  0  0  0  0  0  0  0  0  0  0
    3.7554   -3.1632    1.9337 H   0  0  0  0  0  0  0  0  0  0  0  0
    5.7012   -3.6021    0.3806 H   0  0  0  0  0  0  0  0  0  0  0  0
    5.7584   -1.8790   -0.0416 H   0  0  0  0  0  0  0  0  0  0  0  0
  1  2  1  0
  2  3  1  0
  3  4  1  0
  4  5  2  0
  4  6  1  0
  6  7  2  0
  7  8  1  0
  8  9  1  0
  9 10  1  0
 10 11  2  0
 11 12  1  0
 12 13  1  0
 13 14  1  0
 14 15  1  0
 15 16  2  0
 15 17  1  0
 17 18  2  0
 18 19  1  0
 19 20  2  0
 20 21  1  0
 21 22  2  0
 21 23  1  0
 23 24  1  0
 24 25  1  0
 25 26  1  0
 13  6  1  0
 22 17  1  0
 12  8  2  0
 26 20  1  0
  1 27  1  0
  1 28  1  0
  1 29  1  0
  2 30  1  0
  2 31  1  0
  7 32  1  0
 10 33  1  0
 11 34  1  0
 14 35  1  0
 14 36  1  0
 18 37  1  0
 19 38  1  0
 22 39  1  0
 24 40  1  0
 24 41  1  0
 25 42  1  0
 25 43  1  0
M  END
$$$$
