
     RDKit          3D

 55 57  0  0  0  0  0  0  0  0999 V2000
    1.3307    0.0991    0.6985 O   0  0  0  0  0  0  0  0  0  0  0  0
    1.3221   -0.2749   -0.4725 C   0  0  0  0  0  0  0  0  0  0  0  0
    0.1995   -1.1401   -1.0542 C   0  0  0  0  0  0  0  0  0  0  0  0
   -0.9641   -1.1222   -0.2297 O   0  0  0  0  0  0  0  0  0  0  0  0
   -1.6528    0.0601   -0.2811 C   0  0  0  0  0  0  0  0  0  0  0  0
   -1.3937    0.9622   -1.0685 O   0  0  0  0  0  0  0  0  0  0  0  0
   -2.7143    0.1409    0.8307 C   0  0  0  0  0  0  0  0  0  0  0  0
   -2.2095    1.0519    1.9599 C   0  0  0  0  0  0  0  0  0  0  0  0
   -2.2665    2.5254    1.6399 C   0  0  0  0  0  0  0  0  0  0  0  0
   -3.4869    3.2139    1.6759 C   0  0  0  0  0  0  0  0  0  0  0  0
   -3.5387    4.5760    1.3763 C   0  0  0  0  0  0  0  0  0  0  0  0
   -2.3736    5.2612    1.0371 C   0  0  0  0  0  0  0  0  0  0  0  0
   -1.1558    4.5851    0.9963 C   0  0  0  0  0  0  0  0  0  0  0  0
   -1.1010    3.2234    1.2965 C   0  0  0  0  0  0  0  0  0  0  0  0
   -2.9933   -1.1937    1.3825 N   0  0  0  0  0  0  0  0  0  0  0  0
   -3.9119   -2.0336    0.7868 C   0  0  0  0  0  0  0  0  0  0  0  0
   -4.6763   -1.6278   -0.0854 O   0  0  0  0  0  0  0  0  0  0  0  0
   -3.8971   -3.4187    1.2406 C   0  0  0  0  0  0  0  0  0  0  0  0
   -4.7294   -4.4365    0.8089 C   0  0  0  0  0  0  0  0  0  0  0  0
   -4.4562   -5.6803    1.4474 C   0  0  0  0  0  0  0  0  0  0  0  0
   -3.4206   -5.5772    2.3478 C   0  0  0  0  0  0  0  0  0  0  0  0
   -2.7872   -3.9910    2.4170 S   0  0  0  0  0  0  0  0  0  0  0  0
    2.3195    0.0307   -1.3764 N   0  0  0  0  0  0  0  0  0  0  0  0
    3.5051    0.7908   -0.9925 C   0  0  0  0  0  0  0  0  0  0  0  0
    4.5297   -0.1129   -0.2995 C   0  0  0  0  0  0  0  0  0  0  0  0
    5.1007   -1.1855   -1.2319 C   0  0  0  0  0  0  0  0  0  0  0  0
    5.2036   -0.7418   -2.6918 C   0  0  0  0  0  0  0  0  0  0  0  0
    5.3168    0.7696   -2.8246 C   0  0  0  0  0  0  0  0  0  0  0  0
    4.1182    1.5007   -2.2116 C   0  0  0  0  0  0  0  0  0  0  0  0
    0.5621   -2.1729   -1.0870 H   0  0  0  0  0  0  0  0  0  0  0  0
   -0.0413   -0.8381   -2.0801 H   0  0  0  0  0  0  0  0  0  0  0  0
   -3.6359    0.5251    0.3793 H   0  0  0  0  0  0  0  0  0  0  0  0
   -2.8102    0.8878    2.8656 H   0  0  0  0  0  0  0  0  0  0  0  0
   -1.1850    0.7737    2.2423 H   0  0  0  0  0  0  0  0  0  0  0  0
   -4.4058    2.6941    1.9380 H   0  0  0  0  0  0  0  0  0  0  0  0
   -4.4891    5.1023    1.4050 H   0  0  0  0  0  0  0  0  0  0  0  0
   -2.4149    6.3208    0.8002 H   0  0  0  0  0  0  0  0  0  0  0  0
   -0.2471    5.1156    0.7249 H   0  0  0  0  0  0  0  0  0  0  0  0
   -0.1427    2.7080    1.2488 H   0  0  0  0  0  0  0  0  0  0  0  0
   -2.2422   -1.6508    1.8867 H   0  0  0  0  0  0  0  0  0  0  0  0
   -5.5032   -4.2847    0.0641 H   0  0  0  0  0  0  0  0  0  0  0  0
   -4.9929   -6.6017    1.2555 H   0  0  0  0  0  0  0  0  0  0  0  0
   -3.0043   -6.3577    2.9702 H   0  0  0  0  0  0  0  0  0  0  0  0
    2.2884   -0.3825   -2.2996 H   0  0  0  0  0  0  0  0  0  0  0  0
    3.1724    1.5558   -0.2797 H   0  0  0  0  0  0  0  0  0  0  0  0
    4.0957   -0.5973    0.5832 H   0  0  0  0  0  0  0  0  0  0  0  0
    5.3546    0.5114    0.0683 H   0  0  0  0  0  0  0  0  0  0  0  0
    4.4829   -2.0905   -1.1814 H   0  0  0  0  0  0  0  0  0  0  0  0
    6.0922   -1.4755   -0.8632 H   0  0  0  0  0  0  0  0  0  0  0  0
    4.3198   -1.0867   -3.2424 H   0  0  0  0  0  0  0  0  0  0  0  0
    6.0657   -1.2283   -3.1623 H   0  0  0  0  0  0  0  0  0  0  0  0
    5.4162    1.0505   -3.8793 H   0  0  0  0  0  0  0  0  0  0  0  0
    6.2366    1.1039   -2.3278 H   0  0  0  0  0  0  0  0  0  0  0  0
    4.4577    2.5004   -1.9114 H   0  0  0  0  0  0  0  0  0  0  0  0
    3.3534    1.6623   -2.9819 H   0  0  0  0  0  0  0  0  0  0  0  0
  1  2  2  0
  2  3  1  0
  3  4  1  0
  4  5  1  0
  5  6  2  0
  5  7  1  0
  7  8  1  0
  8  9  1  0
  9 10  2  0
 10 11  1  0
 11 12  2  0
 12 13  1  0
 13 14  2  0
  7 15  1  0
 15 16  1  0
 16 17  2  0
 16 18  1  0
 18 19  2  0
 19 20  1  0
 20 21  2  0
 21 22  1  0
  2 23  1  0
 23 24  1  0
 24 25  1  0
 25 26  1  0
 26 27  1  0
 27 28  1  0
 28 29  1  0
 14  9  1  0
 22 18  1  0
 29 24  1  0
  3 30  1  0
  3 31  1  0
  7 32  1  0
  8 33  1  0
  8 34  1  0
 10 35  1  0
 11 36  1  0
 12 37  1  0
 13 38  1  0
 14 39  1  0
 15 40  1  0
 19 41  1  0
 20 42  1  0
 21 43  1  0
 23 44  1  0
 24 45  1  0
 25 46  1  0
 25 47  1  0
 26 48  1  0
 26 49  1  0
 27 50  1  0
 27 51  1  0
 28 52  1  0
 28 53  1  0
 29 54  1  0
 29 55  1  0
M  END
$$$$
