
     RDKit          3D

 43 45  0  0  0  0  0  0  0  0999 V2000
    3.9351    2.9375    0.0613 C   0  0  0  0  0  0  0  0  0  0  0  0
    3.2718    1.6086    0.3169 C   0  0  0  0  0  0  0  0  0  0  0  0
    3.4507    0.5503   -0.7212 C   0  0  0  0  0  0  0  0  0  0  0  0
    2.8731   -0.6429   -0.4914 C   0  0  0  0  0  0  0  0  0  0  0  0
    3.0158   -1.7523   -1.4868 C   0  0  0  0  0  0  0  0  0  0  0  0
    2.1355   -0.8005    0.6976 N   0  0  0  0  0  0  0  0  0  0  0  0
    1.3826   -1.8147    1.2588 C   0  0  0  0  0  0  0  0  0  0  0  0
    1.0234   -3.3355    0.5179 S   0  0  0  0  0  0  0  0  0  0  0  0
   -0.7903   -3.2419    0.4546 C   0  0  0  0  0  0  0  0  0  0  0  0
   -1.2572   -1.8899   -0.0831 C   0  0  0  0  0  0  0  0  0  0  0  0
   -0.9161   -1.5507   -1.2236 O   0  0  0  0  0  0  0  0  0  0  0  0
   -2.0594   -1.0631    0.6987 N   0  0  0  0  0  0  0  0  0  0  0  0
   -2.2940   -1.2459    2.1283 C   0  0  0  0  0  0  0  0  0  0  0  0
   -2.5362    0.2234    0.1664 C   0  0  0  0  0  0  0  0  0  0  0  0
   -1.4221    1.2614   -0.0537 C   0  0  0  0  0  0  0  0  0  0  0  0
   -2.1136    2.4922   -0.6303 C   0  0  0  0  0  0  0  0  0  0  0  0
   -3.4572    1.8654   -1.6327 S   0  0  0  0  0  6  0  0  0  0  0  0
   -3.1040    1.9964   -3.0345 O   0  0  0  0  0  0  0  0  0  0  0  0
   -4.7014    2.3832   -1.0999 O   0  0  0  0  0  0  0  0  0  0  0  0
   -3.3196    0.1533   -1.1467 C   0  0  0  0  0  0  0  0  0  0  0  0
    0.8656   -1.4352    2.4014 N   0  0  0  0  0  0  0  0  0  0  0  0
    1.2514   -0.1414    2.6210 N   0  0  0  0  0  0  0  0  0  0  0  0
    2.0101    0.2477    1.6164 C   0  0  0  0  0  0  0  0  0  0  0  0
    2.5912    1.4640    1.4131 N   0  0  0  0  0  0  0  0  0  0  0  0
    4.5366    3.2193    0.9303 H   0  0  0  0  0  0  0  0  0  0  0  0
    4.5856    2.8892   -0.8123 H   0  0  0  0  0  0  0  0  0  0  0  0
    3.1718    3.6989   -0.1076 H   0  0  0  0  0  0  0  0  0  0  0  0
    4.0350    0.7731   -1.6047 H   0  0  0  0  0  0  0  0  0  0  0  0
    3.6466   -1.4546   -2.3323 H   0  0  0  0  0  0  0  0  0  0  0  0
    3.4913   -2.6266   -1.0313 H   0  0  0  0  0  0  0  0  0  0  0  0
    2.0420   -2.0325   -1.9075 H   0  0  0  0  0  0  0  0  0  0  0  0
   -1.1403   -4.0021   -0.2457 H   0  0  0  0  0  0  0  0  0  0  0  0
   -1.2012   -3.5174    1.4178 H   0  0  0  0  0  0  0  0  0  0  0  0
   -1.8004   -2.1144    2.5572 H   0  0  0  0  0  0  0  0  0  0  0  0
   -3.3753   -1.3339    2.2908 H   0  0  0  0  0  0  0  0  0  0  0  0
   -1.9259   -0.3617    2.6601 H   0  0  0  0  0  0  0  0  0  0  0  0
   -3.2255    0.6349    0.9201 H   0  0  0  0  0  0  0  0  0  0  0  0
   -0.6712    0.8948   -0.7669 H   0  0  0  0  0  0  0  0  0  0  0  0
   -0.8973    1.5035    0.8763 H   0  0  0  0  0  0  0  0  0  0  0  0
   -2.5483    3.1074    0.1655 H   0  0  0  0  0  0  0  0  0  0  0  0
   -1.4420    3.0986   -1.2460 H   0  0  0  0  0  0  0  0  0  0  0  0
   -4.3156   -0.2764   -1.0171 H   0  0  0  0  0  0  0  0  0  0  0  0
   -2.8013   -0.3694   -1.9537 H   0  0  0  0  0  0  0  0  0  0  0  0
  1  2  1  0
  2  3  1  0
  3  4  2  0
  4  5  1  0
  4  6  1  0
  6  7  1  0
  7  8  1  0
  8  9  1  0
  9 10  1  0
 10 11  2  0
 10 12  1  0
 12 13  1  0
 12 14  1  0
 14 15  1  0
 15 16  1  0
 16 17  1  0
 17 18  2  0
 17 19  2  0
 17 20  1  0
  7 21  2  0
 21 22  1  0
 22 23  2  0
 23 24  1  0
 24  2  2  0
 23  6  1  0
 20 14  1  0
  1 25  1  0
  1 26  1  0
  1 27  1  0
  3 28  1  0
  5 29  1  0
  5 30  1  0
  5 31  1  0
  9 32  1  0
  9 33  1  0
 13 34  1  0
 13 35  1  0
 13 36  1  0
 14 37  1  0
 15 38  1  0
 15 39  1  0
 16 40  1  0
 16 41  1  0
 20 42  1  0
 20 43  1  0
M  END
$$$$
