
     RDKit          3D

 42 44  0  0  0  0  0  0  0  0999 V2000
   -7.6995    0.0667    1.0107 N   0  0  0  0  0  0  0  0  0  0  0  0
   -6.6051   -0.1776    0.7132 C   0  0  0  0  0  0  0  0  0  0  0  0
   -5.2193   -0.4878    0.3375 C   0  0  0  0  0  0  0  0  0  0  0  0
   -4.4516    0.8034    0.0196 C   0  0  0  0  0  0  0  0  0  0  0  0
   -3.0543    0.6533   -0.4037 N   0  0  0  0  0  0  0  0  0  0  0  0
   -2.8609   -0.0710   -1.6693 C   0  0  0  0  0  0  0  0  0  0  0  0
   -2.1236   -1.4192   -1.5442 C   0  0  0  0  0  0  0  0  0  0  0  0
   -0.8406   -1.3082   -0.8280 N   0  0  0  0  0  0  0  0  0  0  0  0
    0.1840   -2.2592   -0.9652 C   0  0  0  0  0  0  0  0  0  0  0  0
   -0.0163   -3.7529   -1.7257 S   0  0  0  0  0  0  0  0  0  0  0  0
    1.5093   -1.9711   -0.4342 C   0  0  0  0  0  0  0  0  0  0  0  0
    2.5158   -2.7693    0.0860 C   0  0  0  0  0  0  0  0  0  0  0  0
    3.5980   -1.9169    0.4174 C   0  0  0  0  0  0  0  0  0  0  0  0
    3.2141   -0.6378    0.0733 C   0  0  0  0  0  0  0  0  0  0  0  0
    3.8448    0.6780    0.1473 C   0  0  0  0  0  0  0  0  0  0  0  0
    3.2390    1.8077   -0.4238 C   0  0  0  0  0  0  0  0  0  0  0  0
    3.8464    3.0656   -0.3511 C   0  0  0  0  0  0  0  0  0  0  0  0
    5.0735    3.2154    0.2958 C   0  0  0  0  0  0  0  0  0  0  0  0
    5.7686    4.7950    0.3510 Cl  0  0  0  0  0  0  0  0  0  0  0  0
    5.6912    2.1006    0.8691 C   0  0  0  0  0  0  0  0  0  0  0  0
    7.2105    2.2039    1.6876 Cl  0  0  0  0  0  0  0  0  0  0  0  0
    5.0792    0.8422    0.7933 C   0  0  0  0  0  0  0  0  0  0  0  0
    1.9519   -0.6720   -0.4442 O   0  0  0  0  0  0  0  0  0  0  0  0
   -0.7575   -0.1935    0.1327 C   0  0  0  0  0  0  0  0  0  0  0  0
   -2.1440    0.2184    0.6644 C   0  0  0  0  0  0  0  0  0  0  0  0
   -5.2244   -1.1562   -0.5302 H   0  0  0  0  0  0  0  0  0  0  0  0
   -4.7412   -1.0297    1.1599 H   0  0  0  0  0  0  0  0  0  0  0  0
   -4.9861    1.3552   -0.7660 H   0  0  0  0  0  0  0  0  0  0  0  0
   -4.4807    1.4678    0.8943 H   0  0  0  0  0  0  0  0  0  0  0  0
   -3.8069   -0.2192   -2.2035 H   0  0  0  0  0  0  0  0  0  0  0  0
   -2.2579    0.5808   -2.3149 H   0  0  0  0  0  0  0  0  0  0  0  0
   -1.9527   -1.8213   -2.5481 H   0  0  0  0  0  0  0  0  0  0  0  0
   -2.7441   -2.1356   -0.9921 H   0  0  0  0  0  0  0  0  0  0  0  0
    2.4740   -3.8429    0.2134 H   0  0  0  0  0  0  0  0  0  0  0  0
    4.5454   -2.2121    0.8459 H   0  0  0  0  0  0  0  0  0  0  0  0
    2.2842    1.7195   -0.9403 H   0  0  0  0  0  0  0  0  0  0  0  0
    3.3544    3.9227   -0.8052 H   0  0  0  0  0  0  0  0  0  0  0  0
    5.5769   -0.0112    1.2481 H   0  0  0  0  0  0  0  0  0  0  0  0
   -0.1277   -0.4792    0.9813 H   0  0  0  0  0  0  0  0  0  0  0  0
   -0.2863    0.6518   -0.3825 H   0  0  0  0  0  0  0  0  0  0  0  0
   -2.0206    1.0344    1.3855 H   0  0  0  0  0  0  0  0  0  0  0  0
   -2.5601   -0.6383    1.2073 H   0  0  0  0  0  0  0  0  0  0  0  0
  1  2  3  0
  2  3  1  0
  3  4  1  0
  4  5  1  0
  5  6  1  0
  6  7  1  0
  7  8  1  0
  8  9  1  0
  9 10  2  0
  9 11  1  0
 11 12  2  0
 12 13  1  0
 13 14  2  0
 14 15  1  0
 15 16  2  0
 16 17  1  0
 17 18  2  0
 18 19  1  0
 18 20  1  0
 20 21  1  0
 20 22  2  0
 14 23  1  0
  8 24  1  0
 24 25  1  0
 25  5  1  0
 23 11  1  0
 22 15  1  0
  3 26  1  0
  3 27  1  0
  4 28  1  0
  4 29  1  0
  6 30  1  0
  6 31  1  0
  7 32  1  0
  7 33  1  0
 12 34  1  0
 13 35  1  0
 16 36  1  0
 17 37  1  0
 22 38  1  0
 24 39  1  0
 24 40  1  0
 25 41  1  0
 25 42  1  0
M  END
$$$$
