
     RDKit          3D

 53 56  0  0  0  0  0  0  0  0999 V2000
    0.1938    0.4667    3.5277 O   0  0  0  0  0  0  0  0  0  0  0  0
    0.5735   -0.1071    2.5060 C   0  0  0  0  0  0  0  0  0  0  0  0
    0.3376   -1.5937    2.3006 C   0  0  0  0  0  0  0  0  0  0  0  0
   -0.7103   -2.1145    3.2795 C   0  0  0  0  0  0  0  0  0  0  0  0
   -1.1476   -3.8567    2.9440 S   0  0  0  0  0  0  0  0  0  0  0  0
   -2.4248   -3.6217    1.7350 C   0  0  0  0  0  0  0  0  0  0  0  0
   -2.2919   -2.6291    0.8512 N   0  0  0  0  0  0  0  0  0  0  0  0
   -3.2658   -2.4779   -0.0645 C   0  0  0  0  0  0  0  0  0  0  0  0
   -3.0819   -1.3752   -1.0048 C   0  0  0  0  0  0  0  0  0  0  0  0
   -3.8483   -0.8228   -2.0155 C   0  0  0  0  0  0  0  0  0  0  0  0
   -3.0980    0.2483   -2.5612 C   0  0  0  0  0  0  0  0  0  0  0  0
   -1.9191    0.2859   -1.8580 C   0  0  0  0  0  0  0  0  0  0  0  0
   -1.8985   -0.6899   -0.9163 O   0  0  0  0  0  0  0  0  0  0  0  0
   -4.3690   -3.3019   -0.1106 C   0  0  0  0  0  0  0  0  0  0  0  0
   -4.4354   -4.3047    0.8425 C   0  0  0  0  0  0  0  0  0  0  0  0
   -5.6139   -5.2635    0.8342 C   0  0  0  0  0  0  0  0  0  0  0  0
   -6.7377   -4.7042    0.2932 F   0  0  0  0  0  0  0  0  0  0  0  0
   -5.3729   -6.3811    0.0925 F   0  0  0  0  0  0  0  0  0  0  0  0
   -5.9819   -5.6974    2.0710 F   0  0  0  0  0  0  0  0  0  0  0  0
   -3.4554   -4.4770    1.7644 N   0  0  0  0  0  0  0  0  0  0  0  0
    1.2618    0.5573    1.5029 N   0  0  0  0  0  0  0  0  0  0  0  0
    1.4089    2.0154    1.5773 C   0  0  0  0  0  0  0  0  0  0  0  0
    1.2436    2.6727    0.1984 C   0  0  0  0  0  0  0  0  0  0  0  0
    2.2092    2.1473   -0.7951 N   0  0  0  0  0  0  0  0  0  0  0  0
    3.2154    3.0053   -1.2687 C   0  0  0  0  0  0  0  0  0  0  0  0
    3.7718    4.0424   -0.5084 C   0  0  0  0  0  0  0  0  0  0  0  0
    4.7921    4.8515   -1.0219 C   0  0  0  0  0  0  0  0  0  0  0  0
    5.2782    4.6345   -2.3081 C   0  0  0  0  0  0  0  0  0  0  0  0
    4.7439    3.6089   -3.0804 C   0  0  0  0  0  0  0  0  0  0  0  0
    3.7255    2.8037   -2.5618 C   0  0  0  0  0  0  0  0  0  0  0  0
    2.7428    0.7906   -0.5114 C   0  0  0  0  0  0  0  0  0  0  0  0
    1.7320   -0.0742    0.2619 C   0  0  0  0  0  0  0  0  0  0  0  0
    1.2910   -2.1128    2.4563 H   0  0  0  0  0  0  0  0  0  0  0  0
    0.0175   -1.7581    1.2691 H   0  0  0  0  0  0  0  0  0  0  0  0
   -1.6142   -1.4948    3.2751 H   0  0  0  0  0  0  0  0  0  0  0  0
   -0.3093   -2.0737    4.2984 H   0  0  0  0  0  0  0  0  0  0  0  0
   -4.8326   -1.1435   -2.3250 H   0  0  0  0  0  0  0  0  0  0  0  0
   -3.3800    0.9128   -3.3653 H   0  0  0  0  0  0  0  0  0  0  0  0
   -1.0381    0.9127   -1.9037 H   0  0  0  0  0  0  0  0  0  0  0  0
   -5.1496   -3.1773   -0.8513 H   0  0  0  0  0  0  0  0  0  0  0  0
    2.4089    2.2146    1.9792 H   0  0  0  0  0  0  0  0  0  0  0  0
    0.6792    2.4389    2.2748 H   0  0  0  0  0  0  0  0  0  0  0  0
    0.2397    2.4411   -0.1806 H   0  0  0  0  0  0  0  0  0  0  0  0
    1.2765    3.7642    0.2878 H   0  0  0  0  0  0  0  0  0  0  0  0
    3.4444    4.2260    0.5097 H   0  0  0  0  0  0  0  0  0  0  0  0
    5.2102    5.6469   -0.4116 H   0  0  0  0  0  0  0  0  0  0  0  0
    6.0694    5.2635   -2.7069 H   0  0  0  0  0  0  0  0  0  0  0  0
    5.1136    3.4340   -4.0869 H   0  0  0  0  0  0  0  0  0  0  0  0
    3.3098    2.0163   -3.1855 H   0  0  0  0  0  0  0  0  0  0  0  0
    2.9942    0.2814   -1.4492 H   0  0  0  0  0  0  0  0  0  0  0  0
    3.6603    0.8699    0.0871 H   0  0  0  0  0  0  0  0  0  0  0  0
    2.1819   -1.0434    0.4980 H   0  0  0  0  0  0  0  0  0  0  0  0
    0.8494   -0.2568   -0.3601 H   0  0  0  0  0  0  0  0  0  0  0  0
  1  2  2  0
  2  3  1  0
  3  4  1  0
  4  5  1  0
  5  6  1  0
  6  7  2  0
  7  8  1  0
  8  9  1  0
  9 10  2  0
 10 11  1  0
 11 12  2  0
 12 13  1  0
  8 14  2  0
 14 15  1  0
 15 16  1  0
 16 17  1  0
 16 18  1  0
 16 19  1  0
 15 20  2  0
  2 21  1  0
 21 22  1  0
 22 23  1  0
 23 24  1  0
 24 25  1  0
 25 26  2  0
 26 27  1  0
 27 28  2  0
 28 29  1  0
 29 30  2  0
 24 31  1  0
 31 32  1  0
 20  6  1  0
 32 21  1  0
 13  9  1  0
 30 25  1  0
  3 33  1  0
  3 34  1  0
  4 35  1  0
  4 36  1  0
 10 37  1  0
 11 38  1  0
 12 39  1  0
 14 40  1  0
 22 41  1  0
 22 42  1  0
 23 43  1  0
 23 44  1  0
 26 45  1  0
 27 46  1  0
 28 47  1  0
 29 48  1  0
 30 49  1  0
 31 50  1  0
 31 51  1  0
 32 52  1  0
 32 53  1  0
M  END
$$$$
