
     RDKit          3D

 42 44  0  0  0  0  0  0  0  0999 V2000
   -3.8102   -1.4466    2.0188 C   0  0  0  0  0  0  0  0  0  0  0  0
   -2.5124   -1.6236    1.2485 C   0  0  0  0  0  0  0  0  0  0  0  0
   -1.5861   -0.5319    1.4654 N   0  0  0  0  0  0  0  0  0  0  0  0
   -0.5680   -0.4786    2.3794 C   0  0  0  0  0  0  0  0  0  0  0  0
    0.0116   -1.8426    3.2704 S   0  0  0  0  0  0  0  0  0  0  0  0
    1.6691   -1.9846    2.5178 C   0  0  0  0  0  0  0  0  0  0  0  0
    1.5833   -1.9563    0.9972 C   0  0  0  0  0  0  0  0  0  0  0  0
    0.8410   -2.7243    0.3777 O   0  0  0  0  0  0  0  0  0  0  0  0
    2.4200   -0.9941    0.2165 C   0  0  0  0  0  0  0  0  0  0  0  0
    2.6296   -1.2573   -1.1466 C   0  0  0  0  0  0  0  0  0  0  0  0
    3.3889   -0.3848   -1.9309 C   0  0  0  0  0  0  0  0  0  0  0  0
    3.9520    0.7658   -1.3659 C   0  0  0  0  0  0  0  0  0  0  0  0
    4.7376    1.7113   -2.2245 C   0  0  0  0  0  0  0  0  0  0  0  0
    3.7287    1.0378   -0.0108 C   0  0  0  0  0  0  0  0  0  0  0  0
    2.9657    0.1678    0.7755 C   0  0  0  0  0  0  0  0  0  0  0  0
   -0.0044    0.7052    2.3599 N   0  0  0  0  0  0  0  0  0  0  0  0
   -0.6380    1.4475    1.3944 N   0  0  0  0  0  0  0  0  0  0  0  0
   -1.5545    0.6894    0.8126 C   0  0  0  0  0  0  0  0  0  0  0  0
   -2.4016    1.1195   -0.2976 C   0  0  0  0  0  0  0  0  0  0  0  0
   -3.0770    2.3355   -0.2112 C   0  0  0  0  0  0  0  0  0  0  0  0
   -3.8586    2.7339   -1.2809 C   0  0  0  0  0  0  0  0  0  0  0  0
   -4.0095    2.0121   -2.4110 N   0  0  0  0  0  0  0  0  0  0  0  0
   -3.3229    0.8553   -2.4868 C   0  0  0  0  0  0  0  0  0  0  0  0
   -2.5067    0.3790   -1.4758 C   0  0  0  0  0  0  0  0  0  0  0  0
   -3.6437   -1.5195    3.0960 H   0  0  0  0  0  0  0  0  0  0  0  0
   -4.2726   -0.4737    1.8136 H   0  0  0  0  0  0  0  0  0  0  0  0
   -4.5208   -2.2271    1.7279 H   0  0  0  0  0  0  0  0  0  0  0  0
   -2.0348   -2.5681    1.5278 H   0  0  0  0  0  0  0  0  0  0  0  0
   -2.7198   -1.7027    0.1788 H   0  0  0  0  0  0  0  0  0  0  0  0
    2.3215   -1.2150    2.9345 H   0  0  0  0  0  0  0  0  0  0  0  0
    2.0975   -2.9539    2.8043 H   0  0  0  0  0  0  0  0  0  0  0  0
    2.1947   -2.1429   -1.6130 H   0  0  0  0  0  0  0  0  0  0  0  0
    3.5304   -0.6036   -2.9887 H   0  0  0  0  0  0  0  0  0  0  0  0
    4.0775    2.2005   -2.9478 H   0  0  0  0  0  0  0  0  0  0  0  0
    5.2218    2.4901   -1.6243 H   0  0  0  0  0  0  0  0  0  0  0  0
    5.5227    1.1712   -2.7642 H   0  0  0  0  0  0  0  0  0  0  0  0
    4.1287    1.9412    0.4436 H   0  0  0  0  0  0  0  0  0  0  0  0
    2.7822    0.4538    1.8083 H   0  0  0  0  0  0  0  0  0  0  0  0
   -2.9872    2.9653    0.6686 H   0  0  0  0  0  0  0  0  0  0  0  0
   -4.3873    3.6798   -1.2631 H   0  0  0  0  0  0  0  0  0  0  0  0
   -3.4387    0.3090   -3.4186 H   0  0  0  0  0  0  0  0  0  0  0  0
   -1.9498   -0.5400   -1.6253 H   0  0  0  0  0  0  0  0  0  0  0  0
  1  2  1  0
  2  3  1  0
  3  4  1  0
  4  5  1  0
  5  6  1  0
  6  7  1  0
  7  8  2  0
  7  9  1  0
  9 10  2  0
 10 11  1  0
 11 12  2  0
 12 13  1  0
 12 14  1  0
 14 15  2  0
  4 16  2  0
 16 17  1  0
 17 18  2  0
 18 19  1  0
 19 20  2  0
 20 21  1  0
 21 22  2  0
 22 23  1  0
 23 24  2  0
 18  3  1  0
 24 19  1  0
 15  9  1  0
  1 25  1  0
  1 26  1  0
  1 27  1  0
  2 28  1  0
  2 29  1  0
  6 30  1  0
  6 31  1  0
 10 32  1  0
 11 33  1  0
 13 34  1  0
 13 35  1  0
 13 36  1  0
 14 37  1  0
 15 38  1  0
 20 39  1  0
 21 40  1  0
 23 41  1  0
 24 42  1  0
M  END
$$$$
