
     RDKit          3D

 45 48  0  0  0  0  0  0  0  0999 V2000
   -4.0867   -0.9563    4.1503 C   0  0  0  0  0  0  0  0  0  0  0  0
   -4.0756    0.3237    3.3360 C   0  0  0  0  0  0  0  0  0  0  0  0
   -2.8985    0.3789    2.5164 O   0  0  0  0  0  0  0  0  0  0  0  0
   -3.0032   -0.2108    1.2965 C   0  0  0  0  0  0  0  0  0  0  0  0
   -3.9710   -0.8157    0.8629 O   0  0  0  0  0  0  0  0  0  0  0  0
   -1.7502   -0.0089    0.5412 C   0  0  0  0  0  0  0  0  0  0  0  0
   -1.9589    0.7421   -0.7162 C   0  0  0  0  0  0  0  0  0  0  0  0
   -2.5556    1.8072   -0.7803 O   0  0  0  0  0  0  0  0  0  0  0  0
   -1.5217    0.0001   -1.7698 O   0  0  0  0  0  0  0  0  0  0  0  0
   -1.8526    0.5075   -3.0703 C   0  0  0  0  0  0  0  0  0  0  0  0
   -0.7849    1.4659   -3.5609 C   0  0  0  0  0  0  0  0  0  0  0  0
   -0.5837   -0.5862    0.9370 C   0  0  0  0  0  0  0  0  0  0  0  0
   -0.6058   -1.6717    1.9883 C   0  0  0  0  0  0  0  0  0  0  0  0
    0.4077   -2.5594    2.1562 C   0  0  0  0  0  0  0  0  0  0  0  0
    0.3044   -3.9291    3.4219 Br  0  0  0  0  0  0  0  0  0  0  0  0
    1.5971   -2.4373    1.3645 C   0  0  0  0  0  0  0  0  0  0  0  0
    2.7255   -3.1548    1.3182 N   0  0  0  0  0  0  0  0  0  0  0  0
    3.5688   -2.4548    0.4426 O   0  0  0  0  0  0  0  0  0  0  0  0
    2.9361   -1.3246    0.0020 C   0  0  0  0  0  0  0  0  0  0  0  0
    3.4230   -0.2932   -0.8106 C   0  0  0  0  0  0  0  0  0  0  0  0
    4.7215   -0.3469   -1.3499 C   0  0  0  0  0  0  0  0  0  0  0  0
    5.1773    0.7074   -2.1341 C   0  0  0  0  0  0  0  0  0  0  0  0
    4.3486    1.8010   -2.3771 C   0  0  0  0  0  0  0  0  0  0  0  0
    3.0584    1.8545   -1.8316 C   0  0  0  0  0  0  0  0  0  0  0  0
    2.5533    0.8122   -1.0220 C   0  0  0  0  0  0  0  0  0  0  0  0
    1.2522    0.8038   -0.4255 C   0  0  0  0  0  0  0  0  0  0  0  0
    0.4741    1.9335   -0.4504 O   0  0  0  0  0  0  0  0  0  0  0  0
    0.7384   -0.3070    0.2687 C   0  0  0  0  0  0  0  0  0  0  0  0
    1.6669   -1.3208    0.5155 C   0  0  0  0  0  0  0  0  0  0  0  0
   -4.9492   -0.9812    4.8222 H   0  0  0  0  0  0  0  0  0  0  0  0
   -3.1718   -1.0410    4.7460 H   0  0  0  0  0  0  0  0  0  0  0  0
   -4.1252   -1.8355    3.4994 H   0  0  0  0  0  0  0  0  0  0  0  0
   -4.0381    1.1874    4.0079 H   0  0  0  0  0  0  0  0  0  0  0  0
   -4.9858    0.4233    2.7334 H   0  0  0  0  0  0  0  0  0  0  0  0
   -2.8429    0.9774   -3.0745 H   0  0  0  0  0  0  0  0  0  0  0  0
   -1.9061   -0.3550   -3.7427 H   0  0  0  0  0  0  0  0  0  0  0  0
   -0.7269    2.3506   -2.9199 H   0  0  0  0  0  0  0  0  0  0  0  0
    0.1999    0.9884   -3.5430 H   0  0  0  0  0  0  0  0  0  0  0  0
   -0.9987    1.7927   -4.5825 H   0  0  0  0  0  0  0  0  0  0  0  0
   -1.4985   -1.7945    2.5945 H   0  0  0  0  0  0  0  0  0  0  0  0
    5.3705   -1.1995   -1.1627 H   0  0  0  0  0  0  0  0  0  0  0  0
    6.1770    0.6758   -2.5607 H   0  0  0  0  0  0  0  0  0  0  0  0
    4.7047    2.6177   -3.0017 H   0  0  0  0  0  0  0  0  0  0  0  0
    2.4458    2.7175   -2.0809 H   0  0  0  0  0  0  0  0  0  0  0  0
    1.0402    2.7158   -0.5541 H   0  0  0  0  0  0  0  0  0  0  0  0
  1  2  1  0
  2  3  1  0
  3  4  1  0
  4  5  2  0
  4  6  1  0
  6  7  1  0
  7  8  2  0
  7  9  1  0
  9 10  1  0
 10 11  1  0
  6 12  2  3
 12 13  1  0
 13 14  2  0
 14 15  1  0
 14 16  1  0
 16 17  2  0
 17 18  1  0
 18 19  1  0
 19 20  1  0
 20 21  2  0
 21 22  1  0
 22 23  2  0
 23 24  1  0
 24 25  2  0
 25 26  1  0
 26 27  1  0
 26 28  2  0
 28 29  1  0
 28 12  1  0
 29 16  1  0
 29 19  2  0
 25 20  1  0
  1 30  1  0
  1 31  1  0
  1 32  1  0
  2 33  1  0
  2 34  1  0
 10 35  1  0
 10 36  1  0
 11 37  1  0
 11 38  1  0
 11 39  1  0
 13 40  1  0
 21 41  1  0
 22 42  1  0
 23 43  1  0
 24 44  1  0
 27 45  1  0
M  END
$$$$
