
     RDKit          3D

 50 53  0  0  0  0  0  0  0  0999 V2000
    7.4815   -0.1413   -2.4578 C   0  0  0  0  0  0  0  0  0  0  0  0
    6.3189    0.0312   -1.5315 C   0  0  0  0  0  0  0  0  0  0  0  0
    5.0127   -0.0181   -2.0155 C   0  0  0  0  0  0  0  0  0  0  0  0
    3.9228    0.1313   -1.2247 N   0  0  0  0  0  0  0  0  0  0  0  0
    4.2006    0.3400    0.0948 C   0  0  0  0  0  0  0  0  0  0  0  0
    3.0415    0.5113    1.0139 C   0  0  0  0  0  0  0  0  0  0  0  0
    3.1970    0.6570    2.2201 O   0  0  0  0  0  0  0  0  0  0  0  0
    1.8130    0.4793    0.3921 N   0  0  0  0  0  0  0  0  0  0  0  0
    0.5712    0.4857    1.1309 C   0  0  0  0  0  0  0  0  0  0  0  0
    0.2662   -0.9194    1.7020 C   0  0  0  0  0  0  0  0  0  0  0  0
   -1.2234   -1.1239    2.1069 C   0  0  0  0  0  0  0  0  0  0  0  0
   -1.4069   -2.5692    2.6079 C   0  0  0  0  0  0  0  0  0  0  0  0
   -1.6088   -0.1703    3.2563 C   0  0  0  0  0  0  0  0  0  0  0  0
   -2.1577   -0.8990    0.8756 C   0  0  0  0  0  0  0  0  0  0  0  0
   -1.7441    0.3014    0.0892 C   0  0  0  0  0  0  0  0  0  0  0  0
   -0.5177    0.9302    0.2169 C   0  0  0  0  0  0  0  0  0  0  0  0
   -0.6128    2.0615   -0.5994 C   0  0  0  0  0  0  0  0  0  0  0  0
   -1.7844    2.1384   -1.2244 N   0  0  0  0  0  0  0  0  0  0  0  0
   -2.4757    1.0206   -0.8491 N   0  0  0  0  0  0  0  0  0  0  0  0
   -3.7567    0.7738   -1.4357 C   0  0  0  0  0  0  0  0  0  0  0  0
   -4.3604    1.7951   -2.1929 C   0  0  0  0  0  0  0  0  0  0  0  0
   -5.6114    1.6053   -2.7854 C   0  0  0  0  0  0  0  0  0  0  0  0
   -6.2729    0.3906   -2.6390 C   0  0  0  0  0  0  0  0  0  0  0  0
   -5.6796   -0.6350   -1.9074 C   0  0  0  0  0  0  0  0  0  0  0  0
   -4.4262   -0.4486   -1.3111 C   0  0  0  0  0  0  0  0  0  0  0  0
    5.4942    0.3891    0.5874 C   0  0  0  0  0  0  0  0  0  0  0  0
    6.5789    0.2354   -0.2153 N   0  0  0  0  0  0  0  0  0  0  0  0
    7.4367   -1.1212   -2.9431 H   0  0  0  0  0  0  0  0  0  0  0  0
    7.4741    0.6402   -3.2240 H   0  0  0  0  0  0  0  0  0  0  0  0
    8.4278   -0.0742   -1.9116 H   0  0  0  0  0  0  0  0  0  0  0  0
    4.8065   -0.1813   -3.0688 H   0  0  0  0  0  0  0  0  0  0  0  0
    1.8128    0.2412   -0.5969 H   0  0  0  0  0  0  0  0  0  0  0  0
    0.6627    1.2002    1.9583 H   0  0  0  0  0  0  0  0  0  0  0  0
    0.9250   -1.1126    2.5590 H   0  0  0  0  0  0  0  0  0  0  0  0
    0.5278   -1.6781    0.9493 H   0  0  0  0  0  0  0  0  0  0  0  0
   -2.4490   -2.7612    2.8874 H   0  0  0  0  0  0  0  0  0  0  0  0
   -1.1303   -3.2956    1.8355 H   0  0  0  0  0  0  0  0  0  0  0  0
   -0.7825   -2.7655    3.4868 H   0  0  0  0  0  0  0  0  0  0  0  0
   -1.5582    0.8821    2.9608 H   0  0  0  0  0  0  0  0  0  0  0  0
   -2.6327   -0.3619    3.5975 H   0  0  0  0  0  0  0  0  0  0  0  0
   -0.9431   -0.3053    4.1163 H   0  0  0  0  0  0  0  0  0  0  0  0
   -2.0956   -1.7742    0.2169 H   0  0  0  0  0  0  0  0  0  0  0  0
   -3.1917   -0.8012    1.2248 H   0  0  0  0  0  0  0  0  0  0  0  0
    0.1193    2.8437   -0.7570 H   0  0  0  0  0  0  0  0  0  0  0  0
   -3.8688    2.7582   -2.3239 H   0  0  0  0  0  0  0  0  0  0  0  0
   -6.0644    2.4086   -3.3608 H   0  0  0  0  0  0  0  0  0  0  0  0
   -7.2450    0.2405   -3.1011 H   0  0  0  0  0  0  0  0  0  0  0  0
   -6.1895   -1.5903   -1.8071 H   0  0  0  0  0  0  0  0  0  0  0  0
   -4.0026   -1.2977   -0.7930 H   0  0  0  0  0  0  0  0  0  0  0  0
    5.7010    0.5535    1.6395 H   0  0  0  0  0  0  0  0  0  0  0  0
  1  2  1  0
  2  3  2  0
  3  4  1  0
  4  5  2  0
  5  6  1  0
  6  7  2  0
  6  8  1  0
  8  9  1  0
  9 10  1  0
 10 11  1  0
 11 12  1  0
 11 13  1  0
 11 14  1  0
 14 15  1  0
 15 16  2  0
 16 17  1  0
 17 18  2  0
 18 19  1  0
 19 20  1  0
 20 21  2  0
 21 22  1  0
 22 23  2  0
 23 24  1  0
 24 25  2  0
  5 26  1  0
 26 27  2  0
 27  2  1  0
 16  9  1  0
 25 20  1  0
 19 15  1  0
  1 28  1  0
  1 29  1  0
  1 30  1  0
  3 31  1  0
  8 32  1  0
  9 33  1  0
 10 34  1  0
 10 35  1  0
 12 36  1  0
 12 37  1  0
 12 38  1  0
 13 39  1  0
 13 40  1  0
 13 41  1  0
 14 42  1  0
 14 43  1  0
 17 44  1  0
 21 45  1  0
 22 46  1  0
 23 47  1  0
 24 48  1  0
 25 49  1  0
 26 50  1  0
M  END
$$$$
