
     RDKit          3D

 52 56  0  0  0  0  0  0  0  0999 V2000
    6.9513   -0.0794    1.2420 C   0  0  0  0  0  0  0  0  0  0  0  0
    6.1213   -1.3256    0.9876 C   0  0  0  0  0  0  0  0  0  0  0  0
    4.7371   -1.0708    1.2209 O   0  0  0  0  0  0  0  0  0  0  0  0
    3.9679   -0.5974    0.1978 C   0  0  0  0  0  0  0  0  0  0  0  0
    4.4055   -0.2391   -1.0720 C   0  0  0  0  0  0  0  0  0  0  0  0
    3.4902    0.2369   -2.0210 C   0  0  0  0  0  0  0  0  0  0  0  0
    2.1392    0.3694   -1.7353 C   0  0  0  0  0  0  0  0  0  0  0  0
    1.3043    0.8245   -2.6808 N   0  0  0  0  0  0  0  0  0  0  0  0
   -0.0020    0.9541   -2.3627 C   0  0  0  0  0  0  0  0  0  0  0  0
   -0.9409    1.5185   -3.6918 Cl  0  0  0  0  0  0  0  0  0  0  0  0
   -0.5564    0.6473   -1.1250 C   0  0  0  0  0  0  0  0  0  0  0  0
   -2.0361    0.8018   -0.8461 C   0  0  0  0  0  0  0  0  0  0  0  0
   -2.7799   -0.5144   -1.0591 C   0  0  0  0  0  0  0  0  0  0  0  0
   -3.1385   -0.8564    0.3620 C   0  0  0  0  0  0  0  0  0  0  0  0
   -3.7337   -2.1637    0.7251 C   0  0  0  0  0  0  0  0  0  0  0  0
   -4.0456   -3.1218   -0.2460 C   0  0  0  0  0  0  0  0  0  0  0  0
   -4.6046   -4.3452    0.1337 C   0  0  0  0  0  0  0  0  0  0  0  0
   -4.8545   -4.6146    1.4788 C   0  0  0  0  0  0  0  0  0  0  0  0
   -4.5478   -3.6624    2.4490 C   0  0  0  0  0  0  0  0  0  0  0  0
   -3.9893   -2.4391    2.0743 C   0  0  0  0  0  0  0  0  0  0  0  0
   -2.9130    0.0849    1.2275 N   0  0  0  0  0  0  0  0  0  0  0  0
   -2.3417    1.1417    0.5510 N   0  0  0  0  0  0  0  0  0  0  0  0
   -2.0341    2.3223    1.2408 C   0  0  0  0  0  0  0  0  0  0  0  0
   -2.2217    2.4482    2.4514 O   0  0  0  0  0  0  0  0  0  0  0  0
   -1.4649    3.3978    0.4445 C   0  0  0  0  0  0  0  0  0  0  0  0
   -2.0284    4.1095   -0.5973 C   0  0  0  0  0  0  0  0  0  0  0  0
   -1.1292    5.0737   -1.1391 C   0  0  0  0  0  0  0  0  0  0  0  0
    0.0774    5.0829   -0.4755 C   0  0  0  0  0  0  0  0  0  0  0  0
    0.1169    3.9464    0.8022 S   0  0  0  0  0  0  0  0  0  0  0  0
    0.3316    0.1495   -0.1610 C   0  0  0  0  0  0  0  0  0  0  0  0
    1.6965    0.0119   -0.4495 C   0  0  0  0  0  0  0  0  0  0  0  0
    2.6120   -0.4663    0.5043 C   0  0  0  0  0  0  0  0  0  0  0  0
    8.0178   -0.2974    1.1359 H   0  0  0  0  0  0  0  0  0  0  0  0
    6.6902    0.7248    0.5479 H   0  0  0  0  0  0  0  0  0  0  0  0
    6.7691    0.3023    2.2522 H   0  0  0  0  0  0  0  0  0  0  0  0
    6.4202   -2.0925    1.7114 H   0  0  0  0  0  0  0  0  0  0  0  0
    6.3080   -1.7588   -0.0012 H   0  0  0  0  0  0  0  0  0  0  0  0
    5.4476   -0.3054   -1.3646 H   0  0  0  0  0  0  0  0  0  0  0  0
    3.8460    0.5143   -3.0110 H   0  0  0  0  0  0  0  0  0  0  0  0
   -2.4750    1.5822   -1.4726 H   0  0  0  0  0  0  0  0  0  0  0  0
   -3.7046   -0.3558   -1.6243 H   0  0  0  0  0  0  0  0  0  0  0  0
   -2.1816   -1.2961   -1.5348 H   0  0  0  0  0  0  0  0  0  0  0  0
   -3.8687   -2.9427   -1.3020 H   0  0  0  0  0  0  0  0  0  0  0  0
   -4.8473   -5.0901   -0.6206 H   0  0  0  0  0  0  0  0  0  0  0  0
   -5.2898   -5.5669    1.7719 H   0  0  0  0  0  0  0  0  0  0  0  0
   -4.7432   -3.8694    3.4984 H   0  0  0  0  0  0  0  0  0  0  0  0
   -3.7562   -1.7038    2.8428 H   0  0  0  0  0  0  0  0  0  0  0  0
   -3.0385    3.9493   -0.9553 H   0  0  0  0  0  0  0  0  0  0  0  0
   -1.3576    5.7340   -1.9672 H   0  0  0  0  0  0  0  0  0  0  0  0
    0.9361    5.7116   -0.6685 H   0  0  0  0  0  0  0  0  0  0  0  0
   -0.0328   -0.1257    0.8290 H   0  0  0  0  0  0  0  0  0  0  0  0
    2.2712   -0.7390    1.5017 H   0  0  0  0  0  0  0  0  0  0  0  0
  1  2  1  0
  2  3  1  0
  3  4  1  0
  4  5  2  0
  5  6  1  0
  6  7  2  0
  7  8  1  0
  8  9  2  0
  9 10  1  0
  9 11  1  0
 11 12  1  0
 12 13  1  0
 13 14  1  0
 14 15  1  0
 15 16  2  0
 16 17  1  0
 17 18  2  0
 18 19  1  0
 19 20  2  0
 14 21  2  0
 21 22  1  0
 22 23  1  0
 23 24  2  0
 23 25  1  0
 25 26  2  0
 26 27  1  0
 27 28  2  0
 28 29  1  0
 11 30  2  0
 30 31  1  0
 31 32  2  0
 32  4  1  0
 31  7  1  0
 22 12  1  0
 29 25  1  0
 20 15  1  0
  1 33  1  0
  1 34  1  0
  1 35  1  0
  2 36  1  0
  2 37  1  0
  5 38  1  0
  6 39  1  0
 12 40  1  0
 13 41  1  0
 13 42  1  0
 16 43  1  0
 17 44  1  0
 18 45  1  0
 19 46  1  0
 20 47  1  0
 26 48  1  0
 27 49  1  0
 28 50  1  0
 30 51  1  0
 32 52  1  0
M  END
$$$$
