
     RDKit          3D

 72 74  0  0  0  0  0  0  0  0999 V2000
    5.7824    4.2577   -3.7686 C   0  0  0  0  0  0  0  0  0  0  0  0
    7.0621    3.4594   -3.9651 C   0  0  0  0  0  0  0  0  0  0  0  0
    6.8634    1.9468   -3.8462 C   0  0  0  0  0  0  0  0  0  0  0  0
    6.4504    1.4975   -2.4418 C   0  0  0  0  0  0  0  0  0  0  0  0
    6.3711   -0.0290   -2.3516 C   0  0  0  0  0  0  0  0  0  0  0  0
    6.0695   -0.5382   -0.9390 C   0  0  0  0  0  0  0  0  0  0  0  0
    4.6624   -0.1812   -0.4505 C   0  0  0  0  0  0  0  0  0  0  0  0
    4.3873   -0.7916    0.9267 C   0  0  0  0  0  0  0  0  0  0  0  0
    3.0331   -0.3837    1.5074 C   0  0  0  0  0  0  0  0  0  0  0  0
    1.8432   -0.9531    0.7403 C   0  0  0  0  0  0  0  0  0  0  0  0
    0.6224   -0.6265    1.4329 O   0  0  0  0  0  0  0  0  0  0  0  0
    0.0556    0.5700    1.1154 C   0  0  0  0  0  0  0  0  0  0  0  0
    0.4769    1.3562    0.2785 O   0  0  0  0  0  0  0  0  0  0  0  0
   -1.1947    0.8210    1.9443 C   0  0  0  0  0  0  0  0  0  0  0  0
   -2.0465   -0.3844    2.0623 N   0  0  0  0  0  0  0  0  0  0  0  0
   -2.6898   -0.9833    1.0279 C   0  0  0  0  0  0  0  0  0  0  0  0
   -2.7716   -0.4791   -0.4076 C   0  0  0  0  0  0  0  0  0  0  0  0
   -4.0115   -0.7633   -1.0448 O   0  0  0  0  0  0  0  0  0  0  0  0
   -5.1148   -0.0470   -0.6740 C   0  0  0  0  0  0  0  0  0  0  0  0
   -5.1529    1.0051    0.2396 C   0  0  0  0  0  0  0  0  0  0  0  0
   -6.3690    1.6254    0.5391 C   0  0  0  0  0  0  0  0  0  0  0  0
   -7.5471    1.2039   -0.0763 C   0  0  0  0  0  0  0  0  0  0  0  0
   -7.5202    0.1666   -1.0115 C   0  0  0  0  0  0  0  0  0  0  0  0
   -8.7886   -0.3018   -1.6623 C   0  0  0  0  0  0  0  0  0  0  0  0
   -6.2996   -0.4588   -1.2947 C   0  0  0  0  0  0  0  0  0  0  0  0
   -3.2222   -2.1316    1.5098 N   0  0  0  0  0  4  0  0  0  0  0  0
   -3.9389   -3.1215    0.7041 C   0  0  0  0  0  0  0  0  0  0  0  0
   -3.0316   -2.2113    2.8837 C   0  0  0  0  0  0  0  0  0  0  0  0
   -3.4506   -3.1545    3.8201 C   0  0  0  0  0  0  0  0  0  0  0  0
   -3.0556   -2.9284    5.1446 C   0  0  0  0  0  0  0  0  0  0  0  0
   -2.2784   -1.8118    5.5024 C   0  0  0  0  0  0  0  0  0  0  0  0
   -1.8629   -0.8679    4.5533 C   0  0  0  0  0  0  0  0  0  0  0  0
   -2.2663   -1.0979    3.2385 C   0  0  0  0  0  0  0  0  0  0  0  0
    5.9672    5.3183   -3.9678 H   0  0  0  0  0  0  0  0  0  0  0  0
    5.4111    4.1744   -2.7435 H   0  0  0  0  0  0  0  0  0  0  0  0
    4.9977    3.9168   -4.4512 H   0  0  0  0  0  0  0  0  0  0  0  0
    7.8161    3.7950   -3.2436 H   0  0  0  0  0  0  0  0  0  0  0  0
    7.4594    3.6793   -4.9632 H   0  0  0  0  0  0  0  0  0  0  0  0
    7.8069    1.4565   -4.1174 H   0  0  0  0  0  0  0  0  0  0  0  0
    6.1142    1.6152   -4.5757 H   0  0  0  0  0  0  0  0  0  0  0  0
    7.1752    1.8716   -1.7088 H   0  0  0  0  0  0  0  0  0  0  0  0
    5.4771    1.9306   -2.1907 H   0  0  0  0  0  0  0  0  0  0  0  0
    5.6124   -0.4031   -3.0494 H   0  0  0  0  0  0  0  0  0  0  0  0
    7.3300   -0.4562   -2.6694 H   0  0  0  0  0  0  0  0  0  0  0  0
    6.8170   -0.1444   -0.2392 H   0  0  0  0  0  0  0  0  0  0  0  0
    6.1805   -1.6300   -0.9382 H   0  0  0  0  0  0  0  0  0  0  0  0
    4.5504    0.9069   -0.3875 H   0  0  0  0  0  0  0  0  0  0  0  0
    3.9276   -0.5451   -1.1773 H   0  0  0  0  0  0  0  0  0  0  0  0
    4.4490   -1.8852    0.8692 H   0  0  0  0  0  0  0  0  0  0  0  0
    5.1701   -0.4668    1.6235 H   0  0  0  0  0  0  0  0  0  0  0  0
    2.9589    0.7096    1.5552 H   0  0  0  0  0  0  0  0  0  0  0  0
    2.9746   -0.7266    2.5485 H   0  0  0  0  0  0  0  0  0  0  0  0
    1.9031   -2.0465    0.7077 H   0  0  0  0  0  0  0  0  0  0  0  0
    1.8052   -0.6012   -0.2964 H   0  0  0  0  0  0  0  0  0  0  0  0
   -1.7919    1.6065    1.4718 H   0  0  0  0  0  0  0  0  0  0  0  0
   -0.8882    1.1784    2.9299 H   0  0  0  0  0  0  0  0  0  0  0  0
   -2.5261    0.5846   -0.4375 H   0  0  0  0  0  0  0  0  0  0  0  0
   -1.9827   -1.0310   -0.9280 H   0  0  0  0  0  0  0  0  0  0  0  0
   -4.2702    1.3851    0.7375 H   0  0  0  0  0  0  0  0  0  0  0  0
   -6.4032    2.4474    1.2512 H   0  0  0  0  0  0  0  0  0  0  0  0
   -8.4859    1.6974    0.1693 H   0  0  0  0  0  0  0  0  0  0  0  0
   -9.2838   -1.0414   -1.0257 H   0  0  0  0  0  0  0  0  0  0  0  0
   -9.4716    0.5370   -1.8313 H   0  0  0  0  0  0  0  0  0  0  0  0
   -8.5849   -0.7559   -2.6375 H   0  0  0  0  0  0  0  0  0  0  0  0
   -6.2699   -1.2743   -2.0153 H   0  0  0  0  0  0  0  0  0  0  0  0
   -3.4943   -3.1847   -0.2921 H   0  0  0  0  0  0  0  0  0  0  0  0
   -3.8617   -4.1100    1.1647 H   0  0  0  0  0  0  0  0  0  0  0  0
   -4.9908   -2.8333    0.6380 H   0  0  0  0  0  0  0  0  0  0  0  0
   -4.0487   -4.0139    3.5438 H   0  0  0  0  0  0  0  0  0  0  0  0
   -3.3569   -3.6347    5.9192 H   0  0  0  0  0  0  0  0  0  0  0  0
   -1.9941   -1.6791    6.5472 H   0  0  0  0  0  0  0  0  0  0  0  0
   -1.2660   -0.0108    4.8381 H   0  0  0  0  0  0  0  0  0  0  0  0
  1  2  1  0
  2  3  1  0
  3  4  1  0
  4  5  1  0
  5  6  1  0
  6  7  1  0
  7  8  1  0
  8  9  1  0
  9 10  1  0
 10 11  1  0
 11 12  1  0
 12 13  2  0
 12 14  1  0
 14 15  1  0
 15 16  1  0
 16 17  1  0
 17 18  1  0
 18 19  1  0
 19 20  2  0
 20 21  1  0
 21 22  2  0
 22 23  1  0
 23 24  1  0
 23 25  2  0
 16 26  2  0
 26 27  1  0
 26 28  1  0
 28 29  2  0
 29 30  1  0
 30 31  2  0
 31 32  1  0
 32 33  2  0
 33 15  1  0
 25 19  1  0
 33 28  1  0
  1 34  1  0
  1 35  1  0
  1 36  1  0
  2 37  1  0
  2 38  1  0
  3 39  1  0
  3 40  1  0
  4 41  1  0
  4 42  1  0
  5 43  1  0
  5 44  1  0
  6 45  1  0
  6 46  1  0
  7 47  1  0
  7 48  1  0
  8 49  1  0
  8 50  1  0
  9 51  1  0
  9 52  1  0
 10 53  1  0
 10 54  1  0
 14 55  1  0
 14 56  1  0
 17 57  1  0
 17 58  1  0
 20 59  1  0
 21 60  1  0
 22 61  1  0
 24 62  1  0
 24 63  1  0
 24 64  1  0
 25 65  1  0
 27 66  1  0
 27 67  1  0
 27 68  1  0
 29 69  1  0
 30 70  1  0
 31 71  1  0
 32 72  1  0
M  CHG  1  26   1
M  END
$$$$
