
     RDKit          3D

 38 40  0  0  0  0  0  0  0  0999 V2000
   -5.4244    0.3474   -0.0655 C   0  0  0  0  0  0  0  0  0  0  0  0
   -3.9517    0.0645   -0.0687 C   0  0  0  0  0  0  0  0  0  0  0  0
   -3.4664   -1.1729   -0.4822 C   0  0  0  0  0  0  0  0  0  0  0  0
   -2.0849   -1.4272   -0.5152 C   0  0  0  0  0  0  0  0  0  0  0  0
   -1.6030   -2.7823   -0.9639 C   0  0  0  0  0  0  0  0  0  0  0  0
   -1.1599   -0.4426   -0.1446 C   0  0  0  0  0  0  0  0  0  0  0  0
    0.1567   -0.7273   -0.1882 N   0  0  0  0  0  0  0  0  0  0  0  0
    1.0589    0.2324    0.1603 C   0  0  0  0  0  0  0  0  0  0  0  0
    2.4597   -0.0803    0.1144 N   0  0  0  0  0  0  0  0  0  0  0  0
    3.4072    0.8247    0.5116 N   0  0  0  0  0  0  0  0  0  0  0  0
    4.5720    0.1827    0.3776 C   0  0  0  0  0  0  0  0  0  0  0  0
    5.8402    0.8678    0.7248 C   0  0  0  0  0  0  0  0  0  0  0  0
    4.4042   -1.1299   -0.1074 C   0  0  0  0  0  0  0  0  0  0  0  0
    3.0517   -1.2833   -0.2856 C   0  0  0  0  0  0  0  0  0  0  0  0
    2.3614   -2.3520   -0.7532 N   0  0  0  0  0  0  0  0  0  0  0  0
    0.6714    1.5006    0.5707 C   0  0  0  0  0  0  0  0  0  0  0  0
   -0.6910    1.8115    0.6255 C   0  0  0  0  0  0  0  0  0  0  0  0
   -1.0962    3.1913    1.0714 C   0  0  0  0  0  0  0  0  0  0  0  0
   -1.6403    0.8253    0.2617 C   0  0  0  0  0  0  0  0  0  0  0  0
   -3.0351    1.0571    0.2870 C   0  0  0  0  0  0  0  0  0  0  0  0
   -5.6831    1.0608    0.7240 H   0  0  0  0  0  0  0  0  0  0  0  0
   -5.9982   -0.5661    0.1228 H   0  0  0  0  0  0  0  0  0  0  0  0
   -5.7278    0.7625   -1.0316 H   0  0  0  0  0  0  0  0  0  0  0  0
   -4.1656   -1.9512   -0.7826 H   0  0  0  0  0  0  0  0  0  0  0  0
   -1.0312   -3.2655   -0.1649 H   0  0  0  0  0  0  0  0  0  0  0  0
   -0.9754   -2.6857   -1.8559 H   0  0  0  0  0  0  0  0  0  0  0  0
   -2.4381   -3.4438   -1.2178 H   0  0  0  0  0  0  0  0  0  0  0  0
    5.9782    1.7581    0.1029 H   0  0  0  0  0  0  0  0  0  0  0  0
    5.8354    1.1756    1.7755 H   0  0  0  0  0  0  0  0  0  0  0  0
    6.7006    0.2093    0.5691 H   0  0  0  0  0  0  0  0  0  0  0  0
    5.1703   -1.8622   -0.3160 H   0  0  0  0  0  0  0  0  0  0  0  0
    2.7589   -3.2851   -0.7188 H   0  0  0  0  0  0  0  0  0  0  0  0
    1.3404   -2.3328   -0.6525 H   0  0  0  0  0  0  0  0  0  0  0  0
    1.4143    2.2450    0.8455 H   0  0  0  0  0  0  0  0  0  0  0  0
   -1.7155    3.1338    1.9722 H   0  0  0  0  0  0  0  0  0  0  0  0
   -1.6480    3.7018    0.2755 H   0  0  0  0  0  0  0  0  0  0  0  0
   -0.2251    3.8097    1.3133 H   0  0  0  0  0  0  0  0  0  0  0  0
   -3.4206    2.0285    0.5895 H   0  0  0  0  0  0  0  0  0  0  0  0
  1  2  1  0
  2  3  2  0
  3  4  1  0
  4  5  1  0
  4  6  2  0
  6  7  1  0
  7  8  2  0
  8  9  1  0
  9 10  1  0
 10 11  2  0
 11 12  1  0
 11 13  1  0
 13 14  2  0
 14 15  1  0
  8 16  1  0
 16 17  2  0
 17 18  1  0
 17 19  1  0
 19 20  2  0
 20  2  1  0
 19  6  1  0
 14  9  1  0
  1 21  1  0
  1 22  1  0
  1 23  1  0
  3 24  1  0
  5 25  1  0
  5 26  1  0
  5 27  1  0
 12 28  1  0
 12 29  1  0
 12 30  1  0
 13 31  1  0
 15 32  1  0
 15 33  1  0
 16 34  1  0
 18 35  1  0
 18 36  1  0
 18 37  1  0
 20 38  1  0
M  END
$$$$
