
     RDKit          3D

 41 43  0  0  0  0  0  0  0  0999 V2000
   -5.6211    0.3939    3.0611 C   0  0  0  0  0  0  0  0  0  0  0  0
   -4.2893    0.2152    2.5971 O   0  0  0  0  0  0  0  0  0  0  0  0
   -4.1246   -0.0809    1.2715 C   0  0  0  0  0  0  0  0  0  0  0  0
   -5.1464   -0.2195    0.3336 C   0  0  0  0  0  0  0  0  0  0  0  0
   -4.8459   -0.5218   -0.9995 C   0  0  0  0  0  0  0  0  0  0  0  0
   -3.5191   -0.6886   -1.4022 C   0  0  0  0  0  0  0  0  0  0  0  0
   -3.1151   -0.9850   -2.6839 O   0  0  0  0  0  0  0  0  0  0  0  0
   -4.1326   -1.1106   -3.6702 C   0  0  0  0  0  0  0  0  0  0  0  0
   -2.4822   -0.5538   -0.4561 C   0  0  0  0  0  0  0  0  0  0  0  0
   -1.1631   -0.7296   -0.9282 N   0  0  0  0  0  0  0  0  0  0  0  0
    0.0075   -0.7349   -0.2131 C   0  0  0  0  0  0  0  0  0  0  0  0
    0.1442   -0.6389    1.0032 O   0  0  0  0  0  0  0  0  0  0  0  0
    1.1106   -0.8951   -1.0437 N   0  0  0  0  0  0  0  0  0  0  0  0
    2.3733   -0.7154   -0.4123 N   0  0  0  0  0  0  0  0  0  0  0  0
    3.2515    0.1619   -1.0286 C   0  0  0  0  0  0  0  0  0  0  0  0
    3.0319    0.5860   -2.1631 O   0  0  0  0  0  0  0  0  0  0  0  0
    4.4057    0.5448   -0.2352 C   0  0  0  0  0  0  0  0  0  0  0  0
    5.3069    1.5681   -0.5341 C   0  0  0  0  0  0  0  0  0  0  0  0
    6.2327    1.5378    0.5168 C   0  0  0  0  0  0  0  0  0  0  0  0
    7.3464    2.2122    0.8990 O   0  0  0  0  0  0  0  0  0  0  0  0
    7.7295    1.6057    2.0609 C   0  0  0  0  0  0  0  0  0  0  0  0
    6.8993    0.5694    2.4279 C   0  0  0  0  0  0  0  0  0  0  0  0
    5.9396    0.5615    1.3961 C   0  0  0  0  0  0  0  0  0  0  0  0
    4.8154   -0.0722    0.9421 N   0  0  0  0  0  0  0  0  0  0  0  0
   -2.7948   -0.2484    0.8708 C   0  0  0  0  0  0  0  0  0  0  0  0
   -6.2075   -0.5229    2.9403 H   0  0  0  0  0  0  0  0  0  0  0  0
   -5.5750    0.6208    4.1306 H   0  0  0  0  0  0  0  0  0  0  0  0
   -6.1028    1.2408    2.5615 H   0  0  0  0  0  0  0  0  0  0  0  0
   -6.1899   -0.0974    0.6050 H   0  0  0  0  0  0  0  0  0  0  0  0
   -5.6733   -0.6192   -1.6942 H   0  0  0  0  0  0  0  0  0  0  0  0
   -3.6462   -1.3364   -4.6241 H   0  0  0  0  0  0  0  0  0  0  0  0
   -4.6828   -0.1718   -3.7916 H   0  0  0  0  0  0  0  0  0  0  0  0
   -4.8079   -1.9403   -3.4369 H   0  0  0  0  0  0  0  0  0  0  0  0
   -1.1061   -0.9660   -1.9116 H   0  0  0  0  0  0  0  0  0  0  0  0
    1.0598   -0.4449   -1.9578 H   0  0  0  0  0  0  0  0  0  0  0  0
    2.3116   -0.7173    0.6047 H   0  0  0  0  0  0  0  0  0  0  0  0
    5.2783    2.2292   -1.3891 H   0  0  0  0  0  0  0  0  0  0  0  0
    8.6187    2.0269    2.5109 H   0  0  0  0  0  0  0  0  0  0  0  0
    6.9852   -0.0649    3.2971 H   0  0  0  0  0  0  0  0  0  0  0  0
    4.3965   -0.8686    1.4065 H   0  0  0  0  0  0  0  0  0  0  0  0
   -2.0191   -0.1298    1.6209 H   0  0  0  0  0  0  0  0  0  0  0  0
  1  2  1  0
  2  3  1  0
  3  4  2  0
  4  5  1  0
  5  6  2  0
  6  7  1  0
  7  8  1  0
  6  9  1  0
  9 10  1  0
 10 11  1  0
 11 12  2  0
 11 13  1  0
 13 14  1  0
 14 15  1  0
 15 16  2  0
 15 17  1  0
 17 18  2  0
 18 19  1  0
 19 20  1  0
 20 21  1  0
 21 22  2  0
 22 23  1  0
 23 24  1  0
  9 25  2  0
 25  3  1  0
 24 17  1  0
 23 19  2  0
  1 26  1  0
  1 27  1  0
  1 28  1  0
  4 29  1  0
  5 30  1  0
  8 31  1  0
  8 32  1  0
  8 33  1  0
 10 34  1  0
 13 35  1  0
 14 36  1  0
 18 37  1  0
 21 38  1  0
 22 39  1  0
 24 40  1  0
 25 41  1  0
M  END
$$$$
