
     RDKit          3D

 39 41  0  0  0  0  0  0  0  0999 V2000
   -1.1574   -2.6292    1.3894 O   0  0  0  0  0  0  0  0  0  0  0  0
   -0.9010   -2.2274    0.2706 C   0  0  0  0  0  0  0  0  0  0  0  0
   -1.1753   -2.8777   -0.9244 N   0  0  0  0  0  0  0  0  0  0  0  0
   -0.4161   -2.2734   -1.9275 N   0  0  0  0  0  0  0  0  0  0  0  0
    0.0690   -1.1002   -1.3795 C   0  0  0  0  0  0  0  0  0  0  0  0
    0.7734   -0.1330   -2.2157 C   0  0  0  0  0  0  0  0  0  0  0  0
    0.0283    0.7219   -3.0412 C   0  0  0  0  0  0  0  0  0  0  0  0
    0.6679    1.6902   -3.8188 C   0  0  0  0  0  0  0  0  0  0  0  0
    2.0554    1.8161   -3.7742 C   0  0  0  0  0  0  0  0  0  0  0  0
    2.8057    0.9727   -2.9559 C   0  0  0  0  0  0  0  0  0  0  0  0
    2.1684    0.0009   -2.1872 C   0  0  0  0  0  0  0  0  0  0  0  0
    2.9795   -0.7844   -1.4143 O   0  0  0  0  0  0  0  0  0  0  0  0
   -0.1677   -0.9782   -0.0614 C   0  0  0  0  0  0  0  0  0  0  0  0
    0.1984    0.1016    0.9105 C   0  0  0  0  0  0  0  0  0  0  0  0
    1.5063   -0.0721    1.7040 C   0  0  0  0  0  0  0  0  0  0  0  0
    1.7795   -1.4932    2.0793 N   0  0  0  0  0  4  0  0  0  0  0  0
    2.2141   -2.2355    1.1853 O   0  0  0  0  0  0  0  0  0  0  0  0
    1.6126   -1.8103    3.2626 O   0  0  0  0  0  1  0  0  0  0  0  0
   -0.9883    0.5891    1.7422 C   0  0  0  0  0  0  0  0  0  0  0  0
   -1.3368    0.0132    2.9721 C   0  0  0  0  0  0  0  0  0  0  0  0
   -2.4308    0.4886    3.6998 C   0  0  0  0  0  0  0  0  0  0  0  0
   -3.1964    1.5424    3.2089 C   0  0  0  0  0  0  0  0  0  0  0  0
   -2.8749    2.1183    1.9837 C   0  0  0  0  0  0  0  0  0  0  0  0
   -1.7834    1.6433    1.2538 C   0  0  0  0  0  0  0  0  0  0  0  0
   -1.2618   -3.8889   -0.8972 H   0  0  0  0  0  0  0  0  0  0  0  0
   -0.9090   -2.1252   -2.8111 H   0  0  0  0  0  0  0  0  0  0  0  0
   -1.0567    0.6482   -3.0764 H   0  0  0  0  0  0  0  0  0  0  0  0
    0.0838    2.3496   -4.4564 H   0  0  0  0  0  0  0  0  0  0  0  0
    2.5548    2.5701   -4.3778 H   0  0  0  0  0  0  0  0  0  0  0  0
    3.8880    1.0667   -2.9219 H   0  0  0  0  0  0  0  0  0  0  0  0
    2.4966   -1.5829   -1.1245 H   0  0  0  0  0  0  0  0  0  0  0  0
    0.4331    0.9849    0.2950 H   0  0  0  0  0  0  0  0  0  0  0  0
    2.3686    0.2274    1.0957 H   0  0  0  0  0  0  0  0  0  0  0  0
    1.5325    0.5280    2.6204 H   0  0  0  0  0  0  0  0  0  0  0  0
   -0.7865   -0.8330    3.3782 H   0  0  0  0  0  0  0  0  0  0  0  0
   -2.6899    0.0226    4.6476 H   0  0  0  0  0  0  0  0  0  0  0  0
   -4.0486    1.9057    3.7768 H   0  0  0  0  0  0  0  0  0  0  0  0
   -3.4767    2.9350    1.5939 H   0  0  0  0  0  0  0  0  0  0  0  0
   -1.5588    2.1079    0.2955 H   0  0  0  0  0  0  0  0  0  0  0  0
  1  2  2  0
  2  3  1  0
  3  4  1  0
  4  5  1  0
  5  6  1  0
  6  7  2  0
  7  8  1  0
  8  9  2  0
  9 10  1  0
 10 11  2  0
 11 12  1  0
  5 13  2  0
 13 14  1  0
 14 15  1  0
 15 16  1  0
 16 17  2  0
 16 18  1  0
 14 19  1  0
 19 20  2  0
 20 21  1  0
 21 22  2  0
 22 23  1  0
 23 24  2  0
 13  2  1  0
 24 19  1  0
 11  6  1  0
  3 25  1  0
  4 26  1  0
  7 27  1  0
  8 28  1  0
  9 29  1  0
 10 30  1  0
 12 31  1  0
 14 32  1  0
 15 33  1  0
 15 34  1  0
 20 35  1  0
 21 36  1  0
 22 37  1  0
 23 38  1  0
 24 39  1  0
M  CHG  2  16   1  18  -1
M  END
$$$$
