
     RDKit          3D

 33 35  0  0  0  0  0  0  0  0999 V2000
    4.2955    0.3191    2.2902 C   0  0  0  0  0  0  0  0  0  0  0  0
    4.6248    0.2563    0.8336 C   0  0  0  0  0  0  0  0  0  0  0  0
    5.9361    0.5182    0.3100 C   0  0  0  0  0  0  0  0  0  0  0  0
    5.9966    0.4057   -1.0593 C   0  0  0  0  0  0  0  0  0  0  0  0
    4.4867   -0.0140   -1.7285 S   0  0  0  0  0  0  0  0  0  0  0  0
    3.7344   -0.0514   -0.1875 C   0  0  0  0  0  0  0  0  0  0  0  0
    2.3249   -0.3840   -0.1403 C   0  0  0  0  0  0  0  0  0  0  0  0
    1.6970   -0.4921    0.9918 N   0  0  0  0  0  0  0  0  0  0  0  0
    0.3497   -0.7760    0.9639 N   0  0  0  0  0  0  0  0  0  0  0  0
   -0.5549   -0.2365    0.0479 C   0  0  0  0  0  0  0  0  0  0  0  0
   -0.2332    0.5016   -0.8790 O   0  0  0  0  0  0  0  0  0  0  0  0
   -1.9285   -0.5997    0.2996 C   0  0  0  0  0  0  0  0  0  0  0  0
   -2.3758   -1.7123    0.9899 N   0  0  0  0  0  0  0  0  0  0  0  0
   -3.7255   -1.8087    1.0929 N   0  0  0  0  0  0  0  0  0  0  0  0
   -4.1299   -0.7568    0.3985 C   0  0  0  0  0  0  0  0  0  0  0  0
   -3.0870    0.0067   -0.1145 C   0  0  0  0  0  0  0  0  0  0  0  0
   -3.5717    1.1658   -0.8832 C   0  0  0  0  0  0  0  0  0  0  0  0
   -5.0950    0.8286   -1.0454 C   0  0  0  0  0  0  0  0  0  0  0  0
   -5.4609   -0.2266    0.0545 C   0  0  0  0  0  0  0  0  0  0  0  0
    3.5114    1.0596    2.4771 H   0  0  0  0  0  0  0  0  0  0  0  0
    5.1715    0.6074    2.8808 H   0  0  0  0  0  0  0  0  0  0  0  0
    3.9583   -0.6577    2.6513 H   0  0  0  0  0  0  0  0  0  0  0  0
    6.7955    0.7803    0.9161 H   0  0  0  0  0  0  0  0  0  0  0  0
    6.8566    0.5520   -1.6983 H   0  0  0  0  0  0  0  0  0  0  0  0
    1.8248   -0.5780   -1.1057 H   0  0  0  0  0  0  0  0  0  0  0  0
   -0.0134   -0.9908    1.8866 H   0  0  0  0  0  0  0  0  0  0  0  0
   -1.8193   -2.4544    1.3995 H   0  0  0  0  0  0  0  0  0  0  0  0
   -3.0855    1.2688   -1.8570 H   0  0  0  0  0  0  0  0  0  0  0  0
   -3.4454    2.0910   -0.3119 H   0  0  0  0  0  0  0  0  0  0  0  0
   -5.7245    1.7221   -0.9868 H   0  0  0  0  0  0  0  0  0  0  0  0
   -5.2543    0.3788   -2.0345 H   0  0  0  0  0  0  0  0  0  0  0  0
   -6.1396   -0.9882   -0.3382 H   0  0  0  0  0  0  0  0  0  0  0  0
   -5.9192    0.2652    0.9183 H   0  0  0  0  0  0  0  0  0  0  0  0
  1  2  1  0
  2  3  1  0
  3  4  2  0
  4  5  1  0
  5  6  1  0
  6  7  1  0
  7  8  2  3
  8  9  1  0
  9 10  1  0
 10 11  2  0
 10 12  1  0
 12 13  1  0
 13 14  1  0
 14 15  2  0
 15 16  1  0
 16 17  1  0
 17 18  1  0
 18 19  1  0
  6  2  2  0
 16 12  2  0
 19 15  1  0
  1 20  1  0
  1 21  1  0
  1 22  1  0
  3 23  1  0
  4 24  1  0
  7 25  1  0
  9 26  1  0
 13 27  1  0
 17 28  1  0
 17 29  1  0
 18 30  1  0
 18 31  1  0
 19 32  1  0
 19 33  1  0
M  END
$$$$
