
     RDKit          3D

 55 58  0  0  0  0  0  0  0  0999 V2000
   -3.4939    1.1283    2.5325 C   0  0  0  0  0  0  0  0  0  0  0  0
   -4.0061    1.6159    1.1847 C   0  0  0  0  0  0  0  0  0  0  0  0
   -4.6797    0.5356    0.4553 N   0  0  0  0  0  0  0  0  0  0  0  0
   -6.0396    0.2859    0.5480 C   0  0  0  0  0  0  0  0  0  0  0  0
   -6.7099   -0.7038   -0.0676 C   0  0  0  0  0  0  0  0  0  0  0  0
   -8.1658   -0.8743    0.1038 C   0  0  0  0  0  0  0  0  0  0  0  0
   -8.8683   -1.7443   -0.3752 O   0  0  0  0  0  0  0  0  0  0  0  0
   -8.7248    0.0687    0.8906 O   0  0  0  0  0  0  0  0  0  0  0  0
   -5.8972   -1.6115   -0.9208 C   0  0  0  0  0  0  0  0  0  0  0  0
   -6.3754   -2.5442   -1.5549 O   0  0  0  0  0  0  0  0  0  0  0  0
   -4.4490   -1.3673   -0.9954 C   0  0  0  0  0  0  0  0  0  0  0  0
   -3.6176   -2.1675   -1.7355 C   0  0  0  0  0  0  0  0  0  0  0  0
   -2.2871   -1.9683   -1.8146 N   0  0  0  0  0  0  0  0  0  0  0  0
   -1.7691   -0.9355   -1.1328 C   0  0  0  0  0  0  0  0  0  0  0  0
   -0.4085   -0.7277   -1.1789 N   0  0  0  0  0  0  0  0  0  0  0  0
    0.3554   -1.3454   -2.2658 C   0  0  0  0  0  0  0  0  0  0  0  0
    1.4967   -0.4327   -2.7571 C   0  0  0  0  0  0  0  0  0  0  0  0
    2.3648    0.0676   -1.6688 N   0  0  0  0  0  0  0  0  0  0  0  0
    3.6770    0.5290   -1.9110 C   0  0  0  0  0  0  0  0  0  0  0  0
    4.2840    0.8340   -3.4446 S   0  0  0  0  0  0  0  0  0  0  0  0
    4.4060    0.6792   -0.7252 N   0  0  0  0  0  0  0  0  0  0  0  0
    5.6849    1.1991   -0.5260 C   0  0  0  0  0  0  0  0  0  0  0  0
    6.2679    1.9953   -1.2500 O   0  0  0  0  0  0  0  0  0  0  0  0
    6.3459    0.7782    0.7388 C   0  0  0  0  0  0  0  0  0  0  0  0
    5.6336    0.6352    1.9372 C   0  0  0  0  0  0  0  0  0  0  0  0
    6.2993    0.2318    3.0967 C   0  0  0  0  0  0  0  0  0  0  0  0
    7.6714   -0.0197    3.0644 C   0  0  0  0  0  0  0  0  0  0  0  0
    8.3857    0.1409    1.8772 C   0  0  0  0  0  0  0  0  0  0  0  0
    7.7260    0.5448    0.7161 C   0  0  0  0  0  0  0  0  0  0  0  0
    1.6726    0.3151   -0.3877 C   0  0  0  0  0  0  0  0  0  0  0  0
    0.1450    0.4518   -0.5249 C   0  0  0  0  0  0  0  0  0  0  0  0
   -2.5247   -0.1120   -0.3844 N   0  0  0  0  0  0  0  0  0  0  0  0
   -3.8579   -0.3199   -0.3164 C   0  0  0  0  0  0  0  0  0  0  0  0
   -2.7513    0.3327    2.4163 H   0  0  0  0  0  0  0  0  0  0  0  0
   -3.0245    1.9523    3.0788 H   0  0  0  0  0  0  0  0  0  0  0  0
   -4.3118    0.7356    3.1457 H   0  0  0  0  0  0  0  0  0  0  0  0
   -3.1879    2.0549    0.6005 H   0  0  0  0  0  0  0  0  0  0  0  0
   -4.7126    2.4386    1.3548 H   0  0  0  0  0  0  0  0  0  0  0  0
   -6.5534    0.9947    1.1943 H   0  0  0  0  0  0  0  0  0  0  0  0
   -9.6734   -0.1845    0.8961 H   0  0  0  0  0  0  0  0  0  0  0  0
   -3.9949   -3.0151   -2.3011 H   0  0  0  0  0  0  0  0  0  0  0  0
   -0.2687   -1.5815   -3.1362 H   0  0  0  0  0  0  0  0  0  0  0  0
    0.7790   -2.2865   -1.8951 H   0  0  0  0  0  0  0  0  0  0  0  0
    1.0755    0.4477   -3.2588 H   0  0  0  0  0  0  0  0  0  0  0  0
    2.0969   -0.9839   -3.4882 H   0  0  0  0  0  0  0  0  0  0  0  0
    4.1056    0.0217   -0.0240 H   0  0  0  0  0  0  0  0  0  0  0  0
    4.5741    0.8653    1.9953 H   0  0  0  0  0  0  0  0  0  0  0  0
    5.7533    0.1257    4.0314 H   0  0  0  0  0  0  0  0  0  0  0  0
    8.1892   -0.3285    3.9698 H   0  0  0  0  0  0  0  0  0  0  0  0
    9.4574   -0.0420    1.8562 H   0  0  0  0  0  0  0  0  0  0  0  0
    8.2876    0.6779   -0.2071 H   0  0  0  0  0  0  0  0  0  0  0  0
    1.9084   -0.5367    0.2619 H   0  0  0  0  0  0  0  0  0  0  0  0
    2.0754    1.2202    0.0799 H   0  0  0  0  0  0  0  0  0  0  0  0
   -0.2687    0.5800    0.4829 H   0  0  0  0  0  0  0  0  0  0  0  0
   -0.0967    1.3490   -1.1087 H   0  0  0  0  0  0  0  0  0  0  0  0
  1  2  1  0
  2  3  1  0
  3  4  1  0
  4  5  2  0
  5  6  1  0
  6  7  2  0
  6  8  1  0
  5  9  1  0
  9 10  2  0
  9 11  1  0
 11 12  2  0
 12 13  1  0
 13 14  2  0
 14 15  1  0
 15 16  1  0
 16 17  1  0
 17 18  1  0
 18 19  1  0
 19 20  2  0
 19 21  1  0
 21 22  1  0
 22 23  2  0
 22 24  1  0
 24 25  2  0
 25 26  1  0
 26 27  2  0
 27 28  1  0
 28 29  2  0
 18 30  1  0
 30 31  1  0
 14 32  1  0
 32 33  2  0
 33  3  1  0
 33 11  1  0
 31 15  1  0
 29 24  1  0
  1 34  1  0
  1 35  1  0
  1 36  1  0
  2 37  1  0
  2 38  1  0
  4 39  1  0
  8 40  1  0
 12 41  1  0
 16 42  1  0
 16 43  1  0
 17 44  1  0
 17 45  1  0
 21 46  1  0
 25 47  1  0
 26 48  1  0
 27 49  1  0
 28 50  1  0
 29 51  1  0
 30 52  1  0
 30 53  1  0
 31 54  1  0
 31 55  1  0
M  END
$$$$
