
     RDKit          3D

 38 39  0  0  0  0  0  0  0  0999 V2000
   -4.8097   -3.4149   -0.3649 O   0  0  0  0  0  0  0  0  0  0  0  0
   -4.0223   -3.3568    0.5639 C   0  0  0  0  0  0  0  0  0  0  0  0
   -4.2373   -4.0660    1.6891 O   0  0  0  0  0  0  0  0  0  0  0  0
   -2.7641   -2.5419    0.6440 C   0  0  0  0  0  0  0  0  0  0  0  0
   -2.5459   -1.7423   -0.6348 C   0  0  0  0  0  0  0  0  0  0  0  0
   -1.3428   -0.8319   -0.4947 C   0  0  0  0  0  0  0  0  0  0  0  0
   -0.1774   -1.3696   -0.2917 N   0  0  0  0  0  0  0  0  0  0  0  0
    0.9079   -0.5537   -0.1722 N   0  0  0  0  0  0  0  0  0  0  0  0
    2.1544   -1.0945    0.0904 C   0  0  0  0  0  0  0  0  0  0  0  0
    2.4073   -2.2894    0.2117 O   0  0  0  0  0  0  0  0  0  0  0  0
    3.2739   -0.1188    0.1496 C   0  0  0  0  0  0  0  0  0  0  0  0
    4.4407   -0.4793   -0.5465 C   0  0  0  0  0  0  0  0  0  0  0  0
    5.5462    0.3714   -0.5728 C   0  0  0  0  0  0  0  0  0  0  0  0
    5.5006    1.5869    0.1038 C   0  0  0  0  0  0  0  0  0  0  0  0
    4.3545    1.9470    0.8149 C   0  0  0  0  0  0  0  0  0  0  0  0
    3.2406    1.0968    0.8464 C   0  0  0  0  0  0  0  0  0  0  0  0
    1.7728    1.6632    1.9113 Br  0  0  0  0  0  0  0  0  0  0  0  0
   -1.6056    0.6148   -0.6128 C   0  0  0  0  0  0  0  0  0  0  0  0
   -1.5202    1.2243   -1.8654 C   0  0  0  0  0  0  0  0  0  0  0  0
   -1.7467    2.5957   -1.9697 C   0  0  0  0  0  0  0  0  0  0  0  0
   -2.0518    3.3421   -0.8288 C   0  0  0  0  0  0  0  0  0  0  0  0
   -2.1325    2.7219    0.4204 C   0  0  0  0  0  0  0  0  0  0  0  0
   -1.9091    1.3507    0.5334 C   0  0  0  0  0  0  0  0  0  0  0  0
   -5.0641   -4.5596    1.5079 H   0  0  0  0  0  0  0  0  0  0  0  0
   -2.8459   -1.8638    1.5011 H   0  0  0  0  0  0  0  0  0  0  0  0
   -1.9221   -3.2216    0.8154 H   0  0  0  0  0  0  0  0  0  0  0  0
   -3.4376   -1.1513   -0.8754 H   0  0  0  0  0  0  0  0  0  0  0  0
   -2.3695   -2.4161   -1.4821 H   0  0  0  0  0  0  0  0  0  0  0  0
    0.7930    0.4506   -0.2543 H   0  0  0  0  0  0  0  0  0  0  0  0
    4.4857   -1.4320   -1.0734 H   0  0  0  0  0  0  0  0  0  0  0  0
    6.4420    0.0808   -1.1169 H   0  0  0  0  0  0  0  0  0  0  0  0
    6.3628    2.2498    0.0893 H   0  0  0  0  0  0  0  0  0  0  0  0
    4.3464    2.8917    1.3546 H   0  0  0  0  0  0  0  0  0  0  0  0
   -1.2778    0.6409   -2.7501 H   0  0  0  0  0  0  0  0  0  0  0  0
   -1.6875    3.0854   -2.9390 H   0  0  0  0  0  0  0  0  0  0  0  0
   -2.2288    4.4122   -0.9136 H   0  0  0  0  0  0  0  0  0  0  0  0
   -2.3683    3.3097    1.3045 H   0  0  0  0  0  0  0  0  0  0  0  0
   -1.9616    0.8676    1.5058 H   0  0  0  0  0  0  0  0  0  0  0  0
  1  2  2  0
  2  3  1  0
  2  4  1  0
  4  5  1  0
  5  6  1  0
  6  7  2  3
  7  8  1  0
  8  9  1  0
  9 10  2  0
  9 11  1  0
 11 12  2  0
 12 13  1  0
 13 14  2  0
 14 15  1  0
 15 16  2  0
 16 17  1  0
  6 18  1  0
 18 19  2  0
 19 20  1  0
 20 21  2  0
 21 22  1  0
 22 23  2  0
 16 11  1  0
 23 18  1  0
  3 24  1  0
  4 25  1  0
  4 26  1  0
  5 27  1  0
  5 28  1  0
  8 29  1  0
 12 30  1  0
 13 31  1  0
 14 32  1  0
 15 33  1  0
 19 34  1  0
 20 35  1  0
 21 36  1  0
 22 37  1  0
 23 38  1  0
M  END
$$$$
