
     RDKit          3D

 33 35  0  0  0  0  0  0  0  0999 V2000
   -6.0240   -2.4858    0.6889 C   0  0  0  0  0  0  0  0  0  0  0  0
   -5.1058   -1.3596    0.3215 C   0  0  0  0  0  0  0  0  0  0  0  0
   -5.6174   -0.1251   -0.0197 C   0  0  0  0  0  0  0  0  0  0  0  0
   -4.6944    0.8413   -0.3419 C   0  0  0  0  0  0  0  0  0  0  0  0
   -3.3657    0.6339   -0.3348 N   0  0  0  0  0  0  0  0  0  0  0  0
   -2.9579   -0.5970    0.0170 C   0  0  0  0  0  0  0  0  0  0  0  0
   -1.2231   -0.9589    0.0360 S   0  0  0  0  0  0  0  0  0  0  0  0
   -0.5658    0.7359    0.0412 C   0  0  0  0  0  0  0  0  0  0  0  0
    0.9232    0.7310    0.1450 C   0  0  0  0  0  0  0  0  0  0  0  0
    1.8584    0.3189   -0.7850 C   0  0  0  0  0  0  0  0  0  0  0  0
    3.0898    0.5174   -0.2071 N   0  0  0  0  0  0  0  0  0  0  0  0
    4.3801    0.2576   -0.7044 C   0  0  0  0  0  0  0  0  0  0  0  0
    4.5412   -0.3366   -2.0700 C   0  0  0  0  0  0  0  0  0  0  0  0
    5.4334    0.5578    0.0845 C   0  0  0  0  0  0  0  0  0  0  0  0
    5.2096    1.1314    1.4017 C   0  0  0  0  0  0  0  0  0  0  0  0
    3.9685    1.3731    1.8623 C   0  0  0  0  0  0  0  0  0  0  0  0
    2.8426    1.0642    1.0505 C   0  0  0  0  0  0  0  0  0  0  0  0
    1.5534    1.2061    1.2751 N   0  0  0  0  0  0  0  0  0  0  0  0
   -3.7811   -1.6097    0.3404 N   0  0  0  0  0  0  0  0  0  0  0  0
   -6.6888   -2.7206   -0.1482 H   0  0  0  0  0  0  0  0  0  0  0  0
   -5.4553   -3.3881    0.9359 H   0  0  0  0  0  0  0  0  0  0  0  0
   -6.6264   -2.2137    1.5613 H   0  0  0  0  0  0  0  0  0  0  0  0
   -6.6798    0.0778   -0.0354 H   0  0  0  0  0  0  0  0  0  0  0  0
   -5.0065    1.8427   -0.6242 H   0  0  0  0  0  0  0  0  0  0  0  0
   -0.8538    1.2493   -0.8828 H   0  0  0  0  0  0  0  0  0  0  0  0
   -0.9869    1.2890    0.8880 H   0  0  0  0  0  0  0  0  0  0  0  0
    1.7457   -0.0993   -1.7742 H   0  0  0  0  0  0  0  0  0  0  0  0
    4.1094    0.3215   -2.8313 H   0  0  0  0  0  0  0  0  0  0  0  0
    5.5957   -0.4870   -2.3258 H   0  0  0  0  0  0  0  0  0  0  0  0
    4.0473   -1.3123   -2.1275 H   0  0  0  0  0  0  0  0  0  0  0  0
    6.4586    0.3849   -0.2279 H   0  0  0  0  0  0  0  0  0  0  0  0
    6.0791    1.3607    2.0103 H   0  0  0  0  0  0  0  0  0  0  0  0
    3.7965    1.7991    2.8438 H   0  0  0  0  0  0  0  0  0  0  0  0
  1  2  1  0
  2  3  2  0
  3  4  1  0
  4  5  2  0
  5  6  1  0
  6  7  1  0
  7  8  1  0
  8  9  1  0
  9 10  2  0
 10 11  1  0
 11 12  1  0
 12 13  1  0
 12 14  2  0
 14 15  1  0
 15 16  2  0
 16 17  1  0
 17 18  2  0
  6 19  2  0
 19  2  1  0
 18  9  1  0
 17 11  1  0
  1 20  1  0
  1 21  1  0
  1 22  1  0
  3 23  1  0
  4 24  1  0
  8 25  1  0
  8 26  1  0
 10 27  1  0
 13 28  1  0
 13 29  1  0
 13 30  1  0
 14 31  1  0
 15 32  1  0
 16 33  1  0
M  END
$$$$
