
     RDKit          3D

 40 43  0  0  0  0  0  0  0  0999 V2000
    7.5262    1.9570    0.3255 C   0  0  0  0  0  0  0  0  0  0  0  0
    6.2238    1.2610    0.1405 C   0  0  0  0  0  0  0  0  0  0  0  0
    5.8157    0.2423    0.8666 N   0  0  0  0  0  0  0  0  0  0  0  0
    4.5618   -0.1692    0.4447 C   0  0  0  0  0  0  0  0  0  0  0  0
    3.8095   -1.2331    0.9821 C   0  0  0  0  0  0  0  0  0  0  0  0
    2.5476   -1.5376    0.4513 C   0  0  0  0  0  0  0  0  0  0  0  0
    2.0162   -0.7965   -0.6039 C   0  0  0  0  0  0  0  0  0  0  0  0
    0.7505   -1.0422   -1.1751 N   0  0  0  0  0  0  0  0  0  0  0  0
   -0.1173   -2.0851   -0.8908 C   0  0  0  0  0  0  0  0  0  0  0  0
    0.0883   -3.0116   -0.1135 O   0  0  0  0  0  0  0  0  0  0  0  0
   -1.4202   -1.9981   -1.6730 C   0  0  0  0  0  0  0  0  0  0  0  0
   -2.5224   -1.3411   -0.8829 C   0  0  0  0  0  0  0  0  0  0  0  0
   -3.3544   -2.1161   -0.0586 C   0  0  0  0  0  0  0  0  0  0  0  0
   -4.3754   -1.5184    0.6831 C   0  0  0  0  0  0  0  0  0  0  0  0
   -4.5662   -0.1408    0.6158 C   0  0  0  0  0  0  0  0  0  0  0  0
   -3.7163    0.6459   -0.1701 C   0  0  0  0  0  0  0  0  0  0  0  0
   -2.7099    0.0489   -0.9294 C   0  0  0  0  0  0  0  0  0  0  0  0
   -3.8132    2.0140   -0.2474 O   0  0  0  0  0  0  0  0  0  0  0  0
   -4.6189    2.5345    0.8177 C   0  0  0  0  0  0  0  0  0  0  0  0
   -5.8966    1.7220    0.9631 C   0  0  0  0  0  0  0  0  0  0  0  0
   -5.5973    0.3768    1.3567 O   0  0  0  0  0  0  0  0  0  0  0  0
    2.7516    0.2728   -1.1449 C   0  0  0  0  0  0  0  0  0  0  0  0
    4.0194    0.5644   -0.6111 C   0  0  0  0  0  0  0  0  0  0  0  0
    5.1352    1.7933   -1.0749 S   0  0  0  0  0  0  0  0  0  0  0  0
    8.1822    1.3755    0.9842 H   0  0  0  0  0  0  0  0  0  0  0  0
    7.3711    2.9375    0.7887 H   0  0  0  0  0  0  0  0  0  0  0  0
    8.0417    2.0973   -0.6313 H   0  0  0  0  0  0  0  0  0  0  0  0
    4.2107   -1.8110    1.8097 H   0  0  0  0  0  0  0  0  0  0  0  0
    2.0019   -2.3571    0.9070 H   0  0  0  0  0  0  0  0  0  0  0  0
    0.4501   -0.3828   -1.8817 H   0  0  0  0  0  0  0  0  0  0  0  0
   -1.7137   -3.0162   -1.9539 H   0  0  0  0  0  0  0  0  0  0  0  0
   -1.2666   -1.4707   -2.6220 H   0  0  0  0  0  0  0  0  0  0  0  0
   -3.2088   -3.1932    0.0127 H   0  0  0  0  0  0  0  0  0  0  0  0
   -5.0213   -2.1297    1.3079 H   0  0  0  0  0  0  0  0  0  0  0  0
   -2.0695    0.6819   -1.5408 H   0  0  0  0  0  0  0  0  0  0  0  0
   -4.0277    2.5229    1.7441 H   0  0  0  0  0  0  0  0  0  0  0  0
   -4.8560    3.5767    0.5780 H   0  0  0  0  0  0  0  0  0  0  0  0
   -6.5343    2.1610    1.7372 H   0  0  0  0  0  0  0  0  0  0  0  0
   -6.4652    1.6928    0.0239 H   0  0  0  0  0  0  0  0  0  0  0  0
    2.3682    0.8717   -1.9682 H   0  0  0  0  0  0  0  0  0  0  0  0
  1  2  1  0
  2  3  2  0
  3  4  1  0
  4  5  2  0
  5  6  1  0
  6  7  2  0
  7  8  1  0
  8  9  1  0
  9 10  2  0
  9 11  1  0
 11 12  1  0
 12 13  2  0
 13 14  1  0
 14 15  2  0
 15 16  1  0
 16 17  2  0
 16 18  1  0
 18 19  1  0
 19 20  1  0
 20 21  1  0
  7 22  1  0
 22 23  2  0
 23 24  1  0
 24  2  1  0
 23  4  1  0
 17 12  1  0
 21 15  1  0
  1 25  1  0
  1 26  1  0
  1 27  1  0
  5 28  1  0
  6 29  1  0
  8 30  1  0
 11 31  1  0
 11 32  1  0
 13 33  1  0
 14 34  1  0
 17 35  1  0
 19 36  1  0
 19 37  1  0
 20 38  1  0
 20 39  1  0
 22 40  1  0
M  END
$$$$
