
     RDKit          3D

 40 41  0  0  0  0  0  0  0  0999 V2000
    1.2489   -3.7936   -0.9977 C   0  0  0  0  0  0  0  0  0  0  0  0
    1.3809   -2.3796   -0.8408 O   0  0  0  0  0  0  0  0  0  0  0  0
    1.3711   -1.9702    0.4516 C   0  0  0  0  0  0  0  0  0  0  0  0
    1.2910   -2.6909    1.4327 O   0  0  0  0  0  0  0  0  0  0  0  0
    1.4920   -0.4935    0.5060 C   0  0  0  0  0  0  0  0  0  0  0  0
    2.2630    0.1010    1.4368 C   0  0  0  0  0  0  0  0  0  0  0  0
    3.1206   -0.5834    2.4605 C   0  0  0  0  0  0  0  0  0  0  0  0
    2.2899    1.5155    1.5720 O   0  0  0  0  0  0  0  0  0  0  0  0
    1.6855    2.3297    0.6638 C   0  0  0  0  0  0  0  0  0  0  0  0
    1.5125    3.5638    0.9997 N   0  0  0  0  0  0  0  0  0  0  0  0
    1.3787    1.6990   -0.6651 C   0  0  0  0  0  0  0  0  0  0  0  0
    0.6321    2.5810   -1.5669 C   0  0  0  0  0  0  0  0  0  0  0  0
    0.0769    3.2923   -2.2969 N   0  0  0  0  0  0  0  0  0  0  0  0
    0.7180    0.3236   -0.4955 C   0  0  0  0  0  0  0  0  0  0  0  0
   -0.7712    0.3547   -0.2102 C   0  0  0  0  0  0  0  0  0  0  0  0
   -1.4762    0.5352    1.0230 C   0  0  0  0  0  0  0  0  0  0  0  0
   -0.9669    0.7322    2.4059 C   0  0  0  0  0  0  0  0  0  0  0  0
   -2.7993    0.5093    0.8420 N   0  0  0  0  0  0  0  0  0  0  0  0
   -2.9640    0.3108   -0.4691 N   0  0  0  0  0  0  0  0  0  0  0  0
   -4.3038    0.2415   -1.0059 C   0  0  0  0  0  0  0  0  0  0  0  0
   -1.7834    0.2078   -1.1558 C   0  0  0  0  0  0  0  0  0  0  0  0
   -1.7470   -0.0090   -2.6279 C   0  0  0  0  0  0  0  0  0  0  0  0
    0.3003   -4.1397   -0.5753 H   0  0  0  0  0  0  0  0  0  0  0  0
    1.2527   -4.0169   -2.0681 H   0  0  0  0  0  0  0  0  0  0  0  0
    2.0938   -4.3109   -0.5325 H   0  0  0  0  0  0  0  0  0  0  0  0
    4.0373   -0.0068    2.6268 H   0  0  0  0  0  0  0  0  0  0  0  0
    2.5867   -0.6555    3.4129 H   0  0  0  0  0  0  0  0  0  0  0  0
    3.4353   -1.5835    2.1509 H   0  0  0  0  0  0  0  0  0  0  0  0
    1.0746    4.1288    0.2638 H   0  0  0  0  0  0  0  0  0  0  0  0
    2.3654    1.5449   -1.1301 H   0  0  0  0  0  0  0  0  0  0  0  0
    0.8379   -0.1632   -1.4734 H   0  0  0  0  0  0  0  0  0  0  0  0
   -0.3816   -0.1321    2.7313 H   0  0  0  0  0  0  0  0  0  0  0  0
   -0.3509    1.6318    2.4699 H   0  0  0  0  0  0  0  0  0  0  0  0
   -1.7895    0.8528    3.1198 H   0  0  0  0  0  0  0  0  0  0  0  0
   -4.3832   -0.6468   -1.6372 H   0  0  0  0  0  0  0  0  0  0  0  0
   -4.4855    1.1484   -1.5875 H   0  0  0  0  0  0  0  0  0  0  0  0
   -5.0232    0.1721   -0.1855 H   0  0  0  0  0  0  0  0  0  0  0  0
   -2.0916   -1.0192   -2.8711 H   0  0  0  0  0  0  0  0  0  0  0  0
   -0.7383    0.1067   -3.0330 H   0  0  0  0  0  0  0  0  0  0  0  0
   -2.3894    0.7119   -3.1438 H   0  0  0  0  0  0  0  0  0  0  0  0
  1  2  1  0
  2  3  1  0
  3  4  2  0
  3  5  1  0
  5  6  2  0
  6  7  1  0
  6  8  1  0
  8  9  1  0
  9 10  2  3
  9 11  1  0
 11 12  1  0
 12 13  3  0
 11 14  1  0
 14 15  1  0
 15 16  1  0
 16 17  1  0
 16 18  2  0
 18 19  1  0
 19 20  1  0
 19 21  1  0
 21 22  1  0
 14  5  1  0
 21 15  2  0
  1 23  1  0
  1 24  1  0
  1 25  1  0
  7 26  1  0
  7 27  1  0
  7 28  1  0
 10 29  1  0
 11 30  1  0
 14 31  1  0
 17 32  1  0
 17 33  1  0
 17 34  1  0
 20 35  1  0
 20 36  1  0
 20 37  1  0
 22 38  1  0
 22 39  1  0
 22 40  1  0
M  END
$$$$
