
     RDKit          3D

 53 56  0  0  0  0  0  0  0  0999 V2000
    7.7836    2.4912   -0.0789 C   0  0  0  0  0  0  0  0  0  0  0  0
    7.6364    1.3118    0.8722 C   0  0  0  0  0  0  0  0  0  0  0  0
    6.4451    0.4238    0.5177 C   0  0  0  0  0  0  0  0  0  0  0  0
    5.2451    1.1813    0.6670 O   0  0  0  0  0  0  0  0  0  0  0  0
    4.0687    0.5483    0.3791 C   0  0  0  0  0  0  0  0  0  0  0  0
    3.9241   -0.7762   -0.0239 C   0  0  0  0  0  0  0  0  0  0  0  0
    2.6487   -1.2981   -0.2870 C   0  0  0  0  0  0  0  0  0  0  0  0
    1.4841   -0.5177   -0.1564 C   0  0  0  0  0  0  0  0  0  0  0  0
    0.1431   -1.0737   -0.4351 C   0  0  0  0  0  0  0  0  0  0  0  0
   -0.9110   -0.2511   -0.3129 N   0  0  0  0  0  0  0  0  0  0  0  0
   -2.1346   -0.7536   -0.5531 C   0  0  0  0  0  0  0  0  0  0  0  0
   -3.2517    0.0930   -0.3759 N   0  0  0  0  0  0  0  0  0  0  0  0
   -4.0033   -0.2141    0.8669 C   0  0  0  0  0  0  0  0  0  0  0  0
   -4.0684    0.9912    1.8351 C   0  0  0  0  0  0  0  0  0  0  0  0
   -4.5629    2.2548    1.2473 N   0  0  0  0  0  0  0  0  0  0  0  0
   -6.0051    2.4084    1.4134 C   0  0  0  0  0  0  0  0  0  0  0  0
   -4.1860    2.3685   -0.1820 C   0  0  0  0  0  0  0  0  0  0  0  0
   -2.9450    1.5290   -0.5571 C   0  0  0  0  0  0  0  0  0  0  0  0
   -2.3172   -2.0910   -0.9575 C   0  0  0  0  0  0  0  0  0  0  0  0
   -3.5631   -2.6831   -1.2911 C   0  0  0  0  0  0  0  0  0  0  0  0
   -3.6450   -4.0189   -1.6769 C   0  0  0  0  0  0  0  0  0  0  0  0
   -2.4857   -4.7778   -1.7423 C   0  0  0  0  0  0  0  0  0  0  0  0
   -1.2561   -4.1910   -1.4312 C   0  0  0  0  0  0  0  0  0  0  0  0
   -1.1507   -2.8591   -1.0471 C   0  0  0  0  0  0  0  0  0  0  0  0
    0.0622   -2.3682   -0.7844 N   0  0  0  0  0  0  0  0  0  0  0  0
    1.6583    0.8166    0.2530 C   0  0  0  0  0  0  0  0  0  0  0  0
    2.9297    1.3402    0.5166 C   0  0  0  0  0  0  0  0  0  0  0  0
    7.9100    2.1483   -1.1108 H   0  0  0  0  0  0  0  0  0  0  0  0
    8.6621    3.0858    0.1910 H   0  0  0  0  0  0  0  0  0  0  0  0
    6.9084    3.1472   -0.0391 H   0  0  0  0  0  0  0  0  0  0  0  0
    7.5148    1.6998    1.8902 H   0  0  0  0  0  0  0  0  0  0  0  0
    8.5540    0.7136    0.8498 H   0  0  0  0  0  0  0  0  0  0  0  0
    6.5479    0.0697   -0.5153 H   0  0  0  0  0  0  0  0  0  0  0  0
    6.4319   -0.4321    1.2030 H   0  0  0  0  0  0  0  0  0  0  0  0
    4.7764   -1.4361   -0.1446 H   0  0  0  0  0  0  0  0  0  0  0  0
    2.5702   -2.3383   -0.6010 H   0  0  0  0  0  0  0  0  0  0  0  0
   -3.5806   -1.0698    1.4094 H   0  0  0  0  0  0  0  0  0  0  0  0
   -5.0245   -0.4926    0.5798 H   0  0  0  0  0  0  0  0  0  0  0  0
   -4.6518    0.7186    2.7234 H   0  0  0  0  0  0  0  0  0  0  0  0
   -3.0528    1.1836    2.2060 H   0  0  0  0  0  0  0  0  0  0  0  0
   -6.2694    2.4247    2.4765 H   0  0  0  0  0  0  0  0  0  0  0  0
   -6.3407    3.3628    0.9927 H   0  0  0  0  0  0  0  0  0  0  0  0
   -6.5673    1.6005    0.9316 H   0  0  0  0  0  0  0  0  0  0  0  0
   -3.9926    3.4236   -0.4060 H   0  0  0  0  0  0  0  0  0  0  0  0
   -5.0144    2.0458   -0.8277 H   0  0  0  0  0  0  0  0  0  0  0  0
   -2.0973    1.8576    0.0587 H   0  0  0  0  0  0  0  0  0  0  0  0
   -2.6920    1.7154   -1.6078 H   0  0  0  0  0  0  0  0  0  0  0  0
   -4.4719   -2.0861   -1.2639 H   0  0  0  0  0  0  0  0  0  0  0  0
   -4.6060   -4.4583   -1.9305 H   0  0  0  0  0  0  0  0  0  0  0  0
   -2.5287   -5.8213   -2.0431 H   0  0  0  0  0  0  0  0  0  0  0  0
   -0.3509   -4.7911   -1.4967 H   0  0  0  0  0  0  0  0  0  0  0  0
    0.7939    1.4680    0.3729 H   0  0  0  0  0  0  0  0  0  0  0  0
    3.0279    2.3762    0.8318 H   0  0  0  0  0  0  0  0  0  0  0  0
  1  2  1  0
  2  3  1  0
  3  4  1  0
  4  5  1  0
  5  6  2  0
  6  7  1  0
  7  8  2  0
  8  9  1  0
  9 10  2  0
 10 11  1  0
 11 12  1  0
 12 13  1  0
 13 14  1  0
 14 15  1  0
 15 16  1  0
 15 17  1  0
 17 18  1  0
 11 19  2  0
 19 20  1  0
 20 21  2  0
 21 22  1  0
 22 23  2  0
 23 24  1  0
 24 25  2  0
  8 26  1  0
 26 27  2  0
 27  5  1  0
 25  9  1  0
 18 12  1  0
 24 19  1  0
  1 28  1  0
  1 29  1  0
  1 30  1  0
  2 31  1  0
  2 32  1  0
  3 33  1  0
  3 34  1  0
  6 35  1  0
  7 36  1  0
 13 37  1  0
 13 38  1  0
 14 39  1  0
 14 40  1  0
 16 41  1  0
 16 42  1  0
 16 43  1  0
 17 44  1  0
 17 45  1  0
 18 46  1  0
 18 47  1  0
 20 48  1  0
 21 49  1  0
 22 50  1  0
 23 51  1  0
 26 52  1  0
 27 53  1  0
M  END
$$$$
