
     RDKit          3D

 43 46  0  0  0  0  0  0  0  0999 V2000
    7.6706    1.7774    0.2694 C   0  0  0  0  0  0  0  0  0  0  0  0
    6.2005    1.5067    0.4028 C   0  0  0  0  0  0  0  0  0  0  0  0
    5.7337    0.1966    0.5680 C   0  0  0  0  0  0  0  0  0  0  0  0
    4.3633   -0.0629    0.6645 C   0  0  0  0  0  0  0  0  0  0  0  0
    3.4432    0.9895    0.5772 C   0  0  0  0  0  0  0  0  0  0  0  0
    1.9716    0.7639    0.6721 C   0  0  0  0  0  0  0  0  0  0  0  0
    1.2802    1.6447    1.1689 O   0  0  0  0  0  0  0  0  0  0  0  0
    1.5372   -0.4235    0.1401 N   0  0  0  0  0  0  0  0  0  0  0  0
    0.2302   -0.8814    0.1277 C   0  0  0  0  0  0  0  0  0  0  0  0
    0.0637   -2.0410   -0.5298 N   0  0  0  0  0  0  0  0  0  0  0  0
   -1.1935   -2.5375   -0.5742 C   0  0  0  0  0  0  0  0  0  0  0  0
   -2.2703   -1.9172    0.0149 C   0  0  0  0  0  0  0  0  0  0  0  0
   -2.0042   -0.7356    0.6704 C   0  0  0  0  0  0  0  0  0  0  0  0
   -0.7592   -0.2157    0.7369 N   0  0  0  0  0  0  0  0  0  0  0  0
   -3.0983    0.0293    1.3656 C   0  0  0  0  0  0  0  0  0  0  0  0
   -4.4657   -0.2040    0.7118 C   0  0  0  0  0  0  0  0  0  0  0  0
   -4.6116    0.4780   -0.6179 C   0  0  0  0  0  0  0  0  0  0  0  0
   -3.7832    1.2347   -1.4241 C   0  0  0  0  0  0  0  0  0  0  0  0
   -4.5442    1.5894   -2.5643 C   0  0  0  0  0  0  0  0  0  0  0  0
   -5.7887    1.0377   -2.3806 C   0  0  0  0  0  0  0  0  0  0  0  0
   -5.8406    0.3680   -1.2022 O   0  0  0  0  0  0  0  0  0  0  0  0
   -4.7486   -1.7085    0.6131 C   0  0  0  0  0  0  0  0  0  0  0  0
   -3.6266   -2.4783   -0.0506 C   0  0  0  0  0  0  0  0  0  0  0  0
   -3.8028   -3.5741   -0.5747 O   0  0  0  0  0  0  0  0  0  0  0  0
    3.9071    2.3001    0.4156 C   0  0  0  0  0  0  0  0  0  0  0  0
    5.2770    2.5553    0.3187 C   0  0  0  0  0  0  0  0  0  0  0  0
    7.9721    1.6952   -0.7794 H   0  0  0  0  0  0  0  0  0  0  0  0
    8.2533    1.0655    0.8637 H   0  0  0  0  0  0  0  0  0  0  0  0
    7.9183    2.7809    0.6313 H   0  0  0  0  0  0  0  0  0  0  0  0
    6.4383   -0.6302    0.6342 H   0  0  0  0  0  0  0  0  0  0  0  0
    4.0377   -1.0851    0.8347 H   0  0  0  0  0  0  0  0  0  0  0  0
    2.1639   -1.0278   -0.3653 H   0  0  0  0  0  0  0  0  0  0  0  0
   -1.3043   -3.4743   -1.1147 H   0  0  0  0  0  0  0  0  0  0  0  0
   -3.1290   -0.3100    2.4089 H   0  0  0  0  0  0  0  0  0  0  0  0
   -2.8535    1.0985    1.3830 H   0  0  0  0  0  0  0  0  0  0  0  0
   -5.2264    0.2399    1.3688 H   0  0  0  0  0  0  0  0  0  0  0  0
   -2.7549    1.5068   -1.2220 H   0  0  0  0  0  0  0  0  0  0  0  0
   -4.2260    2.1788   -3.4126 H   0  0  0  0  0  0  0  0  0  0  0  0
   -6.6998    1.0319   -2.9627 H   0  0  0  0  0  0  0  0  0  0  0  0
   -5.6707   -1.8964    0.0510 H   0  0  0  0  0  0  0  0  0  0  0  0
   -4.8778   -2.1302    1.6175 H   0  0  0  0  0  0  0  0  0  0  0  0
    3.2008    3.1265    0.3611 H   0  0  0  0  0  0  0  0  0  0  0  0
    5.6171    3.5799    0.1829 H   0  0  0  0  0  0  0  0  0  0  0  0
  1  2  1  0
  2  3  2  0
  3  4  1  0
  4  5  2  0
  5  6  1  0
  6  7  2  0
  6  8  1  0
  8  9  1  0
  9 10  2  0
 10 11  1  0
 11 12  2  0
 12 13  1  0
 13 14  2  0
 13 15  1  0
 15 16  1  0
 16 17  1  0
 17 18  2  0
 18 19  1  0
 19 20  2  0
 20 21  1  0
 16 22  1  0
 22 23  1  0
 23 24  2  0
  5 25  1  0
 25 26  2  0
 26  2  1  0
 14  9  1  0
 21 17  1  0
 23 12  1  0
  1 27  1  0
  1 28  1  0
  1 29  1  0
  3 30  1  0
  4 31  1  0
  8 32  1  0
 11 33  1  0
 15 34  1  0
 15 35  1  0
 16 36  1  0
 18 37  1  0
 19 38  1  0
 20 39  1  0
 22 40  1  0
 22 41  1  0
 25 42  1  0
 26 43  1  0
M  END
$$$$
