
     RDKit          3D

 45 47  0  0  0  0  0  0  0  0999 V2000
    6.1203    3.6893    2.6615 C   0  0  0  0  0  0  0  0  0  0  0  0
    5.1314    2.8138    1.9496 C   0  0  0  0  0  0  0  0  0  0  0  0
    4.2129    3.3684    1.0515 C   0  0  0  0  0  0  0  0  0  0  0  0
    3.2692    2.5586    0.4142 C   0  0  0  0  0  0  0  0  0  0  0  0
    3.2303    1.1830    0.6699 C   0  0  0  0  0  0  0  0  0  0  0  0
    2.2111    0.3454   -0.0277 C   0  0  0  0  0  0  0  0  0  0  0  0
    1.1074    0.8957   -0.4396 N   0  0  0  0  0  0  0  0  0  0  0  0
    0.1758    0.1023   -1.0710 N   0  0  0  0  0  0  0  0  0  0  0  0
   -1.1745    0.6316   -1.1711 C   0  0  0  0  0  0  0  0  0  0  0  0
   -2.0774    0.0480   -0.0802 C   0  0  0  0  0  0  0  0  0  0  0  0
   -1.6903   -0.6860    0.8266 O   0  0  0  0  0  0  0  0  0  0  0  0
   -3.3967    0.4504   -0.1950 N   0  0  0  0  0  0  0  0  0  0  0  0
   -4.4267   -0.1323    0.6423 C   0  0  0  0  0  0  0  0  0  0  0  0
   -5.0697   -1.3210   -0.0335 C   0  0  0  0  0  0  0  0  0  0  0  0
   -4.5231   -2.5943    0.1136 C   0  0  0  0  0  0  0  0  0  0  0  0
   -5.1119   -3.6603   -0.5597 C   0  0  0  0  0  0  0  0  0  0  0  0
   -6.2205   -3.4285   -1.3641 C   0  0  0  0  0  0  0  0  0  0  0  0
   -6.6933   -2.1313   -1.4682 C   0  0  0  0  0  0  0  0  0  0  0  0
   -6.1425   -1.0744   -0.8307 N   0  0  0  0  0  0  0  0  0  0  0  0
    0.4514   -1.1441   -1.6204 C   0  0  0  0  0  0  0  0  0  0  0  0
   -0.3783   -1.8300   -2.2172 O   0  0  0  0  0  0  0  0  0  0  0  0
    1.8888   -1.5733   -1.5193 C   0  0  0  0  0  0  0  0  0  0  0  0
    2.4710   -1.1322   -0.1972 C   0  0  0  0  0  0  0  0  0  0  0  0
    4.1296    0.6292    1.5867 C   0  0  0  0  0  0  0  0  0  0  0  0
    5.0724    1.4423    2.2236 C   0  0  0  0  0  0  0  0  0  0  0  0
    7.0359    3.1352    2.8937 H   0  0  0  0  0  0  0  0  0  0  0  0
    5.6861    4.0626    3.5940 H   0  0  0  0  0  0  0  0  0  0  0  0
    6.4069    4.5423    2.0375 H   0  0  0  0  0  0  0  0  0  0  0  0
    4.2230    4.4361    0.8427 H   0  0  0  0  0  0  0  0  0  0  0  0
    2.5657    3.0100   -0.2820 H   0  0  0  0  0  0  0  0  0  0  0  0
   -1.1464    1.7217   -1.0667 H   0  0  0  0  0  0  0  0  0  0  0  0
   -1.5934    0.3780   -2.1512 H   0  0  0  0  0  0  0  0  0  0  0  0
   -3.7145    0.8195   -1.0821 H   0  0  0  0  0  0  0  0  0  0  0  0
   -5.1818    0.6441    0.8068 H   0  0  0  0  0  0  0  0  0  0  0  0
   -4.0219   -0.4137    1.6205 H   0  0  0  0  0  0  0  0  0  0  0  0
   -3.6421   -2.7516    0.7301 H   0  0  0  0  0  0  0  0  0  0  0  0
   -4.7003   -4.6609   -0.4633 H   0  0  0  0  0  0  0  0  0  0  0  0
   -6.6992   -4.2378   -1.9033 H   0  0  0  0  0  0  0  0  0  0  0  0
   -7.5534   -1.8997   -2.0898 H   0  0  0  0  0  0  0  0  0  0  0  0
    1.9444   -2.6635   -1.6049 H   0  0  0  0  0  0  0  0  0  0  0  0
    2.4339   -1.1303   -2.3605 H   0  0  0  0  0  0  0  0  0  0  0  0
    1.9900   -1.6576    0.6360 H   0  0  0  0  0  0  0  0  0  0  0  0
    3.5413   -1.3563   -0.1831 H   0  0  0  0  0  0  0  0  0  0  0  0
    4.1012   -0.4264    1.8404 H   0  0  0  0  0  0  0  0  0  0  0  0
    5.7581    0.9980    2.9425 H   0  0  0  0  0  0  0  0  0  0  0  0
  1  2  1  0
  2  3  2  0
  3  4  1  0
  4  5  2  0
  5  6  1  0
  6  7  2  0
  7  8  1  0
  8  9  1  0
  9 10  1  0
 10 11  2  0
 10 12  1  0
 12 13  1  0
 13 14  1  0
 14 15  2  0
 15 16  1  0
 16 17  2  0
 17 18  1  0
 18 19  2  0
  8 20  1  0
 20 21  2  0
 20 22  1  0
 22 23  1  0
  5 24  1  0
 24 25  2  0
 25  2  1  0
 23  6  1  0
 19 14  1  0
  1 26  1  0
  1 27  1  0
  1 28  1  0
  3 29  1  0
  4 30  1  0
  9 31  1  0
  9 32  1  0
 12 33  1  0
 13 34  1  0
 13 35  1  0
 15 36  1  0
 16 37  1  0
 17 38  1  0
 18 39  1  0
 22 40  1  0
 22 41  1  0
 23 42  1  0
 23 43  1  0
 24 44  1  0
 25 45  1  0
M  END
$$$$
