
     RDKit          3D

 67 70  0  0  0  0  0  0  0  0999 V2000
   -2.8337    0.7712   -2.2893 C   0  0  0  0  0  0  0  0  0  0  0  0
   -1.5117    1.2481   -2.0207 O   0  0  0  0  0  0  0  0  0  0  0  0
   -1.3578    1.5614   -0.6931 C   0  0  0  0  0  0  0  0  0  0  0  0
   -2.0501    2.6658   -0.1736 C   0  0  0  0  0  0  0  0  0  0  0  0
   -1.8960    3.0418    1.1636 C   0  0  0  0  0  0  0  0  0  0  0  0
   -2.5309    4.1113    1.7446 O   0  0  0  0  0  0  0  0  0  0  0  0
   -3.2409    4.9968    0.8864 C   0  0  0  0  0  0  0  0  0  0  0  0
   -1.0461    2.2908    1.9913 C   0  0  0  0  0  0  0  0  0  0  0  0
   -0.8363    2.6153    3.4013 C   0  0  0  0  0  0  0  0  0  0  0  0
   -0.0060    1.8868    4.1523 C   0  0  0  0  0  0  0  0  0  0  0  0
    0.7232    0.7305    3.6146 C   0  0  0  0  0  0  0  0  0  0  0  0
    1.4608    0.0628    4.3307 O   0  0  0  0  0  0  0  0  0  0  0  0
    0.5111    0.4401    2.2777 O   0  0  0  0  0  0  0  0  0  0  0  0
   -0.3494    1.2034    1.4469 C   0  0  0  0  0  0  0  0  0  0  0  0
   -0.4601    0.8264    0.0946 C   0  0  0  0  0  0  0  0  0  0  0  0
    0.3905   -0.3147   -0.4676 C   0  0  0  0  0  0  0  0  0  0  0  0
    1.4037    0.1737   -1.5389 C   0  0  0  0  0  0  0  0  0  0  0  0
    2.3269    1.3208   -1.0897 C   0  0  0  0  0  0  0  0  0  0  0  0
    3.0891    1.0552    0.1356 N   0  0  0  0  0  0  0  0  0  0  0  0
    4.0158   -0.0795   -0.0059 C   0  0  0  0  0  0  0  0  0  0  0  0
    5.2298   -0.0205    0.9317 C   0  0  0  0  0  0  0  0  0  0  0  0
    4.8775    0.6374    2.2575 C   0  0  0  0  0  0  0  0  0  0  0  0
    4.3059    2.0385    2.0379 C   0  0  0  0  0  0  0  0  0  0  0  0
    3.7620    2.2589    0.6221 C   0  0  0  0  0  0  0  0  0  0  0  0
   -0.4576   -1.5205   -0.8873 C   0  0  0  0  0  0  0  0  0  0  0  0
   -1.1255   -2.2613    0.0955 C   0  0  0  0  0  0  0  0  0  0  0  0
   -1.9157   -3.3721   -0.2404 C   0  0  0  0  0  0  0  0  0  0  0  0
   -2.0876   -3.7976   -1.5656 C   0  0  0  0  0  0  0  0  0  0  0  0
   -2.8609   -4.9132   -1.9040 N   0  0  0  0  0  0  0  0  0  0  0  0
   -3.6809   -5.5591   -0.8823 C   0  0  0  0  0  0  0  0  0  0  0  0
   -3.3377   -5.0451   -3.2795 C   0  0  0  0  0  0  0  0  0  0  0  0
   -1.3942   -3.0544   -2.5343 C   0  0  0  0  0  0  0  0  0  0  0  0
   -0.6018   -1.9409   -2.2105 C   0  0  0  0  0  0  0  0  0  0  0  0
   -3.5340    1.6092   -2.3666 H   0  0  0  0  0  0  0  0  0  0  0  0
   -2.8149    0.2588   -3.2561 H   0  0  0  0  0  0  0  0  0  0  0  0
   -3.1738    0.0547   -1.5341 H   0  0  0  0  0  0  0  0  0  0  0  0
   -2.6937    3.2241   -0.8441 H   0  0  0  0  0  0  0  0  0  0  0  0
   -4.1219    4.5077    0.4585 H   0  0  0  0  0  0  0  0  0  0  0  0
   -3.5878    5.8371    1.4923 H   0  0  0  0  0  0  0  0  0  0  0  0
   -2.5902    5.3993    0.1029 H   0  0  0  0  0  0  0  0  0  0  0  0
   -1.3644    3.4631    3.8236 H   0  0  0  0  0  0  0  0  0  0  0  0
    0.1642    2.1095    5.1980 H   0  0  0  0  0  0  0  0  0  0  0  0
    1.0183   -0.7179    0.3379 H   0  0  0  0  0  0  0  0  0  0  0  0
    0.8814    0.5178   -2.4394 H   0  0  0  0  0  0  0  0  0  0  0  0
    2.0194   -0.6763   -1.8630 H   0  0  0  0  0  0  0  0  0  0  0  0
    1.7060    2.2138   -0.9461 H   0  0  0  0  0  0  0  0  0  0  0  0
    3.0101    1.5636   -1.9148 H   0  0  0  0  0  0  0  0  0  0  0  0
    3.4613   -1.0033    0.2019 H   0  0  0  0  0  0  0  0  0  0  0  0
    4.3939   -0.1588   -1.0337 H   0  0  0  0  0  0  0  0  0  0  0  0
    5.6161   -1.0307    1.1024 H   0  0  0  0  0  0  0  0  0  0  0  0
    6.0343    0.5518    0.4501 H   0  0  0  0  0  0  0  0  0  0  0  0
    5.7630    0.6957    2.9038 H   0  0  0  0  0  0  0  0  0  0  0  0
    4.1409    0.0173    2.7875 H   0  0  0  0  0  0  0  0  0  0  0  0
    3.5186    2.2189    2.7785 H   0  0  0  0  0  0  0  0  0  0  0  0
    5.0866    2.7828    2.2271 H   0  0  0  0  0  0  0  0  0  0  0  0
    4.5735    2.5528   -0.0570 H   0  0  0  0  0  0  0  0  0  0  0  0
    3.0649    3.1052    0.6635 H   0  0  0  0  0  0  0  0  0  0  0  0
   -1.0318   -1.9863    1.1443 H   0  0  0  0  0  0  0  0  0  0  0  0
   -2.3912   -3.8977    0.5815 H   0  0  0  0  0  0  0  0  0  0  0  0
   -4.1590   -6.4650   -1.2727 H   0  0  0  0  0  0  0  0  0  0  0  0
   -3.0742   -5.8897   -0.0335 H   0  0  0  0  0  0  0  0  0  0  0  0
   -4.4730   -4.8880   -0.5344 H   0  0  0  0  0  0  0  0  0  0  0  0
   -4.0096   -5.9021   -3.3895 H   0  0  0  0  0  0  0  0  0  0  0  0
   -2.5060   -5.2225   -3.9696 H   0  0  0  0  0  0  0  0  0  0  0  0
   -3.8915   -4.1546   -3.5942 H   0  0  0  0  0  0  0  0  0  0  0  0
   -1.4413   -3.3320   -3.5819 H   0  0  0  0  0  0  0  0  0  0  0  0
   -0.1098   -1.4164   -3.0244 H   0  0  0  0  0  0  0  0  0  0  0  0
  1  2  1  0
  2  3  1  0
  3  4  2  0
  4  5  1  0
  5  6  1  0
  6  7  1  0
  5  8  2  0
  8  9  1  0
  9 10  2  0
 10 11  1  0
 11 12  2  0
 11 13  1  0
 13 14  1  0
 14 15  2  0
 15 16  1  0
 16 17  1  0
 17 18  1  0
 18 19  1  0
 19 20  1  0
 20 21  1  0
 21 22  1  0
 22 23  1  0
 23 24  1  0
 16 25  1  0
 25 26  2  0
 26 27  1  0
 27 28  2  0
 28 29  1  0
 29 30  1  0
 29 31  1  0
 28 32  1  0
 32 33  2  0
 15  3  1  0
 24 19  1  0
 33 25  1  0
 14  8  1  0
  1 34  1  0
  1 35  1  0
  1 36  1  0
  4 37  1  0
  7 38  1  0
  7 39  1  0
  7 40  1  0
  9 41  1  0
 10 42  1  0
 16 43  1  0
 17 44  1  0
 17 45  1  0
 18 46  1  0
 18 47  1  0
 20 48  1  0
 20 49  1  0
 21 50  1  0
 21 51  1  0
 22 52  1  0
 22 53  1  0
 23 54  1  0
 23 55  1  0
 24 56  1  0
 24 57  1  0
 26 58  1  0
 27 59  1  0
 30 60  1  0
 30 61  1  0
 30 62  1  0
 31 63  1  0
 31 64  1  0
 31 65  1  0
 32 66  1  0
 33 67  1  0
M  END
$$$$
