
     RDKit          3D

 46 48  0  0  0  0  0  0  0  0999 V2000
    5.1973   -0.0395   -3.0469 C   0  0  0  0  0  0  0  0  0  0  0  0
    4.8928   -1.0804   -2.1269 O   0  0  0  0  0  0  0  0  0  0  0  0
    3.8598   -0.8551   -1.2603 C   0  0  0  0  0  0  0  0  0  0  0  0
    3.0955    0.3053   -1.1765 C   0  0  0  0  0  0  0  0  0  0  0  0
    2.0617    0.3998   -0.2371 C   0  0  0  0  0  0  0  0  0  0  0  0
    1.7600   -0.6660    0.6318 C   0  0  0  0  0  0  0  0  0  0  0  0
    0.6334   -0.5068    1.6507 C   0  0  0  0  0  0  0  0  0  0  0  0
    0.3953   -1.6654    2.6268 C   0  0  0  0  0  0  0  0  0  0  0  0
   -0.6479   -0.0810    1.0298 N   0  0  0  0  0  0  0  0  0  0  0  0
   -1.4016    1.0100    1.4835 C   0  0  0  0  0  0  0  0  0  0  0  0
   -1.0727    1.7510    2.7375 C   0  0  0  0  0  0  0  0  0  0  0  0
   -2.3997    1.2154    0.5498 C   0  0  0  0  0  0  0  0  0  0  0  0
   -3.3555    2.2516    0.5128 C   0  0  0  0  0  0  0  0  0  0  0  0
   -3.5560    3.4090    1.4253 C   0  0  0  0  0  0  0  0  0  0  0  0
   -4.2038    2.1184   -0.5552 N   0  0  0  0  0  0  0  0  0  0  0  0
   -4.1243    1.0420   -1.5455 N   0  0  0  0  0  0  0  0  0  0  0  0
   -3.1916    0.0382   -1.5236 C   0  0  0  0  0  0  0  0  0  0  0  0
   -3.2302   -0.9800   -2.6076 C   0  0  0  0  0  0  0  0  0  0  0  0
   -2.3217    0.1611   -0.4206 C   0  0  0  0  0  0  0  0  0  0  0  0
   -1.2742   -0.6719   -0.0711 C   0  0  0  0  0  0  0  0  0  0  0  0
   -0.8035   -1.9339   -0.7139 C   0  0  0  0  0  0  0  0  0  0  0  0
    2.5484   -1.8219    0.5444 C   0  0  0  0  0  0  0  0  0  0  0  0
    3.5819   -1.9128   -0.3942 C   0  0  0  0  0  0  0  0  0  0  0  0
    6.0301   -0.3780   -3.6708 H   0  0  0  0  0  0  0  0  0  0  0  0
    5.5201    0.8670   -2.5241 H   0  0  0  0  0  0  0  0  0  0  0  0
    4.3481    0.1652   -3.7074 H   0  0  0  0  0  0  0  0  0  0  0  0
    3.2729    1.1570   -1.8246 H   0  0  0  0  0  0  0  0  0  0  0  0
    1.4802    1.3204   -0.1965 H   0  0  0  0  0  0  0  0  0  0  0  0
    0.9678    0.3392    2.2642 H   0  0  0  0  0  0  0  0  0  0  0  0
    0.0982   -2.5877    2.1193 H   0  0  0  0  0  0  0  0  0  0  0  0
   -0.4002   -1.4195    3.3393 H   0  0  0  0  0  0  0  0  0  0  0  0
    1.2999   -1.8795    3.2066 H   0  0  0  0  0  0  0  0  0  0  0  0
   -1.9627    2.1959    3.1877 H   0  0  0  0  0  0  0  0  0  0  0  0
   -0.3523    2.5479    2.5292 H   0  0  0  0  0  0  0  0  0  0  0  0
   -0.6563    1.0918    3.5048 H   0  0  0  0  0  0  0  0  0  0  0  0
   -4.2684    4.1209    0.9958 H   0  0  0  0  0  0  0  0  0  0  0  0
   -3.9564    3.0694    2.3846 H   0  0  0  0  0  0  0  0  0  0  0  0
   -2.6141    3.9401    1.5886 H   0  0  0  0  0  0  0  0  0  0  0  0
   -3.5616   -1.9435   -2.2106 H   0  0  0  0  0  0  0  0  0  0  0  0
   -3.9310   -0.6809   -3.3939 H   0  0  0  0  0  0  0  0  0  0  0  0
   -2.2445   -1.0932   -3.0671 H   0  0  0  0  0  0  0  0  0  0  0  0
   -0.2080   -1.7084   -1.6040 H   0  0  0  0  0  0  0  0  0  0  0  0
   -0.2073   -2.5584   -0.0486 H   0  0  0  0  0  0  0  0  0  0  0  0
   -1.6520   -2.5554   -1.0137 H   0  0  0  0  0  0  0  0  0  0  0  0
    2.3763   -2.6766    1.1931 H   0  0  0  0  0  0  0  0  0  0  0  0
    4.1777   -2.8210   -0.4504 H   0  0  0  0  0  0  0  0  0  0  0  0
  1  2  1  0
  2  3  1  0
  3  4  2  0
  4  5  1  0
  5  6  2  0
  6  7  1  0
  7  8  1  0
  7  9  1  0
  9 10  1  0
 10 11  1  0
 10 12  2  0
 12 13  1  0
 13 14  1  0
 13 15  2  0
 15 16  1  0
 16 17  2  0
 17 18  1  0
 17 19  1  0
 19 20  2  0
 20 21  1  0
  6 22  1  0
 22 23  2  0
 23  3  1  0
 20  9  1  0
 19 12  1  0
  1 24  1  0
  1 25  1  0
  1 26  1  0
  4 27  1  0
  5 28  1  0
  7 29  1  0
  8 30  1  0
  8 31  1  0
  8 32  1  0
 11 33  1  0
 11 34  1  0
 11 35  1  0
 14 36  1  0
 14 37  1  0
 14 38  1  0
 18 39  1  0
 18 40  1  0
 18 41  1  0
 21 42  1  0
 21 43  1  0
 21 44  1  0
 22 45  1  0
 23 46  1  0
M  END
$$$$
