
     RDKit          3D

 46 47  0  0  0  0  0  0  0  0999 V2000
    3.3484   -3.3261    3.5618 C   0  0  0  0  0  0  0  0  0  0  0  0
    1.9041   -2.9413    3.3030 C   0  0  0  0  0  0  0  0  0  0  0  0
    1.8458   -1.7698    2.4801 O   0  0  0  0  0  0  0  0  0  0  0  0
    1.8806   -0.5745    3.1277 C   0  0  0  0  0  0  0  0  0  0  0  0
    2.0161   -0.4515    4.3399 O   0  0  0  0  0  0  0  0  0  0  0  0
    1.8065    0.5648    2.2132 C   0  0  0  0  0  0  0  0  0  0  0  0
    2.3187    1.8314    2.4839 C   0  0  0  0  0  0  0  0  0  0  0  0
    3.0176    2.3528    3.6906 C   0  0  0  0  0  0  0  0  0  0  0  0
    2.1057    2.6259    1.3859 N   0  0  0  0  0  0  0  0  0  0  0  0
    1.4524    1.9199    0.4063 C   0  0  0  0  0  0  0  0  0  0  0  0
    1.1263    2.5477   -0.9007 C   0  0  0  0  0  0  0  0  0  0  0  0
    1.2187    0.6466    0.9092 C   0  0  0  0  0  0  0  0  0  0  0  0
    0.3546   -0.6349    0.1272 S   0  0  0  0  0  6  0  0  0  0  0  0
   -0.5571   -1.1368    1.1311 O   0  0  0  0  0  0  0  0  0  0  0  0
    1.3713   -1.4421   -0.5048 O   0  0  0  0  0  0  0  0  0  0  0  0
   -0.6250    0.0300   -1.0741 N   0  0  0  0  0  0  0  0  0  0  0  0
   -1.1824   -0.9735   -1.9959 C   0  0  0  0  0  0  0  0  0  0  0  0
   -2.2168   -0.3376   -2.8997 C   0  0  0  0  0  0  0  0  0  0  0  0
   -1.7787    0.2905   -4.0797 C   0  0  0  0  0  0  0  0  0  0  0  0
   -2.6833    0.9124   -4.9388 C   0  0  0  0  0  0  0  0  0  0  0  0
   -4.0383    0.9226   -4.6271 C   0  0  0  0  0  0  0  0  0  0  0  0
   -4.4884    0.3184   -3.4532 C   0  0  0  0  0  0  0  0  0  0  0  0
   -3.5897   -0.3061   -2.5727 C   0  0  0  0  0  0  0  0  0  0  0  0
   -4.1250   -0.9444   -1.3194 C   0  0  0  0  0  0  0  0  0  0  0  0
    3.4055   -4.2543    4.1373 H   0  0  0  0  0  0  0  0  0  0  0  0
    3.8715   -2.5394    4.1147 H   0  0  0  0  0  0  0  0  0  0  0  0
    3.8856   -3.4619    2.6173 H   0  0  0  0  0  0  0  0  0  0  0  0
    1.3520   -2.8003    4.2393 H   0  0  0  0  0  0  0  0  0  0  0  0
    1.4025   -3.7440    2.7526 H   0  0  0  0  0  0  0  0  0  0  0  0
    2.3328    2.3806    4.5440 H   0  0  0  0  0  0  0  0  0  0  0  0
    3.8691    1.7142    3.9466 H   0  0  0  0  0  0  0  0  0  0  0  0
    3.3967    3.3673    3.5292 H   0  0  0  0  0  0  0  0  0  0  0  0
    2.3993    3.5921    1.3069 H   0  0  0  0  0  0  0  0  0  0  0  0
    1.3854    1.8794   -1.7278 H   0  0  0  0  0  0  0  0  0  0  0  0
    0.0592    2.7837   -0.9562 H   0  0  0  0  0  0  0  0  0  0  0  0
    1.6835    3.4793   -1.0456 H   0  0  0  0  0  0  0  0  0  0  0  0
   -1.3663    0.5701   -0.6268 H   0  0  0  0  0  0  0  0  0  0  0  0
   -0.3786   -1.3975   -2.6095 H   0  0  0  0  0  0  0  0  0  0  0  0
   -1.6306   -1.8045   -1.4414 H   0  0  0  0  0  0  0  0  0  0  0  0
   -0.7196    0.2976   -4.3321 H   0  0  0  0  0  0  0  0  0  0  0  0
   -2.3298    1.3883   -5.8495 H   0  0  0  0  0  0  0  0  0  0  0  0
   -4.7469    1.4036   -5.2964 H   0  0  0  0  0  0  0  0  0  0  0  0
   -5.5529    0.3405   -3.2282 H   0  0  0  0  0  0  0  0  0  0  0  0
   -4.0342   -2.0333   -1.3823 H   0  0  0  0  0  0  0  0  0  0  0  0
   -5.1829   -0.7050   -1.1673 H   0  0  0  0  0  0  0  0  0  0  0  0
   -3.5836   -0.5810   -0.4403 H   0  0  0  0  0  0  0  0  0  0  0  0
  1  2  1  0
  2  3  1  0
  3  4  1  0
  4  5  2  0
  4  6  1  0
  6  7  2  0
  7  8  1  0
  7  9  1  0
  9 10  1  0
 10 11  1  0
 10 12  2  0
 12 13  1  0
 13 14  2  0
 13 15  2  0
 13 16  1  0
 16 17  1  0
 17 18  1  0
 18 19  2  0
 19 20  1  0
 20 21  2  0
 21 22  1  0
 22 23  2  0
 23 24  1  0
 12  6  1  0
 23 18  1  0
  1 25  1  0
  1 26  1  0
  1 27  1  0
  2 28  1  0
  2 29  1  0
  8 30  1  0
  8 31  1  0
  8 32  1  0
  9 33  1  0
 11 34  1  0
 11 35  1  0
 11 36  1  0
 16 37  1  0
 17 38  1  0
 17 39  1  0
 19 40  1  0
 20 41  1  0
 21 42  1  0
 22 43  1  0
 24 44  1  0
 24 45  1  0
 24 46  1  0
M  END
$$$$
