
     RDKit          3D

 52 55  0  0  0  0  0  0  0  0999 V2000
   -3.4796   -1.9522    1.0972 C   0  0  0  0  0  0  0  0  0  0  0  0
   -3.2462   -0.5519    1.2266 O   0  0  0  0  0  0  0  0  0  0  0  0
   -4.2854    0.1343    1.8271 C   0  0  0  0  0  0  0  0  0  0  0  0
   -5.4033   -0.5684    2.1478 N   0  0  0  0  0  0  0  0  0  0  0  0
   -6.4205    0.1094    2.7205 C   0  0  0  0  0  0  0  0  0  0  0  0
   -6.3821    1.4643    2.9897 C   0  0  0  0  0  0  0  0  0  0  0  0
   -5.2289    2.1670    2.6521 C   0  0  0  0  0  0  0  0  0  0  0  0
   -4.1448    1.5038    2.0582 C   0  0  0  0  0  0  0  0  0  0  0  0
   -2.9395    2.3160    1.7227 C   0  0  0  0  0  0  0  0  0  0  0  0
   -2.9607    3.5341    1.8795 O   0  0  0  0  0  0  0  0  0  0  0  0
   -1.8314    1.6602    1.2449 N   0  0  0  0  0  0  0  0  0  0  0  0
   -0.6451    2.3640    0.7997 C   0  0  0  0  0  0  0  0  0  0  0  0
   -0.8335    2.9321   -0.6259 C   0  0  0  0  0  0  0  0  0  0  0  0
   -0.7685    1.8288   -1.6992 C   0  0  0  0  0  0  0  0  0  0  0  0
    0.5838    1.0881   -1.7011 C   0  0  0  0  0  0  0  0  0  0  0  0
    1.0336    0.8012   -0.3090 C   0  0  0  0  0  0  0  0  0  0  0  0
    0.4753    1.3815    0.8177 C   0  0  0  0  0  0  0  0  0  0  0  0
    1.1569    0.8071    1.8928 C   0  0  0  0  0  0  0  0  0  0  0  0
    2.0688   -0.0766    1.4970 N   0  0  0  0  0  0  0  0  0  0  0  0
    2.0415   -0.0510    0.1294 N   0  0  0  0  0  0  0  0  0  0  0  0
    2.9863   -0.8484   -0.5924 C   0  0  0  0  0  0  0  0  0  0  0  0
    3.1815   -0.7333   -1.9732 C   0  0  0  0  0  0  0  0  0  0  0  0
    4.1203   -1.5402   -2.6385 C   0  0  0  0  0  0  0  0  0  0  0  0
    4.2907   -1.4316   -4.1265 C   0  0  0  0  0  0  0  0  0  0  0  0
    4.8595   -2.4809   -1.9131 C   0  0  0  0  0  0  0  0  0  0  0  0
    4.7048   -2.5927   -0.5290 C   0  0  0  0  0  0  0  0  0  0  0  0
    5.4870   -3.6114    0.2463 C   0  0  0  0  0  0  0  0  0  0  0  0
    3.7650   -1.7798    0.1202 C   0  0  0  0  0  0  0  0  0  0  0  0
   -4.3312   -2.1528    0.4381 H   0  0  0  0  0  0  0  0  0  0  0  0
   -2.5913   -2.3943    0.6356 H   0  0  0  0  0  0  0  0  0  0  0  0
   -3.6153   -2.4248    2.0762 H   0  0  0  0  0  0  0  0  0  0  0  0
   -7.2964   -0.4857    2.9641 H   0  0  0  0  0  0  0  0  0  0  0  0
   -7.2266    1.9649    3.4508 H   0  0  0  0  0  0  0  0  0  0  0  0
   -5.1757    3.2352    2.8548 H   0  0  0  0  0  0  0  0  0  0  0  0
   -1.8984    0.6656    1.0506 H   0  0  0  0  0  0  0  0  0  0  0  0
   -0.4456    3.1888    1.4938 H   0  0  0  0  0  0  0  0  0  0  0  0
   -1.7872    3.4661   -0.7075 H   0  0  0  0  0  0  0  0  0  0  0  0
   -0.0393    3.6621   -0.8306 H   0  0  0  0  0  0  0  0  0  0  0  0
   -1.5783    1.1084   -1.5253 H   0  0  0  0  0  0  0  0  0  0  0  0
   -0.9429    2.2639   -2.6900 H   0  0  0  0  0  0  0  0  0  0  0  0
    0.4670    0.1657   -2.2790 H   0  0  0  0  0  0  0  0  0  0  0  0
    1.3262    1.7257   -2.1949 H   0  0  0  0  0  0  0  0  0  0  0  0
    1.0146    0.9778    2.9525 H   0  0  0  0  0  0  0  0  0  0  0  0
    2.6469   -0.0076   -2.5701 H   0  0  0  0  0  0  0  0  0  0  0  0
    4.1342   -0.4013   -4.4627 H   0  0  0  0  0  0  0  0  0  0  0  0
    3.5726   -2.0836   -4.6331 H   0  0  0  0  0  0  0  0  0  0  0  0
    5.3034   -1.7199   -4.4274 H   0  0  0  0  0  0  0  0  0  0  0  0
    5.5693   -3.1248   -2.4292 H   0  0  0  0  0  0  0  0  0  0  0  0
    5.6934   -3.2551    1.2610 H   0  0  0  0  0  0  0  0  0  0  0  0
    4.9245   -4.5481    0.3066 H   0  0  0  0  0  0  0  0  0  0  0  0
    6.4529   -3.8091   -0.2302 H   0  0  0  0  0  0  0  0  0  0  0  0
    3.6379   -1.8904    1.1970 H   0  0  0  0  0  0  0  0  0  0  0  0
  1  2  1  0
  2  3  1  0
  3  4  2  0
  4  5  1  0
  5  6  2  0
  6  7  1  0
  7  8  2  0
  8  9  1  0
  9 10  2  0
  9 11  1  0
 11 12  1  0
 12 13  1  0
 13 14  1  0
 14 15  1  0
 15 16  1  0
 16 17  2  0
 17 18  1  0
 18 19  2  0
 19 20  1  0
 20 21  1  0
 21 22  2  0
 22 23  1  0
 23 24  1  0
 23 25  2  0
 25 26  1  0
 26 27  1  0
 26 28  2  0
  8  3  1  0
 17 12  1  0
 28 21  1  0
 20 16  1  0
  1 29  1  0
  1 30  1  0
  1 31  1  0
  5 32  1  0
  6 33  1  0
  7 34  1  0
 11 35  1  0
 12 36  1  0
 13 37  1  0
 13 38  1  0
 14 39  1  0
 14 40  1  0
 15 41  1  0
 15 42  1  0
 18 43  1  0
 22 44  1  0
 24 45  1  0
 24 46  1  0
 24 47  1  0
 25 48  1  0
 27 49  1  0
 27 50  1  0
 27 51  1  0
 28 52  1  0
M  END
$$$$
