
     RDKit          3D

 47 49  0  0  0  0  0  0  0  0999 V2000
    5.9204   -3.2607   -3.8062 C   0  0  0  0  0  0  0  0  0  0  0  0
    5.8511   -3.1998   -2.3870 O   0  0  0  0  0  0  0  0  0  0  0  0
    4.9689   -2.3034   -1.8516 C   0  0  0  0  0  0  0  0  0  0  0  0
    4.0905   -1.4887   -2.5628 C   0  0  0  0  0  0  0  0  0  0  0  0
    3.2334   -0.6093   -1.8854 C   0  0  0  0  0  0  0  0  0  0  0  0
    3.2558   -0.5211   -0.4934 C   0  0  0  0  0  0  0  0  0  0  0  0
    2.3980    0.3109    0.2575 N   0  0  0  0  0  0  0  0  0  0  0  0
    1.7375    1.4859   -0.0826 C   0  0  0  0  0  0  0  0  0  0  0  0
    2.2216    2.5346   -1.3056 S   0  0  0  0  0  0  0  0  0  0  0  0
    0.6522    1.7450    0.7793 N   0  0  0  0  0  0  0  0  0  0  0  0
   -0.0073    3.0540    0.8783 C   0  0  0  0  0  0  0  0  0  0  0  0
   -1.3505    3.0299    0.1532 C   0  0  0  0  0  0  0  0  0  0  0  0
   -2.1963    1.8701    0.6246 C   0  0  0  0  0  0  0  0  0  0  0  0
   -3.5858    1.8980    0.4298 C   0  0  0  0  0  0  0  0  0  0  0  0
   -4.3881    0.8278    0.8402 C   0  0  0  0  0  0  0  0  0  0  0  0
   -5.7530    0.7804    0.6949 O   0  0  0  0  0  0  0  0  0  0  0  0
   -6.3857    1.8717    0.0430 C   0  0  0  0  0  0  0  0  0  0  0  0
   -3.7920   -0.2936    1.4483 C   0  0  0  0  0  0  0  0  0  0  0  0
   -4.6475   -1.2983    1.8291 O   0  0  0  0  0  0  0  0  0  0  0  0
   -4.0801   -2.4823    2.3690 C   0  0  0  0  0  0  0  0  0  0  0  0
   -2.4043   -0.3256    1.6307 C   0  0  0  0  0  0  0  0  0  0  0  0
   -1.5946    0.7441    1.2127 C   0  0  0  0  0  0  0  0  0  0  0  0
   -0.0963    0.6656    1.4392 C   0  0  0  0  0  0  0  0  0  0  0  0
    4.1174   -1.3629    0.2172 C   0  0  0  0  0  0  0  0  0  0  0  0
    4.9720   -2.2395   -0.4584 C   0  0  0  0  0  0  0  0  0  0  0  0
    6.2219   -2.2969   -4.2298 H   0  0  0  0  0  0  0  0  0  0  0  0
    6.6867   -3.9953   -4.0720 H   0  0  0  0  0  0  0  0  0  0  0  0
    4.9710   -3.6012   -4.2325 H   0  0  0  0  0  0  0  0  0  0  0  0
    4.0336   -1.5150   -3.6459 H   0  0  0  0  0  0  0  0  0  0  0  0
    2.5333   -0.0292   -2.4780 H   0  0  0  0  0  0  0  0  0  0  0  0
    2.4207    0.1525    1.2562 H   0  0  0  0  0  0  0  0  0  0  0  0
   -0.1534    3.2588    1.9472 H   0  0  0  0  0  0  0  0  0  0  0  0
    0.6217    3.8610    0.4944 H   0  0  0  0  0  0  0  0  0  0  0  0
   -1.8716    3.9766    0.3362 H   0  0  0  0  0  0  0  0  0  0  0  0
   -1.1982    2.9267   -0.9277 H   0  0  0  0  0  0  0  0  0  0  0  0
   -4.0184    2.7725   -0.0455 H   0  0  0  0  0  0  0  0  0  0  0  0
   -7.4578    1.6575   -0.0035 H   0  0  0  0  0  0  0  0  0  0  0  0
   -6.2573    2.7989    0.6111 H   0  0  0  0  0  0  0  0  0  0  0  0
   -6.0246    1.9826   -0.9848 H   0  0  0  0  0  0  0  0  0  0  0  0
   -3.4064   -2.9623    1.6516 H   0  0  0  0  0  0  0  0  0  0  0  0
   -4.8967   -3.1808    2.5757 H   0  0  0  0  0  0  0  0  0  0  0  0
   -3.5705   -2.2783    3.3164 H   0  0  0  0  0  0  0  0  0  0  0  0
   -1.9240   -1.1799    2.0971 H   0  0  0  0  0  0  0  0  0  0  0  0
    0.2486   -0.3135    1.0926 H   0  0  0  0  0  0  0  0  0  0  0  0
    0.1051    0.7502    2.5135 H   0  0  0  0  0  0  0  0  0  0  0  0
    4.1518   -1.3406    1.3029 H   0  0  0  0  0  0  0  0  0  0  0  0
    5.6472   -2.8770    0.1072 H   0  0  0  0  0  0  0  0  0  0  0  0
  1  2  1  0
  2  3  1  0
  3  4  2  0
  4  5  1  0
  5  6  2  0
  6  7  1  0
  7  8  1  0
  8  9  2  0
  8 10  1  0
 10 11  1  0
 11 12  1  0
 12 13  1  0
 13 14  2  0
 14 15  1  0
 15 16  1  0
 16 17  1  0
 15 18  2  0
 18 19  1  0
 19 20  1  0
 18 21  1  0
 21 22  2  0
 22 23  1  0
  6 24  1  0
 24 25  2  0
 25  3  1  0
 23 10  1  0
 22 13  1  0
  1 26  1  0
  1 27  1  0
  1 28  1  0
  4 29  1  0
  5 30  1  0
  7 31  1  0
 11 32  1  0
 11 33  1  0
 12 34  1  0
 12 35  1  0
 14 36  1  0
 17 37  1  0
 17 38  1  0
 17 39  1  0
 20 40  1  0
 20 41  1  0
 20 42  1  0
 21 43  1  0
 23 44  1  0
 23 45  1  0
 24 46  1  0
 25 47  1  0
M  END
$$$$
