
     RDKit          3D

 36 37  0  0  0  0  0  0  0  0999 V2000
   -3.0013   -2.2724    0.9085 C   0  0  0  0  0  0  0  0  0  0  0  0
   -1.7262   -1.5961    1.4251 C   0  0  0  0  0  0  0  0  0  0  0  0
   -2.0472   -0.2557    2.1111 C   0  0  0  0  0  0  0  0  0  0  0  0
   -1.5110    0.9588    1.3400 C   0  0  0  0  0  0  0  0  0  0  0  0
   -2.1371    2.2508    1.8621 C   0  0  0  0  0  0  0  0  0  0  0  0
   -1.7557    0.7982   -0.1619 C   0  0  0  0  0  0  0  0  0  0  0  0
   -1.1285   -0.4363   -0.6860 N   0  0  0  0  0  0  0  0  0  0  0  0
   -0.2352   -0.3360   -2.1219 S   0  0  0  0  0  6  0  0  0  0  0  0
   -0.0058   -1.6842   -2.5980 O   0  0  0  0  0  0  0  0  0  0  0  0
   -0.8142    0.6768   -2.9764 O   0  0  0  0  0  0  0  0  0  0  0  0
    1.4047    0.2435   -1.7191 C   0  0  0  0  0  0  0  0  0  0  0  0
    2.6324   -0.3915   -1.7354 C   0  0  0  0  0  0  0  0  0  0  0  0
    3.7277    0.4538   -1.3237 C   0  0  0  0  0  0  0  0  0  0  0  0
    5.1050   -0.0076   -1.2667 C   0  0  0  0  0  0  0  0  0  0  0  0
    5.4578   -1.1519   -1.5150 O   0  0  0  0  0  0  0  0  0  0  0  0
    6.0284    0.9075   -0.9141 O   0  0  0  0  0  0  0  0  0  0  0  0
    3.2418    1.7057   -1.0117 C   0  0  0  0  0  0  0  0  0  0  0  0
    4.0819    3.1035   -0.4522 Cl  0  0  0  0  0  0  0  0  0  0  0  0
    1.5614    1.8617   -1.2076 S   0  0  0  0  0  0  0  0  0  0  0  0
   -0.6882   -1.4380    0.3075 C   0  0  0  0  0  0  0  0  0  0  0  0
   -3.6962   -2.4639    1.7333 H   0  0  0  0  0  0  0  0  0  0  0  0
   -2.7681   -3.2353    0.4419 H   0  0  0  0  0  0  0  0  0  0  0  0
   -3.5206   -1.6546    0.1690 H   0  0  0  0  0  0  0  0  0  0  0  0
   -1.3026   -2.2698    2.1817 H   0  0  0  0  0  0  0  0  0  0  0  0
   -1.5993   -0.2522    3.1136 H   0  0  0  0  0  0  0  0  0  0  0  0
   -3.1289   -0.1588    2.2698 H   0  0  0  0  0  0  0  0  0  0  0  0
   -0.4284    1.0259    1.5137 H   0  0  0  0  0  0  0  0  0  0  0  0
   -3.2210    2.2605    1.7053 H   0  0  0  0  0  0  0  0  0  0  0  0
   -1.9478    2.3680    2.9343 H   0  0  0  0  0  0  0  0  0  0  0  0
   -1.7138    3.1212    1.3497 H   0  0  0  0  0  0  0  0  0  0  0  0
   -2.8313    0.7394   -0.3691 H   0  0  0  0  0  0  0  0  0  0  0  0
   -1.3878    1.6855   -0.6850 H   0  0  0  0  0  0  0  0  0  0  0  0
    2.7470   -1.4284   -2.0381 H   0  0  0  0  0  0  0  0  0  0  0  0
    6.8721    0.4112   -0.9430 H   0  0  0  0  0  0  0  0  0  0  0  0
    0.2734   -1.1313    0.7357 H   0  0  0  0  0  0  0  0  0  0  0  0
   -0.5375   -2.4081   -0.1788 H   0  0  0  0  0  0  0  0  0  0  0  0
  1  2  1  0
  2  3  1  0
  3  4  1  0
  4  5  1  0
  4  6  1  0
  6  7  1  0
  7  8  1  0
  8  9  2  0
  8 10  2  0
  8 11  1  0
 11 12  2  0
 12 13  1  0
 13 14  1  0
 14 15  2  0
 14 16  1  0
 13 17  2  0
 17 18  1  0
 17 19  1  0
  7 20  1  0
 20  2  1  0
 19 11  1  0
  1 21  1  0
  1 22  1  0
  1 23  1  0
  2 24  1  0
  3 25  1  0
  3 26  1  0
  4 27  1  0
  5 28  1  0
  5 29  1  0
  5 30  1  0
  6 31  1  0
  6 32  1  0
 12 33  1  0
 16 34  1  0
 20 35  1  0
 20 36  1  0
M  END
$$$$
