
     RDKit          3D

 42 45  0  0  0  0  0  0  0  0999 V2000
    7.1206   -0.9975   -1.9671 O   0  0  0  0  0  0  0  0  0  0  0  0
    6.9345   -0.8485   -0.7722 C   0  0  0  0  0  0  0  0  0  0  0  0
    7.9230   -1.0791    0.1119 O   0  0  0  0  0  0  0  0  0  0  0  0
    5.6458   -0.4723   -0.0986 C   0  0  0  0  0  0  0  0  0  0  0  0
    4.7239    0.2669   -1.0752 C   0  0  0  0  0  0  0  0  0  0  0  0
    5.1324    1.7411   -1.1547 C   0  0  0  0  0  0  0  0  0  0  0  0
    6.2776    2.1610   -1.2226 O   0  0  0  0  0  0  0  0  0  0  0  0
    4.1010    2.6099   -1.2072 O   0  0  0  0  0  0  0  0  0  0  0  0
    3.2826    0.1467   -0.7392 N   0  0  0  0  0  0  0  0  0  0  0  0
    2.8618    0.4127    0.5525 C   0  0  0  0  0  0  0  0  0  0  0  0
    3.5864    0.7065    1.4944 O   0  0  0  0  0  0  0  0  0  0  0  0
    1.3812    0.3236    0.6611 C   0  0  0  0  0  0  0  0  0  0  0  0
    0.7836    0.5079    1.8461 C   0  0  0  0  0  0  0  0  0  0  0  0
   -0.6177    0.4506    2.0908 C   0  0  0  0  0  0  0  0  0  0  0  0
   -1.2810    0.6866    3.2872 C   0  0  0  0  0  0  0  0  0  0  0  0
   -2.6672    0.5120    3.0590 C   0  0  0  0  0  0  0  0  0  0  0  0
   -2.8212    0.1704    1.7271 C   0  0  0  0  0  0  0  0  0  0  0  0
   -4.0149   -0.1183    0.9732 C   0  0  0  0  0  0  0  0  0  0  0  0
   -3.9718   -0.4370   -0.3026 N   0  0  0  0  0  0  0  0  0  0  0  0
   -5.2493   -0.6626   -0.7827 C   0  0  0  0  0  0  0  0  0  0  0  0
   -5.5843   -1.0227   -2.1036 C   0  0  0  0  0  0  0  0  0  0  0  0
   -6.9242   -1.2205   -2.4525 C   0  0  0  0  0  0  0  0  0  0  0  0
   -7.9296   -1.0641   -1.5034 C   0  0  0  0  0  0  0  0  0  0  0  0
   -7.6235   -0.7072   -0.1863 C   0  0  0  0  0  0  0  0  0  0  0  0
   -6.2741   -0.5111    0.1524 C   0  0  0  0  0  0  0  0  0  0  0  0
   -5.5854   -0.0729    1.6671 S   0  0  0  0  0  0  0  0  0  0  0  0
   -1.5739    0.1369    1.1585 O   0  0  0  0  0  0  0  0  0  0  0  0
    0.7118   -0.0094   -0.8796 S   0  0  0  0  0  0  0  0  0  0  0  0
    2.2795   -0.0263   -1.6732 C   0  0  0  0  0  0  0  0  0  0  0  0
    2.4223   -0.2484   -3.3210 S   0  0  0  0  0  0  0  0  0  0  0  0
    8.7007   -1.3046   -0.4414 H   0  0  0  0  0  0  0  0  0  0  0  0
    5.8860    0.1527    0.7688 H   0  0  0  0  0  0  0  0  0  0  0  0
    5.1825   -1.4023    0.2495 H   0  0  0  0  0  0  0  0  0  0  0  0
    4.8636   -0.1261   -2.0855 H   0  0  0  0  0  0  0  0  0  0  0  0
    4.5297    3.4894   -1.2871 H   0  0  0  0  0  0  0  0  0  0  0  0
    1.4077    0.7231    2.7118 H   0  0  0  0  0  0  0  0  0  0  0  0
   -0.8110    0.9571    4.2234 H   0  0  0  0  0  0  0  0  0  0  0  0
   -3.4586    0.6234    3.7873 H   0  0  0  0  0  0  0  0  0  0  0  0
   -4.7954   -1.1430   -2.8398 H   0  0  0  0  0  0  0  0  0  0  0  0
   -7.1776   -1.4982   -3.4730 H   0  0  0  0  0  0  0  0  0  0  0  0
   -8.9680   -1.2210   -1.7885 H   0  0  0  0  0  0  0  0  0  0  0  0
   -8.4093   -0.5855    0.5528 H   0  0  0  0  0  0  0  0  0  0  0  0
  1  2  2  0
  2  3  1  0
  2  4  1  0
  4  5  1  0
  5  6  1  0
  6  7  2  0
  6  8  1  0
  5  9  1  0
  9 10  1  0
 10 11  2  0
 10 12  1  0
 12 13  2  3
 13 14  1  0
 14 15  2  0
 15 16  1  0
 16 17  2  0
 17 18  1  0
 18 19  2  0
 19 20  1  0
 20 21  2  0
 21 22  1  0
 22 23  2  0
 23 24  1  0
 24 25  2  0
 25 26  1  0
 17 27  1  0
 12 28  1  0
 28 29  1  0
 29 30  2  0
 29  9  1  0
 27 14  1  0
 26 18  1  0
 25 20  1  0
  3 31  1  0
  4 32  1  0
  4 33  1  0
  5 34  1  0
  8 35  1  0
 13 36  1  0
 15 37  1  0
 16 38  1  0
 21 39  1  0
 22 40  1  0
 23 41  1  0
 24 42  1  0
M  END
$$$$
