
     RDKit          3D

 46 49  0  0  0  0  0  0  0  0999 V2000
   -5.0709   -0.6843   -2.8173 C   0  0  0  0  0  0  0  0  0  0  0  0
   -3.7438   -0.4422   -2.1095 C   0  0  0  0  0  0  0  0  0  0  0  0
   -3.8039   -0.6502   -0.5714 C   0  0  0  0  0  0  0  0  0  0  0  0
   -4.8028    0.3645    0.0305 C   0  0  0  0  0  0  0  0  0  0  0  0
   -4.7954    0.3794    1.5524 C   0  0  0  0  0  0  0  0  0  0  0  0
   -3.3840    0.6225    2.0566 C   0  0  0  0  0  0  0  0  0  0  0  0
   -2.4494   -0.4418    1.5092 C   0  0  0  0  0  0  0  0  0  0  0  0
   -2.4591   -0.5165    0.0443 N   0  0  0  0  0  0  0  0  0  0  0  0
   -1.4536   -1.3841   -0.4558 C   0  0  0  0  0  0  0  0  0  0  0  0
   -1.7430   -2.4462   -1.0055 O   0  0  0  0  0  0  0  0  0  0  0  0
   -0.0835   -0.9040   -0.2999 C   0  0  0  0  0  0  0  0  0  0  0  0
    0.3789    0.3839   -0.0913 C   0  0  0  0  0  0  0  0  0  0  0  0
    1.8010    0.4377   -0.0013 C   0  0  0  0  0  0  0  0  0  0  0  0
    2.6596    1.5828    0.2175 C   0  0  0  0  0  0  0  0  0  0  0  0
    2.1884    2.7087    0.3703 O   0  0  0  0  0  0  0  0  0  0  0  0
    4.0322    1.2789    0.2412 N   0  0  0  0  0  0  0  0  0  0  0  0
    4.9325    2.3200    0.4425 C   0  0  0  0  0  0  0  0  0  0  0  0
    6.2531    2.1186    0.4819 C   0  0  0  0  0  0  0  0  0  0  0  0
    6.7836    0.7950    0.3140 C   0  0  0  0  0  0  0  0  0  0  0  0
    5.9764   -0.2583    0.1160 C   0  0  0  0  0  0  0  0  0  0  0  0
    6.4803   -1.6562   -0.0653 C   0  0  0  0  0  0  0  0  0  0  0  0
    4.4856   -0.0433    0.0697 C   0  0  0  0  0  0  0  0  0  0  0  0
    3.7055   -1.0700   -0.1221 N   0  0  0  0  0  0  0  0  0  0  0  0
    2.3821   -0.7951   -0.1550 C   0  0  0  0  0  0  0  0  0  0  0  0
    1.2200   -2.0150   -0.4117 S   0  0  0  0  0  0  0  0  0  0  0  0
   -5.8112    0.0795   -2.5631 H   0  0  0  0  0  0  0  0  0  0  0  0
   -4.9272   -0.6493   -3.9023 H   0  0  0  0  0  0  0  0  0  0  0  0
   -5.4787   -1.6672   -2.5618 H   0  0  0  0  0  0  0  0  0  0  0  0
   -3.3940    0.5740   -2.3322 H   0  0  0  0  0  0  0  0  0  0  0  0
   -3.0107   -1.1150   -2.5652 H   0  0  0  0  0  0  0  0  0  0  0  0
   -4.1556   -1.6689   -0.3595 H   0  0  0  0  0  0  0  0  0  0  0  0
   -4.5607    1.3739   -0.3279 H   0  0  0  0  0  0  0  0  0  0  0  0
   -5.8211    0.1416   -0.3064 H   0  0  0  0  0  0  0  0  0  0  0  0
   -5.1738   -0.5757    1.9363 H   0  0  0  0  0  0  0  0  0  0  0  0
   -5.4647    1.1647    1.9209 H   0  0  0  0  0  0  0  0  0  0  0  0
   -3.3705    0.6040    3.1518 H   0  0  0  0  0  0  0  0  0  0  0  0
   -3.0426    1.6161    1.7417 H   0  0  0  0  0  0  0  0  0  0  0  0
   -1.4362   -0.2517    1.8766 H   0  0  0  0  0  0  0  0  0  0  0  0
   -2.7345   -1.4312    1.8915 H   0  0  0  0  0  0  0  0  0  0  0  0
   -0.2686    1.2501   -0.0114 H   0  0  0  0  0  0  0  0  0  0  0  0
    4.5173    3.3174    0.5680 H   0  0  0  0  0  0  0  0  0  0  0  0
    6.9425    2.9421    0.6394 H   0  0  0  0  0  0  0  0  0  0  0  0
    7.8629    0.6781    0.3526 H   0  0  0  0  0  0  0  0  0  0  0  0
    6.0866   -2.3124    0.7178 H   0  0  0  0  0  0  0  0  0  0  0  0
    7.5735   -1.7034   -0.0158 H   0  0  0  0  0  0  0  0  0  0  0  0
    6.1775   -2.0516   -1.0405 H   0  0  0  0  0  0  0  0  0  0  0  0
  1  2  1  0
  2  3  1  0
  3  4  1  0
  4  5  1  0
  5  6  1  0
  6  7  1  0
  7  8  1  0
  8  9  1  0
  9 10  2  0
  9 11  1  0
 11 12  2  0
 12 13  1  0
 13 14  1  0
 14 15  2  0
 14 16  1  0
 16 17  1  0
 17 18  2  0
 18 19  1  0
 19 20  2  0
 20 21  1  0
 20 22  1  0
 22 23  2  0
 23 24  1  0
 24 25  1  0
  8  3  1  0
 25 11  1  0
 24 13  2  0
 22 16  1  0
  1 26  1  0
  1 27  1  0
  1 28  1  0
  2 29  1  0
  2 30  1  0
  3 31  1  0
  4 32  1  0
  4 33  1  0
  5 34  1  0
  5 35  1  0
  6 36  1  0
  6 37  1  0
  7 38  1  0
  7 39  1  0
 12 40  1  0
 17 41  1  0
 18 42  1  0
 19 43  1  0
 21 44  1  0
 21 45  1  0
 21 46  1  0
M  END
$$$$
