
     RDKit          3D

 53 56  0  0  0  0  0  0  0  0999 V2000
    5.8689   -0.5285   -1.2057 C   0  0  0  0  0  0  0  0  0  0  0  0
    4.6759    0.3966   -0.9876 C   0  0  0  0  0  0  0  0  0  0  0  0
    3.8356   -0.0286    0.1395 N   0  0  0  0  0  0  0  0  0  0  0  0
    4.5356    0.0737    1.4261 C   0  0  0  0  0  0  0  0  0  0  0  0
    3.4197   -0.0044    2.4526 C   0  0  0  0  0  0  0  0  0  0  0  0
    2.1736    0.4792    1.7249 C   0  0  0  0  0  0  0  0  0  0  0  0
    2.6340    0.8205    0.3021 C   0  0  0  0  0  0  0  0  0  0  0  0
    1.5247    0.5593   -0.7371 C   0  0  0  0  0  0  0  0  0  0  0  0
    0.3833    1.4589   -0.4928 N   0  0  0  0  0  0  0  0  0  0  0  0
   -0.7731    1.6273   -1.7002 S   0  0  0  0  0  6  0  0  0  0  0  0
   -0.0775    2.0055   -2.9142 O   0  0  0  0  0  0  0  0  0  0  0  0
   -1.8485    2.4534   -1.1961 O   0  0  0  0  0  0  0  0  0  0  0  0
   -1.4006   -0.0215   -1.9354 C   0  0  0  0  0  0  0  0  0  0  0  0
   -0.9104   -0.7240   -3.0563 C   0  0  0  0  0  0  0  0  0  0  0  0
   -1.5266   -1.9025   -3.4883 C   0  0  0  0  0  0  0  0  0  0  0  0
   -0.8409   -2.8200   -4.9920 Br  0  0  0  0  0  0  0  0  0  0  0  0
   -2.6592   -2.3881   -2.8453 C   0  0  0  0  0  0  0  0  0  0  0  0
   -3.1381   -1.6872   -1.7460 C   0  0  0  0  0  0  0  0  0  0  0  0
   -2.4974   -0.5386   -1.2487 C   0  0  0  0  0  0  0  0  0  0  0  0
   -3.1814   -0.1281   -0.0802 N   0  0  0  0  0  0  0  0  0  0  0  0
   -2.6386    0.5677    0.9839 C   0  0  0  0  0  0  0  0  0  0  0  0
   -1.4367    0.7299    1.1702 O   0  0  0  0  0  0  0  0  0  0  0  0
   -3.6168    1.0818    1.9886 C   0  0  0  0  0  0  0  0  0  0  0  0
   -3.8008    0.3542    3.3010 C   0  0  0  0  0  0  0  0  0  0  0  0
   -3.1419    1.7007    3.2846 C   0  0  0  0  0  0  0  0  0  0  0  0
   -4.4610   -0.8474   -0.0051 C   0  0  0  0  0  0  0  0  0  0  0  0
   -4.3240   -2.0675   -0.9142 C   0  0  0  0  0  0  0  0  0  0  0  0
    6.4023   -0.2407   -2.1177 H   0  0  0  0  0  0  0  0  0  0  0  0
    5.5460   -1.5686   -1.3205 H   0  0  0  0  0  0  0  0  0  0  0  0
    6.5817   -0.4758   -0.3770 H   0  0  0  0  0  0  0  0  0  0  0  0
    5.0313    1.4261   -0.8541 H   0  0  0  0  0  0  0  0  0  0  0  0
    4.0879    0.3787   -1.9114 H   0  0  0  0  0  0  0  0  0  0  0  0
    5.0605    1.0327    1.5250 H   0  0  0  0  0  0  0  0  0  0  0  0
    5.2573   -0.7357    1.5740 H   0  0  0  0  0  0  0  0  0  0  0  0
    3.6395    0.6074    3.3334 H   0  0  0  0  0  0  0  0  0  0  0  0
    3.2739   -1.0376    2.7896 H   0  0  0  0  0  0  0  0  0  0  0  0
    1.4171   -0.3148    1.7344 H   0  0  0  0  0  0  0  0  0  0  0  0
    1.7415    1.3551    2.2213 H   0  0  0  0  0  0  0  0  0  0  0  0
    2.9166    1.8831    0.2761 H   0  0  0  0  0  0  0  0  0  0  0  0
    1.1907   -0.4822   -0.6743 H   0  0  0  0  0  0  0  0  0  0  0  0
    1.9145    0.7387   -1.7434 H   0  0  0  0  0  0  0  0  0  0  0  0
   -0.1054    1.3054    0.4051 H   0  0  0  0  0  0  0  0  0  0  0  0
   -0.0674   -0.3290   -3.6221 H   0  0  0  0  0  0  0  0  0  0  0  0
   -3.1568   -3.2905   -3.1877 H   0  0  0  0  0  0  0  0  0  0  0  0
   -4.4930    1.5505    1.5496 H   0  0  0  0  0  0  0  0  0  0  0  0
   -4.8025    0.2854    3.7087 H   0  0  0  0  0  0  0  0  0  0  0  0
   -3.1742   -0.5064    3.5083 H   0  0  0  0  0  0  0  0  0  0  0  0
   -3.6955    2.5492    3.6701 H   0  0  0  0  0  0  0  0  0  0  0  0
   -2.0752    1.7495    3.4757 H   0  0  0  0  0  0  0  0  0  0  0  0
   -5.2403   -0.1670   -0.3692 H   0  0  0  0  0  0  0  0  0  0  0  0
   -4.7061   -1.1397    1.0202 H   0  0  0  0  0  0  0  0  0  0  0  0
   -5.2259   -2.2294   -1.5108 H   0  0  0  0  0  0  0  0  0  0  0  0
   -4.0962   -2.9663   -0.3318 H   0  0  0  0  0  0  0  0  0  0  0  0
  1  2  1  0
  2  3  1  0
  3  4  1  0
  4  5  1  0
  5  6  1  0
  6  7  1  0
  7  8  1  0
  8  9  1  0
  9 10  1  0
 10 11  2  0
 10 12  2  0
 10 13  1  0
 13 14  2  0
 14 15  1  0
 15 16  1  0
 15 17  2  0
 17 18  1  0
 18 19  2  0
 19 20  1  0
 20 21  1  0
 21 22  2  0
 21 23  1  0
 23 24  1  0
 24 25  1  0
 20 26  1  0
 26 27  1  0
  7  3  1  0
 19 13  1  0
 25 23  1  0
 27 18  1  0
  1 28  1  0
  1 29  1  0
  1 30  1  0
  2 31  1  0
  2 32  1  0
  4 33  1  0
  4 34  1  0
  5 35  1  0
  5 36  1  0
  6 37  1  0
  6 38  1  0
  7 39  1  0
  8 40  1  0
  8 41  1  0
  9 42  1  0
 14 43  1  0
 17 44  1  0
 23 45  1  0
 24 46  1  0
 24 47  1  0
 25 48  1  0
 25 49  1  0
 26 50  1  0
 26 51  1  0
 27 52  1  0
 27 53  1  0
M  END
$$$$
