
     RDKit          3D

 56 59  0  0  0  0  0  0  0  0999 V2000
    6.7446   -1.2370   -1.7115 C   0  0  0  0  0  0  0  0  0  0  0  0
    6.3908   -0.3152   -0.6881 O   0  0  0  0  0  0  0  0  0  0  0  0
    5.2027   -0.5317   -0.0463 C   0  0  0  0  0  0  0  0  0  0  0  0
    4.2524   -1.4968   -0.3824 C   0  0  0  0  0  0  0  0  0  0  0  0
    3.0694   -1.6032    0.3584 C   0  0  0  0  0  0  0  0  0  0  0  0
    2.8167   -0.7311    1.4179 C   0  0  0  0  0  0  0  0  0  0  0  0
    1.6651   -0.9684    2.2037 N   0  0  0  0  0  0  0  0  0  0  0  0
    0.5613    0.2298    2.5964 S   0  0  0  0  0  6  0  0  0  0  0  0
   -0.2901   -0.4000    3.5930 O   0  0  0  0  0  0  0  0  0  0  0  0
    1.2225    1.4700    2.9328 O   0  0  0  0  0  0  0  0  0  0  0  0
   -0.4243    0.3998    1.1166 C   0  0  0  0  0  0  0  0  0  0  0  0
   -1.6611   -0.2844    1.1073 C   0  0  0  0  0  0  0  0  0  0  0  0
   -2.5208   -0.2203    0.0087 C   0  0  0  0  0  0  0  0  0  0  0  0
   -3.7365   -0.9326    0.0953 N   0  0  0  0  0  0  0  0  0  0  0  0
   -4.7329   -1.0131   -0.8592 C   0  0  0  0  0  0  0  0  0  0  0  0
   -4.6928   -0.5282   -1.9859 O   0  0  0  0  0  0  0  0  0  0  0  0
   -5.9287   -1.8239   -0.5121 C   0  0  0  0  0  0  0  0  0  0  0  0
   -6.5679   -2.5132   -1.5530 C   0  0  0  0  0  0  0  0  0  0  0  0
   -7.6944   -3.2899   -1.2919 C   0  0  0  0  0  0  0  0  0  0  0  0
   -8.1553   -3.3540    0.0103 C   0  0  0  0  0  0  0  0  0  0  0  0
   -7.5778   -2.6983    1.0379 N   0  0  0  0  0  0  0  0  0  0  0  0
   -6.4883   -1.9405    0.7537 C   0  0  0  0  0  0  0  0  0  0  0  0
   -5.9081   -1.1240    2.1541 Cl  0  0  0  0  0  0  0  0  0  0  0  0
   -2.1373    0.5434   -1.0849 C   0  0  0  0  0  0  0  0  0  0  0  0
   -0.9171    1.2312   -1.0753 C   0  0  0  0  0  0  0  0  0  0  0  0
   -0.0283    1.1777    0.0165 C   0  0  0  0  0  0  0  0  0  0  0  0
    1.1663    1.9036   -0.0120 N   0  0  0  0  0  0  0  0  0  0  0  0
    0.9839    3.3281    0.3482 C   0  0  0  0  0  0  0  0  0  0  0  0
    2.0716    4.0567   -0.4331 C   0  0  0  0  0  0  0  0  0  0  0  0
    2.1239    3.2640   -1.7248 C   0  0  0  0  0  0  0  0  0  0  0  0
    1.9915    1.8264   -1.2353 C   0  0  0  0  0  0  0  0  0  0  0  0
    3.7785    0.2085    1.7780 C   0  0  0  0  0  0  0  0  0  0  0  0
    4.9595    0.3163    1.0374 C   0  0  0  0  0  0  0  0  0  0  0  0
    6.0364   -1.1935   -2.5448 H   0  0  0  0  0  0  0  0  0  0  0  0
    7.7278   -0.9499   -2.0953 H   0  0  0  0  0  0  0  0  0  0  0  0
    6.8258   -2.2536   -1.3134 H   0  0  0  0  0  0  0  0  0  0  0  0
    4.3990   -2.1817   -1.2099 H   0  0  0  0  0  0  0  0  0  0  0  0
    2.3425   -2.3665    0.0961 H   0  0  0  0  0  0  0  0  0  0  0  0
    1.6399   -1.7851    2.8096 H   0  0  0  0  0  0  0  0  0  0  0  0
   -1.9513   -0.8732    1.9753 H   0  0  0  0  0  0  0  0  0  0  0  0
   -3.8918   -1.4144    0.9737 H   0  0  0  0  0  0  0  0  0  0  0  0
   -6.1883   -2.4448   -2.5714 H   0  0  0  0  0  0  0  0  0  0  0  0
   -8.1986   -3.8289   -2.0871 H   0  0  0  0  0  0  0  0  0  0  0  0
   -9.0293   -3.9462    0.2688 H   0  0  0  0  0  0  0  0  0  0  0  0
   -2.7645    0.6446   -1.9648 H   0  0  0  0  0  0  0  0  0  0  0  0
   -0.6762    1.8392   -1.9449 H   0  0  0  0  0  0  0  0  0  0  0  0
    0.0006    3.7053    0.0380 H   0  0  0  0  0  0  0  0  0  0  0  0
    1.0930    3.4964    1.4227 H   0  0  0  0  0  0  0  0  0  0  0  0
    3.0305    3.9877    0.0947 H   0  0  0  0  0  0  0  0  0  0  0  0
    1.8381    5.1132   -0.5911 H   0  0  0  0  0  0  0  0  0  0  0  0
    1.2750    3.5280   -2.3664 H   0  0  0  0  0  0  0  0  0  0  0  0
    3.0459    3.4305   -2.2887 H   0  0  0  0  0  0  0  0  0  0  0  0
    1.6005    1.1626   -2.0138 H   0  0  0  0  0  0  0  0  0  0  0  0
    2.9799    1.4502   -0.9571 H   0  0  0  0  0  0  0  0  0  0  0  0
    3.6288    0.8655    2.6300 H   0  0  0  0  0  0  0  0  0  0  0  0
    5.6973    1.0652    1.3149 H   0  0  0  0  0  0  0  0  0  0  0  0
  1  2  1  0
  2  3  1  0
  3  4  2  0
  4  5  1  0
  5  6  2  0
  6  7  1  0
  7  8  1  0
  8  9  2  0
  8 10  2  0
  8 11  1  0
 11 12  2  0
 12 13  1  0
 13 14  1  0
 14 15  1  0
 15 16  2  0
 15 17  1  0
 17 18  2  0
 18 19  1  0
 19 20  2  0
 20 21  1  0
 21 22  2  0
 22 23  1  0
 13 24  2  0
 24 25  1  0
 25 26  2  0
 26 27  1  0
 27 28  1  0
 28 29  1  0
 29 30  1  0
 30 31  1  0
  6 32  1  0
 32 33  2  0
 33  3  1  0
 26 11  1  0
 31 27  1  0
 22 17  1  0
  1 34  1  0
  1 35  1  0
  1 36  1  0
  4 37  1  0
  5 38  1  0
  7 39  1  0
 12 40  1  0
 14 41  1  0
 18 42  1  0
 19 43  1  0
 20 44  1  0
 24 45  1  0
 25 46  1  0
 28 47  1  0
 28 48  1  0
 29 49  1  0
 29 50  1  0
 30 51  1  0
 30 52  1  0
 31 53  1  0
 31 54  1  0
 32 55  1  0
 33 56  1  0
M  END
$$$$
