
     RDKit          3D

 77 83  0  0  0  0  0  0  0  0999 V2000
   -7.4278   -1.5445   -1.8841 C   0  0  0  0  0  0  0  0  0  0  0  0
   -6.8307   -2.2183   -0.6433 C   0  0  0  0  0  0  0  0  0  0  0  0
   -7.5156   -1.7567    0.6484 C   0  0  0  0  0  0  0  0  0  0  0  0
   -7.0126   -3.7386   -0.7778 C   0  0  0  0  0  0  0  0  0  0  0  0
   -5.3940   -2.0267   -0.5752 O   0  0  0  0  0  0  0  0  0  0  0  0
   -4.8570   -0.7869   -0.4451 C   0  0  0  0  0  0  0  0  0  0  0  0
   -5.5073    0.2498   -0.3935 O   0  0  0  0  0  0  0  0  0  0  0  0
   -3.4754   -0.8221   -0.3690 N   0  0  0  0  0  0  0  0  0  0  0  0
   -2.7087   -2.0432   -0.6891 C   0  0  0  0  0  0  0  0  0  0  0  0
   -1.2566   -2.0433   -0.1412 C   0  0  0  0  0  0  0  0  0  0  0  0
   -0.6301   -0.7664   -0.4392 N   0  0  0  0  0  0  0  0  0  0  0  0
   -1.3883    0.3499    0.2093 C   0  0  2  0  0  0  0  0  0  0  0  0
   -2.7511    0.4577   -0.4624 C   0  0  0  0  0  0  0  0  0  0  0  0
   -0.4164    1.4538    0.0604 C   0  0  0  0  0  0  0  0  0  0  0  0
    0.8713    0.9227   -0.1226 C   0  0  0  0  0  0  0  0  0  0  0  0
    1.7605    1.9567   -0.2292 C   0  0  0  0  0  0  0  0  0  0  0  0
    3.0604    1.8930   -0.5157 O   0  0  0  0  0  0  0  0  0  0  0  0
    1.0346    3.1511   -0.0418 N   0  0  0  0  0  0  0  0  0  0  0  0
    1.5958    4.4655    0.0397 C   0  0  0  0  0  0  0  0  0  0  0  0
    2.8657    4.6567    0.6071 C   0  0  0  0  0  0  0  0  0  0  0  0
    3.4233    5.9357    0.6715 C   0  0  0  0  0  0  0  0  0  0  0  0
    2.7175    7.0314    0.1769 C   0  0  0  0  0  0  0  0  0  0  0  0
    1.4489    6.8517   -0.3707 C   0  0  0  0  0  0  0  0  0  0  0  0
    0.8847    5.5747   -0.4354 C   0  0  0  0  0  0  0  0  0  0  0  0
   -0.3314    2.8200    0.0872 C   0  0  0  0  0  0  0  0  0  0  0  0
   -1.2743    3.7368    0.2890 O   0  0  0  0  0  0  0  0  0  0  0  0
    0.8170   -0.5628   -0.1794 C   0  0  1  0  0  0  0  0  0  0  0  0
    1.3601   -1.2263    1.1104 C   0  0  0  0  0  0  0  0  0  0  0  0
    0.8950   -1.1442    2.2411 O   0  0  0  0  0  0  0  0  0  0  0  0
    2.4914   -1.9660    0.7294 N   0  0  0  0  0  0  0  0  0  0  0  0
    3.3434   -2.6547    1.6697 C   0  0  0  0  0  0  0  0  0  0  0  0
    4.5377   -1.8292    2.0929 C   0  0  0  0  0  0  0  0  0  0  0  0
    4.3604   -0.6576    2.8456 C   0  0  0  0  0  0  0  0  0  0  0  0
    5.4584    0.1084    3.2388 C   0  0  0  0  0  0  0  0  0  0  0  0
    6.7471   -0.2873    2.8867 C   0  0  0  0  0  0  0  0  0  0  0  0
    6.9379   -1.4515    2.1443 C   0  0  0  0  0  0  0  0  0  0  0  0
    5.8404   -2.2200    1.7504 C   0  0  0  0  0  0  0  0  0  0  0  0
    2.7197   -1.8693   -0.6540 C   0  0  0  0  0  0  0  0  0  0  0  0
    3.7200   -2.4552   -1.4080 C   0  0  0  0  0  0  0  0  0  0  0  0
    3.7199   -2.2315   -2.7887 C   0  0  0  0  0  0  0  0  0  0  0  0
    2.7298   -1.4372   -3.3901 C   0  0  0  0  0  0  0  0  0  0  0  0
    1.7268   -0.8486   -2.6185 C   0  0  0  0  0  0  0  0  0  0  0  0
    1.7378   -1.0657   -1.2472 C   0  0  0  0  0  0  0  0  0  0  0  0
   -6.8709   -1.8262   -2.7853 H   0  0  0  0  0  0  0  0  0  0  0  0
   -8.4780   -1.8243   -2.0225 H   0  0  0  0  0  0  0  0  0  0  0  0
   -7.3866   -0.4533   -1.8194 H   0  0  0  0  0  0  0  0  0  0  0  0
   -7.0147   -2.1815    1.5255 H   0  0  0  0  0  0  0  0  0  0  0  0
   -7.4814   -0.6693    0.7640 H   0  0  0  0  0  0  0  0  0  0  0  0
   -8.5697   -2.0547    0.6706 H   0  0  0  0  0  0  0  0  0  0  0  0
   -8.0700   -4.0193   -0.8356 H   0  0  0  0  0  0  0  0  0  0  0  0
   -6.5607   -4.2620    0.0733 H   0  0  0  0  0  0  0  0  0  0  0  0
   -6.5060   -4.1139   -1.6751 H   0  0  0  0  0  0  0  0  0  0  0  0
   -3.2332   -2.9252   -0.3055 H   0  0  0  0  0  0  0  0  0  0  0  0
   -2.6913   -2.1205   -1.7840 H   0  0  0  0  0  0  0  0  0  0  0  0
   -1.2807   -2.2301    0.9392 H   0  0  0  0  0  0  0  0  0  0  0  0
   -0.7067   -2.8671   -0.6090 H   0  0  0  0  0  0  0  0  0  0  0  0
   -1.5183    0.1449    1.2820 H   0  0  0  0  0  0  0  0  0  0  0  0
   -2.6595    0.7056   -1.5280 H   0  0  0  0  0  0  0  0  0  0  0  0
   -3.3400    1.2559    0.0029 H   0  0  0  0  0  0  0  0  0  0  0  0
    3.3403    2.7431   -0.8966 H   0  0  0  0  0  0  0  0  0  0  0  0
    3.4178    3.8323    1.0548 H   0  0  0  0  0  0  0  0  0  0  0  0
    4.4026    6.0788    1.1212 H   0  0  0  0  0  0  0  0  0  0  0  0
    3.1517    8.0266    0.2283 H   0  0  0  0  0  0  0  0  0  0  0  0
    0.8952    7.7069   -0.7517 H   0  0  0  0  0  0  0  0  0  0  0  0
   -0.0964    5.4662   -0.8907 H   0  0  0  0  0  0  0  0  0  0  0  0
   -2.1094    3.2788    0.4849 H   0  0  0  0  0  0  0  0  0  0  0  0
    3.6551   -3.6120    1.2360 H   0  0  0  0  0  0  0  0  0  0  0  0
    2.7620   -2.9012    2.5669 H   0  0  0  0  0  0  0  0  0  0  0  0
    3.3602   -0.3335    3.1297 H   0  0  0  0  0  0  0  0  0  0  0  0
    5.3042    1.0157    3.8175 H   0  0  0  0  0  0  0  0  0  0  0  0
    7.6012    0.3107    3.1928 H   0  0  0  0  0  0  0  0  0  0  0  0
    7.9437   -1.7606    1.8717 H   0  0  0  0  0  0  0  0  0  0  0  0
    6.0117   -3.1250    1.1735 H   0  0  0  0  0  0  0  0  0  0  0  0
    4.4902   -3.0719   -0.9617 H   0  0  0  0  0  0  0  0  0  0  0  0
    4.4969   -2.6756   -3.4061 H   0  0  0  0  0  0  0  0  0  0  0  0
    2.7497   -1.2733   -4.4651 H   0  0  0  0  0  0  0  0  0  0  0  0
    0.9627   -0.2269   -3.0757 H   0  0  0  0  0  0  0  0  0  0  0  0
  1  2  1  0
  2  3  1  0
  2  4  1  0
  2  5  1  0
  5  6  1  0
  6  7  2  0
  6  8  1  0
  8  9  1  0
  9 10  1  0
 10 11  1  0
 11 12  1  0
 12 13  1  0
 12 14  1  0
 14 15  1  0
 15 16  2  0
 16 17  1  0
 16 18  1  0
 18 19  1  0
 19 20  2  0
 20 21  1  0
 21 22  2  0
 22 23  1  0
 23 24  2  0
 18 25  1  0
 25 26  1  0
 15 27  1  0
 27 28  1  0
 28 29  2  0
 28 30  1  0
 30 31  1  0
 31 32  1  0
 32 33  2  0
 33 34  1  0
 34 35  2  0
 35 36  1  0
 36 37  2  0
 30 38  1  0
 38 39  2  0
 39 40  1  0
 40 41  2  0
 41 42  1  0
 42 43  2  0
 13  8  1  0
 25 14  2  0
 43 27  1  0
 27 11  1  6
 37 32  1  0
 43 38  1  0
 24 19  1  0
  1 44  1  0
  1 45  1  0
  1 46  1  0
  3 47  1  0
  3 48  1  0
  3 49  1  0
  4 50  1  0
  4 51  1  0
  4 52  1  0
  9 53  1  0
  9 54  1  0
 10 55  1  0
 10 56  1  0
 12 57  1  1
 13 58  1  0
 13 59  1  0
 17 60  1  0
 20 61  1  0
 21 62  1  0
 22 63  1  0
 23 64  1  0
 24 65  1  0
 26 66  1  0
 31 67  1  0
 31 68  1  0
 33 69  1  0
 34 70  1  0
 35 71  1  0
 36 72  1  0
 37 73  1  0
 39 74  1  0
 40 75  1  0
 41 76  1  0
 42 77  1  0
M  END
$$$$
