
     RDKit          3D

 45 48  0  0  0  0  0  0  0  0999 V2000
   -2.3323    2.1790   -0.9212 C   0  0  0  0  0  0  0  0  0  0  0  0
   -3.5815    1.3375   -1.1919 C   0  0  0  0  0  0  0  0  0  0  0  0
   -4.4211    1.9930   -2.2897 C   0  0  0  0  0  0  0  0  0  0  0  0
   -3.2269   -0.1047   -1.5966 C   0  0  0  0  0  0  0  0  0  0  0  0
   -2.5813   -0.8547   -0.5209 N   0  0  0  0  0  0  0  0  0  0  0  0
   -1.2112   -0.9174   -0.5641 N   0  0  0  0  0  0  0  0  0  0  0  0
   -0.5782   -1.5728    0.3670 C   0  0  0  0  0  0  0  0  0  0  0  0
    0.9441   -1.5782    0.2296 C   0  0  0  0  0  0  0  0  0  0  0  0
    1.5759   -2.5820    0.5072 O   0  0  0  0  0  0  0  0  0  0  0  0
    1.4000   -0.3739   -0.2425 N   0  0  0  0  0  0  0  0  0  0  0  0
    2.7254   -0.1209   -0.4319 C   0  0  0  0  0  0  0  0  0  0  0  0
    3.7750   -0.8517   -0.1466 N   0  0  0  0  0  0  0  0  0  0  0  0
    4.9522   -0.2107   -0.4949 N   0  0  0  0  0  0  0  0  0  0  0  0
    4.7211    0.9730   -1.0174 C   0  0  0  0  0  0  0  0  0  0  0  0
    5.8715    1.9043   -1.5085 C   0  0  0  0  0  0  0  0  0  0  0  0
    6.1730    3.1721   -0.7501 C   0  0  0  0  0  0  0  0  0  0  0  0
    7.1276    2.0162   -0.6821 C   0  0  0  0  0  0  0  0  0  0  0  0
    3.0670    1.3974   -1.1357 S   0  0  0  0  0  0  0  0  0  0  0  0
   -1.2476   -2.2322    1.5018 C   0  0  0  0  0  0  0  0  0  0  0  0
   -0.5669   -2.8868    2.5360 C   0  0  0  0  0  0  0  0  0  0  0  0
   -1.2806   -3.4799    3.5820 C   0  0  0  0  0  0  0  0  0  0  0  0
   -2.6719   -3.4174    3.6065 C   0  0  0  0  0  0  0  0  0  0  0  0
   -3.3529   -2.7565    2.5859 C   0  0  0  0  0  0  0  0  0  0  0  0
   -2.6378   -2.1619    1.5364 C   0  0  0  0  0  0  0  0  0  0  0  0
   -3.3621   -1.4398    0.4734 C   0  0  0  0  0  0  0  0  0  0  0  0
   -4.5881   -1.3734    0.5119 O   0  0  0  0  0  0  0  0  0  0  0  0
   -1.6660    2.1931   -1.7903 H   0  0  0  0  0  0  0  0  0  0  0  0
   -1.7700    1.7904   -0.0664 H   0  0  0  0  0  0  0  0  0  0  0  0
   -2.6049    3.2139   -0.6877 H   0  0  0  0  0  0  0  0  0  0  0  0
   -4.1815    1.3183   -0.2735 H   0  0  0  0  0  0  0  0  0  0  0  0
   -5.3414    1.4262   -2.4663 H   0  0  0  0  0  0  0  0  0  0  0  0
   -4.7071    3.0113   -2.0056 H   0  0  0  0  0  0  0  0  0  0  0  0
   -3.8688    2.0469   -3.2341 H   0  0  0  0  0  0  0  0  0  0  0  0
   -4.1403   -0.6428   -1.8784 H   0  0  0  0  0  0  0  0  0  0  0  0
   -2.5673   -0.1127   -2.4734 H   0  0  0  0  0  0  0  0  0  0  0  0
    0.7239    0.3142   -0.5478 H   0  0  0  0  0  0  0  0  0  0  0  0
    5.9934    1.9209   -2.5862 H   0  0  0  0  0  0  0  0  0  0  0  0
    6.4720    4.0440   -1.3204 H   0  0  0  0  0  0  0  0  0  0  0  0
    5.5998    3.4012    0.1412 H   0  0  0  0  0  0  0  0  0  0  0  0
    7.1878    1.4555    0.2447 H   0  0  0  0  0  0  0  0  0  0  0  0
    8.0716    2.0986   -1.2081 H   0  0  0  0  0  0  0  0  0  0  0  0
    0.5177   -2.9588    2.5580 H   0  0  0  0  0  0  0  0  0  0  0  0
   -0.7459   -3.9942    4.3783 H   0  0  0  0  0  0  0  0  0  0  0  0
   -3.2256   -3.8805    4.4201 H   0  0  0  0  0  0  0  0  0  0  0  0
   -4.4399   -2.7028    2.6104 H   0  0  0  0  0  0  0  0  0  0  0  0
  1  2  1  0
  2  3  1  0
  2  4  1  0
  4  5  1  0
  5  6  1  0
  6  7  2  0
  7  8  1  0
  8  9  2  0
  8 10  1  0
 10 11  1  0
 11 12  2  0
 12 13  1  0
 13 14  2  0
 14 15  1  0
 15 16  1  0
 16 17  1  0
 14 18  1  0
  7 19  1  0
 19 20  2  0
 20 21  1  0
 21 22  2  0
 22 23  1  0
 23 24  2  0
 24 25  1  0
 25 26  2  0
 25  5  1  0
 18 11  1  0
 24 19  1  0
 17 15  1  0
  1 27  1  0
  1 28  1  0
  1 29  1  0
  2 30  1  0
  3 31  1  0
  3 32  1  0
  3 33  1  0
  4 34  1  0
  4 35  1  0
 10 36  1  0
 15 37  1  0
 16 38  1  0
 16 39  1  0
 17 40  1  0
 17 41  1  0
 20 42  1  0
 21 43  1  0
 22 44  1  0
 23 45  1  0
M  END
$$$$
