
     RDKit          3D

 53 56  0  0  0  0  0  0  0  0999 V2000
   -0.9838   -3.3217    1.1318 C   0  0  0  0  0  0  0  0  0  0  0  0
   -1.2600   -1.8487    1.2264 C   0  0  0  0  0  0  0  0  0  0  0  0
   -0.3977   -0.9928    1.9185 C   0  0  0  0  0  0  0  0  0  0  0  0
    0.7212   -1.4767    2.5441 O   0  0  0  0  0  0  0  0  0  0  0  0
    1.8520   -1.4586    1.6639 C   0  0  0  0  0  0  0  0  0  0  0  0
    2.7671   -2.6079    2.0782 C   0  0  0  0  0  0  0  0  0  0  0  0
    2.6529   -0.1409    1.7182 C   0  0  0  0  0  0  0  0  0  0  0  0
    2.5509    0.6893    2.6185 O   0  0  0  0  0  0  0  0  0  0  0  0
    3.5067    0.0387    0.6566 N   0  0  0  0  0  0  0  0  0  0  0  0
    4.3089    1.2324    0.5120 C   0  0  0  0  0  0  0  0  0  0  0  0
    5.0934    1.2218   -0.7846 C   0  0  0  0  0  0  0  0  0  0  0  0
    5.9528    2.2779   -1.0833 C   0  0  0  0  0  0  0  0  0  0  0  0
    6.6554    2.2505   -2.2836 C   0  0  0  0  0  0  0  0  0  0  0  0
    6.4825    1.1785   -3.1519 C   0  0  0  0  0  0  0  0  0  0  0  0
    5.6105    0.1694   -2.7827 C   0  0  0  0  0  0  0  0  0  0  0  0
    4.9141    0.1631   -1.6250 N   0  0  0  0  0  0  0  0  0  0  0  0
   -0.6922    0.3635    2.0493 C   0  0  0  0  0  0  0  0  0  0  0  0
   -1.8167    0.9030    1.4180 C   0  0  0  0  0  0  0  0  0  0  0  0
   -2.6630    0.0951    0.6477 C   0  0  0  0  0  0  0  0  0  0  0  0
   -3.8381    0.6132   -0.0736 C   0  0  0  0  0  0  0  0  0  0  0  0
   -4.6245   -0.2435   -0.7532 C   0  0  0  0  0  0  0  0  0  0  0  0
   -4.3263   -1.6943   -0.8301 C   0  0  0  0  0  0  0  0  0  0  0  0
   -5.0318   -2.4659   -1.4717 O   0  0  0  0  0  0  0  0  0  0  0  0
   -3.2075   -2.1381   -0.1497 O   0  0  0  0  0  0  0  0  0  0  0  0
   -2.3703   -1.2714    0.5821 C   0  0  0  0  0  0  0  0  0  0  0  0
   -5.8697    0.1836   -1.4895 C   0  0  0  0  0  0  0  0  0  0  0  0
   -6.3344    1.5983   -1.1441 C   0  0  0  0  0  0  0  0  0  0  0  0
   -5.1530    2.5548   -1.0833 C   0  0  0  0  0  0  0  0  0  0  0  0
   -4.1297    2.0984   -0.0394 C   0  0  0  0  0  0  0  0  0  0  0  0
   -0.3464   -3.5268    0.2647 H   0  0  0  0  0  0  0  0  0  0  0  0
   -0.4849   -3.6906    2.0343 H   0  0  0  0  0  0  0  0  0  0  0  0
   -1.9083   -3.9012    1.0344 H   0  0  0  0  0  0  0  0  0  0  0  0
    1.5413   -1.6289    0.6225 H   0  0  0  0  0  0  0  0  0  0  0  0
    3.6393   -2.6877    1.4222 H   0  0  0  0  0  0  0  0  0  0  0  0
    2.2263   -3.5599    2.0551 H   0  0  0  0  0  0  0  0  0  0  0  0
    3.1245   -2.4699    3.1047 H   0  0  0  0  0  0  0  0  0  0  0  0
    3.5485   -0.6116   -0.1214 H   0  0  0  0  0  0  0  0  0  0  0  0
    4.9933    1.2862    1.3658 H   0  0  0  0  0  0  0  0  0  0  0  0
    3.6415    2.1016    0.5373 H   0  0  0  0  0  0  0  0  0  0  0  0
    6.0722    3.1103   -0.3969 H   0  0  0  0  0  0  0  0  0  0  0  0
    7.3381    3.0600   -2.5378 H   0  0  0  0  0  0  0  0  0  0  0  0
    7.0160    1.1322   -4.0954 H   0  0  0  0  0  0  0  0  0  0  0  0
    5.4433   -0.6854   -3.4303 H   0  0  0  0  0  0  0  0  0  0  0  0
   -0.0468    1.0063    2.6457 H   0  0  0  0  0  0  0  0  0  0  0  0
   -2.0054    1.9656    1.5490 H   0  0  0  0  0  0  0  0  0  0  0  0
   -5.6722    0.1239   -2.5675 H   0  0  0  0  0  0  0  0  0  0  0  0
   -6.6975   -0.5045   -1.2711 H   0  0  0  0  0  0  0  0  0  0  0  0
   -6.8511    1.5916   -0.1756 H   0  0  0  0  0  0  0  0  0  0  0  0
   -7.0579    1.9410   -1.8924 H   0  0  0  0  0  0  0  0  0  0  0  0
   -5.4984    3.5670   -0.8446 H   0  0  0  0  0  0  0  0  0  0  0  0
   -4.6721    2.6064   -2.0693 H   0  0  0  0  0  0  0  0  0  0  0  0
   -4.4994    2.3601    0.9620 H   0  0  0  0  0  0  0  0  0  0  0  0
   -3.2135    2.6762   -0.2149 H   0  0  0  0  0  0  0  0  0  0  0  0
  1  2  1  0
  2  3  2  0
  3  4  1  0
  4  5  1  0
  5  6  1  0
  5  7  1  0
  7  8  2  0
  7  9  1  0
  9 10  1  0
 10 11  1  0
 11 12  2  0
 12 13  1  0
 13 14  2  0
 14 15  1  0
 15 16  2  0
  3 17  1  0
 17 18  2  0
 18 19  1  0
 19 20  1  0
 20 21  2  0
 21 22  1  0
 22 23  2  0
 22 24  1  0
 24 25  1  0
 21 26  1  0
 26 27  1  0
 27 28  1  0
 28 29  1  0
 25  2  1  0
 16 11  1  0
 25 19  2  0
 29 20  1  0
  1 30  1  0
  1 31  1  0
  1 32  1  0
  5 33  1  0
  6 34  1  0
  6 35  1  0
  6 36  1  0
  9 37  1  0
 10 38  1  0
 10 39  1  0
 12 40  1  0
 13 41  1  0
 14 42  1  0
 15 43  1  0
 17 44  1  0
 18 45  1  0
 26 46  1  0
 26 47  1  0
 27 48  1  0
 27 49  1  0
 28 50  1  0
 28 51  1  0
 29 52  1  0
 29 53  1  0
M  END
$$$$
