
     RDKit          3D

 46 49  0  0  0  0  0  0  0  0999 V2000
   -1.7226   -1.8329   -3.5177 C   0  0  0  0  0  0  0  0  0  0  0  0
   -1.7679   -0.7380   -2.5659 N   0  0  0  0  0  0  0  0  0  0  0  0
   -2.9579   -0.6417   -1.7383 C   0  0  0  0  0  0  0  0  0  0  0  0
   -0.5516   -0.4970   -1.8770 N   0  0  0  0  0  0  0  0  0  0  0  0
    0.0174    0.7408   -2.2256 C   0  0  0  0  0  0  0  0  0  0  0  0
   -0.5376    1.5854   -3.0494 N   0  0  0  0  0  0  0  0  0  0  0  0
    1.3598    1.1236   -1.6250 C   0  0  0  0  0  0  0  0  0  0  0  0
    2.4140    0.5740   -2.4971 C   0  0  0  0  0  0  0  0  0  0  0  0
    3.2537    0.1119   -3.1528 N   0  0  0  0  0  0  0  0  0  0  0  0
    1.5052    0.5691   -0.1933 C   0  0  0  0  0  0  0  0  0  0  0  0
    0.8919    1.4747    0.8830 C   0  0  0  0  0  0  0  0  0  0  0  0
   -0.4067    2.0283    0.7693 C   0  0  0  0  0  0  0  0  0  0  0  0
   -0.9432    2.8399    1.7769 C   0  0  0  0  0  0  0  0  0  0  0  0
   -0.1722    3.0796    2.8906 C   0  0  0  0  0  0  0  0  0  0  0  0
    1.0847    2.5452    3.0230 C   0  0  0  0  0  0  0  0  0  0  0  0
    1.6399    1.7433    2.0473 C   0  0  0  0  0  0  0  0  0  0  0  0
    1.6772    2.8971    4.1950 O   0  0  0  0  0  0  0  0  0  0  0  0
    0.6469    3.7162    4.7844 C   0  0  0  0  0  0  0  0  0  0  0  0
   -0.5320    3.8363    3.9608 O   0  0  0  0  0  0  0  0  0  0  0  0
    0.9829   -0.8546   -0.0775 C   0  0  0  0  0  0  0  0  0  0  0  0
   -0.0014   -1.3311   -0.8791 C   0  0  0  0  0  0  0  0  0  0  0  0
   -0.4801   -2.7625   -0.7199 C   0  0  0  0  0  0  0  0  0  0  0  0
   -0.1879   -3.3497    0.6565 C   0  0  0  0  0  0  0  0  0  0  0  0
    1.2734   -3.1866    1.0082 C   0  0  0  0  0  0  0  0  0  0  0  0
    1.6873   -1.7415    0.9032 C   0  0  0  0  0  0  0  0  0  0  0  0
    2.6363   -1.3152    1.5586 O   0  0  0  0  0  0  0  0  0  0  0  0
   -2.5496   -1.7384   -4.2303 H   0  0  0  0  0  0  0  0  0  0  0  0
   -0.7994   -1.8053   -4.1072 H   0  0  0  0  0  0  0  0  0  0  0  0
   -1.8053   -2.8184   -3.0533 H   0  0  0  0  0  0  0  0  0  0  0  0
   -2.9418    0.2750   -1.1382 H   0  0  0  0  0  0  0  0  0  0  0  0
   -3.0925   -1.4865   -1.0595 H   0  0  0  0  0  0  0  0  0  0  0  0
   -3.8500   -0.5814   -2.3718 H   0  0  0  0  0  0  0  0  0  0  0  0
   -1.4100    1.1232   -3.3516 H   0  0  0  0  0  0  0  0  0  0  0  0
    1.4487    2.2177   -1.6213 H   0  0  0  0  0  0  0  0  0  0  0  0
    2.5884    0.5545    0.0009 H   0  0  0  0  0  0  0  0  0  0  0  0
   -1.0281    1.8427   -0.1026 H   0  0  0  0  0  0  0  0  0  0  0  0
   -1.9355    3.2674    1.6844 H   0  0  0  0  0  0  0  0  0  0  0  0
    2.6331    1.3270    2.1954 H   0  0  0  0  0  0  0  0  0  0  0  0
    0.3584    3.2781    5.7468 H   0  0  0  0  0  0  0  0  0  0  0  0
    1.0538    4.7182    4.9624 H   0  0  0  0  0  0  0  0  0  0  0  0
   -1.5572   -2.8531   -0.8587 H   0  0  0  0  0  0  0  0  0  0  0  0
   -0.0009   -3.3774   -1.4920 H   0  0  0  0  0  0  0  0  0  0  0  0
   -0.8093   -2.8450    1.4080 H   0  0  0  0  0  0  0  0  0  0  0  0
   -0.4616   -4.4106    0.6748 H   0  0  0  0  0  0  0  0  0  0  0  0
    1.4400   -3.5256    2.0363 H   0  0  0  0  0  0  0  0  0  0  0  0
    1.9094   -3.7765    0.3393 H   0  0  0  0  0  0  0  0  0  0  0  0
  1  2  1  0
  2  3  1  0
  2  4  1  0
  4  5  1  0
  5  6  2  3
  5  7  1  0
  7  8  1  0
  8  9  3  0
  7 10  1  0
 10 11  1  0
 11 12  2  0
 12 13  1  0
 13 14  2  0
 14 15  1  0
 15 16  2  0
 15 17  1  0
 17 18  1  0
 18 19  1  0
 10 20  1  0
 20 21  2  0
 21 22  1  0
 22 23  1  0
 23 24  1  0
 24 25  1  0
 25 26  2  0
 21  4  1  0
 16 11  1  0
 25 20  1  0
 19 14  1  0
  1 27  1  0
  1 28  1  0
  1 29  1  0
  3 30  1  0
  3 31  1  0
  3 32  1  0
  6 33  1  0
  7 34  1  0
 10 35  1  0
 12 36  1  0
 13 37  1  0
 16 38  1  0
 18 39  1  0
 18 40  1  0
 22 41  1  0
 22 42  1  0
 23 43  1  0
 23 44  1  0
 24 45  1  0
 24 46  1  0
M  END
$$$$
