
     RDKit          3D

 34 35  0  0  0  0  0  0  0  0999 V2000
   -1.9424   -3.2025    0.3044 O   0  0  0  0  0  0  0  0  0  0  0  0
   -2.8864   -2.5429   -0.1597 N   0  0  0  0  0  4  0  0  0  0  0  0
   -3.9858   -3.0172   -0.4822 O   0  0  0  0  0  1  0  0  0  0  0  0
   -2.7049   -1.0961   -0.3089 C   0  0  0  0  0  0  0  0  0  0  0  0
   -3.8430   -0.2855   -0.1185 C   0  0  0  0  0  0  0  0  0  0  0  0
   -3.7489    1.1050   -0.2458 C   0  0  0  0  0  0  0  0  0  0  0  0
   -4.9695    1.9723   -0.0538 C   0  0  0  0  0  0  0  0  0  0  0  0
   -5.6251    1.6936    1.1064 F   0  0  0  0  0  0  0  0  0  0  0  0
   -4.6902    3.3039   -0.0148 F   0  0  0  0  0  0  0  0  0  0  0  0
   -5.8820    1.8073   -1.0498 F   0  0  0  0  0  0  0  0  0  0  0  0
   -2.5081    1.6568   -0.5786 C   0  0  0  0  0  0  0  0  0  0  0  0
   -1.3819    0.8406   -0.7681 C   0  0  0  0  0  0  0  0  0  0  0  0
   -1.4337   -0.5547   -0.6111 C   0  0  0  0  0  0  0  0  0  0  0  0
   -0.3237   -1.3620   -0.8879 N   0  0  0  0  0  0  0  0  0  0  0  0
    1.0510   -0.8502   -0.8464 C   0  0  0  0  0  0  0  0  0  0  0  0
    1.5103   -0.5664    0.5847 C   0  0  0  0  0  0  0  0  0  0  0  0
    2.9399   -0.0959    0.6029 C   0  0  0  0  0  0  0  0  0  0  0  0
    3.9608   -0.9337    1.0446 C   0  0  0  0  0  0  0  0  0  0  0  0
    5.2695   -0.4595    1.0343 C   0  0  0  0  0  0  0  0  0  0  0  0
    5.5232    0.8310    0.5878 C   0  0  0  0  0  0  0  0  0  0  0  0
    4.4516    1.5981    0.1663 C   0  0  0  0  0  0  0  0  0  0  0  0
    3.1718    1.1637    0.1597 N   0  0  0  0  0  0  0  0  0  0  0  0
   -4.8063   -0.7345    0.1263 H   0  0  0  0  0  0  0  0  0  0  0  0
   -2.4015    2.7349   -0.7044 H   0  0  0  0  0  0  0  0  0  0  0  0
   -0.4554    1.3376   -1.0486 H   0  0  0  0  0  0  0  0  0  0  0  0
   -0.3975   -2.2927   -0.4617 H   0  0  0  0  0  0  0  0  0  0  0  0
    1.6951   -1.6259   -1.2796 H   0  0  0  0  0  0  0  0  0  0  0  0
    1.1716    0.0203   -1.5010 H   0  0  0  0  0  0  0  0  0  0  0  0
    0.8865    0.2065    1.0490 H   0  0  0  0  0  0  0  0  0  0  0  0
    1.3934   -1.4647    1.2043 H   0  0  0  0  0  0  0  0  0  0  0  0
    3.7493   -1.9393    1.3939 H   0  0  0  0  0  0  0  0  0  0  0  0
    6.0843   -1.0913    1.3775 H   0  0  0  0  0  0  0  0  0  0  0  0
    6.5308    1.2300    0.5702 H   0  0  0  0  0  0  0  0  0  0  0  0
    4.5973    2.6133   -0.1915 H   0  0  0  0  0  0  0  0  0  0  0  0
  1  2  2  0
  2  3  1  0
  2  4  1  0
  4  5  2  0
  5  6  1  0
  6  7  1  0
  7  8  1  0
  7  9  1  0
  7 10  1  0
  6 11  2  0
 11 12  1  0
 12 13  2  0
 13 14  1  0
 14 15  1  0
 15 16  1  0
 16 17  1  0
 17 18  2  0
 18 19  1  0
 19 20  2  0
 20 21  1  0
 21 22  2  0
 13  4  1  0
 22 17  1  0
  5 23  1  0
 11 24  1  0
 12 25  1  0
 14 26  1  0
 15 27  1  0
 15 28  1  0
 16 29  1  0
 16 30  1  0
 18 31  1  0
 19 32  1  0
 20 33  1  0
 21 34  1  0
M  CHG  2   2   1   3  -1
M  END
$$$$
