
     RDKit          3D

 55 57  0  0  0  0  0  0  0  0999 V2000
   -1.4004   -4.1290    1.1407 C   0  0  0  0  0  0  0  0  0  0  0  0
   -0.3726   -3.1726    1.7190 C   0  0  0  0  0  0  0  0  0  0  0  0
   -0.8523   -1.8314    1.6801 O   0  0  0  0  0  0  0  0  0  0  0  0
   -0.6047   -1.1687    0.4342 C   0  0  0  0  0  0  0  0  0  0  0  0
    0.7868   -0.8349    0.3754 O   0  0  0  0  0  0  0  0  0  0  0  0
    1.1301   -0.0691   -0.7197 C   0  0  0  0  0  0  0  0  0  0  0  0
    2.5728   -0.0904   -1.1648 C   0  0  0  0  0  0  0  0  0  0  0  0
    2.9341    0.4720   -2.1905 O   0  0  0  0  0  0  0  0  0  0  0  0
    3.3527   -0.8086   -0.2810 N   0  0  0  0  0  0  0  0  0  0  0  0
    4.7343   -1.0641   -0.3515 C   0  0  0  0  0  0  0  0  0  0  0  0
    5.2999   -1.8145    0.6876 C   0  0  0  0  0  0  0  0  0  0  0  0
    6.6650   -2.1129    0.6909 C   0  0  0  0  0  0  0  0  0  0  0  0
    7.4775   -1.6632   -0.3462 C   0  0  0  0  0  0  0  0  0  0  0  0
    6.9238   -0.9165   -1.3835 C   0  0  0  0  0  0  0  0  0  0  0  0
    5.5573   -0.6178   -1.3866 C   0  0  0  0  0  0  0  0  0  0  0  0
    0.2476    0.6872   -1.3873 C   0  0  0  0  0  0  0  0  0  0  0  0
   -1.1913    0.8391   -0.9663 C   0  0  0  0  0  0  0  0  0  0  0  0
   -1.5538    2.3200   -0.9489 C   0  0  0  0  0  0  0  0  0  0  0  0
   -1.0756    3.1863    0.0477 C   0  0  0  0  0  0  0  0  0  0  0  0
   -1.4067    4.5427    0.0323 C   0  0  0  0  0  0  0  0  0  0  0  0
   -2.2086    5.0552   -0.9844 C   0  0  0  0  0  0  0  0  0  0  0  0
   -2.6740    4.2142   -1.9921 C   0  0  0  0  0  0  0  0  0  0  0  0
   -2.3441    2.8576   -1.9791 C   0  0  0  0  0  0  0  0  0  0  0  0
   -1.4970    0.0920    0.3643 C   0  0  0  0  0  0  0  0  0  0  0  0
   -2.9905   -0.3083    0.5115 C   0  0  0  0  0  0  0  0  0  0  0  0
   -3.9510    0.8644    0.7380 C   0  0  0  0  0  0  0  0  0  0  0  0
   -5.3728    0.3975    1.0415 C   0  0  0  0  0  0  0  0  0  0  0  0
   -5.4187   -0.3627    2.2400 O   0  0  0  0  0  0  0  0  0  0  0  0
   -2.3651   -4.0063    1.6441 H   0  0  0  0  0  0  0  0  0  0  0  0
   -1.5698   -3.9379    0.0770 H   0  0  0  0  0  0  0  0  0  0  0  0
   -1.0710   -5.1656    1.2563 H   0  0  0  0  0  0  0  0  0  0  0  0
    0.5921   -3.2671    1.2081 H   0  0  0  0  0  0  0  0  0  0  0  0
   -0.2109   -3.4233    2.7725 H   0  0  0  0  0  0  0  0  0  0  0  0
   -0.8495   -1.8446   -0.3965 H   0  0  0  0  0  0  0  0  0  0  0  0
    2.8565   -1.1833    0.5206 H   0  0  0  0  0  0  0  0  0  0  0  0
    4.6870   -2.1756    1.5093 H   0  0  0  0  0  0  0  0  0  0  0  0
    7.0925   -2.6948    1.5031 H   0  0  0  0  0  0  0  0  0  0  0  0
    8.5398   -1.8924   -0.3473 H   0  0  0  0  0  0  0  0  0  0  0  0
    7.5532   -0.5618   -2.1958 H   0  0  0  0  0  0  0  0  0  0  0  0
    5.1668   -0.0332   -2.2136 H   0  0  0  0  0  0  0  0  0  0  0  0
    0.5741    1.2587   -2.2558 H   0  0  0  0  0  0  0  0  0  0  0  0
   -1.7835    0.3542   -1.7557 H   0  0  0  0  0  0  0  0  0  0  0  0
   -0.4281    2.8172    0.8400 H   0  0  0  0  0  0  0  0  0  0  0  0
   -1.0292    5.2015    0.8103 H   0  0  0  0  0  0  0  0  0  0  0  0
   -2.4612    6.1121   -0.9975 H   0  0  0  0  0  0  0  0  0  0  0  0
   -3.2893    4.6158   -2.7931 H   0  0  0  0  0  0  0  0  0  0  0  0
   -2.7115    2.2217   -2.7818 H   0  0  0  0  0  0  0  0  0  0  0  0
   -1.2352    0.7180    1.2275 H   0  0  0  0  0  0  0  0  0  0  0  0
   -3.0929   -0.9926    1.3616 H   0  0  0  0  0  0  0  0  0  0  0  0
   -3.3084   -0.8738   -0.3738 H   0  0  0  0  0  0  0  0  0  0  0  0
   -3.5840    1.4703    1.5746 H   0  0  0  0  0  0  0  0  0  0  0  0
   -3.9947    1.4981   -0.1497 H   0  0  0  0  0  0  0  0  0  0  0  0
   -5.7595   -0.2242    0.2279 H   0  0  0  0  0  0  0  0  0  0  0  0
   -6.0399    1.2579    1.1560 H   0  0  0  0  0  0  0  0  0  0  0  0
   -5.0461    0.1874    2.9504 H   0  0  0  0  0  0  0  0  0  0  0  0
  1  2  1  0
  2  3  1  0
  3  4  1  0
  4  5  1  0
  5  6  1  0
  6  7  1  0
  7  8  2  0
  7  9  1  0
  9 10  1  0
 10 11  2  0
 11 12  1  0
 12 13  2  0
 13 14  1  0
 14 15  2  0
  6 16  2  0
 16 17  1  0
 17 18  1  0
 18 19  2  0
 19 20  1  0
 20 21  2  0
 21 22  1  0
 22 23  2  0
 17 24  1  0
 24 25  1  0
 25 26  1  0
 26 27  1  0
 27 28  1  0
 24  4  1  0
 15 10  1  0
 23 18  1  0
  1 29  1  0
  1 30  1  0
  1 31  1  0
  2 32  1  0
  2 33  1  0
  4 34  1  0
  9 35  1  0
 11 36  1  0
 12 37  1  0
 13 38  1  0
 14 39  1  0
 15 40  1  0
 16 41  1  0
 17 42  1  0
 19 43  1  0
 20 44  1  0
 21 45  1  0
 22 46  1  0
 23 47  1  0
 24 48  1  0
 25 49  1  0
 25 50  1  0
 26 51  1  0
 26 52  1  0
 27 53  1  0
 27 54  1  0
 28 55  1  0
M  END
$$$$
