
     RDKit          3D

 41 44  0  0  0  0  0  0  0  0999 V2000
    1.2318    1.9281   -0.0830 N   0  0  0  0  0  0  0  0  0  0  0  0
    1.5004    0.8700   -0.4757 C   0  0  0  0  0  0  0  0  0  0  0  0
    1.8827   -0.4088   -0.9910 C   0  0  0  0  0  0  0  0  0  0  0  0
    1.0156   -1.4386   -1.1108 C   0  0  0  0  0  0  0  0  0  0  0  0
   -0.3586   -1.4044   -0.7385 C   0  0  0  0  0  0  0  0  0  0  0  0
   -1.3448   -2.3437   -1.0187 C   0  0  0  0  0  0  0  0  0  0  0  0
   -2.5598   -1.8853   -0.4544 C   0  0  0  0  0  0  0  0  0  0  0  0
   -2.2728   -0.6889    0.1648 C   0  0  0  0  0  0  0  0  0  0  0  0
   -3.0514    0.2890    0.9217 C   0  0  0  0  0  0  0  0  0  0  0  0
   -4.4479    0.1672    1.0186 C   0  0  0  0  0  0  0  0  0  0  0  0
   -5.2033    1.0988    1.7402 C   0  0  0  0  0  0  0  0  0  0  0  0
   -4.5610    2.1582    2.3826 C   0  0  0  0  0  0  0  0  0  0  0  0
   -5.5291    3.3448    3.2657 S   0  0  0  0  0  6  0  0  0  0  0  0
   -6.0511    2.4577    4.5941 N   0  0  0  0  0  0  0  0  0  0  0  0
   -6.7115    3.6462    2.4929 O   0  0  0  0  0  0  0  0  0  0  0  0
   -4.6680    4.3719    3.8053 O   0  0  0  0  0  0  0  0  0  0  0  0
   -3.1768    2.3035    2.2964 C   0  0  0  0  0  0  0  0  0  0  0  0
   -2.4299    1.3722    1.5674 C   0  0  0  0  0  0  0  0  0  0  0  0
   -0.9496   -0.4057   -0.0051 O   0  0  0  0  0  0  0  0  0  0  0  0
    3.2344   -0.6379   -1.4434 C   0  0  0  0  0  0  0  0  0  0  0  0
    3.7421   -1.8111   -1.7842 N   0  0  0  0  0  0  0  0  0  0  0  0
    5.0615   -1.6994   -2.1869 C   0  0  0  0  0  0  0  0  0  0  0  0
    5.8967   -2.7592   -2.5915 C   0  0  0  0  0  0  0  0  0  0  0  0
    7.2112   -2.4983   -2.9893 C   0  0  0  0  0  0  0  0  0  0  0  0
    7.6996   -1.1950   -2.9886 C   0  0  0  0  0  0  0  0  0  0  0  0
    6.8938   -0.1283   -2.5788 C   0  0  0  0  0  0  0  0  0  0  0  0
    5.5763   -0.4059   -2.1789 C   0  0  0  0  0  0  0  0  0  0  0  0
    4.3642    0.6707   -1.6197 S   0  0  0  0  0  0  0  0  0  0  0  0
    1.3600   -2.3785   -1.5417 H   0  0  0  0  0  0  0  0  0  0  0  0
   -1.2009   -3.2565   -1.5783 H   0  0  0  0  0  0  0  0  0  0  0  0
   -3.5219   -2.3754   -0.4937 H   0  0  0  0  0  0  0  0  0  0  0  0
   -4.9690   -0.6472    0.5222 H   0  0  0  0  0  0  0  0  0  0  0  0
   -6.2848    0.9953    1.7918 H   0  0  0  0  0  0  0  0  0  0  0  0
   -5.6582    2.8586    5.4476 H   0  0  0  0  0  0  0  0  0  0  0  0
   -7.0701    2.4070    4.5937 H   0  0  0  0  0  0  0  0  0  0  0  0
   -2.6684    3.1317    2.7802 H   0  0  0  0  0  0  0  0  0  0  0  0
   -1.3497    1.5059    1.5051 H   0  0  0  0  0  0  0  0  0  0  0  0
    5.5125   -3.7745   -2.5891 H   0  0  0  0  0  0  0  0  0  0  0  0
    7.8543   -3.3183   -3.2998 H   0  0  0  0  0  0  0  0  0  0  0  0
    8.7230   -1.0040   -3.3041 H   0  0  0  0  0  0  0  0  0  0  0  0
    7.2786    0.8881   -2.5709 H   0  0  0  0  0  0  0  0  0  0  0  0
  1  2  3  0
  2  3  1  0
  3  4  2  3
  4  5  1  0
  5  6  2  0
  6  7  1  0
  7  8  2  0
  8  9  1  0
  9 10  2  0
 10 11  1  0
 11 12  2  0
 12 13  1  0
 13 14  1  0
 13 15  2  0
 13 16  2  0
 12 17  1  0
 17 18  2  0
  8 19  1  0
  3 20  1  0
 20 21  2  0
 21 22  1  0
 22 23  2  0
 23 24  1  0
 24 25  2  0
 25 26  1  0
 26 27  2  0
 27 28  1  0
 19  5  1  0
 28 20  1  0
 18  9  1  0
 27 22  1  0
  4 29  1  0
  6 30  1  0
  7 31  1  0
 10 32  1  0
 11 33  1  0
 14 34  1  0
 14 35  1  0
 17 36  1  0
 18 37  1  0
 23 38  1  0
 24 39  1  0
 25 40  1  0
 26 41  1  0
M  END
$$$$
