
     RDKit          3D

 67 69  0  0  0  0  0  0  0  0999 V2000
    0.1318    2.1711   -0.3197 C   0  0  0  0  0  0  0  0  0  0  0  0
   -0.4198    0.7528   -0.2345 C   0  0  0  0  0  0  0  0  0  0  0  0
   -1.8814    0.7767   -0.1903 N   0  0  0  0  0  0  0  0  0  0  0  0
   -2.6469    0.8920   -1.3259 C   0  0  0  0  0  0  0  0  0  0  0  0
   -2.1606    1.0305   -2.4436 O   0  0  0  0  0  0  0  0  0  0  0  0
   -4.1249    0.8074   -1.1500 C   0  0  0  0  0  0  0  0  0  0  0  0
   -4.7559    1.0934    0.0633 C   0  0  0  0  0  0  0  0  0  0  0  0
   -6.1504    0.9973    0.1769 C   0  0  0  0  0  0  0  0  0  0  0  0
   -6.9517    0.6211   -0.9145 C   0  0  0  0  0  0  0  0  0  0  0  0
   -8.4847    0.5111   -0.8210 C   0  0  0  0  0  0  0  0  0  0  0  0
   -8.9385   -0.9045   -1.2401 C   0  0  0  0  0  0  0  0  0  0  0  0
   -9.1306    1.5505   -1.7603 C   0  0  0  0  0  0  0  0  0  0  0  0
   -9.0424    0.7616    0.5985 C   0  0  0  0  0  0  0  0  0  0  0  0
   -6.2972    0.3571   -2.1333 C   0  0  0  0  0  0  0  0  0  0  0  0
   -4.9060    0.4501   -2.2515 C   0  0  0  0  0  0  0  0  0  0  0  0
    0.0657    0.0513    1.0528 C   0  0  0  0  0  0  0  0  0  0  0  0
   -0.7195   -0.0988    1.9993 O   0  0  0  0  0  0  0  0  0  0  0  0
    1.3810   -0.3743    1.1370 N   0  0  0  0  0  0  0  0  0  0  0  0
    1.8191   -0.9835    2.3950 C   0  0  0  0  0  0  0  0  0  0  0  0
    3.3174   -1.3351    2.4195 C   0  0  0  0  0  0  0  0  0  0  0  0
    3.6756   -2.1604    1.2654 N   0  0  0  0  0  0  0  0  0  0  0  0
    5.0310   -2.6948    1.2709 C   0  0  0  0  0  0  0  0  0  0  0  0
    6.1256   -1.6719    1.1447 C   0  0  0  0  0  0  0  0  0  0  0  0
    7.0449   -1.6825    0.1659 C   0  0  0  0  0  0  0  0  0  0  0  0
    8.1407   -0.7105    0.0476 C   0  0  0  0  0  0  0  0  0  0  0  0
    8.5516   -0.3047   -1.2290 C   0  0  0  0  0  0  0  0  0  0  0  0
    9.6149    0.5885   -1.3838 C   0  0  0  0  0  0  0  0  0  0  0  0
   10.2853    1.0756   -0.2640 C   0  0  0  0  0  0  0  0  0  0  0  0
    9.8976    0.6670    1.0100 C   0  0  0  0  0  0  0  0  0  0  0  0
    8.8336   -0.2253    1.1650 C   0  0  0  0  0  0  0  0  0  0  0  0
    3.2301   -1.6130   -0.0228 C   0  0  0  0  0  0  0  0  0  0  0  0
    2.3828   -0.3224    0.0675 C   0  0  0  0  0  0  0  0  0  0  0  0
   -0.2394    2.6851   -1.2117 H   0  0  0  0  0  0  0  0  0  0  0  0
    1.2248    2.1827   -0.3560 H   0  0  0  0  0  0  0  0  0  0  0  0
   -0.1718    2.7632    0.5517 H   0  0  0  0  0  0  0  0  0  0  0  0
   -0.1327    0.1616   -1.1091 H   0  0  0  0  0  0  0  0  0  0  0  0
   -2.2922    0.4811    0.6898 H   0  0  0  0  0  0  0  0  0  0  0  0
   -4.1891    1.4166    0.9319 H   0  0  0  0  0  0  0  0  0  0  0  0
   -6.5869    1.2336    1.1442 H   0  0  0  0  0  0  0  0  0  0  0  0
   -8.6832   -1.1357   -2.2805 H   0  0  0  0  0  0  0  0  0  0  0  0
  -10.0256   -1.0150   -1.1460 H   0  0  0  0  0  0  0  0  0  0  0  0
   -8.4700   -1.6688   -0.6087 H   0  0  0  0  0  0  0  0  0  0  0  0
   -8.8704    1.3756   -2.8099 H   0  0  0  0  0  0  0  0  0  0  0  0
   -8.8062    2.5671   -1.5066 H   0  0  0  0  0  0  0  0  0  0  0  0
  -10.2242    1.5217   -1.6904 H   0  0  0  0  0  0  0  0  0  0  0  0
  -10.1338    0.6572    0.6176 H   0  0  0  0  0  0  0  0  0  0  0  0
   -8.8118    1.7735    0.9520 H   0  0  0  0  0  0  0  0  0  0  0  0
   -8.6362    0.0451    1.3217 H   0  0  0  0  0  0  0  0  0  0  0  0
   -6.8644    0.0765   -3.0185 H   0  0  0  0  0  0  0  0  0  0  0  0
   -4.4357    0.2388   -3.2102 H   0  0  0  0  0  0  0  0  0  0  0  0
    1.2196   -1.8899    2.5474 H   0  0  0  0  0  0  0  0  0  0  0  0
    1.5842   -0.2940    3.2148 H   0  0  0  0  0  0  0  0  0  0  0  0
    3.5301   -1.8718    3.3517 H   0  0  0  0  0  0  0  0  0  0  0  0
    3.9032   -0.4077    2.4334 H   0  0  0  0  0  0  0  0  0  0  0  0
    5.1165   -3.4476    0.4751 H   0  0  0  0  0  0  0  0  0  0  0  0
    5.1904   -3.2517    2.2037 H   0  0  0  0  0  0  0  0  0  0  0  0
    6.1644   -0.9092    1.9174 H   0  0  0  0  0  0  0  0  0  0  0  0
    7.0025   -2.4395   -0.6139 H   0  0  0  0  0  0  0  0  0  0  0  0
    8.0437   -0.6754   -2.1164 H   0  0  0  0  0  0  0  0  0  0  0  0
    9.9221    0.9008   -2.3787 H   0  0  0  0  0  0  0  0  0  0  0  0
   11.1141    1.7683   -0.3850 H   0  0  0  0  0  0  0  0  0  0  0  0
   10.4282    1.0368    1.8836 H   0  0  0  0  0  0  0  0  0  0  0  0
    8.5640   -0.5472    2.1675 H   0  0  0  0  0  0  0  0  0  0  0  0
    4.0675   -1.4157   -0.7025 H   0  0  0  0  0  0  0  0  0  0  0  0
    2.6205   -2.3890   -0.5020 H   0  0  0  0  0  0  0  0  0  0  0  0
    1.9231   -0.1293   -0.9031 H   0  0  0  0  0  0  0  0  0  0  0  0
    3.0367    0.5288    0.2942 H   0  0  0  0  0  0  0  0  0  0  0  0
  1  2  1  0
  2  3  1  0
  3  4  1  0
  4  5  2  0
  4  6  1  0
  6  7  2  0
  7  8  1  0
  8  9  2  0
  9 10  1  0
 10 11  1  0
 10 12  1  0
 10 13  1  0
  9 14  1  0
 14 15  2  0
  2 16  1  0
 16 17  2  0
 16 18  1  0
 18 19  1  0
 19 20  1  0
 20 21  1  0
 21 22  1  0
 22 23  1  0
 23 24  2  3
 24 25  1  0
 25 26  2  0
 26 27  1  0
 27 28  2  0
 28 29  1  0
 29 30  2  0
 21 31  1  0
 31 32  1  0
 15  6  1  0
 32 18  1  0
 30 25  1  0
  1 33  1  0
  1 34  1  0
  1 35  1  0
  2 36  1  0
  3 37  1  0
  7 38  1  0
  8 39  1  0
 11 40  1  0
 11 41  1  0
 11 42  1  0
 12 43  1  0
 12 44  1  0
 12 45  1  0
 13 46  1  0
 13 47  1  0
 13 48  1  0
 14 49  1  0
 15 50  1  0
 19 51  1  0
 19 52  1  0
 20 53  1  0
 20 54  1  0
 22 55  1  0
 22 56  1  0
 23 57  1  0
 24 58  1  0
 26 59  1  0
 27 60  1  0
 28 61  1  0
 29 62  1  0
 30 63  1  0
 31 64  1  0
 31 65  1  0
 32 66  1  0
 32 67  1  0
M  END
$$$$
