
     RDKit          3D

 39 41  0  0  0  0  0  0  0  0999 V2000
   -2.6265   -1.1267    1.5555 C   0  0  0  0  0  0  0  0  0  0  0  0
   -2.7044   -0.5404    0.1908 C   0  0  0  0  0  0  0  0  0  0  0  0
   -3.9017   -0.5525   -0.4871 N   0  0  0  0  0  0  0  0  0  0  0  0
   -3.7582   -0.0331   -1.7482 C   0  0  0  0  0  0  0  0  0  0  0  0
   -4.7050    0.1329   -2.7664 C   0  0  0  0  0  0  0  0  0  0  0  0
   -4.2699    0.6896   -3.9720 C   0  0  0  0  0  0  0  0  0  0  0  0
   -2.9408    1.0626   -4.1488 C   0  0  0  0  0  0  0  0  0  0  0  0
   -2.0098    0.8890   -3.1183 C   0  0  0  0  0  0  0  0  0  0  0  0
   -2.4210    0.3285   -1.8891 C   0  0  0  0  0  0  0  0  0  0  0  0
   -1.7528    0.0319   -0.6492 C   0  0  0  0  0  0  0  0  0  0  0  0
   -0.3302    0.2843   -0.3786 C   0  0  0  0  0  0  0  0  0  0  0  0
    0.5001    0.2454   -1.2918 O   0  0  0  0  0  0  0  0  0  0  0  0
    0.1167    0.6778    1.0412 C   0  0  0  0  0  0  0  0  0  0  0  0
   -0.3300    2.1042    1.3383 C   0  0  0  0  0  0  0  0  0  0  0  0
    1.5512    0.6609    1.1510 O   0  0  0  0  0  0  0  0  0  0  0  0
    2.0884   -0.5949    1.1965 C   0  0  0  0  0  0  0  0  0  0  0  0
    1.4251   -1.6208    1.2857 O   0  0  0  0  0  0  0  0  0  0  0  0
    3.5298   -0.5088    1.1511 C   0  0  0  0  0  0  0  0  0  0  0  0
    4.3998    0.5604    0.9857 C   0  0  0  0  0  0  0  0  0  0  0  0
    5.7182    0.0388    1.0178 C   0  0  0  0  0  0  0  0  0  0  0  0
    5.5675   -1.3139    1.2037 C   0  0  0  0  0  0  0  0  0  0  0  0
    6.5255   -2.3683    1.3206 N   0  0  0  0  0  4  0  0  0  0  0  0
    7.7155   -2.0362    1.2285 O   0  0  0  0  0  0  0  0  0  0  0  0
    6.1063   -3.5166    1.5090 O   0  0  0  0  0  1  0  0  0  0  0  0
    4.2583   -1.6664    1.2885 O   0  0  0  0  0  0  0  0  0  0  0  0
   -2.5613   -0.3353    2.3083 H   0  0  0  0  0  0  0  0  0  0  0  0
   -3.5109   -1.7314    1.7833 H   0  0  0  0  0  0  0  0  0  0  0  0
   -1.7536   -1.7804    1.6464 H   0  0  0  0  0  0  0  0  0  0  0  0
   -4.7710   -0.9203   -0.1249 H   0  0  0  0  0  0  0  0  0  0  0  0
   -5.7410   -0.1612   -2.6335 H   0  0  0  0  0  0  0  0  0  0  0  0
   -4.9793    0.8292   -4.7845 H   0  0  0  0  0  0  0  0  0  0  0  0
   -2.6183    1.4892   -5.0954 H   0  0  0  0  0  0  0  0  0  0  0  0
   -0.9730    1.1780   -3.2715 H   0  0  0  0  0  0  0  0  0  0  0  0
   -0.3001    0.0078    1.7949 H   0  0  0  0  0  0  0  0  0  0  0  0
    0.0818    2.8041    0.6021 H   0  0  0  0  0  0  0  0  0  0  0  0
    0.0361    2.4241    2.3198 H   0  0  0  0  0  0  0  0  0  0  0  0
   -1.4200    2.1994    1.3252 H   0  0  0  0  0  0  0  0  0  0  0  0
    4.1064    1.5936    0.8488 H   0  0  0  0  0  0  0  0  0  0  0  0
    6.6519    0.5757    0.9166 H   0  0  0  0  0  0  0  0  0  0  0  0
  1  2  1  0
  2  3  1  0
  3  4  1  0
  4  5  2  0
  5  6  1  0
  6  7  2  0
  7  8  1  0
  8  9  2  0
  9 10  1  0
 10 11  1  0
 11 12  2  0
 11 13  1  0
 13 14  1  0
 13 15  1  0
 15 16  1  0
 16 17  2  0
 16 18  1  0
 18 19  2  0
 19 20  1  0
 20 21  2  0
 21 22  1  0
 22 23  2  0
 22 24  1  0
 21 25  1  0
 10  2  2  0
 25 18  1  0
  9  4  1  0
  1 26  1  0
  1 27  1  0
  1 28  1  0
  3 29  1  0
  5 30  1  0
  6 31  1  0
  7 32  1  0
  8 33  1  0
 13 34  1  0
 14 35  1  0
 14 36  1  0
 14 37  1  0
 19 38  1  0
 20 39  1  0
M  CHG  2  22   1  24  -1
M  END
$$$$
