
     RDKit          3D

 37 38  0  0  0  0  0  0  0  0999 V2000
   -5.2651    0.8844    1.1266 C   0  0  0  0  0  0  0  0  0  0  0  0
   -4.5279    1.0334   -0.1247 N   0  0  0  0  0  0  0  0  0  0  0  0
   -4.3444   -0.2763   -0.7847 C   0  0  0  0  0  0  0  0  0  0  0  0
   -3.1134   -0.3377   -1.7052 C   0  0  0  0  0  0  0  0  0  0  0  0
   -1.8779   -0.0709   -0.9622 N   0  0  0  0  0  0  0  0  0  0  0  0
   -0.7053   -0.6539   -1.4056 C   0  0  0  0  0  0  0  0  0  0  0  0
   -0.6379   -1.3165   -2.4386 O   0  0  0  0  0  0  0  0  0  0  0  0
    0.5024   -0.4639   -0.5558 C   0  0  0  0  0  0  0  0  0  0  0  0
    1.7169   -0.7257   -1.0646 C   0  0  0  0  0  0  0  0  0  0  0  0
    2.9677   -0.6135   -0.3044 C   0  0  0  0  0  0  0  0  0  0  0  0
    3.9812   -1.5555   -0.5335 C   0  0  0  0  0  0  0  0  0  0  0  0
    5.1999   -1.4759    0.1480 C   0  0  0  0  0  0  0  0  0  0  0  0
    5.4118   -0.4359    1.0602 C   0  0  0  0  0  0  0  0  0  0  0  0
    6.6884   -0.3454    1.7797 N   0  0  0  0  0  4  0  0  0  0  0  0
    6.8293    0.5835    2.5881 O   0  0  0  0  0  0  0  0  0  0  0  0
    7.5492   -1.2035    1.5380 O   0  0  0  0  0  1  0  0  0  0  0  0
    4.4166    0.5224    1.2879 C   0  0  0  0  0  0  0  0  0  0  0  0
    3.2014    0.4320    0.6008 C   0  0  0  0  0  0  0  0  0  0  0  0
   -2.0003    0.8677    0.1599 C   0  0  0  0  0  0  0  0  0  0  0  0
   -3.2562    1.7555    0.0600 C   0  0  0  0  0  0  0  0  0  0  0  0
   -4.7002    0.3144    1.8728 H   0  0  0  0  0  0  0  0  0  0  0  0
   -5.5040    1.8658    1.5511 H   0  0  0  0  0  0  0  0  0  0  0  0
   -6.2208    0.3773    0.9531 H   0  0  0  0  0  0  0  0  0  0  0  0
   -5.2446   -0.5057   -1.3660 H   0  0  0  0  0  0  0  0  0  0  0  0
   -4.2323   -1.0691   -0.0321 H   0  0  0  0  0  0  0  0  0  0  0  0
   -3.0589   -1.3229   -2.1813 H   0  0  0  0  0  0  0  0  0  0  0  0
   -3.1874    0.4113   -2.5030 H   0  0  0  0  0  0  0  0  0  0  0  0
    0.3696   -0.1695    0.4748 H   0  0  0  0  0  0  0  0  0  0  0  0
    1.8142   -1.0700   -2.0937 H   0  0  0  0  0  0  0  0  0  0  0  0
    3.8257   -2.3679   -1.2424 H   0  0  0  0  0  0  0  0  0  0  0  0
    5.9643   -2.2258   -0.0452 H   0  0  0  0  0  0  0  0  0  0  0  0
    4.5709    1.3433    1.9853 H   0  0  0  0  0  0  0  0  0  0  0  0
    2.4468    1.1967    0.7718 H   0  0  0  0  0  0  0  0  0  0  0  0
   -1.1125    1.5074    0.1980 H   0  0  0  0  0  0  0  0  0  0  0  0
   -2.0314    0.2713    1.0793 H   0  0  0  0  0  0  0  0  0  0  0  0
   -3.1350    2.4077   -0.8152 H   0  0  0  0  0  0  0  0  0  0  0  0
   -3.3005    2.4315    0.9229 H   0  0  0  0  0  0  0  0  0  0  0  0
  1  2  1  0
  2  3  1  0
  3  4  1  0
  4  5  1  0
  5  6  1  0
  6  7  2  0
  6  8  1  0
  8  9  2  3
  9 10  1  0
 10 11  2  0
 11 12  1  0
 12 13  2  0
 13 14  1  0
 14 15  2  0
 14 16  1  0
 13 17  1  0
 17 18  2  0
  5 19  1  0
 19 20  1  0
 20  2  1  0
 18 10  1  0
  1 21  1  0
  1 22  1  0
  1 23  1  0
  3 24  1  0
  3 25  1  0
  4 26  1  0
  4 27  1  0
  8 28  1  0
  9 29  1  0
 11 30  1  0
 12 31  1  0
 17 32  1  0
 18 33  1  0
 19 34  1  0
 19 35  1  0
 20 36  1  0
 20 37  1  0
M  CHG  2  14   1  16  -1
M  END
$$$$
