
     RDKit          3D

 67 71  0  0  0  0  0  0  0  0999 V2000
   -6.8111    4.2377    1.5265 C   0  0  0  0  0  0  0  0  0  0  0  0
   -5.3959    4.3426    1.5767 O   0  0  0  0  0  0  0  0  0  0  0  0
   -4.6586    3.3253    1.0180 C   0  0  0  0  0  0  0  0  0  0  0  0
   -5.2187    2.1846    0.4304 C   0  0  0  0  0  0  0  0  0  0  0  0
   -4.3680    1.2001   -0.1139 C   0  0  0  0  0  0  0  0  0  0  0  0
   -4.8510   -0.2649   -0.8731 S   0  0  0  0  0  0  0  0  0  0  0  0
   -3.2380   -0.7460   -1.1678 C   0  0  0  0  0  0  0  0  0  0  0  0
   -3.0057   -2.0197   -1.8622 C   0  0  0  0  0  0  0  0  0  0  0  0
   -2.7602   -1.9974   -3.2447 C   0  0  0  0  0  0  0  0  0  0  0  0
   -2.5273   -3.1813   -3.9422 C   0  0  0  0  0  0  0  0  0  0  0  0
   -2.5331   -4.3962   -3.2635 C   0  0  0  0  0  0  0  0  0  0  0  0
   -2.7698   -4.4327   -1.8862 C   0  0  0  0  0  0  0  0  0  0  0  0
   -3.0091   -3.2511   -1.1744 C   0  0  0  0  0  0  0  0  0  0  0  0
   -3.2279   -3.1955    0.1797 O   0  0  0  0  0  0  0  0  0  0  0  0
   -3.4230   -4.4256    0.8627 C   0  0  0  0  0  0  0  0  0  0  0  0
   -2.3315    0.1964   -0.7118 C   0  0  0  0  0  0  0  0  0  0  0  0
   -0.8934    0.0175   -0.8761 C   0  0  0  0  0  0  0  0  0  0  0  0
   -0.1851    0.8317   -1.7629 C   0  0  0  0  0  0  0  0  0  0  0  0
    1.1934    0.6644   -1.9124 C   0  0  0  0  0  0  0  0  0  0  0  0
    1.8807   -0.3117   -1.1844 C   0  0  0  0  0  0  0  0  0  0  0  0
    3.2212   -0.3594   -1.4388 O   0  0  0  0  0  0  0  0  0  0  0  0
    4.0252   -1.3351   -0.7754 C   0  0  0  0  0  0  0  0  0  0  0  0
    4.5054   -0.8647    0.6143 C   0  0  0  0  0  0  0  0  0  0  0  0
    5.2705    0.3981    0.6221 N   0  0  0  0  0  0  0  0  0  0  0  0
    6.5840    0.3083   -0.0493 C   0  0  0  0  0  0  0  0  0  0  0  0
    7.6448   -0.4645    0.7535 C   0  0  0  0  0  0  0  0  0  0  0  0
    7.8138    0.0861    2.0658 O   0  0  0  0  0  0  0  0  0  0  0  0
    6.5688    0.1084    2.7745 C   0  0  0  0  0  0  0  0  0  0  0  0
    5.4934    0.8901    2.0001 C   0  0  0  0  0  0  0  0  0  0  0  0
    1.1724   -1.1201   -0.2957 C   0  0  0  0  0  0  0  0  0  0  0  0
   -0.2091   -0.9548   -0.1401 C   0  0  0  0  0  0  0  0  0  0  0  0
   -2.9809    1.3297   -0.0889 C   0  0  0  0  0  0  0  0  0  0  0  0
   -2.4355    2.4928    0.5173 C   0  0  0  0  0  0  0  0  0  0  0  0
   -3.2652    3.4801    1.0661 C   0  0  0  0  0  0  0  0  0  0  0  0
   -2.8050    4.6279    1.6653 O   0  0  0  0  0  0  0  0  0  0  0  0
   -1.3990    4.7952    1.7782 C   0  0  0  0  0  0  0  0  0  0  0  0
   -7.1629    3.3677    2.0902 H   0  0  0  0  0  0  0  0  0  0  0  0
   -7.1693    4.2123    0.4923 H   0  0  0  0  0  0  0  0  0  0  0  0
   -7.2293    5.1307    2.0006 H   0  0  0  0  0  0  0  0  0  0  0  0
   -6.2900    2.0303    0.3799 H   0  0  0  0  0  0  0  0  0  0  0  0
   -2.7486   -1.0517   -3.7819 H   0  0  0  0  0  0  0  0  0  0  0  0
   -2.3384   -3.1530   -5.0121 H   0  0  0  0  0  0  0  0  0  0  0  0
   -2.3477   -5.3200   -3.8063 H   0  0  0  0  0  0  0  0  0  0  0  0
   -2.7526   -5.4007   -1.3971 H   0  0  0  0  0  0  0  0  0  0  0  0
   -4.2518   -4.9962    0.4306 H   0  0  0  0  0  0  0  0  0  0  0  0
   -2.5001   -5.0147    0.8778 H   0  0  0  0  0  0  0  0  0  0  0  0
   -3.6863   -4.1933    1.8995 H   0  0  0  0  0  0  0  0  0  0  0  0
   -0.6965    1.5952   -2.3438 H   0  0  0  0  0  0  0  0  0  0  0  0
    1.7398    1.3010   -2.6042 H   0  0  0  0  0  0  0  0  0  0  0  0
    4.8879   -1.5229   -1.4231 H   0  0  0  0  0  0  0  0  0  0  0  0
    3.5136   -2.3025   -0.7084 H   0  0  0  0  0  0  0  0  0  0  0  0
    5.0771   -1.6783    1.0749 H   0  0  0  0  0  0  0  0  0  0  0  0
    3.6132   -0.7172    1.2344 H   0  0  0  0  0  0  0  0  0  0  0  0
    6.4936   -0.1094   -1.0566 H   0  0  0  0  0  0  0  0  0  0  0  0
    6.9452    1.3358   -0.1894 H   0  0  0  0  0  0  0  0  0  0  0  0
    8.6117   -0.3958    0.2437 H   0  0  0  0  0  0  0  0  0  0  0  0
    7.3938   -1.5281    0.8384 H   0  0  0  0  0  0  0  0  0  0  0  0
    6.7500    0.5913    3.7406 H   0  0  0  0  0  0  0  0  0  0  0  0
    6.2532   -0.9211    2.9780 H   0  0  0  0  0  0  0  0  0  0  0  0
    5.8138    1.9372    1.9245 H   0  0  0  0  0  0  0  0  0  0  0  0
    4.5539    0.9011    2.5647 H   0  0  0  0  0  0  0  0  0  0  0  0
    1.6550   -1.8876    0.2975 H   0  0  0  0  0  0  0  0  0  0  0  0
   -0.7484   -1.5918    0.5582 H   0  0  0  0  0  0  0  0  0  0  0  0
   -1.3554    2.5862    0.5425 H   0  0  0  0  0  0  0  0  0  0  0  0
   -0.9518    3.9977    2.3805 H   0  0  0  0  0  0  0  0  0  0  0  0
   -1.2153    5.7421    2.2952 H   0  0  0  0  0  0  0  0  0  0  0  0
   -0.9291    4.8598    0.7916 H   0  0  0  0  0  0  0  0  0  0  0  0
  1  2  1  0
  2  3  1  0
  3  4  2  0
  4  5  1  0
  5  6  1  0
  6  7  1  0
  7  8  1  0
  8  9  2  0
  9 10  1  0
 10 11  2  0
 11 12  1  0
 12 13  2  0
 13 14  1  0
 14 15  1  0
  7 16  2  0
 16 17  1  0
 17 18  2  0
 18 19  1  0
 19 20  2  0
 20 21  1  0
 21 22  1  0
 22 23  1  0
 23 24  1  0
 24 25  1  0
 25 26  1  0
 26 27  1  0
 27 28  1  0
 28 29  1  0
 20 30  1  0
 30 31  2  0
 16 32  1  0
 32 33  1  0
 33 34  2  0
 34 35  1  0
 35 36  1  0
 34  3  1  0
 32  5  2  0
 13  8  1  0
 31 17  1  0
 29 24  1  0
  1 37  1  0
  1 38  1  0
  1 39  1  0
  4 40  1  0
  9 41  1  0
 10 42  1  0
 11 43  1  0
 12 44  1  0
 15 45  1  0
 15 46  1  0
 15 47  1  0
 18 48  1  0
 19 49  1  0
 22 50  1  0
 22 51  1  0
 23 52  1  0
 23 53  1  0
 25 54  1  0
 25 55  1  0
 26 56  1  0
 26 57  1  0
 28 58  1  0
 28 59  1  0
 29 60  1  0
 29 61  1  0
 30 62  1  0
 31 63  1  0
 33 64  1  0
 36 65  1  0
 36 66  1  0
 36 67  1  0
M  END
$$$$
