
     RDKit          3D

 63 67  0  0  0  0  0  0  0  0999 V2000
   -7.2183    0.0849    4.9522 Cl  0  0  0  0  0  0  0  0  0  0  0  0
   -5.6748   -0.0436    4.2072 C   0  0  0  0  0  0  0  0  0  0  0  0
   -5.5837   -0.2641    2.8355 C   0  0  0  0  0  0  0  0  0  0  0  0
   -4.3288   -0.3648    2.2268 C   0  0  0  0  0  0  0  0  0  0  0  0
   -3.1487   -0.2340    2.9834 C   0  0  0  0  0  0  0  0  0  0  0  0
   -1.7563   -0.3387    2.3631 C   0  0  0  0  0  0  0  0  0  0  0  0
   -1.1552   -1.7373    2.3991 C   0  0  0  0  0  0  0  0  0  0  0  0
    0.2091   -1.8957    2.7065 C   0  0  0  0  0  0  0  0  0  0  0  0
    0.7948   -3.1654    2.7393 C   0  0  0  0  0  0  0  0  0  0  0  0
    0.0274   -4.2918    2.4585 C   0  0  0  0  0  0  0  0  0  0  0  0
    0.7484   -5.8512    2.4943 Cl  0  0  0  0  0  0  0  0  0  0  0  0
   -1.3209   -4.1584    2.1440 C   0  0  0  0  0  0  0  0  0  0  0  0
   -1.9099   -2.8902    2.1122 C   0  0  0  0  0  0  0  0  0  0  0  0
   -1.7504    0.2158    0.9881 N   0  0  0  0  0  0  0  0  0  0  0  0
   -2.1154    1.5198    0.6567 C   0  0  0  0  0  0  0  0  0  0  0  0
   -1.9918    1.6400   -0.6972 C   0  0  0  0  0  0  0  0  0  0  0  0
   -1.5013    0.4326   -1.1560 N   0  0  0  0  0  4  0  0  0  0  0  0
   -1.1487    0.1038   -2.5537 C   0  0  0  0  0  0  0  0  0  0  0  0
    0.3786    0.1351   -2.8276 C   0  0  0  0  0  0  0  0  0  0  0  0
    1.0007   -0.8264   -1.9491 O   0  0  0  0  0  0  0  0  0  0  0  0
    2.1758   -1.4483   -2.4914 C   0  0  0  0  0  0  0  0  0  0  0  0
    3.4215   -0.6416   -2.2198 C   0  0  0  0  0  0  0  0  0  0  0  0
    4.0595    0.0162   -3.2868 C   0  0  0  0  0  0  0  0  0  0  0  0
    5.1944    0.7998   -3.0646 C   0  0  0  0  0  0  0  0  0  0  0  0
    5.7043    0.9298   -1.7762 C   0  0  0  0  0  0  0  0  0  0  0  0
    7.0922    1.9067   -1.5033 Cl  0  0  0  0  0  0  0  0  0  0  0  0
    5.0948    0.2815   -0.7063 C   0  0  0  0  0  0  0  0  0  0  0  0
    3.9587   -0.5001   -0.9275 C   0  0  0  0  0  0  0  0  0  0  0  0
    3.2270   -1.2535    0.4462 Cl  0  0  0  0  0  0  0  0  0  0  0  0
    0.9310    1.5431   -2.6401 C   0  0  0  0  0  0  0  0  0  0  0  0
    1.4355    1.9525   -1.3913 C   0  0  0  0  0  0  0  0  0  0  0  0
    1.9514    3.2372   -1.2080 C   0  0  0  0  0  0  0  0  0  0  0  0
    1.9526    4.1395   -2.2664 C   0  0  0  0  0  0  0  0  0  0  0  0
    2.5792    5.7236   -2.0355 Cl  0  0  0  0  0  0  0  0  0  0  0  0
    1.4371    3.7718   -3.5039 C   0  0  0  0  0  0  0  0  0  0  0  0
    0.9271    2.4834   -3.6882 C   0  0  0  0  0  0  0  0  0  0  0  0
    0.2723    2.1048   -5.2416 Cl  0  0  0  0  0  0  0  0  0  0  0  0
   -1.3258   -0.4098   -0.1223 C   0  0  0  0  0  0  0  0  0  0  0  0
   -3.2658   -0.0280    4.3711 C   0  0  0  0  0  0  0  0  0  0  0  0
   -4.5214    0.0705    4.9776 C   0  0  0  0  0  0  0  0  0  0  0  0
   -6.4878   -0.3615    2.2377 H   0  0  0  0  0  0  0  0  0  0  0  0
   -4.2886   -0.5493    1.1550 H   0  0  0  0  0  0  0  0  0  0  0  0
   -1.0988    0.3342    2.9351 H   0  0  0  0  0  0  0  0  0  0  0  0
    0.8375   -1.0334    2.9328 H   0  0  0  0  0  0  0  0  0  0  0  0
    1.8501   -3.2703    2.9896 H   0  0  0  0  0  0  0  0  0  0  0  0
   -1.9236   -5.0414    1.9373 H   0  0  0  0  0  0  0  0  0  0  0  0
   -2.9710   -2.8281    1.8748 H   0  0  0  0  0  0  0  0  0  0  0  0
   -2.4401    2.1912    1.4344 H   0  0  0  0  0  0  0  0  0  0  0  0
   -2.1723    2.4402   -1.3949 H   0  0  0  0  0  0  0  0  0  0  0  0
   -1.5302   -0.9097   -2.7363 H   0  0  0  0  0  0  0  0  0  0  0  0
   -1.6905    0.7891   -3.2162 H   0  0  0  0  0  0  0  0  0  0  0  0
    0.5308   -0.2013   -3.8591 H   0  0  0  0  0  0  0  0  0  0  0  0
    2.2760   -2.4298   -2.0149 H   0  0  0  0  0  0  0  0  0  0  0  0
    2.0496   -1.6565   -3.5605 H   0  0  0  0  0  0  0  0  0  0  0  0
    3.6765   -0.0691   -4.3026 H   0  0  0  0  0  0  0  0  0  0  0  0
    5.6751    1.3063   -3.8988 H   0  0  0  0  0  0  0  0  0  0  0  0
    5.5036    0.3880    0.2947 H   0  0  0  0  0  0  0  0  0  0  0  0
    1.4488    1.2640   -0.5480 H   0  0  0  0  0  0  0  0  0  0  0  0
    2.3592    3.5262   -0.2423 H   0  0  0  0  0  0  0  0  0  0  0  0
    1.4337    4.4884   -4.3229 H   0  0  0  0  0  0  0  0  0  0  0  0
   -0.9205   -1.4123   -0.1978 H   0  0  0  0  0  0  0  0  0  0  0  0
   -2.3799    0.0544    5.0003 H   0  0  0  0  0  0  0  0  0  0  0  0
   -4.5940    0.2314    6.0509 H   0  0  0  0  0  0  0  0  0  0  0  0
  1  2  1  0
  2  3  2  0
  3  4  1  0
  4  5  2  0
  5  6  1  0
  6  7  1  0
  7  8  2  0
  8  9  1  0
  9 10  2  0
 10 11  1  0
 10 12  1  0
 12 13  2  0
  6 14  1  0
 14 15  1  0
 15 16  2  0
 16 17  1  0
 17 18  1  0
 18 19  1  0
 19 20  1  0
 20 21  1  0
 21 22  1  0
 22 23  2  0
 23 24  1  0
 24 25  2  0
 25 26  1  0
 25 27  1  0
 27 28  2  0
 28 29  1  0
 19 30  1  0
 30 31  2  0
 31 32  1  0
 32 33  2  0
 33 34  1  0
 33 35  1  0
 35 36  2  0
 36 37  1  0
 17 38  2  0
  5 39  1  0
 39 40  2  0
 40  2  1  0
 13  7  1  0
 38 14  1  0
 28 22  1  0
 36 30  1  0
  3 41  1  0
  4 42  1  0
  6 43  1  0
  8 44  1  0
  9 45  1  0
 12 46  1  0
 13 47  1  0
 15 48  1  0
 16 49  1  0
 18 50  1  0
 18 51  1  0
 19 52  1  0
 21 53  1  0
 21 54  1  0
 23 55  1  0
 24 56  1  0
 27 57  1  0
 31 58  1  0
 32 59  1  0
 35 60  1  0
 38 61  1  0
 39 62  1  0
 40 63  1  0
M  CHG  1  17   1
M  END
$$$$
