
     RDKit          3D

 30 31  0  0  0  0  0  0  0  0999 V2000
    0.2097    1.1657   -2.7098 C   0  0  0  0  0  0  0  0  0  0  0  0
    0.4799    0.5814   -1.4387 O   0  0  0  0  0  0  0  0  0  0  0  0
   -0.5716    0.0592   -0.7268 C   0  0  0  0  0  0  0  0  0  0  0  0
   -1.8994    0.0917   -1.1863 C   0  0  0  0  0  0  0  0  0  0  0  0
   -2.9473   -0.4440   -0.4261 C   0  0  0  0  0  0  0  0  0  0  0  0
   -4.6050   -0.3793   -1.0847 S   0  0  0  0  0  0  0  0  0  0  0  0
   -5.4923    0.3379    0.3253 C   0  0  0  0  0  0  0  0  0  0  0  0
   -2.6633   -1.0432    0.7978 C   0  0  0  0  0  0  0  0  0  0  0  0
   -1.3493   -1.0818    1.2685 C   0  0  0  0  0  0  0  0  0  0  0  0
   -0.2884   -0.5328    0.5229 C   0  0  0  0  0  0  0  0  0  0  0  0
    1.0838   -0.6361    1.1449 C   0  0  0  0  0  0  0  0  0  0  0  0
    1.1719   -1.1406    2.2605 O   0  0  0  0  0  0  0  0  0  0  0  0
    2.1281   -0.1508    0.3982 N   0  0  0  0  0  0  0  0  0  0  0  0
    3.4585   -0.1246    0.7222 C   0  0  0  0  0  0  0  0  0  0  0  0
    4.3447    0.3833   -0.1051 N   0  0  0  0  0  0  0  0  0  0  0  0
    5.6048    0.2886    0.4530 C   0  0  0  0  0  0  0  0  0  0  0  0
    5.6577   -0.2920    1.7009 C   0  0  0  0  0  0  0  0  0  0  0  0
    4.0765   -0.7332    2.1893 S   0  0  0  0  0  0  0  0  0  0  0  0
   -0.2034    0.4264   -3.4036 H   0  0  0  0  0  0  0  0  0  0  0  0
    1.1610    1.5142   -3.1234 H   0  0  0  0  0  0  0  0  0  0  0  0
   -0.4484    2.0350   -2.6116 H   0  0  0  0  0  0  0  0  0  0  0  0
   -2.1500    0.5372   -2.1447 H   0  0  0  0  0  0  0  0  0  0  0  0
   -5.0107    1.2636    0.6524 H   0  0  0  0  0  0  0  0  0  0  0  0
   -5.5359   -0.3670    1.1593 H   0  0  0  0  0  0  0  0  0  0  0  0
   -6.5162    0.5695    0.0196 H   0  0  0  0  0  0  0  0  0  0  0  0
   -3.4477   -1.4995    1.3959 H   0  0  0  0  0  0  0  0  0  0  0  0
   -1.1558   -1.5554    2.2307 H   0  0  0  0  0  0  0  0  0  0  0  0
    1.9313    0.2511   -0.5102 H   0  0  0  0  0  0  0  0  0  0  0  0
    6.4588    0.6622   -0.0985 H   0  0  0  0  0  0  0  0  0  0  0  0
    6.5181   -0.4727    2.3282 H   0  0  0  0  0  0  0  0  0  0  0  0
  1  2  1  0
  2  3  1  0
  3  4  2  0
  4  5  1  0
  5  6  1  0
  6  7  1  0
  5  8  2  0
  8  9  1  0
  9 10  2  0
 10 11  1  0
 11 12  2  0
 11 13  1  0
 13 14  1  0
 14 15  2  0
 15 16  1  0
 16 17  2  0
 17 18  1  0
 10  3  1  0
 18 14  1  0
  1 19  1  0
  1 20  1  0
  1 21  1  0
  4 22  1  0
  7 23  1  0
  7 24  1  0
  7 25  1  0
  8 26  1  0
  9 27  1  0
 13 28  1  0
 16 29  1  0
 17 30  1  0
M  END
$$$$
