
     RDKit          3D

 56 59  0  0  0  0  0  0  0  0999 V2000
    8.4637    0.3134   -0.1596 C   0  0  0  0  0  0  0  0  0  0  0  0
    7.5381    1.1440   -0.8459 O   0  0  0  0  0  0  0  0  0  0  0  0
    6.2451    0.7058   -0.9200 C   0  0  0  0  0  0  0  0  0  0  0  0
    5.3858    1.5510   -1.6231 C   0  0  0  0  0  0  0  0  0  0  0  0
    4.0377    1.2271   -1.7670 C   0  0  0  0  0  0  0  0  0  0  0  0
    3.5330    0.0503   -1.1994 C   0  0  0  0  0  0  0  0  0  0  0  0
    2.0779   -0.1867   -1.3764 C   0  0  0  0  0  0  0  0  0  0  0  0
    1.6439   -0.2318   -2.5269 O   0  0  0  0  0  0  0  0  0  0  0  0
    1.1890   -0.3390   -0.1416 C   0  0  0  0  0  0  0  0  0  0  0  0
    1.4669    0.7447    0.9062 C   0  0  0  0  0  0  0  0  0  0  0  0
    0.4641    0.6640    2.0521 C   0  0  0  0  0  0  0  0  0  0  0  0
   -0.9759    0.6770    1.5404 C   0  0  0  0  0  0  0  0  0  0  0  0
   -1.2000   -0.4223    0.5864 N   0  0  0  0  0  0  0  0  0  0  0  0
   -2.6016   -0.4428    0.1215 C   0  0  0  0  0  0  0  0  0  0  0  0
   -3.5478   -0.9596    1.1657 C   0  0  0  0  0  0  0  0  0  0  0  0
   -3.2738   -1.8645    2.1847 C   0  0  0  0  0  0  0  0  0  0  0  0
   -4.3842   -1.9177    3.0436 C   0  0  0  0  0  0  0  0  0  0  0  0
   -5.3297   -1.0726    2.5171 C   0  0  0  0  0  0  0  0  0  0  0  0
   -4.8823   -0.5685    1.3029 N   0  0  0  0  0  0  0  0  0  0  0  0
   -5.7274    0.2042    0.4362 C   0  0  0  0  0  0  0  0  0  0  0  0
   -5.4574    0.3288   -0.9227 C   0  0  0  0  0  0  0  0  0  0  0  0
   -6.3197    1.0873   -1.7169 C   0  0  0  0  0  0  0  0  0  0  0  0
   -7.4329    1.6876   -1.1449 C   0  0  0  0  0  0  0  0  0  0  0  0
   -7.6514    1.4913    0.2051 C   0  0  0  0  0  0  0  0  0  0  0  0
   -6.8365    0.7614    0.9969 N   0  0  0  0  0  0  0  0  0  0  0  0
   -0.2906   -0.2944   -0.5686 C   0  0  0  0  0  0  0  0  0  0  0  0
    4.3893   -0.8353   -0.5241 C   0  0  0  0  0  0  0  0  0  0  0  0
    3.9248   -2.1416    0.0523 C   0  0  0  0  0  0  0  0  0  0  0  0
    5.7454   -0.4794   -0.3751 C   0  0  0  0  0  0  0  0  0  0  0  0
    8.1942    0.2179    0.8975 H   0  0  0  0  0  0  0  0  0  0  0  0
    8.5474   -0.6671   -0.6370 H   0  0  0  0  0  0  0  0  0  0  0  0
    9.4460    0.7932   -0.2120 H   0  0  0  0  0  0  0  0  0  0  0  0
    5.7704    2.4681   -2.0628 H   0  0  0  0  0  0  0  0  0  0  0  0
    3.3816    1.8967   -2.3200 H   0  0  0  0  0  0  0  0  0  0  0  0
    1.3754   -1.3273    0.2927 H   0  0  0  0  0  0  0  0  0  0  0  0
    2.4797    0.6460    1.3134 H   0  0  0  0  0  0  0  0  0  0  0  0
    1.4119    1.7377    0.4413 H   0  0  0  0  0  0  0  0  0  0  0  0
    0.6422   -0.2524    2.6296 H   0  0  0  0  0  0  0  0  0  0  0  0
    0.6194    1.5071    2.7355 H   0  0  0  0  0  0  0  0  0  0  0  0
   -1.6379    0.5813    2.4081 H   0  0  0  0  0  0  0  0  0  0  0  0
   -1.1908    1.6485    1.0764 H   0  0  0  0  0  0  0  0  0  0  0  0
   -2.8795    0.5624   -0.2111 H   0  0  0  0  0  0  0  0  0  0  0  0
   -2.6867   -1.1207   -0.7375 H   0  0  0  0  0  0  0  0  0  0  0  0
   -2.3264   -2.3713    2.3227 H   0  0  0  0  0  0  0  0  0  0  0  0
   -4.4806   -2.4888    3.9578 H   0  0  0  0  0  0  0  0  0  0  0  0
   -6.3227   -0.8281    2.8694 H   0  0  0  0  0  0  0  0  0  0  0  0
   -4.6386   -0.1828   -1.4086 H   0  0  0  0  0  0  0  0  0  0  0  0
   -6.1289    1.1932   -2.7820 H   0  0  0  0  0  0  0  0  0  0  0  0
   -8.1203    2.2802   -1.7382 H   0  0  0  0  0  0  0  0  0  0  0  0
   -8.5138    1.9265    0.7030 H   0  0  0  0  0  0  0  0  0  0  0  0
   -0.4993    0.6324   -1.1207 H   0  0  0  0  0  0  0  0  0  0  0  0
   -0.4730   -1.1263   -1.2619 H   0  0  0  0  0  0  0  0  0  0  0  0
    3.4922   -1.9815    1.0450 H   0  0  0  0  0  0  0  0  0  0  0  0
    3.1882   -2.6205   -0.6006 H   0  0  0  0  0  0  0  0  0  0  0  0
    4.7565   -2.8473    0.1521 H   0  0  0  0  0  0  0  0  0  0  0  0
    6.3995   -1.1586    0.1645 H   0  0  0  0  0  0  0  0  0  0  0  0
  1  2  1  0
  2  3  1  0
  3  4  2  0
  4  5  1  0
  5  6  2  0
  6  7  1  0
  7  8  2  0
  7  9  1  0
  9 10  1  0
 10 11  1  0
 11 12  1  0
 12 13  1  0
 13 14  1  0
 14 15  1  0
 15 16  2  0
 16 17  1  0
 17 18  2  0
 18 19  1  0
 19 20  1  0
 20 21  2  0
 21 22  1  0
 22 23  2  0
 23 24  1  0
 24 25  2  0
 13 26  1  0
  6 27  1  0
 27 28  1  0
 27 29  2  0
 29  3  1  0
 26  9  1  0
 19 15  1  0
 25 20  1  0
  1 30  1  0
  1 31  1  0
  1 32  1  0
  4 33  1  0
  5 34  1  0
  9 35  1  0
 10 36  1  0
 10 37  1  0
 11 38  1  0
 11 39  1  0
 12 40  1  0
 12 41  1  0
 14 42  1  0
 14 43  1  0
 16 44  1  0
 17 45  1  0
 18 46  1  0
 21 47  1  0
 22 48  1  0
 23 49  1  0
 24 50  1  0
 26 51  1  0
 26 52  1  0
 28 53  1  0
 28 54  1  0
 28 55  1  0
 29 56  1  0
M  END
$$$$
