
     RDKit          3D

 55 59  0  0  0  0  0  0  0  0999 V2000
   -2.8815   -1.0955   -2.5215 C   0  0  0  0  0  0  0  0  0  0  0  0
   -2.8752   -0.0930   -1.4137 C   0  0  0  0  0  0  0  0  0  0  0  0
   -3.4164   -0.4218   -0.1696 C   0  0  0  0  0  0  0  0  0  0  0  0
   -3.4171    0.5110    0.8637 C   0  0  0  0  0  0  0  0  0  0  0  0
   -2.8724    1.7907    0.6746 C   0  0  0  0  0  0  0  0  0  0  0  0
   -2.7562    2.7518    1.8352 C   0  0  0  0  0  0  0  0  0  0  0  0
   -1.0519    2.8134    2.4879 S   0  0  0  0  0  0  0  0  0  0  0  0
   -0.8840    1.0997    2.8629 C   0  0  0  0  0  0  0  0  0  0  0  0
   -1.5823    0.6460    3.8660 N   0  0  0  0  0  0  0  0  0  0  0  0
   -1.5280   -0.7331    4.1755 C   0  0  0  0  0  0  0  0  0  0  0  0
   -2.3161   -1.2209    5.2195 C   0  0  0  0  0  0  0  0  0  0  0  0
   -2.3146   -2.5811    5.5299 C   0  0  0  0  0  0  0  0  0  0  0  0
   -1.5200   -3.4637    4.8018 C   0  0  0  0  0  0  0  0  0  0  0  0
   -0.7213   -2.9912    3.7585 C   0  0  0  0  0  0  0  0  0  0  0  0
   -0.7299   -1.6329    3.4456 C   0  0  0  0  0  0  0  0  0  0  0  0
    0.0590   -1.0778    2.3610 C   0  0  0  0  0  0  0  0  0  0  0  0
    0.9119   -1.6785    1.5597 N   0  0  0  0  0  0  0  0  0  0  0  0
    1.3619   -0.6941    0.7087 C   0  0  0  0  0  0  0  0  0  0  0  0
    2.3740   -1.0062   -0.3322 C   0  0  0  0  0  0  0  0  0  0  0  0
    1.9539   -0.5449   -1.7175 C   0  0  0  0  0  0  0  0  0  0  0  0
    0.8625   -0.7962   -2.2239 O   0  0  0  0  0  0  0  0  0  0  0  0
    2.9229    0.1732   -2.3861 N   0  0  0  0  0  0  0  0  0  0  0  0
    2.7227    0.6089   -3.7478 C   0  0  0  0  0  0  0  0  0  0  0  0
    3.8532    1.4919   -4.1208 C   0  0  0  0  0  0  0  0  0  0  0  0
    3.9964    2.8582   -4.2572 C   0  0  0  0  0  0  0  0  0  0  0  0
    5.3511    3.0867   -4.6070 C   0  0  0  0  0  0  0  0  0  0  0  0
    5.9458    1.8489   -4.6622 C   0  0  0  0  0  0  0  0  0  0  0  0
    5.0459    0.8745   -4.3684 O   0  0  0  0  0  0  0  0  0  0  0  0
    0.8025    0.5328    1.0319 C   0  0  0  0  0  0  0  0  0  0  0  0
    1.0177    1.7300    0.4879 O   0  0  0  0  0  0  0  0  0  0  0  0
   -0.0455    0.2719    2.0944 N   0  0  0  0  0  0  0  0  0  0  0  0
   -2.3588    2.1271   -0.5889 C   0  0  0  0  0  0  0  0  0  0  0  0
   -2.3616    1.1921   -1.6218 C   0  0  0  0  0  0  0  0  0  0  0  0
   -2.1553   -0.8287   -3.2976 H   0  0  0  0  0  0  0  0  0  0  0  0
   -2.6110   -2.0885   -2.1512 H   0  0  0  0  0  0  0  0  0  0  0  0
   -3.8783   -1.1497   -2.9717 H   0  0  0  0  0  0  0  0  0  0  0  0
   -3.8279   -1.4145    0.0049 H   0  0  0  0  0  0  0  0  0  0  0  0
   -3.8175    0.2197    1.8310 H   0  0  0  0  0  0  0  0  0  0  0  0
   -3.4448    2.4806    2.6396 H   0  0  0  0  0  0  0  0  0  0  0  0
   -3.0386    3.7575    1.5076 H   0  0  0  0  0  0  0  0  0  0  0  0
   -2.9400   -0.5383    5.7892 H   0  0  0  0  0  0  0  0  0  0  0  0
   -2.9430   -2.9557    6.3365 H   0  0  0  0  0  0  0  0  0  0  0  0
   -1.5287   -4.5222    5.0426 H   0  0  0  0  0  0  0  0  0  0  0  0
   -0.1094   -3.6805    3.1797 H   0  0  0  0  0  0  0  0  0  0  0  0
    2.5570   -2.0859   -0.3828 H   0  0  0  0  0  0  0  0  0  0  0  0
    3.3252   -0.5318   -0.0467 H   0  0  0  0  0  0  0  0  0  0  0  0
    3.8668    0.2116   -2.0139 H   0  0  0  0  0  0  0  0  0  0  0  0
    2.6889   -0.2730   -4.3938 H   0  0  0  0  0  0  0  0  0  0  0  0
    1.7670    1.1294   -3.8224 H   0  0  0  0  0  0  0  0  0  0  0  0
    3.2183    3.5986   -4.1141 H   0  0  0  0  0  0  0  0  0  0  0  0
    5.8396    4.0333   -4.7935 H   0  0  0  0  0  0  0  0  0  0  0  0
    6.9475    1.5071   -4.8838 H   0  0  0  0  0  0  0  0  0  0  0  0
    0.4063    2.3851    0.8720 H   0  0  0  0  0  0  0  0  0  0  0  0
   -1.9321    3.1129   -0.7695 H   0  0  0  0  0  0  0  0  0  0  0  0
   -1.9387    1.4639   -2.5881 H   0  0  0  0  0  0  0  0  0  0  0  0
  1  2  1  0
  2  3  2  0
  3  4  1  0
  4  5  2  0
  5  6  1  0
  6  7  1  0
  7  8  1  0
  8  9  2  0
  9 10  1  0
 10 11  2  0
 11 12  1  0
 12 13  2  0
 13 14  1  0
 14 15  2  0
 15 16  1  0
 16 17  2  0
 17 18  1  0
 18 19  1  0
 19 20  1  0
 20 21  2  0
 20 22  1  0
 22 23  1  0
 23 24  1  0
 24 25  2  0
 25 26  1  0
 26 27  2  0
 27 28  1  0
 18 29  2  0
 29 30  1  0
 29 31  1  0
  5 32  1  0
 32 33  2  0
 33  2  1  0
 31  8  1  0
 15 10  1  0
 31 16  1  0
 28 24  1  0
  1 34  1  0
  1 35  1  0
  1 36  1  0
  3 37  1  0
  4 38  1  0
  6 39  1  0
  6 40  1  0
 11 41  1  0
 12 42  1  0
 13 43  1  0
 14 44  1  0
 19 45  1  0
 19 46  1  0
 22 47  1  0
 23 48  1  0
 23 49  1  0
 25 50  1  0
 26 51  1  0
 27 52  1  0
 30 53  1  0
 32 54  1  0
 33 55  1  0
M  END
$$$$
