
     RDKit          3D

 40 43  0  0  0  0  0  0  0  0999 V2000
   -3.1603   -0.2631   -4.0430 O   0  0  0  0  0  0  0  0  0  0  0  0
   -3.8147   -0.0564   -3.0347 C   0  0  0  0  0  0  0  0  0  0  0  0
   -5.0720    0.5025   -2.9769 N   0  0  0  0  0  0  0  0  0  0  0  0
   -5.3818    0.5039   -1.7252 C   0  0  0  0  0  0  0  0  0  0  0  0
   -6.6301    0.9957   -1.1103 C   0  0  0  0  0  0  0  0  0  0  0  0
   -6.7630    0.9167    0.2245 C   0  0  0  0  0  0  0  0  0  0  0  0
   -5.7297    0.3687    1.0880 C   0  0  0  0  0  0  0  0  0  0  0  0
   -4.5718   -0.0970    0.5911 C   0  0  0  0  0  0  0  0  0  0  0  0
   -4.3616   -0.0487   -0.8263 C   0  0  0  0  0  0  0  0  0  0  0  0
   -3.3744   -0.3904   -1.6544 C   0  0  0  0  0  0  0  0  0  0  0  0
   -2.1431   -0.9774   -1.3000 C   0  0  0  0  0  0  0  0  0  0  0  0
   -0.6430   -0.2536   -1.7577 S   0  0  0  0  0  0  0  0  0  0  0  0
    0.1899   -1.4890   -0.9313 C   0  0  0  0  0  0  0  0  0  0  0  0
    1.6374   -1.6162   -0.9047 N   0  0  0  0  0  0  0  0  0  0  0  0
    2.3187   -0.6790    0.3406 S   0  0  0  0  0  6  0  0  0  0  0  0
    1.5602    0.5436    0.4976 O   0  0  0  0  0  0  0  0  0  0  0  0
    2.5235   -1.6018    1.4385 O   0  0  0  0  0  0  0  0  0  0  0  0
    3.9045   -0.2985   -0.4112 C   0  0  0  0  0  0  0  0  0  0  0  0
    4.7344    0.5104    0.5501 C   0  0  0  0  0  0  0  0  0  0  0  0
    5.5863   -0.1236    1.4661 C   0  0  0  0  0  0  0  0  0  0  0  0
    6.3518    0.6286    2.3583 C   0  0  0  0  0  0  0  0  0  0  0  0
    6.2727    2.0195    2.3463 C   0  0  0  0  0  0  0  0  0  0  0  0
    5.4256    2.6602    1.4448 C   0  0  0  0  0  0  0  0  0  0  0  0
    4.6590    1.9109    0.5514 C   0  0  0  0  0  0  0  0  0  0  0  0
   -0.5332   -2.4459   -0.4095 N   0  0  0  0  0  0  0  0  0  0  0  0
   -1.8537   -2.1329   -0.5934 C   0  0  0  0  0  0  0  0  0  0  0  0
   -2.8160   -2.9350   -0.1155 O   0  0  0  0  0  0  0  0  0  0  0  0
   -7.3929    1.4031   -1.7608 H   0  0  0  0  0  0  0  0  0  0  0  0
   -7.6718    1.2719    0.7033 H   0  0  0  0  0  0  0  0  0  0  0  0
   -5.9229    0.3474    2.1572 H   0  0  0  0  0  0  0  0  0  0  0  0
   -3.8036   -0.5040    1.2399 H   0  0  0  0  0  0  0  0  0  0  0  0
    1.8418   -2.5935   -0.6855 H   0  0  0  0  0  0  0  0  0  0  0  0
    4.4009   -1.2421   -0.6592 H   0  0  0  0  0  0  0  0  0  0  0  0
    3.7182    0.2590   -1.3346 H   0  0  0  0  0  0  0  0  0  0  0  0
    5.6544   -1.2094    1.5011 H   0  0  0  0  0  0  0  0  0  0  0  0
    7.0057    0.1286    3.0683 H   0  0  0  0  0  0  0  0  0  0  0  0
    6.8658    2.6041    3.0447 H   0  0  0  0  0  0  0  0  0  0  0  0
    5.3565    3.7451    1.4417 H   0  0  0  0  0  0  0  0  0  0  0  0
    3.9940    2.4309   -0.1361 H   0  0  0  0  0  0  0  0  0  0  0  0
   -2.3614   -3.6798    0.3168 H   0  0  0  0  0  0  0  0  0  0  0  0
  1  2  2  0
  2  3  1  0
  3  4  2  0
  4  5  1  0
  5  6  2  0
  6  7  1  0
  7  8  2  0
  8  9  1  0
  9 10  2  0
 10 11  1  0
 11 12  1  0
 12 13  1  0
 13 14  1  0
 14 15  1  0
 15 16  2  0
 15 17  2  0
 15 18  1  0
 18 19  1  0
 19 20  2  0
 20 21  1  0
 21 22  2  0
 22 23  1  0
 23 24  2  0
 13 25  2  0
 25 26  1  0
 26 27  1  0
 10  2  1  0
 26 11  2  0
  9  4  1  0
 24 19  1  0
  5 28  1  0
  6 29  1  0
  7 30  1  0
  8 31  1  0
 14 32  1  0
 18 33  1  0
 18 34  1  0
 20 35  1  0
 21 36  1  0
 22 37  1  0
 23 38  1  0
 24 39  1  0
 27 40  1  0
M  END
$$$$
