
     RDKit          3D

 40 41  0  0  0  0  0  0  0  0999 V2000
   -0.5693    2.4979   -2.9872 C   0  0  0  0  0  0  0  0  0  0  0  0
    0.0720    2.4632   -1.6060 C   0  0  0  0  0  0  0  0  0  0  0  0
   -0.5052    1.3690   -0.7322 C   0  0  0  0  0  0  0  0  0  0  0  0
   -1.5827    1.6353    0.1135 C   0  0  0  0  0  0  0  0  0  0  0  0
   -2.1987    3.0000    0.2406 C   0  0  0  0  0  0  0  0  0  0  0  0
   -2.1515    0.6914    0.8961 N   0  0  0  0  0  0  0  0  0  0  0  0
   -1.7134   -0.5826    0.8794 C   0  0  0  0  0  0  0  0  0  0  0  0
   -2.3394   -1.5472    1.6974 C   0  0  0  0  0  0  0  0  0  0  0  0
   -3.3785   -1.0815    2.4775 O   0  0  0  0  0  0  0  0  0  0  0  0
   -4.0584   -2.0091    3.3092 C   0  0  0  0  0  0  0  0  0  0  0  0
   -1.9167   -2.8813    1.7001 C   0  0  0  0  0  0  0  0  0  0  0  0
   -0.8670   -3.2750    0.8853 C   0  0  0  0  0  0  0  0  0  0  0  0
   -0.2389   -2.3349    0.0746 C   0  0  0  0  0  0  0  0  0  0  0  0
   -0.6388   -0.9720    0.0552 C   0  0  0  0  0  0  0  0  0  0  0  0
   -0.0270    0.0395   -0.7482 C   0  0  0  0  0  0  0  0  0  0  0  0
    1.3820   -0.3887   -1.8120 S   0  0  0  0  0  0  0  0  0  0  0  0
    2.7200   -0.1543   -0.5910 C   0  0  0  0  0  0  0  0  0  0  0  0
    4.0662   -0.4276   -1.2460 C   0  0  0  0  0  0  0  0  0  0  0  0
    5.1764   -0.2350   -0.2538 C   0  0  0  0  0  0  0  0  0  0  0  0
    5.0762    0.1010    0.9132 O   0  0  0  0  0  0  0  0  0  0  0  0
    6.3852   -0.4802   -0.7958 O   0  0  0  0  0  0  0  0  0  0  0  0
   -0.4152    1.5596   -3.5293 H   0  0  0  0  0  0  0  0  0  0  0  0
   -1.6485    2.6700   -2.9224 H   0  0  0  0  0  0  0  0  0  0  0  0
   -0.1342    3.3063   -3.5835 H   0  0  0  0  0  0  0  0  0  0  0  0
   -0.0535    3.4415   -1.1285 H   0  0  0  0  0  0  0  0  0  0  0  0
    1.1580    2.3588   -1.7000 H   0  0  0  0  0  0  0  0  0  0  0  0
   -2.5355    3.3678   -0.7328 H   0  0  0  0  0  0  0  0  0  0  0  0
   -1.4813    3.7034    0.6739 H   0  0  0  0  0  0  0  0  0  0  0  0
   -3.0731    2.9714    0.9001 H   0  0  0  0  0  0  0  0  0  0  0  0
   -4.8465   -1.4669    3.8405 H   0  0  0  0  0  0  0  0  0  0  0  0
   -4.5385   -2.7944    2.7161 H   0  0  0  0  0  0  0  0  0  0  0  0
   -3.3846   -2.4342    4.0602 H   0  0  0  0  0  0  0  0  0  0  0  0
   -2.3882   -3.6334    2.3227 H   0  0  0  0  0  0  0  0  0  0  0  0
   -0.5371   -4.3107    0.8771 H   0  0  0  0  0  0  0  0  0  0  0  0
    0.5747   -2.6860   -0.5560 H   0  0  0  0  0  0  0  0  0  0  0  0
    2.6825    0.8715   -0.2079 H   0  0  0  0  0  0  0  0  0  0  0  0
    2.5616   -0.8330    0.2542 H   0  0  0  0  0  0  0  0  0  0  0  0
    4.1136   -1.4602   -1.6105 H   0  0  0  0  0  0  0  0  0  0  0  0
    4.2355    0.2624   -2.0806 H   0  0  0  0  0  0  0  0  0  0  0  0
    7.0176   -0.3221   -0.0633 H   0  0  0  0  0  0  0  0  0  0  0  0
  1  2  1  0
  2  3  1  0
  3  4  2  0
  4  5  1  0
  4  6  1  0
  6  7  2  0
  7  8  1  0
  8  9  1  0
  9 10  1  0
  8 11  2  0
 11 12  1  0
 12 13  2  0
 13 14  1  0
 14 15  2  0
 15 16  1  0
 16 17  1  0
 17 18  1  0
 18 19  1  0
 19 20  2  0
 19 21  1  0
 15  3  1  0
 14  7  1  0
  1 22  1  0
  1 23  1  0
  1 24  1  0
  2 25  1  0
  2 26  1  0
  5 27  1  0
  5 28  1  0
  5 29  1  0
 10 30  1  0
 10 31  1  0
 10 32  1  0
 11 33  1  0
 12 34  1  0
 13 35  1  0
 17 36  1  0
 17 37  1  0
 18 38  1  0
 18 39  1  0
 21 40  1  0
M  END
$$$$
