
     RDKit          3D

 35 37  0  0  0  0  0  0  0  0999 V2000
   -0.6365    2.9512   -0.2139 C   0  0  0  0  0  0  0  0  0  0  0  0
   -0.9689    1.5027   -0.0677 C   0  0  0  0  0  0  0  0  0  0  0  0
   -2.0297    0.9510    0.7286 C   0  0  0  0  0  0  0  0  0  0  0  0
   -3.0042    1.6336    1.5622 C   0  0  0  0  0  0  0  0  0  0  0  0
   -2.9557    2.9191    1.7035 N   0  0  0  0  0  0  0  0  0  0  0  0
   -3.9938    3.3273    2.5517 O   0  0  0  0  0  0  0  0  0  0  0  0
   -1.9788   -0.4240    0.5603 C   0  0  0  0  0  0  0  0  0  0  0  0
   -2.7485   -1.5168    1.0700 C   0  0  0  0  0  0  0  0  0  0  0  0
   -2.4798   -2.7733    0.6694 C   0  0  0  0  0  0  0  0  0  0  0  0
   -1.4215   -3.0562   -0.2800 C   0  0  0  0  0  0  0  0  0  0  0  0
   -0.6841   -2.0379   -0.7500 C   0  0  0  0  0  0  0  0  0  0  0  0
   -0.9462   -0.7297   -0.3232 N   0  0  0  0  0  0  0  0  0  0  0  0
   -0.2926    0.4405   -0.6632 C   0  0  0  0  0  0  0  0  0  0  0  0
    0.8662    0.5117   -1.5315 C   0  0  0  0  0  0  0  0  0  0  0  0
    0.8428    1.0844   -2.6175 O   0  0  0  0  0  0  0  0  0  0  0  0
    2.1487   -0.1195   -1.0860 C   0  0  0  0  0  0  0  0  0  0  0  0
    2.3967   -0.4333    0.2600 C   0  0  0  0  0  0  0  0  0  0  0  0
    3.6087   -1.0230    0.6291 C   0  0  0  0  0  0  0  0  0  0  0  0
    4.5689   -1.2898   -0.3407 C   0  0  0  0  0  0  0  0  0  0  0  0
    5.7284   -1.8550    0.0181 F   0  0  0  0  0  0  0  0  0  0  0  0
    4.3446   -0.9747   -1.6756 C   0  0  0  0  0  0  0  0  0  0  0  0
    3.1350   -0.3857   -2.0497 C   0  0  0  0  0  0  0  0  0  0  0  0
    0.2222    3.1116   -0.8723 H   0  0  0  0  0  0  0  0  0  0  0  0
   -1.4853    3.4964   -0.6388 H   0  0  0  0  0  0  0  0  0  0  0  0
   -0.3873    3.3857    0.7595 H   0  0  0  0  0  0  0  0  0  0  0  0
   -3.7755    1.0289    2.0693 H   0  0  0  0  0  0  0  0  0  0  0  0
   -3.8762    4.2958    2.5728 H   0  0  0  0  0  0  0  0  0  0  0  0
   -3.5516   -1.3335    1.7767 H   0  0  0  0  0  0  0  0  0  0  0  0
   -3.0591   -3.6111    1.0460 H   0  0  0  0  0  0  0  0  0  0  0  0
   -1.2522   -4.0807   -0.5927 H   0  0  0  0  0  0  0  0  0  0  0  0
    0.1121   -2.1914   -1.4668 H   0  0  0  0  0  0  0  0  0  0  0  0
    1.6664   -0.2155    1.0357 H   0  0  0  0  0  0  0  0  0  0  0  0
    3.8120   -1.2700    1.6669 H   0  0  0  0  0  0  0  0  0  0  0  0
    5.1112   -1.1848   -2.4151 H   0  0  0  0  0  0  0  0  0  0  0  0
    2.9635   -0.1341   -3.0952 H   0  0  0  0  0  0  0  0  0  0  0  0
  1  2  1  0
  2  3  1  0
  3  4  1  0
  4  5  2  3
  5  6  1  0
  3  7  2  0
  7  8  1  0
  8  9  2  0
  9 10  1  0
 10 11  2  0
 11 12  1  0
 12 13  1  0
 13 14  1  0
 14 15  2  0
 14 16  1  0
 16 17  2  0
 17 18  1  0
 18 19  2  0
 19 20  1  0
 19 21  1  0
 21 22  2  0
 13  2  2  0
 22 16  1  0
 12  7  1  0
  1 23  1  0
  1 24  1  0
  1 25  1  0
  4 26  1  0
  6 27  1  0
  8 28  1  0
  9 29  1  0
 10 30  1  0
 11 31  1  0
 17 32  1  0
 18 33  1  0
 21 34  1  0
 22 35  1  0
M  END
$$$$
