
     RDKit          3D

 49 52  0  0  0  0  0  0  0  0999 V2000
   -3.5696    3.4170    1.7630 C   0  0  0  0  0  0  0  0  0  0  0  0
   -3.3541    1.9155    1.7653 C   0  0  0  0  0  0  0  0  0  0  0  0
   -2.4927    1.5394    0.6816 O   0  0  0  0  0  0  0  0  0  0  0  0
   -3.1028    1.2836   -0.5068 C   0  0  0  0  0  0  0  0  0  0  0  0
   -4.3020    1.4160   -0.7240 O   0  0  0  0  0  0  0  0  0  0  0  0
   -2.1095    0.8894   -1.5783 C   0  0  0  0  0  0  0  0  0  0  0  0
   -0.9540    0.0290   -1.1023 C   0  0  0  0  0  0  0  0  0  0  0  0
    0.2859    0.7033   -1.0330 C   0  0  0  0  0  0  0  0  0  0  0  0
    1.4134    0.0505   -0.5754 C   0  0  0  0  0  0  0  0  0  0  0  0
    2.7421    0.6884   -0.4735 C   0  0  0  0  0  0  0  0  0  0  0  0
    3.1641    1.6916   -1.3619 C   0  0  0  0  0  0  0  0  0  0  0  0
    4.4271    2.2845   -1.2408 C   0  0  0  0  0  0  0  0  0  0  0  0
    5.3077    1.8906   -0.2339 C   0  0  0  0  0  0  0  0  0  0  0  0
    6.5052    2.5498   -0.2286 O   0  0  0  0  0  0  0  0  0  0  0  0
    7.4430    2.1669    0.7696 C   0  0  0  0  0  0  0  0  0  0  0  0
    4.9150    0.8918    0.6522 C   0  0  0  0  0  0  0  0  0  0  0  0
    3.6501    0.2998    0.5288 C   0  0  0  0  0  0  0  0  0  0  0  0
    1.3403   -1.2293   -0.1705 N   0  0  0  0  0  0  0  0  0  0  0  0
    0.1752   -1.8878   -0.2306 C   0  0  0  0  0  0  0  0  0  0  0  0
    0.2540   -3.1853    0.2234 C   0  0  0  0  0  0  0  0  0  0  0  0
   -0.8458   -4.0282    0.2458 C   0  0  0  0  0  0  0  0  0  0  0  0
   -2.0788   -3.5858   -0.2117 C   0  0  0  0  0  0  0  0  0  0  0  0
   -3.1525   -4.4929   -0.1712 C   0  0  0  0  0  0  0  0  0  0  0  0
   -4.4143   -4.1343   -0.6221 C   0  0  0  0  0  0  0  0  0  0  0  0
   -4.6056   -2.8629   -1.1251 C   0  0  0  0  0  0  0  0  0  0  0  0
   -3.5368   -1.9563   -1.1672 C   0  0  0  0  0  0  0  0  0  0  0  0
   -2.2262   -2.2583   -0.7046 C   0  0  0  0  0  0  0  0  0  0  0  0
   -1.0555   -1.3540   -0.7010 C   0  0  0  0  0  0  0  0  0  0  0  0
   -4.0692    3.7408    0.8445 H   0  0  0  0  0  0  0  0  0  0  0  0
   -2.6102    3.9430    1.8059 H   0  0  0  0  0  0  0  0  0  0  0  0
   -4.1785    3.7229    2.6184 H   0  0  0  0  0  0  0  0  0  0  0  0
   -2.8524    1.6166    2.6914 H   0  0  0  0  0  0  0  0  0  0  0  0
   -4.3057    1.3731    1.7253 H   0  0  0  0  0  0  0  0  0  0  0  0
   -2.6103    0.3989   -2.4172 H   0  0  0  0  0  0  0  0  0  0  0  0
   -1.7380    1.8329   -2.0005 H   0  0  0  0  0  0  0  0  0  0  0  0
    0.3523    1.7514   -1.3114 H   0  0  0  0  0  0  0  0  0  0  0  0
    2.5246    2.0171   -2.1787 H   0  0  0  0  0  0  0  0  0  0  0  0
    4.7278    3.0567   -1.9449 H   0  0  0  0  0  0  0  0  0  0  0  0
    7.0534    2.3645    1.7737 H   0  0  0  0  0  0  0  0  0  0  0  0
    7.7335    1.1171    0.6568 H   0  0  0  0  0  0  0  0  0  0  0  0
    8.3415    2.7769    0.6354 H   0  0  0  0  0  0  0  0  0  0  0  0
    5.5617    0.5438    1.4503 H   0  0  0  0  0  0  0  0  0  0  0  0
    3.3686   -0.4812    1.2346 H   0  0  0  0  0  0  0  0  0  0  0  0
    1.2111   -3.5623    0.5799 H   0  0  0  0  0  0  0  0  0  0  0  0
   -0.7147   -5.0407    0.6219 H   0  0  0  0  0  0  0  0  0  0  0  0
   -3.0110   -5.5008    0.2156 H   0  0  0  0  0  0  0  0  0  0  0  0
   -5.2357   -4.8438   -0.5855 H   0  0  0  0  0  0  0  0  0  0  0  0
   -5.5841   -2.5610   -1.4915 H   0  0  0  0  0  0  0  0  0  0  0  0
   -3.7875   -0.9978   -1.5948 H   0  0  0  0  0  0  0  0  0  0  0  0
  1  2  1  0
  2  3  1  0
  3  4  1  0
  4  5  2  0
  4  6  1  0
  6  7  1  0
  7  8  2  0
  8  9  1  0
  9 10  1  0
 10 11  2  0
 11 12  1  0
 12 13  2  0
 13 14  1  0
 14 15  1  0
 13 16  1  0
 16 17  2  0
  9 18  2  0
 18 19  1  0
 19 20  2  0
 20 21  1  0
 21 22  2  0
 22 23  1  0
 23 24  2  0
 24 25  1  0
 25 26  2  0
 26 27  1  0
 27 28  2  0
 28  7  1  0
 17 10  1  0
 28 19  1  0
 27 22  1  0
  1 29  1  0
  1 30  1  0
  1 31  1  0
  2 32  1  0
  2 33  1  0
  6 34  1  0
  6 35  1  0
  8 36  1  0
 11 37  1  0
 12 38  1  0
 15 39  1  0
 15 40  1  0
 15 41  1  0
 16 42  1  0
 17 43  1  0
 20 44  1  0
 21 45  1  0
 23 46  1  0
 24 47  1  0
 25 48  1  0
 26 49  1  0
M  END
$$$$
