
     RDKit          3D

 38 40  0  0  0  0  0  0  0  0999 V2000
   -3.4563   -1.7124    1.6387 C   0  0  0  0  0  0  0  0  0  0  0  0
   -3.7689   -0.5996    0.6958 C   0  0  0  0  0  0  0  0  0  0  0  0
   -5.0262   -0.1461    0.3453 C   0  0  0  0  0  0  0  0  0  0  0  0
   -4.8704    0.8315   -0.6498 C   0  0  0  0  0  0  0  0  0  0  0  0
   -3.5176    0.9871   -0.8844 C   0  0  0  0  0  0  0  0  0  0  0  0
   -2.8819    1.9935   -1.7842 C   0  0  0  0  0  0  0  0  0  0  0  0
   -2.8253    0.0989   -0.0592 N   0  0  0  0  0  0  0  0  0  0  0  0
   -1.4148   -0.0615    0.0030 C   0  0  0  0  0  0  0  0  0  0  0  0
   -0.7497   -0.2056    1.2145 C   0  0  0  0  0  0  0  0  0  0  0  0
    0.6393   -0.3575    1.2156 C   0  0  0  0  0  0  0  0  0  0  0  0
    1.3526   -0.3564    0.0156 C   0  0  0  0  0  0  0  0  0  0  0  0
    2.7332   -0.5240    0.0067 N   0  0  0  0  0  0  0  0  0  0  0  0
    3.5425    0.2104    0.9952 C   0  0  0  0  0  0  0  0  0  0  0  0
    4.6634    1.0075    0.3056 C   0  0  0  0  0  0  0  0  0  0  0  0
    5.5398    0.1980   -0.4902 O   0  0  0  0  0  0  0  0  0  0  0  0
    4.8652   -0.8843   -1.1537 C   0  0  0  0  0  0  0  0  0  0  0  0
    3.3529   -0.6694   -1.3213 C   0  0  0  0  0  0  0  0  0  0  0  0
    0.6998   -0.2392   -1.1613 N   0  0  0  0  0  0  0  0  0  0  0  0
   -0.6488   -0.0922   -1.1497 C   0  0  0  0  0  0  0  0  0  0  0  0
   -3.1843   -1.3215    2.6234 H   0  0  0  0  0  0  0  0  0  0  0  0
   -4.3340   -2.3546    1.7739 H   0  0  0  0  0  0  0  0  0  0  0  0
   -2.6506   -2.3503    1.2634 H   0  0  0  0  0  0  0  0  0  0  0  0
   -5.9616   -0.5072    0.7546 H   0  0  0  0  0  0  0  0  0  0  0  0
   -5.6611    1.3902   -1.1353 H   0  0  0  0  0  0  0  0  0  0  0  0
   -3.5770    2.8162   -1.9866 H   0  0  0  0  0  0  0  0  0  0  0  0
   -1.9883    2.4356   -1.3336 H   0  0  0  0  0  0  0  0  0  0  0  0
   -2.6208    1.5434   -2.7463 H   0  0  0  0  0  0  0  0  0  0  0  0
   -1.2723   -0.1665    2.1643 H   0  0  0  0  0  0  0  0  0  0  0  0
    1.1532   -0.4920    2.1615 H   0  0  0  0  0  0  0  0  0  0  0  0
    2.9474    0.9096    1.5936 H   0  0  0  0  0  0  0  0  0  0  0  0
    3.9865   -0.5256    1.6755 H   0  0  0  0  0  0  0  0  0  0  0  0
    5.2780    1.5139    1.0568 H   0  0  0  0  0  0  0  0  0  0  0  0
    4.2395    1.7838   -0.3426 H   0  0  0  0  0  0  0  0  0  0  0  0
    5.0566   -1.7930   -0.5710 H   0  0  0  0  0  0  0  0  0  0  0  0
    5.3395   -1.0160   -2.1314 H   0  0  0  0  0  0  0  0  0  0  0  0
    3.1811    0.2324   -1.9230 H   0  0  0  0  0  0  0  0  0  0  0  0
    2.9295   -1.5326   -1.8486 H   0  0  0  0  0  0  0  0  0  0  0  0
   -1.0899   -0.0444   -2.1400 H   0  0  0  0  0  0  0  0  0  0  0  0
  1  2  1  0
  2  3  2  0
  3  4  1  0
  4  5  2  0
  5  6  1  0
  5  7  1  0
  7  8  1  0
  8  9  2  0
  9 10  1  0
 10 11  2  0
 11 12  1  0
 12 13  1  0
 13 14  1  0
 14 15  1  0
 15 16  1  0
 16 17  1  0
 11 18  1  0
 18 19  2  0
  7  2  1  0
 19  8  1  0
 17 12  1  0
  1 20  1  0
  1 21  1  0
  1 22  1  0
  3 23  1  0
  4 24  1  0
  6 25  1  0
  6 26  1  0
  6 27  1  0
  9 28  1  0
 10 29  1  0
 13 30  1  0
 13 31  1  0
 14 32  1  0
 14 33  1  0
 16 34  1  0
 16 35  1  0
 17 36  1  0
 17 37  1  0
 19 38  1  0
M  END
$$$$
