
     RDKit          3D

 38 39  0  0  0  0  0  0  0  0999 V2000
   -2.9521    3.4293   -1.8381 C   0  0  0  0  0  0  0  0  0  0  0  0
   -3.4593    2.8253   -0.6428 O   0  0  0  0  0  0  0  0  0  0  0  0
   -2.6631    1.7752   -0.2677 C   0  0  0  0  0  0  0  0  0  0  0  0
   -1.4276    2.0391    0.3355 C   0  0  0  0  0  0  0  0  0  0  0  0
   -0.5857    0.9877    0.7201 C   0  0  0  0  0  0  0  0  0  0  0  0
    0.6743    1.3029    1.4076 C   0  0  0  0  0  0  0  0  0  0  0  0
    1.8988    0.8149    1.1568 C   0  0  0  0  0  0  0  0  0  0  0  0
    2.2459   -0.1097    0.0426 C   0  0  0  0  0  0  0  0  0  0  0  0
    1.7426   -0.0021   -1.0688 O   0  0  0  0  0  0  0  0  0  0  0  0
    3.2870   -1.1431    0.3055 C   0  0  0  0  0  0  0  0  0  0  0  0
    3.9504   -1.7088   -0.7904 C   0  0  0  0  0  0  0  0  0  0  0  0
    4.9211   -2.6932   -0.5946 C   0  0  0  0  0  0  0  0  0  0  0  0
    5.2224   -3.1151    0.6946 C   0  0  0  0  0  0  0  0  0  0  0  0
    6.1707   -4.0834    0.8390 O   0  0  0  0  0  0  0  0  0  0  0  0
    4.5651   -2.5745    1.7954 C   0  0  0  0  0  0  0  0  0  0  0  0
    3.5949   -1.5860    1.6014 C   0  0  0  0  0  0  0  0  0  0  0  0
   -1.0122   -0.3323    0.5159 C   0  0  0  0  0  0  0  0  0  0  0  0
   -2.2563   -0.5934   -0.0669 C   0  0  0  0  0  0  0  0  0  0  0  0
   -3.1010    0.4573   -0.4305 C   0  0  0  0  0  0  0  0  0  0  0  0
   -4.3016    0.0835   -0.9749 O   0  0  0  0  0  0  0  0  0  0  0  0
   -5.4249    0.8069   -0.4587 C   0  0  0  0  0  0  0  0  0  0  0  0
   -6.6260   -0.0513   -0.4762 C   0  0  0  0  0  0  0  0  0  0  0  0
   -7.5946   -0.6944   -0.4626 N   0  0  0  0  0  0  0  0  0  0  0  0
   -2.9308    2.7079   -2.6610 H   0  0  0  0  0  0  0  0  0  0  0  0
   -3.6328    4.2389   -2.1160 H   0  0  0  0  0  0  0  0  0  0  0  0
   -1.9618    3.8682   -1.6791 H   0  0  0  0  0  0  0  0  0  0  0  0
   -1.1206    3.0708    0.4959 H   0  0  0  0  0  0  0  0  0  0  0  0
    0.5641    2.0098    2.2292 H   0  0  0  0  0  0  0  0  0  0  0  0
    2.7286    1.1250    1.7848 H   0  0  0  0  0  0  0  0  0  0  0  0
    3.7062   -1.3925   -1.8042 H   0  0  0  0  0  0  0  0  0  0  0  0
    5.4333   -3.1333   -1.4448 H   0  0  0  0  0  0  0  0  0  0  0  0
    6.3102   -4.2521    1.7861 H   0  0  0  0  0  0  0  0  0  0  0  0
    4.7813   -2.9164    2.8020 H   0  0  0  0  0  0  0  0  0  0  0  0
    3.0790   -1.1895    2.4723 H   0  0  0  0  0  0  0  0  0  0  0  0
   -0.3879   -1.1709    0.8137 H   0  0  0  0  0  0  0  0  0  0  0  0
   -2.5739   -1.6229   -0.2182 H   0  0  0  0  0  0  0  0  0  0  0  0
   -5.2535    1.1431    0.5729 H   0  0  0  0  0  0  0  0  0  0  0  0
   -5.6100    1.6793   -1.0984 H   0  0  0  0  0  0  0  0  0  0  0  0
  1  2  1  0
  2  3  1  0
  3  4  2  0
  4  5  1  0
  5  6  1  0
  6  7  2  3
  7  8  1  0
  8  9  2  0
  8 10  1  0
 10 11  2  0
 11 12  1  0
 12 13  2  0
 13 14  1  0
 13 15  1  0
 15 16  2  0
  5 17  2  0
 17 18  1  0
 18 19  2  0
 19 20  1  0
 20 21  1  0
 21 22  1  0
 22 23  3  0
 19  3  1  0
 16 10  1  0
  1 24  1  0
  1 25  1  0
  1 26  1  0
  4 27  1  0
  6 28  1  0
  7 29  1  0
 11 30  1  0
 12 31  1  0
 14 32  1  0
 15 33  1  0
 16 34  1  0
 17 35  1  0
 18 36  1  0
 21 37  1  0
 21 38  1  0
M  END
$$$$
