
     RDKit          3D

 40 41  0  0  0  0  0  0  0  0999 V2000
    1.3285    3.2260   -1.1426 O   0  0  0  0  0  0  0  0  0  0  0  0
    0.4007    3.6852   -0.4995 C   0  0  0  0  0  0  0  0  0  0  0  0
   -0.0101    4.9534   -0.6912 O   0  0  0  0  0  0  0  0  0  0  0  0
   -0.3930    2.9923    0.5732 C   0  0  0  0  0  0  0  0  0  0  0  0
    0.0200    1.5195    0.6818 C   0  0  0  0  0  0  0  0  0  0  0  0
   -0.5262    0.8367    1.8830 N   0  0  0  0  0  0  0  0  0  0  0  0
   -1.9854    0.6926    1.8855 C   0  0  0  0  0  0  0  0  0  0  0  0
   -2.4273    0.1345    3.1931 C   0  0  0  0  0  0  0  0  0  0  0  0
   -2.7524   -1.1351    3.6235 C   0  0  0  0  0  0  0  0  0  0  0  0
   -3.0924   -1.0175    4.9926 C   0  0  0  0  0  0  0  0  0  0  0  0
   -2.9495    0.3125    5.3106 C   0  0  0  0  0  0  0  0  0  0  0  0
   -2.5438    1.0212    4.2256 O   0  0  0  0  0  0  0  0  0  0  0  0
   -0.3543    0.7607   -0.6005 C   0  0  0  0  0  0  0  0  0  0  0  0
   -1.3294    1.0210   -1.2963 O   0  0  0  0  0  0  0  0  0  0  0  0
    0.5223   -0.2568   -0.8289 O   0  0  0  0  0  0  0  0  0  0  0  0
    0.2380   -1.0293   -2.0008 C   0  0  0  0  0  0  0  0  0  0  0  0
    1.3224   -2.0865   -2.1828 C   0  0  0  0  0  0  0  0  0  0  0  0
    2.7154   -1.5064   -2.3788 C   0  0  0  0  0  0  0  0  0  0  0  0
    3.4020   -2.6198   -3.1292 C   0  0  0  0  0  0  0  0  0  0  0  0
    2.2951   -3.1176   -4.0340 C   0  0  0  0  0  0  0  0  0  0  0  0
    1.0564   -2.8953   -3.3433 O   0  0  0  0  0  0  0  0  0  0  0  0
    0.5612    5.2929   -1.4123 H   0  0  0  0  0  0  0  0  0  0  0  0
   -1.4550    3.0939    0.3247 H   0  0  0  0  0  0  0  0  0  0  0  0
   -0.1955    3.5096    1.5191 H   0  0  0  0  0  0  0  0  0  0  0  0
    1.1140    1.4790    0.7685 H   0  0  0  0  0  0  0  0  0  0  0  0
   -0.2648    1.3613    2.7190 H   0  0  0  0  0  0  0  0  0  0  0  0
   -2.3080    0.0150    1.0877 H   0  0  0  0  0  0  0  0  0  0  0  0
   -2.4852    1.6555    1.7355 H   0  0  0  0  0  0  0  0  0  0  0  0
   -2.7392   -2.0323    3.0205 H   0  0  0  0  0  0  0  0  0  0  0  0
   -3.4000   -1.8047    5.6661 H   0  0  0  0  0  0  0  0  0  0  0  0
   -3.0887    0.8850    6.2169 H   0  0  0  0  0  0  0  0  0  0  0  0
    0.1948   -0.3791   -2.8839 H   0  0  0  0  0  0  0  0  0  0  0  0
   -0.7375   -1.5196   -1.8949 H   0  0  0  0  0  0  0  0  0  0  0  0
    1.3312   -2.7547   -1.3122 H   0  0  0  0  0  0  0  0  0  0  0  0
    2.6812   -0.6066   -3.0049 H   0  0  0  0  0  0  0  0  0  0  0  0
    3.2080   -1.2509   -1.4365 H   0  0  0  0  0  0  0  0  0  0  0  0
    3.6984   -3.4110   -2.4305 H   0  0  0  0  0  0  0  0  0  0  0  0
    4.2903   -2.2981   -3.6788 H   0  0  0  0  0  0  0  0  0  0  0  0
    2.3966   -4.1791   -4.2765 H   0  0  0  0  0  0  0  0  0  0  0  0
    2.2610   -2.5475   -4.9684 H   0  0  0  0  0  0  0  0  0  0  0  0
  1  2  2  0
  2  3  1  0
  2  4  1  0
  4  5  1  0
  5  6  1  0
  6  7  1  0
  7  8  1  0
  8  9  2  0
  9 10  1  0
 10 11  2  0
 11 12  1  0
  5 13  1  0
 13 14  2  0
 13 15  1  0
 15 16  1  0
 16 17  1  0
 17 18  1  0
 18 19  1  0
 19 20  1  0
 20 21  1  0
 12  8  1  0
 21 17  1  0
  3 22  1  0
  4 23  1  0
  4 24  1  0
  5 25  1  0
  6 26  1  0
  7 27  1  0
  7 28  1  0
  9 29  1  0
 10 30  1  0
 11 31  1  0
 16 32  1  0
 16 33  1  0
 17 34  1  0
 18 35  1  0
 18 36  1  0
 19 37  1  0
 19 38  1  0
 20 39  1  0
 20 40  1  0
M  END
$$$$
