
     RDKit          3D

 57 61  0  0  0  0  0  0  0  0999 V2000
   -8.1555   -1.2449    3.0466 C   0  0  0  0  0  0  0  0  0  0  0  0
   -7.0510   -0.8145    2.1272 C   0  0  0  0  0  0  0  0  0  0  0  0
   -7.3339   -0.3094    0.8565 C   0  0  0  0  0  0  0  0  0  0  0  0
   -6.2956    0.0635   -0.0046 C   0  0  0  0  0  0  0  0  0  0  0  0
   -4.9447   -0.0686    0.3656 C   0  0  0  0  0  0  0  0  0  0  0  0
   -3.8663    0.3282   -0.5652 C   0  0  0  0  0  0  0  0  0  0  0  0
   -2.6174   -0.2682   -0.5756 C   0  0  0  0  0  0  0  0  0  0  0  0
   -1.6698    0.1876   -1.4947 C   0  0  0  0  0  0  0  0  0  0  0  0
   -0.3369   -0.4543   -1.4654 C   0  0  0  0  0  0  0  0  0  0  0  0
    0.0211   -1.1054   -2.4359 O   0  0  0  0  0  0  0  0  0  0  0  0
    0.3562   -0.2161   -0.2947 N   0  0  0  0  0  0  0  0  0  0  0  0
    1.6101   -0.7409    0.0777 C   0  0  0  0  0  0  0  0  0  0  0  0
    2.1459   -0.3079    1.2996 C   0  0  0  0  0  0  0  0  0  0  0  0
    3.3735   -0.7962    1.7554 C   0  0  0  0  0  0  0  0  0  0  0  0
    4.0725   -1.7231    0.9831 C   0  0  0  0  0  0  0  0  0  0  0  0
    5.6067   -2.3974    1.5691 S   0  0  0  0  0  6  0  0  0  0  0  0
    5.5232   -3.8295    1.3624 O   0  0  0  0  0  0  0  0  0  0  0  0
    5.8861   -1.8732    2.8888 O   0  0  0  0  0  0  0  0  0  0  0  0
    6.7329   -1.8403    0.4854 N   0  0  0  0  0  0  0  0  0  0  0  0
    7.2145   -0.5532    0.6857 C   0  0  0  0  0  0  0  0  0  0  0  0
    6.3485    0.4433    0.8832 N   0  0  0  0  0  0  0  0  0  0  0  0
    6.8874    1.6754    0.9321 C   0  0  0  0  0  0  0  0  0  0  0  0
    8.2292    1.9256    0.7581 C   0  0  0  0  0  0  0  0  0  0  0  0
    9.0106    0.8209    0.5130 C   0  0  0  0  0  0  0  0  0  0  0  0
    8.5246   -0.4345    0.4486 N   0  0  0  0  0  0  0  0  0  0  0  0
    3.5490   -2.1692   -0.2315 C   0  0  0  0  0  0  0  0  0  0  0  0
    2.3213   -1.6720   -0.6838 C   0  0  0  0  0  0  0  0  0  0  0  0
   -1.9680    1.2145   -2.4101 C   0  0  0  0  0  0  0  0  0  0  0  0
   -1.0663    1.7290   -3.3754 C   0  0  0  0  0  0  0  0  0  0  0  0
   -1.4467    2.7590   -4.2330 C   0  0  0  0  0  0  0  0  0  0  0  0
   -2.7262    3.2874   -4.1394 C   0  0  0  0  0  0  0  0  0  0  0  0
   -3.6160    2.7804   -3.1894 C   0  0  0  0  0  0  0  0  0  0  0  0
   -3.2621    1.7546   -2.3227 C   0  0  0  0  0  0  0  0  0  0  0  0
   -4.1726    1.3276   -1.4298 N   0  0  0  0  0  0  0  0  0  0  0  0
   -4.6805   -0.5846    1.6472 C   0  0  0  0  0  0  0  0  0  0  0  0
   -5.7163   -0.9580    2.5127 C   0  0  0  0  0  0  0  0  0  0  0  0
   -9.1032   -0.7624    2.7823 H   0  0  0  0  0  0  0  0  0  0  0  0
   -8.2882   -2.3308    2.9897 H   0  0  0  0  0  0  0  0  0  0  0  0
   -7.9261   -0.9669    4.0805 H   0  0  0  0  0  0  0  0  0  0  0  0
   -8.3632   -0.1977    0.5222 H   0  0  0  0  0  0  0  0  0  0  0  0
   -6.5504    0.4596   -0.9871 H   0  0  0  0  0  0  0  0  0  0  0  0
   -2.3801   -1.0928    0.0884 H   0  0  0  0  0  0  0  0  0  0  0  0
   -0.0674    0.4266    0.3650 H   0  0  0  0  0  0  0  0  0  0  0  0
    1.6166    0.4138    1.9163 H   0  0  0  0  0  0  0  0  0  0  0  0
    3.7744   -0.4514    2.7061 H   0  0  0  0  0  0  0  0  0  0  0  0
    7.4673   -2.5102    0.2920 H   0  0  0  0  0  0  0  0  0  0  0  0
    6.1840    2.4846    1.1154 H   0  0  0  0  0  0  0  0  0  0  0  0
    8.6410    2.9254    0.8041 H   0  0  0  0  0  0  0  0  0  0  0  0
   10.0809    0.9151    0.3535 H   0  0  0  0  0  0  0  0  0  0  0  0
    4.0818   -2.9065   -0.8264 H   0  0  0  0  0  0  0  0  0  0  0  0
    1.9408   -2.0446   -1.6309 H   0  0  0  0  0  0  0  0  0  0  0  0
   -0.0613    1.3199   -3.4711 H   0  0  0  0  0  0  0  0  0  0  0  0
   -0.7477    3.1422   -4.9726 H   0  0  0  0  0  0  0  0  0  0  0  0
   -3.0386    4.0901   -4.8025 H   0  0  0  0  0  0  0  0  0  0  0  0
   -4.6176    3.2001   -3.1226 H   0  0  0  0  0  0  0  0  0  0  0  0
   -3.6597   -0.6925    2.0046 H   0  0  0  0  0  0  0  0  0  0  0  0
   -5.4709   -1.3576    3.4943 H   0  0  0  0  0  0  0  0  0  0  0  0
  1  2  1  0
  2  3  2  0
  3  4  1  0
  4  5  2  0
  5  6  1  0
  6  7  2  0
  7  8  1  0
  8  9  1  0
  9 10  2  0
  9 11  1  0
 11 12  1  0
 12 13  2  0
 13 14  1  0
 14 15  2  0
 15 16  1  0
 16 17  2  0
 16 18  2  0
 16 19  1  0
 19 20  1  0
 20 21  2  0
 21 22  1  0
 22 23  2  0
 23 24  1  0
 24 25  2  0
 15 26  1  0
 26 27  2  0
  8 28  2  0
 28 29  1  0
 29 30  2  0
 30 31  1  0
 31 32  2  0
 32 33  1  0
 33 34  2  0
  5 35  1  0
 35 36  2  0
 36  2  1  0
 34  6  1  0
 27 12  1  0
 33 28  1  0
 25 20  1  0
  1 37  1  0
  1 38  1  0
  1 39  1  0
  3 40  1  0
  4 41  1  0
  7 42  1  0
 11 43  1  0
 13 44  1  0
 14 45  1  0
 19 46  1  0
 22 47  1  0
 23 48  1  0
 24 49  1  0
 26 50  1  0
 27 51  1  0
 29 52  1  0
 30 53  1  0
 31 54  1  0
 32 55  1  0
 35 56  1  0
 36 57  1  0
M  END
$$$$
