
     RDKit          3D

 46 49  0  0  0  0  0  0  0  0999 V2000
    6.1114   -0.3243   -2.6466 N   0  0  0  0  0  0  0  0  0  0  0  0
    5.9347    0.2216   -1.0675 S   0  0  0  0  0  6  0  0  0  0  0  0
    6.5420   -0.7825   -0.2255 O   0  0  0  0  0  0  0  0  0  0  0  0
    6.3836    1.5945   -1.0861 O   0  0  0  0  0  0  0  0  0  0  0  0
    4.1824    0.1712   -0.8528 C   0  0  0  0  0  0  0  0  0  0  0  0
    3.4572    1.3519   -0.7295 C   0  0  0  0  0  0  0  0  0  0  0  0
    2.0715    1.2901   -0.5464 C   0  0  0  0  0  0  0  0  0  0  0  0
    1.3784    0.0657   -0.4832 C   0  0  0  0  0  0  0  0  0  0  0  0
   -0.0034    0.0411   -0.3027 N   0  0  0  0  0  0  0  0  0  0  0  0
   -0.7164    1.2024   -0.2063 N   0  0  0  0  0  0  0  0  0  0  0  0
   -1.9752    0.8857   -0.2429 C   0  0  0  0  0  0  0  0  0  0  0  0
   -3.0648    1.8838   -0.1311 C   0  0  0  0  0  0  0  0  0  0  0  0
   -4.4103    1.5185   -0.2573 C   0  0  0  0  0  0  0  0  0  0  0  0
   -5.4108    2.4880   -0.1469 C   0  0  0  0  0  0  0  0  0  0  0  0
   -5.0734    3.8205    0.0882 C   0  0  0  0  0  0  0  0  0  0  0  0
   -3.7350    4.1904    0.2092 C   0  0  0  0  0  0  0  0  0  0  0  0
   -2.7323    3.2253    0.0997 C   0  0  0  0  0  0  0  0  0  0  0  0
   -2.2561   -0.5772   -0.4475 C   0  0  0  0  0  0  0  0  0  0  0  0
   -0.8494   -1.1537   -0.2723 C   0  0  0  0  0  0  0  0  0  0  0  0
   -0.7468   -1.9434    1.0270 C   0  0  0  0  0  0  0  0  0  0  0  0
   -1.0024   -3.3269    1.0114 C   0  0  0  0  0  0  0  0  0  0  0  0
   -0.9457   -4.0731    2.1903 C   0  0  0  0  0  0  0  0  0  0  0  0
   -0.6377   -3.4421    3.3898 C   0  0  0  0  0  0  0  0  0  0  0  0
   -0.5840   -4.1617    4.5183 F   0  0  0  0  0  0  0  0  0  0  0  0
   -0.3863   -2.0784    3.4334 C   0  0  0  0  0  0  0  0  0  0  0  0
   -0.4474   -1.3290    2.2568 C   0  0  0  0  0  0  0  0  0  0  0  0
    2.1461   -1.1054   -0.6025 C   0  0  0  0  0  0  0  0  0  0  0  0
    3.5355   -1.0605   -0.7809 C   0  0  0  0  0  0  0  0  0  0  0  0
    6.6620   -1.1829   -2.6535 H   0  0  0  0  0  0  0  0  0  0  0  0
    6.5007    0.4211   -3.2250 H   0  0  0  0  0  0  0  0  0  0  0  0
    3.9485    2.3203   -0.7608 H   0  0  0  0  0  0  0  0  0  0  0  0
    1.5192    2.2232   -0.4494 H   0  0  0  0  0  0  0  0  0  0  0  0
   -4.7056    0.4917   -0.4454 H   0  0  0  0  0  0  0  0  0  0  0  0
   -6.4563    2.2042   -0.2411 H   0  0  0  0  0  0  0  0  0  0  0  0
   -5.8538    4.5728    0.1734 H   0  0  0  0  0  0  0  0  0  0  0  0
   -3.4692    5.2304    0.3874 H   0  0  0  0  0  0  0  0  0  0  0  0
   -1.6912    3.5279    0.1964 H   0  0  0  0  0  0  0  0  0  0  0  0
   -2.6129   -0.7226   -1.4725 H   0  0  0  0  0  0  0  0  0  0  0  0
   -2.9905   -0.9620    0.2642 H   0  0  0  0  0  0  0  0  0  0  0  0
   -0.6148   -1.8095   -1.1208 H   0  0  0  0  0  0  0  0  0  0  0  0
   -1.2488   -3.8336    0.0803 H   0  0  0  0  0  0  0  0  0  0  0  0
   -1.1414   -5.1404    2.1838 H   0  0  0  0  0  0  0  0  0  0  0  0
   -0.1438   -1.6035    4.3787 H   0  0  0  0  0  0  0  0  0  0  0  0
   -0.2465   -0.2591    2.3019 H   0  0  0  0  0  0  0  0  0  0  0  0
    1.6795   -2.0839   -0.5444 H   0  0  0  0  0  0  0  0  0  0  0  0
    4.0997   -1.9869   -0.8570 H   0  0  0  0  0  0  0  0  0  0  0  0
  1  2  1  0
  2  3  2  0
  2  4  2  0
  2  5  1  0
  5  6  2  0
  6  7  1  0
  7  8  2  0
  8  9  1  0
  9 10  1  0
 10 11  2  0
 11 12  1  0
 12 13  2  0
 13 14  1  0
 14 15  2  0
 15 16  1  0
 16 17  2  0
 11 18  1  0
 18 19  1  0
 19 20  1  0
 20 21  2  0
 21 22  1  0
 22 23  2  0
 23 24  1  0
 23 25  1  0
 25 26  2  0
  8 27  1  0
 27 28  2  0
 28  5  1  0
 19  9  1  0
 26 20  1  0
 17 12  1  0
  1 29  1  0
  1 30  1  0
  6 31  1  0
  7 32  1  0
 13 33  1  0
 14 34  1  0
 15 35  1  0
 16 36  1  0
 17 37  1  0
 18 38  1  0
 18 39  1  0
 19 40  1  0
 21 41  1  0
 22 42  1  0
 25 43  1  0
 26 44  1  0
 27 45  1  0
 28 46  1  0
M  END
$$$$
