
     RDKit          3D

 47 49  0  0  0  0  0  0  0  0999 V2000
    4.3951    2.6637   -3.3824 C   0  0  0  0  0  0  0  0  0  0  0  0
    3.0732    2.2829   -2.7735 C   0  0  0  0  0  0  0  0  0  0  0  0
    2.5238    3.0880   -1.7661 C   0  0  0  0  0  0  0  0  0  0  0  0
    1.2987    2.7657   -1.1795 C   0  0  0  0  0  0  0  0  0  0  0  0
    0.5864    1.6322   -1.5914 C   0  0  0  0  0  0  0  0  0  0  0  0
   -0.7331    1.2398   -0.9495 C   0  0  0  0  0  0  0  0  0  0  0  0
   -1.7436    2.3912   -0.9487 C   0  0  0  0  0  0  0  0  0  0  0  0
   -0.4816    0.7478    0.3950 N   0  0  0  0  0  0  0  0  0  0  0  0
   -1.3952   -0.0328    1.0673 C   0  0  0  0  0  0  0  0  0  0  0  0
   -2.4876   -0.3249    0.5957 O   0  0  0  0  0  0  0  0  0  0  0  0
   -0.9491   -0.5109    2.3596 C   0  0  0  0  0  0  0  0  0  0  0  0
   -1.2503   -1.7477    3.0160 C   0  0  0  0  0  0  0  0  0  0  0  0
   -2.0333   -2.8928    2.5476 C   0  0  0  0  0  0  0  0  0  0  0  0
   -1.9422   -3.3477    1.2252 C   0  0  0  0  0  0  0  0  0  0  0  0
   -2.6884   -4.4510    0.8004 C   0  0  0  0  0  0  0  0  0  0  0  0
   -3.5262   -5.1154    1.6939 C   0  0  0  0  0  0  0  0  0  0  0  0
   -3.6181   -4.6807    3.0140 C   0  0  0  0  0  0  0  0  0  0  0  0
   -2.8739   -3.5774    3.4392 C   0  0  0  0  0  0  0  0  0  0  0  0
   -0.6701   -1.7845    4.2284 N   0  0  0  0  0  0  0  0  0  0  0  0
   -0.0017   -0.5949    4.3816 O   0  0  0  0  0  0  0  0  0  0  0  0
   -0.1752    0.1730    3.2783 C   0  0  0  0  0  0  0  0  0  0  0  0
    0.4443    1.5122    3.3335 C   0  0  0  0  0  0  0  0  0  0  0  0
    1.1427    0.8209   -2.5928 C   0  0  0  0  0  0  0  0  0  0  0  0
    2.3756    1.1335   -3.1908 C   0  0  0  0  0  0  0  0  0  0  0  0
    2.9221    0.2322   -4.2648 C   0  0  0  0  0  0  0  0  0  0  0  0
    5.1350    1.8763   -3.2074 H   0  0  0  0  0  0  0  0  0  0  0  0
    4.7878    3.5881   -2.9456 H   0  0  0  0  0  0  0  0  0  0  0  0
    4.2847    2.8299   -4.4586 H   0  0  0  0  0  0  0  0  0  0  0  0
    3.0498    3.9788   -1.4285 H   0  0  0  0  0  0  0  0  0  0  0  0
    0.9092    3.4113   -0.3958 H   0  0  0  0  0  0  0  0  0  0  0  0
   -1.1787    0.4157   -1.5219 H   0  0  0  0  0  0  0  0  0  0  0  0
   -1.8804    2.7941   -1.9583 H   0  0  0  0  0  0  0  0  0  0  0  0
   -1.4294    3.2123   -0.2950 H   0  0  0  0  0  0  0  0  0  0  0  0
   -2.7217    2.0551   -0.5886 H   0  0  0  0  0  0  0  0  0  0  0  0
    0.4738    0.7673    0.7239 H   0  0  0  0  0  0  0  0  0  0  0  0
   -1.2905   -2.8557    0.5085 H   0  0  0  0  0  0  0  0  0  0  0  0
   -2.6149   -4.7901   -0.2296 H   0  0  0  0  0  0  0  0  0  0  0  0
   -4.1063   -5.9723    1.3617 H   0  0  0  0  0  0  0  0  0  0  0  0
   -4.2677   -5.1983    3.7148 H   0  0  0  0  0  0  0  0  0  0  0  0
   -2.9554   -3.2521    4.4746 H   0  0  0  0  0  0  0  0  0  0  0  0
    0.6247    1.8215    4.3681 H   0  0  0  0  0  0  0  0  0  0  0  0
    1.4039    1.5106    2.8079 H   0  0  0  0  0  0  0  0  0  0  0  0
   -0.2043    2.2629    2.8718 H   0  0  0  0  0  0  0  0  0  0  0  0
    0.6074   -0.0717   -2.9145 H   0  0  0  0  0  0  0  0  0  0  0  0
    2.2553   -0.6149   -4.4576 H   0  0  0  0  0  0  0  0  0  0  0  0
    3.0334    0.7839   -5.2036 H   0  0  0  0  0  0  0  0  0  0  0  0
    3.8919   -0.1753   -3.9623 H   0  0  0  0  0  0  0  0  0  0  0  0
  1  2  1  0
  2  3  2  0
  3  4  1  0
  4  5  2  0
  5  6  1  0
  6  7  1  0
  6  8  1  0
  8  9  1  0
  9 10  2  0
  9 11  1  0
 11 12  1  0
 12 13  1  0
 13 14  2  0
 14 15  1  0
 15 16  2  0
 16 17  1  0
 17 18  2  0
 12 19  2  0
 19 20  1  0
 20 21  1  0
 21 22  1  0
  5 23  1  0
 23 24  2  0
 24 25  1  0
 24  2  1  0
 21 11  2  0
 18 13  1  0
  1 26  1  0
  1 27  1  0
  1 28  1  0
  3 29  1  0
  4 30  1  0
  6 31  1  0
  7 32  1  0
  7 33  1  0
  7 34  1  0
  8 35  1  0
 14 36  1  0
 15 37  1  0
 16 38  1  0
 17 39  1  0
 18 40  1  0
 22 41  1  0
 22 42  1  0
 22 43  1  0
 23 44  1  0
 25 45  1  0
 25 46  1  0
 25 47  1  0
M  END
$$$$
