
     RDKit          3D

 35 36  0  0  0  0  0  0  0  0999 V2000
    1.7396   -1.8561   -1.5776 C   0  0  0  0  0  0  0  0  0  0  0  0
    1.2796   -0.6223   -1.0377 O   0  0  0  0  0  0  0  0  0  0  0  0
    2.0293   -0.0720   -0.0217 C   0  0  0  0  0  0  0  0  0  0  0  0
    3.2866   -0.5292    0.3821 C   0  0  0  0  0  0  0  0  0  0  0  0
    3.9578    0.1051    1.4294 C   0  0  0  0  0  0  0  0  0  0  0  0
    3.3786    1.1966    2.0732 C   0  0  0  0  0  0  0  0  0  0  0  0
    2.1249    1.6640    1.6739 C   0  0  0  0  0  0  0  0  0  0  0  0
    1.4442    1.0364    0.6298 C   0  0  0  0  0  0  0  0  0  0  0  0
    0.1725    1.4398    0.1722 N   0  0  0  0  0  0  0  0  0  0  0  0
   -0.6883    2.3666    0.7252 C   0  0  0  0  0  0  0  0  0  0  0  0
   -0.4818    3.0469    1.7268 O   0  0  0  0  0  0  0  0  0  0  0  0
   -2.0329    2.4428   -0.0170 C   0  0  0  0  0  0  0  0  0  0  0  0
   -2.9530    1.3742    0.4286 N   0  0  0  0  0  0  0  0  0  0  0  0
   -2.7060    0.1013   -0.1076 C   0  0  0  0  0  0  0  0  0  0  0  0
   -2.7993   -0.1270   -1.4877 C   0  0  0  0  0  0  0  0  0  0  0  0
   -2.4923   -1.3767   -2.0286 C   0  0  0  0  0  0  0  0  0  0  0  0
   -2.0868   -2.4064   -1.1884 C   0  0  0  0  0  0  0  0  0  0  0  0
   -1.7752   -3.5936   -1.7287 F   0  0  0  0  0  0  0  0  0  0  0  0
   -1.9965   -2.2018    0.1857 C   0  0  0  0  0  0  0  0  0  0  0  0
   -1.4752   -3.4704    1.2269 Cl  0  0  0  0  0  0  0  0  0  0  0  0
   -2.3124   -0.9536    0.7272 C   0  0  0  0  0  0  0  0  0  0  0  0
    2.6886   -1.7227   -2.1065 H   0  0  0  0  0  0  0  0  0  0  0  0
    0.9994   -2.1968   -2.3080 H   0  0  0  0  0  0  0  0  0  0  0  0
    1.8210   -2.6244   -0.8018 H   0  0  0  0  0  0  0  0  0  0  0  0
    3.7736   -1.3713   -0.0971 H   0  0  0  0  0  0  0  0  0  0  0  0
    4.9354   -0.2524    1.7437 H   0  0  0  0  0  0  0  0  0  0  0  0
    3.9031    1.6902    2.8877 H   0  0  0  0  0  0  0  0  0  0  0  0
    1.7081    2.5213    2.1928 H   0  0  0  0  0  0  0  0  0  0  0  0
   -0.1777    0.8693   -0.5926 H   0  0  0  0  0  0  0  0  0  0  0  0
   -2.4872    3.4116    0.2202 H   0  0  0  0  0  0  0  0  0  0  0  0
   -1.8676    2.4340   -1.1007 H   0  0  0  0  0  0  0  0  0  0  0  0
   -2.9875    1.3584    1.4495 H   0  0  0  0  0  0  0  0  0  0  0  0
   -3.1309    0.6695   -2.1500 H   0  0  0  0  0  0  0  0  0  0  0  0
   -2.5676   -1.5516   -3.0972 H   0  0  0  0  0  0  0  0  0  0  0  0
   -2.2241   -0.7997    1.7993 H   0  0  0  0  0  0  0  0  0  0  0  0
  1  2  1  0
  2  3  1  0
  3  4  2  0
  4  5  1  0
  5  6  2  0
  6  7  1  0
  7  8  2  0
  8  9  1  0
  9 10  1  0
 10 11  2  0
 10 12  1  0
 12 13  1  0
 13 14  1  0
 14 15  2  0
 15 16  1  0
 16 17  2  0
 17 18  1  0
 17 19  1  0
 19 20  1  0
 19 21  2  0
  8  3  1  0
 21 14  1  0
  1 22  1  0
  1 23  1  0
  1 24  1  0
  4 25  1  0
  5 26  1  0
  6 27  1  0
  7 28  1  0
  9 29  1  0
 12 30  1  0
 12 31  1  0
 13 32  1  0
 15 33  1  0
 16 34  1  0
 21 35  1  0
M  END
$$$$
