
     RDKit          3D

 48 51  0  0  0  0  0  0  0  0999 V2000
    2.1568    1.0690   -2.4461 C   0  0  0  0  0  0  0  0  0  0  0  0
    2.8784    1.5807   -1.2018 C   0  0  0  0  0  0  0  0  0  0  0  0
    1.9565    2.4759   -0.3757 C   0  0  0  0  0  0  0  0  0  0  0  0
    3.4486    0.4296   -0.3633 C   0  0  0  0  0  0  0  0  0  0  0  0
    2.4173   -0.3537    0.2605 O   0  0  0  0  0  0  0  0  0  0  0  0
    2.3070   -1.6437   -0.1468 C   0  0  0  0  0  0  0  0  0  0  0  0
    2.9071   -2.1768   -1.0651 O   0  0  0  0  0  0  0  0  0  0  0  0
    1.5065   -2.3858    0.8580 C   0  0  0  0  0  0  0  0  0  0  0  0
    2.1222   -3.5281    1.3962 C   0  0  0  0  0  0  0  0  0  0  0  0
    1.5425   -4.2095    2.4675 C   0  0  0  0  0  0  0  0  0  0  0  0
    0.3448   -3.7553    3.0144 C   0  0  0  0  0  0  0  0  0  0  0  0
   -0.2880   -2.6325    2.4790 C   0  0  0  0  0  0  0  0  0  0  0  0
    0.2818   -1.9504    1.3887 C   0  0  0  0  0  0  0  0  0  0  0  0
   -0.4616   -0.8880    0.8052 N   0  0  0  0  0  0  0  0  0  0  0  0
   -1.1376    0.1323    1.5087 C   0  0  0  0  0  0  0  0  0  0  0  0
   -1.0351    0.3469    2.8188 O   0  0  0  0  0  0  0  0  0  0  0  0
   -1.8357    0.8411    0.5777 C   0  0  0  0  0  0  0  0  0  0  0  0
   -1.5860    0.3025   -0.6973 C   0  0  0  0  0  0  0  0  0  0  0  0
   -0.7558   -0.7706   -0.5653 C   0  0  0  0  0  0  0  0  0  0  0  0
   -0.3078   -1.6373   -1.4664 O   0  0  0  0  0  0  0  0  0  0  0  0
   -2.3618    1.1202   -1.6811 C   0  0  0  0  0  0  0  0  0  0  0  0
   -3.8699    0.8444   -1.4481 C   0  0  0  0  0  0  0  0  0  0  0  0
   -4.1408    1.4514   -0.0321 C   0  0  0  0  0  0  0  0  0  0  0  0
   -2.7574    2.0052    0.3987 C   0  0  0  0  0  0  0  0  0  0  0  0
   -2.2567    2.5206   -0.9913 C   0  0  0  0  0  0  0  0  0  0  0  0
    1.8172    1.9045   -3.0663 H   0  0  0  0  0  0  0  0  0  0  0  0
    2.8268    0.4511   -3.0533 H   0  0  0  0  0  0  0  0  0  0  0  0
    1.2820    0.4691   -2.1895 H   0  0  0  0  0  0  0  0  0  0  0  0
    3.7247    2.1918   -1.5410 H   0  0  0  0  0  0  0  0  0  0  0  0
    1.6035    3.3248   -0.9712 H   0  0  0  0  0  0  0  0  0  0  0  0
    1.0800    1.9318   -0.0157 H   0  0  0  0  0  0  0  0  0  0  0  0
    2.4863    2.8763    0.4949 H   0  0  0  0  0  0  0  0  0  0  0  0
    4.0497    0.8475    0.4537 H   0  0  0  0  0  0  0  0  0  0  0  0
    4.1317   -0.1808   -0.9656 H   0  0  0  0  0  0  0  0  0  0  0  0
    3.0724   -3.8749    0.9929 H   0  0  0  0  0  0  0  0  0  0  0  0
    2.0296   -5.0902    2.8778 H   0  0  0  0  0  0  0  0  0  0  0  0
   -0.1113   -4.2922    3.8435 H   0  0  0  0  0  0  0  0  0  0  0  0
   -1.2560   -2.3384    2.8826 H   0  0  0  0  0  0  0  0  0  0  0  0
   -0.2591   -0.1345    3.1559 H   0  0  0  0  0  0  0  0  0  0  0  0
   -0.6338   -1.3473   -2.3370 H   0  0  0  0  0  0  0  0  0  0  0  0
   -2.0202    1.0740   -2.7153 H   0  0  0  0  0  0  0  0  0  0  0  0
   -4.1104   -0.2237   -1.4754 H   0  0  0  0  0  0  0  0  0  0  0  0
   -4.4821    1.3589   -2.1968 H   0  0  0  0  0  0  0  0  0  0  0  0
   -4.8783    2.2577   -0.1090 H   0  0  0  0  0  0  0  0  0  0  0  0
   -4.5239    0.6934    0.6593 H   0  0  0  0  0  0  0  0  0  0  0  0
   -2.7654    2.7404    1.2027 H   0  0  0  0  0  0  0  0  0  0  0  0
   -1.2267    2.8960   -0.9555 H   0  0  0  0  0  0  0  0  0  0  0  0
   -2.9116    3.2767   -1.4382 H   0  0  0  0  0  0  0  0  0  0  0  0
  1  2  1  0
  2  3  1  0
  2  4  1  0
  4  5  1  0
  5  6  1  0
  6  7  2  0
  6  8  1  0
  8  9  2  0
  9 10  1  0
 10 11  2  0
 11 12  1  0
 12 13  2  0
 13 14  1  0
 14 15  1  0
 15 16  1  0
 15 17  2  0
 17 18  1  0
 18 19  2  0
 19 20  1  0
 18 21  1  0
 21 22  1  0
 22 23  1  0
 23 24  1  0
 24 25  1  0
 13  8  1  0
 19 14  1  0
 25 21  1  0
 24 17  1  0
  1 26  1  0
  1 27  1  0
  1 28  1  0
  2 29  1  0
  3 30  1  0
  3 31  1  0
  3 32  1  0
  4 33  1  0
  4 34  1  0
  9 35  1  0
 10 36  1  0
 11 37  1  0
 12 38  1  0
 16 39  1  0
 20 40  1  0
 21 41  1  0
 22 42  1  0
 22 43  1  0
 23 44  1  0
 23 45  1  0
 24 46  1  0
 25 47  1  0
 25 48  1  0
M  END
$$$$
