
     RDKit          3D

 65 68  0  0  0  0  0  0  0  0999 V2000
   -9.1171   -2.6806    1.0400 C   0  0  0  0  0  0  0  0  0  0  0  0
   -8.4038   -1.3693    0.8859 C   0  0  0  0  0  0  0  0  0  0  0  0
   -7.3283   -1.2497   -0.0009 C   0  0  0  0  0  0  0  0  0  0  0  0
   -6.6845   -0.0214   -0.1706 C   0  0  0  0  0  0  0  0  0  0  0  0
   -7.1144    1.1115    0.5325 C   0  0  0  0  0  0  0  0  0  0  0  0
   -6.4031    2.4331    0.3550 C   0  0  0  0  0  0  0  0  0  0  0  0
   -5.4962    2.7886    1.5381 C   0  0  0  0  0  0  0  0  0  0  0  0
   -4.4509    1.8092    1.7707 N   0  0  0  0  0  0  0  0  0  0  0  0
   -3.3344    1.7358    0.9668 C   0  0  0  0  0  0  0  0  0  0  0  0
   -3.0930    2.5360    0.0711 O   0  0  0  0  0  0  0  0  0  0  0  0
   -2.4436    0.5588    1.3132 C   0  0  0  0  0  0  0  0  0  0  0  0
   -1.1877    0.4571    0.4526 C   0  0  0  0  0  0  0  0  0  0  0  0
   -0.1787    1.5724    0.7377 C   0  0  0  0  0  0  0  0  0  0  0  0
    1.1192    1.2722    0.1403 N   0  0  0  0  0  0  0  0  0  0  0  0
    1.2701    1.6456   -1.1996 N   0  0  0  0  0  0  0  0  0  0  0  0
    2.3633    1.3753   -1.8561 C   0  0  0  0  0  0  0  0  0  0  0  0
    2.4586    1.8062   -3.2924 C   0  0  0  0  0  0  0  0  0  0  0  0
    3.4355    0.6787   -1.1890 C   0  0  0  0  0  0  0  0  0  0  0  0
    4.7178    0.3046   -1.5543 C   0  0  0  0  0  0  0  0  0  0  0  0
    5.4971    0.6393   -2.7742 C   0  0  0  0  0  0  0  0  0  0  0  0
    5.2085   -0.4382   -0.4734 N   0  0  0  0  0  0  0  0  0  0  0  0
    6.3835   -1.2431   -0.3581 C   0  0  0  0  0  0  0  0  0  0  0  0
    6.8541   -1.5775    0.9231 C   0  0  0  0  0  0  0  0  0  0  0  0
    7.9974   -2.3669    1.0806 C   0  0  0  0  0  0  0  0  0  0  0  0
    8.6879   -2.8430   -0.0372 C   0  0  0  0  0  0  0  0  0  0  0  0
    9.8910   -3.7220    0.1304 C   0  0  0  0  0  0  0  0  0  0  0  0
    8.1953   -2.5474   -1.3136 C   0  0  0  0  0  0  0  0  0  0  0  0
    7.0522   -1.7546   -1.4757 C   0  0  0  0  0  0  0  0  0  0  0  0
    4.3813   -0.3368    0.6026 N   0  0  0  0  0  0  0  0  0  0  0  0
    3.2881    0.2753    0.1425 C   0  0  0  0  0  0  0  0  0  0  0  0
    2.0682    0.5466    0.8925 C   0  0  0  0  0  0  0  0  0  0  0  0
    1.8823    0.1769    2.0508 O   0  0  0  0  0  0  0  0  0  0  0  0
   -8.2008    0.9948    1.4079 C   0  0  0  0  0  0  0  0  0  0  0  0
   -8.8423   -0.2350    1.5794 C   0  0  0  0  0  0  0  0  0  0  0  0
   -9.5576   -2.7720    2.0383 H   0  0  0  0  0  0  0  0  0  0  0  0
   -8.4229   -3.5175    0.9127 H   0  0  0  0  0  0  0  0  0  0  0  0
   -9.9128   -2.7639    0.2931 H   0  0  0  0  0  0  0  0  0  0  0  0
   -6.9841   -2.1124   -0.5675 H   0  0  0  0  0  0  0  0  0  0  0  0
   -5.8453    0.0477   -0.8606 H   0  0  0  0  0  0  0  0  0  0  0  0
   -7.1541    3.2221    0.2227 H   0  0  0  0  0  0  0  0  0  0  0  0
   -5.8185    2.4149   -0.5733 H   0  0  0  0  0  0  0  0  0  0  0  0
   -5.0259    3.7616    1.3546 H   0  0  0  0  0  0  0  0  0  0  0  0
   -6.0724    2.8622    2.4664 H   0  0  0  0  0  0  0  0  0  0  0  0
   -4.6886    1.0034    2.3332 H   0  0  0  0  0  0  0  0  0  0  0  0
   -3.0367   -0.3525    1.1708 H   0  0  0  0  0  0  0  0  0  0  0  0
   -2.1717    0.6199    2.3738 H   0  0  0  0  0  0  0  0  0  0  0  0
   -0.7200   -0.5151    0.6515 H   0  0  0  0  0  0  0  0  0  0  0  0
   -1.4507    0.4624   -0.6122 H   0  0  0  0  0  0  0  0  0  0  0  0
   -0.0469    1.6937    1.8195 H   0  0  0  0  0  0  0  0  0  0  0  0
   -0.5216    2.5354    0.3419 H   0  0  0  0  0  0  0  0  0  0  0  0
    2.8385    0.9891   -3.9113 H   0  0  0  0  0  0  0  0  0  0  0  0
    3.1256    2.6690   -3.3690 H   0  0  0  0  0  0  0  0  0  0  0  0
    1.4722    2.0952   -3.6675 H   0  0  0  0  0  0  0  0  0  0  0  0
    6.5702    0.7030   -2.5718 H   0  0  0  0  0  0  0  0  0  0  0  0
    5.2144    1.6223   -3.1600 H   0  0  0  0  0  0  0  0  0  0  0  0
    5.3160   -0.0935   -3.5649 H   0  0  0  0  0  0  0  0  0  0  0  0
    6.3433   -1.2203    1.8168 H   0  0  0  0  0  0  0  0  0  0  0  0
    8.3388   -2.6080    2.0856 H   0  0  0  0  0  0  0  0  0  0  0  0
   10.4152   -3.4928    1.0642 H   0  0  0  0  0  0  0  0  0  0  0  0
   10.6022   -3.5678   -0.6880 H   0  0  0  0  0  0  0  0  0  0  0  0
    9.5890   -4.7744    0.1461 H   0  0  0  0  0  0  0  0  0  0  0  0
    8.6917   -2.9482   -2.1961 H   0  0  0  0  0  0  0  0  0  0  0  0
    6.6879   -1.6080   -2.4868 H   0  0  0  0  0  0  0  0  0  0  0  0
   -8.5602    1.8605    1.9592 H   0  0  0  0  0  0  0  0  0  0  0  0
   -9.6877   -0.3004    2.2599 H   0  0  0  0  0  0  0  0  0  0  0  0
  1  2  1  0
  2  3  2  0
  3  4  1  0
  4  5  2  0
  5  6  1  0
  6  7  1  0
  7  8  1  0
  8  9  1  0
  9 10  2  0
  9 11  1  0
 11 12  1  0
 12 13  1  0
 13 14  1  0
 14 15  1  0
 15 16  2  0
 16 17  1  0
 16 18  1  0
 18 19  2  0
 19 20  1  0
 19 21  1  0
 21 22  1  0
 22 23  2  0
 23 24  1  0
 24 25  2  0
 25 26  1  0
 25 27  1  0
 27 28  2  0
 21 29  1  0
 29 30  2  0
 30 31  1  0
 31 32  2  0
  5 33  1  0
 33 34  2  0
 34  2  1  0
 31 14  1  0
 30 18  1  0
 28 22  1  0
  1 35  1  0
  1 36  1  0
  1 37  1  0
  3 38  1  0
  4 39  1  0
  6 40  1  0
  6 41  1  0
  7 42  1  0
  7 43  1  0
  8 44  1  0
 11 45  1  0
 11 46  1  0
 12 47  1  0
 12 48  1  0
 13 49  1  0
 13 50  1  0
 17 51  1  0
 17 52  1  0
 17 53  1  0
 20 54  1  0
 20 55  1  0
 20 56  1  0
 23 57  1  0
 24 58  1  0
 26 59  1  0
 26 60  1  0
 26 61  1  0
 27 62  1  0
 28 63  1  0
 33 64  1  0
 34 65  1  0
M  END
$$$$
