
     RDKit          3D

 50 51  0  0  0  0  0  0  0  0999 V2000
    6.7464    0.9296   -1.2706 C   0  0  0  0  0  0  0  0  0  0  0  0
    5.6644    0.9867   -0.2316 C   0  0  0  0  0  0  0  0  0  0  0  0
    5.8820    0.4596    1.0469 C   0  0  0  0  0  0  0  0  0  0  0  0
    4.8864    0.5393    2.0240 C   0  0  0  0  0  0  0  0  0  0  0  0
    3.6624    1.1557    1.7367 C   0  0  0  0  0  0  0  0  0  0  0  0
    2.6258    1.2417    2.7645 C   0  0  0  0  0  0  0  0  0  0  0  0
    2.5309    2.2914    3.5896 C   0  0  0  0  0  0  0  0  0  0  0  0
    1.2159    2.1183    4.7006 S   0  0  0  0  0  0  0  0  0  0  0  0
    0.7697    0.5433    4.0083 C   0  0  0  0  0  0  0  0  0  0  0  0
   -0.5096   -0.3595    4.5712 S   0  0  0  0  0  0  0  0  0  0  0  0
    1.6692    0.2535    2.9779 N   0  0  0  0  0  0  0  0  0  0  0  0
    1.5723   -0.9355    2.1155 C   0  0  0  0  0  0  0  0  0  0  0  0
    0.7729   -0.7382    0.8300 C   0  0  0  0  0  0  0  0  0  0  0  0
    0.7374   -1.5699   -0.0725 O   0  0  0  0  0  0  0  0  0  0  0  0
    0.0848    0.4384    0.8129 O   0  0  0  0  0  0  0  0  0  0  0  0
   -0.8319    0.5632   -0.2718 C   0  0  0  0  0  0  0  0  0  0  0  0
   -2.0523   -0.3568   -0.1473 C   0  0  0  0  0  0  0  0  0  0  0  0
   -2.2998   -1.0033    0.8655 O   0  0  0  0  0  0  0  0  0  0  0  0
   -2.8594   -0.3669   -1.2708 N   0  0  0  0  0  0  0  0  0  0  0  0
   -4.0028   -1.2733   -1.3775 C   0  0  0  0  0  0  0  0  0  0  0  0
   -3.5107   -2.6328   -1.8875 C   0  0  0  0  0  0  0  0  0  0  0  0
   -5.1025   -0.6502   -2.2753 C   0  0  0  0  0  0  0  0  0  0  0  0
   -5.6081    0.6709   -1.6804 C   0  0  0  0  0  0  0  0  0  0  0  0
   -6.2939   -1.5918   -2.4792 C   0  0  0  0  0  0  0  0  0  0  0  0
    3.4500    1.7024    0.4660 C   0  0  0  0  0  0  0  0  0  0  0  0
    4.4463    1.6201   -0.5108 C   0  0  0  0  0  0  0  0  0  0  0  0
    7.3567    1.8371   -1.2245 H   0  0  0  0  0  0  0  0  0  0  0  0
    6.3190    0.8382   -2.2761 H   0  0  0  0  0  0  0  0  0  0  0  0
    7.3949    0.0599   -1.1136 H   0  0  0  0  0  0  0  0  0  0  0  0
    6.8291   -0.0185    1.2909 H   0  0  0  0  0  0  0  0  0  0  0  0
    5.0731    0.1163    3.0088 H   0  0  0  0  0  0  0  0  0  0  0  0
    3.1798    3.1567    3.5871 H   0  0  0  0  0  0  0  0  0  0  0  0
    2.5795   -1.2714    1.8491 H   0  0  0  0  0  0  0  0  0  0  0  0
    1.0945   -1.7486    2.6697 H   0  0  0  0  0  0  0  0  0  0  0  0
   -1.1965    1.5969   -0.2688 H   0  0  0  0  0  0  0  0  0  0  0  0
   -0.3209    0.3944   -1.2275 H   0  0  0  0  0  0  0  0  0  0  0  0
   -2.4870    0.0162   -2.1315 H   0  0  0  0  0  0  0  0  0  0  0  0
   -4.4102   -1.4226   -0.3701 H   0  0  0  0  0  0  0  0  0  0  0  0
   -3.1543   -2.5625   -2.9234 H   0  0  0  0  0  0  0  0  0  0  0  0
   -4.3014   -3.3874   -1.8440 H   0  0  0  0  0  0  0  0  0  0  0  0
   -2.6748   -3.0038   -1.2764 H   0  0  0  0  0  0  0  0  0  0  0  0
   -4.6764   -0.4270   -3.2612 H   0  0  0  0  0  0  0  0  0  0  0  0
   -4.8051    1.4123   -1.6131 H   0  0  0  0  0  0  0  0  0  0  0  0
   -6.3973    1.1036   -2.3041 H   0  0  0  0  0  0  0  0  0  0  0  0
   -6.0170    0.5190   -0.6754 H   0  0  0  0  0  0  0  0  0  0  0  0
   -7.0943   -1.0928   -3.0383 H   0  0  0  0  0  0  0  0  0  0  0  0
   -6.0085   -2.4790   -3.0542 H   0  0  0  0  0  0  0  0  0  0  0  0
   -6.7060   -1.9224   -1.5190 H   0  0  0  0  0  0  0  0  0  0  0  0
    2.5109    2.1992    0.2300 H   0  0  0  0  0  0  0  0  0  0  0  0
    4.2661    2.0507   -1.4949 H   0  0  0  0  0  0  0  0  0  0  0  0
  1  2  1  0
  2  3  2  0
  3  4  1  0
  4  5  2  0
  5  6  1  0
  6  7  2  0
  7  8  1  0
  8  9  1  0
  9 10  2  0
  9 11  1  0
 11 12  1  0
 12 13  1  0
 13 14  2  0
 13 15  1  0
 15 16  1  0
 16 17  1  0
 17 18  2  0
 17 19  1  0
 19 20  1  0
 20 21  1  0
 20 22  1  0
 22 23  1  0
 22 24  1  0
  5 25  1  0
 25 26  2  0
 26  2  1  0
 11  6  1  0
  1 27  1  0
  1 28  1  0
  1 29  1  0
  3 30  1  0
  4 31  1  0
  7 32  1  0
 12 33  1  0
 12 34  1  0
 16 35  1  0
 16 36  1  0
 19 37  1  0
 20 38  1  0
 21 39  1  0
 21 40  1  0
 21 41  1  0
 22 42  1  0
 23 43  1  0
 23 44  1  0
 23 45  1  0
 24 46  1  0
 24 47  1  0
 24 48  1  0
 25 49  1  0
 26 50  1  0
M  END
$$$$
