
     RDKit          3D

 43 44  0  0  0  0  0  0  0  0999 V2000
    6.8721    0.2327    1.5854 C   0  0  0  0  0  0  0  0  0  0  0  0
    5.8297    0.7175    0.7377 O   0  0  0  0  0  0  0  0  0  0  0  0
    4.6374    0.0984    0.9230 C   0  0  0  0  0  0  0  0  0  0  0  0
    4.4146   -0.8000    1.7189 O   0  0  0  0  0  0  0  0  0  0  0  0
    3.6050    0.6599    0.0109 C   0  0  0  0  0  0  0  0  0  0  0  0
    3.8898    1.6684   -0.9182 C   0  0  0  0  0  0  0  0  0  0  0  0
    2.8795    2.1690   -1.7453 C   0  0  0  0  0  0  0  0  0  0  0  0
    1.5852    1.6457   -1.6834 C   0  0  0  0  0  0  0  0  0  0  0  0
    0.5552    2.2558   -2.4211 N   0  0  0  0  0  0  0  0  0  0  0  0
    1.2911    0.6461   -0.7300 C   0  0  0  0  0  0  0  0  0  0  0  0
   -0.0223    0.1495   -0.6110 N   0  0  0  0  0  0  0  0  0  0  0  0
   -0.2568   -0.9769   -1.2036 C   0  0  0  0  0  0  0  0  0  0  0  0
   -1.6202   -1.5946   -1.1451 C   0  0  0  0  0  0  0  0  0  0  0  0
   -2.7045   -0.6007   -1.4687 C   0  0  0  0  0  0  0  0  0  0  0  0
   -2.9865   -0.3348   -2.6398 O   0  0  0  0  0  0  0  0  0  0  0  0
   -3.3415    0.1634   -0.3274 C   0  0  0  0  0  0  0  0  0  0  0  0
   -3.6870   -0.7471    0.8627 C   0  0  0  0  0  0  0  0  0  0  0  0
   -4.8291   -1.7130    0.4913 C   0  0  0  0  0  0  0  0  0  0  0  0
   -4.1612    0.1307    2.0355 C   0  0  0  0  0  0  0  0  0  0  0  0
   -2.4390   -1.5288    1.3047 C   0  0  0  0  0  0  0  0  0  0  0  0
   -1.8305   -2.3088    0.1608 C   0  0  0  0  0  0  0  0  0  0  0  0
   -1.4200   -3.4590    0.3258 O   0  0  0  0  0  0  0  0  0  0  0  0
    2.3008    0.1587    0.1061 C   0  0  0  0  0  0  0  0  0  0  0  0
    7.0706   -0.8241    1.3818 H   0  0  0  0  0  0  0  0  0  0  0  0
    7.7788    0.8037    1.3674 H   0  0  0  0  0  0  0  0  0  0  0  0
    6.6129    0.3838    2.6381 H   0  0  0  0  0  0  0  0  0  0  0  0
    4.8887    2.0909   -0.9981 H   0  0  0  0  0  0  0  0  0  0  0  0
    3.1073    2.9821   -2.4299 H   0  0  0  0  0  0  0  0  0  0  0  0
    0.8312    2.6138   -3.3279 H   0  0  0  0  0  0  0  0  0  0  0  0
   -0.2904    1.6891   -2.4444 H   0  0  0  0  0  0  0  0  0  0  0  0
    0.5261   -1.5413   -1.7439 H   0  0  0  0  0  0  0  0  0  0  0  0
   -1.6682   -2.3622   -1.9289 H   0  0  0  0  0  0  0  0  0  0  0  0
   -4.2461    0.6556   -0.7045 H   0  0  0  0  0  0  0  0  0  0  0  0
   -2.6418    0.9523   -0.0276 H   0  0  0  0  0  0  0  0  0  0  0  0
   -5.7306   -1.1618    0.2001 H   0  0  0  0  0  0  0  0  0  0  0  0
   -4.5613   -2.3683   -0.3441 H   0  0  0  0  0  0  0  0  0  0  0  0
   -5.0929   -2.3539    1.3404 H   0  0  0  0  0  0  0  0  0  0  0  0
   -5.0485    0.7123    1.7610 H   0  0  0  0  0  0  0  0  0  0  0  0
   -3.3823    0.8377    2.3428 H   0  0  0  0  0  0  0  0  0  0  0  0
   -4.4186   -0.4799    2.9083 H   0  0  0  0  0  0  0  0  0  0  0  0
   -2.6926   -2.2316    2.1076 H   0  0  0  0  0  0  0  0  0  0  0  0
   -1.6660   -0.8537    1.6910 H   0  0  0  0  0  0  0  0  0  0  0  0
    2.0618   -0.6062    0.8417 H   0  0  0  0  0  0  0  0  0  0  0  0
  1  2  1  0
  2  3  1  0
  3  4  2  0
  3  5  1  0
  5  6  2  0
  6  7  1  0
  7  8  2  0
  8  9  1  0
  8 10  1  0
 10 11  1  0
 11 12  2  3
 12 13  1  0
 13 14  1  0
 14 15  2  0
 14 16  1  0
 16 17  1  0
 17 18  1  0
 17 19  1  0
 17 20  1  0
 20 21  1  0
 21 22  2  0
 10 23  2  0
 23  5  1  0
 21 13  1  0
  1 24  1  0
  1 25  1  0
  1 26  1  0
  6 27  1  0
  7 28  1  0
  9 29  1  0
  9 30  1  0
 12 31  1  0
 13 32  1  0
 16 33  1  0
 16 34  1  0
 18 35  1  0
 18 36  1  0
 18 37  1  0
 19 38  1  0
 19 39  1  0
 19 40  1  0
 20 41  1  0
 20 42  1  0
 23 43  1  0
M  END
$$$$
