
     RDKit          3D

 46 48  0  0  0  0  0  0  0  0999 V2000
    5.9765    2.1270   -0.2931 C   0  0  0  0  0  0  0  0  0  0  0  0
    4.8448    1.9737   -1.1402 O   0  0  0  0  0  0  0  0  0  0  0  0
    3.8835    1.0908   -0.7346 C   0  0  0  0  0  0  0  0  0  0  0  0
    3.9239    0.3000    0.4118 C   0  0  0  0  0  0  0  0  0  0  0  0
    2.8656   -0.5691    0.7120 C   0  0  0  0  0  0  0  0  0  0  0  0
    1.7409   -0.6582   -0.1227 C   0  0  0  0  0  0  0  0  0  0  0  0
    0.5748   -1.6049    0.1535 C   0  0  0  0  0  0  0  0  0  0  0  0
    0.6924   -2.5368    1.3657 C   0  0  0  0  0  0  0  0  0  0  0  0
   -0.7391   -0.9108    0.1572 N   0  0  0  0  0  0  0  0  0  0  0  0
   -1.0728    0.2328    0.8874 C   0  0  0  0  0  0  0  0  0  0  0  0
   -0.1737    0.8668    1.8954 C   0  0  0  0  0  0  0  0  0  0  0  0
   -2.3232    0.6285    0.4479 C   0  0  0  0  0  0  0  0  0  0  0  0
   -3.0453    1.7792    0.8257 C   0  0  0  0  0  0  0  0  0  0  0  0
   -2.6831    2.8752    1.7641 C   0  0  0  0  0  0  0  0  0  0  0  0
   -4.2628    1.8396    0.1998 N   0  0  0  0  0  0  0  0  0  0  0  0
   -4.7511    0.8431   -0.7558 N   0  0  0  0  0  0  0  0  0  0  0  0
   -4.0503   -0.2708   -1.1387 C   0  0  0  0  0  0  0  0  0  0  0  0
   -4.6761   -1.1803   -2.1356 C   0  0  0  0  0  0  0  0  0  0  0  0
   -2.8012   -0.3490   -0.4880 C   0  0  0  0  0  0  0  0  0  0  0  0
   -1.8377   -1.3333   -0.6043 C   0  0  0  0  0  0  0  0  0  0  0  0
   -1.8332   -2.6121   -1.3747 C   0  0  0  0  0  0  0  0  0  0  0  0
    1.7209    0.1380   -1.2816 C   0  0  0  0  0  0  0  0  0  0  0  0
    2.7775    1.0024   -1.5787 C   0  0  0  0  0  0  0  0  0  0  0  0
    5.6837    2.5024    0.6933 H   0  0  0  0  0  0  0  0  0  0  0  0
    6.6375    2.8704   -0.7489 H   0  0  0  0  0  0  0  0  0  0  0  0
    6.5375    1.1902   -0.2093 H   0  0  0  0  0  0  0  0  0  0  0  0
    4.7647    0.3318    1.0969 H   0  0  0  0  0  0  0  0  0  0  0  0
    2.9417   -1.1661    1.6179 H   0  0  0  0  0  0  0  0  0  0  0  0
    0.5692   -2.2608   -0.7260 H   0  0  0  0  0  0  0  0  0  0  0  0
   -0.1697   -3.2111    1.4240 H   0  0  0  0  0  0  0  0  0  0  0  0
    1.5916   -3.1589    1.2945 H   0  0  0  0  0  0  0  0  0  0  0  0
    0.7382   -1.9920    2.3130 H   0  0  0  0  0  0  0  0  0  0  0  0
   -0.7457    1.2025    2.7650 H   0  0  0  0  0  0  0  0  0  0  0  0
    0.5800    0.1863    2.2907 H   0  0  0  0  0  0  0  0  0  0  0  0
    0.3360    1.7320    1.4600 H   0  0  0  0  0  0  0  0  0  0  0  0
   -1.6969    3.2813    1.5235 H   0  0  0  0  0  0  0  0  0  0  0  0
   -2.6857    2.5076    2.7939 H   0  0  0  0  0  0  0  0  0  0  0  0
   -3.4060    3.6949    1.6990 H   0  0  0  0  0  0  0  0  0  0  0  0
   -5.5745   -0.7242   -2.5640 H   0  0  0  0  0  0  0  0  0  0  0  0
   -3.9848   -1.3862   -2.9578 H   0  0  0  0  0  0  0  0  0  0  0  0
   -4.9711   -2.1196   -1.6592 H   0  0  0  0  0  0  0  0  0  0  0  0
   -2.8436   -2.9871   -1.5490 H   0  0  0  0  0  0  0  0  0  0  0  0
   -1.3445   -2.4701   -2.3442 H   0  0  0  0  0  0  0  0  0  0  0  0
   -1.3151   -3.4087   -0.8311 H   0  0  0  0  0  0  0  0  0  0  0  0
    0.8725    0.0994   -1.9632 H   0  0  0  0  0  0  0  0  0  0  0  0
    2.7343    1.6143   -2.4767 H   0  0  0  0  0  0  0  0  0  0  0  0
  1  2  1  0
  2  3  1  0
  3  4  2  0
  4  5  1  0
  5  6  2  0
  6  7  1  0
  7  8  1  0
  7  9  1  0
  9 10  1  0
 10 11  1  0
 10 12  2  0
 12 13  1  0
 13 14  1  0
 13 15  2  0
 15 16  1  0
 16 17  2  0
 17 18  1  0
 17 19  1  0
 19 20  2  0
 20 21  1  0
  6 22  1  0
 22 23  2  0
 23  3  1  0
 20  9  1  0
 19 12  1  0
  1 24  1  0
  1 25  1  0
  1 26  1  0
  4 27  1  0
  5 28  1  0
  7 29  1  0
  8 30  1  0
  8 31  1  0
  8 32  1  0
 11 33  1  0
 11 34  1  0
 11 35  1  0
 14 36  1  0
 14 37  1  0
 14 38  1  0
 18 39  1  0
 18 40  1  0
 18 41  1  0
 21 42  1  0
 21 43  1  0
 21 44  1  0
 22 45  1  0
 23 46  1  0
M  END
$$$$
