
     RDKit          3D

 57 58  0  0  0  0  0  0  0  0999 V2000
    5.2196    2.9662   -1.1975 C   0  0  0  0  0  0  0  0  0  0  0  0
    5.9710    1.9160   -0.4260 C   0  0  0  0  0  0  0  0  0  0  0  0
    7.2499    2.2021    0.0747 C   0  0  0  0  0  0  0  0  0  0  0  0
    7.9603    1.2412    0.7918 C   0  0  0  0  0  0  0  0  0  0  0  0
    7.4000   -0.0133    1.0126 C   0  0  0  0  0  0  0  0  0  0  0  0
    6.1274   -0.3108    0.5188 C   0  0  0  0  0  0  0  0  0  0  0  0
    5.4050    0.6483   -0.1976 C   0  0  0  0  0  0  0  0  0  0  0  0
    4.1559    0.4549   -0.7257 O   0  0  0  0  0  0  0  0  0  0  0  0
    3.4708   -0.7491   -0.3838 C   0  0  0  0  0  0  0  0  0  0  0  0
    2.0761   -0.6860   -0.9858 C   0  0  0  0  0  0  0  0  0  0  0  0
    1.2417    0.3829   -0.3329 C   0  0  0  0  0  0  0  0  0  0  0  0
    0.6608    1.2718   -0.9405 O   0  0  0  0  0  0  0  0  0  0  0  0
    1.1396    0.1741    1.0070 O   0  0  0  0  0  0  0  0  0  0  0  0
    0.4343    1.1820    1.7311 C   0  0  0  0  0  0  0  0  0  0  0  0
   -1.0490    1.3895    1.4076 C   0  0  0  0  0  0  0  0  0  0  0  0
   -1.5664    2.5063    1.5025 O   0  0  0  0  0  0  0  0  0  0  0  0
   -1.8471    0.2160    0.9412 C   0  0  0  0  0  0  0  0  0  0  0  0
   -2.7184    0.3472   -0.0821 C   0  0  0  0  0  0  0  0  0  0  0  0
   -2.9865    1.5767   -0.6770 N   0  0  0  0  0  0  0  0  0  0  0  0
   -3.3781   -0.7859   -0.5568 N   0  0  0  0  0  0  0  0  0  0  0  0
   -4.4343   -0.6413   -1.5760 C   0  0  0  0  0  0  0  0  0  0  0  0
   -5.7788   -0.1386   -1.0085 C   0  0  0  0  0  0  0  0  0  0  0  0
   -6.7464    0.1549   -2.1572 C   0  0  0  0  0  0  0  0  0  0  0  0
   -6.4115   -1.1410   -0.0419 C   0  0  0  0  0  0  0  0  0  0  0  0
   -3.1428   -2.0737   -0.0734 C   0  0  0  0  0  0  0  0  0  0  0  0
   -3.7521   -3.0608   -0.4907 O   0  0  0  0  0  0  0  0  0  0  0  0
   -2.1871   -2.1865    0.9216 N   0  0  0  0  0  0  0  0  0  0  0  0
   -1.9546   -3.5039    1.4840 C   0  0  0  0  0  0  0  0  0  0  0  0
   -1.6328   -1.1035    1.5622 C   0  0  0  0  0  0  0  0  0  0  0  0
   -0.9894   -1.1902    2.6074 O   0  0  0  0  0  0  0  0  0  0  0  0
    5.7948    3.8945   -1.2781 H   0  0  0  0  0  0  0  0  0  0  0  0
    4.2762    3.2034   -0.6950 H   0  0  0  0  0  0  0  0  0  0  0  0
    5.0127    2.6145   -2.2135 H   0  0  0  0  0  0  0  0  0  0  0  0
    7.7001    3.1780   -0.0925 H   0  0  0  0  0  0  0  0  0  0  0  0
    8.9507    1.4715    1.1756 H   0  0  0  0  0  0  0  0  0  0  0  0
    7.9553   -0.7642    1.5688 H   0  0  0  0  0  0  0  0  0  0  0  0
    5.7330   -1.3034    0.7069 H   0  0  0  0  0  0  0  0  0  0  0  0
    3.9996   -1.6046   -0.8203 H   0  0  0  0  0  0  0  0  0  0  0  0
    3.4194   -0.8666    0.7050 H   0  0  0  0  0  0  0  0  0  0  0  0
    2.1393   -0.4513   -2.0546 H   0  0  0  0  0  0  0  0  0  0  0  0
    1.5545   -1.6424   -0.8765 H   0  0  0  0  0  0  0  0  0  0  0  0
    0.5136    0.9456    2.7975 H   0  0  0  0  0  0  0  0  0  0  0  0
    0.9534    2.1372    1.5810 H   0  0  0  0  0  0  0  0  0  0  0  0
   -2.7255    1.5753   -1.6607 H   0  0  0  0  0  0  0  0  0  0  0  0
   -2.5018    2.3549   -0.2136 H   0  0  0  0  0  0  0  0  0  0  0  0
   -4.0714    0.0314   -2.3627 H   0  0  0  0  0  0  0  0  0  0  0  0
   -4.5944   -1.6013   -2.0827 H   0  0  0  0  0  0  0  0  0  0  0  0
   -5.6190    0.7977   -0.4607 H   0  0  0  0  0  0  0  0  0  0  0  0
   -7.6966    0.5442   -1.7764 H   0  0  0  0  0  0  0  0  0  0  0  0
   -6.3276    0.9053   -2.8359 H   0  0  0  0  0  0  0  0  0  0  0  0
   -6.9589   -0.7486   -2.7389 H   0  0  0  0  0  0  0  0  0  0  0  0
   -7.3839   -0.7794    0.3096 H   0  0  0  0  0  0  0  0  0  0  0  0
   -6.5677   -2.1129   -0.5220 H   0  0  0  0  0  0  0  0  0  0  0  0
   -5.7824   -1.2913    0.8409 H   0  0  0  0  0  0  0  0  0  0  0  0
   -0.9785   -3.5548    1.9756 H   0  0  0  0  0  0  0  0  0  0  0  0
   -1.9955   -4.2707    0.7046 H   0  0  0  0  0  0  0  0  0  0  0  0
   -2.7361   -3.7074    2.2228 H   0  0  0  0  0  0  0  0  0  0  0  0
  1  2  1  0
  2  3  2  0
  3  4  1  0
  4  5  2  0
  5  6  1  0
  6  7  2  0
  7  8  1  0
  8  9  1  0
  9 10  1  0
 10 11  1  0
 11 12  2  0
 11 13  1  0
 13 14  1  0
 14 15  1  0
 15 16  2  0
 15 17  1  0
 17 18  2  0
 18 19  1  0
 18 20  1  0
 20 21  1  0
 21 22  1  0
 22 23  1  0
 22 24  1  0
 20 25  1  0
 25 26  2  0
 25 27  1  0
 27 28  1  0
 27 29  1  0
 29 30  2  0
  7  2  1  0
 29 17  1  0
  1 31  1  0
  1 32  1  0
  1 33  1  0
  3 34  1  0
  4 35  1  0
  5 36  1  0
  6 37  1  0
  9 38  1  0
  9 39  1  0
 10 40  1  0
 10 41  1  0
 14 42  1  0
 14 43  1  0
 19 44  1  0
 19 45  1  0
 21 46  1  0
 21 47  1  0
 22 48  1  0
 23 49  1  0
 23 50  1  0
 23 51  1  0
 24 52  1  0
 24 53  1  0
 24 54  1  0
 28 55  1  0
 28 56  1  0
 28 57  1  0
M  END
$$$$
