
     RDKit          3D

 33 35  0  0  0  0  0  0  0  0999 V2000
   -3.3828    1.8747    1.9959 C   0  0  0  0  0  0  0  0  0  0  0  0
   -3.8330    1.0847    0.7777 C   0  0  0  0  0  0  0  0  0  0  0  0
   -3.6677   -0.3777    0.9812 C   0  0  0  0  0  0  0  0  0  0  0  0
   -4.5910   -1.2285    1.3909 N   0  0  0  0  0  0  0  0  0  0  0  0
   -4.0157   -2.4778    1.4666 N   0  0  0  0  0  0  0  0  0  0  0  0
   -2.7686   -2.3497    1.0882 C   0  0  0  0  0  0  0  0  0  0  0  0
   -2.4865   -1.0515    0.7493 N   0  0  0  0  0  0  0  0  0  0  0  0
   -1.3094   -0.4900    0.3428 N   0  0  0  0  0  0  0  0  0  0  0  0
   -0.3642   -1.3024   -0.0440 C   0  0  0  0  0  0  0  0  0  0  0  0
    0.9460   -0.6898   -0.4363 C   0  0  0  0  0  0  0  0  0  0  0  0
    1.3484    0.5016    0.1810 C   0  0  0  0  0  0  0  0  0  0  0  0
    2.5647    1.1049   -0.1604 C   0  0  0  0  0  0  0  0  0  0  0  0
    3.3856    0.5259   -1.1271 C   0  0  0  0  0  0  0  0  0  0  0  0
    4.5917    1.0073   -1.5531 O   0  0  0  0  0  0  0  0  0  0  0  0
    5.0535    2.2114   -0.9529 C   0  0  0  0  0  0  0  0  0  0  0  0
    2.9772   -0.6563   -1.7503 C   0  0  0  0  0  0  0  0  0  0  0  0
    1.7636   -1.2641   -1.4134 C   0  0  0  0  0  0  0  0  0  0  0  0
   -0.4968   -2.8129   -0.2092 C   0  0  0  0  0  0  0  0  0  0  0  0
   -1.5488   -3.5592    1.0505 S   0  0  0  0  0  0  0  0  0  0  0  0
   -2.3203    1.7121    2.2064 H   0  0  0  0  0  0  0  0  0  0  0  0
   -3.9493    1.5842    2.8873 H   0  0  0  0  0  0  0  0  0  0  0  0
   -3.5352    2.9460    1.8305 H   0  0  0  0  0  0  0  0  0  0  0  0
   -4.8894    1.3009    0.5798 H   0  0  0  0  0  0  0  0  0  0  0  0
   -3.2750    1.4149   -0.1059 H   0  0  0  0  0  0  0  0  0  0  0  0
    0.7211    0.9698    0.9372 H   0  0  0  0  0  0  0  0  0  0  0  0
    2.8370    2.0249    0.3467 H   0  0  0  0  0  0  0  0  0  0  0  0
    6.0220    2.4572   -1.3991 H   0  0  0  0  0  0  0  0  0  0  0  0
    5.2057    2.0824    0.1237 H   0  0  0  0  0  0  0  0  0  0  0  0
    4.3709    3.0423   -1.1597 H   0  0  0  0  0  0  0  0  0  0  0  0
    3.6114   -1.1049   -2.5124 H   0  0  0  0  0  0  0  0  0  0  0  0
    1.4784   -2.1685   -1.9425 H   0  0  0  0  0  0  0  0  0  0  0  0
   -0.9234   -3.0118   -1.1982 H   0  0  0  0  0  0  0  0  0  0  0  0
    0.4799   -3.3000   -0.1468 H   0  0  0  0  0  0  0  0  0  0  0  0
  1  2  1  0
  2  3  1  0
  3  4  2  0
  4  5  1  0
  5  6  2  0
  6  7  1  0
  7  8  1  0
  8  9  2  0
  9 10  1  0
 10 11  2  0
 11 12  1  0
 12 13  2  0
 13 14  1  0
 14 15  1  0
 13 16  1  0
 16 17  2  0
  9 18  1  0
 18 19  1  0
  7  3  1  0
 17 10  1  0
 19  6  1  0
  1 20  1  0
  1 21  1  0
  1 22  1  0
  2 23  1  0
  2 24  1  0
 11 25  1  0
 12 26  1  0
 15 27  1  0
 15 28  1  0
 15 29  1  0
 16 30  1  0
 17 31  1  0
 18 32  1  0
 18 33  1  0
M  END
$$$$
