
     RDKit          3D

 45 47  0  0  0  0  0  0  0  0999 V2000
    7.6606   -0.5326    1.3756 C   0  0  0  0  0  0  0  0  0  0  0  0
    7.1281    0.1391    0.1233 C   0  0  0  0  0  0  0  0  0  0  0  0
    6.1270    1.0996    0.4539 O   0  0  0  0  0  0  0  0  0  0  0  0
    4.8155    0.7280    0.3684 C   0  0  0  0  0  0  0  0  0  0  0  0
    3.9074    1.7873    0.3430 C   0  0  0  0  0  0  0  0  0  0  0  0
    2.5302    1.5533    0.2638 C   0  0  0  0  0  0  0  0  0  0  0  0
    2.0398    0.2495    0.2243 C   0  0  0  0  0  0  0  0  0  0  0  0
    0.6723   -0.0752    0.1317 N   0  0  0  0  0  0  0  0  0  0  0  0
   -0.4025    0.7857    0.1737 C   0  0  0  0  0  0  0  0  0  0  0  0
   -0.3714    1.9895    0.3891 O   0  0  0  0  0  0  0  0  0  0  0  0
   -1.5807    0.1061   -0.0494 N   0  0  0  0  0  0  0  0  0  0  0  0
   -2.8541    0.8088   -0.1281 C   0  0  0  0  0  0  0  0  0  0  0  0
   -3.0031    1.5594   -1.4625 C   0  0  0  0  0  0  0  0  0  0  0  0
   -3.3028    0.5957   -2.6063 C   0  0  0  0  0  0  0  0  0  0  0  0
   -4.6246   -0.1250   -2.3690 C   0  0  0  0  0  0  0  0  0  0  0  0
   -4.7766   -0.6561   -0.9648 C   0  0  0  0  0  0  0  0  0  0  0  0
   -5.7861   -1.5959   -0.7037 C   0  0  0  0  0  0  0  0  0  0  0  0
   -5.9869   -2.0864    0.5862 C   0  0  0  0  0  0  0  0  0  0  0  0
   -5.1869   -1.6386    1.6325 C   0  0  0  0  0  0  0  0  0  0  0  0
   -4.1870   -0.6979    1.3891 C   0  0  0  0  0  0  0  0  0  0  0  0
   -3.9747   -0.1905    0.0952 C   0  0  0  0  0  0  0  0  0  0  0  0
    2.9517   -0.8122    0.2609 C   0  0  0  0  0  0  0  0  0  0  0  0
    4.3306   -0.5763    0.3354 C   0  0  0  0  0  0  0  0  0  0  0  0
    8.0325    0.2140    2.0842 H   0  0  0  0  0  0  0  0  0  0  0  0
    6.8781   -1.0968    1.8903 H   0  0  0  0  0  0  0  0  0  0  0  0
    8.4773   -1.2162    1.1253 H   0  0  0  0  0  0  0  0  0  0  0  0
    6.7899   -0.5875   -0.6239 H   0  0  0  0  0  0  0  0  0  0  0  0
    7.9476    0.6946   -0.3471 H   0  0  0  0  0  0  0  0  0  0  0  0
    4.2725    2.8110    0.3785 H   0  0  0  0  0  0  0  0  0  0  0  0
    1.8702    2.4143    0.2334 H   0  0  0  0  0  0  0  0  0  0  0  0
    0.4405   -1.0559    0.1506 H   0  0  0  0  0  0  0  0  0  0  0  0
   -1.5253   -0.7672   -0.5480 H   0  0  0  0  0  0  0  0  0  0  0  0
   -2.8782    1.5558    0.6761 H   0  0  0  0  0  0  0  0  0  0  0  0
   -3.8256    2.2828   -1.3812 H   0  0  0  0  0  0  0  0  0  0  0  0
   -2.0990    2.1342   -1.6937 H   0  0  0  0  0  0  0  0  0  0  0  0
   -2.4920   -0.1379   -2.6988 H   0  0  0  0  0  0  0  0  0  0  0  0
   -3.3479    1.1388   -3.5567 H   0  0  0  0  0  0  0  0  0  0  0  0
   -5.4555    0.5641   -2.5660 H   0  0  0  0  0  0  0  0  0  0  0  0
   -4.7029   -0.9500   -3.0865 H   0  0  0  0  0  0  0  0  0  0  0  0
   -6.4267   -1.9485   -1.5094 H   0  0  0  0  0  0  0  0  0  0  0  0
   -6.7716   -2.8144    0.7745 H   0  0  0  0  0  0  0  0  0  0  0  0
   -5.3425   -2.0189    2.6384 H   0  0  0  0  0  0  0  0  0  0  0  0
   -3.5652   -0.3564    2.2149 H   0  0  0  0  0  0  0  0  0  0  0  0
    2.6046   -1.8417    0.2363 H   0  0  0  0  0  0  0  0  0  0  0  0
    4.9933   -1.4336    0.3808 H   0  0  0  0  0  0  0  0  0  0  0  0
  1  2  1  0
  2  3  1  0
  3  4  1  0
  4  5  2  0
  5  6  1  0
  6  7  2  0
  7  8  1  0
  8  9  1  0
  9 10  2  0
  9 11  1  0
 11 12  1  0
 12 13  1  0
 13 14  1  0
 14 15  1  0
 15 16  1  0
 16 17  2  0
 17 18  1  0
 18 19  2  0
 19 20  1  0
 20 21  2  0
  7 22  1  0
 22 23  2  0
 23  4  1  0
 21 12  1  0
 21 16  1  0
  1 24  1  0
  1 25  1  0
  1 26  1  0
  2 27  1  0
  2 28  1  0
  5 29  1  0
  6 30  1  0
  8 31  1  0
 11 32  1  0
 12 33  1  0
 13 34  1  0
 13 35  1  0
 14 36  1  0
 14 37  1  0
 15 38  1  0
 15 39  1  0
 17 40  1  0
 18 41  1  0
 19 42  1  0
 20 43  1  0
 22 44  1  0
 23 45  1  0
M  END
$$$$
