
     RDKit          3D

 54 54  0  0  0  0  0  0  0  0999 V2000
    9.4159    0.5970   -0.7287 C   0  0  0  0  0  0  0  0  0  0  0  0
    9.5562   -0.4739    0.0650 C   0  0  0  0  0  0  0  0  0  0  0  0
    8.5026   -1.4404    0.5016 C   0  0  0  0  0  0  0  0  0  0  0  0
    7.1790   -0.8882    0.3202 N   0  0  0  0  0  0  0  0  0  0  0  0
    6.0938   -1.7237    0.4772 C   0  0  0  0  0  0  0  0  0  0  0  0
    6.1868   -2.9373    0.6147 O   0  0  0  0  0  0  0  0  0  0  0  0
    4.9169   -1.0301    0.4219 N   0  0  0  0  0  0  0  0  0  0  0  0
    3.7619   -1.7709    0.4855 C   0  0  0  0  0  0  0  0  0  0  0  0
    3.2578   -2.1444    1.5444 O   0  0  0  0  0  0  0  0  0  0  0  0
    3.0743   -2.0084   -0.8630 C   0  0  0  0  0  0  0  0  0  0  0  0
    1.7023   -1.6069   -0.8307 O   0  0  0  0  0  0  0  0  0  0  0  0
    1.5242   -0.2677   -0.6671 C   0  0  0  0  0  0  0  0  0  0  0  0
    2.4398    0.5458   -0.7123 O   0  0  0  0  0  0  0  0  0  0  0  0
    0.1023    0.0862   -0.4249 C   0  0  0  0  0  0  0  0  0  0  0  0
   -0.2000    1.4767   -0.3894 C   0  0  0  0  0  0  0  0  0  0  0  0
   -0.4452    2.6125   -0.3811 N   0  0  0  0  0  0  0  0  0  0  0  0
   -0.8194   -0.8689   -0.1874 C   0  0  0  0  0  0  0  0  0  0  0  0
   -2.1978   -0.6789    0.1301 C   0  0  0  0  0  0  0  0  0  0  0  0
   -2.8321   -1.2222    1.2640 C   0  0  0  0  0  0  0  0  0  0  0  0
   -4.1568   -0.8363    1.2392 C   0  0  0  0  0  0  0  0  0  0  0  0
   -5.2359   -1.1678    2.2126 C   0  0  0  0  0  0  0  0  0  0  0  0
   -4.3320   -0.0428    0.1205 N   0  0  0  0  0  0  0  0  0  0  0  0
   -5.5735    0.6344   -0.2478 C   0  0  0  0  0  0  0  0  0  0  0  0
   -5.5582    2.1534   -0.0020 C   0  0  0  0  0  0  0  0  0  0  0  0
   -5.4459    2.5022    1.4841 C   0  0  0  0  0  0  0  0  0  0  0  0
   -6.8263    2.7843   -0.5800 C   0  0  0  0  0  0  0  0  0  0  0  0
   -3.1569   -0.0182   -0.6177 C   0  0  0  0  0  0  0  0  0  0  0  0
   -3.0644    0.6240   -1.9604 C   0  0  0  0  0  0  0  0  0  0  0  0
   10.2751    1.2131   -0.9701 H   0  0  0  0  0  0  0  0  0  0  0  0
    8.4661    0.8664   -1.1761 H   0  0  0  0  0  0  0  0  0  0  0  0
   10.5533   -0.6877    0.4494 H   0  0  0  0  0  0  0  0  0  0  0  0
    8.6212   -1.6553    1.5722 H   0  0  0  0  0  0  0  0  0  0  0  0
    8.5987   -2.3805   -0.0466 H   0  0  0  0  0  0  0  0  0  0  0  0
    7.0461    0.0295    0.7180 H   0  0  0  0  0  0  0  0  0  0  0  0
    4.9473   -0.3524   -0.3262 H   0  0  0  0  0  0  0  0  0  0  0  0
    3.1052   -3.0854   -1.0624 H   0  0  0  0  0  0  0  0  0  0  0  0
    3.5974   -1.5095   -1.6893 H   0  0  0  0  0  0  0  0  0  0  0  0
   -0.5035   -1.9091   -0.1530 H   0  0  0  0  0  0  0  0  0  0  0  0
   -2.3766   -1.8325    2.0316 H   0  0  0  0  0  0  0  0  0  0  0  0
   -4.8761   -1.8744    2.9652 H   0  0  0  0  0  0  0  0  0  0  0  0
   -6.0883   -1.6327    1.7097 H   0  0  0  0  0  0  0  0  0  0  0  0
   -5.5799   -0.2700    2.7356 H   0  0  0  0  0  0  0  0  0  0  0  0
   -5.7516    0.4155   -1.3057 H   0  0  0  0  0  0  0  0  0  0  0  0
   -6.3990    0.1689    0.2968 H   0  0  0  0  0  0  0  0  0  0  0  0
   -4.6991    2.6001   -0.5143 H   0  0  0  0  0  0  0  0  0  0  0  0
   -6.2748    2.0681    2.0601 H   0  0  0  0  0  0  0  0  0  0  0  0
   -4.5030    2.1354    1.9046 H   0  0  0  0  0  0  0  0  0  0  0  0
   -5.4698    3.5917    1.6282 H   0  0  0  0  0  0  0  0  0  0  0  0
   -7.7259    2.4050   -0.0744 H   0  0  0  0  0  0  0  0  0  0  0  0
   -6.9162    2.5648   -1.6517 H   0  0  0  0  0  0  0  0  0  0  0  0
   -6.8042    3.8797   -0.4631 H   0  0  0  0  0  0  0  0  0  0  0  0
   -3.0092    1.7075   -1.8703 H   0  0  0  0  0  0  0  0  0  0  0  0
   -3.9235    0.3701   -2.5867 H   0  0  0  0  0  0  0  0  0  0  0  0
   -2.1792    0.2839   -2.4975 H   0  0  0  0  0  0  0  0  0  0  0  0
  1  2  2  0
  2  3  1  0
  3  4  1  0
  4  5  1  0
  5  6  2  0
  5  7  1  0
  7  8  1  0
  8  9  2  0
  8 10  1  0
 10 11  1  0
 11 12  1  0
 12 13  2  0
 12 14  1  0
 14 15  1  0
 15 16  3  0
 14 17  2  3
 17 18  1  0
 18 19  1  0
 19 20  2  0
 20 21  1  0
 20 22  1  0
 22 23  1  0
 23 24  1  0
 24 25  1  0
 24 26  1  0
 22 27  1  0
 27 28  1  0
 27 18  2  0
  1 29  1  0
  1 30  1  0
  2 31  1  0
  3 32  1  0
  3 33  1  0
  4 34  1  0
  7 35  1  0
 10 36  1  0
 10 37  1  0
 17 38  1  0
 19 39  1  0
 21 40  1  0
 21 41  1  0
 21 42  1  0
 23 43  1  0
 23 44  1  0
 24 45  1  0
 25 46  1  0
 25 47  1  0
 25 48  1  0
 26 49  1  0
 26 50  1  0
 26 51  1  0
 28 52  1  0
 28 53  1  0
 28 54  1  0
M  END
$$$$
