
     RDKit          3D

 63 68  0  0  0  0  0  0  0  0999 V2000
   -3.9836    3.9193    4.6122 C   0  0  0  0  0  0  0  0  0  0  0  0
   -4.2619    3.5143    3.2782 O   0  0  0  0  0  0  0  0  0  0  0  0
   -3.5281    2.4707    2.7847 C   0  0  0  0  0  0  0  0  0  0  0  0
   -2.5240    1.7804    3.4616 C   0  0  0  0  0  0  0  0  0  0  0  0
   -1.8488    0.7259    2.8356 C   0  0  0  0  0  0  0  0  0  0  0  0
   -2.1657    0.3413    1.5237 C   0  0  0  0  0  0  0  0  0  0  0  0
   -1.4101   -0.8140    0.8602 C   0  0  0  0  0  0  0  0  0  0  0  0
   -2.3605   -1.8959    0.3762 C   0  0  0  0  0  0  0  0  0  0  0  0
   -3.0677   -2.6899    1.2872 C   0  0  0  0  0  0  0  0  0  0  0  0
   -3.9644   -3.6564    0.8318 C   0  0  0  0  0  0  0  0  0  0  0  0
   -4.1786   -3.8506   -0.5409 C   0  0  0  0  0  0  0  0  0  0  0  0
   -5.0870   -4.8213   -0.9951 C   0  0  0  0  0  0  0  0  0  0  0  0
   -5.3039   -5.0175   -2.3591 C   0  0  0  0  0  0  0  0  0  0  0  0
   -4.6154   -4.2459   -3.2876 C   0  0  0  0  0  0  0  0  0  0  0  0
   -3.7094   -3.2775   -2.8517 C   0  0  0  0  0  0  0  0  0  0  0  0
   -3.4726   -3.0588   -1.4772 C   0  0  0  0  0  0  0  0  0  0  0  0
   -2.5615   -2.0887   -0.9966 C   0  0  0  0  0  0  0  0  0  0  0  0
   -1.8876   -1.3310   -1.9327 O   0  0  0  0  0  0  0  0  0  0  0  0
   -0.7776   -0.5827   -1.5492 C   0  0  0  0  0  0  0  0  0  0  0  0
   -0.0122   -0.1225   -2.6046 N   0  0  0  0  0  0  0  0  0  0  0  0
    1.0254    0.5824   -2.2962 C   0  0  0  0  0  0  0  0  0  0  0  0
    1.4513    0.8965   -1.0258 N   0  0  0  0  0  0  0  0  0  0  0  0
    2.6907    1.6608   -0.8709 C   0  0  0  0  0  0  0  0  0  0  0  0
    3.8984    0.7101   -0.7310 C   0  0  0  0  0  0  0  0  0  0  0  0
    5.1683    1.4062   -0.4571 N   0  0  0  0  0  0  0  0  0  0  0  0
    5.5776    2.2872   -1.5760 C   0  0  0  0  0  0  0  0  0  0  0  0
    7.0960    2.5196   -1.6066 C   0  0  0  0  0  0  0  0  0  0  0  0
    7.8281    1.3105   -1.8446 O   0  0  0  0  0  0  0  0  0  0  0  0
    7.1820    0.1451   -1.3152 C   0  0  0  0  0  0  0  0  0  0  0  0
    6.2545    0.4522   -0.1290 C   0  0  0  0  0  0  0  0  0  0  0  0
    0.7430    0.4032    0.0609 C   0  0  0  0  0  0  0  0  0  0  0  0
    1.0954    0.5092    1.3051 N   0  0  0  0  0  0  0  0  0  0  0  0
   -0.5182   -0.3387   -0.2482 C   0  0  0  0  0  0  0  0  0  0  0  0
   -3.1721    1.0492    0.8484 C   0  0  0  0  0  0  0  0  0  0  0  0
   -3.8454    2.0999    1.4771 C   0  0  0  0  0  0  0  0  0  0  0  0
   -2.9553    4.2832    4.7078 H   0  0  0  0  0  0  0  0  0  0  0  0
   -4.6537    4.7491    4.8563 H   0  0  0  0  0  0  0  0  0  0  0  0
   -4.1848    3.1096    5.3215 H   0  0  0  0  0  0  0  0  0  0  0  0
   -2.2343    2.0376    4.4745 H   0  0  0  0  0  0  0  0  0  0  0  0
   -1.0553    0.2131    3.3765 H   0  0  0  0  0  0  0  0  0  0  0  0
   -0.7732   -1.3052    1.6103 H   0  0  0  0  0  0  0  0  0  0  0  0
   -2.9332   -2.5500    2.3578 H   0  0  0  0  0  0  0  0  0  0  0  0
   -4.5040   -4.2553    1.5626 H   0  0  0  0  0  0  0  0  0  0  0  0
   -5.6362   -5.4352   -0.2846 H   0  0  0  0  0  0  0  0  0  0  0  0
   -6.0104   -5.7721   -2.6944 H   0  0  0  0  0  0  0  0  0  0  0  0
   -4.7800   -4.3941   -4.3515 H   0  0  0  0  0  0  0  0  0  0  0  0
   -3.1810   -2.6860   -3.5976 H   0  0  0  0  0  0  0  0  0  0  0  0
    1.6662    0.9793   -3.1017 H   0  0  0  0  0  0  0  0  0  0  0  0
    2.8275    2.3204   -1.7369 H   0  0  0  0  0  0  0  0  0  0  0  0
    2.6245    2.3310   -0.0055 H   0  0  0  0  0  0  0  0  0  0  0  0
    3.6888    0.0265    0.1016 H   0  0  0  0  0  0  0  0  0  0  0  0
    3.9854    0.0837   -1.6287 H   0  0  0  0  0  0  0  0  0  0  0  0
    5.0664    3.2508   -1.4785 H   0  0  0  0  0  0  0  0  0  0  0  0
    5.2855    1.8421   -2.5363 H   0  0  0  0  0  0  0  0  0  0  0  0
    7.4467    2.9588   -0.6652 H   0  0  0  0  0  0  0  0  0  0  0  0
    7.3531    3.2204   -2.4074 H   0  0  0  0  0  0  0  0  0  0  0  0
    6.6239   -0.3329   -2.1287 H   0  0  0  0  0  0  0  0  0  0  0  0
    7.9679   -0.5521   -1.0071 H   0  0  0  0  0  0  0  0  0  0  0  0
    5.8620   -0.4803    0.2932 H   0  0  0  0  0  0  0  0  0  0  0  0
    6.8537    0.9161    0.6649 H   0  0  0  0  0  0  0  0  0  0  0  0
    1.9662    1.0265    1.4166 H   0  0  0  0  0  0  0  0  0  0  0  0
   -3.4453    0.7883   -0.1720 H   0  0  0  0  0  0  0  0  0  0  0  0
   -4.6254    2.6340    0.9402 H   0  0  0  0  0  0  0  0  0  0  0  0
  1  2  1  0
  2  3  1  0
  3  4  2  0
  4  5  1  0
  5  6  2  0
  6  7  1  0
  7  8  1  0
  8  9  2  0
  9 10  1  0
 10 11  2  0
 11 12  1  0
 12 13  2  0
 13 14  1  0
 14 15  2  0
 15 16  1  0
 16 17  2  0
 17 18  1  0
 18 19  1  0
 19 20  1  0
 20 21  2  0
 21 22  1  0
 22 23  1  0
 23 24  1  0
 24 25  1  0
 25 26  1  0
 26 27  1  0
 27 28  1  0
 28 29  1  0
 29 30  1  0
 22 31  1  0
 31 32  2  3
 31 33  1  0
  6 34  1  0
 34 35  2  0
 35  3  1  0
 33  7  1  0
 17  8  1  0
 33 19  2  0
 16 11  1  0
 30 25  1  0
  1 36  1  0
  1 37  1  0
  1 38  1  0
  4 39  1  0
  5 40  1  0
  7 41  1  0
  9 42  1  0
 10 43  1  0
 12 44  1  0
 13 45  1  0
 14 46  1  0
 15 47  1  0
 21 48  1  0
 23 49  1  0
 23 50  1  0
 24 51  1  0
 24 52  1  0
 26 53  1  0
 26 54  1  0
 27 55  1  0
 27 56  1  0
 29 57  1  0
 29 58  1  0
 30 59  1  0
 30 60  1  0
 32 61  1  0
 34 62  1  0
 35 63  1  0
M  END
$$$$
