
     RDKit          3D

 43 45  0  0  0  0  0  0  0  0999 V2000
    6.6063    1.9438   -1.2988 C   0  0  0  0  0  0  0  0  0  0  0  0
    5.7254    0.9643   -0.5816 C   0  0  0  0  0  0  0  0  0  0  0  0
    6.2832   -0.0879    0.1526 C   0  0  0  0  0  0  0  0  0  0  0  0
    5.4658   -0.9700    0.8664 C   0  0  0  0  0  0  0  0  0  0  0  0
    4.0744   -0.8146    0.8644 C   0  0  0  0  0  0  0  0  0  0  0  0
    3.2029   -1.7645    1.6330 C   0  0  0  0  0  0  0  0  0  0  0  0
    3.5223    0.2278    0.1112 C   0  0  0  0  0  0  0  0  0  0  0  0
    2.1636    0.4091    0.1059 O   0  0  0  0  0  0  0  0  0  0  0  0
    1.6060   -0.0761   -1.1202 C   0  0  0  0  0  0  0  0  0  0  0  0
    0.1369   -0.0479   -0.9477 C   0  0  0  0  0  0  0  0  0  0  0  0
   -0.8142    0.9394   -0.9959 C   0  0  0  0  0  0  0  0  0  0  0  0
   -2.0474    0.2770   -0.7410 C   0  0  0  0  0  0  0  0  0  0  0  0
   -3.3728    0.9186   -0.7392 C   0  0  0  0  0  0  0  0  0  0  0  0
   -3.5080    2.0141   -1.2902 O   0  0  0  0  0  0  0  0  0  0  0  0
   -4.4726    0.3043   -0.1242 N   0  0  0  0  0  0  0  0  0  0  0  0
   -4.4374   -0.9667    0.6028 C   0  0  0  0  0  0  0  0  0  0  0  0
   -5.5854   -1.0812    1.6035 C   0  0  0  0  0  0  0  0  0  0  0  0
   -6.8645   -0.8529    0.9782 N   0  0  0  0  0  0  0  0  0  0  0  0
   -7.0459    0.1841    0.1023 C   0  0  0  0  0  0  0  0  0  0  0  0
   -8.1834    0.5502   -0.1869 O   0  0  0  0  0  0  0  0  0  0  0  0
   -5.7905    0.8377   -0.4936 C   0  0  0  0  0  0  0  0  0  0  0  0
   -1.8355   -1.0409   -0.5792 N   0  0  0  0  0  0  0  0  0  0  0  0
   -0.4727   -1.2341   -0.6897 O   0  0  0  0  0  0  0  0  0  0  0  0
    4.3361    1.1280   -0.5828 C   0  0  0  0  0  0  0  0  0  0  0  0
    7.5447    1.4739   -1.6116 H   0  0  0  0  0  0  0  0  0  0  0  0
    6.1149    2.3192   -2.2014 H   0  0  0  0  0  0  0  0  0  0  0  0
    6.8370    2.7887   -0.6428 H   0  0  0  0  0  0  0  0  0  0  0  0
    7.3623   -0.2233    0.1834 H   0  0  0  0  0  0  0  0  0  0  0  0
    5.9286   -1.7756    1.4320 H   0  0  0  0  0  0  0  0  0  0  0  0
    3.7962   -2.4104    2.2888 H   0  0  0  0  0  0  0  0  0  0  0  0
    2.4998   -1.2144    2.2671 H   0  0  0  0  0  0  0  0  0  0  0  0
    2.6440   -2.4039    0.9427 H   0  0  0  0  0  0  0  0  0  0  0  0
    1.9459   -1.0982   -1.3332 H   0  0  0  0  0  0  0  0  0  0  0  0
    1.8906    0.5784   -1.9528 H   0  0  0  0  0  0  0  0  0  0  0  0
   -0.6613    1.9913   -1.1875 H   0  0  0  0  0  0  0  0  0  0  0  0
   -3.4995   -1.0592    1.1558 H   0  0  0  0  0  0  0  0  0  0  0  0
   -4.4990   -1.7685   -0.1415 H   0  0  0  0  0  0  0  0  0  0  0  0
   -5.4748   -0.3328    2.3965 H   0  0  0  0  0  0  0  0  0  0  0  0
   -5.6039   -2.0743    2.0624 H   0  0  0  0  0  0  0  0  0  0  0  0
   -7.7158   -1.1768    1.4232 H   0  0  0  0  0  0  0  0  0  0  0  0
   -5.8115    1.8993   -0.2176 H   0  0  0  0  0  0  0  0  0  0  0  0
   -5.8769    0.7637   -1.5849 H   0  0  0  0  0  0  0  0  0  0  0  0
    3.8861    1.9612   -1.1165 H   0  0  0  0  0  0  0  0  0  0  0  0
  1  2  1  0
  2  3  2  0
  3  4  1  0
  4  5  2  0
  5  6  1  0
  5  7  1  0
  7  8  1  0
  8  9  1  0
  9 10  1  0
 10 11  2  0
 11 12  1  0
 12 13  1  0
 13 14  2  0
 13 15  1  0
 15 16  1  0
 16 17  1  0
 17 18  1  0
 18 19  1  0
 19 20  2  0
 19 21  1  0
 12 22  2  0
 22 23  1  0
  7 24  2  0
 24  2  1  0
 23 10  1  0
 21 15  1  0
  1 25  1  0
  1 26  1  0
  1 27  1  0
  3 28  1  0
  4 29  1  0
  6 30  1  0
  6 31  1  0
  6 32  1  0
  9 33  1  0
  9 34  1  0
 11 35  1  0
 16 36  1  0
 16 37  1  0
 17 38  1  0
 17 39  1  0
 18 40  1  0
 21 41  1  0
 21 42  1  0
 24 43  1  0
M  END
$$$$
