
     RDKit          3D

 46 48  0  0  0  0  0  0  0  0999 V2000
    5.1633   -2.8974    0.1732 C   0  0  0  0  0  0  0  0  0  0  0  0
    4.1111   -2.4758    1.1815 C   0  0  0  0  0  0  0  0  0  0  0  0
    2.9665   -1.9394    0.5040 O   0  0  0  0  0  0  0  0  0  0  0  0
    3.0118   -0.6045    0.2021 C   0  0  0  0  0  0  0  0  0  0  0  0
    3.9695    0.1150    0.4722 O   0  0  0  0  0  0  0  0  0  0  0  0
    1.7411   -0.1456   -0.5321 C   0  0  0  0  0  0  0  0  0  0  0  0
    1.9954   -0.5707   -2.0001 C   0  0  0  0  0  0  0  0  0  0  0  0
    3.1152   -0.0151   -2.5216 F   0  0  0  0  0  0  0  0  0  0  0  0
    0.9643   -0.1785   -2.8002 F   0  0  0  0  0  0  0  0  0  0  0  0
    2.1067   -1.9122   -2.1536 F   0  0  0  0  0  0  0  0  0  0  0  0
    1.6324    1.3199   -0.4008 N   0  0  0  0  0  0  0  0  0  0  0  0
    0.4391    1.7714   -0.5088 C   0  0  0  0  0  0  0  0  0  0  0  0
    0.1201    3.2118   -0.5575 C   0  0  0  0  0  0  0  0  0  0  0  0
   -1.1507    3.7018   -0.8733 C   0  0  0  0  0  0  0  0  0  0  0  0
   -1.3689    5.0786   -0.9002 C   0  0  0  0  0  0  0  0  0  0  0  0
   -0.3072    5.9206   -0.6108 C   0  0  0  0  0  0  0  0  0  0  0  0
    0.9323    5.4828   -0.3044 N   0  0  0  0  0  0  0  0  0  0  0  0
    1.1206    4.1386   -0.2874 C   0  0  0  0  0  0  0  0  0  0  0  0
   -0.6756    1.0236   -0.5617 O   0  0  0  0  0  0  0  0  0  0  0  0
   -0.5521   -0.2353   -0.0867 C   0  0  0  0  0  0  0  0  0  0  0  0
   -1.7583   -0.8086    0.2545 N   0  0  0  0  0  0  0  0  0  0  0  0
   -3.0238   -0.0740    0.2070 C   0  0  0  0  0  0  0  0  0  0  0  0
   -4.0428   -0.6654    1.1759 C   0  0  0  0  0  0  0  0  0  0  0  0
   -4.3306   -2.1345    0.8796 C   0  0  0  0  0  0  0  0  0  0  0  0
   -3.1302   -2.8537    0.2697 C   0  0  0  0  0  0  0  0  0  0  0  0
   -1.8086   -2.2121    0.6800 C   0  0  0  0  0  0  0  0  0  0  0  0
    0.5751   -0.8307    0.0464 N   0  0  0  0  0  0  0  0  0  0  0  0
    4.7436   -3.6097   -0.5448 H   0  0  0  0  0  0  0  0  0  0  0  0
    5.5219   -2.0389   -0.4035 H   0  0  0  0  0  0  0  0  0  0  0  0
    6.0167   -3.3625    0.6745 H   0  0  0  0  0  0  0  0  0  0  0  0
    3.7688   -3.3510    1.7433 H   0  0  0  0  0  0  0  0  0  0  0  0
    4.5142   -1.7639    1.9107 H   0  0  0  0  0  0  0  0  0  0  0  0
   -1.9721    3.0314   -1.1078 H   0  0  0  0  0  0  0  0  0  0  0  0
   -2.3437    5.4863   -1.1448 H   0  0  0  0  0  0  0  0  0  0  0  0
   -0.4278    7.0005   -0.6198 H   0  0  0  0  0  0  0  0  0  0  0  0
    2.1331    3.8276   -0.0387 H   0  0  0  0  0  0  0  0  0  0  0  0
   -2.8714    0.9754    0.4845 H   0  0  0  0  0  0  0  0  0  0  0  0
   -3.4154   -0.0919   -0.8168 H   0  0  0  0  0  0  0  0  0  0  0  0
   -3.6559   -0.5774    2.1996 H   0  0  0  0  0  0  0  0  0  0  0  0
   -4.9759   -0.0915    1.1447 H   0  0  0  0  0  0  0  0  0  0  0  0
   -5.1822   -2.2199    0.1940 H   0  0  0  0  0  0  0  0  0  0  0  0
   -4.6336   -2.6314    1.8091 H   0  0  0  0  0  0  0  0  0  0  0  0
   -3.2167   -2.8254   -0.8245 H   0  0  0  0  0  0  0  0  0  0  0  0
   -3.1466   -3.9110    0.5571 H   0  0  0  0  0  0  0  0  0  0  0  0
   -0.9983   -2.7899    0.2199 H   0  0  0  0  0  0  0  0  0  0  0  0
   -1.6746   -2.2676    1.7668 H   0  0  0  0  0  0  0  0  0  0  0  0
  1  2  1  0
  2  3  1  0
  3  4  1  0
  4  5  2  0
  4  6  1  0
  6  7  1  0
  7  8  1  0
  7  9  1  0
  7 10  1  0
  6 11  1  0
 11 12  2  0
 12 13  1  0
 13 14  2  0
 14 15  1  0
 15 16  2  0
 16 17  1  0
 17 18  2  0
 12 19  1  0
 19 20  1  0
 20 21  1  0
 21 22  1  0
 22 23  1  0
 23 24  1  0
 24 25  1  0
 25 26  1  0
 20 27  2  0
 27  6  1  0
 18 13  1  0
 26 21  1  0
  1 28  1  0
  1 29  1  0
  1 30  1  0
  2 31  1  0
  2 32  1  0
 14 33  1  0
 15 34  1  0
 16 35  1  0
 18 36  1  0
 22 37  1  0
 22 38  1  0
 23 39  1  0
 23 40  1  0
 24 41  1  0
 24 42  1  0
 25 43  1  0
 25 44  1  0
 26 45  1  0
 26 46  1  0
M  END
$$$$
