
     RDKit          3D

 47 50  0  0  0  0  0  0  0  0999 V2000
    7.0783    1.4652    1.6792 C   0  0  0  0  0  0  0  0  0  0  0  0
    5.6949    1.0544    1.2414 C   0  0  0  0  0  0  0  0  0  0  0  0
    4.7188    1.2633    1.9525 O   0  0  0  0  0  0  0  0  0  0  0  0
    5.7077    0.4428    0.0002 N   0  0  0  0  0  0  0  0  0  0  0  0
    4.6056   -0.0675   -0.7181 C   0  0  0  0  0  0  0  0  0  0  0  0
    4.8681   -0.6487   -1.9625 C   0  0  0  0  0  0  0  0  0  0  0  0
    3.8287   -1.1757   -2.7294 C   0  0  0  0  0  0  0  0  0  0  0  0
    2.5148   -1.1270   -2.2611 C   0  0  0  0  0  0  0  0  0  0  0  0
    2.2328   -0.5497   -1.0241 C   0  0  0  0  0  0  0  0  0  0  0  0
    0.9367   -0.4642   -0.4730 N   0  0  0  0  0  0  0  0  0  0  0  0
   -0.2460   -0.8870   -1.0450 C   0  0  0  0  0  0  0  0  0  0  0  0
   -0.4199   -1.3613   -2.1590 O   0  0  0  0  0  0  0  0  0  0  0  0
   -1.4375   -0.6710   -0.1936 C   0  0  0  0  0  0  0  0  0  0  0  0
   -2.4212    0.1719   -0.7151 C   0  0  0  0  0  0  0  0  0  0  0  0
   -3.5395    0.4398    0.0547 C   0  0  0  0  0  0  0  0  0  0  0  0
   -4.6390    1.3202   -0.3826 C   0  0  0  0  0  0  0  0  0  0  0  0
   -5.9423    1.1733    0.1186 C   0  0  0  0  0  0  0  0  0  0  0  0
   -6.9731    2.0114   -0.3056 C   0  0  0  0  0  0  0  0  0  0  0  0
   -6.6777    2.9944   -1.2308 C   0  0  0  0  0  0  0  0  0  0  0  0
   -5.4458    3.1882   -1.7416 N   0  0  0  0  0  0  0  0  0  0  0  0
   -4.4667    2.3551   -1.3043 C   0  0  0  0  0  0  0  0  0  0  0  0
   -3.6880   -0.1129    1.2860 N   0  0  0  0  0  0  0  0  0  0  0  0
   -2.7556   -0.9467    1.7741 C   0  0  0  0  0  0  0  0  0  0  0  0
   -2.9646   -1.5023    3.0298 C   0  0  0  0  0  0  0  0  0  0  0  0
   -2.0561   -2.3947    3.6050 C   0  0  0  0  0  0  0  0  0  0  0  0
   -0.9126   -2.7471    2.9049 C   0  0  0  0  0  0  0  0  0  0  0  0
    0.2072   -3.8560    3.5901 Cl  0  0  0  0  0  0  0  0  0  0  0  0
   -0.6732   -2.2036    1.6456 C   0  0  0  0  0  0  0  0  0  0  0  0
   -1.5864   -1.2825    1.0689 C   0  0  0  0  0  0  0  0  0  0  0  0
    3.2858   -0.0234   -0.2588 C   0  0  0  0  0  0  0  0  0  0  0  0
    7.0189    1.9994    2.6321 H   0  0  0  0  0  0  0  0  0  0  0  0
    7.5249    2.1297    0.9339 H   0  0  0  0  0  0  0  0  0  0  0  0
    7.7040    0.5777    1.8098 H   0  0  0  0  0  0  0  0  0  0  0  0
    6.6108    0.3456   -0.4474 H   0  0  0  0  0  0  0  0  0  0  0  0
    5.8802   -0.7020   -2.3546 H   0  0  0  0  0  0  0  0  0  0  0  0
    4.0383   -1.6275   -3.6960 H   0  0  0  0  0  0  0  0  0  0  0  0
    1.7349   -1.5506   -2.8862 H   0  0  0  0  0  0  0  0  0  0  0  0
    0.8788   -0.0197    0.4371 H   0  0  0  0  0  0  0  0  0  0  0  0
   -2.2977    0.5874   -1.7105 H   0  0  0  0  0  0  0  0  0  0  0  0
   -6.1618    0.3946    0.8468 H   0  0  0  0  0  0  0  0  0  0  0  0
   -7.9797    1.8959    0.0795 H   0  0  0  0  0  0  0  0  0  0  0  0
   -7.4444    3.6722   -1.5944 H   0  0  0  0  0  0  0  0  0  0  0  0
   -3.4948    2.5760   -1.7377 H   0  0  0  0  0  0  0  0  0  0  0  0
   -3.8668   -1.2365    3.5776 H   0  0  0  0  0  0  0  0  0  0  0  0
   -2.2567   -2.8103    4.5889 H   0  0  0  0  0  0  0  0  0  0  0  0
    0.2203   -2.5131    1.1065 H   0  0  0  0  0  0  0  0  0  0  0  0
    3.0568    0.4223    0.7030 H   0  0  0  0  0  0  0  0  0  0  0  0
  1  2  1  0
  2  3  2  0
  2  4  1  0
  4  5  1  0
  5  6  2  0
  6  7  1  0
  7  8  2  0
  8  9  1  0
  9 10  1  0
 10 11  1  0
 11 12  2  0
 11 13  1  0
 13 14  2  0
 14 15  1  0
 15 16  1  0
 16 17  2  0
 17 18  1  0
 18 19  2  0
 19 20  1  0
 20 21  2  0
 15 22  2  0
 22 23  1  0
 23 24  2  0
 24 25  1  0
 25 26  2  0
 26 27  1  0
 26 28  1  0
 28 29  2  0
  9 30  2  0
 30  5  1  0
 29 13  1  0
 21 16  1  0
 29 23  1  0
  1 31  1  0
  1 32  1  0
  1 33  1  0
  4 34  1  0
  6 35  1  0
  7 36  1  0
  8 37  1  0
 10 38  1  0
 14 39  1  0
 17 40  1  0
 18 41  1  0
 19 42  1  0
 21 43  1  0
 24 44  1  0
 25 45  1  0
 28 46  1  0
 30 47  1  0
M  END
$$$$
