
     RDKit          3D

 72 77  0  0  0  0  0  0  0  0999 V2000
    4.0632   -1.3642   -0.4948 O   0  0  0  0  0  0  0  0  0  0  0  0
    4.5185   -0.2999   -0.9070 C   0  0  0  0  0  0  0  0  0  0  0  0
    3.7850    0.5370   -1.9371 C   0  0  0  0  0  0  0  0  0  0  0  0
    2.9713    1.9664   -1.1716 S   0  0  0  0  0  0  0  0  0  0  0  0
    2.2638    1.1716    0.2292 C   0  0  0  0  0  0  0  0  0  0  0  0
    2.8558    1.4215    1.3647 N   0  0  0  0  0  0  0  0  0  0  0  0
    2.3768    0.8202    2.5497 C   0  0  0  0  0  0  0  0  0  0  0  0
    3.0276    1.0921    3.7539 C   0  0  0  0  0  0  0  0  0  0  0  0
    2.5805    0.5149    4.9457 C   0  0  0  0  0  0  0  0  0  0  0  0
    1.4774   -0.3405    4.9403 C   0  0  0  0  0  0  0  0  0  0  0  0
    0.8178   -0.6219    3.7437 C   0  0  0  0  0  0  0  0  0  0  0  0
    1.2674   -0.0431    2.5540 C   0  0  0  0  0  0  0  0  0  0  0  0
    0.6286   -0.2874    1.2747 C   0  0  0  0  0  0  0  0  0  0  0  0
   -0.4151   -1.0436    1.0011 N   0  0  0  0  0  0  0  0  0  0  0  0
   -0.5969   -0.9303   -0.3564 C   0  0  0  0  0  0  0  0  0  0  0  0
   -1.6590   -1.7256   -1.0294 C   0  0  0  0  0  0  0  0  0  0  0  0
   -2.4933   -0.8536   -1.9520 C   0  0  0  0  0  0  0  0  0  0  0  0
   -1.9928   -0.4365   -3.0045 O   0  0  0  0  0  0  0  0  0  0  0  0
   -3.7865   -0.5379   -1.5797 N   0  0  0  0  0  0  0  0  0  0  0  0
   -4.3589   -0.8181   -0.2573 C   0  0  0  0  0  0  0  0  0  0  0  0
   -5.6228    0.0049    0.0635 C   0  0  0  0  0  0  0  0  0  0  0  0
   -6.6234   -0.1141   -1.0072 N   0  0  0  0  0  0  0  0  0  0  0  0
   -7.9723    0.1262   -0.7745 C   0  0  0  0  0  0  0  0  0  0  0  0
   -8.4353    0.7425    0.4001 C   0  0  0  0  0  0  0  0  0  0  0  0
   -9.7980    0.9735    0.6305 C   0  0  0  0  0  0  0  0  0  0  0  0
  -10.7418    0.5862   -0.3129 C   0  0  0  0  0  0  0  0  0  0  0  0
  -10.3198   -0.0323   -1.4827 C   0  0  0  0  0  0  0  0  0  0  0  0
   -8.9552   -0.2573   -1.7047 C   0  0  0  0  0  0  0  0  0  0  0  0
   -6.1208   -0.1707   -2.3949 C   0  0  0  0  0  0  0  0  0  0  0  0
   -4.6360    0.2244   -2.4965 C   0  0  0  0  0  0  0  0  0  0  0  0
    0.3272   -0.0536   -0.9053 C   0  0  0  0  0  0  0  0  0  0  0  0
    0.4890    0.3908   -2.1488 O   0  0  0  0  0  0  0  0  0  0  0  0
    1.1392    0.3304    0.1486 N   0  0  0  0  0  0  0  0  0  0  0  0
    5.7143    0.2361   -0.4793 N   0  0  0  0  0  0  0  0  0  0  0  0
    6.4067   -0.3395    0.6618 C   0  0  0  0  0  0  0  0  0  0  0  0
    7.8636    0.1141    0.7443 C   0  0  0  0  0  0  0  0  0  0  0  0
    8.7453   -0.3826   -0.3901 C   0  0  0  0  0  0  0  0  0  0  0  0
    9.8573    0.6368   -0.3700 C   0  0  0  0  0  0  0  0  0  0  0  0
    9.1129    1.9169   -0.0505 C   0  0  0  0  0  0  0  0  0  0  0  0
    7.9526    1.5542    0.7146 O   0  0  0  0  0  0  0  0  0  0  0  0
    3.0567   -0.0949   -2.4536 H   0  0  0  0  0  0  0  0  0  0  0  0
    4.4966    0.8919   -2.6896 H   0  0  0  0  0  0  0  0  0  0  0  0
    3.8870    1.7579    3.7598 H   0  0  0  0  0  0  0  0  0  0  0  0
    3.0951    0.7336    5.8780 H   0  0  0  0  0  0  0  0  0  0  0  0
    1.1314   -0.7884    5.8688 H   0  0  0  0  0  0  0  0  0  0  0  0
   -0.0415   -1.2890    3.7367 H   0  0  0  0  0  0  0  0  0  0  0  0
   -1.1924   -2.5021   -1.6482 H   0  0  0  0  0  0  0  0  0  0  0  0
   -2.2722   -2.2595   -0.2999 H   0  0  0  0  0  0  0  0  0  0  0  0
   -3.6008   -0.6314    0.5103 H   0  0  0  0  0  0  0  0  0  0  0  0
   -4.6035   -1.8865   -0.2417 H   0  0  0  0  0  0  0  0  0  0  0  0
   -5.3543    1.0605    0.1917 H   0  0  0  0  0  0  0  0  0  0  0  0
   -6.0175   -0.3655    1.0166 H   0  0  0  0  0  0  0  0  0  0  0  0
   -7.7396    1.0821    1.1620 H   0  0  0  0  0  0  0  0  0  0  0  0
  -10.1148    1.4596    1.5495 H   0  0  0  0  0  0  0  0  0  0  0  0
  -11.7992    0.7624   -0.1363 H   0  0  0  0  0  0  0  0  0  0  0  0
  -11.0476   -0.3488   -2.2251 H   0  0  0  0  0  0  0  0  0  0  0  0
   -8.6752   -0.7682   -2.6225 H   0  0  0  0  0  0  0  0  0  0  0  0
   -6.2461   -1.1942   -2.7699 H   0  0  0  0  0  0  0  0  0  0  0  0
   -6.6872    0.5051   -3.0479 H   0  0  0  0  0  0  0  0  0  0  0  0
   -4.5099    1.2828   -2.2385 H   0  0  0  0  0  0  0  0  0  0  0  0
   -4.2938    0.0958   -3.5290 H   0  0  0  0  0  0  0  0  0  0  0  0
   -0.2862    0.1076   -2.6875 H   0  0  0  0  0  0  0  0  0  0  0  0
    5.8183    1.2425   -0.5716 H   0  0  0  0  0  0  0  0  0  0  0  0
    5.8608    0.0013    1.5493 H   0  0  0  0  0  0  0  0  0  0  0  0
    6.3421   -1.4323    0.6213 H   0  0  0  0  0  0  0  0  0  0  0  0
    8.2840   -0.2122    1.7040 H   0  0  0  0  0  0  0  0  0  0  0  0
    8.2267   -0.3366   -1.3538 H   0  0  0  0  0  0  0  0  0  0  0  0
    9.0954   -1.4072   -0.2379 H   0  0  0  0  0  0  0  0  0  0  0  0
   10.4203    0.6932   -1.3056 H   0  0  0  0  0  0  0  0  0  0  0  0
   10.5616    0.4019    0.4376 H   0  0  0  0  0  0  0  0  0  0  0  0
    9.7233    2.6215    0.5222 H   0  0  0  0  0  0  0  0  0  0  0  0
    8.7680    2.4159   -0.9623 H   0  0  0  0  0  0  0  0  0  0  0  0
  1  2  2  0
  2  3  1  0
  3  4  1  0
  4  5  1  0
  5  6  2  0
  6  7  1  0
  7  8  2  0
  8  9  1  0
  9 10  2  0
 10 11  1  0
 11 12  2  0
 12 13  1  0
 13 14  2  0
 14 15  1  0
 15 16  1  0
 16 17  1  0
 17 18  2  0
 17 19  1  0
 19 20  1  0
 20 21  1  0
 21 22  1  0
 22 23  1  0
 23 24  2  0
 24 25  1  0
 25 26  2  0
 26 27  1  0
 27 28  2  0
 22 29  1  0
 29 30  1  0
 15 31  2  0
 31 32  1  0
 31 33  1  0
  2 34  1  0
 34 35  1  0
 35 36  1  0
 36 37  1  0
 37 38  1  0
 38 39  1  0
 39 40  1  0
 33  5  1  0
 40 36  1  0
 12  7  1  0
 33 13  1  0
 30 19  1  0
 28 23  1  0
  3 41  1  0
  3 42  1  0
  8 43  1  0
  9 44  1  0
 10 45  1  0
 11 46  1  0
 16 47  1  0
 16 48  1  0
 20 49  1  0
 20 50  1  0
 21 51  1  0
 21 52  1  0
 24 53  1  0
 25 54  1  0
 26 55  1  0
 27 56  1  0
 28 57  1  0
 29 58  1  0
 29 59  1  0
 30 60  1  0
 30 61  1  0
 32 62  1  0
 34 63  1  0
 35 64  1  0
 35 65  1  0
 36 66  1  0
 37 67  1  0
 37 68  1  0
 38 69  1  0
 38 70  1  0
 39 71  1  0
 39 72  1  0
M  END
$$$$
