
     RDKit          3D

 57 60  0  0  0  0  0  0  0  0999 V2000
   -5.8919    2.7870   -0.4844 C   0  0  0  0  0  0  0  0  0  0  0  0
   -5.5694    1.4857    0.1461 C   0  0  0  0  0  0  0  0  0  0  0  0
   -6.5529    0.7116    0.6159 N   0  0  0  0  0  0  0  0  0  0  0  0
   -5.9347   -0.4090    1.1332 O   0  0  0  0  0  0  0  0  0  0  0  0
   -4.5894   -0.3012    0.9764 C   0  0  0  0  0  0  0  0  0  0  0  0
   -3.7890   -1.4337    1.4825 C   0  0  0  0  0  0  0  0  0  0  0  0
   -4.2931    0.8881    0.3428 C   0  0  0  0  0  0  0  0  0  0  0  0
   -2.9629    1.4376   -0.0330 C   0  0  0  0  0  0  0  0  0  0  0  0
   -2.0245    0.4592   -0.4969 O   0  0  0  0  0  0  0  0  0  0  0  0
   -2.2546   -0.1602   -1.6959 C   0  0  0  0  0  0  0  0  0  0  0  0
   -3.0496    0.3614   -2.7200 C   0  0  0  0  0  0  0  0  0  0  0  0
   -3.2304   -0.3533   -3.9103 C   0  0  0  0  0  0  0  0  0  0  0  0
   -2.6220   -1.5942   -4.0909 C   0  0  0  0  0  0  0  0  0  0  0  0
   -1.8188   -2.1222   -3.0840 C   0  0  0  0  0  0  0  0  0  0  0  0
   -1.6209   -1.3970   -1.9027 C   0  0  0  0  0  0  0  0  0  0  0  0
   -0.7840   -2.0170   -0.8547 C   0  0  0  0  0  0  0  0  0  0  0  0
   -1.2054   -3.0446   -0.3276 O   0  0  0  0  0  0  0  0  0  0  0  0
    0.4322   -1.4253   -0.5254 N   0  0  0  0  0  0  0  0  0  0  0  0
    1.1369   -0.4657   -1.3866 C   0  0  0  0  0  0  0  0  0  0  0  0
    2.0121    0.5061   -0.5751 C   0  0  0  0  0  0  0  0  0  0  0  0
    2.9256   -0.2400    0.3173 N   0  0  0  0  0  0  0  0  0  0  0  0
    3.9540    0.4756    0.9502 C   0  0  0  0  0  0  0  0  0  0  0  0
    3.9744    1.8720    1.0657 C   0  0  0  0  0  0  0  0  0  0  0  0
    5.0323    2.5377    1.6945 C   0  0  0  0  0  0  0  0  0  0  0  0
    6.1026    1.8176    2.2170 C   0  0  0  0  0  0  0  0  0  0  0  0
    6.1227    0.4230    2.1159 C   0  0  0  0  0  0  0  0  0  0  0  0
    7.2818   -0.3824    2.6429 C   0  0  0  0  0  0  0  0  0  0  0  0
    8.0820    0.3152    3.4981 F   0  0  0  0  0  0  0  0  0  0  0  0
    6.8858   -1.4908    3.3299 F   0  0  0  0  0  0  0  0  0  0  0  0
    8.0995   -0.8303    1.6503 F   0  0  0  0  0  0  0  0  0  0  0  0
    5.0510   -0.2272    1.4772 C   0  0  0  0  0  0  0  0  0  0  0  0
    2.1932   -1.1546    1.2330 C   0  0  0  0  0  0  0  0  0  0  0  0
    1.2900   -2.1172    0.4401 C   0  0  0  0  0  0  0  0  0  0  0  0
   -5.3154    3.5917   -0.0172 H   0  0  0  0  0  0  0  0  0  0  0  0
   -5.6476    2.7624   -1.5510 H   0  0  0  0  0  0  0  0  0  0  0  0
   -6.9540    3.0332   -0.3852 H   0  0  0  0  0  0  0  0  0  0  0  0
   -2.7566   -1.1327    1.6819 H   0  0  0  0  0  0  0  0  0  0  0  0
   -4.2093   -1.8185    2.4165 H   0  0  0  0  0  0  0  0  0  0  0  0
   -3.7789   -2.2466    0.7512 H   0  0  0  0  0  0  0  0  0  0  0  0
   -3.0351    2.2653   -0.7472 H   0  0  0  0  0  0  0  0  0  0  0  0
   -2.5186    1.8737    0.8702 H   0  0  0  0  0  0  0  0  0  0  0  0
   -3.5469    1.3206   -2.6307 H   0  0  0  0  0  0  0  0  0  0  0  0
   -3.8600    0.0574   -4.6969 H   0  0  0  0  0  0  0  0  0  0  0  0
   -2.7806   -2.1522   -5.0106 H   0  0  0  0  0  0  0  0  0  0  0  0
   -1.3545   -3.0973   -3.2100 H   0  0  0  0  0  0  0  0  0  0  0  0
    0.4420    0.1059   -2.0050 H   0  0  0  0  0  0  0  0  0  0  0  0
    1.7629   -1.0561   -2.0674 H   0  0  0  0  0  0  0  0  0  0  0  0
    2.5825    1.1222   -1.2806 H   0  0  0  0  0  0  0  0  0  0  0  0
    1.3605    1.1624    0.0162 H   0  0  0  0  0  0  0  0  0  0  0  0
    3.1592    2.4776    0.6821 H   0  0  0  0  0  0  0  0  0  0  0  0
    5.0174    3.6222    1.7729 H   0  0  0  0  0  0  0  0  0  0  0  0
    6.9221    2.3488    2.6986 H   0  0  0  0  0  0  0  0  0  0  0  0
    5.0883   -1.3107    1.3659 H   0  0  0  0  0  0  0  0  0  0  0  0
    1.5766   -0.5581    1.9185 H   0  0  0  0  0  0  0  0  0  0  0  0
    2.8762   -1.7584    1.8412 H   0  0  0  0  0  0  0  0  0  0  0  0
    0.6818   -2.7010    1.1394 H   0  0  0  0  0  0  0  0  0  0  0  0
    1.9053   -2.8238   -0.1307 H   0  0  0  0  0  0  0  0  0  0  0  0
  1  2  1  0
  2  3  2  0
  3  4  1  0
  4  5  1  0
  5  6  1  0
  5  7  2  0
  7  8  1  0
  8  9  1  0
  9 10  1  0
 10 11  2  0
 11 12  1  0
 12 13  2  0
 13 14  1  0
 14 15  2  0
 15 16  1  0
 16 17  2  0
 16 18  1  0
 18 19  1  0
 19 20  1  0
 20 21  1  0
 21 22  1  0
 22 23  2  0
 23 24  1  0
 24 25  2  0
 25 26  1  0
 26 27  1  0
 27 28  1  0
 27 29  1  0
 27 30  1  0
 26 31  2  0
 21 32  1  0
 32 33  1  0
  7  2  1  0
 15 10  1  0
 33 18  1  0
 31 22  1  0
  1 34  1  0
  1 35  1  0
  1 36  1  0
  6 37  1  0
  6 38  1  0
  6 39  1  0
  8 40  1  0
  8 41  1  0
 11 42  1  0
 12 43  1  0
 13 44  1  0
 14 45  1  0
 19 46  1  0
 19 47  1  0
 20 48  1  0
 20 49  1  0
 23 50  1  0
 24 51  1  0
 25 52  1  0
 31 53  1  0
 32 54  1  0
 32 55  1  0
 33 56  1  0
 33 57  1  0
M  END
$$$$
