
     RDKit          3D

 62 64  0  0  0  0  0  0  0  0999 V2000
    5.7705    1.3166   -1.7833 C   0  0  0  0  0  0  0  0  0  0  0  0
    5.9428    0.7694   -0.3904 C   0  0  0  0  0  0  0  0  0  0  0  0
    7.2704    0.6418    0.0649 C   0  0  0  0  0  0  0  0  0  0  0  0
    7.5602    0.0524    1.2911 C   0  0  0  0  0  0  0  0  0  0  0  0
    6.5245   -0.4237    2.0857 C   0  0  0  0  0  0  0  0  0  0  0  0
    5.1856   -0.2883    1.6778 C   0  0  0  0  0  0  0  0  0  0  0  0
    4.1139   -0.8064    2.6044 C   0  0  0  0  0  0  0  0  0  0  0  0
    4.8834    0.3488    0.4459 C   0  0  0  0  0  0  0  0  0  0  0  0
    3.5143    0.4667    0.0948 N   0  0  0  0  0  0  0  0  0  0  0  0
    2.9151    1.5217   -0.5734 C   0  0  0  0  0  0  0  0  0  0  0  0
    3.4428    2.5966   -0.8493 O   0  0  0  0  0  0  0  0  0  0  0  0
    1.4316    1.2829   -0.8881 C   0  0  0  0  0  0  0  0  0  0  0  0
    1.1468    0.0496   -1.5530 O   0  0  0  0  0  0  0  0  0  0  0  0
    0.9769   -1.0252   -0.7410 C   0  0  0  0  0  0  0  0  0  0  0  0
    1.1421   -0.9997    0.4748 O   0  0  0  0  0  0  0  0  0  0  0  0
    0.6790   -2.2843   -1.5166 C   0  0  0  0  0  0  0  0  0  0  0  0
   -0.3114   -2.0942   -2.6634 C   0  0  0  0  0  0  0  0  0  0  0  0
   -1.6845   -1.6525   -2.2124 C   0  0  0  0  0  0  0  0  0  0  0  0
   -2.5014   -2.5111   -1.4604 C   0  0  0  0  0  0  0  0  0  0  0  0
   -3.7695   -2.1000   -1.0443 C   0  0  0  0  0  0  0  0  0  0  0  0
   -4.2223   -0.8196   -1.3724 C   0  0  0  0  0  0  0  0  0  0  0  0
   -5.8473   -0.2972   -0.8580 S   0  0  0  0  0  6  0  0  0  0  0  0
   -6.6184   -1.4903   -0.5796 O   0  0  0  0  0  0  0  0  0  0  0  0
   -6.3082    0.6860   -1.8160 O   0  0  0  0  0  0  0  0  0  0  0  0
   -5.5435    0.4936    0.6138 N   0  0  0  0  0  0  0  0  0  0  0  0
   -4.9376    1.8436    0.5451 C   0  0  0  0  0  0  0  0  0  0  0  0
   -4.7633    2.4095    1.9496 C   0  0  0  0  0  0  0  0  0  0  0  0
   -3.8177    1.5472    2.7868 C   0  0  0  0  0  0  0  0  0  0  0  0
   -3.8222    0.0821    2.3529 C   0  0  0  0  0  0  0  0  0  0  0  0
   -5.1735   -0.3347    1.7864 C   0  0  0  0  0  0  0  0  0  0  0  0
   -3.4353    0.0329   -2.1511 C   0  0  0  0  0  0  0  0  0  0  0  0
   -2.1660   -0.3818   -2.5604 C   0  0  0  0  0  0  0  0  0  0  0  0
    5.7251    2.4098   -1.7632 H   0  0  0  0  0  0  0  0  0  0  0  0
    6.6193    1.0287   -2.4160 H   0  0  0  0  0  0  0  0  0  0  0  0
    4.8865    0.9060   -2.2774 H   0  0  0  0  0  0  0  0  0  0  0  0
    8.0950    0.9878   -0.5578 H   0  0  0  0  0  0  0  0  0  0  0  0
    8.5920   -0.0464    1.6197 H   0  0  0  0  0  0  0  0  0  0  0  0
    6.7677   -0.8954    3.0368 H   0  0  0  0  0  0  0  0  0  0  0  0
    3.4307    0.0008    2.8884 H   0  0  0  0  0  0  0  0  0  0  0  0
    4.5408   -1.2107    3.5297 H   0  0  0  0  0  0  0  0  0  0  0  0
    3.5538   -1.6138    2.1223 H   0  0  0  0  0  0  0  0  0  0  0  0
    2.8599   -0.0961    0.6342 H   0  0  0  0  0  0  0  0  0  0  0  0
    0.8429    1.3939    0.0323 H   0  0  0  0  0  0  0  0  0  0  0  0
    1.1068    2.0798   -1.5683 H   0  0  0  0  0  0  0  0  0  0  0  0
    1.6313   -2.6629   -1.9080 H   0  0  0  0  0  0  0  0  0  0  0  0
    0.2947   -3.0292   -0.8084 H   0  0  0  0  0  0  0  0  0  0  0  0
   -0.4215   -3.0442   -3.2020 H   0  0  0  0  0  0  0  0  0  0  0  0
    0.0906   -1.3829   -3.3962 H   0  0  0  0  0  0  0  0  0  0  0  0
   -2.1607   -3.5127   -1.2034 H   0  0  0  0  0  0  0  0  0  0  0  0
   -4.3972   -2.7838   -0.4754 H   0  0  0  0  0  0  0  0  0  0  0  0
   -5.5956    2.5100   -0.0253 H   0  0  0  0  0  0  0  0  0  0  0  0
   -3.9650    1.8056    0.0423 H   0  0  0  0  0  0  0  0  0  0  0  0
   -4.3820    3.4358    1.9035 H   0  0  0  0  0  0  0  0  0  0  0  0
   -5.7418    2.4586    2.4458 H   0  0  0  0  0  0  0  0  0  0  0  0
   -2.7941    1.9344    2.7113 H   0  0  0  0  0  0  0  0  0  0  0  0
   -4.1006    1.6297    3.8434 H   0  0  0  0  0  0  0  0  0  0  0  0
   -3.0480   -0.0689    1.5892 H   0  0  0  0  0  0  0  0  0  0  0  0
   -3.5487   -0.5554    3.2023 H   0  0  0  0  0  0  0  0  0  0  0  0
   -5.1414   -1.3979    1.5327 H   0  0  0  0  0  0  0  0  0  0  0  0
   -5.9564   -0.2187    2.5452 H   0  0  0  0  0  0  0  0  0  0  0  0
   -3.8030    1.0141   -2.4446 H   0  0  0  0  0  0  0  0  0  0  0  0
   -1.5587    0.2915   -3.1633 H   0  0  0  0  0  0  0  0  0  0  0  0
  1  2  1  0
  2  3  2  0
  3  4  1  0
  4  5  2  0
  5  6  1  0
  6  7  1  0
  6  8  2  0
  8  9  1  0
  9 10  1  0
 10 11  2  0
 10 12  1  0
 12 13  1  0
 13 14  1  0
 14 15  2  0
 14 16  1  0
 16 17  1  0
 17 18  1  0
 18 19  2  0
 19 20  1  0
 20 21  2  0
 21 22  1  0
 22 23  2  0
 22 24  2  0
 22 25  1  0
 25 26  1  0
 26 27  1  0
 27 28  1  0
 28 29  1  0
 29 30  1  0
 21 31  1  0
 31 32  2  0
  8  2  1  0
 32 18  1  0
 30 25  1  0
  1 33  1  0
  1 34  1  0
  1 35  1  0
  3 36  1  0
  4 37  1  0
  5 38  1  0
  7 39  1  0
  7 40  1  0
  7 41  1  0
  9 42  1  0
 12 43  1  0
 12 44  1  0
 16 45  1  0
 16 46  1  0
 17 47  1  0
 17 48  1  0
 19 49  1  0
 20 50  1  0
 26 51  1  0
 26 52  1  0
 27 53  1  0
 27 54  1  0
 28 55  1  0
 28 56  1  0
 29 57  1  0
 29 58  1  0
 30 59  1  0
 30 60  1  0
 31 61  1  0
 32 62  1  0
M  END
$$$$
