
     RDKit          3D

 40 42  0  0  0  0  0  0  0  0999 V2000
    5.9042    1.4659   -0.9990 C   0  0  0  0  0  0  0  0  0  0  0  0
    5.4856    0.6441    0.2104 C   0  0  0  0  0  0  0  0  0  0  0  0
    3.9925    0.4409    0.2606 C   0  0  0  0  0  0  0  0  0  0  0  0
    3.1740    1.3605    0.9268 C   0  0  0  0  0  0  0  0  0  0  0  0
    1.7887    1.1827    0.9579 C   0  0  0  0  0  0  0  0  0  0  0  0
    1.2025    0.0843    0.3184 C   0  0  0  0  0  0  0  0  0  0  0  0
   -0.2699   -0.0770    0.3738 C   0  0  0  0  0  0  0  0  0  0  0  0
   -1.0374    0.6984    1.0766 N   0  0  0  0  0  0  0  0  0  0  0  0
   -2.4391    0.2536    0.8169 N   0  0  0  0  0  0  0  0  0  0  0  0
   -3.5439    0.2195    2.1115 S   0  0  0  0  0  6  0  0  0  0  0  0
   -2.6742   -0.8088    3.2758 C   0  0  0  0  0  0  0  0  0  0  0  0
   -3.6457    1.5412    2.6943 O   0  0  0  0  0  0  0  0  0  0  0  0
   -4.7266   -0.5080    1.6929 O   0  0  0  0  0  0  0  0  0  0  0  0
   -2.4499   -0.8806   -0.1306 C   0  0  0  0  0  0  0  0  0  0  0  0
   -3.1841   -0.4774   -1.3852 C   0  0  0  0  0  0  0  0  0  0  0  0
   -4.4014   -0.9635   -1.8299 C   0  0  0  0  0  0  0  0  0  0  0  0
   -4.8215   -0.3632   -3.0512 C   0  0  0  0  0  0  0  0  0  0  0  0
   -3.9189    0.5723   -3.5010 C   0  0  0  0  0  0  0  0  0  0  0  0
   -2.5797    0.7277   -2.4526 S   0  0  0  0  0  0  0  0  0  0  0  0
   -0.9698   -1.2033   -0.3452 C   0  0  0  0  0  0  0  0  0  0  0  0
    2.0150   -0.8338   -0.3543 C   0  0  0  0  0  0  0  0  0  0  0  0
    3.4015   -0.6532   -0.3838 C   0  0  0  0  0  0  0  0  0  0  0  0
    6.9907    1.5978   -1.0090 H   0  0  0  0  0  0  0  0  0  0  0  0
    5.6136    0.9743   -1.9336 H   0  0  0  0  0  0  0  0  0  0  0  0
    5.4415    2.4587   -0.9840 H   0  0  0  0  0  0  0  0  0  0  0  0
    5.8217    1.1393    1.1296 H   0  0  0  0  0  0  0  0  0  0  0  0
    5.9895   -0.3300    0.1894 H   0  0  0  0  0  0  0  0  0  0  0  0
    3.6087    2.2253    1.4242 H   0  0  0  0  0  0  0  0  0  0  0  0
    1.1739    1.9137    1.4802 H   0  0  0  0  0  0  0  0  0  0  0  0
   -1.7459   -0.3169    3.5704 H   0  0  0  0  0  0  0  0  0  0  0  0
   -2.4785   -1.7815    2.8216 H   0  0  0  0  0  0  0  0  0  0  0  0
   -3.3146   -0.9357    4.1518 H   0  0  0  0  0  0  0  0  0  0  0  0
   -2.9326   -1.7647    0.3024 H   0  0  0  0  0  0  0  0  0  0  0  0
   -4.9770   -1.7081   -1.2913 H   0  0  0  0  0  0  0  0  0  0  0  0
   -5.7462   -0.5953   -3.5652 H   0  0  0  0  0  0  0  0  0  0  0  0
   -3.9867    1.1841   -4.3900 H   0  0  0  0  0  0  0  0  0  0  0  0
   -0.6704   -1.2731   -1.3939 H   0  0  0  0  0  0  0  0  0  0  0  0
   -0.7107   -2.1410    0.1601 H   0  0  0  0  0  0  0  0  0  0  0  0
    1.5995   -1.6970   -0.8650 H   0  0  0  0  0  0  0  0  0  0  0  0
    4.0211   -1.3723   -0.9167 H   0  0  0  0  0  0  0  0  0  0  0  0
  1  2  1  0
  2  3  1  0
  3  4  2  0
  4  5  1  0
  5  6  2  0
  6  7  1  0
  7  8  2  0
  8  9  1  0
  9 10  1  0
 10 11  1  0
 10 12  2  0
 10 13  2  0
  9 14  1  0
 14 15  1  0
 15 16  2  0
 16 17  1  0
 17 18  2  0
 18 19  1  0
 14 20  1  0
  6 21  1  0
 21 22  2  0
 22  3  1  0
 20  7  1  0
 19 15  1  0
  1 23  1  0
  1 24  1  0
  1 25  1  0
  2 26  1  0
  2 27  1  0
  4 28  1  0
  5 29  1  0
 11 30  1  0
 11 31  1  0
 11 32  1  0
 14 33  1  0
 16 34  1  0
 17 35  1  0
 18 36  1  0
 20 37  1  0
 20 38  1  0
 21 39  1  0
 22 40  1  0
M  END
$$$$
