
     RDKit          3D

 41 43  0  0  0  0  0  0  0  0999 V2000
   -1.7274    1.0339    2.9801 O   0  0  0  0  0  0  0  0  0  0  0  0
   -2.2648    0.8191    1.8912 C   0  0  0  0  0  0  0  0  0  0  0  0
   -3.4170   -0.1659    1.7689 C   0  0  0  0  0  0  0  0  0  0  0  0
   -4.1068   -0.2182    0.4267 C   0  0  0  0  0  0  0  0  0  0  0  0
   -3.7506   -1.1919   -0.5175 C   0  0  0  0  0  0  0  0  0  0  0  0
   -4.3609   -1.2107   -1.7722 C   0  0  0  0  0  0  0  0  0  0  0  0
   -5.3257   -0.2577   -2.0960 C   0  0  0  0  0  0  0  0  0  0  0  0
   -5.6858    0.7137   -1.1637 C   0  0  0  0  0  0  0  0  0  0  0  0
   -5.0806    0.7353    0.0935 C   0  0  0  0  0  0  0  0  0  0  0  0
   -1.8513    1.4395    0.7263 N   0  0  0  0  0  0  0  0  0  0  0  0
   -0.6077    2.0951    0.7773 N   0  0  0  0  0  0  0  0  0  0  0  0
    0.5389    1.3507    0.5506 C   0  0  0  0  0  0  0  0  0  0  0  0
    0.5596    0.1802    0.1945 O   0  0  0  0  0  0  0  0  0  0  0  0
    1.7319    2.2245    0.7594 C   0  0  0  0  0  0  0  0  0  0  0  0
    3.0271    1.8847    0.6870 C   0  0  0  0  0  0  0  0  0  0  0  0
    3.5587    0.5482    0.4083 C   0  0  0  0  0  0  0  0  0  0  0  0
    3.3843   -0.5036    1.3155 C   0  0  0  0  0  0  0  0  0  0  0  0
    3.9246   -1.7647    1.0456 C   0  0  0  0  0  0  0  0  0  0  0  0
    4.6505   -1.9833   -0.1313 C   0  0  0  0  0  0  0  0  0  0  0  0
    5.2093   -3.3357   -0.3715 C   0  0  0  0  0  0  0  0  0  0  0  0
    5.1327   -4.2847    0.3873 O   0  0  0  0  0  0  0  0  0  0  0  0
    5.8409   -3.4386   -1.5545 O   0  0  0  0  0  0  0  0  0  0  0  0
    4.8367   -0.9293   -1.0348 C   0  0  0  0  0  0  0  0  0  0  0  0
    4.2946    0.3314   -0.7626 C   0  0  0  0  0  0  0  0  0  0  0  0
    1.2225    3.8456    1.1173 S   0  0  0  0  0  0  0  0  0  0  0  0
   -0.4901    3.4360    1.0715 C   0  0  0  0  0  0  0  0  0  0  0  0
   -1.7074    4.5513    1.3123 S   0  0  0  0  0  0  0  0  0  0  0  0
   -4.1575    0.0867    2.5386 H   0  0  0  0  0  0  0  0  0  0  0  0
   -3.0264   -1.1603    2.0206 H   0  0  0  0  0  0  0  0  0  0  0  0
   -2.9957   -1.9424   -0.2858 H   0  0  0  0  0  0  0  0  0  0  0  0
   -4.0847   -1.9702   -2.4999 H   0  0  0  0  0  0  0  0  0  0  0  0
   -5.8002   -0.2750   -3.0738 H   0  0  0  0  0  0  0  0  0  0  0  0
   -6.4394    1.4552   -1.4178 H   0  0  0  0  0  0  0  0  0  0  0  0
   -5.3717    1.5029    0.8094 H   0  0  0  0  0  0  0  0  0  0  0  0
   -2.0585    0.9947   -0.1642 H   0  0  0  0  0  0  0  0  0  0  0  0
    3.7958    2.6402    0.8404 H   0  0  0  0  0  0  0  0  0  0  0  0
    2.8232   -0.3557    2.2364 H   0  0  0  0  0  0  0  0  0  0  0  0
    3.7743   -2.5746    1.7573 H   0  0  0  0  0  0  0  0  0  0  0  0
    6.1483   -4.3694   -1.5728 H   0  0  0  0  0  0  0  0  0  0  0  0
    5.4025   -1.0772   -1.9510 H   0  0  0  0  0  0  0  0  0  0  0  0
    4.4536    1.1400   -1.4727 H   0  0  0  0  0  0  0  0  0  0  0  0
  1  2  2  0
  2  3  1  0
  3  4  1  0
  4  5  2  0
  5  6  1  0
  6  7  2  0
  7  8  1  0
  8  9  2  0
  2 10  1  0
 10 11  1  0
 11 12  1  0
 12 13  2  0
 12 14  1  0
 14 15  2  3
 15 16  1  0
 16 17  2  0
 17 18  1  0
 18 19  2  0
 19 20  1  0
 20 21  2  0
 20 22  1  0
 19 23  1  0
 23 24  2  0
 14 25  1  0
 25 26  1  0
 26 27  2  0
  9  4  1  0
 26 11  1  0
 24 16  1  0
  3 28  1  0
  3 29  1  0
  5 30  1  0
  6 31  1  0
  7 32  1  0
  8 33  1  0
  9 34  1  0
 10 35  1  0
 15 36  1  0
 17 37  1  0
 18 38  1  0
 22 39  1  0
 23 40  1  0
 24 41  1  0
M  END
$$$$
