
     RDKit          3D

 34 36  0  0  0  0  0  0  0  0999 V2000
    1.7123   -1.9876   -3.0142 S   0  0  0  0  0  0  0  0  0  0  0  0
    2.0891   -1.2579   -1.5423 C   0  0  0  0  0  0  0  0  0  0  0  0
    1.1689   -0.7439   -0.6798 N   0  0  0  0  0  0  0  0  0  0  0  0
    0.7632    0.4761   -0.8265 C   0  0  0  0  0  0  0  0  0  0  0  0
    1.3489    1.6430   -2.0642 S   0  0  0  0  0  0  0  0  0  0  0  0
    0.2768    2.8813   -1.4653 C   0  0  0  0  0  0  0  0  0  0  0  0
   -0.4364    2.4367   -0.4242 C   0  0  0  0  0  0  0  0  0  0  0  0
   -0.1847    1.1271   -0.0430 N   0  0  0  0  0  0  0  0  0  0  0  0
   -0.9034    0.4344    1.0165 C   0  0  0  0  0  0  0  0  0  0  0  0
   -2.2756   -0.0047    0.5557 C   0  0  0  0  0  0  0  0  0  0  0  0
   -2.4170   -1.1040   -0.3048 C   0  0  0  0  0  0  0  0  0  0  0  0
   -3.6804   -1.5057   -0.7406 C   0  0  0  0  0  0  0  0  0  0  0  0
   -4.8153   -0.8141   -0.3225 C   0  0  0  0  0  0  0  0  0  0  0  0
   -4.6886    0.2810    0.5300 C   0  0  0  0  0  0  0  0  0  0  0  0
   -3.4257    0.6859    0.9664 C   0  0  0  0  0  0  0  0  0  0  0  0
    3.4126   -1.2799   -1.1688 N   0  0  0  0  0  0  0  0  0  0  0  0
    4.0490   -1.0095    0.0842 C   0  0  0  0  0  0  0  0  0  0  0  0
    3.8447    0.2495    0.8742 C   0  0  0  0  0  0  0  0  0  0  0  0
    3.3791   -1.0701    1.4257 C   0  0  0  0  0  0  0  0  0  0  0  0
    0.2107    3.8657   -1.9059 H   0  0  0  0  0  0  0  0  0  0  0  0
   -1.1821    3.0029    0.1186 H   0  0  0  0  0  0  0  0  0  0  0  0
   -0.3489   -0.4398    1.3806 H   0  0  0  0  0  0  0  0  0  0  0  0
   -0.9963    1.0956    1.8880 H   0  0  0  0  0  0  0  0  0  0  0  0
   -1.5398   -1.6519   -0.6458 H   0  0  0  0  0  0  0  0  0  0  0  0
   -3.7761   -2.3569   -1.4101 H   0  0  0  0  0  0  0  0  0  0  0  0
   -5.7982   -1.1276   -0.6643 H   0  0  0  0  0  0  0  0  0  0  0  0
   -5.5749    0.8211    0.8529 H   0  0  0  0  0  0  0  0  0  0  0  0
   -3.3472    1.5452    1.6283 H   0  0  0  0  0  0  0  0  0  0  0  0
    3.9920   -1.7210   -1.8759 H   0  0  0  0  0  0  0  0  0  0  0  0
    5.0738   -1.3818    0.0707 H   0  0  0  0  0  0  0  0  0  0  0  0
    3.0985    0.9634    0.5566 H   0  0  0  0  0  0  0  0  0  0  0  0
    4.7175    0.7083    1.3249 H   0  0  0  0  0  0  0  0  0  0  0  0
    3.9382   -1.5018    2.2483 H   0  0  0  0  0  0  0  0  0  0  0  0
    2.3157   -1.2592    1.4844 H   0  0  0  0  0  0  0  0  0  0  0  0
  1  2  2  0
  2  3  1  0
  3  4  2  3
  4  5  1  0
  5  6  1  0
  6  7  2  0
  7  8  1  0
  8  9  1  0
  9 10  1  0
 10 11  2  0
 11 12  1  0
 12 13  2  0
 13 14  1  0
 14 15  2  0
  2 16  1  0
 16 17  1  0
 17 18  1  0
 18 19  1  0
  8  4  1  0
 15 10  1  0
 19 17  1  0
  6 20  1  0
  7 21  1  0
  9 22  1  0
  9 23  1  0
 11 24  1  0
 12 25  1  0
 13 26  1  0
 14 27  1  0
 15 28  1  0
 16 29  1  0
 17 30  1  0
 18 31  1  0
 18 32  1  0
 19 33  1  0
 19 34  1  0
M  END
$$$$
