
     RDKit          3D

 39 41  0  0  0  0  0  0  0  0999 V2000
   -1.4288   -2.5841    2.0346 C   0  0  0  0  0  0  0  0  0  0  0  0
   -1.4152   -2.2869    0.5410 C   0  0  0  0  0  0  0  0  0  0  0  0
   -1.8462   -0.9151    0.2533 N   0  0  0  0  0  0  0  0  0  0  0  0
   -0.9686    0.1480    0.1113 C   0  0  0  0  0  0  0  0  0  0  0  0
    0.4784   -0.1307    0.3063 C   0  0  0  0  0  0  0  0  0  0  0  0
    1.3597    0.3479   -0.5845 C   0  0  0  0  0  0  0  0  0  0  0  0
    2.8121    0.1673   -0.4710 C   0  0  0  0  0  0  0  0  0  0  0  0
    3.6513    1.2367   -0.8153 C   0  0  0  0  0  0  0  0  0  0  0  0
    5.0415    1.1056   -0.7456 C   0  0  0  0  0  0  0  0  0  0  0  0
    5.5981   -0.1043   -0.3415 C   0  0  0  0  0  0  0  0  0  0  0  0
    6.9543   -0.2514   -0.2678 O   0  0  0  0  0  0  0  0  0  0  0  0
    4.7735   -1.1799   -0.0133 C   0  0  0  0  0  0  0  0  0  0  0  0
    5.3411   -2.3635    0.3700 O   0  0  0  0  0  0  0  0  0  0  0  0
    3.3853   -1.0513   -0.0798 C   0  0  0  0  0  0  0  0  0  0  0  0
   -1.3416    1.3595   -0.1648 N   0  0  0  0  0  0  0  0  0  0  0  0
   -2.7034    1.6256   -0.3277 C   0  0  0  0  0  0  0  0  0  0  0  0
   -3.1049    2.9276   -0.6366 C   0  0  0  0  0  0  0  0  0  0  0  0
   -4.4582    3.2362   -0.8016 C   0  0  0  0  0  0  0  0  0  0  0  0
   -5.4239    2.2407   -0.6573 C   0  0  0  0  0  0  0  0  0  0  0  0
   -5.0347    0.9379   -0.3486 C   0  0  0  0  0  0  0  0  0  0  0  0
   -3.6755    0.6416   -0.1865 C   0  0  0  0  0  0  0  0  0  0  0  0
   -3.2247   -0.7213    0.1362 C   0  0  0  0  0  0  0  0  0  0  0  0
   -4.0604   -1.6105    0.2869 O   0  0  0  0  0  0  0  0  0  0  0  0
   -2.4359   -2.4750    2.4501 H   0  0  0  0  0  0  0  0  0  0  0  0
   -0.7697   -1.9045    2.5834 H   0  0  0  0  0  0  0  0  0  0  0  0
   -1.0940   -3.6094    2.2198 H   0  0  0  0  0  0  0  0  0  0  0  0
   -0.4146   -2.4651    0.1353 H   0  0  0  0  0  0  0  0  0  0  0  0
   -2.0828   -2.9905    0.0295 H   0  0  0  0  0  0  0  0  0  0  0  0
    0.7762   -0.6742    1.1929 H   0  0  0  0  0  0  0  0  0  0  0  0
    1.0161    0.9366   -1.4337 H   0  0  0  0  0  0  0  0  0  0  0  0
    3.2269    2.1878   -1.1317 H   0  0  0  0  0  0  0  0  0  0  0  0
    5.6670    1.9523   -1.0098 H   0  0  0  0  0  0  0  0  0  0  0  0
    7.3783    0.5822   -0.5223 H   0  0  0  0  0  0  0  0  0  0  0  0
    4.6439   -3.0149    0.5371 H   0  0  0  0  0  0  0  0  0  0  0  0
    2.7507   -1.8981    0.1601 H   0  0  0  0  0  0  0  0  0  0  0  0
   -2.3539    3.7059   -0.7470 H   0  0  0  0  0  0  0  0  0  0  0  0
   -4.7560    4.2540   -1.0414 H   0  0  0  0  0  0  0  0  0  0  0  0
   -6.4771    2.4789   -0.7847 H   0  0  0  0  0  0  0  0  0  0  0  0
   -5.7844    0.1582   -0.2352 H   0  0  0  0  0  0  0  0  0  0  0  0
  1  2  1  0
  2  3  1  0
  3  4  1  0
  4  5  1  0
  5  6  2  3
  6  7  1  0
  7  8  2  0
  8  9  1  0
  9 10  2  0
 10 11  1  0
 10 12  1  0
 12 13  1  0
 12 14  2  0
  4 15  2  0
 15 16  1  0
 16 17  2  0
 17 18  1  0
 18 19  2  0
 19 20  1  0
 20 21  2  0
 21 22  1  0
 22 23  2  0
 22  3  1  0
 14  7  1  0
 21 16  1  0
  1 24  1  0
  1 25  1  0
  1 26  1  0
  2 27  1  0
  2 28  1  0
  5 29  1  0
  6 30  1  0
  8 31  1  0
  9 32  1  0
 11 33  1  0
 13 34  1  0
 14 35  1  0
 17 36  1  0
 18 37  1  0
 19 38  1  0
 20 39  1  0
M  END
$$$$
