
     RDKit          3D

 42 44  0  0  0  0  0  0  0  0999 V2000
   -4.8570    0.3324    5.3265 C   0  0  0  0  0  0  0  0  0  0  0  0
   -4.0204    1.5271    4.8927 C   0  0  0  0  0  0  0  0  0  0  0  0
   -3.1677    1.2068    3.6652 C   0  0  0  0  0  0  0  0  0  0  0  0
   -2.2813    2.3975    3.2877 C   0  0  0  0  0  0  0  0  0  0  0  0
   -1.4872    2.1565    2.0239 C   0  0  0  0  0  0  0  0  0  0  0  0
   -0.4380    1.2296    2.0101 C   0  0  0  0  0  0  0  0  0  0  0  0
    0.3200    1.0324    0.8510 C   0  0  0  0  0  0  0  0  0  0  0  0
    0.0576    1.7692   -0.3118 C   0  0  0  0  0  0  0  0  0  0  0  0
    0.9132    1.5870   -1.4761 C   0  0  0  0  0  0  0  0  0  0  0  0
    1.2609    2.6018   -2.3450 C   0  0  0  0  0  0  0  0  0  0  0  0
    2.3606    2.0210   -3.5223 S   0  0  0  0  0  0  0  0  0  0  0  0
    2.3390    0.4510   -2.7705 C   0  0  0  0  0  0  0  0  0  0  0  0
    3.1299   -0.6222   -3.2979 C   0  0  0  0  0  0  0  0  0  0  0  0
    4.5091   -0.3881   -3.5897 C   0  0  0  0  0  0  0  0  0  0  0  0
    5.6310   -0.1495   -3.7742 N   0  0  0  0  0  0  0  0  0  0  0  0
    2.5214   -1.8200   -3.4110 C   0  0  0  0  0  0  0  0  0  0  0  0
    3.1373   -3.0131   -3.8858 C   0  0  0  0  0  0  0  0  0  0  0  0
    2.5773   -4.2852   -3.9825 C   0  0  0  0  0  0  0  0  0  0  0  0
    3.5560   -5.1534   -4.5212 C   0  0  0  0  0  0  0  0  0  0  0  0
    4.6729   -4.3806   -4.7191 C   0  0  0  0  0  0  0  0  0  0  0  0
    4.4295   -3.1026   -4.3500 O   0  0  0  0  0  0  0  0  0  0  0  0
    1.5137    0.3648   -1.7413 N   0  0  0  0  0  0  0  0  0  0  0  0
   -1.0058    2.6802   -0.3060 C   0  0  0  0  0  0  0  0  0  0  0  0
   -1.7726    2.8704    0.8516 C   0  0  0  0  0  0  0  0  0  0  0  0
   -5.4934   -0.0164    4.5102 H   0  0  0  0  0  0  0  0  0  0  0  0
   -4.2190   -0.4971    5.6437 H   0  0  0  0  0  0  0  0  0  0  0  0
   -5.5008    0.6009    6.1676 H   0  0  0  0  0  0  0  0  0  0  0  0
   -3.3766    1.8334    5.7250 H   0  0  0  0  0  0  0  0  0  0  0  0
   -4.6844    2.3686    4.6675 H   0  0  0  0  0  0  0  0  0  0  0  0
   -3.8209    0.9408    2.8233 H   0  0  0  0  0  0  0  0  0  0  0  0
   -2.5433    0.3271    3.8720 H   0  0  0  0  0  0  0  0  0  0  0  0
   -1.5774    2.6152    4.1020 H   0  0  0  0  0  0  0  0  0  0  0  0
   -2.8970    3.2974    3.1724 H   0  0  0  0  0  0  0  0  0  0  0  0
   -0.1954    0.6606    2.9067 H   0  0  0  0  0  0  0  0  0  0  0  0
    1.1365    0.3127    0.8695 H   0  0  0  0  0  0  0  0  0  0  0  0
    0.9567    3.6394   -2.3409 H   0  0  0  0  0  0  0  0  0  0  0  0
    1.4693   -1.9062   -3.1354 H   0  0  0  0  0  0  0  0  0  0  0  0
    1.5654   -4.5507   -3.6944 H   0  0  0  0  0  0  0  0  0  0  0  0
    3.4587   -6.2121   -4.7326 H   0  0  0  0  0  0  0  0  0  0  0  0
    5.6666   -4.5765   -5.0996 H   0  0  0  0  0  0  0  0  0  0  0  0
   -1.2555    3.2528   -1.1943 H   0  0  0  0  0  0  0  0  0  0  0  0
   -2.5886    3.5902    0.8330 H   0  0  0  0  0  0  0  0  0  0  0  0
  1  2  1  0
  2  3  1  0
  3  4  1  0
  4  5  1  0
  5  6  2  0
  6  7  1  0
  7  8  2  0
  8  9  1  0
  9 10  2  0
 10 11  1  0
 11 12  1  0
 12 13  1  0
 13 14  1  0
 14 15  3  0
 13 16  2  3
 16 17  1  0
 17 18  2  0
 18 19  1  0
 19 20  2  0
 20 21  1  0
 12 22  2  0
  8 23  1  0
 23 24  2  0
 24  5  1  0
 22  9  1  0
 21 17  1  0
  1 25  1  0
  1 26  1  0
  1 27  1  0
  2 28  1  0
  2 29  1  0
  3 30  1  0
  3 31  1  0
  4 32  1  0
  4 33  1  0
  6 34  1  0
  7 35  1  0
 10 36  1  0
 16 37  1  0
 18 38  1  0
 19 39  1  0
 20 40  1  0
 23 41  1  0
 24 42  1  0
M  END
$$$$
