
     RDKit          3D

 67 71  0  0  0  0  0  0  0  0999 V2000
    8.4744   -2.3079   -1.2368 O   0  0  0  0  0  0  0  0  0  0  0  0
    8.7069   -1.8268   -0.1402 C   0  0  0  0  0  0  0  0  0  0  0  0
    9.1255   -2.5972    1.0874 C   0  0  0  0  0  0  0  0  0  0  0  0
    9.5203   -1.5001    2.0698 C   0  0  0  0  0  0  0  0  0  0  0  0
    8.6757   -0.3157    1.6451 C   0  0  0  0  0  0  0  0  0  0  0  0
    8.5703   -0.4902    0.2202 N   0  0  0  0  0  0  0  0  0  0  0  0
    7.9279    0.4830   -0.6419 C   0  0  0  0  0  0  0  0  0  0  0  0
    6.4053    0.4231   -0.5491 C   0  0  0  0  0  0  0  0  0  0  0  0
    5.7627    1.2665   -1.6447 C   0  0  0  0  0  0  0  0  0  0  0  0
    4.3208    1.2559   -1.5285 N   0  0  0  0  0  0  0  0  0  0  0  0
    3.4773    0.2040   -1.7778 C   0  0  0  0  0  0  0  0  0  0  0  0
    3.8865   -0.9687   -2.6183 C   0  0  0  0  0  0  0  0  0  0  0  0
    3.0110   -1.9630   -2.8091 C   0  0  0  0  0  0  0  0  0  0  0  0
    1.7362   -1.8681   -2.2242 C   0  0  0  0  0  0  0  0  0  0  0  0
    0.6880   -2.6609   -2.2332 N   0  0  0  0  0  0  0  0  0  0  0  0
   -0.2996   -2.0540   -1.4909 N   0  0  0  0  0  0  0  0  0  0  0  0
    0.1689   -0.9018   -1.0475 C   0  0  0  0  0  0  0  0  0  0  0  0
   -0.5333    0.1068   -0.2083 C   0  0  0  0  0  0  0  0  0  0  0  0
   -2.0176   -0.2176   -0.0580 C   0  0  0  0  0  0  0  0  0  0  0  0
   -2.7408    0.8288    0.7694 C   0  0  0  0  0  0  0  0  0  0  0  0
   -2.1300    1.7353    1.3358 O   0  0  0  0  0  0  0  0  0  0  0  0
   -4.1189    0.7022    0.8564 N   0  0  0  0  0  0  0  0  0  0  0  0
   -4.8990   -0.3582    0.2065 C   0  0  0  0  0  0  0  0  0  0  0  0
   -6.3293   -0.5015    0.7619 C   0  0  0  0  0  0  0  0  0  0  0  0
   -7.0487    0.7810    0.7347 N   0  0  0  0  0  0  0  0  0  0  0  0
   -8.4335    0.8387    0.6889 C   0  0  0  0  0  0  0  0  0  0  0  0
   -9.2386   -0.2683    1.0031 C   0  0  0  0  0  0  0  0  0  0  0  0
  -10.6366   -0.2098    0.9489 C   0  0  0  0  0  0  0  0  0  0  0  0
  -11.2718    0.9665    0.5724 C   0  0  0  0  0  0  0  0  0  0  0  0
  -10.5067    2.0799    0.2524 C   0  0  0  0  0  0  0  0  0  0  0  0
   -9.1096    2.0114    0.3116 C   0  0  0  0  0  0  0  0  0  0  0  0
   -6.2520    2.0069    0.9309 C   0  0  0  0  0  0  0  0  0  0  0  0
   -4.8896    1.7127    1.5847 C   0  0  0  0  0  0  0  0  0  0  0  0
    1.4639   -0.7409   -1.4813 N   0  0  0  0  0  0  0  0  0  0  0  0
    2.2946    0.3115   -1.2267 N   0  0  0  0  0  0  0  0  0  0  0  0
    8.2682   -3.1709    1.4525 H   0  0  0  0  0  0  0  0  0  0  0  0
    9.9618   -3.2633    0.8654 H   0  0  0  0  0  0  0  0  0  0  0  0
    9.3603   -1.7849    3.1129 H   0  0  0  0  0  0  0  0  0  0  0  0
   10.5837   -1.2630    1.9439 H   0  0  0  0  0  0  0  0  0  0  0  0
    9.1467    0.6419    1.8828 H   0  0  0  0  0  0  0  0  0  0  0  0
    7.6737   -0.3615    2.0830 H   0  0  0  0  0  0  0  0  0  0  0  0
    8.3009    1.4785   -0.3762 H   0  0  0  0  0  0  0  0  0  0  0  0
    8.2415    0.2704   -1.6704 H   0  0  0  0  0  0  0  0  0  0  0  0
    6.0667   -0.6169   -0.6304 H   0  0  0  0  0  0  0  0  0  0  0  0
    6.0789    0.7731    0.4379 H   0  0  0  0  0  0  0  0  0  0  0  0
    6.0686    0.9208   -2.6376 H   0  0  0  0  0  0  0  0  0  0  0  0
    6.1065    2.3039   -1.5593 H   0  0  0  0  0  0  0  0  0  0  0  0
    3.9330    1.9034   -0.8468 H   0  0  0  0  0  0  0  0  0  0  0  0
    4.8757   -0.9948   -3.0520 H   0  0  0  0  0  0  0  0  0  0  0  0
    3.2558   -2.8350   -3.4035 H   0  0  0  0  0  0  0  0  0  0  0  0
   -0.4194    1.1003   -0.6598 H   0  0  0  0  0  0  0  0  0  0  0  0
   -0.0572    0.1448    0.7791 H   0  0  0  0  0  0  0  0  0  0  0  0
   -2.4843   -0.2703   -1.0486 H   0  0  0  0  0  0  0  0  0  0  0  0
   -2.1331   -1.1886    0.4379 H   0  0  0  0  0  0  0  0  0  0  0  0
   -4.3734   -1.3129    0.3031 H   0  0  0  0  0  0  0  0  0  0  0  0
   -4.9419   -0.1067   -0.8604 H   0  0  0  0  0  0  0  0  0  0  0  0
   -6.8404   -1.2546    0.1504 H   0  0  0  0  0  0  0  0  0  0  0  0
   -6.2893   -0.8677    1.7951 H   0  0  0  0  0  0  0  0  0  0  0  0
   -8.7923   -1.2051    1.3228 H   0  0  0  0  0  0  0  0  0  0  0  0
  -11.2239   -1.0870    1.2055 H   0  0  0  0  0  0  0  0  0  0  0  0
  -12.3553    1.0139    0.5275 H   0  0  0  0  0  0  0  0  0  0  0  0
  -10.9894    3.0048   -0.0508 H   0  0  0  0  0  0  0  0  0  0  0  0
   -8.5539    2.9002    0.0274 H   0  0  0  0  0  0  0  0  0  0  0  0
   -6.7799    2.7186    1.5770 H   0  0  0  0  0  0  0  0  0  0  0  0
   -6.0910    2.4810   -0.0450 H   0  0  0  0  0  0  0  0  0  0  0  0
   -4.3183    2.6426    1.6741 H   0  0  0  0  0  0  0  0  0  0  0  0
   -5.0397    1.3211    2.5984 H   0  0  0  0  0  0  0  0  0  0  0  0
  1  2  2  0
  2  3  1  0
  3  4  1  0
  4  5  1  0
  5  6  1  0
  6  7  1  0
  7  8  1  0
  8  9  1  0
  9 10  1  0
 10 11  1  0
 11 12  1  0
 12 13  2  0
 13 14  1  0
 14 15  2  0
 15 16  1  0
 16 17  2  0
 17 18  1  0
 18 19  1  0
 19 20  1  0
 20 21  2  0
 20 22  1  0
 22 23  1  0
 23 24  1  0
 24 25  1  0
 25 26  1  0
 26 27  2  0
 27 28  1  0
 28 29  2  0
 29 30  1  0
 30 31  2  0
 25 32  1  0
 32 33  1  0
 17 34  1  0
 34 35  1  0
  6  2  1  0
 35 11  2  0
 34 14  1  0
 33 22  1  0
 31 26  1  0
  3 36  1  0
  3 37  1  0
  4 38  1  0
  4 39  1  0
  5 40  1  0
  5 41  1  0
  7 42  1  0
  7 43  1  0
  8 44  1  0
  8 45  1  0
  9 46  1  0
  9 47  1  0
 10 48  1  0
 12 49  1  0
 13 50  1  0
 18 51  1  0
 18 52  1  0
 19 53  1  0
 19 54  1  0
 23 55  1  0
 23 56  1  0
 24 57  1  0
 24 58  1  0
 27 59  1  0
 28 60  1  0
 29 61  1  0
 30 62  1  0
 31 63  1  0
 32 64  1  0
 32 65  1  0
 33 66  1  0
 33 67  1  0
M  END
$$$$
