
     RDKit          3D

 63 67  0  0  0  0  0  0  0  0999 V2000
   -1.5536   -4.5645    1.5218 C   0  0  0  0  0  0  0  0  0  0  0  0
   -2.7596   -4.9109    0.8517 O   0  0  0  0  0  0  0  0  0  0  0  0
   -3.5339   -3.8745    0.4064 C   0  0  0  0  0  0  0  0  0  0  0  0
   -4.6121   -4.2536   -0.3953 C   0  0  0  0  0  0  0  0  0  0  0  0
   -5.4746   -3.2947   -0.9246 C   0  0  0  0  0  0  0  0  0  0  0  0
   -5.2620   -1.9439   -0.6518 C   0  0  0  0  0  0  0  0  0  0  0  0
   -4.1918   -1.5432    0.1606 C   0  0  0  0  0  0  0  0  0  0  0  0
   -3.9503   -0.1183    0.4395 C   0  0  0  0  0  0  0  0  0  0  0  0
   -5.1899    0.7826    1.2048 S   0  0  0  0  0  0  0  0  0  0  0  0
   -4.2599    2.2236    1.2279 C   0  0  0  0  0  0  0  0  0  0  0  0
   -4.6551    3.4747    1.7394 C   0  0  0  0  0  0  0  0  0  0  0  0
   -3.7668    4.5540    1.6726 C   0  0  0  0  0  0  0  0  0  0  0  0
   -2.5091    4.3997    1.1067 C   0  0  0  0  0  0  0  0  0  0  0  0
   -1.5574    5.3747    0.9819 O   0  0  0  0  0  0  0  0  0  0  0  0
   -1.9030    6.6756    1.4407 C   0  0  0  0  0  0  0  0  0  0  0  0
   -2.1286    3.1496    0.6035 C   0  0  0  0  0  0  0  0  0  0  0  0
   -3.0012    2.0303    0.6595 C   0  0  0  0  0  0  0  0  0  0  0  0
   -2.8257    0.6641    0.2112 C   0  0  0  0  0  0  0  0  0  0  0  0
   -1.6205    0.1223   -0.4128 C   0  0  0  0  0  0  0  0  0  0  0  0
   -1.6415   -0.3330   -1.7332 C   0  0  0  0  0  0  0  0  0  0  0  0
   -0.4840   -0.8654   -2.3067 C   0  0  0  0  0  0  0  0  0  0  0  0
    0.7054   -0.9469   -1.5772 C   0  0  0  0  0  0  0  0  0  0  0  0
    1.7528   -1.4901   -2.2661 O   0  0  0  0  0  0  0  0  0  0  0  0
    2.9951   -1.6935   -1.5853 C   0  0  0  0  0  0  0  0  0  0  0  0
    3.8739   -0.4342   -1.6696 C   0  0  0  0  0  0  0  0  0  0  0  0
    5.2185   -0.6066   -1.0889 N   0  0  0  0  0  0  0  0  0  0  0  0
    6.0813    0.5381   -1.4637 C   0  0  0  0  0  0  0  0  0  0  0  0
    7.4736    0.4302   -0.8231 C   0  0  0  0  0  0  0  0  0  0  0  0
    7.3797    0.3603    0.6055 O   0  0  0  0  0  0  0  0  0  0  0  0
    6.5923   -0.7741    0.9869 C   0  0  0  0  0  0  0  0  0  0  0  0
    5.1779   -0.6983    0.3872 C   0  0  0  0  0  0  0  0  0  0  0  0
    0.7302   -0.4790   -0.2637 C   0  0  0  0  0  0  0  0  0  0  0  0
   -0.4277    0.0528    0.3163 C   0  0  0  0  0  0  0  0  0  0  0  0
   -3.3342   -2.5219    0.6909 C   0  0  0  0  0  0  0  0  0  0  0  0
   -0.9118   -3.9395    0.8914 H   0  0  0  0  0  0  0  0  0  0  0  0
   -1.7634   -4.0770    2.4794 H   0  0  0  0  0  0  0  0  0  0  0  0
   -1.0111   -5.4909    1.7321 H   0  0  0  0  0  0  0  0  0  0  0  0
   -4.7762   -5.3060   -0.6137 H   0  0  0  0  0  0  0  0  0  0  0  0
   -6.3072   -3.6003   -1.5523 H   0  0  0  0  0  0  0  0  0  0  0  0
   -5.9346   -1.2057   -1.0830 H   0  0  0  0  0  0  0  0  0  0  0  0
   -5.6398    3.6035    2.1809 H   0  0  0  0  0  0  0  0  0  0  0  0
   -4.0998    5.5050    2.0757 H   0  0  0  0  0  0  0  0  0  0  0  0
   -2.7594    7.0754    0.8876 H   0  0  0  0  0  0  0  0  0  0  0  0
   -2.0926    6.6757    2.5191 H   0  0  0  0  0  0  0  0  0  0  0  0
   -1.0494    7.3339    1.2528 H   0  0  0  0  0  0  0  0  0  0  0  0
   -1.1434    3.0404    0.1553 H   0  0  0  0  0  0  0  0  0  0  0  0
   -2.5536   -0.2840   -2.3229 H   0  0  0  0  0  0  0  0  0  0  0  0
   -0.5118   -1.2244   -3.3330 H   0  0  0  0  0  0  0  0  0  0  0  0
    3.5021   -2.5096   -2.1147 H   0  0  0  0  0  0  0  0  0  0  0  0
    2.8390   -2.0551   -0.5638 H   0  0  0  0  0  0  0  0  0  0  0  0
    3.9691   -0.1884   -2.7359 H   0  0  0  0  0  0  0  0  0  0  0  0
    3.3597    0.4243   -1.2203 H   0  0  0  0  0  0  0  0  0  0  0  0
    6.1997    0.5740   -2.5525 H   0  0  0  0  0  0  0  0  0  0  0  0
    5.6140    1.4775   -1.1407 H   0  0  0  0  0  0  0  0  0  0  0  0
    8.0161   -0.4479   -1.1941 H   0  0  0  0  0  0  0  0  0  0  0  0
    8.0657    1.3163   -1.0726 H   0  0  0  0  0  0  0  0  0  0  0  0
    7.1061   -1.6924    0.6782 H   0  0  0  0  0  0  0  0  0  0  0  0
    6.5298   -0.7795    2.0795 H   0  0  0  0  0  0  0  0  0  0  0  0
    4.6286   -1.5913    0.7010 H   0  0  0  0  0  0  0  0  0  0  0  0
    4.6646    0.1794    0.8011 H   0  0  0  0  0  0  0  0  0  0  0  0
    1.6296   -0.5056    0.3410 H   0  0  0  0  0  0  0  0  0  0  0  0
   -0.3923    0.4082    1.3442 H   0  0  0  0  0  0  0  0  0  0  0  0
   -2.5159   -2.2019    1.3270 H   0  0  0  0  0  0  0  0  0  0  0  0
  1  2  1  0
  2  3  1  0
  3  4  2  0
  4  5  1  0
  5  6  2  0
  6  7  1  0
  7  8  1  0
  8  9  1  0
  9 10  1  0
 10 11  2  0
 11 12  1  0
 12 13  2  0
 13 14  1  0
 14 15  1  0
 13 16  1  0
 16 17  2  0
 17 18  1  0
 18 19  1  0
 19 20  2  0
 20 21  1  0
 21 22  2  0
 22 23  1  0
 23 24  1  0
 24 25  1  0
 25 26  1  0
 26 27  1  0
 27 28  1  0
 28 29  1  0
 29 30  1  0
 30 31  1  0
 22 32  1  0
 32 33  2  0
  7 34  2  0
 34  3  1  0
 18  8  2  0
 33 19  1  0
 17 10  1  0
 31 26  1  0
  1 35  1  0
  1 36  1  0
  1 37  1  0
  4 38  1  0
  5 39  1  0
  6 40  1  0
 11 41  1  0
 12 42  1  0
 15 43  1  0
 15 44  1  0
 15 45  1  0
 16 46  1  0
 20 47  1  0
 21 48  1  0
 24 49  1  0
 24 50  1  0
 25 51  1  0
 25 52  1  0
 27 53  1  0
 27 54  1  0
 28 55  1  0
 28 56  1  0
 30 57  1  0
 30 58  1  0
 31 59  1  0
 31 60  1  0
 32 61  1  0
 33 62  1  0
 34 63  1  0
M  END
$$$$
