
     RDKit          3D

 57 60  0  0  0  0  0  0  0  0999 V2000
   -5.2370   -2.4725   -5.0507 C   0  0  0  0  0  0  0  0  0  0  0  0
   -4.4445   -1.8894   -3.9170 C   0  0  0  0  0  0  0  0  0  0  0  0
   -4.2939   -2.5947   -2.7181 C   0  0  0  0  0  0  0  0  0  0  0  0
   -3.5873   -2.0345   -1.6513 C   0  0  0  0  0  0  0  0  0  0  0  0
   -3.0235   -0.7591   -1.7763 C   0  0  0  0  0  0  0  0  0  0  0  0
   -2.2936   -0.2040   -0.6853 N   0  0  0  0  0  0  0  0  0  0  0  0
   -2.7069   -0.2112    0.6471 C   0  0  0  0  0  0  0  0  0  0  0  0
   -4.0737   -0.5896    1.1051 C   0  0  0  0  0  0  0  0  0  0  0  0
   -1.6807    0.2961    1.4160 C   0  0  0  0  0  0  0  0  0  0  0  0
   -0.6124    0.6330    0.5498 C   0  0  0  0  0  0  0  0  0  0  0  0
    0.6888    1.1132    0.9639 C   0  0  0  0  0  0  0  0  0  0  0  0
    0.6255    2.3538    1.1920 O   0  0  0  0  0  1  0  0  0  0  0  0
    1.7371    0.2444    1.0600 C   0  0  0  0  0  0  0  0  0  0  0  0
    3.1503    0.6808    1.5297 C   0  0  0  0  0  0  0  0  0  0  0  0
    4.4113   -0.4437    1.5872 S   0  0  0  0  0  0  0  0  0  0  0  0
    3.2297    2.0251    1.8695 N   0  0  0  0  0  0  0  0  0  0  0  0
    4.2039    2.8534    2.4693 C   0  0  0  0  0  0  0  0  0  0  0  0
    3.8495    4.2098    2.5915 C   0  0  0  0  0  0  0  0  0  0  0  0
    4.7032    5.1322    3.2047 C   0  0  0  0  0  0  0  0  0  0  0  0
    5.9225    4.7023    3.7051 C   0  0  0  0  0  0  0  0  0  0  0  0
    6.7251    5.5935    4.3064 F   0  0  0  0  0  0  0  0  0  0  0  0
    6.2939    3.3654    3.5895 C   0  0  0  0  0  0  0  0  0  0  0  0
    7.7966    2.8236    4.2355 Cl  0  0  0  0  0  0  0  0  0  0  0  0
    5.4376    2.4415    2.9752 C   0  0  0  0  0  0  0  0  0  0  0  0
    1.4788   -1.2054    0.7190 N   0  0  0  0  0  4  0  0  0  0  0  0
    1.8659   -1.6813   -0.4821 C   0  0  0  0  0  0  0  0  0  0  0  0
    1.5994   -2.9992   -0.8382 C   0  0  0  0  0  0  0  0  0  0  0  0
    0.9337   -3.8240    0.0608 C   0  0  0  0  0  0  0  0  0  0  0  0
    0.5470   -3.3158    1.2959 C   0  0  0  0  0  0  0  0  0  0  0  0
    0.8309   -1.9901    1.6058 C   0  0  0  0  0  0  0  0  0  0  0  0
   -1.0297    0.3872   -0.7504 C   0  0  0  0  0  0  0  0  0  0  0  0
   -0.2889    0.6332   -2.0224 C   0  0  0  0  0  0  0  0  0  0  0  0
   -3.1873   -0.0411   -2.9632 C   0  0  0  0  0  0  0  0  0  0  0  0
   -3.9004   -0.6038   -4.0252 C   0  0  0  0  0  0  0  0  0  0  0  0
   -5.2345   -3.5669   -5.0110 H   0  0  0  0  0  0  0  0  0  0  0  0
   -6.2724   -2.1214   -4.9995 H   0  0  0  0  0  0  0  0  0  0  0  0
   -4.8077   -2.1840   -6.0151 H   0  0  0  0  0  0  0  0  0  0  0  0
   -4.7227   -3.5889   -2.6069 H   0  0  0  0  0  0  0  0  0  0  0  0
   -3.4565   -2.6215   -0.7460 H   0  0  0  0  0  0  0  0  0  0  0  0
   -4.8364   -0.3687    0.3493 H   0  0  0  0  0  0  0  0  0  0  0  0
   -4.3430   -0.0204    2.0052 H   0  0  0  0  0  0  0  0  0  0  0  0
   -4.1164   -1.6548    1.3596 H   0  0  0  0  0  0  0  0  0  0  0  0
   -1.7076    0.4571    2.4865 H   0  0  0  0  0  0  0  0  0  0  0  0
    2.3399    2.5234    1.6679 H   0  0  0  0  0  0  0  0  0  0  0  0
    2.8872    4.5622    2.2173 H   0  0  0  0  0  0  0  0  0  0  0  0
    4.4106    6.1733    3.3173 H   0  0  0  0  0  0  0  0  0  0  0  0
    5.7633    1.4124    2.9378 H   0  0  0  0  0  0  0  0  0  0  0  0
    2.3673   -0.9881   -1.1506 H   0  0  0  0  0  0  0  0  0  0  0  0
    1.9006   -3.3701   -1.8124 H   0  0  0  0  0  0  0  0  0  0  0  0
    0.7098   -4.8563   -0.2029 H   0  0  0  0  0  0  0  0  0  0  0  0
    0.0168   -3.9409    2.0098 H   0  0  0  0  0  0  0  0  0  0  0  0
    0.5433   -1.5368    2.5502 H   0  0  0  0  0  0  0  0  0  0  0  0
    0.7652    0.8645   -1.8370 H   0  0  0  0  0  0  0  0  0  0  0  0
   -0.7075    1.4920   -2.5588 H   0  0  0  0  0  0  0  0  0  0  0  0
   -0.3131   -0.2471   -2.6741 H   0  0  0  0  0  0  0  0  0  0  0  0
   -2.8161    0.9755   -3.0639 H   0  0  0  0  0  0  0  0  0  0  0  0
   -4.0411   -0.0237   -4.9322 H   0  0  0  0  0  0  0  0  0  0  0  0
  1  2  1  0
  2  3  2  0
  3  4  1  0
  4  5  2  0
  5  6  1  0
  6  7  1  0
  7  8  1  0
  7  9  2  0
  9 10  1  0
 10 11  1  0
 11 12  1  0
 11 13  2  3
 13 14  1  0
 14 15  2  0
 14 16  1  0
 16 17  1  0
 17 18  2  0
 18 19  1  0
 19 20  2  0
 20 21  1  0
 20 22  1  0
 22 23  1  0
 22 24  2  0
 13 25  1  0
 25 26  2  0
 26 27  1  0
 27 28  2  0
 28 29  1  0
 29 30  2  0
 10 31  2  0
 31 32  1  0
  5 33  1  0
 33 34  2  0
 34  2  1  0
 31  6  1  0
 24 17  1  0
 30 25  1  0
  1 35  1  0
  1 36  1  0
  1 37  1  0
  3 38  1  0
  4 39  1  0
  8 40  1  0
  8 41  1  0
  8 42  1  0
  9 43  1  0
 16 44  1  0
 18 45  1  0
 19 46  1  0
 24 47  1  0
 26 48  1  0
 27 49  1  0
 28 50  1  0
 29 51  1  0
 30 52  1  0
 32 53  1  0
 32 54  1  0
 32 55  1  0
 33 56  1  0
 34 57  1  0
M  CHG  2  12  -1  25   1
M  END
$$$$
