
     RDKit          3D

 36 37  0  0  0  0  0  0  0  0999 V2000
    2.2003    2.4289   -0.7686 C   0  0  0  0  0  0  0  0  0  0  0  0
    1.3934    1.3028   -0.1176 C   0  0  0  0  0  0  0  0  0  0  0  0
    0.1697    1.1317   -0.9085 N   0  0  0  0  0  0  0  0  0  0  0  0
   -0.8360    0.4845   -0.4315 C   0  0  0  0  0  0  0  0  0  0  0  0
   -2.0615    0.4285   -1.3370 C   0  0  0  0  0  0  0  0  0  0  0  0
   -3.2921    1.0337   -0.6717 C   0  0  0  0  0  0  0  0  0  0  0  0
   -4.0156    0.0590    0.2564 C   0  0  0  0  0  0  0  0  0  0  0  0
   -3.2237   -0.3397    1.5007 C   0  0  0  0  0  0  0  0  0  0  0  0
   -1.9227   -1.0741    1.1968 C   0  0  0  0  0  0  0  0  0  0  0  0
   -0.8868   -0.1516    0.7857 N   0  0  0  0  0  0  0  0  0  0  0  0
    2.2472    0.0486   -0.0219 C   0  0  0  0  0  0  0  0  0  0  0  0
    2.3652   -0.8366   -1.1037 C   0  0  0  0  0  0  0  0  0  0  0  0
    3.1544   -1.9831   -1.0022 C   0  0  0  0  0  0  0  0  0  0  0  0
    3.8403   -2.2553    0.1797 C   0  0  0  0  0  0  0  0  0  0  0  0
    3.7407   -1.3800    1.2594 C   0  0  0  0  0  0  0  0  0  0  0  0
    2.9512   -0.2330    1.1594 C   0  0  0  0  0  0  0  0  0  0  0  0
    1.6101    3.3511   -0.8109 H   0  0  0  0  0  0  0  0  0  0  0  0
    3.1162    2.6388   -0.2054 H   0  0  0  0  0  0  0  0  0  0  0  0
    2.4879    2.1765   -1.7960 H   0  0  0  0  0  0  0  0  0  0  0  0
    1.1231    1.6387    0.8928 H   0  0  0  0  0  0  0  0  0  0  0  0
   -2.2352   -0.6083   -1.6453 H   0  0  0  0  0  0  0  0  0  0  0  0
   -1.8410    0.9977   -2.2490 H   0  0  0  0  0  0  0  0  0  0  0  0
   -3.9972    1.3295   -1.4583 H   0  0  0  0  0  0  0  0  0  0  0  0
   -3.0271    1.9453   -0.1227 H   0  0  0  0  0  0  0  0  0  0  0  0
   -4.9532    0.5258    0.5828 H   0  0  0  0  0  0  0  0  0  0  0  0
   -4.2981   -0.8415   -0.3030 H   0  0  0  0  0  0  0  0  0  0  0  0
   -3.0256    0.5490    2.1128 H   0  0  0  0  0  0  0  0  0  0  0  0
   -3.8600   -1.0009    2.1020 H   0  0  0  0  0  0  0  0  0  0  0  0
   -1.5848   -1.5666    2.1161 H   0  0  0  0  0  0  0  0  0  0  0  0
   -2.0653   -1.8648    0.4519 H   0  0  0  0  0  0  0  0  0  0  0  0
    0.0210   -0.3548    1.1903 H   0  0  0  0  0  0  0  0  0  0  0  0
    1.8360   -0.6304   -2.0323 H   0  0  0  0  0  0  0  0  0  0  0  0
    3.2353   -2.6603   -1.8482 H   0  0  0  0  0  0  0  0  0  0  0  0
    4.4578   -3.1463    0.2562 H   0  0  0  0  0  0  0  0  0  0  0  0
    4.2834   -1.5877    2.1779 H   0  0  0  0  0  0  0  0  0  0  0  0
    2.8925    0.4450    2.0081 H   0  0  0  0  0  0  0  0  0  0  0  0
  1  2  1  0
  2  3  1  0
  3  4  2  3
  4  5  1  0
  5  6  1  0
  6  7  1  0
  7  8  1  0
  8  9  1  0
  9 10  1  0
  2 11  1  0
 11 12  2  0
 12 13  1  0
 13 14  2  0
 14 15  1  0
 15 16  2  0
 10  4  1  0
 16 11  1  0
  1 17  1  0
  1 18  1  0
  1 19  1  0
  2 20  1  0
  5 21  1  0
  5 22  1  0
  6 23  1  0
  6 24  1  0
  7 25  1  0
  7 26  1  0
  8 27  1  0
  8 28  1  0
  9 29  1  0
  9 30  1  0
 10 31  1  0
 12 32  1  0
 13 33  1  0
 14 34  1  0
 15 35  1  0
 16 36  1  0
M  END
$$$$
