
     RDKit          3D

 40 41  0  0  0  0  0  0  0  0999 V2000
   -6.6793   -0.3288    0.2832 C   0  0  0  0  0  0  0  0  0  0  0  0
   -5.2256    0.0247    0.1858 C   0  0  0  0  0  0  0  0  0  0  0  0
   -4.7701    1.2798    0.5978 C   0  0  0  0  0  0  0  0  0  0  0  0
   -3.4078    1.6057    0.5397 C   0  0  0  0  0  0  0  0  0  0  0  0
   -2.4746    0.6809    0.0788 C   0  0  0  0  0  0  0  0  0  0  0  0
   -1.0876    0.8944   -0.0236 N   0  0  0  0  0  0  0  0  0  0  0  0
   -0.2471    1.9473    0.2551 C   0  0  0  0  0  0  0  0  0  0  0  0
   -0.5667    3.4673    0.8536 S   0  0  0  0  0  0  0  0  0  0  0  0
    1.0791    1.6443   -0.0168 N   0  0  0  0  0  0  0  0  0  0  0  0
    1.4300    0.4561   -0.7186 N   0  0  0  0  0  0  0  0  0  0  0  0
    1.5695    0.7055   -2.1633 C   0  0  0  0  0  0  0  0  0  0  0  0
    2.6151   -0.1142   -0.1605 C   0  0  0  0  0  0  0  0  0  0  0  0
    3.7642   -0.1007   -0.8880 N   0  0  0  0  0  0  0  0  0  0  0  0
    4.8744   -0.6406   -0.3281 C   0  0  0  0  0  0  0  0  0  0  0  0
    6.1409   -0.6195   -1.1237 C   0  0  0  0  0  0  0  0  0  0  0  0
    4.8473   -1.1949    0.9403 C   0  0  0  0  0  0  0  0  0  0  0  0
    3.7269   -1.2391    1.6882 N   0  0  0  0  0  0  0  0  0  0  0  0
    2.6083   -0.6996    1.1249 C   0  0  0  0  0  0  0  0  0  0  0  0
    1.3651   -0.7867    1.9592 C   0  0  0  0  0  0  0  0  0  0  0  0
   -2.9347   -0.5828   -0.3196 C   0  0  0  0  0  0  0  0  0  0  0  0
   -4.2931   -0.9115   -0.2627 C   0  0  0  0  0  0  0  0  0  0  0  0
   -7.3072    0.5556    0.1326 H   0  0  0  0  0  0  0  0  0  0  0  0
   -6.8960   -0.7534    1.2683 H   0  0  0  0  0  0  0  0  0  0  0  0
   -6.9565   -1.0581   -0.4852 H   0  0  0  0  0  0  0  0  0  0  0  0
   -5.4722    2.0230    0.9704 H   0  0  0  0  0  0  0  0  0  0  0  0
   -3.1286    2.5968    0.8704 H   0  0  0  0  0  0  0  0  0  0  0  0
   -0.5456    0.1129   -0.3793 H   0  0  0  0  0  0  0  0  0  0  0  0
    1.7914    2.3675    0.0649 H   0  0  0  0  0  0  0  0  0  0  0  0
    0.6153    1.0612   -2.5688 H   0  0  0  0  0  0  0  0  0  0  0  0
    1.8143   -0.2189   -2.6993 H   0  0  0  0  0  0  0  0  0  0  0  0
    2.3278    1.4675   -2.3810 H   0  0  0  0  0  0  0  0  0  0  0  0
    6.9119   -0.0514   -0.5940 H   0  0  0  0  0  0  0  0  0  0  0  0
    6.4989   -1.6397   -1.2934 H   0  0  0  0  0  0  0  0  0  0  0  0
    5.9803   -0.1484   -2.0988 H   0  0  0  0  0  0  0  0  0  0  0  0
    5.7319   -1.6262    1.3960 H   0  0  0  0  0  0  0  0  0  0  0  0
    1.0874    0.1993    2.3413 H   0  0  0  0  0  0  0  0  0  0  0  0
    0.5379   -1.2105    1.3824 H   0  0  0  0  0  0  0  0  0  0  0  0
    1.5273   -1.4415    2.8224 H   0  0  0  0  0  0  0  0  0  0  0  0
   -2.2386   -1.3370   -0.6788 H   0  0  0  0  0  0  0  0  0  0  0  0
   -4.6140   -1.9035   -0.5718 H   0  0  0  0  0  0  0  0  0  0  0  0
  1  2  1  0
  2  3  2  0
  3  4  1  0
  4  5  2  0
  5  6  1  0
  6  7  1  0
  7  8  2  0
  7  9  1  0
  9 10  1  0
 10 11  1  0
 10 12  1  0
 12 13  2  0
 13 14  1  0
 14 15  1  0
 14 16  2  0
 16 17  1  0
 17 18  2  0
 18 19  1  0
  5 20  1  0
 20 21  2  0
 21  2  1  0
 18 12  1  0
  1 22  1  0
  1 23  1  0
  1 24  1  0
  3 25  1  0
  4 26  1  0
  6 27  1  0
  9 28  1  0
 11 29  1  0
 11 30  1  0
 11 31  1  0
 15 32  1  0
 15 33  1  0
 15 34  1  0
 16 35  1  0
 19 36  1  0
 19 37  1  0
 19 38  1  0
 20 39  1  0
 21 40  1  0
M  END
$$$$
