
     RDKit          3D

 36 37  0  0  0  0  0  0  0  0999 V2000
    4.5635   -3.1494    0.5668 C   0  0  0  0  0  0  0  0  0  0  0  0
    3.6012   -2.3778    1.2743 O   0  0  0  0  0  0  0  0  0  0  0  0
    3.0672   -1.3016    0.6207 C   0  0  0  0  0  0  0  0  0  0  0  0
    2.1445   -0.5648    1.3711 C   0  0  0  0  0  0  0  0  0  0  0  0
    1.5209    0.5605    0.8294 C   0  0  0  0  0  0  0  0  0  0  0  0
    1.8140    0.9408   -0.4815 C   0  0  0  0  0  0  0  0  0  0  0  0
    1.0476    2.3894   -1.1704 S   0  0  0  0  0  6  0  0  0  0  0  0
    0.6596    3.2571   -0.0777 O   0  0  0  0  0  0  0  0  0  0  0  0
    1.8868    2.8636   -2.2520 O   0  0  0  0  0  0  0  0  0  0  0  0
   -0.3707    1.7586   -1.8993 N   0  0  0  0  0  0  0  0  0  0  0  0
   -1.1472    0.7262   -1.1681 N   0  0  0  0  0  0  0  0  0  0  0  0
   -2.1595    1.1571   -0.4698 C   0  0  0  0  0  0  0  0  0  0  0  0
   -2.5994    2.6073   -0.4384 C   0  0  0  0  0  0  0  0  0  0  0  0
   -2.9204    0.1707    0.3576 C   0  0  0  0  0  0  0  0  0  0  0  0
   -2.8390   -1.1873    0.0431 C   0  0  0  0  0  0  0  0  0  0  0  0
   -3.5396   -2.0839    0.8290 C   0  0  0  0  0  0  0  0  0  0  0  0
   -4.2952   -1.7201    1.8862 N   0  0  0  0  0  0  0  0  0  0  0  0
   -4.3458   -0.4039    2.1785 C   0  0  0  0  0  0  0  0  0  0  0  0
   -3.6819    0.5722    1.4550 C   0  0  0  0  0  0  0  0  0  0  0  0
    2.7453    0.2228   -1.2368 C   0  0  0  0  0  0  0  0  0  0  0  0
    3.3674   -0.9021   -0.6841 C   0  0  0  0  0  0  0  0  0  0  0  0
    4.8933   -3.9584    1.2257 H   0  0  0  0  0  0  0  0  0  0  0  0
    5.4425   -2.5479    0.3124 H   0  0  0  0  0  0  0  0  0  0  0  0
    4.1239   -3.6057   -0.3263 H   0  0  0  0  0  0  0  0  0  0  0  0
    1.9133   -0.8705    2.3892 H   0  0  0  0  0  0  0  0  0  0  0  0
    0.8100    1.1249    1.4278 H   0  0  0  0  0  0  0  0  0  0  0  0
   -0.1742    1.5498   -2.8823 H   0  0  0  0  0  0  0  0  0  0  0  0
   -2.3985    3.1008   -1.3928 H   0  0  0  0  0  0  0  0  0  0  0  0
   -2.0667    3.1314    0.3592 H   0  0  0  0  0  0  0  0  0  0  0  0
   -3.6763    2.6880   -0.2667 H   0  0  0  0  0  0  0  0  0  0  0  0
   -2.2475   -1.5464   -0.7923 H   0  0  0  0  0  0  0  0  0  0  0  0
   -3.5105   -3.1505    0.6244 H   0  0  0  0  0  0  0  0  0  0  0  0
   -4.9514   -0.1461    3.0432 H   0  0  0  0  0  0  0  0  0  0  0  0
   -3.7563    1.6066    1.7682 H   0  0  0  0  0  0  0  0  0  0  0  0
    2.9957    0.5298   -2.2497 H   0  0  0  0  0  0  0  0  0  0  0  0
    4.0833   -1.4409   -1.2961 H   0  0  0  0  0  0  0  0  0  0  0  0
  1  2  1  0
  2  3  1  0
  3  4  2  0
  4  5  1  0
  5  6  2  0
  6  7  1  0
  7  8  2  0
  7  9  2  0
  7 10  1  0
 10 11  1  0
 11 12  2  3
 12 13  1  0
 12 14  1  0
 14 15  2  0
 15 16  1  0
 16 17  2  0
 17 18  1  0
 18 19  2  0
  6 20  1  0
 20 21  2  0
 21  3  1  0
 19 14  1  0
  1 22  1  0
  1 23  1  0
  1 24  1  0
  4 25  1  0
  5 26  1  0
 10 27  1  0
 13 28  1  0
 13 29  1  0
 13 30  1  0
 15 31  1  0
 16 32  1  0
 18 33  1  0
 19 34  1  0
 20 35  1  0
 21 36  1  0
M  END
$$$$
