
     RDKit          3D

 46 49  0  0  0  0  0  0  0  0999 V2000
    5.6178   -1.0374   -3.6418 O   0  0  0  0  0  0  0  0  0  0  0  0
    5.0812   -0.4302   -2.7037 N   0  0  0  0  0  4  0  0  0  0  0  0
    5.0643    0.8037   -2.5858 O   0  0  0  0  0  1  0  0  0  0  0  0
    4.4215   -1.2269   -1.6619 C   0  0  0  0  0  0  0  0  0  0  0  0
    4.3743   -2.6214   -1.7815 C   0  0  0  0  0  0  0  0  0  0  0  0
    3.7379   -3.3727   -0.7934 C   0  0  0  0  0  0  0  0  0  0  0  0
    3.1556   -2.7374    0.3061 C   0  0  0  0  0  0  0  0  0  0  0  0
    3.2060   -1.3414    0.4374 C   0  0  0  0  0  0  0  0  0  0  0  0
    2.5532   -0.6526    1.6166 C   0  0  0  0  0  0  0  0  0  0  0  0
    1.1953   -0.1127    1.2938 C   0  0  0  0  0  0  0  0  0  0  0  0
   -0.2231   -1.1378    1.2884 S   0  0  0  0  0  0  0  0  0  0  0  0
   -1.2947    0.2632    0.9141 C   0  0  0  0  0  0  0  0  0  0  0  0
   -2.5801    0.1716    0.7536 N   0  0  0  0  0  0  0  0  0  0  0  0
   -3.2369   -1.0584    0.8681 C   0  0  0  0  0  0  0  0  0  0  0  0
   -3.4439   -1.8544   -0.2617 C   0  0  0  0  0  0  0  0  0  0  0  0
   -4.1243   -3.0691   -0.1564 C   0  0  0  0  0  0  0  0  0  0  0  0
   -4.6147   -3.4871    1.0801 C   0  0  0  0  0  0  0  0  0  0  0  0
   -4.4316   -2.6883    2.2082 C   0  0  0  0  0  0  0  0  0  0  0  0
   -3.7508   -1.4740    2.0996 C   0  0  0  0  0  0  0  0  0  0  0  0
   -0.4922    1.4124    0.8183 N   0  0  0  0  0  0  0  0  0  0  0  0
   -1.0160    2.6511    0.3470 C   0  0  0  0  0  0  0  0  0  0  0  0
   -2.2095    3.1779    0.8665 C   0  0  0  0  0  0  0  0  0  0  0  0
   -2.7158    4.4012    0.4178 C   0  0  0  0  0  0  0  0  0  0  0  0
   -2.0391    5.1190   -0.5644 C   0  0  0  0  0  0  0  0  0  0  0  0
   -0.8605    4.6118   -1.1034 C   0  0  0  0  0  0  0  0  0  0  0  0
   -0.3559    3.3887   -0.6535 C   0  0  0  0  0  0  0  0  0  0  0  0
    0.8652    1.1679    1.0518 C   0  0  0  0  0  0  0  0  0  0  0  0
    1.7975    2.1760    1.1110 O   0  0  0  0  0  0  0  0  0  0  0  0
    3.8412   -0.5840   -0.5595 C   0  0  0  0  0  0  0  0  0  0  0  0
    4.8193   -3.1327   -2.6325 H   0  0  0  0  0  0  0  0  0  0  0  0
    3.6892   -4.4560   -0.8808 H   0  0  0  0  0  0  0  0  0  0  0  0
    2.6527   -3.3411    1.0605 H   0  0  0  0  0  0  0  0  0  0  0  0
    3.2194    0.1489    1.9618 H   0  0  0  0  0  0  0  0  0  0  0  0
    2.4907   -1.3456    2.4659 H   0  0  0  0  0  0  0  0  0  0  0  0
   -3.0726   -1.5233   -1.2274 H   0  0  0  0  0  0  0  0  0  0  0  0
   -4.2751   -3.6840   -1.0394 H   0  0  0  0  0  0  0  0  0  0  0  0
   -5.1467   -4.4313    1.1628 H   0  0  0  0  0  0  0  0  0  0  0  0
   -4.8225   -3.0067    3.1708 H   0  0  0  0  0  0  0  0  0  0  0  0
   -3.6192   -0.8474    2.9767 H   0  0  0  0  0  0  0  0  0  0  0  0
   -2.7589    2.6396    1.6364 H   0  0  0  0  0  0  0  0  0  0  0  0
   -3.6432    4.7872    0.8336 H   0  0  0  0  0  0  0  0  0  0  0  0
   -2.4374    6.0668   -0.9177 H   0  0  0  0  0  0  0  0  0  0  0  0
   -0.3392    5.1605   -1.8841 H   0  0  0  0  0  0  0  0  0  0  0  0
    0.5488    3.0001   -1.1180 H   0  0  0  0  0  0  0  0  0  0  0  0
    1.3009    3.0051    1.2287 H   0  0  0  0  0  0  0  0  0  0  0  0
    3.8720    0.5012   -0.4679 H   0  0  0  0  0  0  0  0  0  0  0  0
  1  2  2  0
  2  3  1  0
  2  4  1  0
  4  5  2  0
  5  6  1  0
  6  7  2  0
  7  8  1  0
  8  9  1  0
  9 10  1  0
 10 11  1  0
 11 12  1  0
 12 13  2  3
 13 14  1  0
 14 15  2  0
 15 16  1  0
 16 17  2  0
 17 18  1  0
 18 19  2  0
 12 20  1  0
 20 21  1  0
 21 22  2  0
 22 23  1  0
 23 24  2  0
 24 25  1  0
 25 26  2  0
 20 27  1  0
 27 28  1  0
  8 29  2  0
 29  4  1  0
 27 10  2  0
 19 14  1  0
 26 21  1  0
  5 30  1  0
  6 31  1  0
  7 32  1  0
  9 33  1  0
  9 34  1  0
 15 35  1  0
 16 36  1  0
 17 37  1  0
 18 38  1  0
 19 39  1  0
 22 40  1  0
 23 41  1  0
 24 42  1  0
 25 43  1  0
 26 44  1  0
 28 45  1  0
 29 46  1  0
M  CHG  2   2   1   3  -1
M  END
$$$$
