
     RDKit          3D

 47 49  0  0  0  0  0  0  0  0999 V2000
    7.0888   -3.6505   -1.5744 C   0  0  0  0  0  0  0  0  0  0  0  0
    6.3045   -2.8780   -2.4742 O   0  0  0  0  0  0  0  0  0  0  0  0
    5.3023   -2.1244   -1.9307 C   0  0  0  0  0  0  0  0  0  0  0  0
    4.9384   -2.0865   -0.5868 C   0  0  0  0  0  0  0  0  0  0  0  0
    3.8830   -1.2657   -0.1672 C   0  0  0  0  0  0  0  0  0  0  0  0
    3.1907   -0.4595   -1.0787 C   0  0  0  0  0  0  0  0  0  0  0  0
    2.1183    0.3086   -0.5783 N   0  0  0  0  0  0  0  0  0  0  0  0
    1.5041    1.4541   -1.0746 C   0  0  0  0  0  0  0  0  0  0  0  0
    2.2249    2.5531   -2.1230 S   0  0  0  0  0  0  0  0  0  0  0  0
    0.2110    1.6251   -0.5099 N   0  0  0  0  0  0  0  0  0  0  0  0
   -0.5291    2.8853   -0.6728 C   0  0  0  0  0  0  0  0  0  0  0  0
   -1.4842    3.1249    0.4947 C   0  0  0  0  0  0  0  0  0  0  0  0
   -2.3624    1.9314    0.7569 C   0  0  0  0  0  0  0  0  0  0  0  0
   -3.5702    2.0883    1.4543 C   0  0  0  0  0  0  0  0  0  0  0  0
   -4.3862    0.9861    1.7303 C   0  0  0  0  0  0  0  0  0  0  0  0
   -5.5828    1.0538    2.4006 O   0  0  0  0  0  0  0  0  0  0  0  0
   -6.0279    2.3318    2.8304 C   0  0  0  0  0  0  0  0  0  0  0  0
   -3.9856   -0.2957    1.3084 C   0  0  0  0  0  0  0  0  0  0  0  0
   -4.8411   -1.3257    1.6132 O   0  0  0  0  0  0  0  0  0  0  0  0
   -4.5005   -2.6267    1.1582 C   0  0  0  0  0  0  0  0  0  0  0  0
   -2.7725   -0.4501    0.6272 C   0  0  0  0  0  0  0  0  0  0  0  0
   -1.9476    0.6552    0.3557 C   0  0  0  0  0  0  0  0  0  0  0  0
   -0.6504    0.4368   -0.3893 C   0  0  0  0  0  0  0  0  0  0  0  0
    3.5411   -0.5223   -2.4259 C   0  0  0  0  0  0  0  0  0  0  0  0
    4.5942   -1.3436   -2.8450 C   0  0  0  0  0  0  0  0  0  0  0  0
    7.8570   -4.1665   -2.1585 H   0  0  0  0  0  0  0  0  0  0  0  0
    6.4806   -4.4131   -1.0769 H   0  0  0  0  0  0  0  0  0  0  0  0
    7.5980   -3.0123   -0.8446 H   0  0  0  0  0  0  0  0  0  0  0  0
    5.4506   -2.6814    0.1615 H   0  0  0  0  0  0  0  0  0  0  0  0
    3.6234   -1.2574    0.8883 H   0  0  0  0  0  0  0  0  0  0  0  0
    1.8913    0.1455    0.3948 H   0  0  0  0  0  0  0  0  0  0  0  0
   -1.0729    2.8328   -1.6248 H   0  0  0  0  0  0  0  0  0  0  0  0
    0.1574    3.7355   -0.7232 H   0  0  0  0  0  0  0  0  0  0  0  0
   -2.0964    4.0078    0.2772 H   0  0  0  0  0  0  0  0  0  0  0  0
   -0.9083    3.3289    1.4060 H   0  0  0  0  0  0  0  0  0  0  0  0
   -3.8518    3.0870    1.7725 H   0  0  0  0  0  0  0  0  0  0  0  0
   -6.1882    3.0018    1.9793 H   0  0  0  0  0  0  0  0  0  0  0  0
   -6.9906    2.1989    3.3335 H   0  0  0  0  0  0  0  0  0  0  0  0
   -5.3329    2.7693    3.5546 H   0  0  0  0  0  0  0  0  0  0  0  0
   -4.4351   -2.6600    0.0656 H   0  0  0  0  0  0  0  0  0  0  0  0
   -5.3005   -3.3080    1.4634 H   0  0  0  0  0  0  0  0  0  0  0  0
   -3.5723   -2.9760    1.6220 H   0  0  0  0  0  0  0  0  0  0  0  0
   -2.4410   -1.4294    0.2961 H   0  0  0  0  0  0  0  0  0  0  0  0
   -0.8808    0.1086   -1.4110 H   0  0  0  0  0  0  0  0  0  0  0  0
   -0.1034   -0.3718    0.1054 H   0  0  0  0  0  0  0  0  0  0  0  0
    2.9969    0.0304   -3.1843 H   0  0  0  0  0  0  0  0  0  0  0  0
    4.8582   -1.3769   -3.8995 H   0  0  0  0  0  0  0  0  0  0  0  0
  1  2  1  0
  2  3  1  0
  3  4  2  0
  4  5  1  0
  5  6  2  0
  6  7  1  0
  7  8  1  0
  8  9  2  0
  8 10  1  0
 10 11  1  0
 11 12  1  0
 12 13  1  0
 13 14  2  0
 14 15  1  0
 15 16  1  0
 16 17  1  0
 15 18  2  0
 18 19  1  0
 19 20  1  0
 18 21  1  0
 21 22  2  0
 22 23  1  0
  6 24  1  0
 24 25  2  0
 25  3  1  0
 23 10  1  0
 22 13  1  0
  1 26  1  0
  1 27  1  0
  1 28  1  0
  4 29  1  0
  5 30  1  0
  7 31  1  0
 11 32  1  0
 11 33  1  0
 12 34  1  0
 12 35  1  0
 14 36  1  0
 17 37  1  0
 17 38  1  0
 17 39  1  0
 20 40  1  0
 20 41  1  0
 20 42  1  0
 21 43  1  0
 23 44  1  0
 23 45  1  0
 24 46  1  0
 25 47  1  0
M  END
$$$$
