
     RDKit          3D

 63 64  0  0  0  0  0  0  0  0999 V2000
   -3.5672   -3.2057    2.5563 C   0  0  0  0  0  0  0  0  0  0  0  0
   -3.1513   -3.2643    1.0854 C   0  0  0  0  0  0  0  0  0  0  0  0
   -4.3067   -2.8346    0.1857 C   0  0  0  0  0  0  0  0  0  0  0  0
   -1.8405   -2.4967    0.8170 C   0  0  0  0  0  0  0  0  0  0  0  0
   -1.8640   -0.9752    1.0388 C   0  0  0  0  0  0  0  0  0  0  0  0
   -0.5027   -0.5000    1.2975 N   0  0  0  0  0  0  0  0  0  0  0  0
   -0.0306   -0.2644    2.5582 C   0  0  0  0  0  0  0  0  0  0  0  0
   -0.7475   -0.4060    3.5476 O   0  0  0  0  0  0  0  0  0  0  0  0
    1.3364    0.1754    2.7030 C   0  0  0  0  0  0  0  0  0  0  0  0
    1.7816    0.6154    3.9345 N   0  0  0  0  0  0  0  0  0  0  0  0
    3.0838    0.9816    3.8284 C   0  0  0  0  0  0  0  0  0  0  0  0
    3.5274    0.7884    2.6125 N   0  0  0  0  0  0  0  0  0  0  0  0
    2.4611    0.2654    1.8822 C   0  0  0  0  0  0  0  0  0  0  0  0
    2.5587   -0.0810    0.4508 C   0  0  0  0  0  0  0  0  0  0  0  0
    1.5438   -0.0765   -0.2489 O   0  0  0  0  0  0  0  0  0  0  0  0
    3.8026   -0.4180   -0.0948 N   0  0  0  0  0  0  0  0  0  0  0  0
    5.0396   -0.4862    0.6690 C   0  0  0  0  0  0  0  0  0  0  0  0
    3.9185   -0.5075   -1.5468 C   0  0  0  0  0  0  0  0  0  0  0  0
    4.5371    0.7291   -2.1567 C   0  0  0  0  0  0  0  0  0  0  0  0
    3.7942    1.9144   -2.2649 C   0  0  0  0  0  0  0  0  0  0  0  0
    4.3655    3.0607   -2.8198 C   0  0  0  0  0  0  0  0  0  0  0  0
    5.6840    3.0348   -3.2716 C   0  0  0  0  0  0  0  0  0  0  0  0
    6.4334    1.8636   -3.1674 C   0  0  0  0  0  0  0  0  0  0  0  0
    5.8643    0.7161   -2.6116 C   0  0  0  0  0  0  0  0  0  0  0  0
   -2.3679   -0.2338   -0.2044 C   0  0  0  0  0  0  0  0  0  0  0  0
   -1.7832   -0.2147   -1.2793 O   0  0  0  0  0  0  0  0  0  0  0  0
   -3.5334    0.4127    0.0748 O   0  0  0  0  0  0  0  0  0  0  0  0
   -4.1862    1.2352   -0.9261 C   0  0  0  0  0  0  0  0  0  0  0  0
   -4.6237    0.4045   -2.1374 C   0  0  0  0  0  0  0  0  0  0  0  0
   -5.4411    1.7772   -0.2245 C   0  0  0  0  0  0  0  0  0  0  0  0
   -3.3019    2.4193   -1.3328 C   0  0  0  0  0  0  0  0  0  0  0  0
   -3.8773   -2.1999    2.8557 H   0  0  0  0  0  0  0  0  0  0  0  0
   -4.4107   -3.8794    2.7425 H   0  0  0  0  0  0  0  0  0  0  0  0
   -2.7436   -3.5175    3.2073 H   0  0  0  0  0  0  0  0  0  0  0  0
   -2.9416   -4.3180    0.8541 H   0  0  0  0  0  0  0  0  0  0  0  0
   -5.1337   -3.5494    0.2619 H   0  0  0  0  0  0  0  0  0  0  0  0
   -4.7017   -1.8557    0.4712 H   0  0  0  0  0  0  0  0  0  0  0  0
   -3.9973   -2.7971   -0.8644 H   0  0  0  0  0  0  0  0  0  0  0  0
   -1.0711   -2.9393    1.4653 H   0  0  0  0  0  0  0  0  0  0  0  0
   -1.5148   -2.7130   -0.2095 H   0  0  0  0  0  0  0  0  0  0  0  0
   -2.4888   -0.7097    1.8964 H   0  0  0  0  0  0  0  0  0  0  0  0
    0.0995   -0.3414    0.4864 H   0  0  0  0  0  0  0  0  0  0  0  0
    1.2042    0.6575    4.7649 H   0  0  0  0  0  0  0  0  0  0  0  0
    3.6525    1.3768    4.6601 H   0  0  0  0  0  0  0  0  0  0  0  0
    5.4336    0.5241    0.8072 H   0  0  0  0  0  0  0  0  0  0  0  0
    4.8685   -0.9657    1.6357 H   0  0  0  0  0  0  0  0  0  0  0  0
    5.7758   -1.0915    0.1317 H   0  0  0  0  0  0  0  0  0  0  0  0
    4.5166   -1.3962   -1.7833 H   0  0  0  0  0  0  0  0  0  0  0  0
    2.9411   -0.6771   -2.0129 H   0  0  0  0  0  0  0  0  0  0  0  0
    2.7633    1.9478   -1.9156 H   0  0  0  0  0  0  0  0  0  0  0  0
    3.7806    3.9737   -2.8979 H   0  0  0  0  0  0  0  0  0  0  0  0
    6.1277    3.9280   -3.7033 H   0  0  0  0  0  0  0  0  0  0  0  0
    7.4625    1.8444   -3.5183 H   0  0  0  0  0  0  0  0  0  0  0  0
    6.4642   -0.1885   -2.5356 H   0  0  0  0  0  0  0  0  0  0  0  0
   -5.2464    0.9937   -2.8195 H   0  0  0  0  0  0  0  0  0  0  0  0
   -5.1934   -0.4762   -1.8206 H   0  0  0  0  0  0  0  0  0  0  0  0
   -3.7691    0.0351   -2.7118 H   0  0  0  0  0  0  0  0  0  0  0  0
   -6.0306    2.4212   -0.8854 H   0  0  0  0  0  0  0  0  0  0  0  0
   -5.1704    2.3529    0.6684 H   0  0  0  0  0  0  0  0  0  0  0  0
   -6.0804    0.9556    0.1201 H   0  0  0  0  0  0  0  0  0  0  0  0
   -3.8519    3.1322   -1.9565 H   0  0  0  0  0  0  0  0  0  0  0  0
   -2.4240    2.0971   -1.9010 H   0  0  0  0  0  0  0  0  0  0  0  0
   -2.9275    2.9465   -0.4481 H   0  0  0  0  0  0  0  0  0  0  0  0
  1  2  1  0
  2  3  1  0
  2  4  1  0
  4  5  1  0
  5  6  1  0
  6  7  1  0
  7  8  2  0
  7  9  1  0
  9 10  1  0
 10 11  1  0
 11 12  2  0
 12 13  1  0
 13 14  1  0
 14 15  2  0
 14 16  1  0
 16 17  1  0
 16 18  1  0
 18 19  1  0
 19 20  2  0
 20 21  1  0
 21 22  2  0
 22 23  1  0
 23 24  2  0
  5 25  1  0
 25 26  2  0
 25 27  1  0
 27 28  1  0
 28 29  1  0
 28 30  1  0
 28 31  1  0
 13  9  2  0
 24 19  1  0
  1 32  1  0
  1 33  1  0
  1 34  1  0
  2 35  1  0
  3 36  1  0
  3 37  1  0
  3 38  1  0
  4 39  1  0
  4 40  1  0
  5 41  1  0
  6 42  1  0
 10 43  1  0
 11 44  1  0
 17 45  1  0
 17 46  1  0
 17 47  1  0
 18 48  1  0
 18 49  1  0
 20 50  1  0
 21 51  1  0
 22 52  1  0
 23 53  1  0
 24 54  1  0
 29 55  1  0
 29 56  1  0
 29 57  1  0
 30 58  1  0
 30 59  1  0
 30 60  1  0
 31 61  1  0
 31 62  1  0
 31 63  1  0
M  END
$$$$
