
     RDKit          3D

 46 48  0  0  0  0  0  0  0  0999 V2000
    5.1319    2.7072    0.6624 C   0  0  0  0  0  0  0  0  0  0  0  0
    4.8378    1.2136    0.6908 C   0  0  0  0  0  0  0  0  0  0  0  0
    3.5526    0.8889   -0.0894 C   0  0  0  0  0  0  0  0  0  0  0  0
    3.3395   -0.5625   -0.1819 N   0  0  0  0  0  0  0  0  0  0  0  0
    2.0877   -1.1264   -0.4731 C   0  0  0  0  0  0  0  0  0  0  0  0
    1.9971   -2.1497   -1.1552 O   0  0  0  0  0  0  0  0  0  0  0  0
    0.8702   -0.5031    0.0671 C   0  0  0  0  0  0  0  0  0  0  0  0
   -0.4483   -0.6742   -0.4352 C   0  0  0  0  0  0  0  0  0  0  0  0
   -1.2499    0.0453    0.4169 C   0  0  0  0  0  0  0  0  0  0  0  0
   -2.7012    0.3276    0.5109 C   0  0  0  0  0  0  0  0  0  0  0  0
   -3.3644   -0.5448   -0.4032 O   0  0  0  0  0  0  0  0  0  0  0  0
   -4.7294   -0.4826   -0.4495 C   0  0  0  0  0  0  0  0  0  0  0  0
   -5.3226   -1.3978   -1.3226 C   0  0  0  0  0  0  0  0  0  0  0  0
   -6.7084   -1.4461   -1.4719 C   0  0  0  0  0  0  0  0  0  0  0  0
   -7.5151   -0.5756   -0.7421 C   0  0  0  0  0  0  0  0  0  0  0  0
   -6.9403    0.3473    0.1449 C   0  0  0  0  0  0  0  0  0  0  0  0
   -7.8129    1.3052    0.9188 C   0  0  0  0  0  0  0  0  0  0  0  0
   -9.0208    0.7741    1.2577 F   0  0  0  0  0  0  0  0  0  0  0  0
   -8.0838    2.4397    0.2162 F   0  0  0  0  0  0  0  0  0  0  0  0
   -7.2467    1.7171    2.0884 F   0  0  0  0  0  0  0  0  0  0  0  0
   -5.5392    0.3930    0.2770 C   0  0  0  0  0  0  0  0  0  0  0  0
   -0.4725    0.6064    1.3809 O   0  0  0  0  0  0  0  0  0  0  0  0
    0.8463    0.2515    1.1807 N   0  0  0  0  0  0  0  0  0  0  0  0
    4.5195   -1.2919   -0.6515 C   0  0  0  0  0  0  0  0  0  0  0  0
    5.7769   -0.8911    0.1378 C   0  0  0  0  0  0  0  0  0  0  0  0
    7.0220   -1.5367   -0.4534 C   0  0  0  0  0  0  0  0  0  0  0  0
    5.9651    0.5363    0.1060 O   0  0  0  0  0  0  0  0  0  0  0  0
    6.0557    2.9244    1.2094 H   0  0  0  0  0  0  0  0  0  0  0  0
    4.3166    3.2823    1.1117 H   0  0  0  0  0  0  0  0  0  0  0  0
    5.2854    3.0566   -0.3649 H   0  0  0  0  0  0  0  0  0  0  0  0
    4.7398    0.8884    1.7348 H   0  0  0  0  0  0  0  0  0  0  0  0
    3.6401    1.2440   -1.1252 H   0  0  0  0  0  0  0  0  0  0  0  0
    2.7045    1.4127    0.3490 H   0  0  0  0  0  0  0  0  0  0  0  0
   -0.7568   -1.2509   -1.2963 H   0  0  0  0  0  0  0  0  0  0  0  0
   -2.8809    1.3737    0.2352 H   0  0  0  0  0  0  0  0  0  0  0  0
   -3.0421    0.1377    1.5363 H   0  0  0  0  0  0  0  0  0  0  0  0
   -4.6977   -2.0823   -1.8927 H   0  0  0  0  0  0  0  0  0  0  0  0
   -7.1557   -2.1633   -2.1567 H   0  0  0  0  0  0  0  0  0  0  0  0
   -8.5966   -0.6197   -0.8655 H   0  0  0  0  0  0  0  0  0  0  0  0
   -5.1125    1.1254    0.9582 H   0  0  0  0  0  0  0  0  0  0  0  0
    4.6365   -1.0499   -1.7161 H   0  0  0  0  0  0  0  0  0  0  0  0
    4.3517   -2.3721   -0.5669 H   0  0  0  0  0  0  0  0  0  0  0  0
    5.6786   -1.2027    1.1865 H   0  0  0  0  0  0  0  0  0  0  0  0
    6.9496   -2.6290   -0.4385 H   0  0  0  0  0  0  0  0  0  0  0  0
    7.1820   -1.2082   -1.4869 H   0  0  0  0  0  0  0  0  0  0  0  0
    7.9110   -1.2375    0.1128 H   0  0  0  0  0  0  0  0  0  0  0  0
  1  2  1  0
  2  3  1  0
  3  4  1  0
  4  5  1  0
  5  6  2  0
  5  7  1  0
  7  8  1  0
  8  9  2  0
  9 10  1  0
 10 11  1  0
 11 12  1  0
 12 13  2  0
 13 14  1  0
 14 15  2  0
 15 16  1  0
 16 17  1  0
 17 18  1  0
 17 19  1  0
 17 20  1  0
 16 21  2  0
  9 22  1  0
 22 23  1  0
  4 24  1  0
 24 25  1  0
 25 26  1  0
 25 27  1  0
 27  2  1  0
 23  7  2  0
 21 12  1  0
  1 28  1  0
  1 29  1  0
  1 30  1  0
  2 31  1  0
  3 32  1  0
  3 33  1  0
  8 34  1  0
 10 35  1  0
 10 36  1  0
 13 37  1  0
 14 38  1  0
 15 39  1  0
 21 40  1  0
 24 41  1  0
 24 42  1  0
 25 43  1  0
 26 44  1  0
 26 45  1  0
 26 46  1  0
M  END
$$$$
