
     RDKit          3D

 38 42  0  0  0  0  0  0  0  0999 V2000
    0.2191   -1.2342   -2.4550 O   0  0  0  0  0  0  0  0  0  0  0  0
   -0.1646   -0.8489   -1.2447 C   0  0  0  0  0  0  0  0  0  0  0  0
   -1.3837   -0.4653   -0.7545 C   0  0  0  0  0  0  0  0  0  0  0  0
   -1.2188   -0.1557    0.6380 C   0  0  0  0  0  0  0  0  0  0  0  0
    0.0958   -0.3367    0.9701 C   0  0  0  0  0  0  0  0  0  0  0  0
    0.7013   -0.1509    2.1374 O   0  0  0  0  0  0  0  0  0  0  0  0
    0.7339   -0.7867   -0.1840 N   0  0  0  0  0  0  0  0  0  0  0  0
    2.1177   -1.2507   -0.2655 C   0  0  0  0  0  0  0  0  0  0  0  0
    3.1231   -0.1324   -0.1194 C   0  0  0  0  0  0  0  0  0  0  0  0
    3.0485    1.0199   -0.9163 C   0  0  0  0  0  0  0  0  0  0  0  0
    3.9905    2.0403   -0.7787 C   0  0  0  0  0  0  0  0  0  0  0  0
    5.0243    1.9162    0.1468 C   0  0  0  0  0  0  0  0  0  0  0  0
    5.1213    0.7694    0.9319 C   0  0  0  0  0  0  0  0  0  0  0  0
    4.1799   -0.2525    0.7967 C   0  0  0  0  0  0  0  0  0  0  0  0
   -2.5058    0.2874    1.3217 C   0  0  0  0  0  0  0  0  0  0  0  0
   -3.0137    1.4704    0.4533 C   0  0  0  0  0  0  0  0  0  0  0  0
   -3.1740    1.1756   -0.8638 C   0  0  0  0  0  0  0  0  0  0  0  0
   -2.8185   -0.2859   -1.2406 C   0  0  0  0  0  0  0  0  0  0  0  0
   -3.6745   -1.2492   -0.3554 C   0  0  0  0  0  0  0  0  0  0  0  0
   -4.8612   -0.8477    0.4964 C   0  0  0  0  0  0  0  0  0  0  0  0
   -3.4930   -0.9132    1.1435 C   0  0  0  0  0  0  0  0  0  0  0  0
   -0.5662   -1.1907   -3.0287 H   0  0  0  0  0  0  0  0  0  0  0  0
    1.6478    0.0080    1.9810 H   0  0  0  0  0  0  0  0  0  0  0  0
    2.2760   -1.7648   -1.2191 H   0  0  0  0  0  0  0  0  0  0  0  0
    2.2333   -1.9965    0.5305 H   0  0  0  0  0  0  0  0  0  0  0  0
    2.2504    1.1318   -1.6489 H   0  0  0  0  0  0  0  0  0  0  0  0
    3.9170    2.9319   -1.3964 H   0  0  0  0  0  0  0  0  0  0  0  0
    5.7577    2.7116    0.2516 H   0  0  0  0  0  0  0  0  0  0  0  0
    5.9342    0.6695    1.6469 H   0  0  0  0  0  0  0  0  0  0  0  0
    4.2809   -1.1443    1.4123 H   0  0  0  0  0  0  0  0  0  0  0  0
   -2.3699    0.5634    2.3697 H   0  0  0  0  0  0  0  0  0  0  0  0
   -3.2056    2.4413    0.8879 H   0  0  0  0  0  0  0  0  0  0  0  0
   -3.5120    1.8849   -1.6060 H   0  0  0  0  0  0  0  0  0  0  0  0
   -2.9408   -0.4845   -2.3077 H   0  0  0  0  0  0  0  0  0  0  0  0
   -3.5694   -2.2865   -0.6494 H   0  0  0  0  0  0  0  0  0  0  0  0
   -5.5724   -1.6249    0.7590 H   0  0  0  0  0  0  0  0  0  0  0  0
   -5.3375    0.1124    0.3420 H   0  0  0  0  0  0  0  0  0  0  0  0
   -3.2710   -1.7319    1.8173 H   0  0  0  0  0  0  0  0  0  0  0  0
  1  2  1  0
  2  3  2  0
  3  4  1  0
  4  5  2  0
  5  6  1  0
  5  7  1  0
  7  8  1  0
  8  9  1  0
  9 10  2  0
 10 11  1  0
 11 12  2  0
 12 13  1  0
 13 14  2  0
  4 15  1  0
 15 16  1  0
 16 17  2  0
 17 18  1  0
 18 19  1  0
 19 20  1  0
 20 21  1  0
  7  2  1  0
 14  9  1  0
 21 15  1  0
 18  3  1  0
 21 19  1  0
  1 22  1  0
  6 23  1  0
  8 24  1  0
  8 25  1  0
 10 26  1  0
 11 27  1  0
 12 28  1  0
 13 29  1  0
 14 30  1  0
 15 31  1  0
 16 32  1  0
 17 33  1  0
 18 34  1  0
 19 35  1  0
 20 36  1  0
 20 37  1  0
 21 38  1  0
M  END
$$$$
