
     RDKit          3D

 46 49  0  0  0  0  0  0  0  0999 V2000
    5.3714   -2.2001   -1.1315 C   0  0  0  0  0  0  0  0  0  0  0  0
    5.5303   -0.9511   -0.2851 C   0  0  0  0  0  0  0  0  0  0  0  0
    4.2581   -0.5436    0.2387 O   0  0  0  0  0  0  0  0  0  0  0  0
    3.5135    0.2682   -0.5610 C   0  0  0  0  0  0  0  0  0  0  0  0
    3.8652    0.6280   -1.6783 O   0  0  0  0  0  0  0  0  0  0  0  0
    2.3023    0.6282    0.0254 N   0  0  0  0  0  0  0  0  0  0  0  0
    1.8131   -0.0639    1.2112 C   0  0  0  0  0  0  0  0  0  0  0  0
    0.7558    0.7164    1.9840 C   0  0  0  0  0  0  0  0  0  0  0  0
   -0.3364    1.3677    1.1107 C   0  0  0  0  0  0  0  0  0  0  0  0
    0.3271    2.1361   -0.0463 C   0  0  0  0  0  0  0  0  0  0  0  0
    1.3247    1.2905   -0.8272 C   0  0  0  0  0  0  0  0  0  0  0  0
   -1.0293    2.3482    2.0099 N   0  0  0  0  0  0  0  0  0  0  0  0
   -2.3013    2.8618    1.4585 C   0  0  0  0  0  0  0  0  0  0  0  0
   -3.3680    1.7614    1.2949 C   0  0  0  0  0  0  0  0  0  0  0  0
   -2.7553    0.5495    0.6855 C   0  0  0  0  0  0  0  0  0  0  0  0
   -1.3807    0.3812    0.6213 C   0  0  0  0  0  0  0  0  0  0  0  0
   -1.1571   -0.8135   -0.0145 N   0  0  0  0  0  0  0  0  0  0  0  0
   -2.3508   -1.4275   -0.3267 C   0  0  0  0  0  0  0  0  0  0  0  0
   -2.5939   -2.6512   -0.9620 C   0  0  0  0  0  0  0  0  0  0  0  0
   -3.9267   -3.0265   -1.1557 C   0  0  0  0  0  0  0  0  0  0  0  0
   -4.9718   -2.2083   -0.7327 C   0  0  0  0  0  0  0  0  0  0  0  0
   -4.7109   -0.9863   -0.1020 C   0  0  0  0  0  0  0  0  0  0  0  0
   -3.3761   -0.5878    0.1053 C   0  0  0  0  0  0  0  0  0  0  0  0
    4.8943   -2.9981   -0.5530 H   0  0  0  0  0  0  0  0  0  0  0  0
    6.3433   -2.5542   -1.4866 H   0  0  0  0  0  0  0  0  0  0  0  0
    4.7310   -2.0092   -1.9983 H   0  0  0  0  0  0  0  0  0  0  0  0
    6.1736   -1.1691    0.5737 H   0  0  0  0  0  0  0  0  0  0  0  0
    6.0101   -0.1418   -0.8474 H   0  0  0  0  0  0  0  0  0  0  0  0
    2.6485   -0.2699    1.8902 H   0  0  0  0  0  0  0  0  0  0  0  0
    1.4378   -1.0411    0.8933 H   0  0  0  0  0  0  0  0  0  0  0  0
    0.3146    0.0622    2.7478 H   0  0  0  0  0  0  0  0  0  0  0  0
    1.2888    1.5089    2.5308 H   0  0  0  0  0  0  0  0  0  0  0  0
   -0.4174    2.5321   -0.7479 H   0  0  0  0  0  0  0  0  0  0  0  0
    0.8688    3.0027    0.3590 H   0  0  0  0  0  0  0  0  0  0  0  0
    1.8420    1.9341   -1.5485 H   0  0  0  0  0  0  0  0  0  0  0  0
    0.8180    0.5165   -1.4138 H   0  0  0  0  0  0  0  0  0  0  0  0
   -1.2519    1.8612    2.8791 H   0  0  0  0  0  0  0  0  0  0  0  0
   -2.6885    3.6321    2.1352 H   0  0  0  0  0  0  0  0  0  0  0  0
   -2.1217    3.3644    0.5011 H   0  0  0  0  0  0  0  0  0  0  0  0
   -3.7781    1.4960    2.2769 H   0  0  0  0  0  0  0  0  0  0  0  0
   -4.1917    2.1343    0.6765 H   0  0  0  0  0  0  0  0  0  0  0  0
   -0.2589   -1.2034   -0.2567 H   0  0  0  0  0  0  0  0  0  0  0  0
   -1.7830   -3.2906   -1.2949 H   0  0  0  0  0  0  0  0  0  0  0  0
   -4.1500   -3.9716   -1.6457 H   0  0  0  0  0  0  0  0  0  0  0  0
   -6.0009   -2.5191   -0.8944 H   0  0  0  0  0  0  0  0  0  0  0  0
   -5.5316   -0.3539    0.2222 H   0  0  0  0  0  0  0  0  0  0  0  0
  1  2  1  0
  2  3  1  0
  3  4  1  0
  4  5  2  0
  4  6  1  0
  6  7  1  0
  7  8  1  0
  8  9  1  0
  9 10  1  0
 10 11  1  0
  9 12  1  0
 12 13  1  0
 13 14  1  0
 14 15  1  0
 15 16  2  0
 16 17  1  0
 17 18  1  0
 18 19  2  0
 19 20  1  0
 20 21  2  0
 21 22  1  0
 22 23  2  0
 11  6  1  0
 23 15  1  0
 16  9  1  0
 23 18  1  0
  1 24  1  0
  1 25  1  0
  1 26  1  0
  2 27  1  0
  2 28  1  0
  7 29  1  0
  7 30  1  0
  8 31  1  0
  8 32  1  0
 10 33  1  0
 10 34  1  0
 11 35  1  0
 11 36  1  0
 12 37  1  0
 13 38  1  0
 13 39  1  0
 14 40  1  0
 14 41  1  0
 17 42  1  0
 19 43  1  0
 20 44  1  0
 21 45  1  0
 22 46  1  0
M  END
$$$$
