
     RDKit          3D

 58 61  0  0  0  0  0  0  0  0999 V2000
   -6.8173    2.5460    0.2517 C   0  0  0  0  0  0  0  0  0  0  0  0
   -5.3475    2.8451    0.2831 C   0  0  0  0  0  0  0  0  0  0  0  0
   -4.8660    3.9923    0.9209 C   0  0  0  0  0  0  0  0  0  0  0  0
   -3.4962    4.2478    0.9714 C   0  0  0  0  0  0  0  0  0  0  0  0
   -2.5942    3.3518    0.3937 C   0  0  0  0  0  0  0  0  0  0  0  0
   -3.0500    2.1870   -0.2396 C   0  0  0  0  0  0  0  0  0  0  0  0
   -2.1307    1.2266   -0.8448 C   0  0  0  0  0  0  0  0  0  0  0  0
   -2.4020    0.1177   -1.5062 N   0  0  0  0  0  0  0  0  0  0  0  0
   -1.1481   -0.3706   -1.8460 C   0  0  0  0  0  0  0  0  0  0  0  0
   -0.9061   -1.8154   -2.7502 S   0  0  0  0  0  6  0  0  0  0  0  0
    0.5278   -2.0501   -2.7652 O   0  0  0  0  0  0  0  0  0  0  0  0
   -1.6628   -1.6409   -3.9741 O   0  0  0  0  0  0  0  0  0  0  0  0
   -1.6744   -3.0940   -1.7896 C   0  0  0  0  0  0  0  0  0  0  0  0
   -0.8849   -3.9500   -1.0124 C   0  0  0  0  0  0  0  0  0  0  0  0
   -1.4938   -4.9797   -0.2943 C   0  0  0  0  0  0  0  0  0  0  0  0
   -2.8739   -5.1454   -0.3651 C   0  0  0  0  0  0  0  0  0  0  0  0
   -3.4504   -6.1451    0.3164 F   0  0  0  0  0  0  0  0  0  0  0  0
   -3.6620   -4.3013   -1.1436 C   0  0  0  0  0  0  0  0  0  0  0  0
   -3.0614   -3.2710   -1.8670 C   0  0  0  0  0  0  0  0  0  0  0  0
   -0.1651    0.4531   -1.3435 C   0  0  0  0  0  0  0  0  0  0  0  0
    1.1817    0.4296   -1.3437 N   0  0  0  0  0  0  0  0  0  0  0  0
    1.9976    1.5261   -0.8525 C   0  0  0  0  0  0  0  0  0  0  0  0
    2.1568    1.4807    0.6677 C   0  0  0  0  0  0  0  0  0  0  0  0
    2.9046    0.2396    1.1784 C   0  0  0  0  0  0  0  0  0  0  0  0
    4.2792    0.1225    0.6661 N   0  0  0  0  0  0  0  0  0  0  0  0
    5.2233    1.0758    1.2908 C   0  0  0  0  0  0  0  0  0  0  0  0
    6.1042    0.4479    2.3843 C   0  0  0  0  0  0  0  0  0  0  0  0
    6.8984   -0.6498    1.9117 O   0  0  0  0  0  0  0  0  0  0  0  0
    6.3022   -1.3376    0.8023 C   0  0  0  0  0  0  0  0  0  0  0  0
    4.7689   -1.2675    0.8273 C   0  0  0  0  0  0  0  0  0  0  0  0
   -0.7932    1.4841   -0.7046 O   0  0  0  0  0  0  0  0  0  0  0  0
   -4.4326    1.9456   -0.2835 C   0  0  0  0  0  0  0  0  0  0  0  0
   -7.4078    3.4577    0.3867 H   0  0  0  0  0  0  0  0  0  0  0  0
   -7.0718    1.8435    1.0517 H   0  0  0  0  0  0  0  0  0  0  0  0
   -7.1031    2.1114   -0.7120 H   0  0  0  0  0  0  0  0  0  0  0  0
   -5.5557    4.6978    1.3798 H   0  0  0  0  0  0  0  0  0  0  0  0
   -3.1294    5.1473    1.4605 H   0  0  0  0  0  0  0  0  0  0  0  0
   -1.5308    3.5755    0.4430 H   0  0  0  0  0  0  0  0  0  0  0  0
    0.1954   -3.8303   -0.9675 H   0  0  0  0  0  0  0  0  0  0  0  0
   -0.9025   -5.6610    0.3116 H   0  0  0  0  0  0  0  0  0  0  0  0
   -4.7355   -4.4599   -1.1892 H   0  0  0  0  0  0  0  0  0  0  0  0
   -3.6719   -2.6172   -2.4880 H   0  0  0  0  0  0  0  0  0  0  0  0
    1.6807   -0.2936   -1.8676 H   0  0  0  0  0  0  0  0  0  0  0  0
    1.5606    2.4883   -1.1494 H   0  0  0  0  0  0  0  0  0  0  0  0
    2.9794    1.4798   -1.3378 H   0  0  0  0  0  0  0  0  0  0  0  0
    1.1698    1.5009    1.1462 H   0  0  0  0  0  0  0  0  0  0  0  0
    2.6678    2.3934    0.9936 H   0  0  0  0  0  0  0  0  0  0  0  0
    2.9057    0.2453    2.2771 H   0  0  0  0  0  0  0  0  0  0  0  0
    2.3252   -0.6439    0.8790 H   0  0  0  0  0  0  0  0  0  0  0  0
    5.8801    1.4370    0.4889 H   0  0  0  0  0  0  0  0  0  0  0  0
    4.7168    1.9597    1.6913 H   0  0  0  0  0  0  0  0  0  0  0  0
    5.4897    0.0878    3.2176 H   0  0  0  0  0  0  0  0  0  0  0  0
    6.7930    1.1980    2.7877 H   0  0  0  0  0  0  0  0  0  0  0  0
    6.7015   -0.9072   -0.1240 H   0  0  0  0  0  0  0  0  0  0  0  0
    6.6329   -2.3802    0.8466 H   0  0  0  0  0  0  0  0  0  0  0  0
    4.3566   -1.8881    0.0230 H   0  0  0  0  0  0  0  0  0  0  0  0
    4.4235   -1.6831    1.7838 H   0  0  0  0  0  0  0  0  0  0  0  0
   -4.8020    1.0402   -0.7654 H   0  0  0  0  0  0  0  0  0  0  0  0
  1  2  1  0
  2  3  2  0
  3  4  1  0
  4  5  2  0
  5  6  1  0
  6  7  1  0
  7  8  2  0
  8  9  1  0
  9 10  1  0
 10 11  2  0
 10 12  2  0
 10 13  1  0
 13 14  2  0
 14 15  1  0
 15 16  2  0
 16 17  1  0
 16 18  1  0
 18 19  2  0
  9 20  2  0
 20 21  1  0
 21 22  1  0
 22 23  1  0
 23 24  1  0
 24 25  1  0
 25 26  1  0
 26 27  1  0
 27 28  1  0
 28 29  1  0
 29 30  1  0
 20 31  1  0
  6 32  2  0
 32  2  1  0
 31  7  1  0
 19 13  1  0
 30 25  1  0
  1 33  1  0
  1 34  1  0
  1 35  1  0
  3 36  1  0
  4 37  1  0
  5 38  1  0
 14 39  1  0
 15 40  1  0
 18 41  1  0
 19 42  1  0
 21 43  1  0
 22 44  1  0
 22 45  1  0
 23 46  1  0
 23 47  1  0
 24 48  1  0
 24 49  1  0
 26 50  1  0
 26 51  1  0
 27 52  1  0
 27 53  1  0
 29 54  1  0
 29 55  1  0
 30 56  1  0
 30 57  1  0
 32 58  1  0
M  END
$$$$
