
     RDKit          3D

 54 57  0  0  0  0  0  0  0  0999 V2000
    7.1912    4.1660   -0.9591 C   0  0  0  0  0  0  0  0  0  0  0  0
    7.2684    2.7984   -0.5755 O   0  0  0  0  0  0  0  0  0  0  0  0
    6.0883    2.1670   -0.2983 C   0  0  0  0  0  0  0  0  0  0  0  0
    6.2100    0.8204    0.0384 C   0  0  0  0  0  0  0  0  0  0  0  0
    5.0785    0.0567    0.3456 C   0  0  0  0  0  0  0  0  0  0  0  0
    3.7890    0.6162    0.3334 C   0  0  0  0  0  0  0  0  0  0  0  0
    2.6068   -0.2075    0.6667 C   0  0  0  0  0  0  0  0  0  0  0  0
    1.4615    0.3072    1.2477 C   0  0  0  0  0  0  0  0  0  0  0  0
    0.3952   -0.5563    1.5107 C   0  0  0  0  0  0  0  0  0  0  0  0
   -0.8198    0.0765    2.0755 C   0  0  0  0  0  0  0  0  0  0  0  0
   -0.7294    0.8459    3.0235 O   0  0  0  0  0  0  0  0  0  0  0  0
   -1.9928   -0.1976    1.4153 N   0  0  0  0  0  0  0  0  0  0  0  0
   -3.2246    0.5003    1.7316 C   0  0  0  0  0  0  0  0  0  0  0  0
   -4.4221   -0.1362    1.0038 C   0  0  0  0  0  0  0  0  0  0  0  0
   -4.1865   -0.3251   -0.4447 N   0  0  0  0  0  0  0  0  0  0  0  0
   -4.0353    0.9732   -1.1448 C   0  0  0  0  0  0  0  0  0  0  0  0
   -4.3764    0.8654   -2.6387 C   0  0  0  0  0  0  0  0  0  0  0  0
   -5.7481    0.5164   -2.8657 O   0  0  0  0  0  0  0  0  0  0  0  0
   -6.3080   -0.2856   -1.8168 C   0  0  0  0  0  0  0  0  0  0  0  0
   -5.2608   -1.1288   -1.0726 C   0  0  0  0  0  0  0  0  0  0  0  0
    0.4926   -1.9392    1.2407 C   0  0  0  0  0  0  0  0  0  0  0  0
   -0.4981   -2.9106    1.5427 C   0  0  0  0  0  0  0  0  0  0  0  0
   -0.3088   -4.2568    1.2339 C   0  0  0  0  0  0  0  0  0  0  0  0
    0.8724   -4.6569    0.6283 C   0  0  0  0  0  0  0  0  0  0  0  0
    1.8582   -3.7085    0.3464 C   0  0  0  0  0  0  0  0  0  0  0  0
    1.6958   -2.3631    0.6491 C   0  0  0  0  0  0  0  0  0  0  0  0
    2.7077   -1.5262    0.3662 N   0  0  0  0  0  0  0  0  0  0  0  0
    3.6874    1.9752   -0.0152 C   0  0  0  0  0  0  0  0  0  0  0  0
    4.8205    2.7428   -0.3261 C   0  0  0  0  0  0  0  0  0  0  0  0
    6.7767    4.7814   -0.1521 H   0  0  0  0  0  0  0  0  0  0  0  0
    6.6154    4.2849   -1.8836 H   0  0  0  0  0  0  0  0  0  0  0  0
    8.2098    4.5155   -1.1552 H   0  0  0  0  0  0  0  0  0  0  0  0
    7.1929    0.3555    0.0620 H   0  0  0  0  0  0  0  0  0  0  0  0
    5.2122   -0.9933    0.6024 H   0  0  0  0  0  0  0  0  0  0  0  0
    1.3813    1.3582    1.5068 H   0  0  0  0  0  0  0  0  0  0  0  0
   -1.9615   -0.6443    0.5033 H   0  0  0  0  0  0  0  0  0  0  0  0
   -3.0971    1.5500    1.4448 H   0  0  0  0  0  0  0  0  0  0  0  0
   -3.3782    0.4700    2.8163 H   0  0  0  0  0  0  0  0  0  0  0  0
   -5.3277    0.4545    1.1880 H   0  0  0  0  0  0  0  0  0  0  0  0
   -4.5821   -1.1230    1.4582 H   0  0  0  0  0  0  0  0  0  0  0  0
   -3.0031    1.3244   -1.0363 H   0  0  0  0  0  0  0  0  0  0  0  0
   -4.7005    1.7250   -0.7014 H   0  0  0  0  0  0  0  0  0  0  0  0
   -4.1974    1.8247   -3.1356 H   0  0  0  0  0  0  0  0  0  0  0  0
   -3.7432    0.1195   -3.1340 H   0  0  0  0  0  0  0  0  0  0  0  0
   -7.0615   -0.9378   -2.2709 H   0  0  0  0  0  0  0  0  0  0  0  0
   -6.8315    0.3817   -1.1222 H   0  0  0  0  0  0  0  0  0  0  0  0
   -4.7751   -1.7927   -1.7989 H   0  0  0  0  0  0  0  0  0  0  0  0
   -5.7560   -1.7822   -0.3451 H   0  0  0  0  0  0  0  0  0  0  0  0
   -1.4231   -2.6273    2.0409 H   0  0  0  0  0  0  0  0  0  0  0  0
   -1.0776   -4.9871    1.4733 H   0  0  0  0  0  0  0  0  0  0  0  0
    1.0383   -5.7024    0.3825 H   0  0  0  0  0  0  0  0  0  0  0  0
    2.7877   -4.0314   -0.1180 H   0  0  0  0  0  0  0  0  0  0  0  0
    2.7161    2.4617   -0.0675 H   0  0  0  0  0  0  0  0  0  0  0  0
    4.6725    3.7852   -0.5876 H   0  0  0  0  0  0  0  0  0  0  0  0
  1  2  1  0
  2  3  1  0
  3  4  2  0
  4  5  1  0
  5  6  2  0
  6  7  1  0
  7  8  2  0
  8  9  1  0
  9 10  1  0
 10 11  2  0
 10 12  1  0
 12 13  1  0
 13 14  1  0
 14 15  1  0
 15 16  1  0
 16 17  1  0
 17 18  1  0
 18 19  1  0
 19 20  1  0
  9 21  2  0
 21 22  1  0
 22 23  2  0
 23 24  1  0
 24 25  2  0
 25 26  1  0
 26 27  2  0
  6 28  1  0
 28 29  2  0
 29  3  1  0
 27  7  1  0
 20 15  1  0
 26 21  1  0
  1 30  1  0
  1 31  1  0
  1 32  1  0
  4 33  1  0
  5 34  1  0
  8 35  1  0
 12 36  1  0
 13 37  1  0
 13 38  1  0
 14 39  1  0
 14 40  1  0
 16 41  1  0
 16 42  1  0
 17 43  1  0
 17 44  1  0
 19 45  1  0
 19 46  1  0
 20 47  1  0
 20 48  1  0
 22 49  1  0
 23 50  1  0
 24 51  1  0
 25 52  1  0
 28 53  1  0
 29 54  1  0
M  END
$$$$
