
     RDKit          3D

 62 65  0  0  0  0  0  0  0  0999 V2000
   -3.2976   -3.9940   -3.4629 C   0  0  0  0  0  0  0  0  0  0  0  0
   -3.0494   -2.5346   -3.1275 C   0  0  0  0  0  0  0  0  0  0  0  0
   -2.3749   -2.4144   -1.8665 O   0  0  0  0  0  0  0  0  0  0  0  0
   -3.1690   -2.4810   -0.7656 C   0  0  0  0  0  0  0  0  0  0  0  0
   -4.3768   -2.6561   -0.7501 O   0  0  0  0  0  0  0  0  0  0  0  0
   -2.3164   -2.3204    0.4412 C   0  0  0  0  0  0  0  0  0  0  0  0
   -2.1305   -3.3946    1.2543 C   0  0  0  0  0  0  0  0  0  0  0  0
   -2.9008   -4.6870    1.1272 C   0  0  0  0  0  0  0  0  0  0  0  0
   -1.1435   -3.4518    2.2396 N   0  0  0  0  0  0  0  0  0  0  0  0
   -0.2156   -2.5551    2.1582 C   0  0  0  0  0  0  0  0  0  0  0  0
    1.2541   -2.6297    3.0778 S   0  0  0  0  0  0  0  0  0  0  0  0
    2.0530   -1.5042    1.9779 C   0  0  0  0  0  0  0  0  0  0  0  0
    3.3758   -1.2707    2.1291 C   0  0  0  0  0  0  0  0  0  0  0  0
    4.1306   -1.8911    3.1149 O   0  0  0  0  0  0  0  0  0  0  0  0
    4.1837   -0.3412    1.3322 C   0  0  0  0  0  0  0  0  0  0  0  0
    4.6562   -0.7021    0.0657 C   0  0  0  0  0  0  0  0  0  0  0  0
    5.4164    0.1980   -0.6922 C   0  0  0  0  0  0  0  0  0  0  0  0
    5.7157    1.4642   -0.1865 C   0  0  0  0  0  0  0  0  0  0  0  0
    6.4349    2.4364   -0.8251 O   0  0  0  0  0  0  0  0  0  0  0  0
    7.1000    2.0555   -2.0254 C   0  0  0  0  0  0  0  0  0  0  0  0
    5.2486    1.8223    1.0804 C   0  0  0  0  0  0  0  0  0  0  0  0
    4.4937    0.9252    1.8410 C   0  0  0  0  0  0  0  0  0  0  0  0
    1.0672   -0.9425    1.0313 C   0  0  0  0  0  0  0  0  0  0  0  0
    1.4285   -0.0443    0.0493 N   0  0  0  0  0  0  0  0  0  0  0  0
   -0.1872   -1.4032    1.2269 C   0  0  0  0  0  0  0  0  0  0  0  0
   -1.5048   -1.0957    0.6604 C   0  0  0  0  0  0  0  0  0  0  0  0
   -2.0090    0.1740    0.5552 C   0  0  0  0  0  0  0  0  0  0  0  0
   -3.4009    0.4471    0.1335 C   0  0  0  0  0  0  0  0  0  0  0  0
   -3.8074    1.6941   -0.1660 C   0  0  0  0  0  0  0  0  0  0  0  0
   -2.9016    2.8322   -0.0210 C   0  0  0  0  0  0  0  0  0  0  0  0
   -3.2664    4.0645   -0.4399 C   0  0  0  0  0  0  0  0  0  0  0  0
   -4.4499    4.2688   -1.1167 O   0  0  0  0  0  0  0  0  0  0  0  0
   -2.4414    5.1605   -0.2888 O   0  0  0  0  0  0  0  0  0  0  0  0
   -2.9864    6.0590    0.6766 C   0  0  0  0  0  0  0  0  0  0  0  0
   -1.6452    2.6112    0.6949 C   0  0  0  0  0  0  0  0  0  0  0  0
   -1.2407    1.3636    0.9940 C   0  0  0  0  0  0  0  0  0  0  0  0
   -3.9707   -4.4572   -2.7338 H   0  0  0  0  0  0  0  0  0  0  0  0
   -3.7449   -4.0924   -4.4563 H   0  0  0  0  0  0  0  0  0  0  0  0
   -2.3612   -4.5641   -3.4378 H   0  0  0  0  0  0  0  0  0  0  0  0
   -2.3927   -2.0917   -3.8852 H   0  0  0  0  0  0  0  0  0  0  0  0
   -3.9793   -1.9527   -3.1304 H   0  0  0  0  0  0  0  0  0  0  0  0
   -2.9931   -5.1739    2.1060 H   0  0  0  0  0  0  0  0  0  0  0  0
   -3.9210   -4.5415    0.7649 H   0  0  0  0  0  0  0  0  0  0  0  0
   -2.3789   -5.3749    0.4538 H   0  0  0  0  0  0  0  0  0  0  0  0
    3.5358   -2.5072    3.5861 H   0  0  0  0  0  0  0  0  0  0  0  0
    4.4320   -1.6847   -0.3414 H   0  0  0  0  0  0  0  0  0  0  0  0
    5.7540   -0.1207   -1.6729 H   0  0  0  0  0  0  0  0  0  0  0  0
    6.3817    1.7995   -2.8134 H   0  0  0  0  0  0  0  0  0  0  0  0
    7.8024    1.2330   -1.8460 H   0  0  0  0  0  0  0  0  0  0  0  0
    7.6797    2.9166   -2.3708 H   0  0  0  0  0  0  0  0  0  0  0  0
    5.4851    2.8052    1.4829 H   0  0  0  0  0  0  0  0  0  0  0  0
    4.1554    1.2180    2.8344 H   0  0  0  0  0  0  0  0  0  0  0  0
    2.1730    0.6016    0.2948 H   0  0  0  0  0  0  0  0  0  0  0  0
    0.6593    0.4093   -0.4380 H   0  0  0  0  0  0  0  0  0  0  0  0
   -4.1411   -0.3398    0.0941 H   0  0  0  0  0  0  0  0  0  0  0  0
   -4.8341    1.8767   -0.4687 H   0  0  0  0  0  0  0  0  0  0  0  0
   -4.3364    5.1334   -1.5491 H   0  0  0  0  0  0  0  0  0  0  0  0
   -2.2840    6.8886    0.7975 H   0  0  0  0  0  0  0  0  0  0  0  0
   -3.9427    6.4722    0.3386 H   0  0  0  0  0  0  0  0  0  0  0  0
   -3.1061    5.5665    1.6473 H   0  0  0  0  0  0  0  0  0  0  0  0
   -1.0676    3.4681    1.0209 H   0  0  0  0  0  0  0  0  0  0  0  0
   -0.3478    1.2493    1.5952 H   0  0  0  0  0  0  0  0  0  0  0  0
  1  2  1  0
  2  3  1  0
  3  4  1  0
  4  5  2  0
  4  6  1  0
  6  7  2  0
  7  8  1  0
  7  9  1  0
  9 10  2  0
 10 11  1  0
 11 12  1  0
 12 13  2  3
 13 14  1  0
 13 15  1  0
 15 16  2  0
 16 17  1  0
 17 18  2  0
 18 19  1  0
 19 20  1  0
 18 21  1  0
 21 22  2  0
 12 23  1  0
 23 24  1  0
 23 25  2  0
 25 26  1  0
 26 27  2  3
 27 28  1  0
 28 29  2  0
 29 30  1  0
 30 31  2  3
 31 32  1  0
 31 33  1  0
 33 34  1  0
 30 35  1  0
 35 36  2  0
 26  6  1  0
 36 27  1  0
 25 10  1  0
 22 15  1  0
  1 37  1  0
  1 38  1  0
  1 39  1  0
  2 40  1  0
  2 41  1  0
  8 42  1  0
  8 43  1  0
  8 44  1  0
 14 45  1  0
 16 46  1  0
 17 47  1  0
 20 48  1  0
 20 49  1  0
 20 50  1  0
 21 51  1  0
 22 52  1  0
 24 53  1  0
 24 54  1  0
 28 55  1  0
 29 56  1  0
 32 57  1  0
 34 58  1  0
 34 59  1  0
 34 60  1  0
 35 61  1  0
 36 62  1  0
M  END
$$$$
