
     RDKit          3D

 81 85  0  0  0  0  0  0  0  0999 V2000
   -5.4623    0.3505   -2.5929 C   0  0  0  0  0  0  0  0  0  0  0  0
   -5.3745   -0.0960   -1.1206 C   0  0  0  0  0  0  0  0  0  0  0  0
   -6.3499   -1.2738   -0.9257 C   0  0  0  0  0  0  0  0  0  0  0  0
   -5.7929    1.0885   -0.2116 C   0  0  0  0  0  0  0  0  0  0  0  0
   -5.1077    1.0577    1.1583 C   0  0  0  0  0  0  0  0  0  0  0  0
   -3.5540    1.1315    1.0647 C   0  0  0  0  0  0  0  0  0  0  0  0
   -3.1493    2.6079    1.1957 C   0  0  0  0  0  0  0  0  0  0  0  0
   -2.5422    3.1261    2.1199 O   0  0  0  0  0  0  0  0  0  0  0  0
   -3.5691    3.3848    0.1773 O   0  0  0  0  0  0  0  0  0  0  0  0
   -2.9597    0.3587    2.2710 C   0  0  0  0  0  0  0  0  0  0  0  0
   -1.4415    0.1050    2.1916 C   0  0  0  0  0  0  0  0  0  0  0  0
   -0.9549   -0.5971    0.8831 C   0  0  0  0  0  0  0  0  0  0  0  0
   -1.5545   -2.0304    0.8284 C   0  0  0  0  0  0  0  0  0  0  0  0
   -1.5373    0.2697   -0.2386 C   0  0  0  0  0  0  0  0  0  0  0  0
   -0.7565    0.9790   -1.0667 C   0  0  0  0  0  0  0  0  0  0  0  0
    0.7197    1.0883   -0.9807 C   0  0  0  0  0  0  0  0  0  0  0  0
    1.3723    0.6079    0.3439 C   0  0  0  0  0  0  0  0  0  0  0  0
    2.9729    0.5478    0.1783 C   0  0  0  0  0  0  0  0  0  0  0  0
    3.6206    0.4810    1.5867 C   0  0  0  0  0  0  0  0  0  0  0  0
    3.5217    1.8505   -0.4891 C   0  0  0  0  0  0  0  0  0  0  0  0
    5.0106    1.7959   -0.8377 C   0  0  0  0  0  0  0  0  0  0  0  0
    5.3452    0.5950   -1.7207 C   0  0  0  0  0  0  0  0  0  0  0  0
    6.7447    0.6018   -1.9995 O   0  0  0  0  0  0  0  0  0  0  0  0
    4.8796   -0.7755   -1.1397 C   0  0  0  0  0  0  0  0  0  0  0  0
    5.0582   -1.8335   -2.2642 C   0  0  0  0  0  0  0  0  0  0  0  0
    5.7871   -1.2382    0.0184 C   0  0  0  0  0  0  0  0  0  0  0  0
    3.3523   -0.6587   -0.7577 C   0  0  0  0  0  0  0  0  0  0  0  0
    2.6928   -1.9716   -0.2991 C   0  0  0  0  0  0  0  0  0  0  0  0
    1.1667   -1.8597   -0.1297 C   0  0  0  0  0  0  0  0  0  0  0  0
    0.6894   -0.7329    0.8404 C   0  0  0  0  0  0  0  0  0  0  0  0
    1.1495   -1.1319    2.2740 C   0  0  0  0  0  0  0  0  0  0  0  0
   -3.0414    0.5611   -0.2878 C   0  0  0  0  0  0  0  0  0  0  0  0
   -3.9343   -0.5831   -0.7982 C   0  0  0  0  0  0  0  0  0  0  0  0
   -4.7655    1.1682   -2.8063 H   0  0  0  0  0  0  0  0  0  0  0  0
   -5.2223   -0.4747   -3.2728 H   0  0  0  0  0  0  0  0  0  0  0  0
   -6.4713    0.7007   -2.8387 H   0  0  0  0  0  0  0  0  0  0  0  0
   -7.3733   -0.9916   -1.1977 H   0  0  0  0  0  0  0  0  0  0  0  0
   -6.3654   -1.6103    0.1168 H   0  0  0  0  0  0  0  0  0  0  0  0
   -6.0644   -2.1292   -1.5486 H   0  0  0  0  0  0  0  0  0  0  0  0
   -5.5597    2.0417   -0.7008 H   0  0  0  0  0  0  0  0  0  0  0  0
   -6.8811    1.0928   -0.0701 H   0  0  0  0  0  0  0  0  0  0  0  0
   -5.4201    0.1372    1.6675 H   0  0  0  0  0  0  0  0  0  0  0  0
   -5.4940    1.8839    1.7690 H   0  0  0  0  0  0  0  0  0  0  0  0
   -3.2427    4.2767    0.4202 H   0  0  0  0  0  0  0  0  0  0  0  0
   -3.1695    0.8979    3.2048 H   0  0  0  0  0  0  0  0  0  0  0  0
   -3.4685   -0.6056    2.3835 H   0  0  0  0  0  0  0  0  0  0  0  0
   -1.1900   -0.5003    3.0699 H   0  0  0  0  0  0  0  0  0  0  0  0
   -0.9145    1.0593    2.3148 H   0  0  0  0  0  0  0  0  0  0  0  0
   -2.5865   -2.0846    1.1727 H   0  0  0  0  0  0  0  0  0  0  0  0
   -1.5282   -2.4370   -0.1890 H   0  0  0  0  0  0  0  0  0  0  0  0
   -1.0196   -2.7272    1.4805 H   0  0  0  0  0  0  0  0  0  0  0  0
   -1.2064    1.6094   -1.8330 H   0  0  0  0  0  0  0  0  0  0  0  0
    0.9438    2.1553   -1.1025 H   0  0  0  0  0  0  0  0  0  0  0  0
    1.1264    0.5788   -1.8576 H   0  0  0  0  0  0  0  0  0  0  0  0
    1.1509    1.3827    1.0925 H   0  0  0  0  0  0  0  0  0  0  0  0
    4.5861    0.9876    1.6445 H   0  0  0  0  0  0  0  0  0  0  0  0
    3.0018    0.9894    2.3338 H   0  0  0  0  0  0  0  0  0  0  0  0
    3.8056   -0.5389    1.9233 H   0  0  0  0  0  0  0  0  0  0  0  0
    3.3285    2.7145    0.1590 H   0  0  0  0  0  0  0  0  0  0  0  0
    3.0057    2.0491   -1.4340 H   0  0  0  0  0  0  0  0  0  0  0  0
    5.6407    1.8038    0.0573 H   0  0  0  0  0  0  0  0  0  0  0  0
    5.2864    2.7155   -1.3707 H   0  0  0  0  0  0  0  0  0  0  0  0
    4.8469    0.7483   -2.6870 H   0  0  0  0  0  0  0  0  0  0  0  0
    7.2231    0.6340   -1.1540 H   0  0  0  0  0  0  0  0  0  0  0  0
    6.0805   -1.8298   -2.6596 H   0  0  0  0  0  0  0  0  0  0  0  0
    4.8656   -2.8488   -1.9023 H   0  0  0  0  0  0  0  0  0  0  0  0
    4.3818   -1.6391   -3.1041 H   0  0  0  0  0  0  0  0  0  0  0  0
    5.3898   -2.1287    0.5146 H   0  0  0  0  0  0  0  0  0  0  0  0
    5.9386   -0.4664    0.7735 H   0  0  0  0  0  0  0  0  0  0  0  0
    6.7865   -1.5055   -0.3465 H   0  0  0  0  0  0  0  0  0  0  0  0
    2.8752   -0.4473   -1.7249 H   0  0  0  0  0  0  0  0  0  0  0  0
    2.8650   -2.7564   -1.0438 H   0  0  0  0  0  0  0  0  0  0  0  0
    3.1509   -2.3383    0.6229 H   0  0  0  0  0  0  0  0  0  0  0  0
    0.7168   -1.7159   -1.1198 H   0  0  0  0  0  0  0  0  0  0  0  0
    0.8219   -2.8396    0.2205 H   0  0  0  0  0  0  0  0  0  0  0  0
    2.1441   -1.5701    2.3135 H   0  0  0  0  0  0  0  0  0  0  0  0
    1.1357   -0.2731    2.9527 H   0  0  0  0  0  0  0  0  0  0  0  0
    0.5084   -1.9048    2.7090 H   0  0  0  0  0  0  0  0  0  0  0  0
   -3.1732    1.3498   -1.0421 H   0  0  0  0  0  0  0  0  0  0  0  0
   -4.0071   -1.3645   -0.0390 H   0  0  0  0  0  0  0  0  0  0  0  0
   -3.4847   -1.0553   -1.6810 H   0  0  0  0  0  0  0  0  0  0  0  0
  1  2  1  0
  2  3  1  0
  2  4  1  0
  4  5  1  0
  5  6  1  0
  6  7  1  0
  7  8  2  0
  7  9  1  0
  6 10  1  0
 10 11  1  0
 11 12  1  0
 12 13  1  0
 12 14  1  0
 14 15  2  0
 15 16  1  0
 16 17  1  0
 17 18  1  0
 18 19  1  0
 18 20  1  0
 20 21  1  0
 21 22  1  0
 22 23  1  0
 22 24  1  0
 24 25  1  0
 24 26  1  0
 24 27  1  0
 27 28  1  0
 28 29  1  0
 29 30  1  0
 30 31  1  0
 14 32  1  0
 32 33  1  0
 33  2  1  0
 32  6  1  0
 30 12  1  0
 30 17  1  0
 27 18  1  0
  1 34  1  0
  1 35  1  0
  1 36  1  0
  3 37  1  0
  3 38  1  0
  3 39  1  0
  4 40  1  0
  4 41  1  0
  5 42  1  0
  5 43  1  0
  9 44  1  0
 10 45  1  0
 10 46  1  0
 11 47  1  0
 11 48  1  0
 13 49  1  0
 13 50  1  0
 13 51  1  0
 15 52  1  0
 16 53  1  0
 16 54  1  0
 17 55  1  0
 19 56  1  0
 19 57  1  0
 19 58  1  0
 20 59  1  0
 20 60  1  0
 21 61  1  0
 21 62  1  0
 22 63  1  0
 23 64  1  0
 25 65  1  0
 25 66  1  0
 25 67  1  0
 26 68  1  0
 26 69  1  0
 26 70  1  0
 27 71  1  0
 28 72  1  0
 28 73  1  0
 29 74  1  0
 29 75  1  0
 31 76  1  0
 31 77  1  0
 31 78  1  0
 32 79  1  0
 33 80  1  0
 33 81  1  0
M  END
$$$$
