
     RDKit          3D

 51 52  0  0  0  0  0  0  0  0999 V2000
    3.7955    0.8946    1.6746 C   0  0  0  0  0  0  0  0  0  0  0  0
    3.4897   -0.3966    1.0267 N   0  0  0  0  0  0  0  0  0  0  0  0
    4.0164   -1.5373    1.8066 C   0  0  0  0  0  0  0  0  0  0  0  0
    3.8547   -0.4360   -0.6231 S   0  0  0  0  0  6  0  0  0  0  0  0
    5.2273   -0.8560   -0.7797 O   0  0  0  0  0  0  0  0  0  0  0  0
    3.3748    0.7735   -1.2503 O   0  0  0  0  0  0  0  0  0  0  0  0
    2.8818   -1.7156   -1.1532 N   0  0  0  0  0  0  0  0  0  0  0  0
    1.4703   -1.5572   -0.9820 C   0  0  0  0  0  0  0  0  0  0  0  0
    0.8275   -2.3378   -0.0269 C   0  0  0  0  0  0  0  0  0  0  0  0
   -0.5514   -2.2165    0.1662 C   0  0  0  0  0  0  0  0  0  0  0  0
   -1.3070   -1.3040   -0.5799 C   0  0  0  0  0  0  0  0  0  0  0  0
   -2.7213   -1.2117   -0.3130 N   0  0  0  0  0  0  0  0  0  0  0  0
   -3.1716   -0.4769    1.1416 S   0  0  0  0  0  6  0  0  0  0  0  0
   -2.2235    0.5727    1.4335 O   0  0  0  0  0  0  0  0  0  0  0  0
   -4.5886   -0.2101    1.0745 O   0  0  0  0  0  0  0  0  0  0  0  0
   -2.9386   -1.7445    2.2434 N   0  0  0  0  0  0  0  0  0  0  0  0
   -3.8523   -2.8940    2.0564 C   0  0  0  0  0  0  0  0  0  0  0  0
   -2.9147   -1.2974    3.6527 C   0  0  0  0  0  0  0  0  0  0  0  0
   -0.6448   -0.5224   -1.5379 C   0  0  0  0  0  0  0  0  0  0  0  0
   -1.4945    0.6281   -2.5841 S   0  0  0  0  0  6  0  0  0  0  0  0
   -2.9028    0.5982   -2.2224 O   0  0  0  0  0  0  0  0  0  0  0  0
   -1.0949    0.3039   -3.9425 O   0  0  0  0  0  0  0  0  0  0  0  0
   -0.8878    2.2535   -2.2074 C   0  0  0  0  0  0  0  0  0  0  0  0
   -1.3014    2.8876   -1.0329 C   0  0  0  0  0  0  0  0  0  0  0  0
   -0.8264    4.1652   -0.7387 C   0  0  0  0  0  0  0  0  0  0  0  0
    0.0446    4.8074   -1.6203 C   0  0  0  0  0  0  0  0  0  0  0  0
    0.4426    4.1770   -2.8007 C   0  0  0  0  0  0  0  0  0  0  0  0
   -0.0253    2.8978   -3.1005 C   0  0  0  0  0  0  0  0  0  0  0  0
    0.7372   -0.6610   -1.7524 C   0  0  0  0  0  0  0  0  0  0  0  0
    3.2385    1.7059    1.1965 H   0  0  0  0  0  0  0  0  0  0  0  0
    4.8675    1.1087    1.6340 H   0  0  0  0  0  0  0  0  0  0  0  0
    3.4851    0.8696    2.7250 H   0  0  0  0  0  0  0  0  0  0  0  0
    3.5437   -1.5519    2.7945 H   0  0  0  0  0  0  0  0  0  0  0  0
    3.7844   -2.4905    1.3262 H   0  0  0  0  0  0  0  0  0  0  0  0
    5.1002   -1.4572    1.9404 H   0  0  0  0  0  0  0  0  0  0  0  0
    3.1364   -1.8861   -2.1279 H   0  0  0  0  0  0  0  0  0  0  0  0
    1.3916   -3.0492    0.5693 H   0  0  0  0  0  0  0  0  0  0  0  0
   -1.0278   -2.8520    0.9079 H   0  0  0  0  0  0  0  0  0  0  0  0
   -3.2350   -0.7020   -1.0497 H   0  0  0  0  0  0  0  0  0  0  0  0
   -4.8783   -2.6336    2.3306 H   0  0  0  0  0  0  0  0  0  0  0  0
   -3.5250   -3.7262    2.6883 H   0  0  0  0  0  0  0  0  0  0  0  0
   -3.8303   -3.2503    1.0229 H   0  0  0  0  0  0  0  0  0  0  0  0
   -2.6920   -2.1478    4.3079 H   0  0  0  0  0  0  0  0  0  0  0  0
   -3.8782   -0.8710    3.9479 H   0  0  0  0  0  0  0  0  0  0  0  0
   -2.1228   -0.5605    3.8081 H   0  0  0  0  0  0  0  0  0  0  0  0
   -1.9899    2.4048   -0.3440 H   0  0  0  0  0  0  0  0  0  0  0  0
   -1.1381    4.6633    0.1769 H   0  0  0  0  0  0  0  0  0  0  0  0
    0.4120    5.8040   -1.3862 H   0  0  0  0  0  0  0  0  0  0  0  0
    1.1174    4.6830   -3.4884 H   0  0  0  0  0  0  0  0  0  0  0  0
    0.2902    2.4193   -4.0266 H   0  0  0  0  0  0  0  0  0  0  0  0
    1.2351   -0.0648   -2.5143 H   0  0  0  0  0  0  0  0  0  0  0  0
  1  2  1  0
  2  3  1  0
  2  4  1  0
  4  5  2  0
  4  6  2  0
  4  7  1  0
  7  8  1  0
  8  9  2  0
  9 10  1  0
 10 11  2  0
 11 12  1  0
 12 13  1  0
 13 14  2  0
 13 15  2  0
 13 16  1  0
 16 17  1  0
 16 18  1  0
 11 19  1  0
 19 20  1  0
 20 21  2  0
 20 22  2  0
 20 23  1  0
 23 24  2  0
 24 25  1  0
 25 26  2  0
 26 27  1  0
 27 28  2  0
 19 29  2  0
 29  8  1  0
 28 23  1  0
  1 30  1  0
  1 31  1  0
  1 32  1  0
  3 33  1  0
  3 34  1  0
  3 35  1  0
  7 36  1  0
  9 37  1  0
 10 38  1  0
 12 39  1  0
 17 40  1  0
 17 41  1  0
 17 42  1  0
 18 43  1  0
 18 44  1  0
 18 45  1  0
 24 46  1  0
 25 47  1  0
 26 48  1  0
 27 49  1  0
 28 50  1  0
 29 51  1  0
M  END
$$$$
