
     RDKit          3D

 53 56  0  0  0  0  0  0  0  0999 V2000
    6.4822   -0.3326    2.3873 C   0  0  0  0  0  0  0  0  0  0  0  0
    5.5864   -0.5879    1.2126 C   0  0  0  0  0  0  0  0  0  0  0  0
    4.2197   -0.4246    1.3279 C   0  0  0  0  0  0  0  0  0  0  0  0
    3.4325   -0.6854    0.2054 C   0  0  0  0  0  0  0  0  0  0  0  0
    1.9699   -0.4945    0.3434 C   0  0  0  0  0  0  0  0  0  0  0  0
    1.2293   -1.4530    0.1779 O   0  0  0  0  0  0  0  0  0  0  0  0
    1.6109    0.8081    0.6347 N   0  0  0  0  0  0  0  0  0  0  0  0
    0.3143    1.2936    0.8973 C   0  0  0  0  0  0  0  0  0  0  0  0
    0.1591    2.6788    0.9951 C   0  0  0  0  0  0  0  0  0  0  0  0
   -1.0950    3.2417    1.2486 C   0  0  0  0  0  0  0  0  0  0  0  0
   -2.2302    2.4344    1.4120 C   0  0  0  0  0  0  0  0  0  0  0  0
   -3.5458    3.1017    1.7015 C   0  0  0  0  0  0  0  0  0  0  0  0
   -2.0640    1.0386    1.3367 C   0  0  0  0  0  0  0  0  0  0  0  0
   -3.4320   -0.0818    1.5962 S   0  0  0  0  0  6  0  0  0  0  0  0
   -4.1967    0.4010    2.7263 O   0  0  0  0  0  0  0  0  0  0  0  0
   -2.9438   -1.4445    1.5669 O   0  0  0  0  0  0  0  0  0  0  0  0
   -4.3683    0.1344    0.1863 N   0  0  0  0  0  0  0  0  0  0  0  0
   -3.7300   -0.3191   -1.0952 C   0  0  0  0  0  0  0  0  0  0  0  0
   -4.3735   -1.6112   -1.6067 C   0  0  0  0  0  0  0  0  0  0  0  0
   -5.7703   -1.4591   -1.9001 O   0  0  0  0  0  0  0  0  0  0  0  0
   -6.4304   -0.5186   -1.0404 C   0  0  0  0  0  0  0  0  0  0  0  0
   -5.7670   -0.3867    0.3332 C   0  0  0  0  0  0  0  0  0  0  0  0
   -0.7995    0.4760    1.0836 C   0  0  0  0  0  0  0  0  0  0  0  0
    4.0074   -1.1158   -1.0087 C   0  0  0  0  0  0  0  0  0  0  0  0
    3.2820   -1.4097   -2.1907 C   0  0  0  0  0  0  0  0  0  0  0  0
    3.9358   -1.8181   -3.3513 C   0  0  0  0  0  0  0  0  0  0  0  0
    5.3180   -1.9361   -3.3503 C   0  0  0  0  0  0  0  0  0  0  0  0
    6.0361   -1.6461   -2.1881 C   0  0  0  0  0  0  0  0  0  0  0  0
    5.4094   -1.2391   -1.0176 C   0  0  0  0  0  0  0  0  0  0  0  0
    6.1729   -0.9739    0.0579 N   0  0  0  0  0  0  0  0  0  0  0  0
    6.1910   -0.9657    3.2313 H   0  0  0  0  0  0  0  0  0  0  0  0
    6.4203    0.7183    2.6868 H   0  0  0  0  0  0  0  0  0  0  0  0
    7.5242   -0.5568    2.1390 H   0  0  0  0  0  0  0  0  0  0  0  0
    3.7727   -0.1244    2.2700 H   0  0  0  0  0  0  0  0  0  0  0  0
    2.3474    1.5030    0.5895 H   0  0  0  0  0  0  0  0  0  0  0  0
    1.0088    3.3456    0.8689 H   0  0  0  0  0  0  0  0  0  0  0  0
   -1.1776    4.3250    1.3182 H   0  0  0  0  0  0  0  0  0  0  0  0
   -4.3486    2.6861    1.0874 H   0  0  0  0  0  0  0  0  0  0  0  0
   -3.7975    3.0044    2.7613 H   0  0  0  0  0  0  0  0  0  0  0  0
   -3.5051    4.1704    1.4651 H   0  0  0  0  0  0  0  0  0  0  0  0
   -3.8718    0.4877   -1.8243 H   0  0  0  0  0  0  0  0  0  0  0  0
   -2.6527   -0.4642   -0.9818 H   0  0  0  0  0  0  0  0  0  0  0  0
   -3.8814   -1.9382   -2.5280 H   0  0  0  0  0  0  0  0  0  0  0  0
   -4.2665   -2.4191   -0.8739 H   0  0  0  0  0  0  0  0  0  0  0  0
   -6.4472    0.4492   -1.5550 H   0  0  0  0  0  0  0  0  0  0  0  0
   -7.4679   -0.8487   -0.9297 H   0  0  0  0  0  0  0  0  0  0  0  0
   -5.7482   -1.3673    0.8236 H   0  0  0  0  0  0  0  0  0  0  0  0
   -6.3400    0.3123    0.9510 H   0  0  0  0  0  0  0  0  0  0  0  0
   -0.7030   -0.6059    1.0494 H   0  0  0  0  0  0  0  0  0  0  0  0
    2.1960   -1.3343   -2.2092 H   0  0  0  0  0  0  0  0  0  0  0  0
    3.3655   -2.0478   -4.2475 H   0  0  0  0  0  0  0  0  0  0  0  0
    5.8426   -2.2568   -4.2466 H   0  0  0  0  0  0  0  0  0  0  0  0
    7.1197   -1.7434   -2.1946 H   0  0  0  0  0  0  0  0  0  0  0  0
  1  2  1  0
  2  3  2  0
  3  4  1  0
  4  5  1  0
  5  6  2  0
  5  7  1  0
  7  8  1  0
  8  9  2  0
  9 10  1  0
 10 11  2  0
 11 12  1  0
 11 13  1  0
 13 14  1  0
 14 15  2  0
 14 16  2  0
 14 17  1  0
 17 18  1  0
 18 19  1  0
 19 20  1  0
 20 21  1  0
 21 22  1  0
 13 23  2  0
  4 24  2  0
 24 25  1  0
 25 26  2  0
 26 27  1  0
 27 28  2  0
 28 29  1  0
 29 30  2  0
 30  2  1  0
 23  8  1  0
 29 24  1  0
 22 17  1  0
  1 31  1  0
  1 32  1  0
  1 33  1  0
  3 34  1  0
  7 35  1  0
  9 36  1  0
 10 37  1  0
 12 38  1  0
 12 39  1  0
 12 40  1  0
 18 41  1  0
 18 42  1  0
 19 43  1  0
 19 44  1  0
 21 45  1  0
 21 46  1  0
 22 47  1  0
 22 48  1  0
 23 49  1  0
 25 50  1  0
 26 51  1  0
 27 52  1  0
 28 53  1  0
M  END
$$$$
