
     RDKit          3D

 45 47  0  0  0  0  0  0  0  0999 V2000
   -5.3441   -1.0934   -2.6702 N   0  0  0  0  0  0  0  0  0  0  0  0
   -5.8681   -1.1418   -1.0707 S   0  0  0  0  0  6  0  0  0  0  0  0
   -5.7296   -2.5187   -0.6563 O   0  0  0  0  0  0  0  0  0  0  0  0
   -7.1180   -0.4253   -0.9894 O   0  0  0  0  0  0  0  0  0  0  0  0
   -4.6167   -0.1814   -0.2600 C   0  0  0  0  0  0  0  0  0  0  0  0
   -4.7689    1.2031   -0.1630 C   0  0  0  0  0  0  0  0  0  0  0  0
   -3.7899    1.9581    0.4880 C   0  0  0  0  0  0  0  0  0  0  0  0
   -2.6570    1.3396    1.0321 C   0  0  0  0  0  0  0  0  0  0  0  0
   -1.7277    2.1663    1.7015 N   0  0  0  0  0  0  0  0  0  0  0  0
   -0.5256    1.8285    2.2622 C   0  0  0  0  0  0  0  0  0  0  0  0
   -0.1747    2.5282    3.7481 S   0  0  0  0  0  0  0  0  0  0  0  0
    0.3360    1.0148    1.5444 N   0  0  0  0  0  0  0  0  0  0  0  0
    1.5136    0.3850    2.1716 C   0  0  0  0  0  0  0  0  0  0  0  0
    2.1783   -0.6853    1.2855 C   0  0  0  0  0  0  0  0  0  0  0  0
    2.5492   -0.1426   -0.0340 N   0  0  0  0  0  0  0  0  0  0  0  0
    3.6293   -0.6542   -0.7365 C   0  0  0  0  0  0  0  0  0  0  0  0
    4.3213    0.1020   -1.6969 C   0  0  0  0  0  0  0  0  0  0  0  0
    5.4101   -0.4174   -2.4093 C   0  0  0  0  0  0  0  0  0  0  0  0
    5.8360   -1.7196   -2.1805 C   0  0  0  0  0  0  0  0  0  0  0  0
    5.1717   -2.4973   -1.2409 C   0  0  0  0  0  0  0  0  0  0  0  0
    4.0853   -1.9679   -0.5329 C   0  0  0  0  0  0  0  0  0  0  0  0
    1.8340    1.0624   -0.4828 C   0  0  0  0  0  0  0  0  0  0  0  0
    0.3943    1.0861    0.0700 C   0  0  0  0  0  0  0  0  0  0  0  0
   -2.5364   -0.0518    0.9572 C   0  0  0  0  0  0  0  0  0  0  0  0
   -3.5119   -0.8161    0.3097 C   0  0  0  0  0  0  0  0  0  0  0  0
   -5.1067   -2.0414   -2.9682 H   0  0  0  0  0  0  0  0  0  0  0  0
   -4.5775   -0.4407   -2.8266 H   0  0  0  0  0  0  0  0  0  0  0  0
   -5.6448    1.6974   -0.5796 H   0  0  0  0  0  0  0  0  0  0  0  0
   -3.9196    3.0359    0.5585 H   0  0  0  0  0  0  0  0  0  0  0  0
   -2.1326    3.0042    2.1081 H   0  0  0  0  0  0  0  0  0  0  0  0
    1.2112   -0.0618    3.1252 H   0  0  0  0  0  0  0  0  0  0  0  0
    2.2389    1.1807    2.3843 H   0  0  0  0  0  0  0  0  0  0  0  0
    3.0594   -1.0552    1.8234 H   0  0  0  0  0  0  0  0  0  0  0  0
    1.4866   -1.5239    1.1408 H   0  0  0  0  0  0  0  0  0  0  0  0
    4.0418    1.1322   -1.8971 H   0  0  0  0  0  0  0  0  0  0  0  0
    5.9242    0.2032   -3.1383 H   0  0  0  0  0  0  0  0  0  0  0  0
    6.6797   -2.1257   -2.7310 H   0  0  0  0  0  0  0  0  0  0  0  0
    5.4901   -3.5197   -1.0567 H   0  0  0  0  0  0  0  0  0  0  0  0
    3.5822   -2.6225    0.1733 H   0  0  0  0  0  0  0  0  0  0  0  0
    1.7644    1.0903   -1.5767 H   0  0  0  0  0  0  0  0  0  0  0  0
    2.3770    1.9543   -0.1478 H   0  0  0  0  0  0  0  0  0  0  0  0
   -0.1139    1.9878   -0.2871 H   0  0  0  0  0  0  0  0  0  0  0  0
   -0.1384    0.2112   -0.3174 H   0  0  0  0  0  0  0  0  0  0  0  0
   -1.7049   -0.5687    1.4288 H   0  0  0  0  0  0  0  0  0  0  0  0
   -3.4075   -1.8986    0.2727 H   0  0  0  0  0  0  0  0  0  0  0  0
  1  2  1  0
  2  3  2  0
  2  4  2  0
  2  5  1  0
  5  6  2  0
  6  7  1  0
  7  8  2  0
  8  9  1  0
  9 10  1  0
 10 11  2  0
 10 12  1  0
 12 13  1  0
 13 14  1  0
 14 15  1  0
 15 16  1  0
 16 17  2  0
 17 18  1  0
 18 19  2  0
 19 20  1  0
 20 21  2  0
 15 22  1  0
 22 23  1  0
  8 24  1  0
 24 25  2  0
 25  5  1  0
 23 12  1  0
 21 16  1  0
  1 26  1  0
  1 27  1  0
  6 28  1  0
  7 29  1  0
  9 30  1  0
 13 31  1  0
 13 32  1  0
 14 33  1  0
 14 34  1  0
 17 35  1  0
 18 36  1  0
 19 37  1  0
 20 38  1  0
 21 39  1  0
 22 40  1  0
 22 41  1  0
 23 42  1  0
 23 43  1  0
 24 44  1  0
 25 45  1  0
M  END
$$$$
