
     RDKit          3D

 66 68  0  0  0  0  0  0  0  0999 V2000
   -4.8999    6.4848    2.6543 C   0  0  0  0  0  0  0  0  0  0  0  0
   -3.8881    5.7271    3.3028 O   0  0  0  0  0  0  0  0  0  0  0  0
   -3.2783    4.7566    2.4481 C   0  0  0  0  0  0  0  0  0  0  0  0
   -4.0785    3.4497    2.4217 C   0  0  0  0  0  0  0  0  0  0  0  0
   -3.5727    2.4873    1.4394 N   0  0  0  0  0  0  0  0  0  0  0  0
   -2.5156    1.6054    1.5960 C   0  0  0  0  0  0  0  0  0  0  0  0
   -1.6540    1.4891    3.0353 S   0  0  0  0  0  0  0  0  0  0  0  0
   -2.2352    0.8543    0.4310 N   0  0  0  0  0  0  0  0  0  0  0  0
   -2.9134    1.1288   -0.8528 C   0  0  0  0  0  0  0  0  0  0  0  0
   -2.2861    0.4858   -2.0886 C   0  0  0  0  0  0  0  0  0  0  0  0
   -2.0857   -0.9797   -1.8386 C   0  0  0  0  0  0  0  0  0  0  0  0
   -2.3321   -1.9418   -2.8248 C   0  0  0  0  0  0  0  0  0  0  0  0
   -2.1262   -3.2996   -2.5550 C   0  0  0  0  0  0  0  0  0  0  0  0
   -2.3496   -4.3119   -3.4561 O   0  0  0  0  0  0  0  0  0  0  0  0
   -2.7937   -3.9544   -4.7561 C   0  0  0  0  0  0  0  0  0  0  0  0
   -1.6553   -3.6948   -1.2863 C   0  0  0  0  0  0  0  0  0  0  0  0
   -1.4753   -5.0443   -1.1034 O   0  0  0  0  0  0  0  0  0  0  0  0
   -0.9045   -5.4705    0.1253 C   0  0  0  0  0  0  0  0  0  0  0  0
   -1.4006   -2.7251   -0.3095 C   0  0  0  0  0  0  0  0  0  0  0  0
   -1.6131   -1.3646   -0.5774 C   0  0  0  0  0  0  0  0  0  0  0  0
   -1.2751   -0.2976    0.4626 C   0  0  0  0  0  0  0  0  0  0  0  0
    0.1971    0.1636    0.2829 C   0  0  0  0  0  0  0  0  0  0  0  0
    1.0742   -0.8755    0.7378 O   0  0  0  0  0  0  0  0  0  0  0  0
    2.4160   -0.6741    0.5744 C   0  0  0  0  0  0  0  0  0  0  0  0
    3.0242    0.5048    0.1484 C   0  0  0  0  0  0  0  0  0  0  0  0
    4.4175    0.5757    0.0282 C   0  0  0  0  0  0  0  0  0  0  0  0
    5.2257   -0.5289    0.3334 C   0  0  0  0  0  0  0  0  0  0  0  0
    6.7378   -0.4724    0.2109 C   0  0  0  0  0  0  0  0  0  0  0  0
    7.3405    0.5635    1.1630 C   0  0  0  0  0  0  0  0  0  0  0  0
    7.1761   -0.2075   -1.2315 C   0  0  0  0  0  0  0  0  0  0  0  0
    4.6044   -1.7076    0.7655 C   0  0  0  0  0  0  0  0  0  0  0  0
    3.2138   -1.7757    0.8856 C   0  0  0  0  0  0  0  0  0  0  0  0
   -5.3035    7.2028    3.3735 H   0  0  0  0  0  0  0  0  0  0  0  0
   -4.4799    7.0399    1.8100 H   0  0  0  0  0  0  0  0  0  0  0  0
   -5.7158    5.8421    2.3135 H   0  0  0  0  0  0  0  0  0  0  0  0
   -3.1475    5.1634    1.4378 H   0  0  0  0  0  0  0  0  0  0  0  0
   -2.2748    4.5716    2.8433 H   0  0  0  0  0  0  0  0  0  0  0  0
   -4.1171    2.9967    3.4179 H   0  0  0  0  0  0  0  0  0  0  0  0
   -5.1178    3.6537    2.1431 H   0  0  0  0  0  0  0  0  0  0  0  0
   -4.2563    2.2258    0.7467 H   0  0  0  0  0  0  0  0  0  0  0  0
   -3.9422    0.7608   -0.7434 H   0  0  0  0  0  0  0  0  0  0  0  0
   -2.9623    2.2133   -1.0047 H   0  0  0  0  0  0  0  0  0  0  0  0
   -2.9427    0.6497   -2.9508 H   0  0  0  0  0  0  0  0  0  0  0  0
   -1.3191    0.9476   -2.3179 H   0  0  0  0  0  0  0  0  0  0  0  0
   -2.6873   -1.6097   -3.7943 H   0  0  0  0  0  0  0  0  0  0  0  0
   -2.9055   -4.8753   -5.3365 H   0  0  0  0  0  0  0  0  0  0  0  0
   -3.7726   -3.4653   -4.7184 H   0  0  0  0  0  0  0  0  0  0  0  0
   -2.0563   -3.3272   -5.2679 H   0  0  0  0  0  0  0  0  0  0  0  0
    0.0921   -5.0402    0.2706 H   0  0  0  0  0  0  0  0  0  0  0  0
   -1.5642   -5.2382    0.9677 H   0  0  0  0  0  0  0  0  0  0  0  0
   -0.7927   -6.5582    0.0823 H   0  0  0  0  0  0  0  0  0  0  0  0
   -1.0209   -3.0008    0.6697 H   0  0  0  0  0  0  0  0  0  0  0  0
   -1.3772   -0.7809    1.4418 H   0  0  0  0  0  0  0  0  0  0  0  0
    0.4000    0.3903   -0.7711 H   0  0  0  0  0  0  0  0  0  0  0  0
    0.3838    1.0669    0.8727 H   0  0  0  0  0  0  0  0  0  0  0  0
    2.4487    1.3923   -0.0910 H   0  0  0  0  0  0  0  0  0  0  0  0
    4.8655    1.5094   -0.3044 H   0  0  0  0  0  0  0  0  0  0  0  0
    7.1479   -1.4500    0.4971 H   0  0  0  0  0  0  0  0  0  0  0  0
    7.0270    1.5826    0.9120 H   0  0  0  0  0  0  0  0  0  0  0  0
    8.4347    0.5331    1.1220 H   0  0  0  0  0  0  0  0  0  0  0  0
    7.0382    0.3668    2.1977 H   0  0  0  0  0  0  0  0  0  0  0  0
    6.7539   -0.9550   -1.9124 H   0  0  0  0  0  0  0  0  0  0  0  0
    6.8579    0.7804   -1.5819 H   0  0  0  0  0  0  0  0  0  0  0  0
    8.2671   -0.2546   -1.3168 H   0  0  0  0  0  0  0  0  0  0  0  0
    5.1958   -2.5856    1.0146 H   0  0  0  0  0  0  0  0  0  0  0  0
    2.7491   -2.6985    1.2233 H   0  0  0  0  0  0  0  0  0  0  0  0
  1  2  1  0
  2  3  1  0
  3  4  1  0
  4  5  1  0
  5  6  1  0
  6  7  2  0
  6  8  1  0
  8  9  1  0
  9 10  1  0
 10 11  1  0
 11 12  2  0
 12 13  1  0
 13 14  1  0
 14 15  1  0
 13 16  2  0
 16 17  1  0
 17 18  1  0
 16 19  1  0
 19 20  2  0
 20 21  1  0
 21 22  1  0
 22 23  1  0
 23 24  1  0
 24 25  2  0
 25 26  1  0
 26 27  2  0
 27 28  1  0
 28 29  1  0
 28 30  1  0
 27 31  1  0
 31 32  2  0
 21  8  1  0
 32 24  1  0
 20 11  1  0
  1 33  1  0
  1 34  1  0
  1 35  1  0
  3 36  1  0
  3 37  1  0
  4 38  1  0
  4 39  1  0
  5 40  1  0
  9 41  1  0
  9 42  1  0
 10 43  1  0
 10 44  1  0
 12 45  1  0
 15 46  1  0
 15 47  1  0
 15 48  1  0
 18 49  1  0
 18 50  1  0
 18 51  1  0
 19 52  1  0
 21 53  1  0
 22 54  1  0
 22 55  1  0
 25 56  1  0
 26 57  1  0
 28 58  1  0
 29 59  1  0
 29 60  1  0
 29 61  1  0
 30 62  1  0
 30 63  1  0
 30 64  1  0
 31 65  1  0
 32 66  1  0
M  END
$$$$
