
     RDKit          3D

 30 31  0  0  0  0  0  0  0  0999 V2000
   -1.4526   -0.1318   -2.0178 N   0  0  0  0  0  0  0  0  0  0  0  0
   -1.6108    0.5318   -0.9119 C   0  0  0  0  0  0  0  0  0  0  0  0
   -0.7320    1.5217   -0.5096 N   0  0  0  0  0  0  0  0  0  0  0  0
    0.5018    1.4381   -1.1866 O   0  0  0  0  0  0  0  0  0  0  0  0
    1.4479    0.7666   -0.4475 C   0  0  0  0  0  0  0  0  0  0  0  0
    1.2819    0.4390    0.7228 O   0  0  0  0  0  0  0  0  0  0  0  0
    2.6555    0.5057   -1.3183 C   0  0  0  0  0  0  0  0  0  0  0  0
    3.8162    0.0089   -0.5096 C   0  0  0  0  0  0  0  0  0  0  0  0
    4.1390   -1.2947   -0.1856 C   0  0  0  0  0  0  0  0  0  0  0  0
    5.3266   -1.3798    0.5969 C   0  0  0  0  0  0  0  0  0  0  0  0
    5.8733   -0.1402    0.8408 C   0  0  0  0  0  0  0  0  0  0  0  0
    4.9590    1.1162    0.1287 S   0  0  0  0  0  0  0  0  0  0  0  0
   -2.7715    0.2372   -0.0198 C   0  0  0  0  0  0  0  0  0  0  0  0
   -3.1456   -1.0887    0.2284 C   0  0  0  0  0  0  0  0  0  0  0  0
   -4.2263   -1.3589    1.0718 C   0  0  0  0  0  0  0  0  0  0  0  0
   -4.9260   -0.3061    1.6619 C   0  0  0  0  0  0  0  0  0  0  0  0
   -6.2570   -0.6414    2.6988 Cl  0  0  0  0  0  0  0  0  0  0  0  0
   -4.5539    1.0164    1.4194 C   0  0  0  0  0  0  0  0  0  0  0  0
   -3.4724    1.2910    0.5785 C   0  0  0  0  0  0  0  0  0  0  0  0
   -2.2230   -0.7882   -2.1729 H   0  0  0  0  0  0  0  0  0  0  0  0
   -0.5997    1.5776    0.5030 H   0  0  0  0  0  0  0  0  0  0  0  0
    2.3787   -0.2444   -2.0679 H   0  0  0  0  0  0  0  0  0  0  0  0
    2.9235    1.4313   -1.8409 H   0  0  0  0  0  0  0  0  0  0  0  0
    3.5471   -2.1505   -0.4885 H   0  0  0  0  0  0  0  0  0  0  0  0
    5.7563   -2.3034    0.9646 H   0  0  0  0  0  0  0  0  0  0  0  0
    6.7666    0.0902    1.4048 H   0  0  0  0  0  0  0  0  0  0  0  0
   -2.5890   -1.9140   -0.2094 H   0  0  0  0  0  0  0  0  0  0  0  0
   -4.5132   -2.3889    1.2688 H   0  0  0  0  0  0  0  0  0  0  0  0
   -5.1029    1.8351    1.8781 H   0  0  0  0  0  0  0  0  0  0  0  0
   -3.1974    2.3244    0.3803 H   0  0  0  0  0  0  0  0  0  0  0  0
  1  2  2  3
  2  3  1  0
  3  4  1  0
  4  5  1  0
  5  6  2  0
  5  7  1  0
  7  8  1  0
  8  9  2  0
  9 10  1  0
 10 11  2  0
 11 12  1  0
  2 13  1  0
 13 14  2  0
 14 15  1  0
 15 16  2  0
 16 17  1  0
 16 18  1  0
 18 19  2  0
 12  8  1  0
 19 13  1  0
  1 20  1  0
  3 21  1  0
  7 22  1  0
  7 23  1  0
  9 24  1  0
 10 25  1  0
 11 26  1  0
 14 27  1  0
 15 28  1  0
 18 29  1  0
 19 30  1  0
M  END
$$$$
