
     RDKit          3D

 35 37  0  0  0  0  0  0  0  0999 V2000
   -4.3932    2.4457   -1.5792 C   0  0  0  0  0  0  0  0  0  0  0  0
   -3.5937    1.2289   -1.2139 C   0  0  0  0  0  0  0  0  0  0  0  0
   -3.0011    1.1266    0.0525 C   0  0  0  0  0  0  0  0  0  0  0  0
   -2.2881   -0.0188    0.4098 C   0  0  0  0  0  0  0  0  0  0  0  0
   -2.1700   -1.0676   -0.5051 C   0  0  0  0  0  0  0  0  0  0  0  0
   -1.2719   -2.5315   -0.0620 S   0  0  0  0  0  6  0  0  0  0  0  0
   -0.9269   -2.4675    1.3417 O   0  0  0  0  0  0  0  0  0  0  0  0
   -1.9967   -3.6625   -0.6027 O   0  0  0  0  0  0  0  0  0  0  0  0
    0.1381   -2.3961   -0.9912 N   0  0  0  0  0  0  0  0  0  0  0  0
    1.1819   -1.5707   -0.4947 C   0  0  0  0  0  0  0  0  0  0  0  0
    2.1739   -2.1177    0.3159 C   0  0  0  0  0  0  0  0  0  0  0  0
    3.1773   -1.2975    0.8396 C   0  0  0  0  0  0  0  0  0  0  0  0
    3.1844    0.0782    0.5587 C   0  0  0  0  0  0  0  0  0  0  0  0
    4.2083    0.8942    1.0982 N   0  0  0  0  0  0  0  0  0  0  0  0
    4.4103    2.2452    0.9676 C   0  0  0  0  0  0  0  0  0  0  0  0
    5.4897    2.5913    1.6307 N   0  0  0  0  0  0  0  0  0  0  0  0
    5.9698    1.4354    2.1861 N   0  0  0  0  0  0  0  0  0  0  0  0
    5.2032    0.4010    1.8712 N   0  0  0  0  0  0  0  0  0  0  0  0
    2.1763    0.6235   -0.2492 C   0  0  0  0  0  0  0  0  0  0  0  0
    1.1758   -0.2042   -0.7699 C   0  0  0  0  0  0  0  0  0  0  0  0
   -2.7778   -0.9919   -1.7607 C   0  0  0  0  0  0  0  0  0  0  0  0
   -3.4892    0.1566   -2.1110 C   0  0  0  0  0  0  0  0  0  0  0  0
   -3.9965    3.3371   -1.0819 H   0  0  0  0  0  0  0  0  0  0  0  0
   -5.4377    2.3097   -1.2827 H   0  0  0  0  0  0  0  0  0  0  0  0
   -4.3518    2.6305   -2.6578 H   0  0  0  0  0  0  0  0  0  0  0  0
   -3.0983    1.9383    0.7710 H   0  0  0  0  0  0  0  0  0  0  0  0
   -1.8345   -0.0855    1.3964 H   0  0  0  0  0  0  0  0  0  0  0  0
    0.3976   -3.3075   -1.3681 H   0  0  0  0  0  0  0  0  0  0  0  0
    2.1681   -3.1765    0.5625 H   0  0  0  0  0  0  0  0  0  0  0  0
    3.9387   -1.7508    1.4735 H   0  0  0  0  0  0  0  0  0  0  0  0
    3.7741    2.9088    0.4053 H   0  0  0  0  0  0  0  0  0  0  0  0
    2.1333    1.6805   -0.4958 H   0  0  0  0  0  0  0  0  0  0  0  0
    0.4014    0.2259   -1.4008 H   0  0  0  0  0  0  0  0  0  0  0  0
   -2.7064   -1.8197   -2.4625 H   0  0  0  0  0  0  0  0  0  0  0  0
   -3.9684    0.2088   -3.0867 H   0  0  0  0  0  0  0  0  0  0  0  0
  1  2  1  0
  2  3  2  0
  3  4  1  0
  4  5  2  0
  5  6  1  0
  6  7  2  0
  6  8  2  0
  6  9  1  0
  9 10  1  0
 10 11  2  0
 11 12  1  0
 12 13  2  0
 13 14  1  0
 14 15  1  0
 15 16  2  0
 16 17  1  0
 17 18  2  0
 13 19  1  0
 19 20  2  0
  5 21  1  0
 21 22  2  0
 22  2  1  0
 20 10  1  0
 18 14  1  0
  1 23  1  0
  1 24  1  0
  1 25  1  0
  3 26  1  0
  4 27  1  0
  9 28  1  0
 11 29  1  0
 12 30  1  0
 15 31  1  0
 19 32  1  0
 20 33  1  0
 21 34  1  0
 22 35  1  0
M  END
$$$$
