
     RDKit          3D

 60 61  0  0  0  0  0  0  0  0999 V2000
   -6.9450    1.5594    0.1579 C   0  0  0  0  0  0  0  0  0  0  0  0
   -6.1651    1.6200   -1.0301 O   0  0  0  0  0  0  0  0  0  0  0  0
   -4.8057    1.5234   -0.8926 C   0  0  0  0  0  0  0  0  0  0  0  0
   -4.1119    1.4013    0.3113 C   0  0  0  0  0  0  0  0  0  0  0  0
   -2.7143    1.3134    0.3129 C   0  0  0  0  0  0  0  0  0  0  0  0
   -1.9667    1.1699    1.4590 O   0  0  0  0  0  0  0  0  0  0  0  0
   -2.5495    1.6393    2.6685 C   0  0  0  0  0  0  0  0  0  0  0  0
   -2.0082    1.3310   -0.9095 C   0  0  0  0  0  0  0  0  0  0  0  0
   -0.5495    1.2428   -0.9019 C   0  0  0  0  0  0  0  0  0  0  0  0
    0.2131    2.2969   -1.2345 N   0  0  0  0  0  0  0  0  0  0  0  0
    1.5203    1.8904   -1.0656 O   0  0  0  0  0  0  0  0  0  0  0  0
    1.5529    0.5995   -0.6302 C   0  0  0  0  0  0  0  0  0  0  0  0
    2.8257   -0.0438   -0.4473 C   0  0  0  0  0  0  0  0  0  0  0  0
    2.9941   -1.2484   -0.3095 O   0  0  0  0  0  0  0  0  0  0  0  0
    3.8205    0.8863   -0.4551 O   0  0  0  0  0  0  0  0  0  0  0  0
    5.2069    0.5004   -0.2759 C   0  0  0  0  0  0  0  0  0  0  0  0
    5.9874    1.8238   -0.3068 C   0  0  0  0  0  0  0  0  0  0  0  0
    5.4295   -0.1663    1.0872 C   0  0  0  0  0  0  0  0  0  0  0  0
    5.6905   -0.3799   -1.4336 C   0  0  0  0  0  0  0  0  0  0  0  0
    0.2569    0.1481   -0.4915 C   0  0  0  0  0  0  0  0  0  0  0  0
   -0.1692   -1.1441   -0.0238 C   0  0  0  0  0  0  0  0  0  0  0  0
   -1.0838   -1.7719   -0.5397 O   0  0  0  0  0  0  0  0  0  0  0  0
    0.5417   -1.5405    1.0653 O   0  0  0  0  0  0  0  0  0  0  0  0
    0.2917   -2.8214    1.6937 C   0  0  0  0  0  0  0  0  0  0  0  0
    0.6057   -3.9761    0.7378 C   0  0  0  0  0  0  0  0  0  0  0  0
   -1.1348   -2.9044    2.2477 C   0  0  0  0  0  0  0  0  0  0  0  0
    1.2781   -2.8750    2.8707 C   0  0  0  0  0  0  0  0  0  0  0  0
   -2.7084    1.4472   -2.1259 C   0  0  0  0  0  0  0  0  0  0  0  0
   -1.9600    1.4181   -3.2758 O   0  0  0  0  0  0  0  0  0  0  0  0
   -2.6190    1.7281   -4.4977 C   0  0  0  0  0  0  0  0  0  0  0  0
   -4.1028    1.5475   -2.1012 C   0  0  0  0  0  0  0  0  0  0  0  0
   -6.7140    2.3968    0.8243 H   0  0  0  0  0  0  0  0  0  0  0  0
   -7.9981    1.6421   -0.1279 H   0  0  0  0  0  0  0  0  0  0  0  0
   -6.8134    0.5987    0.6676 H   0  0  0  0  0  0  0  0  0  0  0  0
   -4.6552    1.3572    1.2456 H   0  0  0  0  0  0  0  0  0  0  0  0
   -1.7609    1.6737    3.4258 H   0  0  0  0  0  0  0  0  0  0  0  0
   -2.9471    2.6531    2.5563 H   0  0  0  0  0  0  0  0  0  0  0  0
   -3.3200    0.9487    3.0233 H   0  0  0  0  0  0  0  0  0  0  0  0
    5.8200    2.3527   -1.2529 H   0  0  0  0  0  0  0  0  0  0  0  0
    5.6467    2.4970    0.4880 H   0  0  0  0  0  0  0  0  0  0  0  0
    7.0641    1.6651   -0.1857 H   0  0  0  0  0  0  0  0  0  0  0  0
    4.9555    0.4148    1.8865 H   0  0  0  0  0  0  0  0  0  0  0  0
    4.9947   -1.1694    1.1286 H   0  0  0  0  0  0  0  0  0  0  0  0
    6.4974   -0.2637    1.3139 H   0  0  0  0  0  0  0  0  0  0  0  0
    5.4711    0.0909   -2.3969 H   0  0  0  0  0  0  0  0  0  0  0  0
    5.1951   -1.3544   -1.4441 H   0  0  0  0  0  0  0  0  0  0  0  0
    6.7684   -0.5607   -1.3729 H   0  0  0  0  0  0  0  0  0  0  0  0
   -0.1024   -4.0200   -0.0952 H   0  0  0  0  0  0  0  0  0  0  0  0
    1.6010   -3.8557    0.2968 H   0  0  0  0  0  0  0  0  0  0  0  0
    0.5684   -4.9418    1.2528 H   0  0  0  0  0  0  0  0  0  0  0  0
   -1.3671   -2.0223    2.8545 H   0  0  0  0  0  0  0  0  0  0  0  0
   -1.8841   -2.9431    1.4513 H   0  0  0  0  0  0  0  0  0  0  0  0
   -1.2699   -3.7993    2.8659 H   0  0  0  0  0  0  0  0  0  0  0  0
    1.0972   -2.0471    3.5668 H   0  0  0  0  0  0  0  0  0  0  0  0
    1.1983   -3.8147    3.4264 H   0  0  0  0  0  0  0  0  0  0  0  0
    2.3118   -2.7641    2.5217 H   0  0  0  0  0  0  0  0  0  0  0  0
   -3.3481    0.9546   -4.7577 H   0  0  0  0  0  0  0  0  0  0  0  0
   -1.8637    1.7492   -5.2890 H   0  0  0  0  0  0  0  0  0  0  0  0
   -3.0850    2.7177   -4.4562 H   0  0  0  0  0  0  0  0  0  0  0  0
   -4.6819    1.6288   -3.0154 H   0  0  0  0  0  0  0  0  0  0  0  0
  1  2  1  0
  2  3  1  0
  3  4  2  0
  4  5  1  0
  5  6  1  0
  6  7  1  0
  5  8  2  0
  8  9  1  0
  9 10  2  0
 10 11  1  0
 11 12  1  0
 12 13  1  0
 13 14  2  0
 13 15  1  0
 15 16  1  0
 16 17  1  0
 16 18  1  0
 16 19  1  0
 12 20  2  0
 20 21  1  0
 21 22  2  0
 21 23  1  0
 23 24  1  0
 24 25  1  0
 24 26  1  0
 24 27  1  0
  8 28  1  0
 28 29  1  0
 29 30  1  0
 28 31  2  0
 31  3  1  0
 20  9  1  0
  1 32  1  0
  1 33  1  0
  1 34  1  0
  4 35  1  0
  7 36  1  0
  7 37  1  0
  7 38  1  0
 17 39  1  0
 17 40  1  0
 17 41  1  0
 18 42  1  0
 18 43  1  0
 18 44  1  0
 19 45  1  0
 19 46  1  0
 19 47  1  0
 25 48  1  0
 25 49  1  0
 25 50  1  0
 26 51  1  0
 26 52  1  0
 26 53  1  0
 27 54  1  0
 27 55  1  0
 27 56  1  0
 30 57  1  0
 30 58  1  0
 30 59  1  0
 31 60  1  0
M  END
$$$$
