
     RDKit          3D

 52 54  0  0  0  0  0  0  0  0999 V2000
   -4.9527   -0.7869    3.3015 C   0  0  0  0  0  0  0  0  0  0  0  0
   -3.5059   -1.1748    3.0393 C   0  0  0  0  0  0  0  0  0  0  0  0
   -2.9422   -0.6022    1.7360 C   0  0  0  0  0  0  0  0  0  0  0  0
   -3.6387   -1.1486    0.4839 C   0  0  0  0  0  0  0  0  0  0  0  0
   -2.9851   -0.6765   -0.8358 C   0  0  0  0  0  0  0  0  0  0  0  0
   -4.0478   -0.5435   -1.9541 C   0  0  0  0  0  0  0  0  0  0  0  0
   -4.7536   -1.8383   -2.3361 C   0  0  0  0  0  0  0  0  0  0  0  0
   -1.8310   -1.5968   -1.3104 C   0  0  0  0  0  0  0  0  0  0  0  0
   -0.6144   -1.5099   -0.4987 N   0  0  0  0  0  0  0  0  0  0  0  0
    0.1665   -0.3657   -0.6077 C   0  0  0  0  0  0  0  0  0  0  0  0
   -0.0789    0.5713   -1.3540 O   0  0  0  0  0  0  0  0  0  0  0  0
    1.3582   -0.4584    0.2850 C   0  0  0  0  0  0  0  0  0  0  0  0
    2.3235    0.4461    0.5139 C   0  0  0  0  0  0  0  0  0  0  0  0
    2.4606    1.7716    0.0061 C   0  0  0  0  0  0  0  0  0  0  0  0
    1.4636    2.7105   -0.1101 C   0  0  0  0  0  0  0  0  0  0  0  0
    2.0456    3.8096   -0.6637 N   0  0  0  0  0  0  0  0  0  0  0  0
    3.3637    3.6776   -0.8670 N   0  0  0  0  0  0  0  0  0  0  0  0
    3.6455    2.4341   -0.4432 C   0  0  0  0  0  0  0  0  0  0  0  0
    5.0107    1.9220   -0.5116 C   0  0  0  0  0  0  0  0  0  0  0  0
    5.6840    1.8933   -1.7397 C   0  0  0  0  0  0  0  0  0  0  0  0
    6.9864    1.3963   -1.8191 C   0  0  0  0  0  0  0  0  0  0  0  0
    7.6264    0.9323   -0.6706 C   0  0  0  0  0  0  0  0  0  0  0  0
    6.9693    0.9713    0.5588 C   0  0  0  0  0  0  0  0  0  0  0  0
    5.6662    1.4679    0.6399 C   0  0  0  0  0  0  0  0  0  0  0  0
    1.3846   -2.0147    1.0414 S   0  0  0  0  0  0  0  0  0  0  0  0
   -0.1218   -2.5238    0.2954 C   0  0  0  0  0  0  0  0  0  0  0  0
   -0.7717   -4.0335    0.5825 S   0  0  0  0  0  0  0  0  0  0  0  0
   -5.6278   -1.2350    2.5666 H   0  0  0  0  0  0  0  0  0  0  0  0
   -5.0800    0.2998    3.2730 H   0  0  0  0  0  0  0  0  0  0  0  0
   -5.2619   -1.1384    4.2912 H   0  0  0  0  0  0  0  0  0  0  0  0
   -3.4158   -2.2673    3.0358 H   0  0  0  0  0  0  0  0  0  0  0  0
   -2.8921   -0.8097    3.8715 H   0  0  0  0  0  0  0  0  0  0  0  0
   -1.8744   -0.8293    1.7097 H   0  0  0  0  0  0  0  0  0  0  0  0
   -3.0262    0.4915    1.7515 H   0  0  0  0  0  0  0  0  0  0  0  0
   -4.6792   -0.8030    0.5071 H   0  0  0  0  0  0  0  0  0  0  0  0
   -3.6737   -2.2436    0.5187 H   0  0  0  0  0  0  0  0  0  0  0  0
   -2.5916    0.3355   -0.6756 H   0  0  0  0  0  0  0  0  0  0  0  0
   -3.5747   -0.1240   -2.8507 H   0  0  0  0  0  0  0  0  0  0  0  0
   -4.8041    0.1871   -1.6405 H   0  0  0  0  0  0  0  0  0  0  0  0
   -4.0544   -2.5706   -2.7495 H   0  0  0  0  0  0  0  0  0  0  0  0
   -5.5094   -1.6367   -3.1024 H   0  0  0  0  0  0  0  0  0  0  0  0
   -5.2622   -2.2890   -1.4791 H   0  0  0  0  0  0  0  0  0  0  0  0
   -2.1759   -2.6321   -1.3726 H   0  0  0  0  0  0  0  0  0  0  0  0
   -1.5445   -1.3071   -2.3301 H   0  0  0  0  0  0  0  0  0  0  0  0
    3.1380    0.1326    1.1655 H   0  0  0  0  0  0  0  0  0  0  0  0
    0.4066    2.6932    0.1139 H   0  0  0  0  0  0  0  0  0  0  0  0
    1.6054    4.6857   -0.9241 H   0  0  0  0  0  0  0  0  0  0  0  0
    5.1924    2.2628   -2.6372 H   0  0  0  0  0  0  0  0  0  0  0  0
    7.5012    1.3775   -2.7760 H   0  0  0  0  0  0  0  0  0  0  0  0
    8.6421    0.5499   -0.7324 H   0  0  0  0  0  0  0  0  0  0  0  0
    7.4751    0.6238    1.4559 H   0  0  0  0  0  0  0  0  0  0  0  0
    5.1759    1.5161    1.6087 H   0  0  0  0  0  0  0  0  0  0  0  0
  1  2  1  0
  2  3  1  0
  3  4  1  0
  4  5  1  0
  5  6  1  0
  6  7  1  0
  5  8  1  0
  8  9  1  0
  9 10  1  0
 10 11  2  0
 10 12  1  0
 12 13  2  3
 13 14  1  0
 14 15  2  0
 15 16  1  0
 16 17  1  0
 17 18  2  0
 18 19  1  0
 19 20  2  0
 20 21  1  0
 21 22  2  0
 22 23  1  0
 23 24  2  0
 12 25  1  0
 25 26  1  0
 26 27  2  0
 26  9  1  0
 18 14  1  0
 24 19  1  0
  1 28  1  0
  1 29  1  0
  1 30  1  0
  2 31  1  0
  2 32  1  0
  3 33  1  0
  3 34  1  0
  4 35  1  0
  4 36  1  0
  5 37  1  0
  6 38  1  0
  6 39  1  0
  7 40  1  0
  7 41  1  0
  7 42  1  0
  8 43  1  0
  8 44  1  0
 13 45  1  0
 15 46  1  0
 16 47  1  0
 20 48  1  0
 21 49  1  0
 22 50  1  0
 23 51  1  0
 24 52  1  0
M  END
$$$$
