
     RDKit          3D

 47 48  0  0  0  0  0  0  0  0999 V2000
    5.7650   -1.7013    2.2368 C   0  0  0  0  0  0  0  0  0  0  0  0
    5.5478   -0.6998    1.1417 C   0  0  0  0  0  0  0  0  0  0  0  0
    5.0436   -1.1045   -0.0987 C   0  0  0  0  0  0  0  0  0  0  0  0
    4.8084   -0.1682   -1.1086 C   0  0  0  0  0  0  0  0  0  0  0  0
    5.0646    1.1927   -0.8939 C   0  0  0  0  0  0  0  0  0  0  0  0
    4.7984    2.2060   -1.9801 C   0  0  0  0  0  0  0  0  0  0  0  0
    3.2626    3.1358   -1.7173 S   0  0  0  0  0  0  0  0  0  0  0  0
    2.0850    1.9420   -2.1582 C   0  0  0  0  0  0  0  0  0  0  0  0
    2.2681    0.9864   -3.0484 N   0  0  0  0  0  0  0  0  0  0  0  0
    1.0987    0.2576   -3.1006 N   0  0  0  0  0  0  0  0  0  0  0  0
    0.2767    0.8286   -2.2473 C   0  0  0  0  0  0  0  0  0  0  0  0
   -1.1067    0.4550   -1.8850 C   0  0  0  0  0  0  0  0  0  0  0  0
   -1.1047   -0.6466   -0.8278 C   0  0  0  0  0  0  0  0  0  0  0  0
   -2.4350   -1.1270   -0.5191 N   0  0  0  0  0  0  0  0  0  0  0  0
   -3.3223   -0.4156    0.2294 C   0  0  0  0  0  0  0  0  0  0  0  0
   -3.1108    0.6954    0.6863 O   0  0  0  0  0  0  0  0  0  0  0  0
   -4.4545   -1.1402    0.3645 O   0  0  0  0  0  0  0  0  0  0  0  0
   -5.5801   -0.6201    1.1185 C   0  0  0  0  0  0  0  0  0  0  0  0
   -6.6462   -1.7236    1.0385 C   0  0  0  0  0  0  0  0  0  0  0  0
   -6.1427    0.6514    0.4734 C   0  0  0  0  0  0  0  0  0  0  0  0
   -5.2119   -0.4017    2.5903 C   0  0  0  0  0  0  0  0  0  0  0  0
    0.8268    1.9076   -1.6149 O   0  0  0  0  0  0  0  0  0  0  0  0
    5.5540    1.5971    0.3562 C   0  0  0  0  0  0  0  0  0  0  0  0
    5.7890    0.6598    1.3653 C   0  0  0  0  0  0  0  0  0  0  0  0
    6.5741   -1.3833    2.9027 H   0  0  0  0  0  0  0  0  0  0  0  0
    6.0481   -2.6753    1.8244 H   0  0  0  0  0  0  0  0  0  0  0  0
    4.8490   -1.8176    2.8238 H   0  0  0  0  0  0  0  0  0  0  0  0
    4.8280   -2.1535   -0.2887 H   0  0  0  0  0  0  0  0  0  0  0  0
    4.4151   -0.5113   -2.0643 H   0  0  0  0  0  0  0  0  0  0  0  0
    4.7999    1.7334   -2.9689 H   0  0  0  0  0  0  0  0  0  0  0  0
    5.6259    2.9254   -1.9967 H   0  0  0  0  0  0  0  0  0  0  0  0
   -1.6332    0.1082   -2.7822 H   0  0  0  0  0  0  0  0  0  0  0  0
   -1.6521    1.3349   -1.5255 H   0  0  0  0  0  0  0  0  0  0  0  0
   -0.5258   -1.5128   -1.1679 H   0  0  0  0  0  0  0  0  0  0  0  0
   -0.6461   -0.2835    0.1001 H   0  0  0  0  0  0  0  0  0  0  0  0
   -2.7414   -2.0403   -0.8257 H   0  0  0  0  0  0  0  0  0  0  0  0
   -6.9106   -1.9353   -0.0042 H   0  0  0  0  0  0  0  0  0  0  0  0
   -6.2669   -2.6629    1.4578 H   0  0  0  0  0  0  0  0  0  0  0  0
   -7.5587   -1.4480    1.5777 H   0  0  0  0  0  0  0  0  0  0  0  0
   -7.0871    0.9509    0.9407 H   0  0  0  0  0  0  0  0  0  0  0  0
   -5.4520    1.4953    0.5627 H   0  0  0  0  0  0  0  0  0  0  0  0
   -6.3165    0.4998   -0.5979 H   0  0  0  0  0  0  0  0  0  0  0  0
   -4.5045    0.4234    2.7168 H   0  0  0  0  0  0  0  0  0  0  0  0
   -6.0972   -0.1688    3.1920 H   0  0  0  0  0  0  0  0  0  0  0  0
   -4.7317   -1.2939    3.0073 H   0  0  0  0  0  0  0  0  0  0  0  0
    5.7494    2.6487    0.5558 H   0  0  0  0  0  0  0  0  0  0  0  0
    6.1606    0.9998    2.3295 H   0  0  0  0  0  0  0  0  0  0  0  0
  1  2  1  0
  2  3  2  0
  3  4  1  0
  4  5  2  0
  5  6  1  0
  6  7  1  0
  7  8  1  0
  8  9  2  0
  9 10  1  0
 10 11  2  0
 11 12  1  0
 12 13  1  0
 13 14  1  0
 14 15  1  0
 15 16  2  0
 15 17  1  0
 17 18  1  0
 18 19  1  0
 18 20  1  0
 18 21  1  0
 11 22  1  0
  5 23  1  0
 23 24  2  0
 24  2  1  0
 22  8  1  0
  1 25  1  0
  1 26  1  0
  1 27  1  0
  3 28  1  0
  4 29  1  0
  6 30  1  0
  6 31  1  0
 12 32  1  0
 12 33  1  0
 13 34  1  0
 13 35  1  0
 14 36  1  0
 19 37  1  0
 19 38  1  0
 19 39  1  0
 20 40  1  0
 20 41  1  0
 20 42  1  0
 21 43  1  0
 21 44  1  0
 21 45  1  0
 23 46  1  0
 24 47  1  0
M  END
$$$$
