
     RDKit          3D

 60 63  0  0  0  0  0  0  0  0999 V2000
   -7.4713   -1.1224    2.3954 C   0  0  0  0  0  0  0  0  0  0  0  0
   -6.2277   -0.2770    2.5939 C   0  0  0  0  0  0  0  0  0  0  0  0
   -5.2949   -0.5194    1.5320 O   0  0  0  0  0  0  0  0  0  0  0  0
   -5.4292    0.2654    0.4269 C   0  0  0  0  0  0  0  0  0  0  0  0
   -6.3420    1.0614    0.2418 O   0  0  0  0  0  0  0  0  0  0  0  0
   -4.3554   -0.0455   -0.6062 C   0  0  0  0  0  0  0  0  0  0  0  0
   -4.8196   -1.2591   -1.4340 C   0  0  0  0  0  0  0  0  0  0  0  0
   -3.6631   -1.9121   -2.1812 C   0  0  0  0  0  0  0  0  0  0  0  0
   -2.5617   -2.3777   -1.2258 C   0  0  0  0  0  0  0  0  0  0  0  0
   -2.5921   -1.6594    0.1225 C   0  0  0  0  0  0  0  0  0  0  0  0
   -2.9550   -0.2481   -0.1036 N   0  0  0  0  0  0  0  0  0  0  0  0
   -2.4120    0.8859    1.0365 S   0  0  0  0  0  6  0  0  0  0  0  0
   -2.6291    0.3350    2.3569 O   0  0  0  0  0  0  0  0  0  0  0  0
   -2.9238    2.1849    0.6613 O   0  0  0  0  0  0  0  0  0  0  0  0
   -0.6604    0.9095    0.7314 C   0  0  0  0  0  0  0  0  0  0  0  0
   -0.2002    1.2770   -0.5440 C   0  0  0  0  0  0  0  0  0  0  0  0
    1.1723    1.2990   -0.8161 C   0  0  0  0  0  0  0  0  0  0  0  0
    2.0596    0.9510    0.1917 C   0  0  0  0  0  0  0  0  0  0  0  0
    1.5877    0.5992    1.4600 C   0  0  0  0  0  0  0  0  0  0  0  0
    0.2314    0.5747    1.7533 C   0  0  0  0  0  0  0  0  0  0  0  0
    2.7166    0.3566    2.4089 C   0  0  0  0  0  0  0  0  0  0  0  0
    3.9305    0.3170    1.4551 C   0  0  0  0  0  0  0  0  0  0  0  0
    4.4226   -1.1226    1.2765 C   0  0  0  0  0  0  0  0  0  0  0  0
    3.4725    0.8949    0.1642 N   0  0  0  0  0  0  0  0  0  0  0  0
    4.2695    1.2818   -0.9143 C   0  0  0  0  0  0  0  0  0  0  0  0
    3.7916    1.6694   -1.9900 O   0  0  0  0  0  0  0  0  0  0  0  0
    5.8167    1.2283   -0.7234 C   0  0  0  0  0  0  0  0  0  0  0  0
    6.6431    2.3961   -1.3394 C   0  0  0  0  0  0  0  0  0  0  0  0
    7.7235    1.3594   -1.6981 C   0  0  0  0  0  0  0  0  0  0  0  0
    6.6106    0.2955   -1.6827 C   0  0  0  0  0  0  0  0  0  0  0  0
   -8.1662   -0.9924    3.2299 H   0  0  0  0  0  0  0  0  0  0  0  0
   -7.9851   -0.8530    1.4672 H   0  0  0  0  0  0  0  0  0  0  0  0
   -7.2070   -2.1821    2.3170 H   0  0  0  0  0  0  0  0  0  0  0  0
   -6.4744    0.7880    2.6743 H   0  0  0  0  0  0  0  0  0  0  0  0
   -5.7318   -0.5636    3.5271 H   0  0  0  0  0  0  0  0  0  0  0  0
   -4.3008    0.8202   -1.2807 H   0  0  0  0  0  0  0  0  0  0  0  0
   -5.5927   -0.9418   -2.1447 H   0  0  0  0  0  0  0  0  0  0  0  0
   -5.2952   -2.0098   -0.7887 H   0  0  0  0  0  0  0  0  0  0  0  0
   -4.0220   -2.7595   -2.7760 H   0  0  0  0  0  0  0  0  0  0  0  0
   -3.2429   -1.1889   -2.8917 H   0  0  0  0  0  0  0  0  0  0  0  0
   -2.6463   -3.4573   -1.0530 H   0  0  0  0  0  0  0  0  0  0  0  0
   -1.5899   -2.2200   -1.7101 H   0  0  0  0  0  0  0  0  0  0  0  0
   -3.3173   -2.1340    0.7927 H   0  0  0  0  0  0  0  0  0  0  0  0
   -1.6078   -1.7537    0.5916 H   0  0  0  0  0  0  0  0  0  0  0  0
   -0.9067    1.5506   -1.3253 H   0  0  0  0  0  0  0  0  0  0  0  0
    1.5089    1.5852   -1.8068 H   0  0  0  0  0  0  0  0  0  0  0  0
   -0.1198    0.3164    2.7482 H   0  0  0  0  0  0  0  0  0  0  0  0
    2.7993    1.2047    3.0978 H   0  0  0  0  0  0  0  0  0  0  0  0
    2.5885   -0.5665    2.9822 H   0  0  0  0  0  0  0  0  0  0  0  0
    4.7386    0.9302    1.8676 H   0  0  0  0  0  0  0  0  0  0  0  0
    4.7316   -1.5458    2.2379 H   0  0  0  0  0  0  0  0  0  0  0  0
    5.2793   -1.1759    0.5999 H   0  0  0  0  0  0  0  0  0  0  0  0
    3.6381   -1.7632    0.8583 H   0  0  0  0  0  0  0  0  0  0  0  0
    6.1308    1.0759    0.3152 H   0  0  0  0  0  0  0  0  0  0  0  0
    6.9558    3.1745   -0.6381 H   0  0  0  0  0  0  0  0  0  0  0  0
    6.1850    2.8724   -2.2139 H   0  0  0  0  0  0  0  0  0  0  0  0
    8.2272    1.5081   -2.6563 H   0  0  0  0  0  0  0  0  0  0  0  0
    8.4773    1.2197   -0.9148 H   0  0  0  0  0  0  0  0  0  0  0  0
    6.1358    0.1386   -2.6583 H   0  0  0  0  0  0  0  0  0  0  0  0
    6.8993   -0.6751   -1.2710 H   0  0  0  0  0  0  0  0  0  0  0  0
  1  2  1  0
  2  3  1  0
  3  4  1  0
  4  5  2  0
  4  6  1  0
  6  7  1  0
  7  8  1  0
  8  9  1  0
  9 10  1  0
 10 11  1  0
 11 12  1  0
 12 13  2  0
 12 14  2  0
 12 15  1  0
 15 16  2  0
 16 17  1  0
 17 18  2  0
 18 19  1  0
 19 20  2  0
 19 21  1  0
 21 22  1  0
 22 23  1  0
 22 24  1  0
 24 25  1  0
 25 26  2  0
 25 27  1  0
 27 28  1  0
 28 29  1  0
 29 30  1  0
 11  6  1  0
 20 15  1  0
 30 27  1  0
 24 18  1  0
  1 31  1  0
  1 32  1  0
  1 33  1  0
  2 34  1  0
  2 35  1  0
  6 36  1  0
  7 37  1  0
  7 38  1  0
  8 39  1  0
  8 40  1  0
  9 41  1  0
  9 42  1  0
 10 43  1  0
 10 44  1  0
 16 45  1  0
 17 46  1  0
 20 47  1  0
 21 48  1  0
 21 49  1  0
 22 50  1  0
 23 51  1  0
 23 52  1  0
 23 53  1  0
 27 54  1  0
 28 55  1  0
 28 56  1  0
 29 57  1  0
 29 58  1  0
 30 59  1  0
 30 60  1  0
M  END
$$$$
