
     RDKit          3D

 52 55  0  0  0  0  0  0  0  0999 V2000
    7.9260   -0.4105    4.2766 N   0  0  0  0  0  0  0  0  0  0  0  0
    6.6243   -1.3132    4.8323 S   0  0  0  0  0  6  0  0  0  0  0  0
    6.3373   -0.8173    6.1584 O   0  0  0  0  0  0  0  0  0  0  0  0
    6.9605   -2.6948    4.5792 O   0  0  0  0  0  0  0  0  0  0  0  0
    5.3348   -0.8149    3.7303 C   0  0  0  0  0  0  0  0  0  0  0  0
    5.1582   -1.4956    2.5236 C   0  0  0  0  0  0  0  0  0  0  0  0
    4.1237   -1.1178    1.6665 C   0  0  0  0  0  0  0  0  0  0  0  0
    3.2605   -0.0672    2.0125 C   0  0  0  0  0  0  0  0  0  0  0  0
    2.1319    0.3193    1.0883 C   0  0  0  0  0  0  0  0  0  0  0  0
    0.9125   -0.5879    1.2705 C   0  0  0  0  0  0  0  0  0  0  0  0
   -0.1906   -0.2040    0.4093 N   0  0  0  0  0  0  0  0  0  0  0  0
   -0.1920   -0.5212   -0.9333 C   0  0  0  0  0  0  0  0  0  0  0  0
    0.6853   -1.1701   -1.4859 O   0  0  0  0  0  0  0  0  0  0  0  0
   -1.3499    0.0013   -1.6957 C   0  0  0  0  0  0  0  0  0  0  0  0
   -2.6262   -0.3207   -1.2266 C   0  0  0  0  0  0  0  0  0  0  0  0
   -3.7270    0.1564   -1.9172 C   0  0  0  0  0  0  0  0  0  0  0  0
   -5.1213   -0.1266   -1.5124 C   0  0  0  0  0  0  0  0  0  0  0  0
   -5.4888   -0.3294   -0.1685 C   0  0  0  0  0  0  0  0  0  0  0  0
   -6.8135   -0.6011    0.1924 C   0  0  0  0  0  0  0  0  0  0  0  0
   -7.8030   -0.6724   -0.7833 C   0  0  0  0  0  0  0  0  0  0  0  0
   -7.4707   -0.4679   -2.1182 C   0  0  0  0  0  0  0  0  0  0  0  0
   -6.1464   -0.1962   -2.4752 C   0  0  0  0  0  0  0  0  0  0  0  0
   -3.5806    0.9158   -3.0309 N   0  0  0  0  0  0  0  0  0  0  0  0
   -2.3528    1.2164   -3.4882 C   0  0  0  0  0  0  0  0  0  0  0  0
   -2.2513    1.9974   -4.6321 C   0  0  0  0  0  0  0  0  0  0  0  0
   -1.0165    2.3633   -5.1723 C   0  0  0  0  0  0  0  0  0  0  0  0
    0.1530    1.9414   -4.5578 C   0  0  0  0  0  0  0  0  0  0  0  0
    0.0779    1.1575   -3.4082 C   0  0  0  0  0  0  0  0  0  0  0  0
   -1.1743    0.7813   -2.8577 C   0  0  0  0  0  0  0  0  0  0  0  0
    3.4401    0.5958    3.2349 C   0  0  0  0  0  0  0  0  0  0  0  0
    4.4740    0.2230    4.0957 C   0  0  0  0  0  0  0  0  0  0  0  0
    8.2372    0.2328    5.0046 H   0  0  0  0  0  0  0  0  0  0  0  0
    8.6580   -1.0336    3.9346 H   0  0  0  0  0  0  0  0  0  0  0  0
    5.8157   -2.3162    2.2455 H   0  0  0  0  0  0  0  0  0  0  0  0
    3.9898   -1.6497    0.7253 H   0  0  0  0  0  0  0  0  0  0  0  0
    2.4884    0.2860    0.0509 H   0  0  0  0  0  0  0  0  0  0  0  0
    1.8482    1.3649    1.2652 H   0  0  0  0  0  0  0  0  0  0  0  0
    1.1723   -1.6313    1.0558 H   0  0  0  0  0  0  0  0  0  0  0  0
    0.5445   -0.5412    2.3015 H   0  0  0  0  0  0  0  0  0  0  0  0
   -0.8669    0.4613    0.7625 H   0  0  0  0  0  0  0  0  0  0  0  0
   -2.7429   -0.9637   -0.3608 H   0  0  0  0  0  0  0  0  0  0  0  0
   -4.7504   -0.2618    0.6265 H   0  0  0  0  0  0  0  0  0  0  0  0
   -7.0716   -0.7515    1.2376 H   0  0  0  0  0  0  0  0  0  0  0  0
   -8.8321   -0.8819   -0.5039 H   0  0  0  0  0  0  0  0  0  0  0  0
   -8.2383   -0.5167   -2.8862 H   0  0  0  0  0  0  0  0  0  0  0  0
   -5.9112   -0.0389   -3.5273 H   0  0  0  0  0  0  0  0  0  0  0  0
   -3.1644    2.3326   -5.1196 H   0  0  0  0  0  0  0  0  0  0  0  0
   -0.9757    2.9735   -6.0708 H   0  0  0  0  0  0  0  0  0  0  0  0
    1.1208    2.2148   -4.9703 H   0  0  0  0  0  0  0  0  0  0  0  0
    1.0085    0.8314   -2.9466 H   0  0  0  0  0  0  0  0  0  0  0  0
    2.7749    1.4064    3.5255 H   0  0  0  0  0  0  0  0  0  0  0  0
    4.5999    0.7424    5.0431 H   0  0  0  0  0  0  0  0  0  0  0  0
  1  2  1  0
  2  3  2  0
  2  4  2  0
  2  5  1  0
  5  6  2  0
  6  7  1  0
  7  8  2  0
  8  9  1  0
  9 10  1  0
 10 11  1  0
 11 12  1  0
 12 13  2  0
 12 14  1  0
 14 15  2  0
 15 16  1  0
 16 17  1  0
 17 18  2  0
 18 19  1  0
 19 20  2  0
 20 21  1  0
 21 22  2  0
 16 23  2  0
 23 24  1  0
 24 25  2  0
 25 26  1  0
 26 27  2  0
 27 28  1  0
 28 29  2  0
  8 30  1  0
 30 31  2  0
 31  5  1  0
 29 14  1  0
 22 17  1  0
 29 24  1  0
  1 32  1  0
  1 33  1  0
  6 34  1  0
  7 35  1  0
  9 36  1  0
  9 37  1  0
 10 38  1  0
 10 39  1  0
 11 40  1  0
 15 41  1  0
 18 42  1  0
 19 43  1  0
 20 44  1  0
 21 45  1  0
 22 46  1  0
 25 47  1  0
 26 48  1  0
 27 49  1  0
 28 50  1  0
 30 51  1  0
 31 52  1  0
M  END
$$$$
