
     RDKit          3D

 48 49  0  0  0  0  0  0  0  0999 V2000
   -5.0645   -2.4185   -2.4090 C   0  0  0  0  0  0  0  0  0  0  0  0
   -4.0208   -1.5006   -1.8459 C   0  0  0  0  0  0  0  0  0  0  0  0
   -3.3223   -0.6229   -2.6809 C   0  0  0  0  0  0  0  0  0  0  0  0
   -2.3693    0.2515   -2.1524 C   0  0  0  0  0  0  0  0  0  0  0  0
   -2.1018    0.2696   -0.7773 C   0  0  0  0  0  0  0  0  0  0  0  0
   -1.0739    1.2247   -0.2143 C   0  0  0  0  0  0  0  0  0  0  0  0
    0.0847    0.5412    0.5295 C   0  0  0  0  0  0  0  0  0  0  0  0
    0.8398   -0.3584   -0.3391 N   0  0  0  0  0  0  0  0  0  0  0  0
    1.4341   -1.4877    0.1844 C   0  0  0  0  0  0  0  0  0  0  0  0
    1.2672   -1.8647    1.3389 O   0  0  0  0  0  0  0  0  0  0  0  0
    2.3448   -2.2308   -0.7290 C   0  0  0  0  0  0  0  0  0  0  0  0
    3.3820   -2.9875   -0.1704 C   0  0  0  0  0  0  0  0  0  0  0  0
    4.2541   -3.6989   -0.9962 C   0  0  0  0  0  0  0  0  0  0  0  0
    4.0870   -3.6644   -2.3804 C   0  0  0  0  0  0  0  0  0  0  0  0
    3.0450   -2.9258   -2.9417 C   0  0  0  0  0  0  0  0  0  0  0  0
    2.1707   -2.2115   -2.1193 C   0  0  0  0  0  0  0  0  0  0  0  0
    1.0476    1.6368    1.0236 C   0  0  0  0  0  0  0  0  0  0  0  0
    1.9964    2.0334    0.3476 O   0  0  0  0  0  0  0  0  0  0  0  0
    0.7183    2.1827    2.2480 N   0  0  0  0  0  0  0  0  0  0  0  0
    1.3924    3.3898    2.7275 C   0  0  0  0  0  0  0  0  0  0  0  0
    1.4561    3.3769    4.2483 C   0  0  0  0  0  0  0  0  0  0  0  0
    0.6686    4.6595    2.2640 C   0  0  0  0  0  0  0  0  0  0  0  0
    1.0346    5.8085    2.4588 O   0  0  0  0  0  0  0  0  0  0  0  0
   -0.5078    4.4298    1.6360 O   0  0  0  0  0  0  0  0  0  0  0  0
   -2.8195   -0.5941    0.0596 C   0  0  0  0  0  0  0  0  0  0  0  0
   -3.7711   -1.4694   -0.4701 C   0  0  0  0  0  0  0  0  0  0  0  0
   -6.0365   -1.9160   -2.4227 H   0  0  0  0  0  0  0  0  0  0  0  0
   -5.1466   -3.3316   -1.8099 H   0  0  0  0  0  0  0  0  0  0  0  0
   -4.8080   -2.7221   -3.4294 H   0  0  0  0  0  0  0  0  0  0  0  0
   -3.5146   -0.6152   -3.7514 H   0  0  0  0  0  0  0  0  0  0  0  0
   -1.8382    0.9189   -2.8272 H   0  0  0  0  0  0  0  0  0  0  0  0
   -1.5938    1.9211    0.4565 H   0  0  0  0  0  0  0  0  0  0  0  0
   -0.6683    1.8455   -1.0250 H   0  0  0  0  0  0  0  0  0  0  0  0
   -0.2871   -0.0166    1.3965 H   0  0  0  0  0  0  0  0  0  0  0  0
    1.3149    0.0835   -1.1174 H   0  0  0  0  0  0  0  0  0  0  0  0
    3.5130   -3.0207    0.9093 H   0  0  0  0  0  0  0  0  0  0  0  0
    5.0607   -4.2815   -0.5585 H   0  0  0  0  0  0  0  0  0  0  0  0
    4.7652   -4.2216   -3.0222 H   0  0  0  0  0  0  0  0  0  0  0  0
    2.9082   -2.9143   -4.0202 H   0  0  0  0  0  0  0  0  0  0  0  0
    1.3453   -1.6693   -2.5721 H   0  0  0  0  0  0  0  0  0  0  0  0
   -0.2244    2.0307    2.5843 H   0  0  0  0  0  0  0  0  0  0  0  0
    2.4041    3.4214    2.3084 H   0  0  0  0  0  0  0  0  0  0  0  0
    1.9808    4.2600    4.6281 H   0  0  0  0  0  0  0  0  0  0  0  0
    1.9814    2.4861    4.6089 H   0  0  0  0  0  0  0  0  0  0  0  0
    0.4520    3.3734    4.6879 H   0  0  0  0  0  0  0  0  0  0  0  0
   -0.8217    5.3307    1.4067 H   0  0  0  0  0  0  0  0  0  0  0  0
   -2.6449   -0.6004    1.1329 H   0  0  0  0  0  0  0  0  0  0  0  0
   -4.3141   -2.1313    0.2011 H   0  0  0  0  0  0  0  0  0  0  0  0
  1  2  1  0
  2  3  2  0
  3  4  1  0
  4  5  2  0
  5  6  1  0
  6  7  1  0
  7  8  1  0
  8  9  1  0
  9 10  2  0
  9 11  1  0
 11 12  2  0
 12 13  1  0
 13 14  2  0
 14 15  1  0
 15 16  2  0
  7 17  1  0
 17 18  2  0
 17 19  1  0
 19 20  1  0
 20 21  1  0
 20 22  1  0
 22 23  2  0
 22 24  1  0
  5 25  1  0
 25 26  2  0
 26  2  1  0
 16 11  1  0
  1 27  1  0
  1 28  1  0
  1 29  1  0
  3 30  1  0
  4 31  1  0
  6 32  1  0
  6 33  1  0
  7 34  1  0
  8 35  1  0
 12 36  1  0
 13 37  1  0
 14 38  1  0
 15 39  1  0
 16 40  1  0
 19 41  1  0
 20 42  1  0
 21 43  1  0
 21 44  1  0
 21 45  1  0
 24 46  1  0
 25 47  1  0
 26 48  1  0
M  END
$$$$
