
     RDKit          3D

 53 56  0  0  0  0  0  0  0  0999 V2000
    4.9752    0.9546    2.8248 C   0  0  0  0  0  0  0  0  0  0  0  0
    4.4962    0.4613    1.5237 N   0  0  0  0  0  0  0  0  0  0  0  0
    5.3071   -0.4794    0.8377 C   0  0  0  0  0  0  0  0  0  0  0  0
    4.9016   -0.9633   -0.4223 C   0  0  0  0  0  0  0  0  0  0  0  0
    5.6700   -1.8856   -1.1415 C   0  0  0  0  0  0  0  0  0  0  0  0
    6.8744   -2.3432   -0.6202 C   0  0  0  0  0  0  0  0  0  0  0  0
    7.3109   -1.8696    0.6131 C   0  0  0  0  0  0  0  0  0  0  0  0
    6.5391   -0.9449    1.3283 C   0  0  0  0  0  0  0  0  0  0  0  0
    3.0787    0.4836    1.4515 C   0  0  0  0  0  0  0  0  0  0  0  0
    2.3376   -0.6726    1.7459 C   0  0  0  0  0  0  0  0  0  0  0  0
    0.9368   -0.6650    1.7050 C   0  0  0  0  0  0  0  0  0  0  0  0
    0.2375    0.4982    1.3579 C   0  0  0  0  0  0  0  0  0  0  0  0
   -1.2303    0.4733    1.3458 C   0  0  0  0  0  0  0  0  0  0  0  0
   -2.0198    0.6545    0.2661 C   0  0  0  0  0  0  0  0  0  0  0  0
   -1.4795    0.9340   -1.0255 C   0  0  0  0  0  0  0  0  0  0  0  0
   -1.0660    1.1379   -2.0910 N   0  0  0  0  0  0  0  0  0  0  0  0
   -3.4288    0.6350    0.4813 C   0  0  0  0  0  0  0  0  0  0  0  0
   -4.1075    1.1648    1.4823 N   0  0  0  0  0  0  0  0  0  0  0  0
   -5.4413    0.9667    1.2629 N   0  0  0  0  0  0  0  0  0  0  0  0
   -5.5828    0.2918    0.1420 C   0  0  0  0  0  0  0  0  0  0  0  0
   -4.3296    0.0051   -0.3549 N   0  0  0  0  0  0  0  0  0  0  0  0
   -4.0790   -0.8812   -1.4689 C   0  0  0  0  0  0  0  0  0  0  0  0
   -4.5319   -0.3105   -2.8095 C   0  0  0  0  0  0  0  0  0  0  0  0
   -5.9824    0.1851   -2.8515 C   0  0  0  0  0  0  0  0  0  0  0  0
   -6.9188   -0.5675   -1.9080 C   0  0  0  0  0  0  0  0  0  0  0  0
   -6.9019   -0.0578   -0.4648 C   0  0  0  0  0  0  0  0  0  0  0  0
    0.9503    1.6627    1.0627 C   0  0  0  0  0  0  0  0  0  0  0  0
    2.3514    1.6339    1.1084 C   0  0  0  0  0  0  0  0  0  0  0  0
    3.0529    2.8483    0.7650 N   0  0  0  0  0  4  0  0  0  0  0  0
    3.1838    3.6887    1.6672 O   0  0  0  0  0  0  0  0  0  0  0  0
    3.4332    2.9720   -0.4068 O   0  0  0  0  0  1  0  0  0  0  0  0
    5.0278    0.1418    3.5609 H   0  0  0  0  0  0  0  0  0  0  0  0
    5.9641    1.4175    2.7240 H   0  0  0  0  0  0  0  0  0  0  0  0
    4.3214    1.7284    3.2465 H   0  0  0  0  0  0  0  0  0  0  0  0
    3.9796   -0.6035   -0.8748 H   0  0  0  0  0  0  0  0  0  0  0  0
    5.3262   -2.2356   -2.1119 H   0  0  0  0  0  0  0  0  0  0  0  0
    7.4752   -3.0582   -1.1756 H   0  0  0  0  0  0  0  0  0  0  0  0
    8.2557   -2.2170    1.0231 H   0  0  0  0  0  0  0  0  0  0  0  0
    6.9306   -0.6127    2.2840 H   0  0  0  0  0  0  0  0  0  0  0  0
    2.8540   -1.5921    2.0163 H   0  0  0  0  0  0  0  0  0  0  0  0
    0.4014   -1.5817    1.9445 H   0  0  0  0  0  0  0  0  0  0  0  0
   -1.6784    0.2785    2.3212 H   0  0  0  0  0  0  0  0  0  0  0  0
   -4.5932   -1.8243   -1.2478 H   0  0  0  0  0  0  0  0  0  0  0  0
   -3.0179   -1.1398   -1.5066 H   0  0  0  0  0  0  0  0  0  0  0  0
   -3.8755    0.5139   -3.1127 H   0  0  0  0  0  0  0  0  0  0  0  0
   -4.4059   -1.0946   -3.5667 H   0  0  0  0  0  0  0  0  0  0  0  0
   -6.3455    0.0804   -3.8811 H   0  0  0  0  0  0  0  0  0  0  0  0
   -6.0147    1.2590   -2.6295 H   0  0  0  0  0  0  0  0  0  0  0  0
   -6.7077   -1.6436   -1.9392 H   0  0  0  0  0  0  0  0  0  0  0  0
   -7.9468   -0.4624   -2.2798 H   0  0  0  0  0  0  0  0  0  0  0  0
   -7.5234    0.8467   -0.4220 H   0  0  0  0  0  0  0  0  0  0  0  0
   -7.3975   -0.7968    0.1765 H   0  0  0  0  0  0  0  0  0  0  0  0
    0.4337    2.5846    0.7994 H   0  0  0  0  0  0  0  0  0  0  0  0
  1  2  1  0
  2  3  1  0
  3  4  2  0
  4  5  1  0
  5  6  2  0
  6  7  1  0
  7  8  2  0
  2  9  1  0
  9 10  2  0
 10 11  1  0
 11 12  2  0
 12 13  1  0
 13 14  2  3
 14 15  1  0
 15 16  3  0
 14 17  1  0
 17 18  2  0
 18 19  1  0
 19 20  2  0
 20 21  1  0
 21 22  1  0
 22 23  1  0
 23 24  1  0
 24 25  1  0
 25 26  1  0
 12 27  1  0
 27 28  2  0
 28 29  1  0
 29 30  2  0
 29 31  1  0
  8  3  1  0
 28  9  1  0
 21 17  1  0
 26 20  1  0
  1 32  1  0
  1 33  1  0
  1 34  1  0
  4 35  1  0
  5 36  1  0
  6 37  1  0
  7 38  1  0
  8 39  1  0
 10 40  1  0
 11 41  1  0
 13 42  1  0
 22 43  1  0
 22 44  1  0
 23 45  1  0
 23 46  1  0
 24 47  1  0
 24 48  1  0
 25 49  1  0
 25 50  1  0
 26 51  1  0
 26 52  1  0
 27 53  1  0
M  CHG  2  29   1  31  -1
M  END
$$$$
