
     RDKit          3D

 41 43  0  0  0  0  0  0  0  0999 V2000
    5.6960    1.6738   -0.4264 C   0  0  0  0  0  0  0  0  0  0  0  0
    5.9956    0.3415   -0.8288 O   0  0  0  0  0  0  0  0  0  0  0  0
    4.9225   -0.4905   -1.0259 C   0  0  0  0  0  0  0  0  0  0  0  0
    3.5765   -0.1191   -1.0046 C   0  0  0  0  0  0  0  0  0  0  0  0
    2.5716   -1.0790   -1.2050 C   0  0  0  0  0  0  0  0  0  0  0  0
    1.1478   -0.7204   -1.2290 C   0  0  0  0  0  0  0  0  0  0  0  0
    0.4412   -0.0950   -0.2759 C   0  0  0  0  0  0  0  0  0  0  0  0
   -1.2567    0.2318   -0.4587 S   0  0  0  0  0  0  0  0  0  0  0  0
   -1.3791    0.9489    1.1251 C   0  0  0  0  0  0  0  0  0  0  0  0
   -2.3931    1.4549    1.7362 N   0  0  0  0  0  0  0  0  0  0  0  0
   -3.6581    1.4142    1.1202 C   0  0  0  0  0  0  0  0  0  0  0  0
   -4.1486    2.5836    0.5275 C   0  0  0  0  0  0  0  0  0  0  0  0
   -5.4043    2.6011   -0.0769 C   0  0  0  0  0  0  0  0  0  0  0  0
   -6.1852    1.4491   -0.0806 C   0  0  0  0  0  0  0  0  0  0  0  0
   -5.7175    0.2781    0.5238 C   0  0  0  0  0  0  0  0  0  0  0  0
   -4.4577    0.2507    1.1318 C   0  0  0  0  0  0  0  0  0  0  0  0
   -3.9109   -0.8472    1.7509 O   0  0  0  0  0  0  0  0  0  0  0  0
   -4.6999   -2.0276    1.8019 C   0  0  0  0  0  0  0  0  0  0  0  0
   -0.1656    0.9484    1.7272 N   0  0  0  0  0  0  0  0  0  0  0  0
    0.8913    0.3994    1.0597 C   0  0  0  0  0  0  0  0  0  0  0  0
    2.0227    0.3476    1.5126 O   0  0  0  0  0  0  0  0  0  0  0  0
    2.9306   -2.4088   -1.4654 C   0  0  0  0  0  0  0  0  0  0  0  0
    4.2729   -2.7847   -1.5007 C   0  0  0  0  0  0  0  0  0  0  0  0
    5.2507   -1.8260   -1.2804 C   0  0  0  0  0  0  0  0  0  0  0  0
    6.5612   -2.2186   -1.3185 O   0  0  0  0  0  0  0  0  0  0  0  0
    6.6450    2.1915   -0.2550 H   0  0  0  0  0  0  0  0  0  0  0  0
    5.1328    1.6877    0.5124 H   0  0  0  0  0  0  0  0  0  0  0  0
    5.1633    2.2112   -1.2179 H   0  0  0  0  0  0  0  0  0  0  0  0
    3.2861    0.9103   -0.8273 H   0  0  0  0  0  0  0  0  0  0  0  0
    0.6384   -1.0429   -2.1363 H   0  0  0  0  0  0  0  0  0  0  0  0
   -3.5435    3.4855    0.5414 H   0  0  0  0  0  0  0  0  0  0  0  0
   -5.7728    3.5130   -0.5395 H   0  0  0  0  0  0  0  0  0  0  0  0
   -7.1659    1.4612   -0.5498 H   0  0  0  0  0  0  0  0  0  0  0  0
   -6.3624   -0.5941    0.5038 H   0  0  0  0  0  0  0  0  0  0  0  0
   -5.6266   -1.8600    2.3607 H   0  0  0  0  0  0  0  0  0  0  0  0
   -4.1245   -2.7915    2.3341 H   0  0  0  0  0  0  0  0  0  0  0  0
   -4.9055   -2.4081    0.7957 H   0  0  0  0  0  0  0  0  0  0  0  0
   -0.0600    1.3161    2.6587 H   0  0  0  0  0  0  0  0  0  0  0  0
    2.1681   -3.1650   -1.6406 H   0  0  0  0  0  0  0  0  0  0  0  0
    4.5545   -3.8146   -1.6972 H   0  0  0  0  0  0  0  0  0  0  0  0
    7.0690   -1.4063   -1.1261 H   0  0  0  0  0  0  0  0  0  0  0  0
  1  2  1  0
  2  3  1  0
  3  4  2  0
  4  5  1  0
  5  6  1  0
  6  7  2  3
  7  8  1  0
  8  9  1  0
  9 10  2  3
 10 11  1  0
 11 12  2  0
 12 13  1  0
 13 14  2  0
 14 15  1  0
 15 16  2  0
 16 17  1  0
 17 18  1  0
  9 19  1  0
 19 20  1  0
 20 21  2  0
  5 22  2  0
 22 23  1  0
 23 24  2  0
 24 25  1  0
 24  3  1  0
 20  7  1  0
 16 11  1  0
  1 26  1  0
  1 27  1  0
  1 28  1  0
  4 29  1  0
  6 30  1  0
 12 31  1  0
 13 32  1  0
 14 33  1  0
 15 34  1  0
 18 35  1  0
 18 36  1  0
 18 37  1  0
 19 38  1  0
 22 39  1  0
 23 40  1  0
 25 41  1  0
M  END
$$$$
