
     RDKit          3D

 55 58  0  0  0  0  0  0  0  0999 V2000
   -8.4969   -0.7730   -1.8013 C   0  0  0  0  0  0  0  0  0  0  0  0
   -7.7128   -1.2986   -0.6089 C   0  0  0  0  0  0  0  0  0  0  0  0
   -6.3128   -0.6953   -0.4879 C   0  0  0  0  0  0  0  0  0  0  0  0
   -6.3250    0.8035   -0.1912 C   0  0  0  0  0  0  0  0  0  0  0  0
   -4.9871    1.3089    0.0457 N   0  0  0  0  0  0  0  0  0  0  0  0
   -4.1485    1.6368   -1.0009 C   0  0  0  0  0  0  0  0  0  0  0  0
   -4.4797    1.5767   -2.1794 O   0  0  0  0  0  0  0  0  0  0  0  0
   -2.7642    2.0424   -0.6323 C   0  0  0  0  0  0  0  0  0  0  0  0
   -1.7344    1.8072   -1.5485 C   0  0  0  0  0  0  0  0  0  0  0  0
   -0.4197    2.1676   -1.2399 C   0  0  0  0  0  0  0  0  0  0  0  0
   -0.1126    2.7743   -0.0127 C   0  0  0  0  0  0  0  0  0  0  0  0
    1.3150    3.1649    0.3261 C   0  0  0  0  0  0  0  0  0  0  0  0
    2.1892    2.0071    0.5526 N   0  0  0  0  0  0  0  0  0  0  0  0
    2.2789    1.3850    1.8157 C   0  0  0  0  0  0  0  0  0  0  0  0
    1.4882    1.8419    3.2272 S   0  0  0  0  0  0  0  0  0  0  0  0
    3.1069    0.2876    1.9265 N   0  0  0  0  0  0  0  0  0  0  0  0
    3.8348   -0.1868    0.8696 C   0  0  0  0  0  0  0  0  0  0  0  0
    3.7482    0.4453   -0.3334 C   0  0  0  0  0  0  0  0  0  0  0  0
    4.5647   -0.2098   -1.2124 N   0  0  0  0  0  0  0  0  0  0  0  0
    5.1788   -1.2687   -0.5729 C   0  0  0  0  0  0  0  0  0  0  0  0
    6.0879   -2.2131   -1.0593 C   0  0  0  0  0  0  0  0  0  0  0  0
    6.5530   -3.1905   -0.1682 C   0  0  0  0  0  0  0  0  0  0  0  0
    6.1258   -3.2230    1.1595 C   0  0  0  0  0  0  0  0  0  0  0  0
    6.5183   -4.1318    2.1063 O   0  0  0  0  0  0  0  0  0  0  0  0
    7.4403   -5.1336    1.6959 C   0  0  0  0  0  0  0  0  0  0  0  0
    5.2139   -2.2661    1.6261 C   0  0  0  0  0  0  0  0  0  0  0  0
    4.7302   -1.2737    0.7526 C   0  0  0  0  0  0  0  0  0  0  0  0
    2.9305    1.5906   -0.5737 C   0  0  0  0  0  0  0  0  0  0  0  0
    2.9048    2.1421   -1.6705 O   0  0  0  0  0  0  0  0  0  0  0  0
   -1.1576    3.0343    0.8872 C   0  0  0  0  0  0  0  0  0  0  0  0
   -2.4739    2.6721    0.5824 C   0  0  0  0  0  0  0  0  0  0  0  0
   -7.9397   -0.9168   -2.7324 H   0  0  0  0  0  0  0  0  0  0  0  0
   -9.4483   -1.3073   -1.8899 H   0  0  0  0  0  0  0  0  0  0  0  0
   -8.7242    0.2916   -1.6943 H   0  0  0  0  0  0  0  0  0  0  0  0
   -7.6152   -2.3863   -0.7081 H   0  0  0  0  0  0  0  0  0  0  0  0
   -8.2798   -1.1141    0.3110 H   0  0  0  0  0  0  0  0  0  0  0  0
   -5.7449   -0.8925   -1.4055 H   0  0  0  0  0  0  0  0  0  0  0  0
   -5.7800   -1.2149    0.3189 H   0  0  0  0  0  0  0  0  0  0  0  0
   -6.9079    1.0113    0.7121 H   0  0  0  0  0  0  0  0  0  0  0  0
   -6.7667    1.3634   -1.0218 H   0  0  0  0  0  0  0  0  0  0  0  0
   -4.5906    1.1718    0.9653 H   0  0  0  0  0  0  0  0  0  0  0  0
   -1.9532    1.3409   -2.5075 H   0  0  0  0  0  0  0  0  0  0  0  0
    0.3587    1.9781   -1.9765 H   0  0  0  0  0  0  0  0  0  0  0  0
    1.7025    3.7862   -0.4910 H   0  0  0  0  0  0  0  0  0  0  0  0
    1.3311    3.8166    1.2068 H   0  0  0  0  0  0  0  0  0  0  0  0
    3.1798   -0.1773    2.8241 H   0  0  0  0  0  0  0  0  0  0  0  0
    4.6937    0.0482   -2.1824 H   0  0  0  0  0  0  0  0  0  0  0  0
    6.4270   -2.1971   -2.0904 H   0  0  0  0  0  0  0  0  0  0  0  0
    7.2586   -3.9202   -0.5534 H   0  0  0  0  0  0  0  0  0  0  0  0
    7.0132   -5.7651    0.9100 H   0  0  0  0  0  0  0  0  0  0  0  0
    7.6464   -5.7722    2.5603 H   0  0  0  0  0  0  0  0  0  0  0  0
    8.3890   -4.6899    1.3765 H   0  0  0  0  0  0  0  0  0  0  0  0
    4.8847   -2.2966    2.6605 H   0  0  0  0  0  0  0  0  0  0  0  0
   -0.9581    3.5287    1.8365 H   0  0  0  0  0  0  0  0  0  0  0  0
   -3.2604    2.9139    1.2915 H   0  0  0  0  0  0  0  0  0  0  0  0
  1  2  1  0
  2  3  1  0
  3  4  1  0
  4  5  1  0
  5  6  1  0
  6  7  2  0
  6  8  1  0
  8  9  2  0
  9 10  1  0
 10 11  2  0
 11 12  1  0
 12 13  1  0
 13 14  1  0
 14 15  2  0
 14 16  1  0
 16 17  1  0
 17 18  2  0
 18 19  1  0
 19 20  1  0
 20 21  2  0
 21 22  1  0
 22 23  2  0
 23 24  1  0
 24 25  1  0
 23 26  1  0
 26 27  2  0
 18 28  1  0
 28 29  2  0
 11 30  1  0
 30 31  2  0
 31  8  1  0
 28 13  1  0
 27 17  1  0
 27 20  1  0
  1 32  1  0
  1 33  1  0
  1 34  1  0
  2 35  1  0
  2 36  1  0
  3 37  1  0
  3 38  1  0
  4 39  1  0
  4 40  1  0
  5 41  1  0
  9 42  1  0
 10 43  1  0
 12 44  1  0
 12 45  1  0
 16 46  1  0
 19 47  1  0
 21 48  1  0
 22 49  1  0
 25 50  1  0
 25 51  1  0
 25 52  1  0
 26 53  1  0
 30 54  1  0
 31 55  1  0
M  END
$$$$
