
     RDKit          3D

 46 48  0  0  0  0  0  0  0  0999 V2000
    5.3631    0.4033   -1.5511 C   0  0  0  0  0  0  0  0  0  0  0  0
    4.8318   -0.9465   -1.0725 C   0  0  0  0  0  0  0  0  0  0  0  0
    3.2945   -0.9394   -0.9249 C   0  0  0  0  0  0  0  0  0  0  0  0
    2.8370   -0.2241    0.2703 N   0  0  0  0  0  0  0  0  0  0  0  0
    1.6234    0.4545    0.4100 C   0  0  0  0  0  0  0  0  0  0  0  0
    1.4404    1.2084    1.3688 O   0  0  0  0  0  0  0  0  0  0  0  0
    0.5500    0.2707   -0.5809 C   0  0  0  0  0  0  0  0  0  0  0  0
   -0.5776    1.1216   -0.7466 C   0  0  0  0  0  0  0  0  0  0  0  0
   -1.3230    0.5371   -1.7397 C   0  0  0  0  0  0  0  0  0  0  0  0
   -2.5965    0.8628   -2.4194 C   0  0  0  0  0  0  0  0  0  0  0  0
   -3.4715    1.5144   -1.4943 O   0  0  0  0  0  0  0  0  0  0  0  0
   -4.3081    0.7425   -0.7364 C   0  0  0  0  0  0  0  0  0  0  0  0
   -4.2241   -0.6384   -0.5626 C   0  0  0  0  0  0  0  0  0  0  0  0
   -5.1408   -1.2995    0.2593 C   0  0  0  0  0  0  0  0  0  0  0  0
   -6.1434   -0.5843    0.9137 C   0  0  0  0  0  0  0  0  0  0  0  0
   -6.2420    0.8039    0.7518 C   0  0  0  0  0  0  0  0  0  0  0  0
   -7.3025    1.5930    1.4763 C   0  0  0  0  0  0  0  0  0  0  0  0
   -6.8658    2.0727    2.6731 F   0  0  0  0  0  0  0  0  0  0  0  0
   -8.4192    0.8620    1.7518 F   0  0  0  0  0  0  0  0  0  0  0  0
   -7.7356    2.6770    0.7735 F   0  0  0  0  0  0  0  0  0  0  0  0
   -5.3084    1.4564   -0.0694 C   0  0  0  0  0  0  0  0  0  0  0  0
   -0.6968   -0.5966   -2.1489 O   0  0  0  0  0  0  0  0  0  0  0  0
    0.4593   -0.7780   -1.4180 N   0  0  0  0  0  0  0  0  0  0  0  0
    3.7751   -0.1983    1.3913 C   0  0  0  0  0  0  0  0  0  0  0  0
    4.7692   -1.3642    1.3094 C   0  0  0  0  0  0  0  0  0  0  0  0
    5.7290   -1.3521    2.4907 C   0  0  0  0  0  0  0  0  0  0  0  0
    5.5572   -1.3111    0.1122 O   0  0  0  0  0  0  0  0  0  0  0  0
    5.1784    1.1936   -0.8170 H   0  0  0  0  0  0  0  0  0  0  0  0
    6.4487    0.3556   -1.6908 H   0  0  0  0  0  0  0  0  0  0  0  0
    4.9042    0.6963   -2.5003 H   0  0  0  0  0  0  0  0  0  0  0  0
    5.0950   -1.6879   -1.8362 H   0  0  0  0  0  0  0  0  0  0  0  0
    2.9398   -1.9712   -0.8155 H   0  0  0  0  0  0  0  0  0  0  0  0
    2.8494   -0.5105   -1.8266 H   0  0  0  0  0  0  0  0  0  0  0  0
   -0.8068    2.0254   -0.2002 H   0  0  0  0  0  0  0  0  0  0  0  0
   -2.3905    1.5819   -3.2202 H   0  0  0  0  0  0  0  0  0  0  0  0
   -3.0686   -0.0041   -2.8954 H   0  0  0  0  0  0  0  0  0  0  0  0
   -3.4486   -1.2339   -1.0339 H   0  0  0  0  0  0  0  0  0  0  0  0
   -5.0658   -2.3762    0.3957 H   0  0  0  0  0  0  0  0  0  0  0  0
   -6.8463   -1.1144    1.5552 H   0  0  0  0  0  0  0  0  0  0  0  0
   -5.3614    2.5374   -0.1956 H   0  0  0  0  0  0  0  0  0  0  0  0
    3.2165   -0.2335    2.3336 H   0  0  0  0  0  0  0  0  0  0  0  0
    4.2988    0.7637    1.3450 H   0  0  0  0  0  0  0  0  0  0  0  0
    4.2281   -2.3188    1.3077 H   0  0  0  0  0  0  0  0  0  0  0  0
    5.1924   -1.4288    3.4411 H   0  0  0  0  0  0  0  0  0  0  0  0
    6.4340   -2.1875    2.4193 H   0  0  0  0  0  0  0  0  0  0  0  0
    6.3283   -0.4349    2.4981 H   0  0  0  0  0  0  0  0  0  0  0  0
  1  2  1  0
  2  3  1  0
  3  4  1  0
  4  5  1  0
  5  6  2  0
  5  7  1  0
  7  8  1  0
  8  9  2  0
  9 10  1  0
 10 11  1  0
 11 12  1  0
 12 13  2  0
 13 14  1  0
 14 15  2  0
 15 16  1  0
 16 17  1  0
 17 18  1  0
 17 19  1  0
 17 20  1  0
 16 21  2  0
  9 22  1  0
 22 23  1  0
  4 24  1  0
 24 25  1  0
 25 26  1  0
 25 27  1  0
 27  2  1  0
 23  7  2  0
 21 12  1  0
  1 28  1  0
  1 29  1  0
  1 30  1  0
  2 31  1  0
  3 32  1  0
  3 33  1  0
  8 34  1  0
 10 35  1  0
 10 36  1  0
 13 37  1  0
 14 38  1  0
 15 39  1  0
 21 40  1  0
 24 41  1  0
 24 42  1  0
 25 43  1  0
 26 44  1  0
 26 45  1  0
 26 46  1  0
M  END
$$$$
