
     RDKit          3D

 39 41  0  0  0  0  0  0  0  0999 V2000
    4.9040   -0.8416    0.7034 C   0  0  0  0  0  0  0  0  0  0  0  0
    4.2640   -0.2741   -0.5634 C   0  0  0  0  0  0  0  0  0  0  0  0
    4.7480    1.1540   -0.8141 C   0  0  0  0  0  0  0  0  0  0  0  0
    2.7277   -0.3765   -0.5402 C   0  0  0  0  0  0  0  0  0  0  0  0
    2.0349    0.4174    0.5750 C   0  0  0  0  0  0  0  0  0  0  0  0
    0.5821    0.2597    0.5168 N   0  0  0  0  0  0  0  0  0  0  0  0
    0.0225   -0.8221    1.1927 C   0  0  0  0  0  0  0  0  0  0  0  0
    0.6794   -1.6404    1.8323 O   0  0  0  0  0  0  0  0  0  0  0  0
   -1.4489   -0.9776    1.1138 C   0  0  0  0  0  0  0  0  0  0  0  0
   -2.0523   -2.0388    1.7990 C   0  0  0  0  0  0  0  0  0  0  0  0
   -3.4271   -2.2136    1.7301 C   0  0  0  0  0  0  0  0  0  0  0  0
   -4.2009   -1.3223    0.9862 C   0  0  0  0  0  0  0  0  0  0  0  0
   -3.6258   -0.2309    0.2942 C   0  0  0  0  0  0  0  0  0  0  0  0
   -4.3933    0.7069   -0.4523 C   0  0  0  0  0  0  0  0  0  0  0  0
   -5.7841    0.5654   -0.6299 N   0  0  0  0  0  0  0  0  0  0  0  0
   -3.7381    1.6889   -1.2051 C   0  0  0  0  0  0  0  0  0  0  0  0
   -2.3559    1.8316   -1.1416 C   0  0  0  0  0  0  0  0  0  0  0  0
   -1.6001    0.9606   -0.3525 C   0  0  0  0  0  0  0  0  0  0  0  0
   -2.2131   -0.0775    0.3574 C   0  0  0  0  0  0  0  0  0  0  0  0
   -0.1305    1.1377   -0.2964 C   0  0  0  0  0  0  0  0  0  0  0  0
    0.3919    2.0305   -0.9597 O   0  0  0  0  0  0  0  0  0  0  0  0
    4.5480   -1.8586    0.8982 H   0  0  0  0  0  0  0  0  0  0  0  0
    5.9933   -0.8847    0.5959 H   0  0  0  0  0  0  0  0  0  0  0  0
    4.6837   -0.2271    1.5820 H   0  0  0  0  0  0  0  0  0  0  0  0
    4.6090   -0.8879   -1.4061 H   0  0  0  0  0  0  0  0  0  0  0  0
    4.2799    1.5727   -1.7111 H   0  0  0  0  0  0  0  0  0  0  0  0
    4.5242    1.8145    0.0295 H   0  0  0  0  0  0  0  0  0  0  0  0
    5.8328    1.1695   -0.9662 H   0  0  0  0  0  0  0  0  0  0  0  0
    2.4479   -1.4348   -0.4554 H   0  0  0  0  0  0  0  0  0  0  0  0
    2.3393   -0.0450   -1.5122 H   0  0  0  0  0  0  0  0  0  0  0  0
    2.2769    1.4823    0.4925 H   0  0  0  0  0  0  0  0  0  0  0  0
    2.3863    0.0829    1.5568 H   0  0  0  0  0  0  0  0  0  0  0  0
   -1.4503   -2.7355    2.3798 H   0  0  0  0  0  0  0  0  0  0  0  0
   -3.8987   -3.0441    2.2500 H   0  0  0  0  0  0  0  0  0  0  0  0
   -5.2721   -1.5032    0.9434 H   0  0  0  0  0  0  0  0  0  0  0  0
   -6.2638    0.1674    0.1700 H   0  0  0  0  0  0  0  0  0  0  0  0
   -6.2436    1.4136   -0.9486 H   0  0  0  0  0  0  0  0  0  0  0  0
   -4.3053    2.3620   -1.8438 H   0  0  0  0  0  0  0  0  0  0  0  0
   -1.8717    2.6187   -1.7167 H   0  0  0  0  0  0  0  0  0  0  0  0
  1  2  1  0
  2  3  1  0
  2  4  1  0
  4  5  1  0
  5  6  1  0
  6  7  1  0
  7  8  2  0
  7  9  1  0
  9 10  1  0
 10 11  2  0
 11 12  1  0
 12 13  2  0
 13 14  1  0
 14 15  1  0
 14 16  2  0
 16 17  1  0
 17 18  2  0
 18 19  1  0
 18 20  1  0
 20 21  2  0
 20  6  1  0
 19  9  2  0
 19 13  1  0
  1 22  1  0
  1 23  1  0
  1 24  1  0
  2 25  1  0
  3 26  1  0
  3 27  1  0
  3 28  1  0
  4 29  1  0
  4 30  1  0
  5 31  1  0
  5 32  1  0
 10 33  1  0
 11 34  1  0
 12 35  1  0
 15 36  1  0
 15 37  1  0
 16 38  1  0
 17 39  1  0
M  END
$$$$
