
     RDKit          3D

 55 57  0  0  0  0  0  0  0  0999 V2000
    6.8582    2.4799    1.6616 C   0  0  0  0  0  0  0  0  0  0  0  0
    6.1367    1.3992    2.4486 C   0  0  0  0  0  0  0  0  0  0  0  0
    6.1616    0.1694    1.7232 O   0  0  0  0  0  0  0  0  0  0  0  0
    4.9964   -0.2420    1.1318 C   0  0  0  0  0  0  0  0  0  0  0  0
    4.0576    0.6403    0.5834 C   0  0  0  0  0  0  0  0  0  0  0  0
    2.9114    0.1517   -0.0514 C   0  0  0  0  0  0  0  0  0  0  0  0
    2.7014   -1.2267   -0.1278 C   0  0  0  0  0  0  0  0  0  0  0  0
    1.5037   -1.7638   -0.8010 C   0  0  0  0  0  0  0  0  0  0  0  0
    1.6602   -2.3330   -1.8809 O   0  0  0  0  0  0  0  0  0  0  0  0
    0.1461   -1.6352   -0.1590 C   0  0  0  0  0  0  0  0  0  0  0  0
    0.0863   -0.8340    1.0995 C   0  0  0  0  0  0  0  0  0  0  0  0
    0.5144   -1.1690    2.1880 O   0  0  0  0  0  0  0  0  0  0  0  0
   -0.5216    0.5277    0.8041 C   0  0  0  0  0  0  0  0  0  0  0  0
   -0.4793    1.4696    1.5659 O   0  0  0  0  0  0  0  0  0  0  0  0
   -0.9934    0.4592   -0.4842 N   0  0  0  0  0  0  0  0  0  0  0  0
   -1.5693    1.5982   -1.1949 C   0  0  0  0  0  0  0  0  0  0  0  0
   -3.1139    1.6470   -1.2274 C   0  0  0  0  0  0  0  0  0  0  0  0
   -3.7770    1.5892    0.0905 N   0  0  0  0  0  0  0  0  0  0  0  0
   -5.2169    1.3713   -0.0806 C   0  0  0  0  0  0  0  0  0  0  0  0
   -3.5604    2.8157    0.8649 C   0  0  0  0  0  0  0  0  0  0  0  0
   -0.7981   -0.8528   -1.0924 C   0  0  0  0  0  0  0  0  0  0  0  0
   -2.0833   -1.6292   -1.3208 C   0  0  0  0  0  0  0  0  0  0  0  0
   -2.2832   -2.2805   -2.5499 C   0  0  0  0  0  0  0  0  0  0  0  0
   -3.4365   -3.0341   -2.7802 C   0  0  0  0  0  0  0  0  0  0  0  0
   -4.4014   -3.1552   -1.7835 C   0  0  0  0  0  0  0  0  0  0  0  0
   -4.2130   -2.5250   -0.5556 C   0  0  0  0  0  0  0  0  0  0  0  0
   -3.0613   -1.7699   -0.3225 C   0  0  0  0  0  0  0  0  0  0  0  0
    3.6402   -2.1217    0.3825 C   0  0  0  0  0  0  0  0  0  0  0  0
    4.7851   -1.6259    1.0097 C   0  0  0  0  0  0  0  0  0  0  0  0
    5.9189   -2.7665    1.6425 Cl  0  0  0  0  0  0  0  0  0  0  0  0
    6.8974    3.4146    2.2338 H   0  0  0  0  0  0  0  0  0  0  0  0
    6.3652    2.6737    0.7035 H   0  0  0  0  0  0  0  0  0  0  0  0
    7.8826    2.1637    1.4319 H   0  0  0  0  0  0  0  0  0  0  0  0
    6.6895    1.2233    3.3795 H   0  0  0  0  0  0  0  0  0  0  0  0
    5.1284    1.7100    2.7426 H   0  0  0  0  0  0  0  0  0  0  0  0
    4.2082    1.7151    0.6153 H   0  0  0  0  0  0  0  0  0  0  0  0
    2.2107    0.8566   -0.4932 H   0  0  0  0  0  0  0  0  0  0  0  0
   -0.2093   -2.6495    0.0588 H   0  0  0  0  0  0  0  0  0  0  0  0
   -1.1827    1.5789   -2.2205 H   0  0  0  0  0  0  0  0  0  0  0  0
   -1.1861    2.5160   -0.7335 H   0  0  0  0  0  0  0  0  0  0  0  0
   -3.4532    0.7996   -1.8356 H   0  0  0  0  0  0  0  0  0  0  0  0
   -3.4240    2.5501   -1.7698 H   0  0  0  0  0  0  0  0  0  0  0  0
   -5.7090    1.2760    0.8942 H   0  0  0  0  0  0  0  0  0  0  0  0
   -5.4086    0.4374   -0.6191 H   0  0  0  0  0  0  0  0  0  0  0  0
   -5.6963    2.1894   -0.6311 H   0  0  0  0  0  0  0  0  0  0  0  0
   -4.0434    2.7358    1.8463 H   0  0  0  0  0  0  0  0  0  0  0  0
   -2.4990    2.9913    1.0619 H   0  0  0  0  0  0  0  0  0  0  0  0
   -3.9631    3.6998    0.3561 H   0  0  0  0  0  0  0  0  0  0  0  0
   -0.3270   -0.6613   -2.0665 H   0  0  0  0  0  0  0  0  0  0  0  0
   -1.5367   -2.2147   -3.3410 H   0  0  0  0  0  0  0  0  0  0  0  0
   -3.5790   -3.5313   -3.7367 H   0  0  0  0  0  0  0  0  0  0  0  0
   -5.2989   -3.7418   -1.9629 H   0  0  0  0  0  0  0  0  0  0  0  0
   -4.9661   -2.6162    0.2226 H   0  0  0  0  0  0  0  0  0  0  0  0
   -2.9537   -1.2769    0.6421 H   0  0  0  0  0  0  0  0  0  0  0  0
    3.4845   -3.1935    0.2910 H   0  0  0  0  0  0  0  0  0  0  0  0
  1  2  1  0
  2  3  1  0
  3  4  1  0
  4  5  2  0
  5  6  1  0
  6  7  2  0
  7  8  1  0
  8  9  2  0
  8 10  1  0
 10 11  1  0
 11 12  2  0
 11 13  1  0
 13 14  2  0
 13 15  1  0
 15 16  1  0
 16 17  1  0
 17 18  1  0
 18 19  1  0
 18 20  1  0
 15 21  1  0
 21 22  1  0
 22 23  2  0
 23 24  1  0
 24 25  2  0
 25 26  1  0
 26 27  2  0
  7 28  1  0
 28 29  2  0
 29 30  1  0
 29  4  1  0
 21 10  1  0
 27 22  1  0
  1 31  1  0
  1 32  1  0
  1 33  1  0
  2 34  1  0
  2 35  1  0
  5 36  1  0
  6 37  1  0
 10 38  1  0
 16 39  1  0
 16 40  1  0
 17 41  1  0
 17 42  1  0
 19 43  1  0
 19 44  1  0
 19 45  1  0
 20 46  1  0
 20 47  1  0
 20 48  1  0
 21 49  1  0
 23 50  1  0
 24 51  1  0
 25 52  1  0
 26 53  1  0
 27 54  1  0
 28 55  1  0
M  END
$$$$
