
     RDKit          3D

 43 45  0  0  0  0  0  0  0  0999 V2000
    2.4463    3.3384    0.7926 O   0  0  0  0  0  0  0  0  0  0  0  0
    2.6893    2.1567    0.5183 C   0  0  0  0  0  0  0  0  0  0  0  0
    4.1649    1.7168    0.3766 C   0  0  0  0  0  0  0  0  0  0  0  0
    4.5966    1.5801   -1.0818 C   0  0  0  0  0  0  0  0  0  0  0  0
    5.3346    0.2608   -1.1428 C   0  0  0  0  0  0  0  0  0  0  0  0
    5.6544   -0.0300    0.3044 C   0  0  0  0  0  0  0  0  0  0  0  0
    4.5594    0.5170    1.0465 O   0  0  0  0  0  0  0  0  0  0  0  0
    1.6577    1.2532    0.2626 N   0  0  0  0  0  0  0  0  0  0  0  0
    0.3050    1.7063    0.5969 C   0  0  0  0  0  0  0  0  0  0  0  0
   -0.7909    0.9295   -0.1366 C   0  0  0  0  0  0  0  0  0  0  0  0
   -0.6276   -0.5311   -0.0120 N   0  0  0  0  0  0  0  0  0  0  0  0
   -1.7572   -1.3753   -0.1642 C   0  0  0  0  0  0  0  0  0  0  0  0
   -1.7091   -2.8690   -0.9337 S   0  0  0  0  0  0  0  0  0  0  0  0
   -2.8679   -0.8462    0.4839 N   0  0  0  0  0  0  0  0  0  0  0  0
   -4.2447   -1.1245    0.3501 C   0  0  0  0  0  0  0  0  0  0  0  0
   -4.8264   -1.6427   -0.8107 C   0  0  0  0  0  0  0  0  0  0  0  0
   -6.2070   -1.8567   -0.8771 C   0  0  0  0  0  0  0  0  0  0  0  0
   -7.0063   -1.5356    0.2113 C   0  0  0  0  0  0  0  0  0  0  0  0
   -8.3284   -1.7375    0.1449 F   0  0  0  0  0  0  0  0  0  0  0  0
   -6.4529   -0.9941    1.3632 C   0  0  0  0  0  0  0  0  0  0  0  0
   -5.0737   -0.7803    1.4285 C   0  0  0  0  0  0  0  0  0  0  0  0
    0.7210   -0.9807   -0.4005 C   0  0  0  0  0  0  0  0  0  0  0  0
    1.8419   -0.1994    0.3024 C   0  0  0  0  0  0  0  0  0  0  0  0
    4.7560    2.5188    0.8403 H   0  0  0  0  0  0  0  0  0  0  0  0
    5.2632    2.4084   -1.3496 H   0  0  0  0  0  0  0  0  0  0  0  0
    3.7610    1.6078   -1.7891 H   0  0  0  0  0  0  0  0  0  0  0  0
    6.2249    0.2897   -1.7770 H   0  0  0  0  0  0  0  0  0  0  0  0
    4.6681   -0.5127   -1.5408 H   0  0  0  0  0  0  0  0  0  0  0  0
    5.7451   -1.0998    0.5109 H   0  0  0  0  0  0  0  0  0  0  0  0
    6.5751    0.4722    0.6216 H   0  0  0  0  0  0  0  0  0  0  0  0
    0.1948    2.7731    0.3735 H   0  0  0  0  0  0  0  0  0  0  0  0
    0.1875    1.5833    1.6810 H   0  0  0  0  0  0  0  0  0  0  0  0
   -0.7526    1.1551   -1.2102 H   0  0  0  0  0  0  0  0  0  0  0  0
   -1.7698    1.2641    0.2168 H   0  0  0  0  0  0  0  0  0  0  0  0
   -2.6132   -0.3334    1.3186 H   0  0  0  0  0  0  0  0  0  0  0  0
   -4.2368   -1.8601   -1.6951 H   0  0  0  0  0  0  0  0  0  0  0  0
   -6.6593   -2.2629   -1.7763 H   0  0  0  0  0  0  0  0  0  0  0  0
   -7.0951   -0.7418    2.2007 H   0  0  0  0  0  0  0  0  0  0  0  0
   -4.6566   -0.3569    2.3386 H   0  0  0  0  0  0  0  0  0  0  0  0
    0.8512   -2.0431   -0.1728 H   0  0  0  0  0  0  0  0  0  0  0  0
    0.8037   -0.8532   -1.4873 H   0  0  0  0  0  0  0  0  0  0  0  0
    1.8913   -0.4846    1.3602 H   0  0  0  0  0  0  0  0  0  0  0  0
    2.7826   -0.4797   -0.1675 H   0  0  0  0  0  0  0  0  0  0  0  0
  1  2  2  0
  2  3  1  0
  3  4  1  0
  4  5  1  0
  5  6  1  0
  6  7  1  0
  2  8  1  0
  8  9  1  0
  9 10  1  0
 10 11  1  0
 11 12  1  0
 12 13  2  0
 12 14  1  0
 14 15  1  0
 15 16  2  0
 16 17  1  0
 17 18  2  0
 18 19  1  0
 18 20  1  0
 20 21  2  0
 11 22  1  0
 22 23  1  0
  7  3  1  0
 23  8  1  0
 21 15  1  0
  3 24  1  0
  4 25  1  0
  4 26  1  0
  5 27  1  0
  5 28  1  0
  6 29  1  0
  6 30  1  0
  9 31  1  0
  9 32  1  0
 10 33  1  0
 10 34  1  0
 14 35  1  0
 16 36  1  0
 17 37  1  0
 20 38  1  0
 21 39  1  0
 22 40  1  0
 22 41  1  0
 23 42  1  0
 23 43  1  0
M  END
$$$$
