
     RDKit          3D

 56 59  0  0  0  0  0  0  0  0999 V2000
    0.0765    2.2239   -4.0155 C   0  0  0  0  0  0  0  0  0  0  0  0
   -0.3577    0.8787   -3.8468 O   0  0  0  0  0  0  0  0  0  0  0  0
   -1.2540    0.6771   -2.8291 C   0  0  0  0  0  0  0  0  0  0  0  0
   -2.2378    1.6089   -2.4780 C   0  0  0  0  0  0  0  0  0  0  0  0
   -3.1628    1.3188   -1.4704 C   0  0  0  0  0  0  0  0  0  0  0  0
   -3.1272    0.0873   -0.8135 C   0  0  0  0  0  0  0  0  0  0  0  0
   -4.1557   -0.1926    0.2338 C   0  0  0  0  0  0  0  0  0  0  0  0
   -4.3287   -1.6048    0.7337 C   0  0  0  0  0  0  0  0  0  0  0  0
   -4.8430    0.7264    0.6781 O   0  0  0  0  0  0  0  0  0  0  0  0
   -2.1448   -0.8460   -1.1659 C   0  0  0  0  0  0  0  0  0  0  0  0
   -1.1982   -0.5638   -2.1737 C   0  0  0  0  0  0  0  0  0  0  0  0
   -0.1663   -1.6117   -2.5319 C   0  0  0  0  0  0  0  0  0  0  0  0
    1.5341   -1.2237   -2.0376 S   0  0  0  0  0  0  0  0  0  0  0  0
    1.4262   -1.2114   -0.2887 C   0  0  0  0  0  0  0  0  0  0  0  0
    0.5003   -1.9265    0.2634 N   0  0  0  0  0  0  0  0  0  0  0  0
    0.3795   -1.9214    1.6540 C   0  0  0  0  0  0  0  0  0  0  0  0
   -0.6291   -2.6861    2.2450 C   0  0  0  0  0  0  0  0  0  0  0  0
   -0.7994   -2.6930    3.6370 C   0  0  0  0  0  0  0  0  0  0  0  0
   -1.8956   -3.5142    4.2005 C   0  0  0  0  0  0  0  0  0  0  0  0
   -2.7213   -4.1317    3.5547 O   0  0  0  0  0  0  0  0  0  0  0  0
   -1.8980   -3.5320    5.5453 O   0  0  0  0  0  0  0  0  0  0  0  0
    0.0523   -1.9311    4.4453 C   0  0  0  0  0  0  0  0  0  0  0  0
    1.0670   -1.1708    3.8600 C   0  0  0  0  0  0  0  0  0  0  0  0
    1.2218   -1.1736    2.4672 C   0  0  0  0  0  0  0  0  0  0  0  0
    2.2945   -0.4071    1.8141 C   0  0  0  0  0  0  0  0  0  0  0  0
    3.0785    0.2204    2.5218 O   0  0  0  0  0  0  0  0  0  0  0  0
    2.3544   -0.4619    0.4224 N   0  0  0  0  0  0  0  0  0  0  0  0
    3.4969    0.2186   -0.1990 C   0  0  0  0  0  0  0  0  0  0  0  0
    3.1988    1.6059   -0.7308 C   0  0  0  0  0  0  0  0  0  0  0  0
    2.6870    2.6115    0.1021 C   0  0  0  0  0  0  0  0  0  0  0  0
    2.5055    3.9117   -0.3760 C   0  0  0  0  0  0  0  0  0  0  0  0
    2.8447    4.2260   -1.6897 C   0  0  0  0  0  0  0  0  0  0  0  0
    3.3547    3.2382   -2.5300 C   0  0  0  0  0  0  0  0  0  0  0  0
    3.5298    1.9367   -2.0551 C   0  0  0  0  0  0  0  0  0  0  0  0
    0.9654    2.2031   -4.6546 H   0  0  0  0  0  0  0  0  0  0  0  0
    0.3554    2.6828   -3.0571 H   0  0  0  0  0  0  0  0  0  0  0  0
   -0.6833    2.8225   -4.5273 H   0  0  0  0  0  0  0  0  0  0  0  0
   -2.3253    2.5584   -2.9926 H   0  0  0  0  0  0  0  0  0  0  0  0
   -3.9264    2.0525   -1.2173 H   0  0  0  0  0  0  0  0  0  0  0  0
   -4.3300   -2.3146   -0.1000 H   0  0  0  0  0  0  0  0  0  0  0  0
   -5.2976   -1.6912    1.2357 H   0  0  0  0  0  0  0  0  0  0  0  0
   -3.5384   -1.8459    1.4505 H   0  0  0  0  0  0  0  0  0  0  0  0
   -2.0943   -1.8066   -0.6592 H   0  0  0  0  0  0  0  0  0  0  0  0
   -0.1742   -1.7487   -3.6207 H   0  0  0  0  0  0  0  0  0  0  0  0
   -0.4458   -2.5889   -2.1224 H   0  0  0  0  0  0  0  0  0  0  0  0
   -1.2852   -3.2805    1.6122 H   0  0  0  0  0  0  0  0  0  0  0  0
   -2.6524   -4.1163    5.7723 H   0  0  0  0  0  0  0  0  0  0  0  0
   -0.0649   -1.9224    5.5277 H   0  0  0  0  0  0  0  0  0  0  0  0
    1.7338   -0.5820    4.4868 H   0  0  0  0  0  0  0  0  0  0  0  0
    3.9018   -0.4187   -0.9937 H   0  0  0  0  0  0  0  0  0  0  0  0
    4.3180    0.3140    0.5239 H   0  0  0  0  0  0  0  0  0  0  0  0
    2.4475    2.4008    1.1426 H   0  0  0  0  0  0  0  0  0  0  0  0
    2.1207    4.6858    0.2871 H   0  0  0  0  0  0  0  0  0  0  0  0
    2.7192    5.2423   -2.0541 H   0  0  0  0  0  0  0  0  0  0  0  0
    3.6334    3.4836   -3.5528 H   0  0  0  0  0  0  0  0  0  0  0  0
    3.9398    1.1832   -2.7256 H   0  0  0  0  0  0  0  0  0  0  0  0
  1  2  1  0
  2  3  1  0
  3  4  2  0
  4  5  1  0
  5  6  2  0
  6  7  1  0
  7  8  1  0
  7  9  2  0
  6 10  1  0
 10 11  2  0
 11 12  1  0
 12 13  1  0
 13 14  1  0
 14 15  2  0
 15 16  1  0
 16 17  2  0
 17 18  1  0
 18 19  1  0
 19 20  2  0
 19 21  1  0
 18 22  2  0
 22 23  1  0
 23 24  2  0
 24 25  1  0
 25 26  2  0
 25 27  1  0
 27 28  1  0
 28 29  1  0
 29 30  2  0
 30 31  1  0
 31 32  2  0
 32 33  1  0
 33 34  2  0
 11  3  1  0
 27 14  1  0
 34 29  1  0
 24 16  1  0
  1 35  1  0
  1 36  1  0
  1 37  1  0
  4 38  1  0
  5 39  1  0
  8 40  1  0
  8 41  1  0
  8 42  1  0
 10 43  1  0
 12 44  1  0
 12 45  1  0
 17 46  1  0
 21 47  1  0
 22 48  1  0
 23 49  1  0
 28 50  1  0
 28 51  1  0
 30 52  1  0
 31 53  1  0
 32 54  1  0
 33 55  1  0
 34 56  1  0
M  END
$$$$
