
     RDKit          3D

 33 36  0  0  0  0  0  0  0  0999 V2000
    7.0157    0.3986   -0.7053 C   0  0  0  0  0  0  0  0  0  0  0  0
    5.5291    0.3118   -0.5247 C   0  0  0  0  0  0  0  0  0  0  0  0
    4.6690    1.0136   -1.3761 C   0  0  0  0  0  0  0  0  0  0  0  0
    3.2824    0.9078   -1.2275 C   0  0  0  0  0  0  0  0  0  0  0  0
    2.7297    0.0906   -0.2322 C   0  0  0  0  0  0  0  0  0  0  0  0
    1.2800   -0.0143   -0.0840 C   0  0  0  0  0  0  0  0  0  0  0  0
    0.4036    0.6847   -0.9118 N   0  0  0  0  0  0  0  0  0  0  0  0
   -0.7547    0.3152   -0.4493 C   0  0  0  0  0  0  0  0  0  0  0  0
   -2.3902    0.6525   -0.8300 S   0  0  0  0  0  0  0  0  0  0  0  0
   -2.9116   -0.4135    0.4608 C   0  0  0  0  0  0  0  0  0  0  0  0
   -4.1530   -0.7274    0.8577 C   0  0  0  0  0  0  0  0  0  0  0  0
   -5.3604   -0.2364    0.2855 C   0  0  0  0  0  0  0  0  0  0  0  0
   -6.6657   -0.5361    0.6666 C   0  0  0  0  0  0  0  0  0  0  0  0
   -7.5475    0.1777   -0.1789 C   0  0  0  0  0  0  0  0  0  0  0  0
   -6.7470    0.8819   -1.0392 C   0  0  0  0  0  0  0  0  0  0  0  0
   -5.4422    0.6419   -0.7705 O   0  0  0  0  0  0  0  0  0  0  0  0
   -1.7553   -1.0302    1.1851 C   0  0  0  0  0  0  0  0  0  0  0  0
   -1.7526   -1.8087    2.1218 O   0  0  0  0  0  0  0  0  0  0  0  0
   -0.6192   -0.5410    0.5790 N   0  0  0  0  0  0  0  0  0  0  0  0
    0.6736   -0.7827    0.8499 N   0  0  0  0  0  0  0  0  0  0  0  0
    3.5951   -0.6221    0.6090 C   0  0  0  0  0  0  0  0  0  0  0  0
    4.9818   -0.5167    0.4609 C   0  0  0  0  0  0  0  0  0  0  0  0
    7.3532   -0.3724   -1.4047 H   0  0  0  0  0  0  0  0  0  0  0  0
    7.3052    1.3807   -1.0938 H   0  0  0  0  0  0  0  0  0  0  0  0
    7.5338    0.2620    0.2497 H   0  0  0  0  0  0  0  0  0  0  0  0
    5.0708    1.6495   -2.1619 H   0  0  0  0  0  0  0  0  0  0  0  0
    2.6354    1.4688   -1.8996 H   0  0  0  0  0  0  0  0  0  0  0  0
   -4.2717   -1.4187    1.6915 H   0  0  0  0  0  0  0  0  0  0  0  0
   -6.9459   -1.2018    1.4723 H   0  0  0  0  0  0  0  0  0  0  0  0
   -8.6282    0.1778   -0.1622 H   0  0  0  0  0  0  0  0  0  0  0  0
   -6.9388    1.5633   -1.8564 H   0  0  0  0  0  0  0  0  0  0  0  0
    3.1958   -1.2696    1.3876 H   0  0  0  0  0  0  0  0  0  0  0  0
    5.6299   -1.0868    1.1230 H   0  0  0  0  0  0  0  0  0  0  0  0
  1  2  1  0
  2  3  2  0
  3  4  1  0
  4  5  2  0
  5  6  1  0
  6  7  1  0
  7  8  2  0
  8  9  1  0
  9 10  1  0
 10 11  2  3
 11 12  1  0
 12 13  2  0
 13 14  1  0
 14 15  2  0
 15 16  1  0
 10 17  1  0
 17 18  2  0
 17 19  1  0
 19 20  1  0
  5 21  1  0
 21 22  2  0
 22  2  1  0
 20  6  2  0
 19  8  1  0
 16 12  1  0
  1 23  1  0
  1 24  1  0
  1 25  1  0
  3 26  1  0
  4 27  1  0
 11 28  1  0
 13 29  1  0
 14 30  1  0
 15 31  1  0
 21 32  1  0
 22 33  1  0
M  END
$$$$
