
     RDKit          3D

 42 44  0  0  0  0  0  0  0  0999 V2000
    1.6316    4.3998    0.6263 C   0  0  0  0  0  0  0  0  0  0  0  0
    0.0081    3.9836   -0.0625 S   0  0  0  0  0  0  0  0  0  0  0  0
    0.0720    2.1914   -0.0167 C   0  0  0  0  0  0  0  0  0  0  0  0
    1.2986    1.6481    0.1072 N   0  0  0  0  0  0  0  0  0  0  0  0
    1.3820    0.3096    0.0681 C   0  0  0  0  0  0  0  0  0  0  0  0
    2.7188   -0.3054    0.1946 C   0  0  0  0  0  0  0  0  0  0  0  0
    2.8858   -1.7041    0.2191 C   0  0  0  0  0  0  0  0  0  0  0  0
    4.1511   -2.2890    0.3378 C   0  0  0  0  0  0  0  0  0  0  0  0
    5.2833   -1.4864    0.4346 C   0  0  0  0  0  0  0  0  0  0  0  0
    5.1514   -0.1016    0.4140 C   0  0  0  0  0  0  0  0  0  0  0  0
    3.8845    0.4796    0.2959 C   0  0  0  0  0  0  0  0  0  0  0  0
    0.3245   -0.5080   -0.0877 N   0  0  0  0  0  0  0  0  0  0  0  0
   -0.9051    0.0338   -0.1876 C   0  0  0  0  0  0  0  0  0  0  0  0
   -1.9932   -0.8360   -0.3514 N   0  0  0  0  0  0  0  0  0  0  0  0
   -3.0073   -0.7895    0.7351 C   0  0  0  0  0  0  0  0  0  0  0  0
   -3.2096   -2.1730    1.3779 C   0  0  0  0  0  0  0  0  0  0  0  0
   -3.5750   -3.1946    0.4392 O   0  0  0  0  0  0  0  0  0  0  0  0
   -2.9285   -3.0528   -0.8361 C   0  0  0  0  0  0  0  0  0  0  0  0
   -1.6482   -2.2059   -0.7846 C   0  0  0  0  0  0  0  0  0  0  0  0
   -1.0630    1.4145   -0.1683 C   0  0  0  0  0  0  0  0  0  0  0  0
   -2.3795    2.0211   -0.3886 C   0  0  0  0  0  0  0  0  0  0  0  0
   -2.8677    2.1074   -1.8084 C   0  0  0  0  0  0  0  0  0  0  0  0
   -3.0368    2.4113    0.5716 O   0  0  0  0  0  0  0  0  0  0  0  0
    1.7039    5.4861    0.7299 H   0  0  0  0  0  0  0  0  0  0  0  0
    1.7596    3.9511    1.6152 H   0  0  0  0  0  0  0  0  0  0  0  0
    2.4329    4.0669   -0.0389 H   0  0  0  0  0  0  0  0  0  0  0  0
    2.0180   -2.3578    0.1463 H   0  0  0  0  0  0  0  0  0  0  0  0
    4.2481   -3.3716    0.3543 H   0  0  0  0  0  0  0  0  0  0  0  0
    6.2673   -1.9394    0.5260 H   0  0  0  0  0  0  0  0  0  0  0  0
    6.0328    0.5304    0.4891 H   0  0  0  0  0  0  0  0  0  0  0  0
    3.8133    1.5660    0.2814 H   0  0  0  0  0  0  0  0  0  0  0  0
   -3.9528   -0.4637    0.2866 H   0  0  0  0  0  0  0  0  0  0  0  0
   -2.7409   -0.0808    1.5277 H   0  0  0  0  0  0  0  0  0  0  0  0
   -4.0018   -2.1224    2.1321 H   0  0  0  0  0  0  0  0  0  0  0  0
   -2.2956   -2.4960    1.8906 H   0  0  0  0  0  0  0  0  0  0  0  0
   -3.6553   -2.6054   -1.5234 H   0  0  0  0  0  0  0  0  0  0  0  0
   -2.7030   -4.0591   -1.2032 H   0  0  0  0  0  0  0  0  0  0  0  0
   -0.9423   -2.6737   -0.0862 H   0  0  0  0  0  0  0  0  0  0  0  0
   -1.1918   -2.1770   -1.7809 H   0  0  0  0  0  0  0  0  0  0  0  0
   -3.0796    3.1516   -2.0512 H   0  0  0  0  0  0  0  0  0  0  0  0
   -2.1168    1.7352   -2.5108 H   0  0  0  0  0  0  0  0  0  0  0  0
   -3.7737    1.5057   -1.9143 H   0  0  0  0  0  0  0  0  0  0  0  0
  1  2  1  0
  2  3  1  0
  3  4  2  0
  4  5  1  0
  5  6  1  0
  6  7  2  0
  7  8  1  0
  8  9  2  0
  9 10  1  0
 10 11  2  0
  5 12  2  0
 12 13  1  0
 13 14  1  0
 14 15  1  0
 15 16  1  0
 16 17  1  0
 17 18  1  0
 18 19  1  0
 13 20  2  0
 20 21  1  0
 21 22  1  0
 21 23  2  0
 20  3  1  0
 11  6  1  0
 19 14  1  0
  1 24  1  0
  1 25  1  0
  1 26  1  0
  7 27  1  0
  8 28  1  0
  9 29  1  0
 10 30  1  0
 11 31  1  0
 15 32  1  0
 15 33  1  0
 16 34  1  0
 16 35  1  0
 18 36  1  0
 18 37  1  0
 19 38  1  0
 19 39  1  0
 22 40  1  0
 22 41  1  0
 22 42  1  0
M  END
$$$$
