
     RDKit          3D

 59 63  0  0  0  0  0  0  0  0999 V2000
   -7.4282   -0.8706   -3.5739 C   0  0  0  0  0  0  0  0  0  0  0  0
   -6.4091   -0.9284   -2.4757 C   0  0  0  0  0  0  0  0  0  0  0  0
   -5.2473   -1.6895   -2.6366 C   0  0  0  0  0  0  0  0  0  0  0  0
   -4.2813   -1.7286   -1.6288 C   0  0  0  0  0  0  0  0  0  0  0  0
   -4.4581   -1.0046   -0.4421 C   0  0  0  0  0  0  0  0  0  0  0  0
   -3.4003   -1.0401    0.6318 C   0  0  0  0  0  0  0  0  0  0  0  0
   -2.3499   -0.0918    0.3454 N   0  0  0  0  0  0  0  0  0  0  0  0
   -1.1491   -0.4723   -0.2096 C   0  0  0  0  0  0  0  0  0  0  0  0
   -0.8803   -1.6491   -0.4325 O   0  0  0  0  0  0  0  0  0  0  0  0
   -0.2504    0.6209   -0.5134 C   0  0  0  0  0  0  0  0  0  0  0  0
   -0.5057    1.9718   -0.6924 C   0  0  0  0  0  0  0  0  0  0  0  0
    0.7355    2.5939   -0.9873 C   0  0  0  0  0  0  0  0  0  0  0  0
    1.0046    4.0102   -1.2627 C   0  0  0  0  0  0  0  0  0  0  0  0
    0.0507    5.0006   -0.9848 C   0  0  0  0  0  0  0  0  0  0  0  0
    0.3187    6.3465   -1.2547 C   0  0  0  0  0  0  0  0  0  0  0  0
    1.5427    6.7196   -1.8048 C   0  0  0  0  0  0  0  0  0  0  0  0
    2.5018    5.7496   -2.0832 C   0  0  0  0  0  0  0  0  0  0  0  0
    2.2343    4.4051   -1.8127 C   0  0  0  0  0  0  0  0  0  0  0  0
    1.7126    1.6775   -0.9962 N   0  0  0  0  0  0  0  0  0  0  0  0
    1.1046    0.5089   -0.7060 N   0  0  0  0  0  0  0  0  0  0  0  0
    1.9526   -0.6675   -0.5913 C   0  0  0  0  0  0  0  0  0  0  0  0
    2.5701   -0.7722    0.7945 C   0  0  0  0  0  0  0  0  0  0  0  0
    3.6404   -1.8400    0.8659 C   0  0  0  0  0  0  0  0  0  0  0  0
    3.4268   -2.2552    2.2809 C   0  0  0  0  0  0  0  0  0  0  0  0
    4.4313   -3.0283    3.0331 C   0  0  0  0  0  0  0  0  0  0  0  0
    5.6022   -3.5108    2.4464 C   0  0  0  0  0  0  0  0  0  0  0  0
    6.5060   -4.2359    3.2220 C   0  0  0  0  0  0  0  0  0  0  0  0
    6.2063   -4.4535    4.5579 C   0  0  0  0  0  0  0  0  0  0  0  0
    5.0826   -4.0040    5.1547 N   0  0  0  0  0  0  0  0  0  0  0  0
    4.2171   -3.3031    4.3789 C   0  0  0  0  0  0  0  0  0  0  0  0
    2.2810   -1.9055    2.7732 N   0  0  0  0  0  0  0  0  0  0  0  0
    1.5939   -1.2013    1.7556 O   0  0  0  0  0  0  0  0  0  0  0  0
   -5.6103   -0.2234   -0.2928 C   0  0  0  0  0  0  0  0  0  0  0  0
   -6.5765   -0.1847   -1.3023 C   0  0  0  0  0  0  0  0  0  0  0  0
   -8.4140   -0.6036   -3.1837 H   0  0  0  0  0  0  0  0  0  0  0  0
   -7.5269   -1.8479   -4.0622 H   0  0  0  0  0  0  0  0  0  0  0  0
   -7.1328   -0.1274   -4.3202 H   0  0  0  0  0  0  0  0  0  0  0  0
   -5.0850   -2.2588   -3.5492 H   0  0  0  0  0  0  0  0  0  0  0  0
   -3.3823   -2.3255   -1.7731 H   0  0  0  0  0  0  0  0  0  0  0  0
   -3.8315   -0.7643    1.6024 H   0  0  0  0  0  0  0  0  0  0  0  0
   -2.9969   -2.0557    0.7369 H   0  0  0  0  0  0  0  0  0  0  0  0
   -2.5605    0.8862    0.4627 H   0  0  0  0  0  0  0  0  0  0  0  0
   -1.4720    2.4512   -0.6463 H   0  0  0  0  0  0  0  0  0  0  0  0
   -0.9098    4.7465   -0.5466 H   0  0  0  0  0  0  0  0  0  0  0  0
   -0.4291    7.1035   -1.0320 H   0  0  0  0  0  0  0  0  0  0  0  0
    1.7502    7.7656   -2.0140 H   0  0  0  0  0  0  0  0  0  0  0  0
    3.4594    6.0348   -2.5103 H   0  0  0  0  0  0  0  0  0  0  0  0
    2.9954    3.6607   -2.0378 H   0  0  0  0  0  0  0  0  0  0  0  0
    1.3736   -1.5532   -0.8542 H   0  0  0  0  0  0  0  0  0  0  0  0
    2.7364   -0.5601   -1.3512 H   0  0  0  0  0  0  0  0  0  0  0  0
    2.9660    0.1931    1.1342 H   0  0  0  0  0  0  0  0  0  0  0  0
    3.4318   -2.6945    0.2134 H   0  0  0  0  0  0  0  0  0  0  0  0
    4.6361   -1.4399    0.6680 H   0  0  0  0  0  0  0  0  0  0  0  0
    5.8278   -3.3435    1.3982 H   0  0  0  0  0  0  0  0  0  0  0  0
    7.4224   -4.6263    2.7943 H   0  0  0  0  0  0  0  0  0  0  0  0
    6.8803   -5.0132    5.2011 H   0  0  0  0  0  0  0  0  0  0  0  0
    3.3215   -2.9608    4.8935 H   0  0  0  0  0  0  0  0  0  0  0  0
   -5.7665    0.3597    0.6113 H   0  0  0  0  0  0  0  0  0  0  0  0
   -7.4631    0.4289   -1.1650 H   0  0  0  0  0  0  0  0  0  0  0  0
  1  2  1  0
  2  3  2  0
  3  4  1  0
  4  5  2  0
  5  6  1  0
  6  7  1  0
  7  8  1  0
  8  9  2  0
  8 10  1  0
 10 11  2  0
 11 12  1  0
 12 13  1  0
 13 14  2  0
 14 15  1  0
 15 16  2  0
 16 17  1  0
 17 18  2  0
 12 19  2  0
 19 20  1  0
 20 21  1  0
 21 22  1  0
 22 23  1  0
 23 24  1  0
 24 25  1  0
 25 26  2  0
 26 27  1  0
 27 28  2  0
 28 29  1  0
 29 30  2  0
 24 31  2  0
 31 32  1  0
  5 33  1  0
 33 34  2  0
 34  2  1  0
 20 10  1  0
 32 22  1  0
 18 13  1  0
 30 25  1  0
  1 35  1  0
  1 36  1  0
  1 37  1  0
  3 38  1  0
  4 39  1  0
  6 40  1  0
  6 41  1  0
  7 42  1  0
 11 43  1  0
 14 44  1  0
 15 45  1  0
 16 46  1  0
 17 47  1  0
 18 48  1  0
 21 49  1  0
 21 50  1  0
 22 51  1  0
 23 52  1  0
 23 53  1  0
 26 54  1  0
 27 55  1  0
 28 56  1  0
 30 57  1  0
 33 58  1  0
 34 59  1  0
M  END
$$$$
