
     RDKit          3D

 69 71  0  0  0  0  0  0  0  0999 V2000
   -5.3757    4.6707    1.8509 C   0  0  0  0  0  0  0  0  0  0  0  0
   -3.9508    4.1451    1.7760 C   0  0  0  0  0  0  0  0  0  0  0  0
   -3.4959    3.8017    0.3543 C   0  0  0  0  0  0  0  0  0  0  0  0
   -4.1930    2.6473   -0.2204 N   0  0  0  0  0  0  0  0  0  0  0  0
   -5.3045    2.9221   -1.1358 C   0  0  0  0  0  0  0  0  0  0  0  0
   -4.8256    3.0590   -2.5816 C   0  0  0  0  0  0  0  0  0  0  0  0
   -5.9779    3.3719   -3.5220 C   0  0  0  0  0  0  0  0  0  0  0  0
   -3.7904    1.3163   -0.0677 C   0  0  0  0  0  0  0  0  0  0  0  0
   -4.3953    0.3953   -0.6231 O   0  0  0  0  0  0  0  0  0  0  0  0
   -2.5635    1.0480    0.8189 C   0  0  0  0  0  0  0  0  0  0  0  0
   -2.3103   -0.3866    0.9650 N   0  0  0  0  0  0  0  0  0  0  0  0
   -1.4527   -0.9876    0.0364 C   0  0  0  0  0  0  0  0  0  0  0  0
   -0.8463   -0.3136   -0.8029 O   0  0  0  0  0  0  0  0  0  0  0  0
   -1.2844   -2.3762    0.1173 N   0  0  0  0  0  0  0  0  0  0  0  0
   -0.3846   -3.0026   -0.8461 C   0  0  0  0  0  0  0  0  0  0  0  0
    1.0670   -2.9886   -0.3541 C   0  0  0  0  0  0  0  0  0  0  0  0
    2.0037   -3.6346   -1.3767 C   0  0  0  0  0  0  0  0  0  0  0  0
    3.4551   -3.7251   -0.8980 C   0  0  0  0  0  0  0  0  0  0  0  0
    4.1305   -2.3619   -0.7478 C   0  0  0  0  0  0  0  0  0  0  0  0
    5.6055   -2.4809   -0.3861 C   0  0  0  0  0  0  0  0  0  0  0  0
    6.1463   -3.5642   -0.1988 O   0  0  0  0  0  0  0  0  0  0  0  0
    6.2031   -1.2324   -0.2999 N   0  0  0  0  0  0  0  0  0  0  0  0
    7.5462   -0.9411    0.0181 C   0  0  0  0  0  0  0  0  0  0  0  0
    7.9193    0.4098    0.0421 C   0  0  0  0  0  0  0  0  0  0  0  0
    9.2308    0.7832    0.3493 C   0  0  0  0  0  0  0  0  0  0  0  0
   10.1836   -0.1908    0.6336 C   0  0  0  0  0  0  0  0  0  0  0  0
    9.8231   -1.5356    0.6118 C   0  0  0  0  0  0  0  0  0  0  0  0
    8.5099   -1.9095    0.3064 C   0  0  0  0  0  0  0  0  0  0  0  0
   -1.8388   -3.2008    1.1044 C   0  0  0  0  0  0  0  0  0  0  0  0
   -1.5664   -4.3970    1.1994 O   0  0  0  0  0  0  0  0  0  0  0  0
   -2.7316   -2.5073    1.9893 C   0  0  0  0  0  0  0  0  0  0  0  0
   -3.6007   -3.2778    3.2276 S   0  0  0  0  0  0  0  0  0  0  0  0
   -4.3453   -1.8044    3.6831 C   0  0  0  0  0  0  0  0  0  0  0  0
   -3.9213   -0.7495    2.9004 C   0  0  0  0  0  0  0  0  0  0  0  0
   -2.9714   -1.1613    1.9191 C   0  0  0  0  0  0  0  0  0  0  0  0
   -6.0995    3.8967    1.5801 H   0  0  0  0  0  0  0  0  0  0  0  0
   -5.6035    4.9936    2.8720 H   0  0  0  0  0  0  0  0  0  0  0  0
   -5.5156    5.5288    1.1861 H   0  0  0  0  0  0  0  0  0  0  0  0
   -3.8635    3.2745    2.4335 H   0  0  0  0  0  0  0  0  0  0  0  0
   -3.2793    4.9144    2.1753 H   0  0  0  0  0  0  0  0  0  0  0  0
   -2.4225    3.5917    0.3713 H   0  0  0  0  0  0  0  0  0  0  0  0
   -3.6287    4.6650   -0.3084 H   0  0  0  0  0  0  0  0  0  0  0  0
   -5.8126    3.8369   -0.8139 H   0  0  0  0  0  0  0  0  0  0  0  0
   -6.0370    2.1094   -1.0657 H   0  0  0  0  0  0  0  0  0  0  0  0
   -4.0752    3.8545   -2.6543 H   0  0  0  0  0  0  0  0  0  0  0  0
   -4.3348    2.1338   -2.9047 H   0  0  0  0  0  0  0  0  0  0  0  0
   -5.6130    3.4712   -4.5487 H   0  0  0  0  0  0  0  0  0  0  0  0
   -6.4671    4.3107   -3.2439 H   0  0  0  0  0  0  0  0  0  0  0  0
   -6.7281    2.5751   -3.5031 H   0  0  0  0  0  0  0  0  0  0  0  0
   -2.7043    1.4828    1.8107 H   0  0  0  0  0  0  0  0  0  0  0  0
   -1.6933    1.5276    0.3602 H   0  0  0  0  0  0  0  0  0  0  0  0
   -0.4571   -2.4759   -1.8051 H   0  0  0  0  0  0  0  0  0  0  0  0
   -0.7057   -4.0349   -1.0289 H   0  0  0  0  0  0  0  0  0  0  0  0
    1.3732   -1.9543   -0.1615 H   0  0  0  0  0  0  0  0  0  0  0  0
    1.1384   -3.5223    0.6016 H   0  0  0  0  0  0  0  0  0  0  0  0
    1.9612   -3.0789   -2.3217 H   0  0  0  0  0  0  0  0  0  0  0  0
    1.6512   -4.6512   -1.5920 H   0  0  0  0  0  0  0  0  0  0  0  0
    3.4982   -4.2696    0.0535 H   0  0  0  0  0  0  0  0  0  0  0  0
    4.0180   -4.3273   -1.6228 H   0  0  0  0  0  0  0  0  0  0  0  0
    3.6418   -1.7798    0.0411 H   0  0  0  0  0  0  0  0  0  0  0  0
    4.0519   -1.8048   -1.6889 H   0  0  0  0  0  0  0  0  0  0  0  0
    5.6112   -0.4331   -0.4890 H   0  0  0  0  0  0  0  0  0  0  0  0
    7.1973    1.1917   -0.1772 H   0  0  0  0  0  0  0  0  0  0  0  0
    9.5077    1.8338    0.3663 H   0  0  0  0  0  0  0  0  0  0  0  0
   11.2047    0.0954    0.8718 H   0  0  0  0  0  0  0  0  0  0  0  0
   10.5626   -2.3015    0.8326 H   0  0  0  0  0  0  0  0  0  0  0  0
    8.2741   -2.9691    0.3025 H   0  0  0  0  0  0  0  0  0  0  0  0
   -5.0570   -1.7838    4.4975 H   0  0  0  0  0  0  0  0  0  0  0  0
   -4.2912    0.2580    3.0396 H   0  0  0  0  0  0  0  0  0  0  0  0
  1  2  1  0
  2  3  1  0
  3  4  1  0
  4  5  1  0
  5  6  1  0
  6  7  1  0
  4  8  1  0
  8  9  2  0
  8 10  1  0
 10 11  1  0
 11 12  1  0
 12 13  2  0
 12 14  1  0
 14 15  1  0
 15 16  1  0
 16 17  1  0
 17 18  1  0
 18 19  1  0
 19 20  1  0
 20 21  2  0
 20 22  1  0
 22 23  1  0
 23 24  2  0
 24 25  1  0
 25 26  2  0
 26 27  1  0
 27 28  2  0
 14 29  1  0
 29 30  2  0
 29 31  1  0
 31 32  1  0
 32 33  1  0
 33 34  2  0
 34 35  1  0
 35 11  1  0
 28 23  1  0
 35 31  2  0
  1 36  1  0
  1 37  1  0
  1 38  1  0
  2 39  1  0
  2 40  1  0
  3 41  1  0
  3 42  1  0
  5 43  1  0
  5 44  1  0
  6 45  1  0
  6 46  1  0
  7 47  1  0
  7 48  1  0
  7 49  1  0
 10 50  1  0
 10 51  1  0
 15 52  1  0
 15 53  1  0
 16 54  1  0
 16 55  1  0
 17 56  1  0
 17 57  1  0
 18 58  1  0
 18 59  1  0
 19 60  1  0
 19 61  1  0
 22 62  1  0
 24 63  1  0
 25 64  1  0
 26 65  1  0
 27 66  1  0
 28 67  1  0
 33 68  1  0
 34 69  1  0
M  END
$$$$
