
     RDKit          3D

 51 54  0  0  0  0  0  0  0  0999 V2000
   -2.8350    3.9818    1.5146 C   0  0  0  0  0  0  0  0  0  0  0  0
   -2.2961    3.1416    0.3714 C   0  0  0  0  0  0  0  0  0  0  0  0
   -0.8699    3.2590    0.3048 O   0  0  0  0  0  0  0  0  0  0  0  0
   -0.2368    2.2070    0.9090 C   0  0  0  0  0  0  0  0  0  0  0  0
   -0.1848    0.9699    0.2609 C   0  0  0  0  0  0  0  0  0  0  0  0
    0.4769   -0.1217    0.8554 C   0  0  0  0  0  0  0  0  0  0  0  0
    0.5177   -1.4984    0.1884 C   0  0  0  0  0  0  0  0  0  0  0  0
   -0.8524   -2.1870    0.3263 C   0  0  0  0  0  0  0  0  0  0  0  0
   -0.8862   -3.0968    1.5464 C   0  0  0  0  0  0  0  0  0  0  0  0
   -0.0170   -3.0677    2.4168 O   0  0  0  0  0  0  0  0  0  0  0  0
   -2.0610   -4.0482    1.6809 C   0  0  0  0  0  0  0  0  0  0  0  0
   -3.1023   -3.8232    0.5934 C   0  0  0  0  0  0  0  0  0  0  0  0
   -2.4691   -3.8937   -0.7880 C   0  0  0  0  0  0  0  0  0  0  0  0
   -1.2794   -2.9560   -0.9117 C   0  0  0  0  0  0  0  0  0  0  0  0
   -0.7337   -2.8609   -2.0819 N   0  0  0  0  0  0  0  0  0  0  0  0
    0.3326   -2.0478   -2.2382 C   0  0  0  0  0  0  0  0  0  0  0  0
    0.9854   -1.7473   -3.3365 N   0  0  0  0  0  0  0  0  0  0  0  0
    2.0392   -0.9495   -2.9199 C   0  0  0  0  0  0  0  0  0  0  0  0
    3.0405   -0.3918   -3.8523 C   0  0  0  0  0  0  0  0  0  0  0  0
    3.0102   -0.5570   -5.0688 O   0  0  0  0  0  0  0  0  0  0  0  0
    4.0140    0.3364   -3.2175 O   0  0  0  0  0  0  0  0  0  0  0  0
    4.9927    0.8902   -4.0933 C   0  0  0  0  0  0  0  0  0  0  0  0
    2.0532   -0.7496   -1.5849 N   0  0  0  0  0  0  0  0  0  0  0  0
    0.9411   -1.4010   -1.2005 N   0  0  0  0  0  0  0  0  0  0  0  0
    1.0784    0.0596    2.1129 C   0  0  0  0  0  0  0  0  0  0  0  0
    1.0445    1.3039    2.7475 C   0  0  0  0  0  0  0  0  0  0  0  0
    0.4147    2.3840    2.1317 C   0  0  0  0  0  0  0  0  0  0  0  0
    0.4076    3.5772    2.8068 O   0  0  0  0  0  0  0  0  0  0  0  0
    1.2772    4.5135    2.1624 C   0  0  0  0  0  0  0  0  0  0  0  0
   -2.4764    5.0137    1.4387 H   0  0  0  0  0  0  0  0  0  0  0  0
   -2.4947    3.5968    2.4783 H   0  0  0  0  0  0  0  0  0  0  0  0
   -3.9294    3.9851    1.5121 H   0  0  0  0  0  0  0  0  0  0  0  0
   -2.6391    2.1014    0.4627 H   0  0  0  0  0  0  0  0  0  0  0  0
   -2.6918    3.5285   -0.5768 H   0  0  0  0  0  0  0  0  0  0  0  0
   -0.6508    0.8744   -0.7168 H   0  0  0  0  0  0  0  0  0  0  0  0
    1.3134   -2.0967    0.6530 H   0  0  0  0  0  0  0  0  0  0  0  0
   -1.6391   -1.4373    0.4910 H   0  0  0  0  0  0  0  0  0  0  0  0
   -2.5183   -3.8952    2.6640 H   0  0  0  0  0  0  0  0  0  0  0  0
   -1.6735   -5.0711    1.6274 H   0  0  0  0  0  0  0  0  0  0  0  0
   -3.8943   -4.5763    0.6769 H   0  0  0  0  0  0  0  0  0  0  0  0
   -3.5773   -2.8427    0.7350 H   0  0  0  0  0  0  0  0  0  0  0  0
   -3.2058   -3.6328   -1.5537 H   0  0  0  0  0  0  0  0  0  0  0  0
   -2.1173   -4.9105   -0.9927 H   0  0  0  0  0  0  0  0  0  0  0  0
    5.7146    1.4447   -3.4877 H   0  0  0  0  0  0  0  0  0  0  0  0
    5.5264    0.0963   -4.6251 H   0  0  0  0  0  0  0  0  0  0  0  0
    4.5275    1.5856   -4.7981 H   0  0  0  0  0  0  0  0  0  0  0  0
    1.5888   -0.7672    2.6079 H   0  0  0  0  0  0  0  0  0  0  0  0
    1.5217    1.4348    3.7155 H   0  0  0  0  0  0  0  0  0  0  0  0
    0.8704    4.8574    1.2067 H   0  0  0  0  0  0  0  0  0  0  0  0
    1.3600    5.3911    2.8175 H   0  0  0  0  0  0  0  0  0  0  0  0
    2.2829    4.0934    2.0281 H   0  0  0  0  0  0  0  0  0  0  0  0
  1  2  1  0
  2  3  1  0
  3  4  1  0
  4  5  2  0
  5  6  1  0
  6  7  1  0
  7  8  1  0
  8  9  1  0
  9 10  2  0
  9 11  1  0
 11 12  1  0
 12 13  1  0
 13 14  1  0
 14 15  2  0
 15 16  1  0
 16 17  2  0
 17 18  1  0
 18 19  1  0
 19 20  2  0
 19 21  1  0
 21 22  1  0
 18 23  2  0
 23 24  1  0
  6 25  2  0
 25 26  1  0
 26 27  2  0
 27 28  1  0
 28 29  1  0
 27  4  1  0
 24  7  1  0
 14  8  1  0
 24 16  1  0
  1 30  1  0
  1 31  1  0
  1 32  1  0
  2 33  1  0
  2 34  1  0
  5 35  1  0
  7 36  1  0
  8 37  1  0
 11 38  1  0
 11 39  1  0
 12 40  1  0
 12 41  1  0
 13 42  1  0
 13 43  1  0
 22 44  1  0
 22 45  1  0
 22 46  1  0
 25 47  1  0
 26 48  1  0
 29 49  1  0
 29 50  1  0
 29 51  1  0
M  END
$$$$
