
     RDKit          3D

 43 45  0  0  0  0  0  0  0  0999 V2000
    0.2847   -0.2054   -1.5524 N   0  0  0  0  0  0  0  0  0  0  0  0
    0.9240    0.3294   -0.7439 C   0  0  0  0  0  0  0  0  0  0  0  0
    1.7942    1.0143    0.1464 C   0  0  0  0  0  0  0  0  0  0  0  0
    1.5693    1.1550    1.4680 C   0  0  0  0  0  0  0  0  0  0  0  0
    0.4374    0.6373    2.1605 C   0  0  0  0  0  0  0  0  0  0  0  0
    0.1266    0.7619    3.5089 C   0  0  0  0  0  0  0  0  0  0  0  0
   -1.0947    0.0834    3.7412 C   0  0  0  0  0  0  0  0  0  0  0  0
   -1.4884   -0.4359    2.5280 C   0  0  0  0  0  0  0  0  0  0  0  0
   -2.6290   -1.2254    2.0680 C   0  0  0  0  0  0  0  0  0  0  0  0
   -3.6899   -1.5212    2.9400 C   0  0  0  0  0  0  0  0  0  0  0  0
   -4.7867   -2.2752    2.5096 C   0  0  0  0  0  0  0  0  0  0  0  0
   -4.8306   -2.7373    1.1933 C   0  0  0  0  0  0  0  0  0  0  0  0
   -6.2174   -3.6983    0.6490 S   0  0  0  0  0  6  0  0  0  0  0  0
   -7.2399   -2.5006    0.0514 N   0  0  0  0  0  0  0  0  0  0  0  0
   -6.8509   -4.2855    1.8053 O   0  0  0  0  0  0  0  0  0  0  0  0
   -5.8145   -4.4781   -0.4983 O   0  0  0  0  0  0  0  0  0  0  0  0
   -3.7833   -2.4702    0.3120 C   0  0  0  0  0  0  0  0  0  0  0  0
   -2.6929   -1.7127    0.7509 C   0  0  0  0  0  0  0  0  0  0  0  0
   -0.5667   -0.0999    1.5817 O   0  0  0  0  0  0  0  0  0  0  0  0
    3.0589    1.6415   -0.3895 C   0  0  0  0  0  0  0  0  0  0  0  0
    3.7961    2.2646    0.3708 O   0  0  0  0  0  0  0  0  0  0  0  0
    3.2854    1.4511   -1.7430 N   0  0  0  0  0  0  0  0  0  0  0  0
    4.3789    1.9232   -2.5059 C   0  0  0  0  0  0  0  0  0  0  0  0
    4.3881    1.5968   -3.8698 C   0  0  0  0  0  0  0  0  0  0  0  0
    5.4289    2.0206   -4.7006 C   0  0  0  0  0  0  0  0  0  0  0  0
    6.4729    2.7763   -4.1762 C   0  0  0  0  0  0  0  0  0  0  0  0
    6.4737    3.1063   -2.8235 C   0  0  0  0  0  0  0  0  0  0  0  0
    5.4316    2.6819   -1.9915 C   0  0  0  0  0  0  0  0  0  0  0  0
    2.2872    1.6991    2.0795 H   0  0  0  0  0  0  0  0  0  0  0  0
    0.7211    1.2875    4.2446 H   0  0  0  0  0  0  0  0  0  0  0  0
   -1.6150   -0.0137    4.6833 H   0  0  0  0  0  0  0  0  0  0  0  0
   -3.6763   -1.1699    3.9694 H   0  0  0  0  0  0  0  0  0  0  0  0
   -5.5936   -2.4989    3.2052 H   0  0  0  0  0  0  0  0  0  0  0  0
   -6.9238   -1.5563    0.2690 H   0  0  0  0  0  0  0  0  0  0  0  0
   -7.3567   -2.6405   -0.9539 H   0  0  0  0  0  0  0  0  0  0  0  0
   -3.7982   -2.8454   -0.7092 H   0  0  0  0  0  0  0  0  0  0  0  0
   -1.8838   -1.5125    0.0492 H   0  0  0  0  0  0  0  0  0  0  0  0
    2.6127    0.9152   -2.2803 H   0  0  0  0  0  0  0  0  0  0  0  0
    3.5866    1.0076   -4.3088 H   0  0  0  0  0  0  0  0  0  0  0  0
    5.4231    1.7600   -5.7558 H   0  0  0  0  0  0  0  0  0  0  0  0
    7.2844    3.1079   -4.8186 H   0  0  0  0  0  0  0  0  0  0  0  0
    7.2870    3.6965   -2.4083 H   0  0  0  0  0  0  0  0  0  0  0  0
    5.4793    2.9653   -0.9454 H   0  0  0  0  0  0  0  0  0  0  0  0
  1  2  3  0
  2  3  1  0
  3  4  2  3
  4  5  1  0
  5  6  2  0
  6  7  1  0
  7  8  2  0
  8  9  1  0
  9 10  2  0
 10 11  1  0
 11 12  2  0
 12 13  1  0
 13 14  1  0
 13 15  2  0
 13 16  2  0
 12 17  1  0
 17 18  2  0
  8 19  1  0
  3 20  1  0
 20 21  2  0
 20 22  1  0
 22 23  1  0
 23 24  2  0
 24 25  1  0
 25 26  2  0
 26 27  1  0
 27 28  2  0
 19  5  1  0
 28 23  1  0
 18  9  1  0
  4 29  1  0
  6 30  1  0
  7 31  1  0
 10 32  1  0
 11 33  1  0
 14 34  1  0
 14 35  1  0
 17 36  1  0
 18 37  1  0
 22 38  1  0
 24 39  1  0
 25 40  1  0
 26 41  1  0
 27 42  1  0
 28 43  1  0
M  END
$$$$
