
     RDKit          3D

 39 41  0  0  0  0  0  0  0  0999 V2000
   -4.2147    2.0796    0.4642 F   0  0  0  0  0  0  0  0  0  0  0  0
   -4.3655    0.7630    0.2591 C   0  0  0  0  0  0  0  0  0  0  0  0
   -5.5224    0.1448    0.7269 C   0  0  0  0  0  0  0  0  0  0  0  0
   -5.7131   -1.2188    0.5127 C   0  0  0  0  0  0  0  0  0  0  0  0
   -4.7455   -1.9554   -0.1703 C   0  0  0  0  0  0  0  0  0  0  0  0
   -3.5864   -1.3300   -0.6380 C   0  0  0  0  0  0  0  0  0  0  0  0
   -3.3826    0.0424   -0.4263 C   0  0  0  0  0  0  0  0  0  0  0  0
   -2.1295    0.7295   -0.9143 C   0  0  0  0  0  0  0  0  0  0  0  0
   -1.1263    0.9384    0.1400 N   0  0  0  0  0  0  0  0  0  0  0  0
   -0.5830   -0.3374    0.6565 C   0  0  0  0  0  0  0  0  0  0  0  0
    0.8412   -0.2312    1.2502 C   0  0  0  0  0  0  0  0  0  0  0  0
    1.7906    0.2260    0.2214 N   0  0  0  0  0  0  0  0  0  0  0  0
    3.1498   -0.0205    0.3145 C   0  0  0  0  0  0  0  0  0  0  0  0
    3.7522   -0.4401    1.5128 C   0  0  0  0  0  0  0  0  0  0  0  0
    5.1271   -0.6951    1.6047 C   0  0  0  0  0  0  0  0  0  0  0  0
    5.9342   -0.5384    0.4862 C   0  0  0  0  0  0  0  0  0  0  0  0
    7.6216   -0.8510    0.5911 Cl  0  0  0  0  0  0  0  0  0  0  0  0
    5.3763   -0.1308   -0.7177 C   0  0  0  0  0  0  0  0  0  0  0  0
    4.0005    0.1225   -0.7960 C   0  0  0  0  0  0  0  0  0  0  0  0
    1.2498    1.1403   -0.8000 C   0  0  0  0  0  0  0  0  0  0  0  0
   -0.0414    1.8364   -0.3084 C   0  0  0  0  0  0  0  0  0  0  0  0
   -6.2663    0.7332    1.2544 H   0  0  0  0  0  0  0  0  0  0  0  0
   -6.6139   -1.7062    0.8766 H   0  0  0  0  0  0  0  0  0  0  0  0
   -4.8929   -3.0197   -0.3382 H   0  0  0  0  0  0  0  0  0  0  0  0
   -2.8410   -1.9204   -1.1661 H   0  0  0  0  0  0  0  0  0  0  0  0
   -1.7004    0.1745   -1.7597 H   0  0  0  0  0  0  0  0  0  0  0  0
   -2.4410    1.6980   -1.3290 H   0  0  0  0  0  0  0  0  0  0  0  0
   -0.5413   -1.0866   -0.1460 H   0  0  0  0  0  0  0  0  0  0  0  0
   -1.2568   -0.7226    1.4303 H   0  0  0  0  0  0  0  0  0  0  0  0
    1.1169   -1.2280    1.6150 H   0  0  0  0  0  0  0  0  0  0  0  0
    0.8484    0.4600    2.1017 H   0  0  0  0  0  0  0  0  0  0  0  0
    3.1620   -0.5569    2.4175 H   0  0  0  0  0  0  0  0  0  0  0  0
    5.5524   -1.0104    2.5532 H   0  0  0  0  0  0  0  0  0  0  0  0
    5.9958   -0.0118   -1.6019 H   0  0  0  0  0  0  0  0  0  0  0  0
    3.5988    0.4145   -1.7626 H   0  0  0  0  0  0  0  0  0  0  0  0
    1.9721    1.9300   -1.0402 H   0  0  0  0  0  0  0  0  0  0  0  0
    1.0426    0.5766   -1.7175 H   0  0  0  0  0  0  0  0  0  0  0  0
   -0.3921    2.5380   -1.0754 H   0  0  0  0  0  0  0  0  0  0  0  0
    0.2240    2.4632    0.5537 H   0  0  0  0  0  0  0  0  0  0  0  0
  1  2  1  0
  2  3  2  0
  3  4  1  0
  4  5  2  0
  5  6  1  0
  6  7  2  0
  7  8  1  0
  8  9  1  0
  9 10  1  0
 10 11  1  0
 11 12  1  0
 12 13  1  0
 13 14  2  0
 14 15  1  0
 15 16  2  0
 16 17  1  0
 16 18  1  0
 18 19  2  0
 12 20  1  0
 20 21  1  0
  7  2  1  0
 21  9  1  0
 19 13  1  0
  3 22  1  0
  4 23  1  0
  5 24  1  0
  6 25  1  0
  8 26  1  0
  8 27  1  0
 10 28  1  0
 10 29  1  0
 11 30  1  0
 11 31  1  0
 14 32  1  0
 15 33  1  0
 18 34  1  0
 19 35  1  0
 20 36  1  0
 20 37  1  0
 21 38  1  0
 21 39  1  0
M  END
$$$$
