
     RDKit          3D

 43 45  0  0  0  0  0  0  0  0999 V2000
    5.2241   -3.1123    0.2921 C   0  0  0  0  0  0  0  0  0  0  0  0
    3.9845   -2.4170    0.3428 O   0  0  0  0  0  0  0  0  0  0  0  0
    4.0190   -1.0683    0.1050 C   0  0  0  0  0  0  0  0  0  0  0  0
    5.1539   -0.3217   -0.1928 C   0  0  0  0  0  0  0  0  0  0  0  0
    5.0678    1.0567   -0.4138 C   0  0  0  0  0  0  0  0  0  0  0  0
    3.8077    1.6607   -0.3300 C   0  0  0  0  0  0  0  0  0  0  0  0
    3.4611    2.9795   -0.4944 N   0  0  0  0  0  0  0  0  0  0  0  0
    2.1177    3.1339   -0.3224 C   0  0  0  0  0  0  0  0  0  0  0  0
    1.5518    1.8988   -0.0443 C   0  0  0  0  0  0  0  0  0  0  0  0
    0.1052    1.7336    0.1856 C   0  0  0  0  0  0  0  0  0  0  0  0
   -0.6186    2.7306    0.2403 O   0  0  0  0  0  0  0  0  0  0  0  0
   -0.4432    0.3068    0.3509 C   0  0  0  0  0  0  0  0  0  0  0  0
   -1.9203    0.2441    0.4234 N   0  0  0  0  0  0  0  0  0  0  0  0
   -2.5632    0.5361   -0.8586 C   0  0  0  0  0  0  0  0  0  0  0  0
   -4.0714    0.7438   -0.6601 C   0  0  0  0  0  0  0  0  0  0  0  0
   -4.6695   -0.1546    0.4377 C   0  0  0  0  0  0  0  0  0  0  0  0
   -6.1245   -0.5023    0.1371 C   0  0  0  0  0  0  0  0  0  0  0  0
   -3.8147   -1.4102    0.6134 C   0  0  0  0  0  0  0  0  0  0  0  0
   -2.3607   -1.0534    0.9598 C   0  0  0  0  0  0  0  0  0  0  0  0
    2.6374    0.9515   -0.0406 C   0  0  0  0  0  0  0  0  0  0  0  0
    2.7667   -0.4389    0.1831 C   0  0  0  0  0  0  0  0  0  0  0  0
    5.6677   -3.0554   -0.7074 H   0  0  0  0  0  0  0  0  0  0  0  0
    5.9165   -2.7415    1.0551 H   0  0  0  0  0  0  0  0  0  0  0  0
    5.0248   -4.1664    0.5080 H   0  0  0  0  0  0  0  0  0  0  0  0
    6.1354   -0.7799   -0.2602 H   0  0  0  0  0  0  0  0  0  0  0  0
    5.9579    1.6354   -0.6414 H   0  0  0  0  0  0  0  0  0  0  0  0
    4.1111    3.7242   -0.7070 H   0  0  0  0  0  0  0  0  0  0  0  0
    1.6553    4.1096   -0.4107 H   0  0  0  0  0  0  0  0  0  0  0  0
   -0.0882   -0.3154   -0.4782 H   0  0  0  0  0  0  0  0  0  0  0  0
   -0.0283   -0.0674    1.2947 H   0  0  0  0  0  0  0  0  0  0  0  0
   -2.3869   -0.2809   -1.5712 H   0  0  0  0  0  0  0  0  0  0  0  0
   -2.1612    1.4420   -1.3252 H   0  0  0  0  0  0  0  0  0  0  0  0
   -4.5707    0.5710   -1.6216 H   0  0  0  0  0  0  0  0  0  0  0  0
   -4.2673    1.7906   -0.3943 H   0  0  0  0  0  0  0  0  0  0  0  0
   -4.6513    0.4034    1.3841 H   0  0  0  0  0  0  0  0  0  0  0  0
   -6.2130   -1.0810   -0.7886 H   0  0  0  0  0  0  0  0  0  0  0  0
   -6.5566   -1.0967    0.9490 H   0  0  0  0  0  0  0  0  0  0  0  0
   -6.7256    0.4066    0.0289 H   0  0  0  0  0  0  0  0  0  0  0  0
   -3.8326   -1.9955   -0.3156 H   0  0  0  0  0  0  0  0  0  0  0  0
   -4.2287   -2.0528    1.3994 H   0  0  0  0  0  0  0  0  0  0  0  0
   -1.7219   -1.8714    0.6013 H   0  0  0  0  0  0  0  0  0  0  0  0
   -2.2538   -1.0216    2.0509 H   0  0  0  0  0  0  0  0  0  0  0  0
    1.9069   -1.0544    0.4250 H   0  0  0  0  0  0  0  0  0  0  0  0
  1  2  1  0
  2  3  1  0
  3  4  2  0
  4  5  1  0
  5  6  2  0
  6  7  1  0
  7  8  1  0
  8  9  2  0
  9 10  1  0
 10 11  2  0
 10 12  1  0
 12 13  1  0
 13 14  1  0
 14 15  1  0
 15 16  1  0
 16 17  1  0
 16 18  1  0
 18 19  1  0
  9 20  1  0
 20 21  2  0
 21  3  1  0
 20  6  1  0
 19 13  1  0
  1 22  1  0
  1 23  1  0
  1 24  1  0
  4 25  1  0
  5 26  1  0
  7 27  1  0
  8 28  1  0
 12 29  1  0
 12 30  1  0
 14 31  1  0
 14 32  1  0
 15 33  1  0
 15 34  1  0
 16 35  1  0
 17 36  1  0
 17 37  1  0
 17 38  1  0
 18 39  1  0
 18 40  1  0
 19 41  1  0
 19 42  1  0
 21 43  1  0
M  END
$$$$
