
     RDKit          3D

 46 48  0  0  0  0  0  0  0  0999 V2000
    5.7908   -0.9881    1.3459 C   0  0  0  0  0  0  0  0  0  0  0  0
    5.4230    0.0711    0.4710 O   0  0  0  0  0  0  0  0  0  0  0  0
    4.1495    0.0471   -0.0254 C   0  0  0  0  0  0  0  0  0  0  0  0
    3.1874   -0.9268    0.2265 C   0  0  0  0  0  0  0  0  0  0  0  0
    1.9156   -0.8242   -0.3498 C   0  0  0  0  0  0  0  0  0  0  0  0
    1.5718    0.2588   -1.1809 C   0  0  0  0  0  0  0  0  0  0  0  0
    0.1761    0.3162   -1.7985 C   0  0  0  0  0  0  0  0  0  0  0  0
   -0.1234    1.4727   -2.7601 C   0  0  0  0  0  0  0  0  0  0  0  0
   -0.9060    0.1898   -0.7877 N   0  0  0  0  0  0  0  0  0  0  0  0
   -1.0312    0.9288    0.3918 C   0  0  0  0  0  0  0  0  0  0  0  0
   -0.1469    2.0772    0.7481 C   0  0  0  0  0  0  0  0  0  0  0  0
   -2.0600    0.3482    1.1116 C   0  0  0  0  0  0  0  0  0  0  0  0
   -2.5022    0.6821    2.4083 C   0  0  0  0  0  0  0  0  0  0  0  0
   -2.0021    1.7116    3.3585 C   0  0  0  0  0  0  0  0  0  0  0  0
   -3.5595   -0.0980    2.7977 N   0  0  0  0  0  0  0  0  0  0  0  0
   -4.1519   -1.1571    1.9772 N   0  0  0  0  0  0  0  0  0  0  0  0
   -3.7207   -1.4956    0.7212 C   0  0  0  0  0  0  0  0  0  0  0  0
   -4.4175   -2.6057    0.0180 C   0  0  0  0  0  0  0  0  0  0  0  0
   -2.6402   -0.6893    0.3077 C   0  0  0  0  0  0  0  0  0  0  0  0
   -1.9609   -0.7267   -0.8954 C   0  0  0  0  0  0  0  0  0  0  0  0
   -2.1879   -1.5546   -2.1173 C   0  0  0  0  0  0  0  0  0  0  0  0
    2.5567    1.2232   -1.4364 C   0  0  0  0  0  0  0  0  0  0  0  0
    3.8272    1.1170   -0.8605 C   0  0  0  0  0  0  0  0  0  0  0  0
    5.7536   -1.9546    0.8325 H   0  0  0  0  0  0  0  0  0  0  0  0
    5.1660   -0.9930    2.2452 H   0  0  0  0  0  0  0  0  0  0  0  0
    6.8250   -0.8180    1.6603 H   0  0  0  0  0  0  0  0  0  0  0  0
    3.3883   -1.7795    0.8664 H   0  0  0  0  0  0  0  0  0  0  0  0
    1.1833   -1.6013   -0.1325 H   0  0  0  0  0  0  0  0  0  0  0  0
    0.1322   -0.5974   -2.4043 H   0  0  0  0  0  0  0  0  0  0  0  0
   -0.0630    2.4502   -2.2730 H   0  0  0  0  0  0  0  0  0  0  0  0
   -1.1327    1.3830   -3.1776 H   0  0  0  0  0  0  0  0  0  0  0  0
    0.5800    1.4739   -3.6001 H   0  0  0  0  0  0  0  0  0  0  0  0
   -0.7201    2.8711    1.2349 H   0  0  0  0  0  0  0  0  0  0  0  0
    0.6429    1.7513    1.4320 H   0  0  0  0  0  0  0  0  0  0  0  0
    0.3184    2.5457   -0.1191 H   0  0  0  0  0  0  0  0  0  0  0  0
   -2.4643    1.5860    4.3430 H   0  0  0  0  0  0  0  0  0  0  0  0
   -0.9196    1.6257    3.4873 H   0  0  0  0  0  0  0  0  0  0  0  0
   -2.2489    2.7134    2.9960 H   0  0  0  0  0  0  0  0  0  0  0  0
   -5.0186   -2.2126   -0.8066 H   0  0  0  0  0  0  0  0  0  0  0  0
   -3.6965   -3.3320   -0.3675 H   0  0  0  0  0  0  0  0  0  0  0  0
   -5.0896   -3.1350    0.7016 H   0  0  0  0  0  0  0  0  0  0  0  0
   -1.6087   -2.4814   -2.0602 H   0  0  0  0  0  0  0  0  0  0  0  0
   -3.2424   -1.8106   -2.2408 H   0  0  0  0  0  0  0  0  0  0  0  0
   -1.9087   -1.0210   -3.0306 H   0  0  0  0  0  0  0  0  0  0  0  0
    2.3607    2.0783   -2.0779 H   0  0  0  0  0  0  0  0  0  0  0  0
    4.5752    1.8797   -1.0658 H   0  0  0  0  0  0  0  0  0  0  0  0
  1  2  1  0
  2  3  1  0
  3  4  2  0
  4  5  1  0
  5  6  2  0
  6  7  1  0
  7  8  1  0
  7  9  1  0
  9 10  1  0
 10 11  1  0
 10 12  2  0
 12 13  1  0
 13 14  1  0
 13 15  2  0
 15 16  1  0
 16 17  2  0
 17 18  1  0
 17 19  1  0
 19 20  2  0
 20 21  1  0
  6 22  1  0
 22 23  2  0
 23  3  1  0
 20  9  1  0
 19 12  1  0
  1 24  1  0
  1 25  1  0
  1 26  1  0
  4 27  1  0
  5 28  1  0
  7 29  1  0
  8 30  1  0
  8 31  1  0
  8 32  1  0
 11 33  1  0
 11 34  1  0
 11 35  1  0
 14 36  1  0
 14 37  1  0
 14 38  1  0
 18 39  1  0
 18 40  1  0
 18 41  1  0
 21 42  1  0
 21 43  1  0
 21 44  1  0
 22 45  1  0
 23 46  1  0
M  END
$$$$
