
     RDKit          3D

 46 48  0  0  0  0  0  0  0  0999 V2000
    5.7716    0.6581   -2.5911 C   0  0  0  0  0  0  0  0  0  0  0  0
    4.7730    1.4440   -1.9535 O   0  0  0  0  0  0  0  0  0  0  0  0
    3.8427    0.7763   -1.2070 C   0  0  0  0  0  0  0  0  0  0  0  0
    3.7943   -0.5992   -0.9915 C   0  0  0  0  0  0  0  0  0  0  0  0
    2.7800   -1.1584   -0.2015 C   0  0  0  0  0  0  0  0  0  0  0  0
    1.7879   -0.3551    0.3821 C   0  0  0  0  0  0  0  0  0  0  0  0
    0.6790   -0.9191    1.2680 C   0  0  0  0  0  0  0  0  0  0  0  0
    0.6925   -2.4283    1.5407 C   0  0  0  0  0  0  0  0  0  0  0  0
   -0.6766   -0.4824    0.8436 N   0  0  0  0  0  0  0  0  0  0  0  0
   -1.6111    0.0927    1.7158 C   0  0  0  0  0  0  0  0  0  0  0  0
   -1.3886    0.1792    3.1897 C   0  0  0  0  0  0  0  0  0  0  0  0
   -2.6604    0.5364    0.9334 C   0  0  0  0  0  0  0  0  0  0  0  0
   -3.7986    1.2650    1.3365 C   0  0  0  0  0  0  0  0  0  0  0  0
   -4.1862    1.7817    2.6762 C   0  0  0  0  0  0  0  0  0  0  0  0
   -4.6430    1.5067    0.2842 N   0  0  0  0  0  0  0  0  0  0  0  0
   -4.3912    1.0780   -1.0935 N   0  0  0  0  0  0  0  0  0  0  0  0
   -3.2805    0.3837   -1.4966 C   0  0  0  0  0  0  0  0  0  0  0  0
   -3.1569    0.0321   -2.9367 C   0  0  0  0  0  0  0  0  0  0  0  0
   -2.4133    0.1177   -0.4168 C   0  0  0  0  0  0  0  0  0  0  0  0
   -1.2118   -0.5676   -0.4445 C   0  0  0  0  0  0  0  0  0  0  0  0
   -0.5258   -1.2433   -1.5848 C   0  0  0  0  0  0  0  0  0  0  0  0
    1.8596    1.0326    0.1666 C   0  0  0  0  0  0  0  0  0  0  0  0
    2.8713    1.5870   -0.6218 C   0  0  0  0  0  0  0  0  0  0  0  0
    5.3268   -0.0449   -3.3033 H   0  0  0  0  0  0  0  0  0  0  0  0
    6.3924    0.1367   -1.8552 H   0  0  0  0  0  0  0  0  0  0  0  0
    6.4210    1.3353   -3.1540 H   0  0  0  0  0  0  0  0  0  0  0  0
    4.5312   -1.2695   -1.4217 H   0  0  0  0  0  0  0  0  0  0  0  0
    2.7841   -2.2368   -0.0622 H   0  0  0  0  0  0  0  0  0  0  0  0
    0.8624   -0.4379    2.2368 H   0  0  0  0  0  0  0  0  0  0  0  0
   -0.1152   -2.7088    2.2262 H   0  0  0  0  0  0  0  0  0  0  0  0
    1.6370   -2.7325    2.0051 H   0  0  0  0  0  0  0  0  0  0  0  0
    0.5620   -3.0208    0.6306 H   0  0  0  0  0  0  0  0  0  0  0  0
   -0.8188    1.0806    3.4353 H   0  0  0  0  0  0  0  0  0  0  0  0
   -2.3313    0.2030    3.7406 H   0  0  0  0  0  0  0  0  0  0  0  0
   -0.8494   -0.6930    3.5717 H   0  0  0  0  0  0  0  0  0  0  0  0
   -5.0266    2.4786    2.5933 H   0  0  0  0  0  0  0  0  0  0  0  0
   -4.4946    0.9572    3.3249 H   0  0  0  0  0  0  0  0  0  0  0  0
   -3.3542    2.3202    3.1384 H   0  0  0  0  0  0  0  0  0  0  0  0
   -3.9385    0.5257   -3.5235 H   0  0  0  0  0  0  0  0  0  0  0  0
   -2.1902    0.3570   -3.3317 H   0  0  0  0  0  0  0  0  0  0  0  0
   -3.2644   -1.0474   -3.0745 H   0  0  0  0  0  0  0  0  0  0  0  0
   -1.2451   -1.7928   -2.1985 H   0  0  0  0  0  0  0  0  0  0  0  0
    0.2086   -1.9832   -1.2672 H   0  0  0  0  0  0  0  0  0  0  0  0
   -0.0227   -0.5052   -2.2173 H   0  0  0  0  0  0  0  0  0  0  0  0
    1.1178    1.6986    0.6050 H   0  0  0  0  0  0  0  0  0  0  0  0
    2.8995    2.6623   -0.7813 H   0  0  0  0  0  0  0  0  0  0  0  0
  1  2  1  0
  2  3  1  0
  3  4  2  0
  4  5  1  0
  5  6  2  0
  6  7  1  0
  7  8  1  0
  7  9  1  0
  9 10  1  0
 10 11  1  0
 10 12  2  0
 12 13  1  0
 13 14  1  0
 13 15  2  0
 15 16  1  0
 16 17  2  0
 17 18  1  0
 17 19  1  0
 19 20  2  0
 20 21  1  0
  6 22  1  0
 22 23  2  0
 23  3  1  0
 20  9  1  0
 19 12  1  0
  1 24  1  0
  1 25  1  0
  1 26  1  0
  4 27  1  0
  5 28  1  0
  7 29  1  0
  8 30  1  0
  8 31  1  0
  8 32  1  0
 11 33  1  0
 11 34  1  0
 11 35  1  0
 14 36  1  0
 14 37  1  0
 14 38  1  0
 18 39  1  0
 18 40  1  0
 18 41  1  0
 21 42  1  0
 21 43  1  0
 21 44  1  0
 22 45  1  0
 23 46  1  0
M  END
$$$$
