
     RDKit          3D

 39 41  0  0  0  0  0  0  0  0999 V2000
    3.7033   -1.2359    2.0176 O   0  0  0  0  0  0  0  0  0  0  0  0
    3.9652   -0.7468    0.9240 C   0  0  0  0  0  0  0  0  0  0  0  0
    3.0833   -0.0469    0.1203 N   0  0  0  0  0  0  0  0  0  0  0  0
    1.7303    0.2553    0.3607 C   0  0  0  0  0  0  0  0  0  0  0  0
    1.0355   -0.1263    1.5086 C   0  0  0  0  0  0  0  0  0  0  0  0
   -0.3132    0.2142    1.6700 C   0  0  0  0  0  0  0  0  0  0  0  0
   -0.9908    0.9415    0.6843 C   0  0  0  0  0  0  0  0  0  0  0  0
   -2.4473    1.3163    0.8611 C   0  0  0  0  0  0  0  0  0  0  0  0
   -3.3185    0.7790   -0.1959 N   0  0  0  0  0  0  0  0  0  0  0  0
   -4.6897    1.3242   -0.1017 C   0  0  0  0  0  0  0  0  0  0  0  0
   -5.6835    0.3712    0.5802 C   0  0  0  0  0  0  0  0  0  0  0  0
   -5.8092   -0.8882   -0.0931 O   0  0  0  0  0  0  0  0  0  0  0  0
   -4.6261   -1.2608   -0.8146 C   0  0  0  0  0  0  0  0  0  0  0  0
   -3.3453   -0.7027   -0.1768 C   0  0  0  0  0  0  0  0  0  0  0  0
   -0.2905    1.3258   -0.4656 C   0  0  0  0  0  0  0  0  0  0  0  0
    1.0556    0.9844   -0.6254 C   0  0  0  0  0  0  0  0  0  0  0  0
    5.2883   -0.8572    0.3336 C   0  0  0  0  0  0  0  0  0  0  0  0
    6.4419   -1.4639    0.7939 C   0  0  0  0  0  0  0  0  0  0  0  0
    7.4335   -1.2600   -0.1962 C   0  0  0  0  0  0  0  0  0  0  0  0
    6.8295   -0.5419   -1.2018 C   0  0  0  0  0  0  0  0  0  0  0  0
    7.6759    0.0298   -2.8062 Br  0  0  0  0  0  0  0  0  0  0  0  0
    5.5290   -0.2912   -0.8929 O   0  0  0  0  0  0  0  0  0  0  0  0
    3.4778    0.2849   -0.7535 H   0  0  0  0  0  0  0  0  0  0  0  0
    1.5112   -0.6924    2.3032 H   0  0  0  0  0  0  0  0  0  0  0  0
   -0.8276   -0.0993    2.5758 H   0  0  0  0  0  0  0  0  0  0  0  0
   -2.8052    1.0074    1.8522 H   0  0  0  0  0  0  0  0  0  0  0  0
   -2.4859    2.4140    0.8503 H   0  0  0  0  0  0  0  0  0  0  0  0
   -5.0324    1.4986   -1.1296 H   0  0  0  0  0  0  0  0  0  0  0  0
   -4.7054    2.3021    0.3937 H   0  0  0  0  0  0  0  0  0  0  0  0
   -6.6791    0.8256    0.6099 H   0  0  0  0  0  0  0  0  0  0  0  0
   -5.3849    0.1758    1.6167 H   0  0  0  0  0  0  0  0  0  0  0  0
   -4.5892   -2.3547   -0.8380 H   0  0  0  0  0  0  0  0  0  0  0  0
   -4.7313   -0.9170   -1.8504 H   0  0  0  0  0  0  0  0  0  0  0  0
   -2.4755   -1.0888   -0.7193 H   0  0  0  0  0  0  0  0  0  0  0  0
   -3.2955   -1.0744    0.8553 H   0  0  0  0  0  0  0  0  0  0  0  0
   -0.7995    1.8863   -1.2474 H   0  0  0  0  0  0  0  0  0  0  0  0
    1.5637    1.2968   -1.5340 H   0  0  0  0  0  0  0  0  0  0  0  0
    6.5407   -1.9883    1.7354 H   0  0  0  0  0  0  0  0  0  0  0  0
    8.4608   -1.5963   -0.1761 H   0  0  0  0  0  0  0  0  0  0  0  0
  1  2  2  0
  2  3  1  0
  3  4  1  0
  4  5  2  0
  5  6  1  0
  6  7  2  0
  7  8  1  0
  8  9  1  0
  9 10  1  0
 10 11  1  0
 11 12  1  0
 12 13  1  0
 13 14  1  0
  7 15  1  0
 15 16  2  0
  2 17  1  0
 17 18  2  0
 18 19  1  0
 19 20  2  0
 20 21  1  0
 20 22  1  0
 16  4  1  0
 22 17  1  0
 14  9  1  0
  3 23  1  0
  5 24  1  0
  6 25  1  0
  8 26  1  0
  8 27  1  0
 10 28  1  0
 10 29  1  0
 11 30  1  0
 11 31  1  0
 13 32  1  0
 13 33  1  0
 14 34  1  0
 14 35  1  0
 15 36  1  0
 16 37  1  0
 18 38  1  0
 19 39  1  0
M  END
$$$$
