
     RDKit          3D

 55 58  0  0  0  0  0  0  0  0999 V2000
    5.5776   -4.4272    3.4947 N   0  0  0  0  0  0  0  0  0  0  0  0
    5.4782   -3.2615    2.7824 C   0  0  0  0  0  0  0  0  0  0  0  0
    6.3637   -2.4115    2.8414 O   0  0  0  0  0  0  0  0  0  0  0  0
    4.2625   -3.1368    1.9601 C   0  0  0  0  0  0  0  0  0  0  0  0
    3.3969   -4.1632    1.8999 N   0  0  0  0  0  0  0  0  0  0  0  0
    2.1599   -3.7669    0.8755 S   0  0  0  0  0  0  0  0  0  0  0  0
    2.6990   -2.1891    0.5146 C   0  0  0  0  0  0  0  0  0  0  0  0
    1.9976   -1.3291   -0.4216 C   0  0  0  0  0  0  0  0  0  0  0  0
    2.6188   -0.7279   -1.3038 O   0  0  0  0  0  0  0  0  0  0  0  0
    0.5888   -1.2221   -0.3370 N   0  0  0  0  0  0  0  0  0  0  0  0
   -0.0760   -1.3010    0.9269 C   0  0  0  0  0  0  0  0  0  0  0  0
    0.4119   -0.6154    2.0469 C   0  0  0  0  0  0  0  0  0  0  0  0
   -0.2306   -0.7305    3.2811 C   0  0  0  0  0  0  0  0  0  0  0  0
   -1.3585   -1.5382    3.4088 C   0  0  0  0  0  0  0  0  0  0  0  0
   -1.8438   -2.2340    2.3036 C   0  0  0  0  0  0  0  0  0  0  0  0
   -1.2030   -2.1191    1.0682 C   0  0  0  0  0  0  0  0  0  0  0  0
   -0.0112   -0.3846   -1.3982 C   0  0  0  0  0  0  0  0  0  0  0  0
    0.2044    1.1421   -1.1845 C   0  0  0  0  0  0  0  0  0  0  0  0
    0.5599    1.6441   -0.1188 O   0  0  0  0  0  0  0  0  0  0  0  0
   -0.0534    1.9156   -2.3085 N   0  0  0  0  0  0  0  0  0  0  0  0
   -0.0945    3.3576   -2.2357 C   0  0  0  0  0  0  0  0  0  0  0  0
   -1.5012    3.8280   -1.9600 C   0  0  0  0  0  0  0  0  0  0  0  0
   -2.3876    4.0913   -3.0164 C   0  0  0  0  0  0  0  0  0  0  0  0
   -3.7001    4.4861   -2.7523 C   0  0  0  0  0  0  0  0  0  0  0  0
   -4.1283    4.6107   -1.4359 C   0  0  0  0  0  0  0  0  0  0  0  0
   -5.3900    4.9847   -1.1860 F   0  0  0  0  0  0  0  0  0  0  0  0
   -3.2696    4.3476   -0.3761 C   0  0  0  0  0  0  0  0  0  0  0  0
   -1.9570    3.9535   -0.6372 C   0  0  0  0  0  0  0  0  0  0  0  0
   -1.4713   -0.6405   -1.6332 C   0  0  0  0  0  0  0  0  0  0  0  0
   -2.6411   -0.0648   -1.1702 C   0  0  0  0  0  0  0  0  0  0  0  0
   -3.7058   -0.7491   -1.8027 C   0  0  0  0  0  0  0  0  0  0  0  0
   -3.1259   -1.6960   -2.6122 C   0  0  0  0  0  0  0  0  0  0  0  0
   -1.7730   -1.6369   -2.5205 O   0  0  0  0  0  0  0  0  0  0  0  0
    3.9003   -1.9853    1.1643 C   0  0  0  0  0  0  0  0  0  0  0  0
    4.6253   -0.8423    1.0715 N   0  0  0  0  0  0  0  0  0  0  0  0
    6.3979   -4.5980    4.0550 H   0  0  0  0  0  0  0  0  0  0  0  0
    4.8536   -5.1296    3.4010 H   0  0  0  0  0  0  0  0  0  0  0  0
    1.2786    0.0382    1.9681 H   0  0  0  0  0  0  0  0  0  0  0  0
    0.1505   -0.1854    4.1410 H   0  0  0  0  0  0  0  0  0  0  0  0
   -1.8562   -1.6284    4.3710 H   0  0  0  0  0  0  0  0  0  0  0  0
   -2.7168   -2.8736    2.4041 H   0  0  0  0  0  0  0  0  0  0  0  0
   -1.5778   -2.6976    0.2275 H   0  0  0  0  0  0  0  0  0  0  0  0
    0.5062   -0.6326   -2.3367 H   0  0  0  0  0  0  0  0  0  0  0  0
   -0.5129    1.4793   -3.0979 H   0  0  0  0  0  0  0  0  0  0  0  0
    0.2542    3.7464   -3.1986 H   0  0  0  0  0  0  0  0  0  0  0  0
    0.5933    3.7266   -1.4667 H   0  0  0  0  0  0  0  0  0  0  0  0
   -2.0613    3.9897   -4.0491 H   0  0  0  0  0  0  0  0  0  0  0  0
   -4.3913    4.6949   -3.5626 H   0  0  0  0  0  0  0  0  0  0  0  0
   -3.6257    4.4467    0.6442 H   0  0  0  0  0  0  0  0  0  0  0  0
   -1.2881    3.7345    0.1947 H   0  0  0  0  0  0  0  0  0  0  0  0
   -2.7141    0.7474   -0.4580 H   0  0  0  0  0  0  0  0  0  0  0  0
   -4.7658   -0.5741   -1.6815 H   0  0  0  0  0  0  0  0  0  0  0  0
   -3.5169   -2.4495   -3.2820 H   0  0  0  0  0  0  0  0  0  0  0  0
    4.4897   -0.2041    0.2865 H   0  0  0  0  0  0  0  0  0  0  0  0
    5.5798   -0.8194    1.4399 H   0  0  0  0  0  0  0  0  0  0  0  0
  1  2  1  0
  2  3  2  0
  2  4  1  0
  4  5  2  0
  5  6  1  0
  6  7  1  0
  7  8  1  0
  8  9  2  0
  8 10  1  0
 10 11  1  0
 11 12  2  0
 12 13  1  0
 13 14  2  0
 14 15  1  0
 15 16  2  0
 10 17  1  0
 17 18  1  0
 18 19  2  0
 18 20  1  0
 20 21  1  0
 21 22  1  0
 22 23  2  0
 23 24  1  0
 24 25  2  0
 25 26  1  0
 25 27  1  0
 27 28  2  0
 17 29  1  0
 29 30  2  0
 30 31  1  0
 31 32  2  0
 32 33  1  0
  7 34  2  0
 34 35  1  0
 34  4  1  0
 16 11  1  0
 28 22  1  0
 33 29  1  0
  1 36  1  0
  1 37  1  0
 12 38  1  0
 13 39  1  0
 14 40  1  0
 15 41  1  0
 16 42  1  0
 17 43  1  0
 20 44  1  0
 21 45  1  0
 21 46  1  0
 23 47  1  0
 24 48  1  0
 27 49  1  0
 28 50  1  0
 30 51  1  0
 31 52  1  0
 32 53  1  0
 35 54  1  0
 35 55  1  0
M  END
$$$$
