
     RDKit          3D

 49 51  0  0  0  0  0  0  0  0999 V2000
    9.3951   -1.7942    1.2144 N   0  0  0  0  0  0  0  0  0  0  0  0
    8.2389   -1.7517    1.1154 C   0  0  0  0  0  0  0  0  0  0  0  0
    6.8108   -1.7243    1.0002 C   0  0  0  0  0  0  0  0  0  0  0  0
    6.2700   -0.5376    0.6114 N   0  0  0  0  0  0  0  0  0  0  0  0
    4.9151   -0.5127    0.5033 C   0  0  0  0  0  0  0  0  0  0  0  0
    4.0992   -1.6118    0.7712 C   0  0  0  0  0  0  0  0  0  0  0  0
    2.6264   -1.5910    0.6609 C   0  0  0  0  0  0  0  0  0  0  0  0
    1.9116   -2.7762    0.4005 C   0  0  0  0  0  0  0  0  0  0  0  0
    0.5166   -2.7851    0.3132 C   0  0  0  0  0  0  0  0  0  0  0  0
   -0.1973   -1.5995    0.4597 C   0  0  0  0  0  0  0  0  0  0  0  0
    0.4783   -0.4052    0.7183 C   0  0  0  0  0  0  0  0  0  0  0  0
    1.8760   -0.4104    0.8365 C   0  0  0  0  0  0  0  0  0  0  0  0
   -0.2391    0.7401    0.9598 O   0  0  0  0  0  0  0  0  0  0  0  0
    0.0746    1.7850    0.0259 C   0  0  0  0  0  0  0  0  0  0  0  0
   -0.8485    2.9831    0.2584 C   0  0  0  0  0  0  0  0  0  0  0  0
   -2.1943    2.6509   -0.0948 O   0  0  0  0  0  0  0  0  0  0  0  0
   -2.9957    3.8218   -0.2891 C   0  0  0  0  0  0  0  0  0  0  0  0
   -4.4785    3.4582   -0.4130 C   0  0  0  0  0  0  0  0  0  0  0  0
   -4.7029    2.6002   -1.5361 O   0  0  0  0  0  0  0  0  0  0  0  0
   -4.7267    1.2199   -1.1626 C   0  0  0  0  0  0  0  0  0  0  0  0
   -4.1813    0.3673   -2.3069 C   0  0  0  0  0  0  0  0  0  0  0  0
   -4.2210   -1.0420   -2.0715 O   0  0  0  0  0  0  0  0  0  0  0  0
   -3.5681   -1.5019   -0.8873 C   0  0  0  0  0  0  0  0  0  0  0  0
   -2.0760   -1.1773   -0.8162 C   0  0  0  0  0  0  0  0  0  0  0  0
   -1.5626   -1.6873    0.4198 O   0  0  0  0  0  0  0  0  0  0  0  0
    4.6613   -2.7925    1.1482 N   0  0  0  0  0  0  0  0  0  0  0  0
    6.0208   -2.8305    1.2614 C   0  0  0  0  0  0  0  0  0  0  0  0
    6.5727   -4.0899    1.6644 C   0  0  0  0  0  0  0  0  0  0  0  0
    7.0411   -5.1022    1.9871 N   0  0  0  0  0  0  0  0  0  0  0  0
    4.5091    0.4387    0.1739 H   0  0  0  0  0  0  0  0  0  0  0  0
    2.4415   -3.7207    0.2788 H   0  0  0  0  0  0  0  0  0  0  0  0
   -0.0106   -3.7195    0.1390 H   0  0  0  0  0  0  0  0  0  0  0  0
    2.3711    0.5138    1.1213 H   0  0  0  0  0  0  0  0  0  0  0  0
    1.1081    2.1193    0.1683 H   0  0  0  0  0  0  0  0  0  0  0  0
   -0.0540    1.4148   -0.9987 H   0  0  0  0  0  0  0  0  0  0  0  0
   -0.4999    3.8204   -0.3573 H   0  0  0  0  0  0  0  0  0  0  0  0
   -0.8349    3.2772    1.3135 H   0  0  0  0  0  0  0  0  0  0  0  0
   -2.6608    4.3105   -1.2110 H   0  0  0  0  0  0  0  0  0  0  0  0
   -2.8613    4.5087    0.5542 H   0  0  0  0  0  0  0  0  0  0  0  0
   -5.0519    4.3744   -0.5880 H   0  0  0  0  0  0  0  0  0  0  0  0
   -4.8567    3.0019    0.5097 H   0  0  0  0  0  0  0  0  0  0  0  0
   -4.1405    1.0465   -0.2549 H   0  0  0  0  0  0  0  0  0  0  0  0
   -5.7603    0.9352   -0.9368 H   0  0  0  0  0  0  0  0  0  0  0  0
   -4.7759    0.5579   -3.2079 H   0  0  0  0  0  0  0  0  0  0  0  0
   -3.1614    0.6726   -2.5670 H   0  0  0  0  0  0  0  0  0  0  0  0
   -3.6902   -2.5914   -0.8611 H   0  0  0  0  0  0  0  0  0  0  0  0
   -4.0954   -1.1386    0.0020 H   0  0  0  0  0  0  0  0  0  0  0  0
   -1.9284   -0.0961   -0.8633 H   0  0  0  0  0  0  0  0  0  0  0  0
   -1.5639   -1.6292   -1.6756 H   0  0  0  0  0  0  0  0  0  0  0  0
  1  2  3  0
  2  3  1  0
  3  4  2  0
  4  5  1  0
  5  6  2  0
  6  7  1  0
  7  8  2  0
  8  9  1  0
  9 10  2  0
 10 11  1  0
 11 12  2  0
 11 13  1  0
 13 14  1  0
 14 15  1  0
 15 16  1  0
 16 17  1  0
 17 18  1  0
 18 19  1  0
 19 20  1  0
 20 21  1  0
 21 22  1  0
 22 23  1  0
 23 24  1  0
 24 25  1  0
  6 26  1  0
 26 27  2  0
 27 28  1  0
 28 29  3  0
 27  3  1  0
 12  7  1  0
 25 10  1  0
  5 30  1  0
  8 31  1  0
  9 32  1  0
 12 33  1  0
 14 34  1  0
 14 35  1  0
 15 36  1  0
 15 37  1  0
 17 38  1  0
 17 39  1  0
 18 40  1  0
 18 41  1  0
 20 42  1  0
 20 43  1  0
 21 44  1  0
 21 45  1  0
 23 46  1  0
 23 47  1  0
 24 48  1  0
 24 49  1  0
M  END
$$$$
