
     RDKit          3D

 34 35  0  0  0  0  0  0  0  0999 V2000
   -1.8498   -2.9947   -0.6996 O   0  0  0  0  0  0  0  0  0  0  0  0
   -2.8550   -2.4014   -0.2761 N   0  0  0  0  0  4  0  0  0  0  0  0
   -3.8878   -2.9603    0.1219 O   0  0  0  0  0  1  0  0  0  0  0  0
   -2.8372   -0.9362   -0.2748 C   0  0  0  0  0  0  0  0  0  0  0  0
   -4.0597   -0.2803   -0.5257 C   0  0  0  0  0  0  0  0  0  0  0  0
   -4.1223    1.1180   -0.5287 C   0  0  0  0  0  0  0  0  0  0  0  0
   -5.4220    1.8295   -0.8181 C   0  0  0  0  0  0  0  0  0  0  0  0
   -5.6709    1.9188   -2.1527 F   0  0  0  0  0  0  0  0  0  0  0  0
   -5.4557    3.1045   -0.3421 F   0  0  0  0  0  0  0  0  0  0  0  0
   -6.4998    1.1995   -0.2757 F   0  0  0  0  0  0  0  0  0  0  0  0
   -2.9468    1.8347   -0.2819 C   0  0  0  0  0  0  0  0  0  0  0  0
   -1.7357    1.1721   -0.0296 C   0  0  0  0  0  0  0  0  0  0  0  0
   -1.6337   -0.2289   -0.0469 C   0  0  0  0  0  0  0  0  0  0  0  0
   -0.4385   -0.8819    0.2998 N   0  0  0  0  0  0  0  0  0  0  0  0
    0.8485   -0.1812    0.1803 C   0  0  0  0  0  0  0  0  0  0  0  0
    1.9969   -1.1437    0.5044 C   0  0  0  0  0  0  0  0  0  0  0  0
    3.3611   -0.4991    0.4586 C   0  0  0  0  0  0  0  0  0  0  0  0
    4.4594   -1.1885    0.9702 C   0  0  0  0  0  0  0  0  0  0  0  0
    5.7187   -0.5986    0.9035 C   0  0  0  0  0  0  0  0  0  0  0  0
    5.8522    0.6565    0.3246 C   0  0  0  0  0  0  0  0  0  0  0  0
    4.7145    1.2710   -0.1675 C   0  0  0  0  0  0  0  0  0  0  0  0
    3.4798    0.7224   -0.1161 N   0  0  0  0  0  0  0  0  0  0  0  0
   -4.9662   -0.8568   -0.7139 H   0  0  0  0  0  0  0  0  0  0  0  0
   -2.9616    2.9250   -0.2700 H   0  0  0  0  0  0  0  0  0  0  0  0
   -0.8680    1.7918    0.1853 H   0  0  0  0  0  0  0  0  0  0  0  0
   -0.4006   -1.8207   -0.1151 H   0  0  0  0  0  0  0  0  0  0  0  0
    0.8822    0.6589    0.8841 H   0  0  0  0  0  0  0  0  0  0  0  0
    0.9618    0.2090   -0.8387 H   0  0  0  0  0  0  0  0  0  0  0  0
    1.9858   -1.9822   -0.2032 H   0  0  0  0  0  0  0  0  0  0  0  0
    1.8369   -1.5631    1.5062 H   0  0  0  0  0  0  0  0  0  0  0  0
    4.3409   -2.1716    1.4153 H   0  0  0  0  0  0  0  0  0  0  0  0
    6.5879   -1.1167    1.2984 H   0  0  0  0  0  0  0  0  0  0  0  0
    6.8186    1.1427    0.2562 H   0  0  0  0  0  0  0  0  0  0  0  0
    4.7660    2.2514   -0.6324 H   0  0  0  0  0  0  0  0  0  0  0  0
  1  2  2  0
  2  3  1  0
  2  4  1  0
  4  5  2  0
  5  6  1  0
  6  7  1  0
  7  8  1  0
  7  9  1  0
  7 10  1  0
  6 11  2  0
 11 12  1  0
 12 13  2  0
 13 14  1  0
 14 15  1  0
 15 16  1  0
 16 17  1  0
 17 18  2  0
 18 19  1  0
 19 20  2  0
 20 21  1  0
 21 22  2  0
 13  4  1  0
 22 17  1  0
  5 23  1  0
 11 24  1  0
 12 25  1  0
 14 26  1  0
 15 27  1  0
 15 28  1  0
 16 29  1  0
 16 30  1  0
 18 31  1  0
 19 32  1  0
 20 33  1  0
 21 34  1  0
M  CHG  2   2   1   3  -1
M  END
$$$$
