
     RDKit          3D

 47 50  0  0  0  0  0  0  0  0999 V2000
    6.9070    1.4971    2.2451 C   0  0  0  0  0  0  0  0  0  0  0  0
    5.5647    1.1172    1.6708 C   0  0  0  0  0  0  0  0  0  0  0  0
    4.5734    1.0455    2.3887 O   0  0  0  0  0  0  0  0  0  0  0  0
    5.6300    0.8525    0.3145 N   0  0  0  0  0  0  0  0  0  0  0  0
    4.5735    0.4665   -0.5379 C   0  0  0  0  0  0  0  0  0  0  0  0
    4.8865    0.2449   -1.8826 C   0  0  0  0  0  0  0  0  0  0  0  0
    3.8945   -0.1397   -2.7850 C   0  0  0  0  0  0  0  0  0  0  0  0
    2.5778   -0.3065   -2.3532 C   0  0  0  0  0  0  0  0  0  0  0  0
    2.2455   -0.0879   -1.0173 C   0  0  0  0  0  0  0  0  0  0  0  0
    0.9434   -0.2404   -0.4955 N   0  0  0  0  0  0  0  0  0  0  0  0
   -0.2020   -0.5780   -1.1874 C   0  0  0  0  0  0  0  0  0  0  0  0
   -0.3351   -0.7472   -2.3917 O   0  0  0  0  0  0  0  0  0  0  0  0
   -1.4109   -0.6817   -0.3393 C   0  0  0  0  0  0  0  0  0  0  0  0
   -2.4567    0.1879   -0.6540 C   0  0  0  0  0  0  0  0  0  0  0  0
   -3.5981    0.1618    0.1273 C   0  0  0  0  0  0  0  0  0  0  0  0
   -4.7621    1.0343   -0.1091 C   0  0  0  0  0  0  0  0  0  0  0  0
   -5.0895    1.5572   -1.3699 C   0  0  0  0  0  0  0  0  0  0  0  0
   -6.2028    2.3835   -1.5318 C   0  0  0  0  0  0  0  0  0  0  0  0
   -6.9754    2.6720   -0.4219 C   0  0  0  0  0  0  0  0  0  0  0  0
   -6.7133    2.1940    0.8095 N   0  0  0  0  0  0  0  0  0  0  0  0
   -5.6259    1.3883    0.9311 C   0  0  0  0  0  0  0  0  0  0  0  0
   -3.7001   -0.6797    1.1864 N   0  0  0  0  0  0  0  0  0  0  0  0
   -2.7082   -1.5400    1.4682 C   0  0  0  0  0  0  0  0  0  0  0  0
   -2.8761   -2.4068    2.5404 C   0  0  0  0  0  0  0  0  0  0  0  0
   -1.9040   -3.3473    2.8910 C   0  0  0  0  0  0  0  0  0  0  0  0
   -0.7368   -3.4292    2.1474 C   0  0  0  0  0  0  0  0  0  0  0  0
    0.4622   -4.5910    2.5543 Cl  0  0  0  0  0  0  0  0  0  0  0  0
   -0.5375   -2.5708    1.0694 C   0  0  0  0  0  0  0  0  0  0  0  0
   -1.5165   -1.6026    0.7241 C   0  0  0  0  0  0  0  0  0  0  0  0
    3.2512    0.2974   -0.1165 C   0  0  0  0  0  0  0  0  0  0  0  0
    7.4856    2.0911    1.5318 H   0  0  0  0  0  0  0  0  0  0  0  0
    7.4601    0.5901    2.5022 H   0  0  0  0  0  0  0  0  0  0  0  0
    6.7585    2.1006    3.1452 H   0  0  0  0  0  0  0  0  0  0  0  0
    6.5398    0.9363   -0.1217 H   0  0  0  0  0  0  0  0  0  0  0  0
    5.9023    0.3660   -2.2494 H   0  0  0  0  0  0  0  0  0  0  0  0
    4.1437   -0.3124   -3.8292 H   0  0  0  0  0  0  0  0  0  0  0  0
    1.8359   -0.6104   -3.0850 H   0  0  0  0  0  0  0  0  0  0  0  0
    0.8472   -0.0536    0.4970 H   0  0  0  0  0  0  0  0  0  0  0  0
   -2.3507    0.8769   -1.4861 H   0  0  0  0  0  0  0  0  0  0  0  0
   -4.4969    1.3160   -2.2488 H   0  0  0  0  0  0  0  0  0  0  0  0
   -6.4621    2.7866   -2.5046 H   0  0  0  0  0  0  0  0  0  0  0  0
   -7.8515    3.3094   -0.4967 H   0  0  0  0  0  0  0  0  0  0  0  0
   -5.4589    1.0230    1.9427 H   0  0  0  0  0  0  0  0  0  0  0  0
   -3.7971   -2.3546    3.1185 H   0  0  0  0  0  0  0  0  0  0  0  0
   -2.0744   -4.0108    3.7348 H   0  0  0  0  0  0  0  0  0  0  0  0
    0.3770   -2.6696    0.4877 H   0  0  0  0  0  0  0  0  0  0  0  0
    2.9829    0.4640    0.9211 H   0  0  0  0  0  0  0  0  0  0  0  0
  1  2  1  0
  2  3  2  0
  2  4  1  0
  4  5  1  0
  5  6  2  0
  6  7  1  0
  7  8  2  0
  8  9  1  0
  9 10  1  0
 10 11  1  0
 11 12  2  0
 11 13  1  0
 13 14  2  0
 14 15  1  0
 15 16  1  0
 16 17  2  0
 17 18  1  0
 18 19  2  0
 19 20  1  0
 20 21  2  0
 15 22  2  0
 22 23  1  0
 23 24  2  0
 24 25  1  0
 25 26  2  0
 26 27  1  0
 26 28  1  0
 28 29  2  0
  9 30  2  0
 30  5  1  0
 29 13  1  0
 21 16  1  0
 29 23  1  0
  1 31  1  0
  1 32  1  0
  1 33  1  0
  4 34  1  0
  6 35  1  0
  7 36  1  0
  8 37  1  0
 10 38  1  0
 14 39  1  0
 17 40  1  0
 18 41  1  0
 19 42  1  0
 21 43  1  0
 24 44  1  0
 25 45  1  0
 28 46  1  0
 30 47  1  0
M  END
$$$$
