
     RDKit          3D

 29 31  0  0  0  0  0  0  0  0999 V2000
   -3.0190    0.7734   -2.1633 O   0  0  0  0  0  0  0  0  0  0  0  0
   -3.6711   -0.2424   -1.9945 C   0  0  0  0  0  0  0  0  0  0  0  0
   -4.9582   -0.3803   -2.4377 N   0  0  0  0  0  0  0  0  0  0  0  0
   -5.5862   -1.5701   -2.2515 C   0  0  0  0  0  0  0  0  0  0  0  0
   -7.1293   -1.8848   -2.7590 S   0  0  0  0  0  0  0  0  0  0  0  0
   -4.5211   -2.6685   -1.4143 S   0  0  0  0  0  0  0  0  0  0  0  0
   -3.2268   -1.4998   -1.3224 C   0  0  0  0  0  0  0  0  0  0  0  0
   -2.0592   -1.8124   -0.7452 C   0  0  0  0  0  0  0  0  0  0  0  0
   -0.9281   -0.9675   -0.5926 C   0  0  0  0  0  0  0  0  0  0  0  0
   -0.8022    0.3830   -0.3038 C   0  0  0  0  0  0  0  0  0  0  0  0
    0.5793    0.6897   -0.2337 C   0  0  0  0  0  0  0  0  0  0  0  0
    1.2591   -0.4874   -0.4508 C   0  0  0  0  0  0  0  0  0  0  0  0
    2.9655   -0.8445   -0.5044 S   0  0  0  0  0  0  0  0  0  0  0  0
    3.7448    0.6753    0.0983 C   0  0  0  0  0  0  0  0  0  0  0  0
    3.5373    0.8922    1.5529 C   0  0  0  0  0  0  0  0  0  0  0  0
    3.8353    0.1556    2.6823 C   0  0  0  0  0  0  0  0  0  0  0  0
    3.3882    0.9178    3.7879 C   0  0  0  0  0  0  0  0  0  0  0  0
    2.8545    2.0723    3.2667 C   0  0  0  0  0  0  0  0  0  0  0  0
    2.9447    2.0690    1.9123 O   0  0  0  0  0  0  0  0  0  0  0  0
    0.3474   -1.4822   -0.6548 O   0  0  0  0  0  0  0  0  0  0  0  0
   -5.4030    0.3818   -2.9266 H   0  0  0  0  0  0  0  0  0  0  0  0
   -1.9131   -2.8245   -0.3725 H   0  0  0  0  0  0  0  0  0  0  0  0
   -1.6142    1.0815   -0.1555 H   0  0  0  0  0  0  0  0  0  0  0  0
    1.0066    1.6617   -0.0352 H   0  0  0  0  0  0  0  0  0  0  0  0
    3.3950    1.5312   -0.4883 H   0  0  0  0  0  0  0  0  0  0  0  0
    4.8207    0.5890   -0.0902 H   0  0  0  0  0  0  0  0  0  0  0  0
    4.3099   -0.8161    2.7010 H   0  0  0  0  0  0  0  0  0  0  0  0
    3.4472    0.6584    4.8354 H   0  0  0  0  0  0  0  0  0  0  0  0
    2.3959    2.9488    3.7027 H   0  0  0  0  0  0  0  0  0  0  0  0
  1  2  2  0
  2  3  1  0
  3  4  1  0
  4  5  2  0
  4  6  1  0
  6  7  1  0
  7  8  2  3
  8  9  1  0
  9 10  2  0
 10 11  1  0
 11 12  2  0
 12 13  1  0
 13 14  1  0
 14 15  1  0
 15 16  2  0
 16 17  1  0
 17 18  2  0
 18 19  1  0
 12 20  1  0
  7  2  1  0
 20  9  1  0
 19 15  1  0
  3 21  1  0
  8 22  1  0
 10 23  1  0
 11 24  1  0
 14 25  1  0
 14 26  1  0
 16 27  1  0
 17 28  1  0
 18 29  1  0
M  END
$$$$
