
     RDKit          3D

 44 46  0  0  0  0  0  0  0  0999 V2000
   -6.3191   -0.9571   -2.8249 C   0  0  0  0  0  0  0  0  0  0  0  0
   -5.6824   -0.7555   -1.4827 C   0  0  0  0  0  0  0  0  0  0  0  0
   -6.3834   -1.0544   -0.3110 C   0  0  0  0  0  0  0  0  0  0  0  0
   -5.7885   -0.8727    0.9395 C   0  0  0  0  0  0  0  0  0  0  0  0
   -4.4767   -0.3975    1.0424 C   0  0  0  0  0  0  0  0  0  0  0  0
   -3.8534   -0.2073    2.3918 C   0  0  0  0  0  0  0  0  0  0  0  0
   -3.7596   -0.1647   -0.1339 C   0  0  0  0  0  0  0  0  0  0  0  0
   -2.4645    0.2765   -0.0736 O   0  0  0  0  0  0  0  0  0  0  0  0
   -1.5636   -0.8274   -0.2320 C   0  0  0  0  0  0  0  0  0  0  0  0
   -0.1950   -0.2662   -0.1969 C   0  0  0  0  0  0  0  0  0  0  0  0
    0.4097    0.8309   -0.7575 C   0  0  0  0  0  0  0  0  0  0  0  0
    1.7636    0.7712   -0.3225 C   0  0  0  0  0  0  0  0  0  0  0  0
    2.8043    1.7664   -0.6252 C   0  0  0  0  0  0  0  0  0  0  0  0
    2.4618    2.8829   -1.0197 O   0  0  0  0  0  0  0  0  0  0  0  0
    4.1635    1.4544   -0.4619 N   0  0  0  0  0  0  0  0  0  0  0  0
    5.1190    2.5349   -0.6619 C   0  0  0  0  0  0  0  0  0  0  0  0
    4.7077    0.0933   -0.5598 C   0  0  0  0  0  0  0  0  0  0  0  0
    5.6242   -0.2205    0.5880 C   0  0  0  0  0  0  0  0  0  0  0  0
    6.9407   -0.2076    0.5029 N   0  0  0  0  0  0  0  0  0  0  0  0
    7.4916   -0.5260    1.7272 C   0  0  0  0  0  0  0  0  0  0  0  0
    6.5916   -0.7902    2.7349 C   0  0  0  0  0  0  0  0  0  0  0  0
    4.9958   -0.6369    2.1344 S   0  0  0  0  0  0  0  0  0  0  0  0
    1.9419   -0.2948    0.4754 N   0  0  0  0  0  0  0  0  0  0  0  0
    0.7256   -0.9469    0.5352 O   0  0  0  0  0  0  0  0  0  0  0  0
   -4.3589   -0.3150   -1.3858 C   0  0  0  0  0  0  0  0  0  0  0  0
   -7.4030   -0.8113   -2.7685 H   0  0  0  0  0  0  0  0  0  0  0  0
   -5.9308   -0.2373   -3.5510 H   0  0  0  0  0  0  0  0  0  0  0  0
   -6.1176   -1.9693   -3.1876 H   0  0  0  0  0  0  0  0  0  0  0  0
   -7.4049   -1.4210   -0.3609 H   0  0  0  0  0  0  0  0  0  0  0  0
   -6.3604   -1.1008    1.8342 H   0  0  0  0  0  0  0  0  0  0  0  0
   -4.6196   -0.0120    3.1490 H   0  0  0  0  0  0  0  0  0  0  0  0
   -3.2965   -1.1036    2.6805 H   0  0  0  0  0  0  0  0  0  0  0  0
   -3.1754    0.6493    2.3950 H   0  0  0  0  0  0  0  0  0  0  0  0
   -1.7054   -1.5496    0.5812 H   0  0  0  0  0  0  0  0  0  0  0  0
   -1.7207   -1.3260   -1.1985 H   0  0  0  0  0  0  0  0  0  0  0  0
   -0.0514    1.5868   -1.3772 H   0  0  0  0  0  0  0  0  0  0  0  0
    5.4288    2.5421   -1.7114 H   0  0  0  0  0  0  0  0  0  0  0  0
    5.9906    2.3925   -0.0208 H   0  0  0  0  0  0  0  0  0  0  0  0
    4.6761    3.5040   -0.4175 H   0  0  0  0  0  0  0  0  0  0  0  0
    3.9435   -0.6728   -0.6786 H   0  0  0  0  0  0  0  0  0  0  0  0
    5.2868    0.0553   -1.4908 H   0  0  0  0  0  0  0  0  0  0  0  0
    8.5692   -0.5530    1.8320 H   0  0  0  0  0  0  0  0  0  0  0  0
    6.7863   -1.0560    3.7633 H   0  0  0  0  0  0  0  0  0  0  0  0
   -3.7910   -0.0871   -2.2824 H   0  0  0  0  0  0  0  0  0  0  0  0
  1  2  1  0
  2  3  2  0
  3  4  1  0
  4  5  2  0
  5  6  1  0
  5  7  1  0
  7  8  1  0
  8  9  1  0
  9 10  1  0
 10 11  2  0
 11 12  1  0
 12 13  1  0
 13 14  2  0
 13 15  1  0
 15 16  1  0
 15 17  1  0
 17 18  1  0
 18 19  2  0
 19 20  1  0
 20 21  2  0
 21 22  1  0
 12 23  2  0
 23 24  1  0
  7 25  2  0
 25  2  1  0
 24 10  1  0
 22 18  1  0
  1 26  1  0
  1 27  1  0
  1 28  1  0
  3 29  1  0
  4 30  1  0
  6 31  1  0
  6 32  1  0
  6 33  1  0
  9 34  1  0
  9 35  1  0
 11 36  1  0
 16 37  1  0
 16 38  1  0
 16 39  1  0
 17 40  1  0
 17 41  1  0
 20 42  1  0
 21 43  1  0
 25 44  1  0
M  END
$$$$
