
     RDKit          3D

 48 51  0  0  0  0  0  0  0  0999 V2000
    3.9147    2.5545   -1.3470 C   0  0  0  0  0  0  0  0  0  0  0  0
    3.1989    1.2234   -1.1267 C   0  0  0  0  0  0  0  0  0  0  0  0
    3.3971    0.3070   -2.3357 C   0  0  0  0  0  0  0  0  0  0  0  0
    3.6955    0.5576    0.1636 C   0  0  0  0  0  0  0  0  0  0  0  0
    2.9764   -0.6563    0.4312 O   0  0  0  0  0  0  0  0  0  0  0  0
    1.8147   -0.5065    1.1176 C   0  0  0  0  0  0  0  0  0  0  0  0
    1.3415    0.5388    1.5318 O   0  0  0  0  0  0  0  0  0  0  0  0
    1.2038   -1.8381    1.3507 C   0  0  0  0  0  0  0  0  0  0  0  0
    2.0354   -2.8712    1.8178 C   0  0  0  0  0  0  0  0  0  0  0  0
    1.4918   -4.0898    2.2287 C   0  0  0  0  0  0  0  0  0  0  0  0
    0.1133   -4.2851    2.1926 C   0  0  0  0  0  0  0  0  0  0  0  0
   -0.7257   -3.2693    1.7322 C   0  0  0  0  0  0  0  0  0  0  0  0
   -0.1846   -2.0454    1.2994 C   0  0  0  0  0  0  0  0  0  0  0  0
   -1.0745   -1.0766    0.7550 N   0  0  0  0  0  0  0  0  0  0  0  0
   -2.3248   -0.7092    1.2986 C   0  0  0  0  0  0  0  0  0  0  0  0
   -2.7798   -1.1008    2.4874 O   0  0  0  0  0  0  0  0  0  0  0  0
   -2.8985    0.1396    0.4006 C   0  0  0  0  0  0  0  0  0  0  0  0
   -2.0231    0.3287   -0.6836 C   0  0  0  0  0  0  0  0  0  0  0  0
   -0.9099   -0.4330   -0.4869 C   0  0  0  0  0  0  0  0  0  0  0  0
    0.1409   -0.6482   -1.2718 O   0  0  0  0  0  0  0  0  0  0  0  0
   -2.6912    1.2772   -1.6281 C   0  0  0  0  0  0  0  0  0  0  0  0
   -2.7276    2.6720   -0.9510 C   0  0  0  0  0  0  0  0  0  0  0  0
   -3.6941    2.4669    0.2618 C   0  0  0  0  0  0  0  0  0  0  0  0
   -4.1111    0.9774    0.1493 C   0  0  0  0  0  0  0  0  0  0  0  0
   -4.1827    0.8581   -1.4091 C   0  0  0  0  0  0  0  0  0  0  0  0
    3.5473    3.0486   -2.2526 H   0  0  0  0  0  0  0  0  0  0  0  0
    4.9956    2.4126   -1.4531 H   0  0  0  0  0  0  0  0  0  0  0  0
    3.7426    3.2320   -0.5040 H   0  0  0  0  0  0  0  0  0  0  0  0
    2.1239    1.4202   -1.0355 H   0  0  0  0  0  0  0  0  0  0  0  0
    2.8561   -0.6365   -2.2123 H   0  0  0  0  0  0  0  0  0  0  0  0
    4.4564    0.0718   -2.4852 H   0  0  0  0  0  0  0  0  0  0  0  0
    3.0252    0.7849   -3.2483 H   0  0  0  0  0  0  0  0  0  0  0  0
    4.7526    0.2839    0.0669 H   0  0  0  0  0  0  0  0  0  0  0  0
    3.6289    1.2412    1.0191 H   0  0  0  0  0  0  0  0  0  0  0  0
    3.1107   -2.7214    1.8899 H   0  0  0  0  0  0  0  0  0  0  0  0
    2.1446   -4.8823    2.5873 H   0  0  0  0  0  0  0  0  0  0  0  0
   -0.3093   -5.2364    2.5084 H   0  0  0  0  0  0  0  0  0  0  0  0
   -1.7953   -3.4650    1.6659 H   0  0  0  0  0  0  0  0  0  0  0  0
   -2.0275   -1.4180    3.0175 H   0  0  0  0  0  0  0  0  0  0  0  0
    0.0253   -0.0816   -2.0549 H   0  0  0  0  0  0  0  0  0  0  0  0
   -2.3382    1.2550   -2.6588 H   0  0  0  0  0  0  0  0  0  0  0  0
   -3.1391    3.4265   -1.6307 H   0  0  0  0  0  0  0  0  0  0  0  0
   -1.7377    3.0039   -0.6194 H   0  0  0  0  0  0  0  0  0  0  0  0
   -3.1954    2.6928    1.2106 H   0  0  0  0  0  0  0  0  0  0  0  0
   -4.5637    3.1257    0.1593 H   0  0  0  0  0  0  0  0  0  0  0  0
   -5.0131    0.6904    0.6892 H   0  0  0  0  0  0  0  0  0  0  0  0
   -4.9011    1.5470   -1.8668 H   0  0  0  0  0  0  0  0  0  0  0  0
   -4.3852   -0.1669   -1.7442 H   0  0  0  0  0  0  0  0  0  0  0  0
  1  2  1  0
  2  3  1  0
  2  4  1  0
  4  5  1  0
  5  6  1  0
  6  7  2  0
  6  8  1  0
  8  9  2  0
  9 10  1  0
 10 11  2  0
 11 12  1  0
 12 13  2  0
 13 14  1  0
 14 15  1  0
 15 16  1  0
 15 17  2  0
 17 18  1  0
 18 19  2  0
 19 20  1  0
 18 21  1  0
 21 22  1  0
 22 23  1  0
 23 24  1  0
 24 25  1  0
 13  8  1  0
 19 14  1  0
 25 21  1  0
 24 17  1  0
  1 26  1  0
  1 27  1  0
  1 28  1  0
  2 29  1  0
  3 30  1  0
  3 31  1  0
  3 32  1  0
  4 33  1  0
  4 34  1  0
  9 35  1  0
 10 36  1  0
 11 37  1  0
 12 38  1  0
 16 39  1  0
 20 40  1  0
 21 41  1  0
 22 42  1  0
 22 43  1  0
 23 44  1  0
 23 45  1  0
 24 46  1  0
 25 47  1  0
 25 48  1  0
M  END
$$$$
