
     RDKit          3D

 30 31  0  0  0  0  0  0  0  0999 V2000
    0.4219    0.9135    1.4127 O   0  0  0  0  0  0  0  0  0  0  0  0
    0.7056    1.0745    0.2296 C   0  0  0  0  0  0  0  0  0  0  0  0
   -0.2239    1.7350   -0.7980 C   0  0  0  0  0  0  0  0  0  0  0  0
   -1.4950    2.1144   -0.2775 O   0  0  0  0  0  0  0  0  0  0  0  0
   -2.4359    1.1404   -0.4850 C   0  0  0  0  0  0  0  0  0  0  0  0
   -2.7167    0.2720    0.5713 C   0  0  0  0  0  0  0  0  0  0  0  0
   -3.6954   -0.7117    0.4202 C   0  0  0  0  0  0  0  0  0  0  0  0
   -4.3995   -0.8096   -0.7802 C   0  0  0  0  0  0  0  0  0  0  0  0
   -5.6035   -2.0254   -0.9634 Cl  0  0  0  0  0  0  0  0  0  0  0  0
   -4.1420    0.0709   -1.8305 C   0  0  0  0  0  0  0  0  0  0  0  0
   -3.1644    1.0551   -1.6785 C   0  0  0  0  0  0  0  0  0  0  0  0
   -2.8861    2.1504   -2.9839 Cl  0  0  0  0  0  0  0  0  0  0  0  0
    1.9101    0.6523   -0.3064 N   0  0  0  0  0  0  0  0  0  0  0  0
    2.9731    0.1584    0.5667 C   0  0  0  0  0  0  0  0  0  0  0  0
    2.7006   -1.2178    1.1767 C   0  0  0  0  0  0  0  0  0  0  0  0
    3.1360   -2.2724    0.1772 C   0  0  0  0  0  0  0  0  0  0  0  0
    4.7319   -1.6634   -0.4241 S   0  0  0  0  0  0  0  0  0  0  0  0
    4.2524    0.0201   -0.2482 C   0  0  0  0  0  0  0  0  0  0  0  0
    4.8066    0.9337   -0.8424 O   0  0  0  0  0  0  0  0  0  0  0  0
   -0.3070    1.0748   -1.6719 H   0  0  0  0  0  0  0  0  0  0  0  0
    0.2684    2.6563   -1.1314 H   0  0  0  0  0  0  0  0  0  0  0  0
   -2.1784    0.3650    1.5122 H   0  0  0  0  0  0  0  0  0  0  0  0
   -3.9079   -1.3899    1.2428 H   0  0  0  0  0  0  0  0  0  0  0  0
   -4.7063   -0.0033   -2.7561 H   0  0  0  0  0  0  0  0  0  0  0  0
    2.2085    1.1005   -1.1692 H   0  0  0  0  0  0  0  0  0  0  0  0
    3.1338    0.8969    1.3606 H   0  0  0  0  0  0  0  0  0  0  0  0
    3.2874   -1.3284    2.0990 H   0  0  0  0  0  0  0  0  0  0  0  0
    1.6513   -1.3620    1.4529 H   0  0  0  0  0  0  0  0  0  0  0  0
    3.2411   -3.2570    0.6404 H   0  0  0  0  0  0  0  0  0  0  0  0
    2.4335   -2.3431   -0.6593 H   0  0  0  0  0  0  0  0  0  0  0  0
  1  2  2  0
  2  3  1  0
  3  4  1  0
  4  5  1  0
  5  6  2  0
  6  7  1  0
  7  8  2  0
  8  9  1  0
  8 10  1  0
 10 11  2  0
 11 12  1  0
  2 13  1  0
 13 14  1  0
 14 15  1  0
 15 16  1  0
 16 17  1  0
 17 18  1  0
 18 19  2  0
 11  5  1  0
 18 14  1  0
  3 20  1  0
  3 21  1  0
  6 22  1  0
  7 23  1  0
 10 24  1  0
 13 25  1  0
 14 26  1  0
 15 27  1  0
 15 28  1  0
 16 29  1  0
 16 30  1  0
M  END
$$$$
