
     RDKit          3D

 42 44  0  0  0  0  0  0  0  0999 V2000
   -2.0144    2.8551    5.4864 C   0  0  0  0  0  0  0  0  0  0  0  0
   -2.9034    1.7721    4.8949 C   0  0  0  0  0  0  0  0  0  0  0  0
   -2.3390    1.1509    3.6155 C   0  0  0  0  0  0  0  0  0  0  0  0
   -2.2650    2.1370    2.4468 C   0  0  0  0  0  0  0  0  0  0  0  0
   -1.8086    1.4592    1.1780 C   0  0  0  0  0  0  0  0  0  0  0  0
   -2.7403    0.9284    0.2791 C   0  0  0  0  0  0  0  0  0  0  0  0
   -2.3168    0.2868   -0.8908 C   0  0  0  0  0  0  0  0  0  0  0  0
   -0.9521    0.1561   -1.1819 C   0  0  0  0  0  0  0  0  0  0  0  0
   -0.4691   -0.5102   -2.3895 C   0  0  0  0  0  0  0  0  0  0  0  0
   -1.2128   -1.3707   -3.1696 C   0  0  0  0  0  0  0  0  0  0  0  0
   -0.2698   -1.9569   -4.4730 S   0  0  0  0  0  0  0  0  0  0  0  0
    1.0889   -1.0297   -3.9166 C   0  0  0  0  0  0  0  0  0  0  0  0
    2.3256   -1.0759   -4.6293 C   0  0  0  0  0  0  0  0  0  0  0  0
    2.3159   -0.7956   -6.0315 C   0  0  0  0  0  0  0  0  0  0  0  0
    2.3235   -0.5820   -7.1725 N   0  0  0  0  0  0  0  0  0  0  0  0
    3.5168   -1.3082   -4.0430 C   0  0  0  0  0  0  0  0  0  0  0  0
    3.7815   -1.6289   -2.6801 C   0  0  0  0  0  0  0  0  0  0  0  0
    3.0208   -2.2296   -1.6811 C   0  0  0  0  0  0  0  0  0  0  0  0
    3.8128   -2.3188   -0.5108 C   0  0  0  0  0  0  0  0  0  0  0  0
    5.0308   -1.7914   -0.8457 C   0  0  0  0  0  0  0  0  0  0  0  0
    5.0298   -1.3902   -2.1380 O   0  0  0  0  0  0  0  0  0  0  0  0
    0.8362   -0.3304   -2.8259 N   0  0  0  0  0  0  0  0  0  0  0  0
   -0.0239    0.6909   -0.2766 C   0  0  0  0  0  0  0  0  0  0  0  0
   -0.4454    1.3316    0.8924 C   0  0  0  0  0  0  0  0  0  0  0  0
   -1.9540    3.7280    4.8299 H   0  0  0  0  0  0  0  0  0  0  0  0
   -2.4200    3.1908    6.4463 H   0  0  0  0  0  0  0  0  0  0  0  0
   -1.0006    2.4806    5.6596 H   0  0  0  0  0  0  0  0  0  0  0  0
   -3.0273    0.9780    5.6409 H   0  0  0  0  0  0  0  0  0  0  0  0
   -3.9009    2.1835    4.7018 H   0  0  0  0  0  0  0  0  0  0  0  0
   -1.3447    0.7329    3.8183 H   0  0  0  0  0  0  0  0  0  0  0  0
   -2.9784    0.3033    3.3367 H   0  0  0  0  0  0  0  0  0  0  0  0
   -1.5767    2.9592    2.6755 H   0  0  0  0  0  0  0  0  0  0  0  0
   -3.2458    2.5998    2.2803 H   0  0  0  0  0  0  0  0  0  0  0  0
   -3.8059    1.0140    0.4813 H   0  0  0  0  0  0  0  0  0  0  0  0
   -3.0770   -0.0933   -1.5673 H   0  0  0  0  0  0  0  0  0  0  0  0
   -2.2357   -1.6953   -3.0491 H   0  0  0  0  0  0  0  0  0  0  0  0
    4.4147   -1.2442   -4.6577 H   0  0  0  0  0  0  0  0  0  0  0  0
    1.9997   -2.5713   -1.7748 H   0  0  0  0  0  0  0  0  0  0  0  0
    3.5288   -2.7230    0.4503 H   0  0  0  0  0  0  0  0  0  0  0  0
    5.9571   -1.6409   -0.3091 H   0  0  0  0  0  0  0  0  0  0  0  0
    1.0438    0.6103   -0.4756 H   0  0  0  0  0  0  0  0  0  0  0  0
    0.3007    1.7314    1.5755 H   0  0  0  0  0  0  0  0  0  0  0  0
  1  2  1  0
  2  3  1  0
  3  4  1  0
  4  5  1  0
  5  6  2  0
  6  7  1  0
  7  8  2  0
  8  9  1  0
  9 10  2  0
 10 11  1  0
 11 12  1  0
 12 13  1  0
 13 14  1  0
 14 15  3  0
 13 16  2  3
 16 17  1  0
 17 18  2  0
 18 19  1  0
 19 20  2  0
 20 21  1  0
 12 22  2  0
  8 23  1  0
 23 24  2  0
 24  5  1  0
 22  9  1  0
 21 17  1  0
  1 25  1  0
  1 26  1  0
  1 27  1  0
  2 28  1  0
  2 29  1  0
  3 30  1  0
  3 31  1  0
  4 32  1  0
  4 33  1  0
  6 34  1  0
  7 35  1  0
 10 36  1  0
 16 37  1  0
 18 38  1  0
 19 39  1  0
 20 40  1  0
 23 41  1  0
 24 42  1  0
M  END
$$$$
