
     RDKit          3D

 42 43  0  0  0  0  0  0  0  0999 V2000
    4.9784   -1.2698   -1.1449 C   0  0  0  0  0  0  0  0  0  0  0  0
    3.8218   -1.1533   -0.2032 C   0  0  0  0  0  0  0  0  0  0  0  0
    3.0482   -2.5714    0.3418 S   0  0  0  0  0  0  0  0  0  0  0  0
    1.9453   -1.6916    1.2831 C   0  0  0  0  0  0  0  0  0  0  0  0
    1.0123   -2.3474    1.9943 N   0  0  0  0  0  0  0  0  0  0  0  0
    0.2124   -1.5322    2.6738 C   0  0  0  0  0  0  0  0  0  0  0  0
    0.2448   -0.1944    2.6893 N   0  0  0  0  0  0  0  0  0  0  0  0
    1.2225    0.4259    1.9871 C   0  0  0  0  0  0  0  0  0  0  0  0
    1.3058    2.1900    2.0948 S   0  0  0  0  0  0  0  0  0  0  0  0
   -0.4492    2.6053    1.8624 C   0  0  0  0  0  0  0  0  0  0  0  0
   -0.9195    2.1705    0.4851 C   0  0  0  0  0  0  0  0  0  0  0  0
   -0.6876    2.8226   -0.5297 O   0  0  0  0  0  0  0  0  0  0  0  0
   -1.6178    0.9782    0.4791 N   0  0  0  0  0  0  0  0  0  0  0  0
   -2.0301    0.3327   -0.7654 C   0  0  0  0  0  0  0  0  0  0  0  0
   -0.8393   -0.4292   -1.3551 C   0  0  0  0  0  0  0  0  0  0  0  0
   -3.2598   -0.5771   -0.5105 C   0  0  0  0  0  0  0  0  0  0  0  0
   -3.7028   -1.3324   -1.7670 C   0  0  0  0  0  0  0  0  0  0  0  0
   -4.4460    0.2412    0.0212 C   0  0  0  0  0  0  0  0  0  0  0  0
    2.1329   -0.3175    1.2126 C   0  0  0  0  0  0  0  0  0  0  0  0
    3.2467   -0.0019    0.3233 C   0  0  0  0  0  0  0  0  0  0  0  0
    3.7192    1.3827   -0.0053 C   0  0  0  0  0  0  0  0  0  0  0  0
    5.1912   -2.3072   -1.4233 H   0  0  0  0  0  0  0  0  0  0  0  0
    4.7739   -0.7145   -2.0661 H   0  0  0  0  0  0  0  0  0  0  0  0
    5.8822   -0.8560   -0.6847 H   0  0  0  0  0  0  0  0  0  0  0  0
   -0.5574   -2.0042    3.2771 H   0  0  0  0  0  0  0  0  0  0  0  0
   -1.0660    2.1610    2.6501 H   0  0  0  0  0  0  0  0  0  0  0  0
   -0.5724    3.6905    1.9363 H   0  0  0  0  0  0  0  0  0  0  0  0
   -1.5128    0.3886    1.2997 H   0  0  0  0  0  0  0  0  0  0  0  0
   -2.3086    1.1233   -1.4739 H   0  0  0  0  0  0  0  0  0  0  0  0
    0.0438    0.2141   -1.4375 H   0  0  0  0  0  0  0  0  0  0  0  0
   -0.5672   -1.2808   -0.7230 H   0  0  0  0  0  0  0  0  0  0  0  0
   -1.0577   -0.8028   -2.3600 H   0  0  0  0  0  0  0  0  0  0  0  0
   -3.0004   -1.3199    0.2560 H   0  0  0  0  0  0  0  0  0  0  0  0
   -2.9356   -2.0343   -2.1036 H   0  0  0  0  0  0  0  0  0  0  0  0
   -4.6068   -1.9185   -1.5709 H   0  0  0  0  0  0  0  0  0  0  0  0
   -3.9196   -0.6422   -2.5879 H   0  0  0  0  0  0  0  0  0  0  0  0
   -4.2067    0.7146    0.9789 H   0  0  0  0  0  0  0  0  0  0  0  0
   -5.3193   -0.3998    0.1857 H   0  0  0  0  0  0  0  0  0  0  0  0
   -4.7333    1.0285   -0.6841 H   0  0  0  0  0  0  0  0  0  0  0  0
    2.9081    1.9696   -0.4464 H   0  0  0  0  0  0  0  0  0  0  0  0
    4.0877    1.8855    0.8940 H   0  0  0  0  0  0  0  0  0  0  0  0
    4.5387    1.3736   -0.7309 H   0  0  0  0  0  0  0  0  0  0  0  0
  1  2  1  0
  2  3  1  0
  3  4  1  0
  4  5  2  0
  5  6  1  0
  6  7  2  0
  7  8  1  0
  8  9  1  0
  9 10  1  0
 10 11  1  0
 11 12  2  0
 11 13  1  0
 13 14  1  0
 14 15  1  0
 14 16  1  0
 16 17  1  0
 16 18  1  0
  8 19  2  0
 19 20  1  0
 20 21  1  0
 20  2  2  0
 19  4  1  0
  1 22  1  0
  1 23  1  0
  1 24  1  0
  6 25  1  0
 10 26  1  0
 10 27  1  0
 13 28  1  0
 14 29  1  0
 15 30  1  0
 15 31  1  0
 15 32  1  0
 16 33  1  0
 17 34  1  0
 17 35  1  0
 17 36  1  0
 18 37  1  0
 18 38  1  0
 18 39  1  0
 21 40  1  0
 21 41  1  0
 21 42  1  0
M  END
$$$$
