
     RDKit          3D

 45 47  0  0  0  0  0  0  0  0999 V2000
    1.4924   -2.2778    0.2346 O   0  0  0  0  0  0  0  0  0  0  0  0
    1.3325   -1.0677    0.2510 C   0  0  0  0  0  0  0  0  0  0  0  0
    2.0236   -0.1520   -0.5003 N   0  0  0  0  0  0  0  0  0  0  0  0
    2.9571   -0.5655   -1.5156 C   0  0  0  0  0  0  0  0  0  0  0  0
    3.8154    0.5886   -1.8694 C   0  0  0  0  0  0  0  0  0  0  0  0
    5.1622    0.8499   -1.7238 C   0  0  0  0  0  0  0  0  0  0  0  0
    5.3785    2.1429   -2.2580 C   0  0  0  0  0  0  0  0  0  0  0  0
    4.1524    2.5896   -2.6915 C   0  0  0  0  0  0  0  0  0  0  0  0
    3.1960    1.6549   -2.4576 O   0  0  0  0  0  0  0  0  0  0  0  0
    0.2861   -0.4357    1.1734 C   0  0  0  0  0  0  0  0  0  0  0  0
   -1.1461   -0.8011    0.9237 C   0  0  0  0  0  0  0  0  0  0  0  0
   -1.5730   -1.5147   -0.1305 C   0  0  0  0  0  0  0  0  0  0  0  0
   -3.0185   -1.8533   -0.3731 C   0  0  0  0  0  0  0  0  0  0  0  0
   -3.5330   -1.2403   -1.6527 C   0  0  0  0  0  0  0  0  0  0  0  0
   -3.5479   -1.9799   -2.8436 C   0  0  0  0  0  0  0  0  0  0  0  0
   -4.0046   -1.4022   -4.0293 C   0  0  0  0  0  0  0  0  0  0  0  0
   -4.4453   -0.0801   -4.0377 C   0  0  0  0  0  0  0  0  0  0  0  0
   -4.4283    0.6671   -2.8615 C   0  0  0  0  0  0  0  0  0  0  0  0
   -3.9720    0.0917   -1.6746 C   0  0  0  0  0  0  0  0  0  0  0  0
    0.7766    0.3528    2.0784 N   0  0  0  0  0  0  0  0  0  0  0  0
   -0.0740    1.0114    2.9269 C   0  0  0  0  0  0  0  0  0  0  0  0
   -1.0562    1.6461    2.5617 O   0  0  0  0  0  0  0  0  0  0  0  0
    0.3641    0.8843    4.3030 C   0  0  0  0  0  0  0  0  0  0  0  0
    1.4489    0.2512    4.8885 C   0  0  0  0  0  0  0  0  0  0  0  0
    1.3494    0.4684    6.2844 C   0  0  0  0  0  0  0  0  0  0  0  0
    0.2113    1.2159    6.4742 C   0  0  0  0  0  0  0  0  0  0  0  0
   -0.4421    1.8140    8.1573 Br  0  0  0  0  0  0  0  0  0  0  0  0
   -0.3918    1.4723    5.2843 O   0  0  0  0  0  0  0  0  0  0  0  0
    1.7592    0.8257   -0.4533 H   0  0  0  0  0  0  0  0  0  0  0  0
    3.5514   -1.4082   -1.1471 H   0  0  0  0  0  0  0  0  0  0  0  0
    2.3849   -0.9047   -2.3856 H   0  0  0  0  0  0  0  0  0  0  0  0
    5.8955    0.1872   -1.2843 H   0  0  0  0  0  0  0  0  0  0  0  0
    6.3115    2.6850   -2.3195 H   0  0  0  0  0  0  0  0  0  0  0  0
    3.8101    3.5008   -3.1624 H   0  0  0  0  0  0  0  0  0  0  0  0
   -1.8716   -0.4395    1.6447 H   0  0  0  0  0  0  0  0  0  0  0  0
   -0.8794   -1.8928   -0.8782 H   0  0  0  0  0  0  0  0  0  0  0  0
   -3.6523   -1.5275    0.4613 H   0  0  0  0  0  0  0  0  0  0  0  0
   -3.1237   -2.9447   -0.4151 H   0  0  0  0  0  0  0  0  0  0  0  0
   -3.2013   -3.0109   -2.8550 H   0  0  0  0  0  0  0  0  0  0  0  0
   -4.0145   -1.9838   -4.9476 H   0  0  0  0  0  0  0  0  0  0  0  0
   -4.8002    0.3690   -4.9615 H   0  0  0  0  0  0  0  0  0  0  0  0
   -4.7688    1.6994   -2.8682 H   0  0  0  0  0  0  0  0  0  0  0  0
   -3.9574    0.6897   -0.7658 H   0  0  0  0  0  0  0  0  0  0  0  0
    2.2183   -0.2974    4.3614 H   0  0  0  0  0  0  0  0  0  0  0  0
    2.0247    0.1219    7.0541 H   0  0  0  0  0  0  0  0  0  0  0  0
  1  2  2  0
  2  3  1  0
  3  4  1  0
  4  5  1  0
  5  6  2  0
  6  7  1  0
  7  8  2  0
  8  9  1  0
  2 10  1  0
 10 11  1  0
 11 12  2  3
 12 13  1  0
 13 14  1  0
 14 15  2  0
 15 16  1  0
 16 17  2  0
 17 18  1  0
 18 19  2  0
 10 20  2  3
 20 21  1  0
 21 22  2  0
 21 23  1  0
 23 24  2  0
 24 25  1  0
 25 26  2  0
 26 27  1  0
 26 28  1  0
  9  5  1  0
 19 14  1  0
 28 23  1  0
  3 29  1  0
  4 30  1  0
  4 31  1  0
  6 32  1  0
  7 33  1  0
  8 34  1  0
 11 35  1  0
 12 36  1  0
 13 37  1  0
 13 38  1  0
 15 39  1  0
 16 40  1  0
 17 41  1  0
 18 42  1  0
 19 43  1  0
 24 44  1  0
 25 45  1  0
M  END
$$$$
