
     RDKit          3D

 45 46  0  0  0  0  0  0  0  0999 V2000
   -7.0860   -2.8323    1.1228 C   0  0  0  0  0  0  0  0  0  0  0  0
   -6.0123   -2.1287    0.3123 C   0  0  0  0  0  0  0  0  0  0  0  0
   -5.6768   -0.9164    0.9856 O   0  0  0  0  0  0  0  0  0  0  0  0
   -4.7267   -0.1246    0.4022 C   0  0  0  0  0  0  0  0  0  0  0  0
   -4.0390   -0.4003   -0.7787 C   0  0  0  0  0  0  0  0  0  0  0  0
   -3.0858    0.5017   -1.2641 C   0  0  0  0  0  0  0  0  0  0  0  0
   -2.8097    1.6927   -0.5781 C   0  0  0  0  0  0  0  0  0  0  0  0
   -1.7582    2.6403   -1.0939 C   0  0  0  0  0  0  0  0  0  0  0  0
   -0.4394    2.1839   -0.7195 N   0  0  0  0  0  0  0  0  0  0  0  0
    0.3479    1.4962   -1.5953 C   0  0  0  0  0  0  0  0  0  0  0  0
    0.0755    1.3268   -2.7714 O   0  0  0  0  0  0  0  0  0  0  0  0
    1.4927    1.0029   -0.9911 N   0  0  0  0  0  0  0  0  0  0  0  0
    2.6219    0.0978   -1.8178 S   0  0  0  0  0  6  0  0  0  0  0  0
    2.0438   -1.1785   -2.1747 O   0  0  0  0  0  0  0  0  0  0  0  0
    3.2993    0.9444   -2.7745 O   0  0  0  0  0  0  0  0  0  0  0  0
    3.7831   -0.2186   -0.5005 C   0  0  0  0  0  0  0  0  0  0  0  0
    4.8937    0.6135   -0.3377 C   0  0  0  0  0  0  0  0  0  0  0  0
    5.7993    0.3642    0.6988 C   0  0  0  0  0  0  0  0  0  0  0  0
    5.5981   -0.7148    1.5634 C   0  0  0  0  0  0  0  0  0  0  0  0
    6.4020   -1.0631    2.6132 O   0  0  0  0  0  0  0  0  0  0  0  0
    7.5926   -0.3059    2.7931 C   0  0  0  0  0  0  0  0  0  0  0  0
    4.4864   -1.5453    1.3819 C   0  0  0  0  0  0  0  0  0  0  0  0
    3.5783   -1.3071    0.3491 C   0  0  0  0  0  0  0  0  0  0  0  0
   -3.4983    1.9610    0.6104 C   0  0  0  0  0  0  0  0  0  0  0  0
   -4.4502    1.0584    1.0914 C   0  0  0  0  0  0  0  0  0  0  0  0
   -7.3801   -3.7724    0.6476 H   0  0  0  0  0  0  0  0  0  0  0  0
   -6.7275   -3.0448    2.1355 H   0  0  0  0  0  0  0  0  0  0  0  0
   -7.9711   -2.1956    1.2251 H   0  0  0  0  0  0  0  0  0  0  0  0
   -6.4038   -1.9128   -0.6886 H   0  0  0  0  0  0  0  0  0  0  0  0
   -5.1336   -2.7800    0.2415 H   0  0  0  0  0  0  0  0  0  0  0  0
   -4.2147   -1.3071   -1.3477 H   0  0  0  0  0  0  0  0  0  0  0  0
   -2.5534    0.2659   -2.1855 H   0  0  0  0  0  0  0  0  0  0  0  0
   -1.8454    2.7502   -2.1806 H   0  0  0  0  0  0  0  0  0  0  0  0
   -1.8926    3.6354   -0.6556 H   0  0  0  0  0  0  0  0  0  0  0  0
   -0.2317    2.1320    0.2630 H   0  0  0  0  0  0  0  0  0  0  0  0
    1.6887    1.1891   -0.0191 H   0  0  0  0  0  0  0  0  0  0  0  0
    5.0663    1.4502   -1.0121 H   0  0  0  0  0  0  0  0  0  0  0  0
    6.6527    1.0272    0.8008 H   0  0  0  0  0  0  0  0  0  0  0  0
    7.3625    0.7374    3.0330 H   0  0  0  0  0  0  0  0  0  0  0  0
    8.2429   -0.3762    1.9148 H   0  0  0  0  0  0  0  0  0  0  0  0
    8.1340   -0.7314    3.6435 H   0  0  0  0  0  0  0  0  0  0  0  0
    4.3352   -2.3925    2.0478 H   0  0  0  0  0  0  0  0  0  0  0  0
    2.7288   -1.9730    0.2124 H   0  0  0  0  0  0  0  0  0  0  0  0
   -3.3055    2.8725    1.1710 H   0  0  0  0  0  0  0  0  0  0  0  0
   -4.9838    1.2779    2.0133 H   0  0  0  0  0  0  0  0  0  0  0  0
  1  2  1  0
  2  3  1  0
  3  4  1  0
  4  5  2  0
  5  6  1  0
  6  7  2  0
  7  8  1  0
  8  9  1  0
  9 10  1  0
 10 11  2  0
 10 12  1  0
 12 13  1  0
 13 14  2  0
 13 15  2  0
 13 16  1  0
 16 17  2  0
 17 18  1  0
 18 19  2  0
 19 20  1  0
 20 21  1  0
 19 22  1  0
 22 23  2  0
  7 24  1  0
 24 25  2  0
 25  4  1  0
 23 16  1  0
  1 26  1  0
  1 27  1  0
  1 28  1  0
  2 29  1  0
  2 30  1  0
  5 31  1  0
  6 32  1  0
  8 33  1  0
  8 34  1  0
  9 35  1  0
 12 36  1  0
 17 37  1  0
 18 38  1  0
 21 39  1  0
 21 40  1  0
 21 41  1  0
 22 42  1  0
 23 43  1  0
 24 44  1  0
 25 45  1  0
M  END
$$$$
