
     RDKit          3D

 58 61  0  0  0  0  0  0  0  0999 V2000
    8.3154    0.5730   -1.6578 C   0  0  0  0  0  0  0  0  0  0  0  0
    7.6538    1.6912   -1.0799 O   0  0  0  0  0  0  0  0  0  0  0  0
    6.3794    1.4892   -0.6280 C   0  0  0  0  0  0  0  0  0  0  0  0
    5.7426    2.6322   -0.1444 C   0  0  0  0  0  0  0  0  0  0  0  0
    4.4298    2.5695    0.3356 C   0  0  0  0  0  0  0  0  0  0  0  0
    3.7134    1.3599    0.3515 C   0  0  0  0  0  0  0  0  0  0  0  0
    2.3227    1.3398    0.8373 C   0  0  0  0  0  0  0  0  0  0  0  0
    1.3018    0.6909    0.1671 C   0  0  0  0  0  0  0  0  0  0  0  0
    0.0191    0.7329    0.7111 C   0  0  0  0  0  0  0  0  0  0  0  0
   -1.0215   -0.0201   -0.0209 C   0  0  0  0  0  0  0  0  0  0  0  0
   -1.2296    0.2096   -1.2048 O   0  0  0  0  0  0  0  0  0  0  0  0
   -1.6691   -0.9926    0.7076 N   0  0  0  0  0  0  0  0  0  0  0  0
   -2.6757   -1.8488    0.1053 C   0  0  0  0  0  0  0  0  0  0  0  0
   -4.0050   -1.1085   -0.1441 C   0  0  0  0  0  0  0  0  0  0  0  0
   -5.1044   -1.9904   -0.5787 N   0  0  0  0  0  0  0  0  0  0  0  0
   -4.7990   -2.6422   -1.8749 C   0  0  0  0  0  0  0  0  0  0  0  0
   -6.0740   -3.0551   -2.6268 C   0  0  0  0  0  0  0  0  0  0  0  0
   -6.8879   -1.9327   -2.9955 O   0  0  0  0  0  0  0  0  0  0  0  0
   -6.7501   -0.8229   -2.0978 C   0  0  0  0  0  0  0  0  0  0  0  0
   -6.3848   -1.2497   -0.6672 C   0  0  0  0  0  0  0  0  0  0  0  0
   -0.2526    1.4593    1.8909 C   0  0  0  0  0  0  0  0  0  0  0  0
   -1.5348    1.6171    2.4788 C   0  0  0  0  0  0  0  0  0  0  0  0
   -1.7044    2.3503    3.6516 C   0  0  0  0  0  0  0  0  0  0  0  0
   -0.6026    2.9435    4.2493 C   0  0  0  0  0  0  0  0  0  0  0  0
    0.6578    2.8080    3.6636 C   0  0  0  0  0  0  0  0  0  0  0  0
    0.8534    2.0855    2.4941 C   0  0  0  0  0  0  0  0  0  0  0  0
    2.0961    2.0229    1.9878 N   0  0  0  0  0  0  0  0  0  0  0  0
    4.3910    0.2121   -0.1003 C   0  0  0  0  0  0  0  0  0  0  0  0
    3.7647   -1.0133   -0.0884 O   0  0  0  0  0  0  0  0  0  0  0  0
    4.1924   -1.7693    1.0470 C   0  0  0  0  0  0  0  0  0  0  0  0
    5.6977    0.2753   -0.6080 C   0  0  0  0  0  0  0  0  0  0  0  0
    9.3042    0.9046   -1.9897 H   0  0  0  0  0  0  0  0  0  0  0  0
    8.4617   -0.2236   -0.9213 H   0  0  0  0  0  0  0  0  0  0  0  0
    7.7749    0.2059   -2.5363 H   0  0  0  0  0  0  0  0  0  0  0  0
    6.2666    3.5855   -0.1493 H   0  0  0  0  0  0  0  0  0  0  0  0
    3.9561    3.4834    0.6932 H   0  0  0  0  0  0  0  0  0  0  0  0
    1.4896    0.1582   -0.7609 H   0  0  0  0  0  0  0  0  0  0  0  0
   -1.3769   -1.1840    1.6584 H   0  0  0  0  0  0  0  0  0  0  0  0
   -2.8304   -2.6877    0.7928 H   0  0  0  0  0  0  0  0  0  0  0  0
   -2.2665   -2.2429   -0.8315 H   0  0  0  0  0  0  0  0  0  0  0  0
   -4.2921   -0.6334    0.8038 H   0  0  0  0  0  0  0  0  0  0  0  0
   -3.8550   -0.2940   -0.8644 H   0  0  0  0  0  0  0  0  0  0  0  0
   -4.1835   -3.5304   -1.6936 H   0  0  0  0  0  0  0  0  0  0  0  0
   -4.2314   -1.9597   -2.5219 H   0  0  0  0  0  0  0  0  0  0  0  0
   -6.6824   -3.7363   -2.0206 H   0  0  0  0  0  0  0  0  0  0  0  0
   -5.8123   -3.5859   -3.5480 H   0  0  0  0  0  0  0  0  0  0  0  0
   -7.7031   -0.2843   -2.0972 H   0  0  0  0  0  0  0  0  0  0  0  0
   -5.9937   -0.1435   -2.5068 H   0  0  0  0  0  0  0  0  0  0  0  0
   -7.1671   -1.9266   -0.3004 H   0  0  0  0  0  0  0  0  0  0  0  0
   -6.3973   -0.3802    0.0004 H   0  0  0  0  0  0  0  0  0  0  0  0
   -2.4182    1.1840    2.0146 H   0  0  0  0  0  0  0  0  0  0  0  0
   -2.6930    2.4639    4.0892 H   0  0  0  0  0  0  0  0  0  0  0  0
   -0.7174    3.5215    5.1627 H   0  0  0  0  0  0  0  0  0  0  0  0
    1.5153    3.2879    4.1313 H   0  0  0  0  0  0  0  0  0  0  0  0
    3.5402   -2.6437    1.1302 H   0  0  0  0  0  0  0  0  0  0  0  0
    4.1060   -1.1927    1.9762 H   0  0  0  0  0  0  0  0  0  0  0  0
    5.2196   -2.1234    0.9120 H   0  0  0  0  0  0  0  0  0  0  0  0
    6.1506   -0.6390   -0.9743 H   0  0  0  0  0  0  0  0  0  0  0  0
  1  2  1  0
  2  3  1  0
  3  4  2  0
  4  5  1  0
  5  6  2  0
  6  7  1  0
  7  8  2  0
  8  9  1  0
  9 10  1  0
 10 11  2  0
 10 12  1  0
 12 13  1  0
 13 14  1  0
 14 15  1  0
 15 16  1  0
 16 17  1  0
 17 18  1  0
 18 19  1  0
 19 20  1  0
  9 21  2  0
 21 22  1  0
 22 23  2  0
 23 24  1  0
 24 25  2  0
 25 26  1  0
 26 27  2  0
  6 28  1  0
 28 29  1  0
 29 30  1  0
 28 31  2  0
 31  3  1  0
 27  7  1  0
 20 15  1  0
 26 21  1  0
  1 32  1  0
  1 33  1  0
  1 34  1  0
  4 35  1  0
  5 36  1  0
  8 37  1  0
 12 38  1  0
 13 39  1  0
 13 40  1  0
 14 41  1  0
 14 42  1  0
 16 43  1  0
 16 44  1  0
 17 45  1  0
 17 46  1  0
 19 47  1  0
 19 48  1  0
 20 49  1  0
 20 50  1  0
 22 51  1  0
 23 52  1  0
 24 53  1  0
 25 54  1  0
 30 55  1  0
 30 56  1  0
 30 57  1  0
 31 58  1  0
M  END
$$$$
