
     RDKit          3D

 75 77  0  0  0  0  0  0  0  0999 V2000
   -3.9223    5.8923   -2.3980 C   0  0  0  0  0  0  0  0  0  0  0  0
   -2.9292    5.8235   -1.2512 C   0  0  0  0  0  0  0  0  0  0  0  0
   -2.6376    4.4490   -1.0023 O   0  0  0  0  0  0  0  0  0  0  0  0
   -1.7648    4.1696    0.0148 C   0  0  0  0  0  0  0  0  0  0  0  0
   -1.1804    5.0998    0.8671 C   0  0  0  0  0  0  0  0  0  0  0  0
   -0.3144    4.6665    1.8678 C   0  0  0  0  0  0  0  0  0  0  0  0
   -0.0328    3.3049    2.0181 C   0  0  0  0  0  0  0  0  0  0  0  0
   -0.6009    2.3437    1.1717 C   0  0  0  0  0  0  0  0  0  0  0  0
   -0.3186    0.9299    1.3486 N   0  0  0  0  0  0  0  0  0  0  0  0
    0.9527    0.5286    1.7946 C   0  0  0  0  0  0  0  0  0  0  0  0
    1.9061    1.3019    1.9479 O   0  0  0  0  0  0  0  0  0  0  0  0
    1.1841   -0.9475    2.1039 C   0  0  0  0  0  0  0  0  0  0  0  0
    2.6697   -1.2758    2.2302 C   0  0  0  0  0  0  0  0  0  0  0  0
    3.3413   -1.1713    0.8731 C   0  0  0  0  0  0  0  0  0  0  0  0
    3.0618   -1.9632   -0.0261 O   0  0  0  0  0  0  0  0  0  0  0  0
    4.2188   -0.1206    0.7778 N   0  0  0  0  0  0  0  0  0  0  0  0
    4.9843    0.1830   -0.3243 C   0  0  0  0  0  0  0  0  0  0  0  0
    5.0931   -0.4999   -1.5581 C   0  0  0  0  0  0  0  0  0  0  0  0
    5.9905    0.2400   -2.2868 C   0  0  0  0  0  0  0  0  0  0  0  0
    6.5564    0.1226   -3.6417 C   0  0  0  0  0  0  0  0  0  0  0  0
    6.4076    1.2941   -1.5359 O   0  0  0  0  0  0  0  0  0  0  0  0
    5.7793    1.2586   -0.3042 N   0  0  0  0  0  0  0  0  0  0  0  0
   -1.3799   -0.0296    0.9104 C   0  0  0  0  0  0  0  0  0  0  0  0
   -1.7578   -1.0366    2.0421 C   0  0  0  0  0  0  0  0  0  0  0  0
   -1.9157   -0.6508    3.2014 O   0  0  0  0  0  0  0  0  0  0  0  0
   -1.9088   -2.3636    1.6831 N   0  0  0  0  0  0  0  0  0  0  0  0
   -2.2504   -3.4562    2.6102 C   0  0  0  0  0  0  0  0  0  0  0  0
   -2.3710   -4.7520    1.7867 C   0  0  0  0  0  0  0  0  0  0  0  0
   -1.1513   -3.6509    3.6648 C   0  0  0  0  0  0  0  0  0  0  0  0
   -3.6042   -3.2015    3.2940 C   0  0  0  0  0  0  0  0  0  0  0  0
   -1.2190   -0.5957   -0.5053 C   0  0  0  0  0  0  0  0  0  0  0  0
   -2.3537   -1.1038   -1.1661 C   0  0  0  0  0  0  0  0  0  0  0  0
   -2.2592   -1.6443   -2.4514 C   0  0  0  0  0  0  0  0  0  0  0  0
   -1.0370   -1.6763   -3.1212 C   0  0  0  0  0  0  0  0  0  0  0  0
   -1.0814   -2.2303   -4.3688 O   0  0  0  0  0  0  0  0  0  0  0  0
    0.1160   -2.1788   -5.1351 C   0  0  0  0  0  0  0  0  0  0  0  0
    0.0909   -1.1583   -2.4906 C   0  0  0  0  0  0  0  0  0  0  0  0
   -0.0022   -0.6160   -1.2013 C   0  0  0  0  0  0  0  0  0  0  0  0
   -1.4719    2.8062    0.1712 C   0  0  0  0  0  0  0  0  0  0  0  0
   -3.5115    5.4163   -3.2950 H   0  0  0  0  0  0  0  0  0  0  0  0
   -4.1765    6.9300   -2.6328 H   0  0  0  0  0  0  0  0  0  0  0  0
   -4.8392    5.3538   -2.1399 H   0  0  0  0  0  0  0  0  0  0  0  0
   -3.3820    6.2842   -0.3651 H   0  0  0  0  0  0  0  0  0  0  0  0
   -2.0149    6.3589   -1.5319 H   0  0  0  0  0  0  0  0  0  0  0  0
   -1.3769    6.1624    0.7843 H   0  0  0  0  0  0  0  0  0  0  0  0
    0.1362    5.3861    2.5485 H   0  0  0  0  0  0  0  0  0  0  0  0
    0.6154    3.0149    2.8421 H   0  0  0  0  0  0  0  0  0  0  0  0
    0.7510   -1.5859    1.3335 H   0  0  0  0  0  0  0  0  0  0  0  0
    0.7087   -1.1640    3.0650 H   0  0  0  0  0  0  0  0  0  0  0  0
    2.7955   -2.3081    2.5771 H   0  0  0  0  0  0  0  0  0  0  0  0
    3.1643   -0.6327    2.9667 H   0  0  0  0  0  0  0  0  0  0  0  0
    4.2652    0.5743    1.5174 H   0  0  0  0  0  0  0  0  0  0  0  0
    4.5825   -1.3939   -1.8776 H   0  0  0  0  0  0  0  0  0  0  0  0
    7.0222    1.0603   -3.9603 H   0  0  0  0  0  0  0  0  0  0  0  0
    5.7726   -0.1235   -4.3650 H   0  0  0  0  0  0  0  0  0  0  0  0
    7.3148   -0.6664   -3.6716 H   0  0  0  0  0  0  0  0  0  0  0  0
   -2.3155    0.5491    0.8704 H   0  0  0  0  0  0  0  0  0  0  0  0
   -1.5564   -2.6449    0.7729 H   0  0  0  0  0  0  0  0  0  0  0  0
   -1.4318   -4.9821    1.2696 H   0  0  0  0  0  0  0  0  0  0  0  0
   -2.6206   -5.6080    2.4232 H   0  0  0  0  0  0  0  0  0  0  0  0
   -3.1510   -4.6602    1.0214 H   0  0  0  0  0  0  0  0  0  0  0  0
   -0.1806   -3.8340    3.1911 H   0  0  0  0  0  0  0  0  0  0  0  0
   -1.3737   -4.5052    4.3136 H   0  0  0  0  0  0  0  0  0  0  0  0
   -1.0390   -2.7735    4.3089 H   0  0  0  0  0  0  0  0  0  0  0  0
   -3.5661   -2.3436    3.9729 H   0  0  0  0  0  0  0  0  0  0  0  0
   -4.3878   -2.9977    2.5544 H   0  0  0  0  0  0  0  0  0  0  0  0
   -3.9174   -4.0688    3.8861 H   0  0  0  0  0  0  0  0  0  0  0  0
   -3.3296   -1.0878   -0.6826 H   0  0  0  0  0  0  0  0  0  0  0  0
   -3.1485   -2.0386   -2.9375 H   0  0  0  0  0  0  0  0  0  0  0  0
    0.4473   -1.1467   -5.2830 H   0  0  0  0  0  0  0  0  0  0  0  0
    0.9032   -2.7869   -4.6761 H   0  0  0  0  0  0  0  0  0  0  0  0
   -0.1010   -2.6005   -6.1204 H   0  0  0  0  0  0  0  0  0  0  0  0
    1.0654   -1.1548   -2.9685 H   0  0  0  0  0  0  0  0  0  0  0  0
    0.9066   -0.2014   -0.7740 H   0  0  0  0  0  0  0  0  0  0  0  0
   -1.9194    2.1282   -0.5490 H   0  0  0  0  0  0  0  0  0  0  0  0
  1  2  1  0
  2  3  1  0
  3  4  1  0
  4  5  2  0
  5  6  1  0
  6  7  2  0
  7  8  1  0
  8  9  1  0
  9 10  1  0
 10 11  2  0
 10 12  1  0
 12 13  1  0
 13 14  1  0
 14 15  2  0
 14 16  1  0
 16 17  1  0
 17 18  1  0
 18 19  2  0
 19 20  1  0
 19 21  1  0
 21 22  1  0
  9 23  1  0
 23 24  1  0
 24 25  2  0
 24 26  1  0
 26 27  1  0
 27 28  1  0
 27 29  1  0
 27 30  1  0
 23 31  1  0
 31 32  2  0
 32 33  1  0
 33 34  2  0
 34 35  1  0
 35 36  1  0
 34 37  1  0
 37 38  2  0
  8 39  2  0
 39  4  1  0
 22 17  2  0
 38 31  1  0
  1 40  1  0
  1 41  1  0
  1 42  1  0
  2 43  1  0
  2 44  1  0
  5 45  1  0
  6 46  1  0
  7 47  1  0
 12 48  1  0
 12 49  1  0
 13 50  1  0
 13 51  1  0
 16 52  1  0
 18 53  1  0
 20 54  1  0
 20 55  1  0
 20 56  1  0
 23 57  1  0
 26 58  1  0
 28 59  1  0
 28 60  1  0
 28 61  1  0
 29 62  1  0
 29 63  1  0
 29 64  1  0
 30 65  1  0
 30 66  1  0
 30 67  1  0
 32 68  1  0
 33 69  1  0
 36 70  1  0
 36 71  1  0
 36 72  1  0
 37 73  1  0
 38 74  1  0
 39 75  1  0
M  END
$$$$
