
     RDKit          3D

 32 35  0  0  0  0  0  0  0  0999 V2000
   -4.2399    2.7459   -0.5347 C   0  0  0  0  0  0  0  0  0  0  0  0
   -4.9521    1.5626   -0.1993 O   0  0  0  0  0  0  0  0  0  0  0  0
   -4.1808    0.4381    0.0797 C   0  0  0  0  0  0  0  0  0  0  0  0
   -4.9492   -0.6893    0.4130 C   0  0  0  0  0  0  0  0  0  0  0  0
   -4.3482   -1.9035    0.7224 C   0  0  0  0  0  0  0  0  0  0  0  0
   -2.9599   -2.0288    0.7084 C   0  0  0  0  0  0  0  0  0  0  0  0
   -2.1903   -0.9012    0.3740 C   0  0  0  0  0  0  0  0  0  0  0  0
   -0.4799   -0.7755    0.2764 S   0  0  0  0  0  0  0  0  0  0  0  0
   -0.5992    0.8795   -0.1741 C   0  0  0  0  0  0  0  0  0  0  0  0
    0.4351    1.7057   -0.4479 N   0  0  0  0  0  0  0  0  0  0  0  0
    1.7658    1.5231   -0.4609 C   0  0  0  0  0  0  0  0  0  0  0  0
    2.6952    2.4018   -0.7680 N   0  0  0  0  0  0  0  0  0  0  0  0
    3.9080    1.7598   -0.6357 N   0  0  0  0  0  0  0  0  0  0  0  0
    3.6478    0.5226   -0.2544 C   0  0  0  0  0  0  0  0  0  0  0  0
    4.6275   -0.4940    0.0024 C   0  0  0  0  0  0  0  0  0  0  0  0
    4.3835   -1.7946    0.4046 C   0  0  0  0  0  0  0  0  0  0  0  0
    5.5818   -2.5498    0.5729 C   0  0  0  0  0  0  0  0  0  0  0  0
    6.7029   -1.8012    0.2947 C   0  0  0  0  0  0  0  0  0  0  0  0
    6.3076   -0.2027   -0.1669 S   0  0  0  0  0  0  0  0  0  0  0  0
    2.2948    0.3109   -0.1246 O   0  0  0  0  0  0  0  0  0  0  0  0
   -1.8335    1.3245   -0.2452 N   0  0  0  0  0  0  0  0  0  0  0  0
   -2.7631    0.3330    0.0586 C   0  0  0  0  0  0  0  0  0  0  0  0
   -3.6685    2.6161   -1.4593 H   0  0  0  0  0  0  0  0  0  0  0  0
   -4.9779    3.5337   -0.7164 H   0  0  0  0  0  0  0  0  0  0  0  0
   -3.6085    3.0781    0.2952 H   0  0  0  0  0  0  0  0  0  0  0  0
   -6.0340   -0.6067    0.4280 H   0  0  0  0  0  0  0  0  0  0  0  0
   -4.9660   -2.7618    0.9768 H   0  0  0  0  0  0  0  0  0  0  0  0
   -2.4873   -2.9764    0.9500 H   0  0  0  0  0  0  0  0  0  0  0  0
    0.1445    2.6415   -0.7053 H   0  0  0  0  0  0  0  0  0  0  0  0
    3.3884   -2.1908    0.5721 H   0  0  0  0  0  0  0  0  0  0  0  0
    5.6184   -3.5872    0.8826 H   0  0  0  0  0  0  0  0  0  0  0  0
    7.7372   -2.1136    0.3395 H   0  0  0  0  0  0  0  0  0  0  0  0
  1  2  1  0
  2  3  1  0
  3  4  2  0
  4  5  1  0
  5  6  2  0
  6  7  1  0
  7  8  1  0
  8  9  1  0
  9 10  1  0
 10 11  1  0
 11 12  2  0
 12 13  1  0
 13 14  2  0
 14 15  1  0
 15 16  2  0
 16 17  1  0
 17 18  2  0
 18 19  1  0
 14 20  1  0
  9 21  2  0
 21 22  1  0
 22  3  1  0
 22  7  2  0
 20 11  1  0
 19 15  1  0
  1 23  1  0
  1 24  1  0
  1 25  1  0
  4 26  1  0
  5 27  1  0
  6 28  1  0
 10 29  1  0
 16 30  1  0
 17 31  1  0
 18 32  1  0
M  END
$$$$
