
     RDKit          3D

 37 39  0  0  0  0  0  0  0  0999 V2000
    0.3601   -2.4960   -2.6514 C   0  0  0  0  0  0  0  0  0  0  0  0
   -1.0639   -2.3995   -2.8134 O   0  0  0  0  0  0  0  0  0  0  0  0
   -1.6257   -1.2434   -2.2925 C   0  0  0  0  0  0  0  0  0  0  0  0
   -2.7993   -0.8317   -2.9340 C   0  0  0  0  0  0  0  0  0  0  0  0
   -3.4730    0.3127   -2.5349 C   0  0  0  0  0  0  0  0  0  0  0  0
   -2.9928    1.0694   -1.4777 C   0  0  0  0  0  0  0  0  0  0  0  0
   -3.6614    2.1927   -1.0635 O   0  0  0  0  0  0  0  0  0  0  0  0
   -3.6729    3.1954   -2.0858 C   0  0  0  0  0  0  0  0  0  0  0  0
   -1.8478    0.6234   -0.7835 C   0  0  0  0  0  0  0  0  0  0  0  0
   -1.0743    1.3067    0.5923 S   0  0  0  0  0  0  0  0  0  0  0  0
    0.1166    0.0533    0.6077 C   0  0  0  0  0  0  0  0  0  0  0  0
    1.1000   -0.0610    1.5630 N   0  0  0  0  0  0  0  0  0  0  0  0
    2.1145   -1.0960    1.3078 C   0  0  0  0  0  0  0  0  0  0  0  0
    2.8519   -1.4620    2.5975 C   0  0  0  0  0  0  0  0  0  0  0  0
    3.4438   -0.2270    3.2667 C   0  0  0  0  0  0  0  0  0  0  0  0
    2.3441    0.7998    3.5131 C   0  0  0  0  0  0  0  0  0  0  0  0
    1.6004    1.1532    2.2227 C   0  0  0  0  0  0  0  0  0  0  0  0
   -0.0368   -0.8084   -0.3782 N   0  0  0  0  0  0  0  0  0  0  0  0
   -1.1474   -0.5175   -1.1700 C   0  0  0  0  0  0  0  0  0  0  0  0
    0.7237   -3.1951   -3.3980 H   0  0  0  0  0  0  0  0  0  0  0  0
    0.8712   -1.5354   -2.8351 H   0  0  0  0  0  0  0  0  0  0  0  0
    0.6241   -2.9000   -1.6657 H   0  0  0  0  0  0  0  0  0  0  0  0
   -3.1824   -1.4179   -3.7583 H   0  0  0  0  0  0  0  0  0  0  0  0
   -4.3835    0.6098   -3.0503 H   0  0  0  0  0  0  0  0  0  0  0  0
   -2.7071    3.2698   -2.6041 H   0  0  0  0  0  0  0  0  0  0  0  0
   -4.4835    3.0014   -2.7937 H   0  0  0  0  0  0  0  0  0  0  0  0
   -3.8733    4.1589   -1.6026 H   0  0  0  0  0  0  0  0  0  0  0  0
    2.8307   -0.7373    0.5513 H   0  0  0  0  0  0  0  0  0  0  0  0
    1.6546   -2.0180    0.9209 H   0  0  0  0  0  0  0  0  0  0  0  0
    3.6480   -2.1834    2.3790 H   0  0  0  0  0  0  0  0  0  0  0  0
    2.1503   -1.9516    3.2893 H   0  0  0  0  0  0  0  0  0  0  0  0
    3.9153   -0.5068    4.2151 H   0  0  0  0  0  0  0  0  0  0  0  0
    4.2239    0.2085    2.6259 H   0  0  0  0  0  0  0  0  0  0  0  0
    1.6274    0.3964    4.2457 H   0  0  0  0  0  0  0  0  0  0  0  0
    2.7781    1.7072    3.9540 H   0  0  0  0  0  0  0  0  0  0  0  0
    2.2626    1.6991    1.5359 H   0  0  0  0  0  0  0  0  0  0  0  0
    0.7838    1.8303    2.5051 H   0  0  0  0  0  0  0  0  0  0  0  0
  1  2  1  0
  2  3  1  0
  3  4  2  0
  4  5  1  0
  5  6  2  0
  6  7  1  0
  7  8  1  0
  6  9  1  0
  9 10  1  0
 10 11  1  0
 11 12  1  0
 12 13  1  0
 13 14  1  0
 14 15  1  0
 15 16  1  0
 16 17  1  0
 11 18  2  0
 18 19  1  0
 19  3  1  0
 19  9  2  0
 17 12  1  0
  1 20  1  0
  1 21  1  0
  1 22  1  0
  4 23  1  0
  5 24  1  0
  8 25  1  0
  8 26  1  0
  8 27  1  0
 13 28  1  0
 13 29  1  0
 14 30  1  0
 14 31  1  0
 15 32  1  0
 15 33  1  0
 16 34  1  0
 16 35  1  0
 17 36  1  0
 17 37  1  0
M  END
$$$$
