
     RDKit          3D

 47 49  0  0  0  0  0  0  0  0999 V2000
    6.5013   -1.9754    2.1152 C   0  0  0  0  0  0  0  0  0  0  0  0
    6.1633   -1.4105    0.7448 C   0  0  0  0  0  0  0  0  0  0  0  0
    5.0790   -0.3378    0.8336 C   0  0  0  0  0  0  0  0  0  0  0  0
    4.7411    0.2263   -0.5494 C   0  0  0  0  0  0  0  0  0  0  0  0
    3.7053    1.2582   -0.4715 N   0  0  0  0  0  0  0  0  0  0  0  0
    2.3757    0.8635   -0.4944 C   0  0  0  0  0  0  0  0  0  0  0  0
    1.9908   -0.2940   -0.5904 O   0  0  0  0  0  0  0  0  0  0  0  0
    1.4758    2.0489   -0.3747 C   0  0  0  0  0  0  0  0  0  0  0  0
    0.1331    2.0936   -0.3720 C   0  0  0  0  0  0  0  0  0  0  0  0
   -0.7840    0.9676   -0.4710 C   0  0  0  0  0  0  0  0  0  0  0  0
   -2.1393    0.9606   -0.5395 C   0  0  0  0  0  0  0  0  0  0  0  0
   -2.8838    2.2220   -0.5496 C   0  0  0  0  0  0  0  0  0  0  0  0
   -4.2194    2.2836   -0.5054 C   0  0  0  0  0  0  0  0  0  0  0  0
   -4.9985    1.0515   -0.4308 C   0  0  0  0  0  0  0  0  0  0  0  0
   -6.3952    1.1356   -0.3129 C   0  0  0  0  0  0  0  0  0  0  0  0
   -7.1646   -0.0202   -0.2364 C   0  0  0  0  0  0  0  0  0  0  0  0
   -6.5399   -1.2595   -0.2737 C   0  0  0  0  0  0  0  0  0  0  0  0
   -5.1466   -1.3451   -0.3945 C   0  0  0  0  0  0  0  0  0  0  0  0
   -4.3363   -0.1971   -0.4865 C   0  0  0  0  0  0  0  0  0  0  0  0
   -2.9097   -0.2343   -0.6120 N   0  0  0  0  0  0  0  0  0  0  0  0
   -2.2996   -1.5542   -0.8743 C   0  0  0  0  0  0  0  0  0  0  0  0
   -1.9269   -2.2629    0.4218 C   0  0  0  0  0  0  0  0  0  0  0  0
    2.4337    3.4820   -0.2303 S   0  0  0  0  0  0  0  0  0  0  0  0
    3.9529    2.6043   -0.3108 C   0  0  0  0  0  0  0  0  0  0  0  0
    5.4264    3.3791   -0.2004 S   0  0  0  0  0  0  0  0  0  0  0  0
    6.8704   -1.1903    2.7830 H   0  0  0  0  0  0  0  0  0  0  0  0
    5.6221   -2.4351    2.5778 H   0  0  0  0  0  0  0  0  0  0  0  0
    7.2789   -2.7408    2.0285 H   0  0  0  0  0  0  0  0  0  0  0  0
    5.8285   -2.2255    0.0926 H   0  0  0  0  0  0  0  0  0  0  0  0
    7.0699   -0.9873    0.2969 H   0  0  0  0  0  0  0  0  0  0  0  0
    4.1765   -0.7624    1.2905 H   0  0  0  0  0  0  0  0  0  0  0  0
    5.4126    0.4701    1.4958 H   0  0  0  0  0  0  0  0  0  0  0  0
    4.3835   -0.5827   -1.1978 H   0  0  0  0  0  0  0  0  0  0  0  0
    5.6394    0.6369   -1.0213 H   0  0  0  0  0  0  0  0  0  0  0  0
   -0.3222    3.0747   -0.2704 H   0  0  0  0  0  0  0  0  0  0  0  0
   -0.2850    0.0053   -0.4561 H   0  0  0  0  0  0  0  0  0  0  0  0
   -2.3514    3.1626   -0.6065 H   0  0  0  0  0  0  0  0  0  0  0  0
   -4.7360    3.2359   -0.5187 H   0  0  0  0  0  0  0  0  0  0  0  0
   -6.8890    2.1032   -0.2770 H   0  0  0  0  0  0  0  0  0  0  0  0
   -8.2448    0.0468   -0.1425 H   0  0  0  0  0  0  0  0  0  0  0  0
   -7.1322   -2.1685   -0.2046 H   0  0  0  0  0  0  0  0  0  0  0  0
   -4.7244   -2.3439   -0.3970 H   0  0  0  0  0  0  0  0  0  0  0  0
   -2.9461   -2.1907   -1.4896 H   0  0  0  0  0  0  0  0  0  0  0  0
   -1.4032   -1.4458   -1.4972 H   0  0  0  0  0  0  0  0  0  0  0  0
   -1.2105   -1.6779    1.0070 H   0  0  0  0  0  0  0  0  0  0  0  0
   -2.8018   -2.4375    1.0552 H   0  0  0  0  0  0  0  0  0  0  0  0
   -1.4698   -3.2328    0.2018 H   0  0  0  0  0  0  0  0  0  0  0  0
  1  2  1  0
  2  3  1  0
  3  4  1  0
  4  5  1  0
  5  6  1  0
  6  7  2  0
  6  8  1  0
  8  9  2  3
  9 10  1  0
 10 11  2  3
 11 12  1  0
 12 13  2  0
 13 14  1  0
 14 15  2  0
 15 16  1  0
 16 17  2  0
 17 18  1  0
 18 19  2  0
 19 20  1  0
 20 21  1  0
 21 22  1  0
  8 23  1  0
 23 24  1  0
 24 25  2  0
 24  5  1  0
 20 11  1  0
 19 14  1  0
  1 26  1  0
  1 27  1  0
  1 28  1  0
  2 29  1  0
  2 30  1  0
  3 31  1  0
  3 32  1  0
  4 33  1  0
  4 34  1  0
  9 35  1  0
 10 36  1  0
 12 37  1  0
 13 38  1  0
 15 39  1  0
 16 40  1  0
 17 41  1  0
 18 42  1  0
 21 43  1  0
 21 44  1  0
 22 45  1  0
 22 46  1  0
 22 47  1  0
M  END
$$$$
