
     RDKit          3D

 35 36  0  0  0  0  0  0  0  0999 V2000
   -5.9377   -0.1266   -0.4189 C   0  0  0  0  0  0  0  0  0  0  0  0
   -4.4466   -0.1819   -0.2685 C   0  0  0  0  0  0  0  0  0  0  0  0
   -3.6351    0.7891   -0.8635 C   0  0  0  0  0  0  0  0  0  0  0  0
   -2.2439    0.7596   -0.7012 C   0  0  0  0  0  0  0  0  0  0  0  0
   -1.6425   -0.2319    0.0809 C   0  0  0  0  0  0  0  0  0  0  0  0
   -0.2267   -0.3103    0.2727 N   0  0  0  0  0  0  0  0  0  0  0  0
    0.3018   -1.4767    0.7137 N   0  0  0  0  0  0  0  0  0  0  0  0
    1.6267   -1.3453    0.6038 C   0  0  0  0  0  0  0  0  0  0  0  0
    2.4636   -2.5222    0.9469 C   0  0  0  0  0  0  0  0  0  0  0  0
    1.9817   -0.0350    0.1978 C   0  0  0  0  0  0  0  0  0  0  0  0
    3.1926    0.6010   -0.0322 N   0  0  0  0  0  0  0  0  0  0  0  0
    4.4585    0.0567   -0.0215 C   0  0  0  0  0  0  0  0  0  0  0  0
    4.7385   -1.1171    0.2071 O   0  0  0  0  0  0  0  0  0  0  0  0
    5.5830    1.0525   -0.2708 C   0  0  0  0  0  0  0  0  0  0  0  0
    5.0193    2.5571   -1.0385 Cl  0  0  0  0  0  0  0  0  0  0  0  0
    0.7728    0.6403    0.0834 C   0  0  0  0  0  0  0  0  0  0  0  0
    0.5298    2.0920   -0.1379 C   0  0  0  0  0  0  0  0  0  0  0  0
   -2.4602   -1.2126    0.6677 C   0  0  0  0  0  0  0  0  0  0  0  0
   -3.8485   -1.1794    0.5051 C   0  0  0  0  0  0  0  0  0  0  0  0
   -6.2172    0.3081   -1.3843 H   0  0  0  0  0  0  0  0  0  0  0  0
   -6.3720    0.4801    0.3816 H   0  0  0  0  0  0  0  0  0  0  0  0
   -6.3724   -1.1309   -0.3775 H   0  0  0  0  0  0  0  0  0  0  0  0
   -4.0806    1.5720   -1.4742 H   0  0  0  0  0  0  0  0  0  0  0  0
   -1.6700    1.5024   -1.2406 H   0  0  0  0  0  0  0  0  0  0  0  0
    3.1708   -2.2778    1.7448 H   0  0  0  0  0  0  0  0  0  0  0  0
    1.8498   -3.3548    1.3097 H   0  0  0  0  0  0  0  0  0  0  0  0
    3.0035   -2.8832    0.0667 H   0  0  0  0  0  0  0  0  0  0  0  0
    3.1381    1.5736   -0.3154 H   0  0  0  0  0  0  0  0  0  0  0  0
    6.3209    0.5993   -0.9380 H   0  0  0  0  0  0  0  0  0  0  0  0
    6.0504    1.3091    0.6834 H   0  0  0  0  0  0  0  0  0  0  0  0
    1.3671    2.6910    0.2357 H   0  0  0  0  0  0  0  0  0  0  0  0
    0.4219    2.3085   -1.2048 H   0  0  0  0  0  0  0  0  0  0  0  0
   -0.3527    2.4455    0.4035 H   0  0  0  0  0  0  0  0  0  0  0  0
   -2.0292   -2.0090    1.2731 H   0  0  0  0  0  0  0  0  0  0  0  0
   -4.4554   -1.9434    0.9861 H   0  0  0  0  0  0  0  0  0  0  0  0
  1  2  1  0
  2  3  2  0
  3  4  1  0
  4  5  2  0
  5  6  1  0
  6  7  1  0
  7  8  2  0
  8  9  1  0
  8 10  1  0
 10 11  1  0
 11 12  1  0
 12 13  2  0
 12 14  1  0
 14 15  1  0
 10 16  2  0
 16 17  1  0
  5 18  1  0
 18 19  2  0
 19  2  1  0
 16  6  1  0
  1 20  1  0
  1 21  1  0
  1 22  1  0
  3 23  1  0
  4 24  1  0
  9 25  1  0
  9 26  1  0
  9 27  1  0
 11 28  1  0
 14 29  1  0
 14 30  1  0
 17 31  1  0
 17 32  1  0
 17 33  1  0
 18 34  1  0
 19 35  1  0
M  END
$$$$
