
     RDKit          3D

 37 39  0  0  0  0  0  0  0  0999 V2000
   -5.1588    1.6968   -0.1547 C   0  0  0  0  0  0  0  0  0  0  0  0
   -4.1427    0.7551   -0.7301 C   0  0  0  0  0  0  0  0  0  0  0  0
   -4.4083    0.0192   -1.8194 C   0  0  0  0  0  0  0  0  0  0  0  0
   -3.4468   -0.9173   -2.4213 C   0  0  0  0  0  0  0  0  0  0  0  0
   -3.7458   -1.5682   -3.4158 O   0  0  0  0  0  0  0  0  0  0  0  0
   -2.2098   -1.0216   -1.8106 O   0  0  0  0  0  0  0  0  0  0  0  0
   -1.8970   -0.2637   -0.6637 C   0  0  0  0  0  0  0  0  0  0  0  0
   -0.6165   -0.4528   -0.1331 C   0  0  0  0  0  0  0  0  0  0  0  0
   -0.2383    0.2568    1.0008 C   0  0  0  0  0  0  0  0  0  0  0  0
    0.9705    0.1937    1.6329 O   0  0  0  0  0  0  0  0  0  0  0  0
    1.8756   -0.8693    1.2992 C   0  0  0  0  0  0  0  0  0  0  0  0
    2.7519   -1.1350    2.5308 C   0  0  0  0  0  0  0  0  0  0  0  0
    2.8174   -0.4787    3.5599 O   0  0  0  0  0  0  0  0  0  0  0  0
    3.5016   -2.2581    2.4162 O   0  0  0  0  0  0  0  0  0  0  0  0
    2.7376   -0.5080    0.0986 C   0  0  0  0  0  0  0  0  0  0  0  0
    3.2115    0.8005   -0.0884 C   0  0  0  0  0  0  0  0  0  0  0  0
    4.0118    1.1155   -1.1874 C   0  0  0  0  0  0  0  0  0  0  0  0
    4.3545    0.1273   -2.1076 C   0  0  0  0  0  0  0  0  0  0  0  0
    3.9010   -1.1779   -1.9289 C   0  0  0  0  0  0  0  0  0  0  0  0
    3.1001   -1.4961   -0.8309 C   0  0  0  0  0  0  0  0  0  0  0  0
   -1.1443    1.1545    1.5722 C   0  0  0  0  0  0  0  0  0  0  0  0
   -2.4236    1.3347    1.0301 C   0  0  0  0  0  0  0  0  0  0  0  0
   -2.8210    0.6205   -0.1036 C   0  0  0  0  0  0  0  0  0  0  0  0
   -6.0929    1.6874   -0.7274 H   0  0  0  0  0  0  0  0  0  0  0  0
   -5.4080    1.4185    0.8749 H   0  0  0  0  0  0  0  0  0  0  0  0
   -4.7844    2.7260   -0.1635 H   0  0  0  0  0  0  0  0  0  0  0  0
   -5.3638    0.0718   -2.3292 H   0  0  0  0  0  0  0  0  0  0  0  0
    0.0501   -1.1410   -0.6394 H   0  0  0  0  0  0  0  0  0  0  0  0
    1.3096   -1.7957    1.1329 H   0  0  0  0  0  0  0  0  0  0  0  0
    4.0125   -2.2795    3.2529 H   0  0  0  0  0  0  0  0  0  0  0  0
    2.9542    1.5853    0.6213 H   0  0  0  0  0  0  0  0  0  0  0  0
    4.3676    2.1335   -1.3248 H   0  0  0  0  0  0  0  0  0  0  0  0
    4.9776    0.3742   -2.9633 H   0  0  0  0  0  0  0  0  0  0  0  0
    4.1735   -1.9495   -2.6446 H   0  0  0  0  0  0  0  0  0  0  0  0
    2.7648   -2.5236   -0.7038 H   0  0  0  0  0  0  0  0  0  0  0  0
   -0.8525    1.7215    2.4544 H   0  0  0  0  0  0  0  0  0  0  0  0
   -3.0890    2.0432    1.5158 H   0  0  0  0  0  0  0  0  0  0  0  0
  1  2  1  0
  2  3  2  0
  3  4  1  0
  4  5  2  0
  4  6  1  0
  6  7  1  0
  7  8  2  0
  8  9  1  0
  9 10  1  0
 10 11  1  0
 11 12  1  0
 12 13  2  0
 12 14  1  0
 11 15  1  0
 15 16  2  0
 16 17  1  0
 17 18  2  0
 18 19  1  0
 19 20  2  0
  9 21  2  0
 21 22  1  0
 22 23  2  0
 23  2  1  0
 23  7  1  0
 20 15  1  0
  1 24  1  0
  1 25  1  0
  1 26  1  0
  3 27  1  0
  8 28  1  0
 11 29  1  0
 14 30  1  0
 16 31  1  0
 17 32  1  0
 18 33  1  0
 19 34  1  0
 20 35  1  0
 21 36  1  0
 22 37  1  0
M  END
$$$$
