
     RDKit          3D

 45 47  0  0  0  0  0  0  0  0999 V2000
    3.7697    0.2124   -4.2200 C   0  0  0  0  0  0  0  0  0  0  0  0
    2.8559    0.8501   -3.2031 C   0  0  0  0  0  0  0  0  0  0  0  0
    2.0879    1.7475   -3.5309 O   0  0  0  0  0  0  0  0  0  0  0  0
    3.0148    0.3107   -1.9389 N   0  0  0  0  0  0  0  0  0  0  0  0
    2.3144    0.6575   -0.7647 C   0  0  0  0  0  0  0  0  0  0  0  0
    2.5658   -0.1107    0.3807 C   0  0  0  0  0  0  0  0  0  0  0  0
    1.8842    0.1430    1.5759 C   0  0  0  0  0  0  0  0  0  0  0  0
    0.9304    1.1633    1.6237 C   0  0  0  0  0  0  0  0  0  0  0  0
    0.0603    1.4916    3.1404 S   0  0  0  0  0  6  0  0  0  0  0  0
    0.9930    1.2253    4.2167 O   0  0  0  0  0  0  0  0  0  0  0  0
   -0.5606    2.7913    3.0226 O   0  0  0  0  0  0  0  0  0  0  0  0
   -1.1073    0.3060    3.1735 N   0  0  0  0  0  0  0  0  0  0  0  0
   -0.7800   -0.9716    3.8045 C   0  0  0  0  0  0  0  0  0  0  0  0
   -2.0942   -1.7234    3.5954 C   0  0  0  0  0  0  0  0  0  0  0  0
   -2.8600   -0.9930    2.5517 N   0  0  0  0  0  0  0  0  0  0  0  0
   -2.2521    0.1395    2.3889 C   0  0  0  0  0  0  0  0  0  0  0  0
   -2.8079    1.3454    1.2972 S   0  0  0  0  0  0  0  0  0  0  0  0
   -3.5600    0.3140    0.0118 C   0  0  0  0  0  0  0  0  0  0  0  0
   -2.5362   -0.4017   -0.8386 C   0  0  0  0  0  0  0  0  0  0  0  0
   -2.2972   -1.7744   -0.6644 C   0  0  0  0  0  0  0  0  0  0  0  0
   -1.3292   -2.4274   -1.4302 C   0  0  0  0  0  0  0  0  0  0  0  0
   -0.6002   -1.7089   -2.3691 C   0  0  0  0  0  0  0  0  0  0  0  0
    0.3530   -2.3272   -3.0744 F   0  0  0  0  0  0  0  0  0  0  0  0
   -0.8326   -0.3549   -2.5704 C   0  0  0  0  0  0  0  0  0  0  0  0
   -1.7978    0.2997   -1.8062 C   0  0  0  0  0  0  0  0  0  0  0  0
    0.7061    1.9657    0.5051 C   0  0  0  0  0  0  0  0  0  0  0  0
    1.3967    1.7090   -0.6853 C   0  0  0  0  0  0  0  0  0  0  0  0
    3.9052   -0.8544   -4.0164 H   0  0  0  0  0  0  0  0  0  0  0  0
    4.7378    0.7166   -4.2021 H   0  0  0  0  0  0  0  0  0  0  0  0
    3.3270    0.3125   -5.2137 H   0  0  0  0  0  0  0  0  0  0  0  0
    3.6608   -0.4675   -1.8583 H   0  0  0  0  0  0  0  0  0  0  0  0
    3.2937   -0.9199    0.3579 H   0  0  0  0  0  0  0  0  0  0  0  0
    2.1079   -0.4525    2.4567 H   0  0  0  0  0  0  0  0  0  0  0  0
   -0.5457   -0.8775    4.8673 H   0  0  0  0  0  0  0  0  0  0  0  0
    0.0335   -1.4753    3.2767 H   0  0  0  0  0  0  0  0  0  0  0  0
   -2.6834   -1.7436    4.5175 H   0  0  0  0  0  0  0  0  0  0  0  0
   -1.9138   -2.7565    3.2824 H   0  0  0  0  0  0  0  0  0  0  0  0
   -4.1543    0.9663   -0.6371 H   0  0  0  0  0  0  0  0  0  0  0  0
   -4.2732   -0.3916    0.4509 H   0  0  0  0  0  0  0  0  0  0  0  0
   -2.8578   -2.3410    0.0744 H   0  0  0  0  0  0  0  0  0  0  0  0
   -1.1394   -3.4866   -1.2960 H   0  0  0  0  0  0  0  0  0  0  0  0
   -0.2447    0.1925   -3.3002 H   0  0  0  0  0  0  0  0  0  0  0  0
   -1.9556    1.3657   -1.9574 H   0  0  0  0  0  0  0  0  0  0  0  0
   -0.0031    2.7943    0.5414 H   0  0  0  0  0  0  0  0  0  0  0  0
    1.1882    2.3513   -1.5358 H   0  0  0  0  0  0  0  0  0  0  0  0
  1  2  1  0
  2  3  2  0
  2  4  1  0
  4  5  1  0
  5  6  2  0
  6  7  1  0
  7  8  2  0
  8  9  1  0
  9 10  2  0
  9 11  2  0
  9 12  1  0
 12 13  1  0
 13 14  1  0
 14 15  1  0
 15 16  2  0
 16 17  1  0
 17 18  1  0
 18 19  1  0
 19 20  2  0
 20 21  1  0
 21 22  2  0
 22 23  1  0
 22 24  1  0
 24 25  2  0
  8 26  1  0
 26 27  2  0
 27  5  1  0
 16 12  1  0
 25 19  1  0
  1 28  1  0
  1 29  1  0
  1 30  1  0
  4 31  1  0
  6 32  1  0
  7 33  1  0
 13 34  1  0
 13 35  1  0
 14 36  1  0
 14 37  1  0
 18 38  1  0
 18 39  1  0
 20 40  1  0
 21 41  1  0
 24 42  1  0
 25 43  1  0
 26 44  1  0
 27 45  1  0
M  END
$$$$
