
     RDKit          3D

 36 38  0  0  0  0  0  0  0  0999 V2000
   -2.4073    4.7577   -0.1220 C   0  0  0  0  0  0  0  0  0  0  0  0
   -2.6625    3.2801   -0.1101 C   0  0  0  0  0  0  0  0  0  0  0  0
   -3.9633    2.7830   -0.1047 C   0  0  0  0  0  0  0  0  0  0  0  0
   -4.1875    1.4041   -0.0456 C   0  0  0  0  0  0  0  0  0  0  0  0
   -3.1445    0.4899    0.0143 C   0  0  0  0  0  0  0  0  0  0  0  0
   -3.4438   -0.8105    0.0825 N   0  0  0  0  0  0  0  0  0  0  0  0
   -2.4314   -1.7019    0.1758 C   0  0  0  0  0  0  0  0  0  0  0  0
   -2.7737   -3.1986    0.2211 C   0  0  0  0  0  0  0  0  0  0  0  0
   -1.4317   -4.2061    0.8754 Cl  0  0  0  0  0  0  0  0  0  0  0  0
   -3.1454   -3.7760   -1.4434 Cl  0  0  0  0  0  0  0  0  0  0  0  0
   -4.2138   -3.5078    1.2626 Cl  0  0  0  0  0  0  0  0  0  0  0  0
   -1.1387   -1.3331    0.1498 N   0  0  0  0  0  0  0  0  0  0  0  0
   -0.8364   -0.0217    0.0574 C   0  0  0  0  0  0  0  0  0  0  0  0
    0.5379    0.3723    0.0395 N   0  0  0  0  0  0  0  0  0  0  0  0
    1.4507   -0.6400    0.1472 N   0  0  0  0  0  0  0  0  0  0  0  0
    2.6873   -0.2613    0.1072 C   0  0  0  0  0  0  0  0  0  0  0  0
    3.7913   -1.2329    0.2083 C   0  0  0  0  0  0  0  0  0  0  0  0
    5.1041   -0.7728    0.1547 C   0  0  0  0  0  0  0  0  0  0  0  0
    6.1148   -1.7123    0.2508 C   0  0  0  0  0  0  0  0  0  0  0  0
    5.8969   -3.0376    0.3919 N   0  0  0  0  0  0  0  0  0  0  0  0
    4.6101   -3.4487    0.4427 C   0  0  0  0  0  0  0  0  0  0  0  0
    3.5288   -2.5929    0.3556 C   0  0  0  0  0  0  0  0  0  0  0  0
   -1.8319    0.9692    0.0072 C   0  0  0  0  0  0  0  0  0  0  0  0
   -1.6017    2.3714   -0.0394 C   0  0  0  0  0  0  0  0  0  0  0  0
   -1.4686    4.9869   -0.6371 H   0  0  0  0  0  0  0  0  0  0  0  0
   -3.2058    5.2882   -0.6514 H   0  0  0  0  0  0  0  0  0  0  0  0
   -2.3507    5.1360    0.9033 H   0  0  0  0  0  0  0  0  0  0  0  0
   -4.8157    3.4583   -0.1388 H   0  0  0  0  0  0  0  0  0  0  0  0
   -5.2114    1.0349   -0.0381 H   0  0  0  0  0  0  0  0  0  0  0  0
    0.6804    0.9988   -0.7521 H   0  0  0  0  0  0  0  0  0  0  0  0
    2.9613    0.8040    0.0015 H   0  0  0  0  0  0  0  0  0  0  0  0
    5.3438    0.2777    0.0436 H   0  0  0  0  0  0  0  0  0  0  0  0
    7.1603   -1.4186    0.2163 H   0  0  0  0  0  0  0  0  0  0  0  0
    4.4681   -4.5195    0.5593 H   0  0  0  0  0  0  0  0  0  0  0  0
    2.5146   -2.9764    0.4035 H   0  0  0  0  0  0  0  0  0  0  0  0
   -0.5847    2.7564   -0.0036 H   0  0  0  0  0  0  0  0  0  0  0  0
  1  2  1  0
  2  3  2  0
  3  4  1  0
  4  5  2  0
  5  6  1  0
  6  7  2  0
  7  8  1  0
  8  9  1  0
  8 10  1  0
  8 11  1  0
  7 12  1  0
 12 13  2  0
 13 14  1  0
 14 15  1  0
 15 16  2  3
 16 17  1  0
 17 18  2  0
 18 19  1  0
 19 20  2  0
 20 21  1  0
 21 22  2  0
 13 23  1  0
 23 24  2  0
 24  2  1  0
 23  5  1  0
 22 17  1  0
  1 25  1  0
  1 26  1  0
  1 27  1  0
  3 28  1  0
  4 29  1  0
 14 30  1  0
 16 31  1  0
 18 32  1  0
 19 33  1  0
 21 34  1  0
 22 35  1  0
 24 36  1  0
M  END
$$$$
