
     RDKit          3D

 62 65  0  0  0  0  0  0  0  0999 V2000
   -0.8814   -3.5118   -0.7787 C   0  0  0  0  0  0  0  0  0  0  0  0
   -0.2752   -2.2541   -1.0484 O   0  0  0  0  0  0  0  0  0  0  0  0
    0.5106   -1.7125   -0.0583 C   0  0  0  0  0  0  0  0  0  0  0  0
    0.9835   -2.4154    1.0545 C   0  0  0  0  0  0  0  0  0  0  0  0
    1.7840   -1.7717    1.9985 C   0  0  0  0  0  0  0  0  0  0  0  0
    2.1131   -0.4248    1.8257 C   0  0  0  0  0  0  0  0  0  0  0  0
    3.1015    0.4045    3.0542 S   0  0  0  0  0  6  0  0  0  0  0  0
    2.6723    1.7842    3.1060 O   0  0  0  0  0  0  0  0  0  0  0  0
    3.0926   -0.4245    4.2417 O   0  0  0  0  0  0  0  0  0  0  0  0
    4.6607    0.3545    2.4074 N   0  0  0  0  0  0  0  0  0  0  0  0
    5.3514   -0.9607    2.3184 C   0  0  0  0  0  0  0  0  0  0  0  0
    5.7243   -1.2810    0.8673 C   0  0  0  0  0  0  0  0  0  0  0  0
    6.5885   -0.3057    0.2691 O   0  0  0  0  0  0  0  0  0  0  0  0
    6.4060    1.0196    0.7926 C   0  0  0  0  0  0  0  0  0  0  0  0
    4.9787    1.2811    1.2863 C   0  0  0  0  0  0  0  0  0  0  0  0
    1.6257    0.2949    0.7307 C   0  0  0  0  0  0  0  0  0  0  0  0
    0.8445   -0.3497   -0.2289 C   0  0  0  0  0  0  0  0  0  0  0  0
    0.3382    0.2920   -1.3816 N   0  0  0  0  0  0  0  0  0  0  0  0
    0.4937    1.6064   -1.7721 C   0  0  0  0  0  0  0  0  0  0  0  0
    1.1732    2.4531   -1.2002 O   0  0  0  0  0  0  0  0  0  0  0  0
   -0.2596    1.9475   -3.0629 C   0  0  0  0  0  0  0  0  0  0  0  0
   -1.6798    2.0154   -2.9237 O   0  0  0  0  0  0  0  0  0  0  0  0
   -2.3346    0.8316   -3.0236 C   0  0  0  0  0  0  0  0  0  0  0  0
   -1.7827   -0.2566   -3.1222 O   0  0  0  0  0  0  0  0  0  0  0  0
   -3.8287    1.0356   -3.0078 C   0  0  0  0  0  0  0  0  0  0  0  0
   -4.5404    0.8000   -1.6760 C   0  0  0  0  0  0  0  0  0  0  0  0
   -4.4523   -0.6417   -1.1299 C   0  0  0  0  0  0  0  0  0  0  0  0
   -4.0556   -0.4287    0.3425 C   0  0  0  0  0  0  0  0  0  0  0  0
   -5.2084    0.2604    1.0937 C   0  0  0  0  0  0  0  0  0  0  0  0
   -5.1516    1.7048    0.5705 C   0  0  0  0  0  0  0  0  0  0  0  0
   -4.0257    1.6431   -0.4825 C   0  0  0  0  0  0  0  0  0  0  0  0
   -3.0425    0.7050    0.2201 C   0  0  0  0  0  0  0  0  0  0  0  0
   -1.4587   -3.4846    0.1515 H   0  0  0  0  0  0  0  0  0  0  0  0
   -0.1313   -4.3089   -0.7570 H   0  0  0  0  0  0  0  0  0  0  0  0
   -1.5768   -3.7306   -1.5947 H   0  0  0  0  0  0  0  0  0  0  0  0
    0.7490   -3.4627    1.2132 H   0  0  0  0  0  0  0  0  0  0  0  0
    2.1375   -2.3233    2.8670 H   0  0  0  0  0  0  0  0  0  0  0  0
    6.2567   -0.8943    2.9333 H   0  0  0  0  0  0  0  0  0  0  0  0
    4.7394   -1.7702    2.7262 H   0  0  0  0  0  0  0  0  0  0  0  0
    4.8239   -1.3559    0.2460 H   0  0  0  0  0  0  0  0  0  0  0  0
    6.2370   -2.2466    0.8154 H   0  0  0  0  0  0  0  0  0  0  0  0
    6.6677    1.7238   -0.0028 H   0  0  0  0  0  0  0  0  0  0  0  0
    7.1277    1.1598    1.6055 H   0  0  0  0  0  0  0  0  0  0  0  0
    4.2823    1.1217    0.4592 H   0  0  0  0  0  0  0  0  0  0  0  0
    4.8980    2.3159    1.6349 H   0  0  0  0  0  0  0  0  0  0  0  0
    1.8623    1.3507    0.6488 H   0  0  0  0  0  0  0  0  0  0  0  0
   -0.2525   -0.3078   -1.9674 H   0  0  0  0  0  0  0  0  0  0  0  0
    0.0752    2.9376   -3.3903 H   0  0  0  0  0  0  0  0  0  0  0  0
    0.0319    1.2496   -3.8577 H   0  0  0  0  0  0  0  0  0  0  0  0
   -4.0372    2.0552   -3.3571 H   0  0  0  0  0  0  0  0  0  0  0  0
   -4.2492    0.3753   -3.7762 H   0  0  0  0  0  0  0  0  0  0  0  0
   -5.5972    1.0374   -1.8570 H   0  0  0  0  0  0  0  0  0  0  0  0
   -3.6904   -1.2329   -1.6479 H   0  0  0  0  0  0  0  0  0  0  0  0
   -5.4072   -1.1699   -1.2225 H   0  0  0  0  0  0  0  0  0  0  0  0
   -3.6937   -1.3359    0.8304 H   0  0  0  0  0  0  0  0  0  0  0  0
   -6.1765   -0.2104    0.8951 H   0  0  0  0  0  0  0  0  0  0  0  0
   -5.0353    0.2455    2.1754 H   0  0  0  0  0  0  0  0  0  0  0  0
   -6.1101    2.0304    0.1537 H   0  0  0  0  0  0  0  0  0  0  0  0
   -4.8872    2.3892    1.3842 H   0  0  0  0  0  0  0  0  0  0  0  0
   -3.6330    2.6253   -0.7538 H   0  0  0  0  0  0  0  0  0  0  0  0
   -2.1780    0.4368   -0.3849 H   0  0  0  0  0  0  0  0  0  0  0  0
   -2.6983    1.0851    1.1887 H   0  0  0  0  0  0  0  0  0  0  0  0
  1  2  1  0
  2  3  1  0
  3  4  2  0
  4  5  1  0
  5  6  2  0
  6  7  1  0
  7  8  2  0
  7  9  2  0
  7 10  1  0
 10 11  1  0
 11 12  1  0
 12 13  1  0
 13 14  1  0
 14 15  1  0
  6 16  1  0
 16 17  2  0
 17 18  1  0
 18 19  1  0
 19 20  2  0
 19 21  1  0
 21 22  1  0
 22 23  1  0
 23 24  2  0
 23 25  1  0
 25 26  1  0
 26 27  1  0
 27 28  1  0
 28 29  1  0
 29 30  1  0
 30 31  1  0
 31 32  1  0
 17  3  1  0
 31 26  1  0
 15 10  1  0
 32 28  1  0
  1 33  1  0
  1 34  1  0
  1 35  1  0
  4 36  1  0
  5 37  1  0
 11 38  1  0
 11 39  1  0
 12 40  1  0
 12 41  1  0
 14 42  1  0
 14 43  1  0
 15 44  1  0
 15 45  1  0
 16 46  1  0
 18 47  1  0
 21 48  1  0
 21 49  1  0
 25 50  1  0
 25 51  1  0
 26 52  1  0
 27 53  1  0
 27 54  1  0
 28 55  1  0
 29 56  1  0
 29 57  1  0
 30 58  1  0
 30 59  1  0
 31 60  1  0
 32 61  1  0
 32 62  1  0
M  END
$$$$
