
     RDKit          3D

 49 51  0  0  0  0  0  0  0  0999 V2000
   -6.4824    1.8923    2.3563 C   0  0  0  0  0  0  0  0  0  0  0  0
   -6.6387    0.6942    1.5972 O   0  0  0  0  0  0  0  0  0  0  0  0
   -5.4792    0.3564    0.9439 C   0  0  0  0  0  0  0  0  0  0  0  0
   -5.5359    0.3788   -0.4513 C   0  0  0  0  0  0  0  0  0  0  0  0
   -4.4144    0.0297   -1.2010 C   0  0  0  0  0  0  0  0  0  0  0  0
   -3.2377   -0.3563   -0.5536 C   0  0  0  0  0  0  0  0  0  0  0  0
   -2.0489   -0.7163   -1.3303 C   0  0  0  0  0  0  0  0  0  0  0  0
   -1.1754    0.1585   -1.8446 C   0  0  0  0  0  0  0  0  0  0  0  0
   -1.2139    1.8724   -1.7461 S   0  0  0  0  0  0  0  0  0  0  0  0
    0.2680    2.0391   -2.6724 C   0  0  0  0  0  0  0  0  0  0  0  0
    0.6821    3.1224   -3.0543 O   0  0  0  0  0  0  0  0  0  0  0  0
    0.8013    0.8017   -2.9340 N   0  0  0  0  0  0  0  0  0  0  0  0
    2.0393    0.6707   -3.6898 C   0  0  0  0  0  0  0  0  0  0  0  0
    3.0755   -0.2712   -3.0723 C   0  0  0  0  0  0  0  0  0  0  0  0
    3.4918    0.1403   -1.6711 C   0  0  0  0  0  0  0  0  0  0  0  0
    3.1056    1.1858   -1.1621 O   0  0  0  0  0  0  0  0  0  0  0  0
    4.3278   -0.8002   -1.0926 N   0  0  0  0  0  0  0  0  0  0  0  0
    4.8885   -0.7718    0.2015 C   0  0  0  0  0  0  0  0  0  0  0  0
    4.6983    0.2667    1.1157 C   0  0  0  0  0  0  0  0  0  0  0  0
    5.2861    0.2121    2.3841 C   0  0  0  0  0  0  0  0  0  0  0  0
    6.0686   -0.8802    2.7496 C   0  0  0  0  0  0  0  0  0  0  0  0
    6.2667   -1.9201    1.8456 C   0  0  0  0  0  0  0  0  0  0  0  0
    5.6803   -1.8652    0.5777 C   0  0  0  0  0  0  0  0  0  0  0  0
    0.0238   -0.2822   -2.6044 C   0  0  0  0  0  0  0  0  0  0  0  0
    0.2535   -1.4486   -2.8936 O   0  0  0  0  0  0  0  0  0  0  0  0
   -3.1922   -0.4051    0.8479 C   0  0  0  0  0  0  0  0  0  0  0  0
   -4.3147   -0.0615    1.6104 C   0  0  0  0  0  0  0  0  0  0  0  0
   -4.3695   -0.1094    2.9778 O   0  0  0  0  0  0  0  0  0  0  0  0
   -3.2810   -0.7196    3.6585 C   0  0  0  0  0  0  0  0  0  0  0  0
   -6.0407    1.6848    3.3348 H   0  0  0  0  0  0  0  0  0  0  0  0
   -7.4810    2.3077    2.5284 H   0  0  0  0  0  0  0  0  0  0  0  0
   -5.8942    2.6445    1.8200 H   0  0  0  0  0  0  0  0  0  0  0  0
   -6.4542    0.6764   -0.9501 H   0  0  0  0  0  0  0  0  0  0  0  0
   -4.4676    0.0634   -2.2862 H   0  0  0  0  0  0  0  0  0  0  0  0
   -1.8938   -1.7858   -1.4601 H   0  0  0  0  0  0  0  0  0  0  0  0
    2.4877    1.6605   -3.8350 H   0  0  0  0  0  0  0  0  0  0  0  0
    1.7682    0.2896   -4.6823 H   0  0  0  0  0  0  0  0  0  0  0  0
    2.7000   -1.2990   -3.0388 H   0  0  0  0  0  0  0  0  0  0  0  0
    3.9726   -0.2701   -3.7038 H   0  0  0  0  0  0  0  0  0  0  0  0
    4.5446   -1.6202   -1.6463 H   0  0  0  0  0  0  0  0  0  0  0  0
    4.0986    1.1385    0.8752 H   0  0  0  0  0  0  0  0  0  0  0  0
    5.1286    1.0286    3.0854 H   0  0  0  0  0  0  0  0  0  0  0  0
    6.5215   -0.9197    3.7364 H   0  0  0  0  0  0  0  0  0  0  0  0
    6.8770   -2.7746    2.1260 H   0  0  0  0  0  0  0  0  0  0  0  0
    5.8513   -2.6924   -0.1070 H   0  0  0  0  0  0  0  0  0  0  0  0
   -2.2667   -0.7138    1.3233 H   0  0  0  0  0  0  0  0  0  0  0  0
   -2.3689   -0.1236    3.5540 H   0  0  0  0  0  0  0  0  0  0  0  0
   -3.1240   -1.7488    3.3183 H   0  0  0  0  0  0  0  0  0  0  0  0
   -3.5323   -0.7590    4.7233 H   0  0  0  0  0  0  0  0  0  0  0  0
  1  2  1  0
  2  3  1  0
  3  4  2  0
  4  5  1  0
  5  6  2  0
  6  7  1  0
  7  8  2  3
  8  9  1  0
  9 10  1  0
 10 11  2  0
 10 12  1  0
 12 13  1  0
 13 14  1  0
 14 15  1  0
 15 16  2  0
 15 17  1  0
 17 18  1  0
 18 19  2  0
 19 20  1  0
 20 21  2  0
 21 22  1  0
 22 23  2  0
 12 24  1  0
 24 25  2  0
  6 26  1  0
 26 27  2  0
 27 28  1  0
 28 29  1  0
 27  3  1  0
 24  8  1  0
 23 18  1  0
  1 30  1  0
  1 31  1  0
  1 32  1  0
  4 33  1  0
  5 34  1  0
  7 35  1  0
 13 36  1  0
 13 37  1  0
 14 38  1  0
 14 39  1  0
 17 40  1  0
 19 41  1  0
 20 42  1  0
 21 43  1  0
 22 44  1  0
 23 45  1  0
 26 46  1  0
 29 47  1  0
 29 48  1  0
 29 49  1  0
M  END
$$$$
