
     RDKit          3D

 36 38  0  0  0  0  0  0  0  0999 V2000
   -6.7700    0.9714    1.2781 C   0  0  0  0  0  0  0  0  0  0  0  0
   -5.6098    0.5078    1.9573 O   0  0  0  0  0  0  0  0  0  0  0  0
   -4.4836    0.3247    1.2048 C   0  0  0  0  0  0  0  0  0  0  0  0
   -3.3802   -0.1546    1.9115 C   0  0  0  0  0  0  0  0  0  0  0  0
   -2.1624   -0.3857    1.2641 C   0  0  0  0  0  0  0  0  0  0  0  0
   -2.0247   -0.1442   -0.1090 C   0  0  0  0  0  0  0  0  0  0  0  0
   -0.7364   -0.3720   -0.7760 C   0  0  0  0  0  0  0  0  0  0  0  0
   -0.5563   -0.7513   -2.0485 C   0  0  0  0  0  0  0  0  0  0  0  0
    0.9102   -0.7569   -2.2565 C   0  0  0  0  0  0  0  0  0  0  0  0
    1.4202   -1.0437   -3.3260 O   0  0  0  0  0  0  0  0  0  0  0  0
    1.4819   -0.3795   -1.0407 N   0  0  0  0  0  0  0  0  0  0  0  0
    2.8398   -0.2918   -0.6702 C   0  0  0  0  0  0  0  0  0  0  0  0
    3.8623   -0.4579   -1.6162 C   0  0  0  0  0  0  0  0  0  0  0  0
    5.2116   -0.3665   -1.2498 C   0  0  0  0  0  0  0  0  0  0  0  0
    5.5500   -0.1076    0.0814 C   0  0  0  0  0  0  0  0  0  0  0  0
    6.9618   -0.0105    0.4723 N   0  0  0  0  0  4  0  0  0  0  0  0
    7.8173   -0.1698   -0.4097 O   0  0  0  0  0  0  0  0  0  0  0  0
    7.2142    0.2281    1.6620 O   0  0  0  0  0  1  0  0  0  0  0  0
    4.5487    0.0577    1.0432 C   0  0  0  0  0  0  0  0  0  0  0  0
    3.2038   -0.0354    0.6634 C   0  0  0  0  0  0  0  0  0  0  0  0
    0.4603   -0.1769   -0.0973 N   0  0  0  0  0  0  0  0  0  0  0  0
   -3.1374    0.3408   -0.8109 C   0  0  0  0  0  0  0  0  0  0  0  0
   -4.3576    0.5728   -0.1606 C   0  0  0  0  0  0  0  0  0  0  0  0
   -7.0889    0.2596    0.5095 H   0  0  0  0  0  0  0  0  0  0  0  0
   -6.6061    1.9669    0.8523 H   0  0  0  0  0  0  0  0  0  0  0  0
   -7.5773    1.0523    2.0124 H   0  0  0  0  0  0  0  0  0  0  0  0
   -3.4694   -0.3551    2.9767 H   0  0  0  0  0  0  0  0  0  0  0  0
   -1.3279   -0.7732    1.8450 H   0  0  0  0  0  0  0  0  0  0  0  0
   -1.2684   -0.9819   -2.8176 H   0  0  0  0  0  0  0  0  0  0  0  0
    3.6352   -0.6583   -2.6610 H   0  0  0  0  0  0  0  0  0  0  0  0
    5.9748   -0.5008   -2.0141 H   0  0  0  0  0  0  0  0  0  0  0  0
    4.7919    0.2518    2.0861 H   0  0  0  0  0  0  0  0  0  0  0  0
    2.4474    0.0767    1.4364 H   0  0  0  0  0  0  0  0  0  0  0  0
    0.4826    0.7552    0.3204 H   0  0  0  0  0  0  0  0  0  0  0  0
   -3.0718    0.5577   -1.8749 H   0  0  0  0  0  0  0  0  0  0  0  0
   -5.1857    0.9499   -0.7517 H   0  0  0  0  0  0  0  0  0  0  0  0
  1  2  1  0
  2  3  1  0
  3  4  2  0
  4  5  1  0
  5  6  2  0
  6  7  1  0
  7  8  2  0
  8  9  1  0
  9 10  2  0
  9 11  1  0
 11 12  1  0
 12 13  2  0
 13 14  1  0
 14 15  2  0
 15 16  1  0
 16 17  2  0
 16 18  1  0
 15 19  1  0
 19 20  2  0
 11 21  1  0
  6 22  1  0
 22 23  2  0
 23  3  1  0
 21  7  1  0
 20 12  1  0
  1 24  1  0
  1 25  1  0
  1 26  1  0
  4 27  1  0
  5 28  1  0
  8 29  1  0
 13 30  1  0
 14 31  1  0
 19 32  1  0
 20 33  1  0
 21 34  1  0
 22 35  1  0
 23 36  1  0
M  CHG  2  16   1  18  -1
M  END
$$$$
