
     RDKit          3D

 48 49  0  0  0  0  0  0  0  0999 V2000
    3.2383   -0.3409   -2.5265 C   0  0  0  0  0  0  0  0  0  0  0  0
    2.3514    0.6762   -2.0598 O   0  0  0  0  0  0  0  0  0  0  0  0
    1.6036    0.2113   -1.0048 C   0  0  0  0  0  0  0  0  0  0  0  0
    0.2675   -0.1047   -1.2696 C   0  0  0  0  0  0  0  0  0  0  0  0
   -0.5665   -0.5575   -0.2448 C   0  0  0  0  0  0  0  0  0  0  0  0
   -1.8906   -0.8755   -0.5857 N   0  0  0  0  0  0  0  0  0  0  0  0
   -2.9290   -1.2649    0.2453 C   0  0  0  0  0  0  0  0  0  0  0  0
   -2.8738   -1.4119    1.4619 O   0  0  0  0  0  0  0  0  0  0  0  0
   -4.2092   -1.5852   -0.5712 C   0  0  0  0  0  0  0  0  0  0  0  0
   -5.4856   -1.5859    0.2765 C   0  0  0  0  0  0  0  0  0  0  0  0
   -5.9404   -0.1738    0.6349 C   0  0  0  0  0  0  0  0  0  0  0  0
   -6.0244    0.6959   -0.6133 C   0  0  0  0  0  0  0  0  0  0  0  0
   -4.7146    0.6641   -1.3954 C   0  0  0  0  0  0  0  0  0  0  0  0
   -4.3198   -0.7032   -1.7686 N   0  0  0  0  0  0  0  0  0  0  0  0
   -0.0452   -0.6758    1.0435 C   0  0  0  0  0  0  0  0  0  0  0  0
    1.2888   -0.3334    1.3124 C   0  0  0  0  0  0  0  0  0  0  0  0
    2.1248    0.1250    0.2934 C   0  0  0  0  0  0  0  0  0  0  0  0
    3.4289    0.5056    0.4565 O   0  0  0  0  0  0  0  0  0  0  0  0
    3.9560    0.5166    1.7819 C   0  0  0  0  0  0  0  0  0  0  0  0
    5.4040    1.0331    1.7613 C   0  0  0  0  0  0  0  0  0  0  0  0
    6.3043    0.1369    0.9094 C   0  0  0  0  0  0  0  0  0  0  0  0
    5.4724    2.4748    1.2547 C   0  0  0  0  0  0  0  0  0  0  0  0
    2.6932   -1.2587   -2.7770 H   0  0  0  0  0  0  0  0  0  0  0  0
    3.7141    0.0268   -3.4409 H   0  0  0  0  0  0  0  0  0  0  0  0
    4.0290   -0.5544   -1.8002 H   0  0  0  0  0  0  0  0  0  0  0  0
   -0.1044    0.0080   -2.2838 H   0  0  0  0  0  0  0  0  0  0  0  0
   -2.1854   -0.7248   -1.5491 H   0  0  0  0  0  0  0  0  0  0  0  0
   -4.0525   -2.6075   -0.9409 H   0  0  0  0  0  0  0  0  0  0  0  0
   -5.3442   -2.1664    1.1953 H   0  0  0  0  0  0  0  0  0  0  0  0
   -6.2871   -2.0812   -0.2871 H   0  0  0  0  0  0  0  0  0  0  0  0
   -6.9167   -0.2114    1.1310 H   0  0  0  0  0  0  0  0  0  0  0  0
   -5.2369    0.2740    1.3472 H   0  0  0  0  0  0  0  0  0  0  0  0
   -6.2611    1.7277   -0.3294 H   0  0  0  0  0  0  0  0  0  0  0  0
   -6.8448    0.3440   -1.2514 H   0  0  0  0  0  0  0  0  0  0  0  0
   -4.8275    1.2529   -2.3127 H   0  0  0  0  0  0  0  0  0  0  0  0
   -3.9173    1.1461   -0.8178 H   0  0  0  0  0  0  0  0  0  0  0  0
   -5.0593   -1.0875   -2.3614 H   0  0  0  0  0  0  0  0  0  0  0  0
   -0.6540   -1.0288    1.8707 H   0  0  0  0  0  0  0  0  0  0  0  0
    1.6343   -0.4353    2.3360 H   0  0  0  0  0  0  0  0  0  0  0  0
    3.3526    1.1730    2.4218 H   0  0  0  0  0  0  0  0  0  0  0  0
    3.9473   -0.5004    2.1932 H   0  0  0  0  0  0  0  0  0  0  0  0
    5.7810    1.0160    2.7918 H   0  0  0  0  0  0  0  0  0  0  0  0
    7.3471    0.4649    0.9742 H   0  0  0  0  0  0  0  0  0  0  0  0
    6.2591   -0.9008    1.2556 H   0  0  0  0  0  0  0  0  0  0  0  0
    6.0131    0.1563   -0.1459 H   0  0  0  0  0  0  0  0  0  0  0  0
    5.1324    2.5572    0.2170 H   0  0  0  0  0  0  0  0  0  0  0  0
    4.8475    3.1310    1.8695 H   0  0  0  0  0  0  0  0  0  0  0  0
    6.4996    2.8524    1.3023 H   0  0  0  0  0  0  0  0  0  0  0  0
  1  2  1  0
  2  3  1  0
  3  4  2  0
  4  5  1  0
  5  6  1  0
  6  7  1  0
  7  8  2  0
  7  9  1  0
  9 10  1  0
 10 11  1  0
 11 12  1  0
 12 13  1  0
 13 14  1  0
  5 15  2  0
 15 16  1  0
 16 17  2  0
 17 18  1  0
 18 19  1  0
 19 20  1  0
 20 21  1  0
 20 22  1  0
 17  3  1  0
 14  9  1  0
  1 23  1  0
  1 24  1  0
  1 25  1  0
  4 26  1  0
  6 27  1  0
  9 28  1  0
 10 29  1  0
 10 30  1  0
 11 31  1  0
 11 32  1  0
 12 33  1  0
 12 34  1  0
 13 35  1  0
 13 36  1  0
 14 37  1  0
 15 38  1  0
 16 39  1  0
 19 40  1  0
 19 41  1  0
 20 42  1  0
 21 43  1  0
 21 44  1  0
 21 45  1  0
 22 46  1  0
 22 47  1  0
 22 48  1  0
M  END
$$$$
