
     RDKit          3D

 49 50  0  0  0  0  0  0  0  0999 V2000
   -5.1839   -2.7637    0.2096 C   0  0  0  0  0  0  0  0  0  0  0  0
   -5.8080   -1.5335    0.5600 O   0  0  0  0  0  0  0  0  0  0  0  0
   -5.1063   -0.4012    0.2418 C   0  0  0  0  0  0  0  0  0  0  0  0
   -3.7100   -0.3296    0.1954 C   0  0  0  0  0  0  0  0  0  0  0  0
   -3.0642    0.8813   -0.0984 C   0  0  0  0  0  0  0  0  0  0  0  0
   -1.5987    1.0160   -0.1414 C   0  0  0  0  0  0  0  0  0  0  0  0
   -0.7446    0.2846    0.5917 C   0  0  0  0  0  0  0  0  0  0  0  0
    0.7227    0.4580    0.5675 C   0  0  0  0  0  0  0  0  0  0  0  0
    1.4735   -0.3205    1.1299 O   0  0  0  0  0  0  0  0  0  0  0  0
    1.0887    1.5850   -0.0947 O   0  0  0  0  0  0  0  0  0  0  0  0
    2.4982    1.7655   -0.1913 C   0  0  0  0  0  0  0  0  0  0  0  0
    3.1425    0.8738   -1.2526 C   0  0  0  0  0  0  0  0  0  0  0  0
    2.4977    0.2781   -2.1141 O   0  0  0  0  0  0  0  0  0  0  0  0
    4.5143    0.8169   -1.1586 N   0  0  0  0  0  0  0  0  0  0  0  0
    5.3456    0.0553   -2.0801 C   0  0  0  0  0  0  0  0  0  0  0  0
    6.3412   -0.8598   -1.3518 C   0  0  0  0  0  0  0  0  0  0  0  0
    5.6958   -2.0269   -0.6098 C   0  0  0  0  0  0  0  0  0  0  0  0
    5.6929   -1.5750    0.8311 C   0  0  0  0  0  0  0  0  0  0  0  0
    6.9588   -0.7485    0.8997 C   0  0  0  0  0  0  0  0  0  0  0  0
    7.0729   -0.0849   -0.3721 O   0  0  0  0  0  0  0  0  0  0  0  0
   -3.8413    2.0110   -0.3929 C   0  0  0  0  0  0  0  0  0  0  0  0
   -5.2341    1.9482   -0.3447 C   0  0  0  0  0  0  0  0  0  0  0  0
   -5.8570    0.7566    0.0015 C   0  0  0  0  0  0  0  0  0  0  0  0
   -7.2256    0.7543    0.0252 O   0  0  0  0  0  0  0  0  0  0  0  0
   -7.7317    0.6600    1.3623 C   0  0  0  0  0  0  0  0  0  0  0  0
   -8.4631    1.8891    1.6998 C   0  0  0  0  0  0  0  0  0  0  0  0
   -9.0232    2.8789    1.9301 N   0  0  0  0  0  0  0  0  0  0  0  0
   -4.8091   -2.7472   -0.8204 H   0  0  0  0  0  0  0  0  0  0  0  0
   -5.9421   -3.5498    0.2754 H   0  0  0  0  0  0  0  0  0  0  0  0
   -4.3875   -3.0113    0.9170 H   0  0  0  0  0  0  0  0  0  0  0  0
   -3.1127   -1.2130    0.3983 H   0  0  0  0  0  0  0  0  0  0  0  0
   -1.2206    1.7962   -0.7979 H   0  0  0  0  0  0  0  0  0  0  0  0
   -1.0774   -0.4961    1.2628 H   0  0  0  0  0  0  0  0  0  0  0  0
    2.6746    2.8047   -0.4836 H   0  0  0  0  0  0  0  0  0  0  0  0
    2.9796    1.6112    0.7771 H   0  0  0  0  0  0  0  0  0  0  0  0
    5.0078    1.3474   -0.4504 H   0  0  0  0  0  0  0  0  0  0  0  0
    4.7302   -0.5200   -2.7775 H   0  0  0  0  0  0  0  0  0  0  0  0
    5.8999    0.8060   -2.6566 H   0  0  0  0  0  0  0  0  0  0  0  0
    7.0610   -1.2411   -2.0886 H   0  0  0  0  0  0  0  0  0  0  0  0
    6.3378   -2.9097   -0.7095 H   0  0  0  0  0  0  0  0  0  0  0  0
    4.7028   -2.2993   -0.9846 H   0  0  0  0  0  0  0  0  0  0  0  0
    5.6764   -2.3983    1.5515 H   0  0  0  0  0  0  0  0  0  0  0  0
    4.8168   -0.9395    1.0191 H   0  0  0  0  0  0  0  0  0  0  0  0
    7.8458   -1.3767    1.0306 H   0  0  0  0  0  0  0  0  0  0  0  0
    6.9326   -0.0051    1.7016 H   0  0  0  0  0  0  0  0  0  0  0  0
   -3.3698    2.9563   -0.6459 H   0  0  0  0  0  0  0  0  0  0  0  0
   -5.8290    2.8294   -0.5619 H   0  0  0  0  0  0  0  0  0  0  0  0
   -8.4169   -0.1988    1.3943 H   0  0  0  0  0  0  0  0  0  0  0  0
   -6.9534    0.4859    2.1045 H   0  0  0  0  0  0  0  0  0  0  0  0
  1  2  1  0
  2  3  1  0
  3  4  2  0
  4  5  1  0
  5  6  1  0
  6  7  2  3
  7  8  1  0
  8  9  2  0
  8 10  1  0
 10 11  1  0
 11 12  1  0
 12 13  2  0
 12 14  1  0
 14 15  1  0
 15 16  1  0
 16 17  1  0
 17 18  1  0
 18 19  1  0
 19 20  1  0
  5 21  2  0
 21 22  1  0
 22 23  2  0
 23 24  1  0
 24 25  1  0
 25 26  1  0
 26 27  3  0
 23  3  1  0
 20 16  1  0
  1 28  1  0
  1 29  1  0
  1 30  1  0
  4 31  1  0
  6 32  1  0
  7 33  1  0
 11 34  1  0
 11 35  1  0
 14 36  1  0
 15 37  1  0
 15 38  1  0
 16 39  1  0
 17 40  1  0
 17 41  1  0
 18 42  1  0
 18 43  1  0
 19 44  1  0
 19 45  1  0
 21 46  1  0
 22 47  1  0
 25 48  1  0
 25 49  1  0
M  END
$$$$
