
     RDKit          3D

138148  0  0  0  0  0  0  0  0999 V2000
  -11.4100    3.1791    3.0719 C   0  0  0  0  0  0  0  0  0  0  0  0
  -12.1376    1.8866    2.8526 C   0  0  0  0  0  0  0  0  0  0  0  0
  -13.4016    1.6998    3.2554 C   0  0  0  0  0  0  0  0  0  0  0  0
  -14.1576    0.4742    2.9674 C   0  0  0  0  0  0  0  0  0  0  0  0
  -15.3494    0.4061    3.2395 O   0  0  0  0  0  0  0  0  0  0  0  0
  -13.4921   -0.5407    2.3767 O   0  0  0  0  0  0  0  0  0  0  0  0
  -12.0440   -0.5722    2.3178 C   0  0  0  0  0  0  0  0  0  0  0  0
  -11.7025   -1.5127    1.1619 C   0  0  0  0  0  0  0  0  0  0  0  0
  -10.4266   -1.1372    0.4156 C   0  0  0  0  0  0  0  0  0  0  0  0
   -9.2790   -1.4548    1.2266 O   0  0  0  0  0  0  0  0  0  0  0  0
   -8.0866   -1.4057    0.4092 C   0  0  0  0  0  0  0  0  0  0  0  0
   -6.9159   -1.9962    1.1994 C   0  0  0  0  0  0  0  0  0  0  0  0
   -5.6261   -2.1975    0.3828 C   0  0  0  0  0  0  0  0  0  0  0  0
   -5.8939   -2.8987   -0.9608 C   0  0  0  0  0  0  0  0  0  0  0  0
   -4.7291   -0.9310    0.2439 C   0  0  0  0  0  0  0  0  0  0  0  0
   -3.7375   -1.2814   -0.7339 O   0  0  0  0  0  0  0  0  0  0  0  0
   -2.4305   -0.7363   -0.5876 C   0  0  0  0  0  0  0  0  0  0  0  0
   -1.5229   -1.5931   -1.4783 C   0  0  0  0  0  0  0  0  0  0  0  0
   -0.3251   -0.8594   -2.0801 C   0  0  0  0  0  0  0  0  0  0  0  0
    0.7444   -1.7629   -2.4042 O   0  0  0  0  0  0  0  0  0  0  0  0
    1.8088   -1.9834   -1.4482 C   0  0  0  0  0  0  0  0  0  0  0  0
    1.3287   -2.9012   -0.3096 C   0  0  0  0  0  0  0  0  0  0  0  0
    2.9191   -2.7105   -2.2756 C   0  0  0  0  0  0  0  0  0  0  0  0
    3.9325   -3.5840   -1.5817 C   0  0  0  0  0  0  0  0  0  0  0  0
    4.9647   -3.2737   -0.7803 C   0  0  0  0  0  0  0  0  0  0  0  0
    5.4750   -1.9716   -0.2205 C   0  0  0  0  0  0  0  0  0  0  0  0
    6.7951   -1.8148   -0.7567 O   0  0  0  0  0  0  0  0  0  0  0  0
    7.5553   -0.7507   -0.1672 C   0  0  0  0  0  0  0  0  0  0  0  0
    8.3629   -0.0954   -1.2855 C   0  0  0  0  0  0  0  0  0  0  0  0
    9.1826    1.0720   -0.7465 C   0  0  0  0  0  0  0  0  0  0  0  0
   10.1604    0.4799    0.1249 O   0  0  0  0  0  0  0  0  0  0  0  0
   11.0304    1.4256    0.7469 C   0  0  0  0  0  0  0  0  0  0  0  0
   12.0919    0.6540    1.5406 C   0  0  0  0  0  0  0  0  0  0  0  0
   12.9174   -0.3395    0.6871 C   0  0  0  0  0  0  0  0  0  0  0  0
   13.6792    0.3709   -0.4364 C   0  0  0  0  0  0  0  0  0  0  0  0
   13.8801   -1.1421    1.5770 C   0  0  0  0  0  0  0  0  0  0  0  0
   14.8030   -0.2988    2.2516 O   0  0  0  0  0  0  0  0  0  0  0  0
   10.2088    2.3340    1.6528 C   0  0  0  0  0  0  0  0  0  0  0  0
    9.1833    3.0760    0.8034 C   0  0  0  0  0  0  0  0  0  0  0  0
    8.3827    3.8907    1.6625 O   0  0  0  0  0  0  0  0  0  0  0  0
    8.2862    2.1024   -0.0131 C   0  0  0  0  0  0  0  0  0  0  0  0
    7.4518    2.9391   -0.9962 C   0  0  0  0  0  0  0  0  0  0  0  0
    7.4205    1.4815    0.9662 O   0  0  0  0  0  0  0  0  0  0  0  0
    6.7250    0.2837    0.6126 C   0  0  0  0  0  0  0  0  0  0  0  0
    5.3614    0.5636   -0.0148 C   0  0  0  0  0  0  0  0  0  0  0  0
    4.6701   -0.7036   -0.5403 C   0  0  0  0  0  0  0  0  0  0  0  0
    3.3596   -0.7547    0.0398 O   0  0  0  0  0  0  0  0  0  0  0  0
    2.3288   -0.6186   -0.9387 C   0  0  0  0  0  0  0  0  0  0  0  0
    1.1891    0.2071   -0.3462 C   0  0  0  0  0  0  0  0  0  0  0  0
    0.0924    0.4657   -1.3929 C   0  0  0  0  0  0  0  0  0  0  0  0
    0.6316    1.4516   -2.4525 C   0  0  0  0  0  0  0  0  0  0  0  0
   -0.9542    1.1707   -0.7075 O   0  0  0  0  0  0  0  0  0  0  0  0
   -2.3236    0.7674   -0.9080 C   0  0  0  0  0  0  0  0  0  0  0  0
   -2.8144    1.1756   -2.3073 C   0  0  0  0  0  0  0  0  0  0  0  0
   -3.0976    1.5748    0.1567 C   0  0  0  0  0  0  0  0  0  0  0  0
   -4.6206    1.6420    0.0598 C   0  0  0  0  0  0  0  0  0  0  0  0
   -5.4358    0.3598   -0.2122 C   0  0  0  0  0  0  0  0  0  0  0  0
   -6.6759    0.6073    0.4572 O   0  0  0  0  0  0  0  0  0  0  0  0
   -7.8326    0.0130   -0.1347 C   0  0  0  0  0  0  0  0  0  0  0  0
   -8.9850    0.9670    0.1947 C   0  0  0  0  0  0  0  0  0  0  0  0
  -10.3880    0.3610    0.0042 C   0  0  0  0  0  0  0  0  0  0  0  0
  -10.8285    0.4988   -1.4591 C   0  0  0  0  0  0  0  0  0  0  0  0
  -11.3229    1.1599    0.7592 O   0  0  0  0  0  0  0  0  0  0  0  0
  -11.3879    0.8016    2.1420 C   0  0  0  0  0  0  0  0  0  0  0  0
  -10.5263    3.0123    3.6990 H   0  0  0  0  0  0  0  0  0  0  0  0
  -12.0380    3.9272    3.5661 H   0  0  0  0  0  0  0  0  0  0  0  0
  -11.0804    3.6032    2.1151 H   0  0  0  0  0  0  0  0  0  0  0  0
  -13.9699    2.4731    3.7588 H   0  0  0  0  0  0  0  0  0  0  0  0
  -11.7123   -1.0124    3.2660 H   0  0  0  0  0  0  0  0  0  0  0  0
  -12.5343   -1.5334    0.4446 H   0  0  0  0  0  0  0  0  0  0  0  0
  -11.6214   -2.5347    1.5561 H   0  0  0  0  0  0  0  0  0  0  0  0
  -10.3831   -1.7829   -0.4742 H   0  0  0  0  0  0  0  0  0  0  0  0
   -8.2821   -2.0677   -0.4436 H   0  0  0  0  0  0  0  0  0  0  0  0
   -7.2363   -2.9745    1.5836 H   0  0  0  0  0  0  0  0  0  0  0  0
   -6.7172   -1.4035    2.1003 H   0  0  0  0  0  0  0  0  0  0  0  0
   -5.0168   -2.9122    0.9564 H   0  0  0  0  0  0  0  0  0  0  0  0
   -4.9693   -3.3024   -1.3860 H   0  0  0  0  0  0  0  0  0  0  0  0
   -6.5757   -3.7462   -0.8283 H   0  0  0  0  0  0  0  0  0  0  0  0
   -6.3267   -2.2145   -1.6971 H   0  0  0  0  0  0  0  0  0  0  0  0
   -4.2647   -0.7701    1.2254 H   0  0  0  0  0  0  0  0  0  0  0  0
   -2.0903   -0.9093    0.4436 H   0  0  0  0  0  0  0  0  0  0  0  0
   -1.2260   -2.4891   -0.9239 H   0  0  0  0  0  0  0  0  0  0  0  0
   -2.1087   -2.0143   -2.3111 H   0  0  0  0  0  0  0  0  0  0  0  0
   -0.6743   -0.5799   -3.0804 H   0  0  0  0  0  0  0  0  0  0  0  0
    2.1170   -3.1205    0.4162 H   0  0  0  0  0  0  0  0  0  0  0  0
    0.5069   -2.4602    0.2557 H   0  0  0  0  0  0  0  0  0  0  0  0
    0.9546   -3.8491   -0.7141 H   0  0  0  0  0  0  0  0  0  0  0  0
    3.4371   -1.9946   -2.9289 H   0  0  0  0  0  0  0  0  0  0  0  0
    2.4094   -3.3697   -2.9957 H   0  0  0  0  0  0  0  0  0  0  0  0
    3.8049   -4.6452   -1.8050 H   0  0  0  0  0  0  0  0  0  0  0  0
    5.5669   -4.1193   -0.4417 H   0  0  0  0  0  0  0  0  0  0  0  0
    5.5327   -2.1185    0.8683 H   0  0  0  0  0  0  0  0  0  0  0  0
    8.2576   -1.2210    0.5316 H   0  0  0  0  0  0  0  0  0  0  0  0
    9.0260   -0.8493   -1.7314 H   0  0  0  0  0  0  0  0  0  0  0  0
    7.6951    0.2273   -2.0933 H   0  0  0  0  0  0  0  0  0  0  0  0
    9.7212    1.5510   -1.5738 H   0  0  0  0  0  0  0  0  0  0  0  0
   11.5218    2.0261   -0.0294 H   0  0  0  0  0  0  0  0  0  0  0  0
   11.5915    0.0787    2.3295 H   0  0  0  0  0  0  0  0  0  0  0  0
   12.7591    1.3673    2.0378 H   0  0  0  0  0  0  0  0  0  0  0  0
   12.2338   -1.0611    0.2225 H   0  0  0  0  0  0  0  0  0  0  0  0
   12.9923    0.7679   -1.1901 H   0  0  0  0  0  0  0  0  0  0  0  0
   14.2755    1.2053   -0.0534 H   0  0  0  0  0  0  0  0  0  0  0  0
   14.3527   -0.3240   -0.9508 H   0  0  0  0  0  0  0  0  0  0  0  0
   13.3178   -1.6961    2.3360 H   0  0  0  0  0  0  0  0  0  0  0  0
   14.4444   -1.8717    0.9865 H   0  0  0  0  0  0  0  0  0  0  0  0
   15.4249    0.0481    1.5907 H   0  0  0  0  0  0  0  0  0  0  0  0
   10.8491    3.0498    2.1817 H   0  0  0  0  0  0  0  0  0  0  0  0
    9.6919    1.7484    2.4233 H   0  0  0  0  0  0  0  0  0  0  0  0
    9.7192    3.7525    0.1262 H   0  0  0  0  0  0  0  0  0  0  0  0
    7.7038    3.2849    2.0265 H   0  0  0  0  0  0  0  0  0  0  0  0
    6.9932    2.3277   -1.7754 H   0  0  0  0  0  0  0  0  0  0  0  0
    8.0673    3.6827   -1.5119 H   0  0  0  0  0  0  0  0  0  0  0  0
    6.6398    3.4620   -0.4799 H   0  0  0  0  0  0  0  0  0  0  0  0
    6.4992   -0.1814    1.5823 H   0  0  0  0  0  0  0  0  0  0  0  0
    5.4485    1.2640   -0.8471 H   0  0  0  0  0  0  0  0  0  0  0  0
    4.7334    1.0919    0.7140 H   0  0  0  0  0  0  0  0  0  0  0  0
    4.6410   -0.5986   -1.6323 H   0  0  0  0  0  0  0  0  0  0  0  0
    2.7090   -0.0384   -1.7886 H   0  0  0  0  0  0  0  0  0  0  0  0
    1.5805    1.1567    0.0433 H   0  0  0  0  0  0  0  0  0  0  0  0
    0.7689   -0.2791    0.5418 H   0  0  0  0  0  0  0  0  0  0  0  0
    1.1278    2.3065   -1.9746 H   0  0  0  0  0  0  0  0  0  0  0  0
   -0.1802    1.8773   -3.0498 H   0  0  0  0  0  0  0  0  0  0  0  0
    1.3420    0.9858   -3.1416 H   0  0  0  0  0  0  0  0  0  0  0  0
   -3.8558    0.9005   -2.4853 H   0  0  0  0  0  0  0  0  0  0  0  0
   -2.2403    0.7244   -3.1161 H   0  0  0  0  0  0  0  0  0  0  0  0
   -2.7161    2.2600   -2.4415 H   0  0  0  0  0  0  0  0  0  0  0  0
   -2.8193    1.2087    1.1551 H   0  0  0  0  0  0  0  0  0  0  0  0
   -2.7283    2.6109    0.1487 H   0  0  0  0  0  0  0  0  0  0  0  0
   -4.9727    2.1027    0.9937 H   0  0  0  0  0  0  0  0  0  0  0  0
   -4.8912    2.3732   -0.7118 H   0  0  0  0  0  0  0  0  0  0  0  0
   -5.6048    0.3115   -1.2955 H   0  0  0  0  0  0  0  0  0  0  0  0
   -7.7156   -0.0287   -1.2249 H   0  0  0  0  0  0  0  0  0  0  0  0
   -8.8782    1.8886   -0.3923 H   0  0  0  0  0  0  0  0  0  0  0  0
   -8.8565    1.3165    1.2259 H   0  0  0  0  0  0  0  0  0  0  0  0
  -10.8107    1.5477   -1.7779 H   0  0  0  0  0  0  0  0  0  0  0  0
  -11.8614    0.1541   -1.5881 H   0  0  0  0  0  0  0  0  0  0  0  0
  -10.1842   -0.0781   -2.1339 H   0  0  0  0  0  0  0  0  0  0  0  0
  -10.3769    0.7551    2.5632 H   0  0  0  0  0  0  0  0  0  0  0  0
  1  2  1  0
  2  3  2  0
  3  4  1  0
  4  5  2  0
  4  6  1  0
  6  7  1  0
  7  8  1  0
  8  9  1  0
  9 10  1  0
 10 11  1  0
 11 12  1  0
 12 13  1  0
 13 14  1  0
 13 15  1  0
 15 16  1  0
 16 17  1  0
 17 18  1  0
 18 19  1  0
 19 20  1  0
 20 21  1  0
 21 22  1  0
 21 23  1  0
 23 24  1  0
 24 25  2  3
 25 26  1  0
 26 27  1  0
 27 28  1  0
 28 29  1  0
 29 30  1  0
 30 31  1  0
 31 32  1  0
 32 33  1  0
 33 34  1  0
 34 35  1  0
 34 36  1  0
 36 37  1  0
 32 38  1  0
 38 39  1  0
 39 40  1  0
 39 41  1  0
 41 42  1  0
 41 43  1  0
 43 44  1  0
 44 45  1  0
 45 46  1  0
 46 47  1  0
 47 48  1  0
 48 49  1  0
 49 50  1  0
 50 51  1  0
 50 52  1  0
 52 53  1  0
 53 54  1  0
 53 55  1  0
 55 56  1  0
 56 57  1  0
 57 58  1  0
 58 59  1  0
 59 60  1  0
 60 61  1  0
 61 62  1  0
 61 63  1  0
 63 64  1  0
 64  2  1  0
 64  7  1  0
 61  9  1  0
 59 11  1  0
 57 15  1  0
 53 17  1  0
 50 19  1  0
 48 21  1  0
 46 26  1  0
 44 28  1  0
 41 30  1  0
  1 65  1  0
  1 66  1  0
  1 67  1  0
  3 68  1  0
  7 69  1  0
  8 70  1  0
  8 71  1  0
  9 72  1  0
 11 73  1  0
 12 74  1  0
 12 75  1  0
 13 76  1  0
 14 77  1  0
 14 78  1  0
 14 79  1  0
 15 80  1  0
 17 81  1  0
 18 82  1  0
 18 83  1  0
 19 84  1  0
 22 85  1  0
 22 86  1  0
 22 87  1  0
 23 88  1  0
 23 89  1  0
 24 90  1  0
 25 91  1  0
 26 92  1  0
 28 93  1  0
 29 94  1  0
 29 95  1  0
 30 96  1  0
 32 97  1  0
 33 98  1  0
 33 99  1  0
 34100  1  0
 35101  1  0
 35102  1  0
 35103  1  0
 36104  1  0
 36105  1  0
 37106  1  0
 38107  1  0
 38108  1  0
 39109  1  0
 40110  1  0
 42111  1  0
 42112  1  0
 42113  1  0
 44114  1  0
 45115  1  0
 45116  1  0
 46117  1  0
 48118  1  0
 49119  1  0
 49120  1  0
 51121  1  0
 51122  1  0
 51123  1  0
 54124  1  0
 54125  1  0
 54126  1  0
 55127  1  0
 55128  1  0
 56129  1  0
 56130  1  0
 57131  1  0
 59132  1  0
 60133  1  0
 60134  1  0
 62135  1  0
 62136  1  0
 62137  1  0
 64138  1  0
M  END
$$$$
