
     RDKit          3D

 59 62  0  0  0  0  0  0  0  0999 V2000
   -1.0594   -0.2231   -0.8991 O   0  0  0  0  0  0  0  0  0  0  0  0
   -0.2630   -1.0697   -0.4893 C   0  0  0  0  0  0  0  0  0  0  0  0
   -0.7145   -2.4262    0.0890 C   0  0  0  0  0  0  0  0  0  0  0  0
   -2.1466   -2.5478    0.4050 N   0  0  0  0  0  0  0  0  0  0  0  0
   -3.0561   -2.4253   -0.7504 C   0  0  0  0  0  0  0  0  0  0  0  0
   -4.0740   -1.2564   -0.6873 C   0  0  0  0  0  0  0  0  0  0  0  0
   -4.8539   -1.2546    0.5810 N   0  0  0  0  0  0  0  0  0  0  0  0
   -5.3711    0.0427    0.8118 C   0  0  0  0  0  0  0  0  0  0  0  0
   -4.7205    0.8526    1.6874 N   0  0  0  0  0  0  0  0  0  0  0  0
   -5.1856    2.1085    1.8842 C   0  0  0  0  0  0  0  0  0  0  0  0
   -6.2961    2.6339    1.2471 C   0  0  0  0  0  0  0  0  0  0  0  0
   -6.7460    4.0278    1.5477 C   0  0  0  0  0  0  0  0  0  0  0  0
   -7.5174    4.5670    0.5637 F   0  0  0  0  0  0  0  0  0  0  0  0
   -5.7099    4.8935    1.7235 F   0  0  0  0  0  0  0  0  0  0  0  0
   -7.4883    4.0975    2.6860 F   0  0  0  0  0  0  0  0  0  0  0  0
   -6.9801    1.7980    0.3632 C   0  0  0  0  0  0  0  0  0  0  0  0
   -6.5205    0.4976    0.1386 C   0  0  0  0  0  0  0  0  0  0  0  0
   -7.4394   -0.4998   -0.9340 Cl  0  0  0  0  0  0  0  0  0  0  0  0
   -4.1068   -1.7999    1.7385 C   0  0  0  0  0  0  0  0  0  0  0  0
   -2.5777   -1.7163    1.5423 C   0  0  0  0  0  0  0  0  0  0  0  0
    1.1156   -0.8385   -0.5321 N   0  0  0  0  0  0  0  0  0  0  0  0
    1.5643    0.3924   -1.1998 C   0  0  0  0  0  0  0  0  0  0  0  0
    2.9708    0.8401   -0.7625 C   0  0  0  0  0  0  0  0  0  0  0  0
    3.9250   -0.2860   -0.8956 N   0  0  0  0  0  0  0  0  0  0  0  0
    5.2410    0.1427   -0.6105 C   0  0  0  0  0  0  0  0  0  0  0  0
    5.7481   -0.1005    0.6244 N   0  0  0  0  0  0  0  0  0  0  0  0
    7.0049    0.3187    0.9067 C   0  0  0  0  0  0  0  0  0  0  0  0
    7.8244    0.9773    0.0063 C   0  0  0  0  0  0  0  0  0  0  0  0
    9.1945    1.4249    0.4066 C   0  0  0  0  0  0  0  0  0  0  0  0
    9.7053    0.7219    1.4552 F   0  0  0  0  0  0  0  0  0  0  0  0
   10.1036    1.3060   -0.5999 F   0  0  0  0  0  0  0  0  0  0  0  0
    9.2197    2.7321    0.7832 F   0  0  0  0  0  0  0  0  0  0  0  0
    7.3060    1.2263   -1.2659 C   0  0  0  0  0  0  0  0  0  0  0  0
    6.0128    0.8054   -1.5835 C   0  0  0  0  0  0  0  0  0  0  0  0
    5.4465    1.0891   -3.1925 Cl  0  0  0  0  0  0  0  0  0  0  0  0
    3.5077   -1.4348   -0.0646 C   0  0  0  0  0  0  0  0  0  0  0  0
    2.1140   -1.9213   -0.5067 C   0  0  0  0  0  0  0  0  0  0  0  0
   -0.4443   -3.2065   -0.6324 H   0  0  0  0  0  0  0  0  0  0  0  0
   -0.1535   -2.6199    1.0102 H   0  0  0  0  0  0  0  0  0  0  0  0
   -3.6285   -3.3611   -0.7949 H   0  0  0  0  0  0  0  0  0  0  0  0
   -2.5063   -2.3729   -1.6982 H   0  0  0  0  0  0  0  0  0  0  0  0
   -3.5367   -0.3082   -0.8140 H   0  0  0  0  0  0  0  0  0  0  0  0
   -4.7568   -1.3577   -1.5381 H   0  0  0  0  0  0  0  0  0  0  0  0
   -4.6089    2.6954    2.5970 H   0  0  0  0  0  0  0  0  0  0  0  0
   -7.8720    2.1549   -0.1479 H   0  0  0  0  0  0  0  0  0  0  0  0
   -4.3917   -2.8560    1.8393 H   0  0  0  0  0  0  0  0  0  0  0  0
   -4.3971   -1.3381    2.6909 H   0  0  0  0  0  0  0  0  0  0  0  0
   -2.2822   -0.6688    1.4107 H   0  0  0  0  0  0  0  0  0  0  0  0
   -2.0898   -2.0825    2.4532 H   0  0  0  0  0  0  0  0  0  0  0  0
    1.5540    0.1906   -2.2784 H   0  0  0  0  0  0  0  0  0  0  0  0
    0.8538    1.2043   -1.0088 H   0  0  0  0  0  0  0  0  0  0  0  0
    3.2658    1.6982   -1.3767 H   0  0  0  0  0  0  0  0  0  0  0  0
    2.9341    1.1778    0.2825 H   0  0  0  0  0  0  0  0  0  0  0  0
    7.3366    0.0950    1.9194 H   0  0  0  0  0  0  0  0  0  0  0  0
    7.9110    1.7385   -2.0117 H   0  0  0  0  0  0  0  0  0  0  0  0
    3.4596   -1.1551    0.9966 H   0  0  0  0  0  0  0  0  0  0  0  0
    4.2175   -2.2642   -0.1733 H   0  0  0  0  0  0  0  0  0  0  0  0
    2.1618   -2.3282   -1.5245 H   0  0  0  0  0  0  0  0  0  0  0  0
    1.7964   -2.7314    0.1532 H   0  0  0  0  0  0  0  0  0  0  0  0
  1  2  2  0
  2  3  1  0
  3  4  1  0
  4  5  1  0
  5  6  1  0
  6  7  1  0
  7  8  1  0
  8  9  2  0
  9 10  1  0
 10 11  2  0
 11 12  1  0
 12 13  1  0
 12 14  1  0
 12 15  1  0
 11 16  1  0
 16 17  2  0
 17 18  1  0
  7 19  1  0
 19 20  1  0
  2 21  1  0
 21 22  1  0
 22 23  1  0
 23 24  1  0
 24 25  1  0
 25 26  2  0
 26 27  1  0
 27 28  2  0
 28 29  1  0
 29 30  1  0
 29 31  1  0
 29 32  1  0
 28 33  1  0
 33 34  2  0
 34 35  1  0
 24 36  1  0
 36 37  1  0
 20  4  1  0
 37 21  1  0
 17  8  1  0
 34 25  1  0
  3 38  1  0
  3 39  1  0
  5 40  1  0
  5 41  1  0
  6 42  1  0
  6 43  1  0
 10 44  1  0
 16 45  1  0
 19 46  1  0
 19 47  1  0
 20 48  1  0
 20 49  1  0
 22 50  1  0
 22 51  1  0
 23 52  1  0
 23 53  1  0
 27 54  1  0
 33 55  1  0
 36 56  1  0
 36 57  1  0
 37 58  1  0
 37 59  1  0
M  END
$$$$
