
     RDKit          3D

 51 53  0  0  0  0  0  0  0  0999 V2000
   -0.2441    5.3457   -3.0337 C   0  0  0  0  0  0  0  0  0  0  0  0
   -0.2069    4.7811   -1.6199 C   0  0  0  0  0  0  0  0  0  0  0  0
   -1.5673    4.2941   -1.1138 C   0  0  0  0  0  0  0  0  0  0  0  0
   -2.2127    2.8400   -2.0115 S   0  0  0  0  0  0  0  0  0  0  0  0
   -1.3811    1.5002   -1.1642 C   0  0  0  0  0  0  0  0  0  0  0  0
   -1.7909    0.2084   -1.4159 C   0  0  0  0  0  0  0  0  0  0  0  0
   -1.1411   -0.8116   -0.7494 C   0  0  0  0  0  0  0  0  0  0  0  0
   -1.5068   -2.1371   -0.9195 N   0  0  0  0  0  0  0  0  0  0  0  0
   -2.0340   -2.6156   -2.2079 C   0  0  0  0  0  0  0  0  0  0  0  0
   -1.4800   -4.0147   -2.5764 C   0  0  0  0  0  0  0  0  0  0  0  0
   -1.6169   -5.0625   -1.5447 N   0  0  0  0  0  0  0  0  0  0  0  0
   -2.8304   -5.8558   -1.7253 C   0  0  0  0  0  0  0  0  0  0  0  0
   -1.5671   -4.4900   -0.1799 C   0  0  0  0  0  0  0  0  0  0  0  0
   -0.8234   -3.1391   -0.0838 C   0  0  0  0  0  0  0  0  0  0  0  0
   -0.1619   -0.5258    0.1259 N   0  0  0  0  0  0  0  0  0  0  0  0
    0.1844    0.7613    0.3114 C   0  0  0  0  0  0  0  0  0  0  0  0
    1.2648    1.0546    1.2760 C   0  0  0  0  0  0  0  0  0  0  0  0
    1.8804    0.0363    2.0278 C   0  0  0  0  0  0  0  0  0  0  0  0
    2.9053    0.3088    2.9465 C   0  0  0  0  0  0  0  0  0  0  0  0
    3.3444    1.6152    3.1375 C   0  0  0  0  0  0  0  0  0  0  0  0
    4.3272    2.0191    3.9979 O   0  0  0  0  0  0  0  0  0  0  0  0
    5.0344    0.9967    4.6887 C   0  0  0  0  0  0  0  0  0  0  0  0
    2.7462    2.6411    2.4080 C   0  0  0  0  0  0  0  0  0  0  0  0
    1.7250    2.3651    1.4905 C   0  0  0  0  0  0  0  0  0  0  0  0
   -0.3917    1.7967   -0.3139 N   0  0  0  0  0  0  0  0  0  0  0  0
   -1.0180    6.1155   -3.1312 H   0  0  0  0  0  0  0  0  0  0  0  0
   -0.4319    4.5649   -3.7747 H   0  0  0  0  0  0  0  0  0  0  0  0
    0.7196    5.8050   -3.2777 H   0  0  0  0  0  0  0  0  0  0  0  0
    0.5424    3.9812   -1.5706 H   0  0  0  0  0  0  0  0  0  0  0  0
    0.1429    5.5740   -0.9463 H   0  0  0  0  0  0  0  0  0  0  0  0
   -1.5208    4.0754   -0.0400 H   0  0  0  0  0  0  0  0  0  0  0  0
   -2.3026    5.0961   -1.2298 H   0  0  0  0  0  0  0  0  0  0  0  0
   -2.6122    0.0141   -2.0914 H   0  0  0  0  0  0  0  0  0  0  0  0
   -3.1291   -2.6549   -2.1460 H   0  0  0  0  0  0  0  0  0  0  0  0
   -1.7681   -1.9382   -3.0293 H   0  0  0  0  0  0  0  0  0  0  0  0
   -1.9122   -4.3419   -3.5299 H   0  0  0  0  0  0  0  0  0  0  0  0
   -0.4044   -3.9047   -2.7726 H   0  0  0  0  0  0  0  0  0  0  0  0
   -2.8896   -6.6482   -0.9679 H   0  0  0  0  0  0  0  0  0  0  0  0
   -3.7407   -5.2448   -1.6595 H   0  0  0  0  0  0  0  0  0  0  0  0
   -2.8198   -6.3575   -2.6996 H   0  0  0  0  0  0  0  0  0  0  0  0
   -2.5847   -4.3297    0.2036 H   0  0  0  0  0  0  0  0  0  0  0  0
   -1.0842   -5.2160    0.4836 H   0  0  0  0  0  0  0  0  0  0  0  0
   -0.8273   -2.8317    0.9689 H   0  0  0  0  0  0  0  0  0  0  0  0
    0.2203   -3.2573   -0.4005 H   0  0  0  0  0  0  0  0  0  0  0  0
    1.5572   -0.9954    1.9047 H   0  0  0  0  0  0  0  0  0  0  0  0
    3.3303   -0.5241    3.4958 H   0  0  0  0  0  0  0  0  0  0  0  0
    5.5323    0.3178    3.9883 H   0  0  0  0  0  0  0  0  0  0  0  0
    4.3724    0.4501    5.3681 H   0  0  0  0  0  0  0  0  0  0  0  0
    5.8101    1.4760    5.2937 H   0  0  0  0  0  0  0  0  0  0  0  0
    3.0758    3.6677    2.5518 H   0  0  0  0  0  0  0  0  0  0  0  0
    1.2869    3.1942    0.9387 H   0  0  0  0  0  0  0  0  0  0  0  0
  1  2  1  0
  2  3  1  0
  3  4  1  0
  4  5  1  0
  5  6  2  0
  6  7  1  0
  7  8  1  0
  8  9  1  0
  9 10  1  0
 10 11  1  0
 11 12  1  0
 11 13  1  0
 13 14  1  0
  7 15  2  0
 15 16  1  0
 16 17  1  0
 17 18  2  0
 18 19  1  0
 19 20  2  0
 20 21  1  0
 21 22  1  0
 20 23  1  0
 23 24  2  0
 16 25  2  0
 25  5  1  0
 14  8  1  0
 24 17  1  0
  1 26  1  0
  1 27  1  0
  1 28  1  0
  2 29  1  0
  2 30  1  0
  3 31  1  0
  3 32  1  0
  6 33  1  0
  9 34  1  0
  9 35  1  0
 10 36  1  0
 10 37  1  0
 12 38  1  0
 12 39  1  0
 12 40  1  0
 13 41  1  0
 13 42  1  0
 14 43  1  0
 14 44  1  0
 18 45  1  0
 19 46  1  0
 22 47  1  0
 22 48  1  0
 22 49  1  0
 23 50  1  0
 24 51  1  0
M  END
$$$$
