
     RDKit          3D

 53 57  0  0  0  0  0  0  0  0999 V2000
    3.9034    1.4335    1.8818 C   0  0  0  0  0  0  0  0  0  0  0  0
    4.2172    0.0311    1.4405 C   0  0  0  0  0  0  0  0  0  0  0  0
    5.5645   -0.3313    1.2668 C   0  0  0  0  0  0  0  0  0  0  0  0
    5.9198   -1.6235    0.8732 C   0  0  0  0  0  0  0  0  0  0  0  0
    4.9358   -2.5810    0.6496 C   0  0  0  0  0  0  0  0  0  0  0  0
    3.5932   -2.2480    0.8198 C   0  0  0  0  0  0  0  0  0  0  0  0
    3.2308   -0.9486    1.2109 C   0  0  0  0  0  0  0  0  0  0  0  0
    1.4881   -0.6014    1.4243 S   0  0  0  0  0  6  0  0  0  0  0  0
    0.7620   -1.8238    1.1402 O   0  0  0  0  0  0  0  0  0  0  0  0
    1.3240    0.0681    2.6945 O   0  0  0  0  0  0  0  0  0  0  0  0
    1.1994    0.4234    0.1086 N   0  0  0  0  0  0  0  0  0  0  0  0
    0.1175    1.3256    0.3441 C   0  0  0  0  0  0  0  0  0  0  0  0
    0.4019    2.3988    1.1007 N   0  0  0  0  0  0  0  0  0  0  0  0
   -0.6246    3.2357    1.3271 C   0  0  0  0  0  0  0  0  0  0  0  0
   -0.4216    4.3572    2.1207 C   0  0  0  0  0  0  0  0  0  0  0  0
   -1.4550    5.2570    2.3850 C   0  0  0  0  0  0  0  0  0  0  0  0
   -2.7150    5.0324    1.8456 C   0  0  0  0  0  0  0  0  0  0  0  0
   -2.9324    3.9094    1.0456 C   0  0  0  0  0  0  0  0  0  0  0  0
   -1.9137    3.0047    0.7748 C   0  0  0  0  0  0  0  0  0  0  0  0
   -2.1724    1.9352   -0.0063 N   0  0  0  0  0  0  0  0  0  0  0  0
   -1.1506    1.0805   -0.2228 C   0  0  0  0  0  0  0  0  0  0  0  0
   -1.3136   -0.0527   -1.0692 N   0  0  0  0  0  0  0  0  0  0  0  0
   -1.9207    0.3557   -2.3504 C   0  0  0  0  0  0  0  0  0  0  0  0
   -1.8726   -0.8333   -3.3169 C   0  0  0  0  0  0  0  0  0  0  0  0
   -2.3722   -2.1101   -2.6831 C   0  0  0  0  0  0  0  0  0  0  0  0
   -2.6805   -3.2141   -3.4897 C   0  0  0  0  0  0  0  0  0  0  0  0
   -3.0994   -4.4126   -2.9132 C   0  0  0  0  0  0  0  0  0  0  0  0
   -3.2063   -4.5209   -1.5287 C   0  0  0  0  0  0  0  0  0  0  0  0
   -2.8937   -3.4308   -0.7162 C   0  0  0  0  0  0  0  0  0  0  0  0
   -2.4644   -2.2205   -1.2809 C   0  0  0  0  0  0  0  0  0  0  0  0
   -2.1760   -1.0355   -0.3773 C   0  0  0  0  0  0  0  0  0  0  0  0
    3.2017    1.9133    1.1964 H   0  0  0  0  0  0  0  0  0  0  0  0
    4.8043    2.0578    1.8891 H   0  0  0  0  0  0  0  0  0  0  0  0
    3.5011    1.4372    2.8988 H   0  0  0  0  0  0  0  0  0  0  0  0
    6.3550    0.3963    1.4422 H   0  0  0  0  0  0  0  0  0  0  0  0
    6.9682   -1.8818    0.7469 H   0  0  0  0  0  0  0  0  0  0  0  0
    5.2129   -3.5882    0.3487 H   0  0  0  0  0  0  0  0  0  0  0  0
    2.8373   -3.0120    0.6493 H   0  0  0  0  0  0  0  0  0  0  0  0
    0.8926   -0.1898   -0.6562 H   0  0  0  0  0  0  0  0  0  0  0  0
    0.5646    4.5295    2.5460 H   0  0  0  0  0  0  0  0  0  0  0  0
   -1.2723    6.1264    3.0118 H   0  0  0  0  0  0  0  0  0  0  0  0
   -3.5292    5.7248    2.0456 H   0  0  0  0  0  0  0  0  0  0  0  0
   -3.9199    3.7340    0.6250 H   0  0  0  0  0  0  0  0  0  0  0  0
   -1.3652    1.1910   -2.7968 H   0  0  0  0  0  0  0  0  0  0  0  0
   -2.9622    0.6799   -2.2139 H   0  0  0  0  0  0  0  0  0  0  0  0
   -0.8356   -1.0000   -3.6351 H   0  0  0  0  0  0  0  0  0  0  0  0
   -2.4656   -0.5957   -4.2078 H   0  0  0  0  0  0  0  0  0  0  0  0
   -2.5912   -3.1464   -4.5715 H   0  0  0  0  0  0  0  0  0  0  0  0
   -3.3381   -5.2646   -3.5443 H   0  0  0  0  0  0  0  0  0  0  0  0
   -3.5316   -5.4562   -1.0801 H   0  0  0  0  0  0  0  0  0  0  0  0
   -2.9796   -3.5316    0.3638 H   0  0  0  0  0  0  0  0  0  0  0  0
   -3.1403   -0.5937   -0.0894 H   0  0  0  0  0  0  0  0  0  0  0  0
   -1.6798   -1.3905    0.5327 H   0  0  0  0  0  0  0  0  0  0  0  0
  1  2  1  0
  2  3  2  0
  3  4  1  0
  4  5  2  0
  5  6  1  0
  6  7  2  0
  7  8  1  0
  8  9  2  0
  8 10  2  0
  8 11  1  0
 11 12  1  0
 12 13  2  0
 13 14  1  0
 14 15  2  0
 15 16  1  0
 16 17  2  0
 17 18  1  0
 18 19  2  0
 19 20  1  0
 20 21  2  0
 21 22  1  0
 22 23  1  0
 23 24  1  0
 24 25  1  0
 25 26  2  0
 26 27  1  0
 27 28  2  0
 28 29  1  0
 29 30  2  0
 30 31  1  0
  7  2  1  0
 21 12  1  0
 31 22  1  0
 19 14  1  0
 30 25  1  0
  1 32  1  0
  1 33  1  0
  1 34  1  0
  3 35  1  0
  4 36  1  0
  5 37  1  0
  6 38  1  0
 11 39  1  0
 15 40  1  0
 16 41  1  0
 17 42  1  0
 18 43  1  0
 23 44  1  0
 23 45  1  0
 24 46  1  0
 24 47  1  0
 26 48  1  0
 27 49  1  0
 28 50  1  0
 29 51  1  0
 31 52  1  0
 31 53  1  0
M  END
$$$$
