
     RDKit          3D

 46 48  0  0  0  0  0  0  0  0999 V2000
    8.2239   -0.2337    0.5556 C   0  0  0  0  0  0  0  0  0  0  0  0
    7.2667   -1.2574    0.7992 O   0  0  0  0  0  0  0  0  0  0  0  0
    5.9544   -0.9398    0.5869 C   0  0  0  0  0  0  0  0  0  0  0  0
    5.4662    0.2928    0.1578 C   0  0  0  0  0  0  0  0  0  0  0  0
    4.0898    0.4795   -0.0188 C   0  0  0  0  0  0  0  0  0  0  0  0
    3.1861   -0.5629    0.2300 C   0  0  0  0  0  0  0  0  0  0  0  0
    1.7280   -0.3043    0.0248 C   0  0  0  0  0  0  0  0  0  0  0  0
    1.3600    0.8318   -0.2768 O   0  0  0  0  0  0  0  0  0  0  0  0
    0.7558   -1.4658    0.2115 C   0  0  0  0  0  0  0  0  0  0  0  0
   -0.5752   -1.0356   -0.1474 N   0  0  0  0  0  0  0  0  0  0  0  0
   -1.0785   -1.0725   -1.4074 C   0  0  0  0  0  0  0  0  0  0  0  0
   -0.5388   -1.5161   -2.4070 O   0  0  0  0  0  0  0  0  0  0  0  0
   -2.3399   -0.5265   -1.3892 N   0  0  0  0  0  0  0  0  0  0  0  0
   -2.6857    0.0411   -0.0992 C   0  0  0  0  0  0  0  0  0  0  0  0
   -3.9344   -0.6252    0.4891 C   0  0  0  0  0  0  0  0  0  0  0  0
   -5.2428   -0.3459   -0.2469 C   0  0  0  0  0  0  0  0  0  0  0  0
   -5.5020    1.1035   -0.6450 C   0  0  0  0  0  0  0  0  0  0  0  0
   -5.1418    2.1453    0.4117 C   0  0  0  0  0  0  0  0  0  0  0  0
   -3.6596    2.2573    0.7947 C   0  0  0  0  0  0  0  0  0  0  0  0
   -2.6799    1.5820   -0.1654 C   0  0  0  0  0  0  0  0  0  0  0  0
   -1.4497   -0.4251    0.7051 C   0  0  0  0  0  0  0  0  0  0  0  0
   -1.2816   -0.2565    1.9064 O   0  0  0  0  0  0  0  0  0  0  0  0
    3.6783   -1.7983    0.6625 C   0  0  0  0  0  0  0  0  0  0  0  0
    5.0549   -1.9791    0.8373 C   0  0  0  0  0  0  0  0  0  0  0  0
    8.2109    0.0770   -0.4943 H   0  0  0  0  0  0  0  0  0  0  0  0
    9.2150   -0.6454    0.7687 H   0  0  0  0  0  0  0  0  0  0  0  0
    8.0671    0.6200    1.2233 H   0  0  0  0  0  0  0  0  0  0  0  0
    6.1236    1.1310   -0.0490 H   0  0  0  0  0  0  0  0  0  0  0  0
    3.7276    1.4503   -0.3547 H   0  0  0  0  0  0  0  0  0  0  0  0
    0.7614   -1.7736    1.2615 H   0  0  0  0  0  0  0  0  0  0  0  0
    1.0457   -2.2927   -0.4439 H   0  0  0  0  0  0  0  0  0  0  0  0
   -2.8427   -0.3763   -2.2541 H   0  0  0  0  0  0  0  0  0  0  0  0
   -3.7931   -1.7151    0.5194 H   0  0  0  0  0  0  0  0  0  0  0  0
   -4.0517   -0.3347    1.5411 H   0  0  0  0  0  0  0  0  0  0  0  0
   -5.2881   -0.9645   -1.1520 H   0  0  0  0  0  0  0  0  0  0  0  0
   -6.0675   -0.6900    0.3904 H   0  0  0  0  0  0  0  0  0  0  0  0
   -6.5689    1.2043   -0.8830 H   0  0  0  0  0  0  0  0  0  0  0  0
   -4.9803    1.3262   -1.5830 H   0  0  0  0  0  0  0  0  0  0  0  0
   -5.7331    1.9709    1.3193 H   0  0  0  0  0  0  0  0  0  0  0  0
   -5.4660    3.1232    0.0323 H   0  0  0  0  0  0  0  0  0  0  0  0
   -3.5096    1.8706    1.8101 H   0  0  0  0  0  0  0  0  0  0  0  0
   -3.4074    3.3240    0.8563 H   0  0  0  0  0  0  0  0  0  0  0  0
   -2.8836    1.9295   -1.1863 H   0  0  0  0  0  0  0  0  0  0  0  0
   -1.6729    1.9585    0.0612 H   0  0  0  0  0  0  0  0  0  0  0  0
    3.0262   -2.6393    0.8760 H   0  0  0  0  0  0  0  0  0  0  0  0
    5.4329   -2.9424    1.1741 H   0  0  0  0  0  0  0  0  0  0  0  0
  1  2  1  0
  2  3  1  0
  3  4  2  0
  4  5  1  0
  5  6  2  0
  6  7  1  0
  7  8  2  0
  7  9  1  0
  9 10  1  0
 10 11  1  0
 11 12  2  0
 11 13  1  0
 13 14  1  0
 14 15  1  0
 15 16  1  0
 16 17  1  0
 17 18  1  0
 18 19  1  0
 19 20  1  0
 14 21  1  0
 21 22  2  0
  6 23  1  0
 23 24  2  0
 24  3  1  0
 21 10  1  0
 20 14  1  0
  1 25  1  0
  1 26  1  0
  1 27  1  0
  4 28  1  0
  5 29  1  0
  9 30  1  0
  9 31  1  0
 13 32  1  0
 15 33  1  0
 15 34  1  0
 16 35  1  0
 16 36  1  0
 17 37  1  0
 17 38  1  0
 18 39  1  0
 18 40  1  0
 19 41  1  0
 19 42  1  0
 20 43  1  0
 20 44  1  0
 23 45  1  0
 24 46  1  0
M  END
$$$$
