
     RDKit          3D

 53 56  0  0  0  0  0  0  0  0999 V2000
    8.6767   -0.9123    1.7607 C   0  0  0  0  0  0  0  0  0  0  0  0
    7.4880   -0.7391    0.8323 C   0  0  0  0  0  0  0  0  0  0  0  0
    6.3300   -0.5215    1.6364 O   0  0  0  0  0  0  0  0  0  0  0  0
    5.1452   -0.3354    0.9811 C   0  0  0  0  0  0  0  0  0  0  0  0
    4.9565   -0.3474   -0.3973 C   0  0  0  0  0  0  0  0  0  0  0  0
    3.6776   -0.1415   -0.9341 C   0  0  0  0  0  0  0  0  0  0  0  0
    2.5546    0.0859   -0.1167 C   0  0  0  0  0  0  0  0  0  0  0  0
    1.2184    0.3027   -0.7133 C   0  0  0  0  0  0  0  0  0  0  0  0
    0.2306    1.0578   -0.1061 C   0  0  0  0  0  0  0  0  0  0  0  0
   -0.9983    1.1814   -0.7531 C   0  0  0  0  0  0  0  0  0  0  0  0
   -2.0353    1.9648   -0.0578 C   0  0  0  0  0  0  0  0  0  0  0  0
   -1.9210    3.1865   -0.0542 O   0  0  0  0  0  0  0  0  0  0  0  0
   -3.0681    1.2774    0.5641 N   0  0  0  0  0  0  0  0  0  0  0  0
   -4.1282    2.0457    1.2198 C   0  0  0  0  0  0  0  0  0  0  0  0
   -5.4442    1.2523    1.2836 C   0  0  0  0  0  0  0  0  0  0  0  0
   -5.3290   -0.0263    2.0160 N   0  0  0  0  0  0  0  0  0  0  0  0
   -6.3735   -0.9573    1.5987 C   0  0  0  0  0  0  0  0  0  0  0  0
   -3.9819   -0.6197    1.9113 C   0  0  0  0  0  0  0  0  0  0  0  0
   -3.1646   -0.1845    0.6797 C   0  0  0  0  0  0  0  0  0  0  0  0
   -1.2310    0.6025   -2.0148 C   0  0  0  0  0  0  0  0  0  0  0  0
   -2.4328    0.7311   -2.7555 C   0  0  0  0  0  0  0  0  0  0  0  0
   -2.5775    0.1146   -3.9959 C   0  0  0  0  0  0  0  0  0  0  0  0
   -1.5274   -0.6311   -4.5126 C   0  0  0  0  0  0  0  0  0  0  0  0
   -0.3385   -0.7487   -3.7877 C   0  0  0  0  0  0  0  0  0  0  0  0
   -0.1675   -0.1417   -2.5503 C   0  0  0  0  0  0  0  0  0  0  0  0
    1.0092   -0.2919   -1.9166 N   0  0  0  0  0  0  0  0  0  0  0  0
    2.7690    0.0860    1.2721 C   0  0  0  0  0  0  0  0  0  0  0  0
    4.0455   -0.1198    1.8106 C   0  0  0  0  0  0  0  0  0  0  0  0
    9.5946   -1.0830    1.1912 H   0  0  0  0  0  0  0  0  0  0  0  0
    8.8091   -0.0241    2.3873 H   0  0  0  0  0  0  0  0  0  0  0  0
    8.5175   -1.7587    2.4371 H   0  0  0  0  0  0  0  0  0  0  0  0
    7.6664    0.1237    0.1801 H   0  0  0  0  0  0  0  0  0  0  0  0
    7.3685   -1.6479    0.2312 H   0  0  0  0  0  0  0  0  0  0  0  0
    5.7752   -0.5143   -1.0888 H   0  0  0  0  0  0  0  0  0  0  0  0
    3.5604   -0.1566   -2.0174 H   0  0  0  0  0  0  0  0  0  0  0  0
    0.3941    1.5583    0.8422 H   0  0  0  0  0  0  0  0  0  0  0  0
   -3.7777    2.2940    2.2289 H   0  0  0  0  0  0  0  0  0  0  0  0
   -4.2863    2.9881    0.6838 H   0  0  0  0  0  0  0  0  0  0  0  0
   -5.7709    1.0698    0.2504 H   0  0  0  0  0  0  0  0  0  0  0  0
   -6.2144    1.8661    1.7642 H   0  0  0  0  0  0  0  0  0  0  0  0
   -6.3605   -1.8556    2.2258 H   0  0  0  0  0  0  0  0  0  0  0  0
   -6.2579   -1.2647    0.5532 H   0  0  0  0  0  0  0  0  0  0  0  0
   -7.3642   -0.5052    1.7199 H   0  0  0  0  0  0  0  0  0  0  0  0
   -3.4298   -0.3052    2.8068 H   0  0  0  0  0  0  0  0  0  0  0  0
   -4.0204   -1.7150    1.9597 H   0  0  0  0  0  0  0  0  0  0  0  0
   -2.1632   -0.6221    0.7340 H   0  0  0  0  0  0  0  0  0  0  0  0
   -3.6445   -0.5517   -0.2347 H   0  0  0  0  0  0  0  0  0  0  0  0
   -3.2605    1.3234   -2.3694 H   0  0  0  0  0  0  0  0  0  0  0  0
   -3.5024    0.2222   -4.5567 H   0  0  0  0  0  0  0  0  0  0  0  0
   -1.6226   -1.1164   -5.4805 H   0  0  0  0  0  0  0  0  0  0  0  0
    0.4828   -1.3285   -4.2037 H   0  0  0  0  0  0  0  0  0  0  0  0
    1.9442    0.2303    1.9656 H   0  0  0  0  0  0  0  0  0  0  0  0
    4.1804   -0.1155    2.8897 H   0  0  0  0  0  0  0  0  0  0  0  0
  1  2  1  0
  2  3  1  0
  3  4  1  0
  4  5  2  0
  5  6  1  0
  6  7  2  0
  7  8  1  0
  8  9  2  0
  9 10  1  0
 10 11  1  0
 11 12  2  0
 11 13  1  0
 13 14  1  0
 14 15  1  0
 15 16  1  0
 16 17  1  0
 16 18  1  0
 18 19  1  0
 10 20  2  0
 20 21  1  0
 21 22  2  0
 22 23  1  0
 23 24  2  0
 24 25  1  0
 25 26  2  0
  7 27  1  0
 27 28  2  0
 28  4  1  0
 26  8  1  0
 19 13  1  0
 25 20  1  0
  1 29  1  0
  1 30  1  0
  1 31  1  0
  2 32  1  0
  2 33  1  0
  5 34  1  0
  6 35  1  0
  9 36  1  0
 14 37  1  0
 14 38  1  0
 15 39  1  0
 15 40  1  0
 17 41  1  0
 17 42  1  0
 17 43  1  0
 18 44  1  0
 18 45  1  0
 19 46  1  0
 19 47  1  0
 21 48  1  0
 22 49  1  0
 23 50  1  0
 24 51  1  0
 27 52  1  0
 28 53  1  0
M  END
$$$$
