
     RDKit          3D

 48 50  0  0  0  0  0  0  0  0999 V2000
   -2.4680   -2.9035   -3.4481 C   0  0  0  0  0  0  0  0  0  0  0  0
   -3.0053   -1.4853   -3.4041 C   0  0  0  0  0  0  0  0  0  0  0  0
   -2.6139   -0.8436   -2.1787 O   0  0  0  0  0  0  0  0  0  0  0  0
   -1.3952   -0.2352   -2.1923 C   0  0  0  0  0  0  0  0  0  0  0  0
   -0.6177   -0.2535   -3.1373 O   0  0  0  0  0  0  0  0  0  0  0  0
   -1.0797    0.3761   -0.8477 C   0  0  0  0  0  0  0  0  0  0  0  0
    0.2414    1.1154   -0.8828 C   0  0  0  0  0  0  0  0  0  0  0  0
    1.5200    0.3256   -0.7545 C   0  0  0  0  0  0  0  0  0  0  0  0
    1.8033   -0.0852    0.9476 S   0  0  0  0  0  6  0  0  0  0  0  0
    1.9173    1.1331    1.7250 O   0  0  0  0  0  0  0  0  0  0  0  0
    0.8522   -1.1211    1.3097 O   0  0  0  0  0  0  0  0  0  0  0  0
    3.4163   -0.8344    0.9241 C   0  0  0  0  0  0  0  0  0  0  0  0
    4.5392   -0.0272    0.7087 C   0  0  0  0  0  0  0  0  0  0  0  0
    5.8058   -0.6106    0.6874 C   0  0  0  0  0  0  0  0  0  0  0  0
    5.9460   -1.9850    0.8941 C   0  0  0  0  0  0  0  0  0  0  0  0
    4.8219   -2.7826    1.1229 C   0  0  0  0  0  0  0  0  0  0  0  0
    3.5504   -2.2095    1.1403 C   0  0  0  0  0  0  0  0  0  0  0  0
    0.3508    2.3935   -1.0748 N   0  0  0  0  0  0  0  0  0  0  0  0
   -0.7454    3.1903   -1.2281 C   0  0  0  0  0  0  0  0  0  0  0  0
   -0.6746    4.3616   -1.5785 O   0  0  0  0  0  0  0  0  0  0  0  0
   -1.9667    2.6567   -0.9582 N   0  0  0  0  0  0  0  0  0  0  0  0
   -2.1628    1.3463   -0.3955 C   0  0  0  0  0  0  0  0  0  0  0  0
   -2.3001    1.3740    1.1207 C   0  0  0  0  0  0  0  0  0  0  0  0
   -1.4699    2.1504    1.9439 C   0  0  0  0  0  0  0  0  0  0  0  0
   -1.6009    2.1082    3.3344 C   0  0  0  0  0  0  0  0  0  0  0  0
   -2.5590    1.2895    3.9229 C   0  0  0  0  0  0  0  0  0  0  0  0
   -3.3924    0.5117    3.1224 C   0  0  0  0  0  0  0  0  0  0  0  0
   -3.2618    0.5506    1.7324 C   0  0  0  0  0  0  0  0  0  0  0  0
   -1.3740   -2.9147   -3.3922 H   0  0  0  0  0  0  0  0  0  0  0  0
   -2.8353   -3.4793   -2.5909 H   0  0  0  0  0  0  0  0  0  0  0  0
   -2.7774   -3.4059   -4.3703 H   0  0  0  0  0  0  0  0  0  0  0  0
   -2.6809   -0.9023   -4.2757 H   0  0  0  0  0  0  0  0  0  0  0  0
   -4.1009   -1.5053   -3.4230 H   0  0  0  0  0  0  0  0  0  0  0  0
   -1.0017   -0.4730   -0.1618 H   0  0  0  0  0  0  0  0  0  0  0  0
    1.4606   -0.5990   -1.3327 H   0  0  0  0  0  0  0  0  0  0  0  0
    2.3629    0.9283   -1.1051 H   0  0  0  0  0  0  0  0  0  0  0  0
    4.4391    1.0490    0.5693 H   0  0  0  0  0  0  0  0  0  0  0  0
    6.6874    0.0053    0.5205 H   0  0  0  0  0  0  0  0  0  0  0  0
    6.9358   -2.4363    0.8861 H   0  0  0  0  0  0  0  0  0  0  0  0
    4.9385   -3.8502    1.3012 H   0  0  0  0  0  0  0  0  0  0  0  0
    2.6827   -2.8370    1.3345 H   0  0  0  0  0  0  0  0  0  0  0  0
   -2.7136    3.3383   -0.9343 H   0  0  0  0  0  0  0  0  0  0  0  0
   -3.1421    1.0475   -0.7879 H   0  0  0  0  0  0  0  0  0  0  0  0
   -0.6957    2.7925    1.5270 H   0  0  0  0  0  0  0  0  0  0  0  0
   -0.9369    2.7022    3.9591 H   0  0  0  0  0  0  0  0  0  0  0  0
   -2.6518    1.2511    5.0030 H   0  0  0  0  0  0  0  0  0  0  0  0
   -4.1342   -0.1363    3.5841 H   0  0  0  0  0  0  0  0  0  0  0  0
   -3.9137   -0.0813    1.1331 H   0  0  0  0  0  0  0  0  0  0  0  0
  1  2  1  0
  2  3  1  0
  3  4  1  0
  4  5  2  0
  4  6  1  0
  6  7  1  0
  7  8  1  0
  8  9  1  0
  9 10  2  0
  9 11  2  0
  9 12  1  0
 12 13  2  0
 13 14  1  0
 14 15  2  0
 15 16  1  0
 16 17  2  0
  7 18  2  0
 18 19  1  0
 19 20  2  0
 19 21  1  0
 21 22  1  0
 22 23  1  0
 23 24  2  0
 24 25  1  0
 25 26  2  0
 26 27  1  0
 27 28  2  0
 22  6  1  0
 28 23  1  0
 17 12  1  0
  1 29  1  0
  1 30  1  0
  1 31  1  0
  2 32  1  0
  2 33  1  0
  6 34  1  0
  8 35  1  0
  8 36  1  0
 13 37  1  0
 14 38  1  0
 15 39  1  0
 16 40  1  0
 17 41  1  0
 21 42  1  0
 22 43  1  0
 24 44  1  0
 25 45  1  0
 26 46  1  0
 27 47  1  0
 28 48  1  0
M  END
$$$$
