
     RDKit          3D

 37 39  0  0  0  0  0  0  0  0999 V2000
   -1.9472    2.2541   -2.4637 O   0  0  0  0  0  0  0  0  0  0  0  0
   -1.4342    1.2012   -2.7980 C   0  0  0  0  0  0  0  0  0  0  0  0
   -1.3365    0.8793   -4.1049 O   0  0  0  0  0  0  0  0  0  0  0  0
   -0.8935    0.1124   -1.9144 C   0  0  0  0  0  0  0  0  0  0  0  0
   -0.7376    0.5712   -0.4498 C   0  0  0  0  0  0  0  0  0  0  0  0
   -1.9455    0.2160    0.4301 C   0  0  0  0  0  0  0  0  0  0  0  0
   -3.2626    0.4479   -0.0045 C   0  0  0  0  0  0  0  0  0  0  0  0
   -4.3568    0.1816    0.8228 C   0  0  0  0  0  0  0  0  0  0  0  0
   -4.1570   -0.3012    2.1105 C   0  0  0  0  0  0  0  0  0  0  0  0
   -2.8625   -0.5158    2.5730 C   0  0  0  0  0  0  0  0  0  0  0  0
   -1.7609   -0.2664    1.7405 C   0  0  0  0  0  0  0  0  0  0  0  0
   -0.3679   -0.4766    2.2628 C   0  0  0  0  0  0  0  0  0  0  0  0
    0.5253   -0.9624    1.1344 C   0  0  0  0  0  0  0  0  0  0  0  0
    0.5794    0.0057    0.0189 N   0  0  0  0  0  0  0  0  0  0  0  0
    1.8711    1.1104    0.0155 S   0  0  0  0  0  6  0  0  0  0  0  0
    1.9523    1.6994    1.3333 O   0  0  0  0  0  0  0  0  0  0  0  0
    1.7695    1.9054   -1.1893 O   0  0  0  0  0  0  0  0  0  0  0  0
    3.3586    0.1580   -0.2157 C   0  0  0  0  0  0  0  0  0  0  0  0
    3.5840   -1.0810   -0.7869 C   0  0  0  0  0  0  0  0  0  0  0  0
    4.9614   -1.4451   -0.7654 C   0  0  0  0  0  0  0  0  0  0  0  0
    5.7417   -0.4665   -0.1906 C   0  0  0  0  0  0  0  0  0  0  0  0
    4.8154    0.8817    0.3122 S   0  0  0  0  0  0  0  0  0  0  0  0
   -1.6919    1.6646   -4.5725 H   0  0  0  0  0  0  0  0  0  0  0  0
   -1.5447   -0.7651   -1.9962 H   0  0  0  0  0  0  0  0  0  0  0  0
    0.0843   -0.1592   -2.3336 H   0  0  0  0  0  0  0  0  0  0  0  0
   -0.6739    1.6661   -0.3891 H   0  0  0  0  0  0  0  0  0  0  0  0
   -3.4678    0.8635   -0.9873 H   0  0  0  0  0  0  0  0  0  0  0  0
   -5.3654    0.3711    0.4640 H   0  0  0  0  0  0  0  0  0  0  0  0
   -5.0075   -0.4954    2.7584 H   0  0  0  0  0  0  0  0  0  0  0  0
   -2.7153   -0.8745    3.5893 H   0  0  0  0  0  0  0  0  0  0  0  0
   -0.0024    0.4637    2.6894 H   0  0  0  0  0  0  0  0  0  0  0  0
   -0.3694   -1.2286    3.0604 H   0  0  0  0  0  0  0  0  0  0  0  0
    1.5291   -1.1642    1.5228 H   0  0  0  0  0  0  0  0  0  0  0  0
    0.1617   -1.9171    0.7321 H   0  0  0  0  0  0  0  0  0  0  0  0
    2.7910   -1.6904   -1.2035 H   0  0  0  0  0  0  0  0  0  0  0  0
    5.3617   -2.3723   -1.1579 H   0  0  0  0  0  0  0  0  0  0  0  0
    6.8140   -0.4714   -0.0470 H   0  0  0  0  0  0  0  0  0  0  0  0
  1  2  2  0
  2  3  1  0
  2  4  1  0
  4  5  1  0
  5  6  1  0
  6  7  2  0
  7  8  1  0
  8  9  2  0
  9 10  1  0
 10 11  2  0
 11 12  1  0
 12 13  1  0
 13 14  1  0
 14 15  1  0
 15 16  2  0
 15 17  2  0
 15 18  1  0
 18 19  2  0
 19 20  1  0
 20 21  2  0
 21 22  1  0
 14  5  1  0
 22 18  1  0
 11  6  1  0
  3 23  1  0
  4 24  1  0
  4 25  1  0
  5 26  1  0
  7 27  1  0
  8 28  1  0
  9 29  1  0
 10 30  1  0
 12 31  1  0
 12 32  1  0
 13 33  1  0
 13 34  1  0
 19 35  1  0
 20 36  1  0
 21 37  1  0
M  END
$$$$
