
     RDKit          3D

 26 27  0  0  0  0  0  0  0  0999 V2000
    4.4825    1.6834   -0.8765 C   0  0  0  0  0  0  0  0  0  0  0  0
    3.4945    0.6027   -0.7269 C   0  0  0  0  0  0  0  0  0  0  0  0
    2.8464   -0.0790   -1.6456 N   0  0  0  0  0  0  0  0  0  0  0  0
    2.0482   -0.9738   -0.9648 N   0  0  0  0  0  0  0  0  0  0  0  0
    2.2528   -0.7684    0.3211 C   0  0  0  0  0  0  0  0  0  0  0  0
    1.4870   -1.6414    1.6099 S   0  0  0  0  0  0  0  0  0  0  0  0
    0.0173   -2.2889    0.7664 C   0  0  0  0  0  0  0  0  0  0  0  0
   -1.0721   -1.2520    0.6129 C   0  0  0  0  0  0  0  0  0  0  0  0
   -1.2697   -0.6027   -0.6162 C   0  0  0  0  0  0  0  0  0  0  0  0
   -2.2658    0.3667   -0.7584 C   0  0  0  0  0  0  0  0  0  0  0  0
   -3.0731    0.6921    0.3378 C   0  0  0  0  0  0  0  0  0  0  0  0
   -4.1198    1.7113    0.1944 N   0  0  0  0  0  4  0  0  0  0  0  0
   -4.8128    1.9702    1.1891 O   0  0  0  0  0  0  0  0  0  0  0  0
   -4.2507    2.2536   -0.9123 O   0  0  0  0  0  1  0  0  0  0  0  0
   -2.8889    0.0551    1.5710 C   0  0  0  0  0  0  0  0  0  0  0  0
   -1.8896   -0.9124    1.7037 C   0  0  0  0  0  0  0  0  0  0  0  0
    3.1751    0.2210    0.5462 O   0  0  0  0  0  0  0  0  0  0  0  0
    4.6589    1.9026   -1.9337 H   0  0  0  0  0  0  0  0  0  0  0  0
    4.1273    2.5976   -0.3920 H   0  0  0  0  0  0  0  0  0  0  0  0
    5.4358    1.3972   -0.4226 H   0  0  0  0  0  0  0  0  0  0  0  0
   -0.3744   -3.1177    1.3681 H   0  0  0  0  0  0  0  0  0  0  0  0
    0.2822   -2.7297   -0.2014 H   0  0  0  0  0  0  0  0  0  0  0  0
   -0.6420   -0.8437   -1.4741 H   0  0  0  0  0  0  0  0  0  0  0  0
   -2.3938    0.8553   -1.7223 H   0  0  0  0  0  0  0  0  0  0  0  0
   -3.5071    0.2998    2.4324 H   0  0  0  0  0  0  0  0  0  0  0  0
   -1.7482   -1.3991    2.6678 H   0  0  0  0  0  0  0  0  0  0  0  0
  1  2  1  0
  2  3  2  0
  3  4  1  0
  4  5  2  0
  5  6  1  0
  6  7  1  0
  7  8  1  0
  8  9  2  0
  9 10  1  0
 10 11  2  0
 11 12  1  0
 12 13  2  0
 12 14  1  0
 11 15  1  0
 15 16  2  0
  5 17  1  0
 17  2  1  0
 16  8  1  0
  1 18  1  0
  1 19  1  0
  1 20  1  0
  7 21  1  0
  7 22  1  0
  9 23  1  0
 10 24  1  0
 15 25  1  0
 16 26  1  0
M  CHG  2  12   1  14  -1
M  END
$$$$
