
     RDKit          3D

 71 76  0  0  0  0  0  0  0  0999 V2000
    9.3924    2.6344   -1.1915 C   0  0  0  0  0  0  0  0  0  0  0  0
    9.9569    1.5722   -0.4310 O   0  0  0  0  0  0  0  0  0  0  0  0
    9.0936    0.6166    0.0379 C   0  0  0  0  0  0  0  0  0  0  0  0
    9.6894   -0.3717    0.8182 C   0  0  0  0  0  0  0  0  0  0  0  0
    8.9166   -1.3978    1.3515 C   0  0  0  0  0  0  0  0  0  0  0  0
    7.5407   -1.4365    1.1058 C   0  0  0  0  0  0  0  0  0  0  0  0
    6.8978   -0.4593    0.3274 C   0  0  0  0  0  0  0  0  0  0  0  0
    5.5294   -0.4941    0.0978 N   0  0  0  0  0  0  0  0  0  0  0  0
    4.7518   -1.7361    0.2671 C   0  0  0  0  0  0  0  0  0  0  0  0
    3.4552   -1.7221   -0.5655 C   0  0  0  0  0  0  0  0  0  0  0  0
    2.6122   -0.5448   -0.3200 N   0  0  0  0  0  0  0  0  0  0  0  0
    1.2678   -0.6214   -0.6756 C   0  0  0  0  0  0  0  0  0  0  0  0
    0.8240   -1.6370   -1.2143 O   0  0  0  0  0  0  0  0  0  0  0  0
    0.3665    0.5779   -0.3540 C   0  0  0  0  0  0  0  0  0  0  0  0
    0.1886    0.7179    1.1637 C   0  0  0  0  0  0  0  0  0  0  0  0
   -1.0743    1.4947    1.4932 C   0  0  0  0  0  0  0  0  0  0  0  0
   -2.3159    0.7503    1.0127 C   0  0  0  0  0  0  0  0  0  0  0  0
   -2.1046    0.1055   -0.2838 N   0  0  0  0  0  0  0  0  0  0  0  0
   -3.2759   -0.2413   -0.9845 C   0  0  0  0  0  0  0  0  0  0  0  0
   -3.2184   -0.3880   -2.3456 N   0  0  0  0  0  0  0  0  0  0  0  0
   -4.3245   -0.7264   -3.0380 C   0  0  0  0  0  0  0  0  0  0  0  0
   -5.5679   -0.9248   -2.5721 N   0  0  0  0  0  0  0  0  0  0  0  0
   -5.6039   -0.7747   -1.2381 C   0  0  0  0  0  0  0  0  0  0  0  0
   -4.5508   -0.4614   -0.3915 C   0  0  0  0  0  0  0  0  0  0  0  0
   -5.0014   -0.4085    0.9191 N   0  0  0  0  0  0  0  0  0  0  0  0
   -6.2932   -0.6701    0.8686 C   0  0  0  0  0  0  0  0  0  0  0  0
   -6.6984   -0.8894   -0.4254 N   0  0  0  0  0  0  0  0  0  0  0  0
   -8.0542   -1.1552   -0.8537 C   0  0  0  0  0  0  0  0  0  0  0  0
   -9.0180   -0.0201   -0.5112 C   0  0  0  0  0  0  0  0  0  0  0  0
   -9.4333    0.0250    0.9616 C   0  0  0  0  0  0  0  0  0  0  0  0
   -8.3089    0.3572    1.9462 C   0  0  0  0  0  0  0  0  0  0  0  0
   -7.2239   -0.7148    2.0317 C   0  0  0  0  0  0  0  0  0  0  0  0
   -0.9744    0.5271   -1.1202 C   0  0  0  0  0  0  0  0  0  0  0  0
    3.3211    0.6521    0.1474 C   0  0  0  0  0  0  0  0  0  0  0  0
    4.7893    0.7045   -0.3217 C   0  0  0  0  0  0  0  0  0  0  0  0
    7.7141    0.5617   -0.2029 C   0  0  0  0  0  0  0  0  0  0  0  0
    8.9218    2.2582   -2.1053 H   0  0  0  0  0  0  0  0  0  0  0  0
   10.2068    3.3000   -1.4954 H   0  0  0  0  0  0  0  0  0  0  0  0
    8.6868    3.2196   -0.5886 H   0  0  0  0  0  0  0  0  0  0  0  0
   10.7581   -0.3393    1.0124 H   0  0  0  0  0  0  0  0  0  0  0  0
    9.3787   -2.1637    1.9670 H   0  0  0  0  0  0  0  0  0  0  0  0
    6.9744   -2.2444    1.5631 H   0  0  0  0  0  0  0  0  0  0  0  0
    4.5010   -1.8562    1.3284 H   0  0  0  0  0  0  0  0  0  0  0  0
    5.3360   -2.6086   -0.0504 H   0  0  0  0  0  0  0  0  0  0  0  0
    3.7010   -1.7127   -1.6359 H   0  0  0  0  0  0  0  0  0  0  0  0
    2.8828   -2.6352   -0.3683 H   0  0  0  0  0  0  0  0  0  0  0  0
    0.8703    1.4697   -0.7462 H   0  0  0  0  0  0  0  0  0  0  0  0
    0.1487   -0.2706    1.6398 H   0  0  0  0  0  0  0  0  0  0  0  0
    1.0475    1.2367    1.6002 H   0  0  0  0  0  0  0  0  0  0  0  0
   -1.1459    1.6658    2.5731 H   0  0  0  0  0  0  0  0  0  0  0  0
   -1.0290    2.4849    1.0209 H   0  0  0  0  0  0  0  0  0  0  0  0
   -2.5624   -0.0197    1.7544 H   0  0  0  0  0  0  0  0  0  0  0  0
   -3.1405    1.4744    0.9784 H   0  0  0  0  0  0  0  0  0  0  0  0
   -4.1871   -0.8553   -4.1082 H   0  0  0  0  0  0  0  0  0  0  0  0
   -8.0460   -1.2968   -1.9401 H   0  0  0  0  0  0  0  0  0  0  0  0
   -8.3647   -2.1050   -0.4033 H   0  0  0  0  0  0  0  0  0  0  0  0
   -9.9280   -0.1553   -1.1078 H   0  0  0  0  0  0  0  0  0  0  0  0
   -8.5892    0.9465   -0.8053 H   0  0  0  0  0  0  0  0  0  0  0  0
   -9.8998   -0.9293    1.2417 H   0  0  0  0  0  0  0  0  0  0  0  0
  -10.2105    0.7928    1.0694 H   0  0  0  0  0  0  0  0  0  0  0  0
   -7.8695    1.3331    1.6977 H   0  0  0  0  0  0  0  0  0  0  0  0
   -8.7633    0.4612    2.9398 H   0  0  0  0  0  0  0  0  0  0  0  0
   -7.6707   -1.7125    2.1189 H   0  0  0  0  0  0  0  0  0  0  0  0
   -6.6404   -0.5532    2.9459 H   0  0  0  0  0  0  0  0  0  0  0  0
   -0.8621   -0.1110   -2.0024 H   0  0  0  0  0  0  0  0  0  0  0  0
   -1.1934    1.5363   -1.4975 H   0  0  0  0  0  0  0  0  0  0  0  0
    2.8142    1.5615   -0.1833 H   0  0  0  0  0  0  0  0  0  0  0  0
    3.2903    0.6233    1.2439 H   0  0  0  0  0  0  0  0  0  0  0  0
    5.2323    1.6133    0.0997 H   0  0  0  0  0  0  0  0  0  0  0  0
    4.8270    0.7783   -1.4145 H   0  0  0  0  0  0  0  0  0  0  0  0
    7.2592    1.3119   -0.8390 H   0  0  0  0  0  0  0  0  0  0  0  0
  1  2  1  0
  2  3  1  0
  3  4  2  0
  4  5  1  0
  5  6  2  0
  6  7  1  0
  7  8  1  0
  8  9  1  0
  9 10  1  0
 10 11  1  0
 11 12  1  0
 12 13  2  0
 12 14  1  0
 14 15  1  0
 15 16  1  0
 16 17  1  0
 17 18  1  0
 18 19  1  0
 19 20  2  0
 20 21  1  0
 21 22  2  0
 22 23  1  0
 23 24  2  0
 24 25  1  0
 25 26  2  0
 26 27  1  0
 27 28  1  0
 28 29  1  0
 29 30  1  0
 30 31  1  0
 31 32  1  0
 18 33  1  0
 11 34  1  0
 34 35  1  0
  7 36  2  0
 36  3  1  0
 35  8  1  0
 33 14  1  0
 24 19  1  0
 32 26  1  0
 27 23  1  0
  1 37  1  0
  1 38  1  0
  1 39  1  0
  4 40  1  0
  5 41  1  0
  6 42  1  0
  9 43  1  0
  9 44  1  0
 10 45  1  0
 10 46  1  0
 14 47  1  0
 15 48  1  0
 15 49  1  0
 16 50  1  0
 16 51  1  0
 17 52  1  0
 17 53  1  0
 21 54  1  0
 28 55  1  0
 28 56  1  0
 29 57  1  0
 29 58  1  0
 30 59  1  0
 30 60  1  0
 31 61  1  0
 31 62  1  0
 32 63  1  0
 32 64  1  0
 33 65  1  0
 33 66  1  0
 34 67  1  0
 34 68  1  0
 35 69  1  0
 35 70  1  0
 36 71  1  0
M  END
$$$$
