
     RDKit          3D

 61 63  0  0  0  0  0  0  0  0999 V2000
   -4.9485   -0.4541   -1.5311 C   0  0  0  0  0  0  0  0  0  0  0  0
   -4.0386   -0.1406   -0.3542 C   0  0  0  0  0  0  0  0  0  0  0  0
   -2.7446    0.5259   -0.8132 C   0  0  0  0  0  0  0  0  0  0  0  0
   -1.8319    0.8340    0.3671 C   0  0  0  0  0  0  0  0  0  0  0  0
   -0.5527    1.3477   -0.0747 N   0  0  0  0  0  0  0  0  0  0  0  0
    0.4087    1.7257    0.8461 C   0  0  0  0  0  0  0  0  0  0  0  0
    0.1931    1.8003    2.0508 O   0  0  0  0  0  0  0  0  0  0  0  0
    1.7512    2.1090    0.2223 C   0  0  0  0  0  0  0  0  0  0  0  0
    1.6419    3.5588   -0.2870 C   0  0  0  0  0  0  0  0  0  0  0  0
    2.9313    4.0999   -0.8660 C   0  0  0  0  0  0  0  0  0  0  0  0
    4.0875    4.1940   -0.0771 C   0  0  0  0  0  0  0  0  0  0  0  0
    5.2774    4.6824   -0.6191 C   0  0  0  0  0  0  0  0  0  0  0  0
    5.3224    5.0907   -1.9503 C   0  0  0  0  0  0  0  0  0  0  0  0
    4.1765    5.0155   -2.7402 C   0  0  0  0  0  0  0  0  0  0  0  0
    2.9855    4.5251   -2.2014 C   0  0  0  0  0  0  0  0  0  0  0  0
    2.0697    1.1882   -0.9169 N   0  0  0  0  0  0  0  0  0  0  0  0
    2.8166   -0.2813   -0.5408 S   0  0  0  0  0  6  0  0  0  0  0  0
    3.4133   -0.7375   -1.7767 O   0  0  0  0  0  0  0  0  0  0  0  0
    3.5931   -0.1174    0.6649 O   0  0  0  0  0  0  0  0  0  0  0  0
    1.4415   -1.3497   -0.2095 C   0  0  0  0  0  0  0  0  0  0  0  0
    0.7077   -1.8736   -1.2742 C   0  0  0  0  0  0  0  0  0  0  0  0
   -0.3766   -2.7201   -1.0183 C   0  0  0  0  0  0  0  0  0  0  0  0
   -0.7331   -3.0616    0.2975 C   0  0  0  0  0  0  0  0  0  0  0  0
    0.0340   -2.5483    1.3447 C   0  0  0  0  0  0  0  0  0  0  0  0
    1.1223   -1.6956    1.1022 C   0  0  0  0  0  0  0  0  0  0  0  0
   -0.3101   -2.9021    2.7294 C   0  0  0  0  0  0  0  0  0  0  0  0
    0.4045   -2.4959    3.6418 O   0  0  0  0  0  0  0  0  0  0  0  0
   -1.4351   -3.6908    2.9094 N   0  0  0  0  0  0  0  0  0  0  0  0
   -1.8182   -4.0383    4.2656 C   0  0  0  0  0  0  0  0  0  0  0  0
   -2.2095   -4.2259    1.8873 C   0  0  0  0  0  0  0  0  0  0  0  0
   -3.1755   -4.9547    2.1301 O   0  0  0  0  0  0  0  0  0  0  0  0
   -1.8408   -3.9021    0.5851 N   0  0  0  0  0  0  0  0  0  0  0  0
   -2.6339   -4.4525   -0.5083 C   0  0  0  0  0  0  0  0  0  0  0  0
   -5.2183    0.4596   -2.0725 H   0  0  0  0  0  0  0  0  0  0  0  0
   -4.4594   -1.1368   -2.2329 H   0  0  0  0  0  0  0  0  0  0  0  0
   -5.8723   -0.9288   -1.1829 H   0  0  0  0  0  0  0  0  0  0  0  0
   -3.8081   -1.0714    0.1770 H   0  0  0  0  0  0  0  0  0  0  0  0
   -4.5673    0.5113    0.3497 H   0  0  0  0  0  0  0  0  0  0  0  0
   -2.2254   -0.1306   -1.5224 H   0  0  0  0  0  0  0  0  0  0  0  0
   -2.9679    1.4527   -1.3550 H   0  0  0  0  0  0  0  0  0  0  0  0
   -2.2904    1.5759    1.0304 H   0  0  0  0  0  0  0  0  0  0  0  0
   -1.6444   -0.0675    0.9598 H   0  0  0  0  0  0  0  0  0  0  0  0
   -0.1908    1.0650   -0.9795 H   0  0  0  0  0  0  0  0  0  0  0  0
    2.5242    2.0451    0.9943 H   0  0  0  0  0  0  0  0  0  0  0  0
    0.8459    3.6275   -1.0405 H   0  0  0  0  0  0  0  0  0  0  0  0
    1.3324    4.2212    0.5323 H   0  0  0  0  0  0  0  0  0  0  0  0
    4.0760    3.8898    0.9681 H   0  0  0  0  0  0  0  0  0  0  0  0
    6.1692    4.7460    0.0005 H   0  0  0  0  0  0  0  0  0  0  0  0
    6.2491    5.4732   -2.3697 H   0  0  0  0  0  0  0  0  0  0  0  0
    4.2106    5.3439   -3.7765 H   0  0  0  0  0  0  0  0  0  0  0  0
    2.1021    4.4834   -2.8350 H   0  0  0  0  0  0  0  0  0  0  0  0
    2.5745    1.6231   -1.6956 H   0  0  0  0  0  0  0  0  0  0  0  0
    0.9737   -1.6317   -2.3023 H   0  0  0  0  0  0  0  0  0  0  0  0
   -0.9267   -3.1003   -1.8752 H   0  0  0  0  0  0  0  0  0  0  0  0
    1.7015   -1.3006    1.9372 H   0  0  0  0  0  0  0  0  0  0  0  0
   -1.1875   -3.5590    5.0173 H   0  0  0  0  0  0  0  0  0  0  0  0
   -1.7519   -5.1246    4.3848 H   0  0  0  0  0  0  0  0  0  0  0  0
   -2.8570   -3.7347    4.4316 H   0  0  0  0  0  0  0  0  0  0  0  0
   -1.9887   -5.0469   -1.1630 H   0  0  0  0  0  0  0  0  0  0  0  0
   -3.4354   -5.1065   -0.1520 H   0  0  0  0  0  0  0  0  0  0  0  0
   -3.0966   -3.6335   -1.0689 H   0  0  0  0  0  0  0  0  0  0  0  0
  1  2  1  0
  2  3  1  0
  3  4  1  0
  4  5  1  0
  5  6  1  0
  6  7  2  0
  6  8  1  0
  8  9  1  0
  9 10  1  0
 10 11  2  0
 11 12  1  0
 12 13  2  0
 13 14  1  0
 14 15  2  0
  8 16  1  0
 16 17  1  0
 17 18  2  0
 17 19  2  0
 17 20  1  0
 20 21  2  0
 21 22  1  0
 22 23  2  0
 23 24  1  0
 24 25  2  0
 24 26  1  0
 26 27  2  0
 26 28  1  0
 28 29  1  0
 28 30  1  0
 30 31  2  0
 30 32  1  0
 32 33  1  0
 15 10  1  0
 25 20  1  0
 32 23  1  0
  1 34  1  0
  1 35  1  0
  1 36  1  0
  2 37  1  0
  2 38  1  0
  3 39  1  0
  3 40  1  0
  4 41  1  0
  4 42  1  0
  5 43  1  0
  8 44  1  0
  9 45  1  0
  9 46  1  0
 11 47  1  0
 12 48  1  0
 13 49  1  0
 14 50  1  0
 15 51  1  0
 16 52  1  0
 21 53  1  0
 22 54  1  0
 25 55  1  0
 29 56  1  0
 29 57  1  0
 29 58  1  0
 33 59  1  0
 33 60  1  0
 33 61  1  0
M  END
$$$$
