
     RDKit          3D

 56 59  0  0  0  0  0  0  0  0999 V2000
   -1.7144   -4.3242    0.6541 C   0  0  0  0  0  0  0  0  0  0  0  0
   -0.6474   -3.2457    0.6277 C   0  0  0  0  0  0  0  0  0  0  0  0
   -1.3086   -1.9736    0.6433 O   0  0  0  0  0  0  0  0  0  0  0  0
   -0.4742   -0.9026    0.7492 C   0  0  0  0  0  0  0  0  0  0  0  0
    0.7489   -1.0002    0.8281 O   0  0  0  0  0  0  0  0  0  0  0  0
   -1.1707    0.3903    0.7524 C   0  0  0  0  0  0  0  0  0  0  0  0
   -0.4717    1.5931    0.8186 C   0  0  0  0  0  0  0  0  0  0  0  0
    0.9046    1.7423    0.9063 N   0  0  0  0  0  0  0  0  0  0  0  0
    1.6310    2.9064    1.1032 C   0  0  0  0  0  0  0  0  0  0  0  0
    1.1791    4.0219    1.3525 O   0  0  0  0  0  0  0  0  0  0  0  0
    3.1443    2.6589    1.1546 C   0  0  0  0  0  0  0  0  0  0  0  0
    3.5469    1.5201    0.3302 N   0  0  0  0  0  0  0  0  0  0  0  0
    3.5299    0.2833    0.9333 N   0  0  0  0  0  0  0  0  0  0  0  0
    3.8310   -0.7643    0.2211 C   0  0  0  0  0  0  0  0  0  0  0  0
    3.8130   -2.1127    0.9360 C   0  0  0  0  0  0  0  0  0  0  0  0
    3.1732   -3.0832    0.5761 O   0  0  0  0  0  0  0  0  0  0  0  0
    4.6635   -2.1337    1.9736 O   0  0  0  0  0  0  0  0  0  0  0  0
    4.1868   -0.7111   -1.2044 C   0  0  0  0  0  0  0  0  0  0  0  0
    4.5105   -1.8431   -1.9606 C   0  0  0  0  0  0  0  0  0  0  0  0
    4.8399   -1.7114   -3.3119 C   0  0  0  0  0  0  0  0  0  0  0  0
    4.8515   -0.4530   -3.9108 C   0  0  0  0  0  0  0  0  0  0  0  0
    4.5345    0.6762   -3.1578 C   0  0  0  0  0  0  0  0  0  0  0  0
    4.2016    0.5443   -1.8037 C   0  0  0  0  0  0  0  0  0  0  0  0
    3.8551    1.7365   -1.0103 C   0  0  0  0  0  0  0  0  0  0  0  0
    3.8432    2.8414   -1.5458 O   0  0  0  0  0  0  0  0  0  0  0  0
   -1.4890    2.9483    0.7226 S   0  0  0  0  0  0  0  0  0  0  0  0
   -2.8829    1.9866    0.6616 C   0  0  0  0  0  0  0  0  0  0  0  0
   -2.6018    0.6359    0.7095 C   0  0  0  0  0  0  0  0  0  0  0  0
   -3.7082   -0.3831    0.6826 C   0  0  0  0  0  0  0  0  0  0  0  0
   -5.0830    0.2348    0.9819 C   0  0  0  0  0  0  0  0  0  0  0  0
   -5.3059    1.5453    0.2029 C   0  0  0  0  0  0  0  0  0  0  0  0
   -6.7146    2.0889    0.4419 C   0  0  0  0  0  0  0  0  0  0  0  0
   -4.2466    2.6018    0.5867 C   0  0  0  0  0  0  0  0  0  0  0  0
   -2.3725   -4.2327   -0.2182 H   0  0  0  0  0  0  0  0  0  0  0  0
   -2.3443   -4.2203    1.5429 H   0  0  0  0  0  0  0  0  0  0  0  0
   -1.2640   -5.3229    0.6498 H   0  0  0  0  0  0  0  0  0  0  0  0
   -0.0580   -3.3327   -0.2903 H   0  0  0  0  0  0  0  0  0  0  0  0
    0.0025   -3.3459    1.5055 H   0  0  0  0  0  0  0  0  0  0  0  0
    1.4545    0.8786    0.9015 H   0  0  0  0  0  0  0  0  0  0  0  0
    3.6572    3.5608    0.8079 H   0  0  0  0  0  0  0  0  0  0  0  0
    3.4306    2.4662    2.1938 H   0  0  0  0  0  0  0  0  0  0  0  0
    4.5512   -3.0177    2.3738 H   0  0  0  0  0  0  0  0  0  0  0  0
    4.5067   -2.8388   -1.5298 H   0  0  0  0  0  0  0  0  0  0  0  0
    5.0861   -2.5919   -3.8994 H   0  0  0  0  0  0  0  0  0  0  0  0
    5.1028   -0.3505   -4.9627 H   0  0  0  0  0  0  0  0  0  0  0  0
    4.5456    1.6601   -3.6252 H   0  0  0  0  0  0  0  0  0  0  0  0
   -3.5226   -1.1728    1.4188 H   0  0  0  0  0  0  0  0  0  0  0  0
   -3.7301   -0.8542   -0.3080 H   0  0  0  0  0  0  0  0  0  0  0  0
   -5.8640   -0.4954    0.7321 H   0  0  0  0  0  0  0  0  0  0  0  0
   -5.1654    0.4296    2.0584 H   0  0  0  0  0  0  0  0  0  0  0  0
   -5.2057    1.3207   -0.8682 H   0  0  0  0  0  0  0  0  0  0  0  0
   -6.8713    2.3446    1.4942 H   0  0  0  0  0  0  0  0  0  0  0  0
   -7.4714    1.3501    0.1598 H   0  0  0  0  0  0  0  0  0  0  0  0
   -6.8875    2.9893   -0.1551 H   0  0  0  0  0  0  0  0  0  0  0  0
   -4.4881    3.0527    1.5599 H   0  0  0  0  0  0  0  0  0  0  0  0
   -4.2616    3.4088   -0.1576 H   0  0  0  0  0  0  0  0  0  0  0  0
  1  2  1  0
  2  3  1  0
  3  4  1  0
  4  5  2  0
  4  6  1  0
  6  7  2  0
  7  8  1  0
  8  9  1  0
  9 10  2  0
  9 11  1  0
 11 12  1  0
 12 13  1  0
 13 14  2  0
 14 15  1  0
 15 16  2  0
 15 17  1  0
 14 18  1  0
 18 19  2  0
 19 20  1  0
 20 21  2  0
 21 22  1  0
 22 23  2  0
 23 24  1  0
 24 25  2  0
  7 26  1  0
 26 27  1  0
 27 28  2  0
 28 29  1  0
 29 30  1  0
 30 31  1  0
 31 32  1  0
 31 33  1  0
 28  6  1  0
 24 12  1  0
 33 27  1  0
 23 18  1  0
  1 34  1  0
  1 35  1  0
  1 36  1  0
  2 37  1  0
  2 38  1  0
  8 39  1  0
 11 40  1  0
 11 41  1  0
 17 42  1  0
 19 43  1  0
 20 44  1  0
 21 45  1  0
 22 46  1  0
 29 47  1  0
 29 48  1  0
 30 49  1  0
 30 50  1  0
 31 51  1  0
 32 52  1  0
 32 53  1  0
 32 54  1  0
 33 55  1  0
 33 56  1  0
M  END
$$$$
