
     RDKit          3D

 42 43  0  0  0  0  0  0  0  0999 V2000
   -2.1686    1.5610    1.1976 C   0  0  0  0  0  0  0  0  0  0  0  0
   -2.9521    0.5428    0.3520 C   0  0  0  0  0  0  0  0  0  0  0  0
   -3.9767   -0.1574    1.2686 C   0  0  0  0  0  0  0  0  0  0  0  0
   -3.7240    1.2945   -0.7441 C   0  0  0  0  0  0  0  0  0  0  0  0
   -2.0177   -0.5489   -0.2401 C   0  0  0  0  0  0  0  0  0  0  0  0
   -0.9794   -0.0163   -1.1035 N   0  0  0  0  0  0  0  0  0  0  0  0
   -0.9305   -0.0005   -2.4611 C   0  0  0  0  0  0  0  0  0  0  0  0
   -1.9676   -0.4737   -3.1730 N   0  0  0  0  0  0  0  0  0  0  0  0
    0.1592    0.4388   -3.0259 N   0  0  0  0  0  0  0  0  0  0  0  0
    0.9989    0.8699   -1.8672 C   0  0  0  0  0  0  0  0  0  0  0  0
    0.3856    0.1970   -0.6180 C   0  0  0  0  0  0  0  0  0  0  0  0
    1.0920   -1.1350   -0.2917 C   0  0  0  0  0  0  0  0  0  0  0  0
    2.4547   -0.9455    0.3366 C   0  0  0  0  0  0  0  0  0  0  0  0
    2.5710   -0.4847    1.6562 C   0  0  0  0  0  0  0  0  0  0  0  0
    3.8290   -0.3032    2.2322 C   0  0  0  0  0  0  0  0  0  0  0  0
    4.9718   -0.5831    1.4937 C   0  0  0  0  0  0  0  0  0  0  0  0
    6.1800   -0.3906    2.0954 O   0  0  0  0  0  0  0  0  0  0  0  0
    4.8790   -1.0451    0.1854 C   0  0  0  0  0  0  0  0  0  0  0  0
    3.6200   -1.2273   -0.3912 C   0  0  0  0  0  0  0  0  0  0  0  0
   -1.5077    2.1757    0.5778 H   0  0  0  0  0  0  0  0  0  0  0  0
   -1.5577    1.0594    1.9563 H   0  0  0  0  0  0  0  0  0  0  0  0
   -2.8471    2.2461    1.7190 H   0  0  0  0  0  0  0  0  0  0  0  0
   -4.5713   -0.8895    0.7105 H   0  0  0  0  0  0  0  0  0  0  0  0
   -3.4777   -0.6868    2.0882 H   0  0  0  0  0  0  0  0  0  0  0  0
   -4.6713    0.5640    1.7139 H   0  0  0  0  0  0  0  0  0  0  0  0
   -4.3227    0.6059   -1.3499 H   0  0  0  0  0  0  0  0  0  0  0  0
   -4.4124    2.0277   -0.3077 H   0  0  0  0  0  0  0  0  0  0  0  0
   -3.0500    1.8417   -1.4113 H   0  0  0  0  0  0  0  0  0  0  0  0
   -1.5642   -1.1012    0.5912 H   0  0  0  0  0  0  0  0  0  0  0  0
   -2.6159   -1.2910   -0.7838 H   0  0  0  0  0  0  0  0  0  0  0  0
   -1.8279   -0.2741   -4.1582 H   0  0  0  0  0  0  0  0  0  0  0  0
   -2.8630   -0.1291   -2.8620 H   0  0  0  0  0  0  0  0  0  0  0  0
    2.0441    0.6015   -2.0403 H   0  0  0  0  0  0  0  0  0  0  0  0
    0.9354    1.9619   -1.7874 H   0  0  0  0  0  0  0  0  0  0  0  0
    0.4137    0.8801    0.2364 H   0  0  0  0  0  0  0  0  0  0  0  0
    1.1761   -1.7557   -1.1938 H   0  0  0  0  0  0  0  0  0  0  0  0
    0.4944   -1.7308    0.4083 H   0  0  0  0  0  0  0  0  0  0  0  0
    1.6841   -0.2679    2.2471 H   0  0  0  0  0  0  0  0  0  0  0  0
    3.9176    0.0535    3.2543 H   0  0  0  0  0  0  0  0  0  0  0  0
    6.8793   -0.6280    1.4648 H   0  0  0  0  0  0  0  0  0  0  0  0
    5.7664   -1.2676   -0.3986 H   0  0  0  0  0  0  0  0  0  0  0  0
    3.5534   -1.5880   -1.4161 H   0  0  0  0  0  0  0  0  0  0  0  0
  1  2  1  0
  2  3  1  0
  2  4  1  0
  2  5  1  0
  5  6  1  0
  6  7  1  0
  7  8  1  0
  7  9  2  0
  9 10  1  0
 10 11  1  0
 11 12  1  0
 12 13  1  0
 13 14  2  0
 14 15  1  0
 15 16  2  0
 16 17  1  0
 16 18  1  0
 18 19  2  0
 11  6  1  0
 19 13  1  0
  1 20  1  0
  1 21  1  0
  1 22  1  0
  3 23  1  0
  3 24  1  0
  3 25  1  0
  4 26  1  0
  4 27  1  0
  4 28  1  0
  5 29  1  0
  5 30  1  0
  8 31  1  0
  8 32  1  0
 10 33  1  0
 10 34  1  0
 11 35  1  0
 12 36  1  0
 12 37  1  0
 14 38  1  0
 15 39  1  0
 17 40  1  0
 18 41  1  0
 19 42  1  0
M  END
$$$$
