
     RDKit          3D

 64 68  0  0  0  0  0  0  0  0999 V2000
   -3.5618   -1.2358    3.0118 C   0  0  0  0  0  0  0  0  0  0  0  0
   -3.5976    0.2970    2.9220 C   0  0  0  0  0  0  0  0  0  0  0  0
   -5.0070    0.7977    3.2680 C   0  0  0  0  0  0  0  0  0  0  0  0
   -2.5933    0.8647    3.9403 C   0  0  0  0  0  0  0  0  0  0  0  0
   -3.2229    0.8423    1.5279 C   0  0  0  0  0  0  0  0  0  0  0  0
   -2.9045    2.0202    1.3541 O   0  0  0  0  0  0  0  0  0  0  0  0
   -3.3171   -0.0542    0.3388 C   0  0  0  0  0  0  0  0  0  0  0  0
   -4.6330   -0.2094   -0.1697 C   0  0  0  0  0  0  0  0  0  0  0  0
   -5.7250   -0.3311   -0.5417 N   0  0  0  0  0  0  0  0  0  0  0  0
   -2.1914   -0.5315   -0.2378 C   0  0  0  0  0  0  0  0  0  0  0  0
   -0.6007   -0.0437    0.3182 S   0  0  0  0  0  0  0  0  0  0  0  0
    0.1228   -0.5218   -1.1629 C   0  0  0  0  0  0  0  0  0  0  0  0
    1.3632   -0.2651   -1.6087 C   0  0  0  0  0  0  0  0  0  0  0  0
    2.4012    0.5146   -1.0081 C   0  0  0  0  0  0  0  0  0  0  0  0
    2.2422    1.6626   -0.2665 C   0  0  0  0  0  0  0  0  0  0  0  0
    3.5006    2.1235    0.0491 N   0  0  0  0  0  0  0  0  0  0  0  0
    3.8475    3.2696    0.8201 C   0  0  0  0  0  0  0  0  0  0  0  0
    5.2012    3.5993    0.9936 C   0  0  0  0  0  0  0  0  0  0  0  0
    5.5639    4.7196    1.7441 C   0  0  0  0  0  0  0  0  0  0  0  0
    4.5817    5.5153    2.3289 C   0  0  0  0  0  0  0  0  0  0  0  0
    3.2354    5.1936    2.1637 C   0  0  0  0  0  0  0  0  0  0  0  0
    2.8644    4.0750    1.4122 C   0  0  0  0  0  0  0  0  0  0  0  0
    4.4602    1.3375   -0.4960 N   0  0  0  0  0  0  0  0  0  0  0  0
    3.8118    0.3480   -1.1261 C   0  0  0  0  0  0  0  0  0  0  0  0
    4.5653   -0.6925   -1.8181 C   0  0  0  0  0  0  0  0  0  0  0  0
    4.2170   -2.0434   -1.7378 C   0  0  0  0  0  0  0  0  0  0  0  0
    4.9707   -2.9938   -2.4257 C   0  0  0  0  0  0  0  0  0  0  0  0
    6.0543   -2.5617   -3.1729 C   0  0  0  0  0  0  0  0  0  0  0  0
    6.4291   -1.2696   -3.2700 N   0  0  0  0  0  0  0  0  0  0  0  0
    5.6830   -0.3676   -2.5826 C   0  0  0  0  0  0  0  0  0  0  0  0
   -0.8078   -1.3625   -1.9659 C   0  0  0  0  0  0  0  0  0  0  0  0
   -0.4437   -1.9770   -2.9602 O   0  0  0  0  0  0  0  0  0  0  0  0
   -2.0831   -1.3513   -1.3677 N   0  0  0  0  0  0  0  0  0  0  0  0
   -3.0738   -2.2556   -1.8668 C   0  0  0  0  0  0  0  0  0  0  0  0
   -3.2856   -2.4008   -3.2467 C   0  0  0  0  0  0  0  0  0  0  0  0
   -4.2414   -3.2976   -3.7310 C   0  0  0  0  0  0  0  0  0  0  0  0
   -4.9769   -4.0640   -2.8380 C   0  0  0  0  0  0  0  0  0  0  0  0
   -5.8886   -4.9277   -3.3016 F   0  0  0  0  0  0  0  0  0  0  0  0
   -4.7695   -3.9564   -1.4694 C   0  0  0  0  0  0  0  0  0  0  0  0
   -3.8152   -3.0589   -0.9832 C   0  0  0  0  0  0  0  0  0  0  0  0
   -3.7647   -1.5734    4.0346 H   0  0  0  0  0  0  0  0  0  0  0  0
   -2.5822   -1.6314    2.7212 H   0  0  0  0  0  0  0  0  0  0  0  0
   -4.3143   -1.7009    2.3661 H   0  0  0  0  0  0  0  0  0  0  0  0
   -5.0652    1.8909    3.2159 H   0  0  0  0  0  0  0  0  0  0  0  0
   -5.2988    0.4950    4.2798 H   0  0  0  0  0  0  0  0  0  0  0  0
   -5.7537    0.4004    2.5722 H   0  0  0  0  0  0  0  0  0  0  0  0
   -2.6164    1.9602    3.9606 H   0  0  0  0  0  0  0  0  0  0  0  0
   -2.8114    0.5118    4.9544 H   0  0  0  0  0  0  0  0  0  0  0  0
   -1.5689    0.5648    3.6918 H   0  0  0  0  0  0  0  0  0  0  0  0
    1.6369   -0.7119   -2.5669 H   0  0  0  0  0  0  0  0  0  0  0  0
    1.3563    2.1979    0.0364 H   0  0  0  0  0  0  0  0  0  0  0  0
    5.9876    2.9941    0.5457 H   0  0  0  0  0  0  0  0  0  0  0  0
    6.6146    4.9682    1.8713 H   0  0  0  0  0  0  0  0  0  0  0  0
    4.8652    6.3861    2.9136 H   0  0  0  0  0  0  0  0  0  0  0  0
    2.4710    5.8155    2.6232 H   0  0  0  0  0  0  0  0  0  0  0  0
    1.8041    3.8620    1.3166 H   0  0  0  0  0  0  0  0  0  0  0  0
    3.3768   -2.3713   -1.1328 H   0  0  0  0  0  0  0  0  0  0  0  0
    4.7220   -4.0477   -2.3757 H   0  0  0  0  0  0  0  0  0  0  0  0
    6.6695   -3.2655   -3.7261 H   0  0  0  0  0  0  0  0  0  0  0  0
    6.0205    0.6626   -2.6742 H   0  0  0  0  0  0  0  0  0  0  0  0
   -2.7249   -1.8062   -3.9648 H   0  0  0  0  0  0  0  0  0  0  0  0
   -4.4123   -3.4014   -4.7979 H   0  0  0  0  0  0  0  0  0  0  0  0
   -5.3459   -4.5782   -0.7915 H   0  0  0  0  0  0  0  0  0  0  0  0
   -3.6412   -3.0290    0.0885 H   0  0  0  0  0  0  0  0  0  0  0  0
  1  2  1  0
  2  3  1  0
  2  4  1  0
  2  5  1  0
  5  6  2  0
  5  7  1  0
  7  8  1  0
  8  9  3  0
  7 10  2  3
 10 11  1  0
 11 12  1  0
 12 13  2  3
 13 14  1  0
 14 15  2  0
 15 16  1  0
 16 17  1  0
 17 18  2  0
 18 19  1  0
 19 20  2  0
 20 21  1  0
 21 22  2  0
 16 23  1  0
 23 24  2  0
 24 25  1  0
 25 26  2  0
 26 27  1  0
 27 28  2  0
 28 29  1  0
 29 30  2  0
 12 31  1  0
 31 32  2  0
 31 33  1  0
 33 34  1  0
 34 35  2  0
 35 36  1  0
 36 37  2  0
 37 38  1  0
 37 39  1  0
 39 40  2  0
 33 10  1  0
 40 34  1  0
 24 14  1  0
 30 25  1  0
 22 17  1  0
  1 41  1  0
  1 42  1  0
  1 43  1  0
  3 44  1  0
  3 45  1  0
  3 46  1  0
  4 47  1  0
  4 48  1  0
  4 49  1  0
 13 50  1  0
 15 51  1  0
 18 52  1  0
 19 53  1  0
 20 54  1  0
 21 55  1  0
 22 56  1  0
 26 57  1  0
 27 58  1  0
 28 59  1  0
 30 60  1  0
 35 61  1  0
 36 62  1  0
 39 63  1  0
 40 64  1  0
M  END
$$$$
