
     RDKit          3D

 55 57  0  0  0  0  0  0  0  0999 V2000
   -2.6181   -3.3845    0.7910 C   0  0  0  0  0  0  0  0  0  0  0  0
   -3.3268   -2.4633   -0.1947 C   0  0  0  0  0  0  0  0  0  0  0  0
   -3.5172   -1.0007    0.2870 C   0  0  0  0  0  0  0  0  0  0  0  0
   -4.4103   -0.9692    1.5442 C   0  0  0  0  0  0  0  0  0  0  0  0
   -4.2448   -0.2010   -0.8126 C   0  0  0  0  0  0  0  0  0  0  0  0
   -2.2399   -0.3485    0.6247 N   0  0  0  0  0  0  0  0  0  0  0  0
   -1.1742   -0.1796   -0.2481 C   0  0  0  0  0  0  0  0  0  0  0  0
   -1.2336   -0.5308   -1.4266 O   0  0  0  0  0  0  0  0  0  0  0  0
    0.0327    0.6333    0.3179 C   0  0  0  0  0  0  0  0  0  0  0  0
    0.3417    0.4581    1.8043 C   0  0  0  0  0  0  0  0  0  0  0  0
    0.3819   -0.7937    2.4391 C   0  0  0  0  0  0  0  0  0  0  0  0
    0.6761   -0.9010    3.8019 C   0  0  0  0  0  0  0  0  0  0  0  0
    0.9383    0.2403    4.5557 C   0  0  0  0  0  0  0  0  0  0  0  0
    0.9079    1.4898    3.9445 C   0  0  0  0  0  0  0  0  0  0  0  0
    0.6151    1.5879    2.5860 C   0  0  0  0  0  0  0  0  0  0  0  0
    0.5831    2.8089    2.0337 F   0  0  0  0  0  0  0  0  0  0  0  0
    1.2408    0.5263   -0.5359 N   0  0  0  0  0  0  0  0  0  0  0  0
    1.8700   -0.7341   -0.6189 C   0  0  0  0  0  0  0  0  0  0  0  0
    1.3346   -1.7631   -0.2044 O   0  0  0  0  0  0  0  0  0  0  0  0
    3.2688   -0.7571   -1.1197 C   0  0  0  0  0  0  0  0  0  0  0  0
    4.2575    0.2667   -1.0299 C   0  0  0  0  0  0  0  0  0  0  0  0
    5.3863   -0.2541   -1.6129 C   0  0  0  0  0  0  0  0  0  0  0  0
    5.0535   -1.5153   -1.9996 N   0  0  0  0  0  0  0  0  0  0  0  0
    3.7901   -1.8519   -1.7096 N   0  0  0  0  0  0  0  0  0  0  0  0
    1.3791    1.5066   -1.5750 C   0  0  0  0  0  0  0  0  0  0  0  0
    1.5621    1.1257   -2.9123 C   0  0  0  0  0  0  0  0  0  0  0  0
    1.6939    2.0878   -3.9170 C   0  0  0  0  0  0  0  0  0  0  0  0
    1.6432    3.4421   -3.5985 C   0  0  0  0  0  0  0  0  0  0  0  0
    1.4562    3.8352   -2.2760 C   0  0  0  0  0  0  0  0  0  0  0  0
    1.3213    2.8734   -1.2709 C   0  0  0  0  0  0  0  0  0  0  0  0
   -2.5065   -4.3814    0.3516 H   0  0  0  0  0  0  0  0  0  0  0  0
   -1.6182   -3.0179    1.0350 H   0  0  0  0  0  0  0  0  0  0  0  0
   -3.1851   -3.4983    1.7190 H   0  0  0  0  0  0  0  0  0  0  0  0
   -4.3085   -2.8991   -0.4226 H   0  0  0  0  0  0  0  0  0  0  0  0
   -2.7668   -2.4823   -1.1369 H   0  0  0  0  0  0  0  0  0  0  0  0
   -3.9205   -1.4425    2.4021 H   0  0  0  0  0  0  0  0  0  0  0  0
   -4.6331    0.0629    1.8409 H   0  0  0  0  0  0  0  0  0  0  0  0
   -5.3634   -1.4810    1.3708 H   0  0  0  0  0  0  0  0  0  0  0  0
   -4.3558    0.8513   -0.5262 H   0  0  0  0  0  0  0  0  0  0  0  0
   -3.7037   -0.2232   -1.7638 H   0  0  0  0  0  0  0  0  0  0  0  0
   -5.2459   -0.6063   -0.9988 H   0  0  0  0  0  0  0  0  0  0  0  0
   -2.1108   -0.0668    1.5883 H   0  0  0  0  0  0  0  0  0  0  0  0
   -0.3552    1.6575    0.2258 H   0  0  0  0  0  0  0  0  0  0  0  0
    0.1912   -1.7090    1.8806 H   0  0  0  0  0  0  0  0  0  0  0  0
    0.7086   -1.8829    4.2699 H   0  0  0  0  0  0  0  0  0  0  0  0
    1.1715    0.1536    5.6138 H   0  0  0  0  0  0  0  0  0  0  0  0
    1.1125    2.3900    4.5158 H   0  0  0  0  0  0  0  0  0  0  0  0
    4.1506    1.2489   -0.5917 H   0  0  0  0  0  0  0  0  0  0  0  0
    6.3747    0.1500   -1.7768 H   0  0  0  0  0  0  0  0  0  0  0  0
    5.6375   -2.2053   -2.4609 H   0  0  0  0  0  0  0  0  0  0  0  0
    1.5636    0.0765   -3.2022 H   0  0  0  0  0  0  0  0  0  0  0  0
    1.8240    1.7744   -4.9497 H   0  0  0  0  0  0  0  0  0  0  0  0
    1.7438    4.1893   -4.3813 H   0  0  0  0  0  0  0  0  0  0  0  0
    1.4186    4.8919   -2.0238 H   0  0  0  0  0  0  0  0  0  0  0  0
    1.2077    3.2153   -0.2464 H   0  0  0  0  0  0  0  0  0  0  0  0
  1  2  1  0
  2  3  1  0
  3  4  1  0
  3  5  1  0
  3  6  1  0
  6  7  1  0
  7  8  2  0
  7  9  1  0
  9 10  1  0
 10 11  2  0
 11 12  1  0
 12 13  2  0
 13 14  1  0
 14 15  2  0
 15 16  1  0
  9 17  1  0
 17 18  1  0
 18 19  2  0
 18 20  1  0
 20 21  1  0
 21 22  2  0
 22 23  1  0
 23 24  1  0
 17 25  1  0
 25 26  2  0
 26 27  1  0
 27 28  2  0
 28 29  1  0
 29 30  2  0
 15 10  1  0
 24 20  2  0
 30 25  1  0
  1 31  1  0
  1 32  1  0
  1 33  1  0
  2 34  1  0
  2 35  1  0
  4 36  1  0
  4 37  1  0
  4 38  1  0
  5 39  1  0
  5 40  1  0
  5 41  1  0
  6 42  1  0
  9 43  1  0
 11 44  1  0
 12 45  1  0
 13 46  1  0
 14 47  1  0
 21 48  1  0
 22 49  1  0
 23 50  1  0
 26 51  1  0
 27 52  1  0
 28 53  1  0
 29 54  1  0
 30 55  1  0
M  END
$$$$
