
     RDKit          3D

 70 72  0  0  0  0  0  0  0  0999 V2000
    8.4896    3.3958   -0.3733 C   0  0  0  0  0  0  0  0  0  0  0  0
    7.9756    1.9861   -0.1199 C   0  0  0  0  0  0  0  0  0  0  0  0
    7.9156    1.1760   -1.4159 C   0  0  0  0  0  0  0  0  0  0  0  0
    7.4971   -0.2829   -1.2079 C   0  0  0  0  0  0  0  0  0  0  0  0
    6.1292   -0.5042   -0.5518 C   0  0  0  0  0  0  0  0  0  0  0  0
    4.9715    0.1423   -1.3169 C   0  0  0  0  0  0  0  0  0  0  0  0
    3.6017   -0.1217   -0.6802 C   0  0  0  0  0  0  0  0  0  0  0  0
    3.1289   -1.5701   -0.8346 C   0  0  0  0  0  0  0  0  0  0  0  0
    1.7654   -1.8433   -0.1823 C   0  0  0  0  0  0  0  0  0  0  0  0
    0.6334   -1.0365   -0.8229 C   0  0  0  0  0  0  0  0  0  0  0  0
   -0.7998   -1.4659   -0.3811 N   0  0  0  0  0  4  0  0  0  0  0  0
   -1.1209   -2.8475   -0.9384 C   0  0  0  0  0  0  0  0  0  0  0  0
   -0.8893   -1.4798    1.1414 C   0  0  0  0  0  0  0  0  0  0  0  0
   -1.7559   -0.3832   -0.9697 C   0  0  0  0  0  0  0  0  0  0  0  0
   -3.2513   -0.7353   -1.0882 C   0  0  0  0  0  0  0  0  0  0  0  0
   -4.0303   -0.9088    0.1903 C   0  0  0  0  0  0  0  0  0  0  0  0
   -4.9157   -0.0605    0.7644 C   0  0  0  0  0  0  0  0  0  0  0  0
   -5.7603   -0.5995    1.8675 C   0  0  0  0  0  0  0  0  0  0  0  0
   -5.2093   -1.2519    2.9808 C   0  0  0  0  0  0  0  0  0  0  0  0
   -6.0377   -1.7374    3.9951 C   0  0  0  0  0  0  0  0  0  0  0  0
   -7.4186   -1.5715    3.9095 C   0  0  0  0  0  0  0  0  0  0  0  0
   -7.9773   -0.9088    2.8160 C   0  0  0  0  0  0  0  0  0  0  0  0
   -7.1559   -0.4082    1.7995 C   0  0  0  0  0  0  0  0  0  0  0  0
   -7.9228    0.4685    0.4324 S   0  0  0  0  0  0  0  0  0  0  0  0
   -6.6033    1.5968   -0.0180 C   0  0  0  0  0  0  0  0  0  0  0  0
   -6.9469    2.8389   -0.5668 C   0  0  0  0  0  0  0  0  0  0  0  0
   -5.9541    3.7707   -0.8756 C   0  0  0  0  0  0  0  0  0  0  0  0
   -4.6204    3.4663   -0.6183 C   0  0  0  0  0  0  0  0  0  0  0  0
   -3.3898    4.6138   -0.9766 Cl  0  0  0  0  0  0  0  0  0  0  0  0
   -4.2652    2.2323   -0.0738 C   0  0  0  0  0  0  0  0  0  0  0  0
   -5.2474    1.2696    0.1912 C   0  0  0  0  0  0  0  0  0  0  0  0
    8.5038    3.9682    0.5605 H   0  0  0  0  0  0  0  0  0  0  0  0
    7.8472    3.9227   -1.0875 H   0  0  0  0  0  0  0  0  0  0  0  0
    9.5078    3.3771   -0.7748 H   0  0  0  0  0  0  0  0  0  0  0  0
    8.6315    1.4878    0.6036 H   0  0  0  0  0  0  0  0  0  0  0  0
    6.9810    2.0529    0.3334 H   0  0  0  0  0  0  0  0  0  0  0  0
    7.2394    1.6612   -2.1295 H   0  0  0  0  0  0  0  0  0  0  0  0
    8.9071    1.1799   -1.8868 H   0  0  0  0  0  0  0  0  0  0  0  0
    7.5059   -0.7867   -2.1833 H   0  0  0  0  0  0  0  0  0  0  0  0
    8.2580   -0.7843   -0.5959 H   0  0  0  0  0  0  0  0  0  0  0  0
    6.1460   -0.1331    0.4790 H   0  0  0  0  0  0  0  0  0  0  0  0
    5.9712   -1.5861   -0.4849 H   0  0  0  0  0  0  0  0  0  0  0  0
    5.1165    1.2276   -1.3405 H   0  0  0  0  0  0  0  0  0  0  0  0
    4.9691   -0.2013   -2.3578 H   0  0  0  0  0  0  0  0  0  0  0  0
    2.8804    0.5472   -1.1629 H   0  0  0  0  0  0  0  0  0  0  0  0
    3.6280    0.1522    0.3815 H   0  0  0  0  0  0  0  0  0  0  0  0
    3.8571   -2.2472   -0.3767 H   0  0  0  0  0  0  0  0  0  0  0  0
    3.0797   -1.8287   -1.8990 H   0  0  0  0  0  0  0  0  0  0  0  0
    1.8382   -1.6087    0.8863 H   0  0  0  0  0  0  0  0  0  0  0  0
    1.5771   -2.9182   -0.2632 H   0  0  0  0  0  0  0  0  0  0  0  0
    0.6619   -1.1243   -1.9147 H   0  0  0  0  0  0  0  0  0  0  0  0
    0.7290    0.0212   -0.5529 H   0  0  0  0  0  0  0  0  0  0  0  0
   -2.1173   -3.1444   -0.6029 H   0  0  0  0  0  0  0  0  0  0  0  0
   -0.3982   -3.5688   -0.5524 H   0  0  0  0  0  0  0  0  0  0  0  0
   -1.0728   -2.7991   -2.0295 H   0  0  0  0  0  0  0  0  0  0  0  0
   -0.5910   -0.4954    1.5172 H   0  0  0  0  0  0  0  0  0  0  0  0
   -0.2267   -2.2591    1.5299 H   0  0  0  0  0  0  0  0  0  0  0  0
   -1.9095   -1.7124    1.4438 H   0  0  0  0  0  0  0  0  0  0  0  0
   -1.3883   -0.1784   -1.9837 H   0  0  0  0  0  0  0  0  0  0  0  0
   -1.6043    0.5224   -0.3712 H   0  0  0  0  0  0  0  0  0  0  0  0
   -3.7203    0.0453   -1.7001 H   0  0  0  0  0  0  0  0  0  0  0  0
   -3.3755   -1.6440   -1.6912 H   0  0  0  0  0  0  0  0  0  0  0  0
   -3.9587   -1.9156    0.6046 H   0  0  0  0  0  0  0  0  0  0  0  0
   -4.1355   -1.3741    3.0797 H   0  0  0  0  0  0  0  0  0  0  0  0
   -5.6079   -2.2394    4.8592 H   0  0  0  0  0  0  0  0  0  0  0  0
   -8.0632   -1.9482    4.7011 H   0  0  0  0  0  0  0  0  0  0  0  0
   -9.0564   -0.7755    2.7704 H   0  0  0  0  0  0  0  0  0  0  0  0
   -7.9892    3.0948   -0.7455 H   0  0  0  0  0  0  0  0  0  0  0  0
   -6.2317    4.7328   -1.2991 H   0  0  0  0  0  0  0  0  0  0  0  0
   -3.2247    2.0394    0.1603 H   0  0  0  0  0  0  0  0  0  0  0  0
  1  2  1  0
  2  3  1  0
  3  4  1  0
  4  5  1  0
  5  6  1  0
  6  7  1  0
  7  8  1  0
  8  9  1  0
  9 10  1  0
 10 11  1  0
 11 12  1  0
 11 13  1  0
 11 14  1  0
 14 15  1  0
 15 16  1  0
 16 17  2  3
 17 18  1  0
 18 19  2  0
 19 20  1  0
 20 21  2  0
 21 22  1  0
 22 23  2  0
 23 24  1  0
 24 25  1  0
 25 26  2  0
 26 27  1  0
 27 28  2  0
 28 29  1  0
 28 30  1  0
 30 31  2  0
 31 17  1  0
 23 18  1  0
 31 25  1  0
  1 32  1  0
  1 33  1  0
  1 34  1  0
  2 35  1  0
  2 36  1  0
  3 37  1  0
  3 38  1  0
  4 39  1  0
  4 40  1  0
  5 41  1  0
  5 42  1  0
  6 43  1  0
  6 44  1  0
  7 45  1  0
  7 46  1  0
  8 47  1  0
  8 48  1  0
  9 49  1  0
  9 50  1  0
 10 51  1  0
 10 52  1  0
 12 53  1  0
 12 54  1  0
 12 55  1  0
 13 56  1  0
 13 57  1  0
 13 58  1  0
 14 59  1  0
 14 60  1  0
 15 61  1  0
 15 62  1  0
 16 63  1  0
 19 64  1  0
 20 65  1  0
 21 66  1  0
 22 67  1  0
 26 68  1  0
 27 69  1  0
 30 70  1  0
M  CHG  1  11   1
M  END
$$$$
