
     RDKit          3D

 34 35  0  0  0  0  0  0  0  0999 V2000
   -2.7718   -0.8169    1.2561 C   0  0  0  0  0  0  0  0  0  0  0  0
   -2.3148   -1.4267    0.0447 O   0  0  0  0  0  0  0  0  0  0  0  0
   -2.8806   -0.8099   -1.0412 C   0  0  0  0  0  0  0  0  0  0  0  0
   -4.0615   -1.3706   -1.5396 C   0  0  0  0  0  0  0  0  0  0  0  0
   -4.6928   -0.8020   -2.6458 C   0  0  0  0  0  0  0  0  0  0  0  0
   -4.1368    0.3194   -3.2580 C   0  0  0  0  0  0  0  0  0  0  0  0
   -4.9207    1.0217   -4.6186 Cl  0  0  0  0  0  0  0  0  0  0  0  0
   -2.9480    0.8706   -2.7825 C   0  0  0  0  0  0  0  0  0  0  0  0
   -2.2973    0.2978   -1.6776 C   0  0  0  0  0  0  0  0  0  0  0  0
   -1.0258    0.9337   -1.2460 C   0  0  0  0  0  0  0  0  0  0  0  0
   -0.7617    2.1003   -1.5017 O   0  0  0  0  0  0  0  0  0  0  0  0
   -0.2537    0.0189   -0.5984 O   0  0  0  0  0  0  0  0  0  0  0  0
    0.9458    0.6045   -0.1555 N   0  0  0  0  0  0  0  0  0  0  0  0
    1.6013   -0.2134    0.6151 C   0  0  0  0  0  0  0  0  0  0  0  0
    1.1379   -1.4704    0.9411 N   0  0  0  0  0  0  0  0  0  0  0  0
    2.9214    0.2411    1.1620 C   0  0  0  0  0  0  0  0  0  0  0  0
    3.5059   -0.4128    2.2553 C   0  0  0  0  0  0  0  0  0  0  0  0
    4.7390    0.0191    2.7543 C   0  0  0  0  0  0  0  0  0  0  0  0
    5.3858    1.1044    2.1643 C   0  0  0  0  0  0  0  0  0  0  0  0
    6.9030    1.6315    2.7805 Cl  0  0  0  0  0  0  0  0  0  0  0  0
    4.8093    1.7665    1.0823 C   0  0  0  0  0  0  0  0  0  0  0  0
    3.5761    1.3373    0.5830 C   0  0  0  0  0  0  0  0  0  0  0  0
   -2.5108    0.2462    1.2928 H   0  0  0  0  0  0  0  0  0  0  0  0
   -2.2721   -1.3179    2.0906 H   0  0  0  0  0  0  0  0  0  0  0  0
   -3.8526   -0.9482    1.3771 H   0  0  0  0  0  0  0  0  0  0  0  0
   -4.4927   -2.2474   -1.0620 H   0  0  0  0  0  0  0  0  0  0  0  0
   -5.6148   -1.2365   -3.0242 H   0  0  0  0  0  0  0  0  0  0  0  0
   -2.5195    1.7420   -3.2756 H   0  0  0  0  0  0  0  0  0  0  0  0
    0.3355   -1.7302    0.3715 H   0  0  0  0  0  0  0  0  0  0  0  0
    1.8415   -2.2003    0.9419 H   0  0  0  0  0  0  0  0  0  0  0  0
    3.0030   -1.2430    2.7436 H   0  0  0  0  0  0  0  0  0  0  0  0
    5.1841   -0.4888    3.6060 H   0  0  0  0  0  0  0  0  0  0  0  0
    5.3079    2.6165    0.6241 H   0  0  0  0  0  0  0  0  0  0  0  0
    3.1304    1.8634   -0.2595 H   0  0  0  0  0  0  0  0  0  0  0  0
  1  2  1  0
  2  3  1  0
  3  4  2  0
  4  5  1  0
  5  6  2  0
  6  7  1  0
  6  8  1  0
  8  9  2  0
  9 10  1  0
 10 11  2  0
 10 12  1  0
 12 13  1  0
 13 14  2  3
 14 15  1  0
 14 16  1  0
 16 17  2  0
 17 18  1  0
 18 19  2  0
 19 20  1  0
 19 21  1  0
 21 22  2  0
  9  3  1  0
 22 16  1  0
  1 23  1  0
  1 24  1  0
  1 25  1  0
  4 26  1  0
  5 27  1  0
  8 28  1  0
 15 29  1  0
 15 30  1  0
 17 31  1  0
 18 32  1  0
 21 33  1  0
 22 34  1  0
M  END
$$$$
