
     RDKit          3D

 56 59  0  0  0  0  0  0  0  0999 V2000
   -0.2961   -1.7304   -4.8920 C   0  0  0  0  0  0  0  0  0  0  0  0
   -0.7353   -1.4250   -3.5731 O   0  0  0  0  0  0  0  0  0  0  0  0
   -1.8835   -0.6874   -3.4424 C   0  0  0  0  0  0  0  0  0  0  0  0
   -2.6959   -0.2889   -4.5073 C   0  0  0  0  0  0  0  0  0  0  0  0
   -3.8466    0.4721   -4.2754 C   0  0  0  0  0  0  0  0  0  0  0  0
   -4.2041    0.8487   -2.9765 C   0  0  0  0  0  0  0  0  0  0  0  0
   -5.4418    1.6653   -2.7836 C   0  0  0  0  0  0  0  0  0  0  0  0
   -5.8520    2.0555   -1.3879 C   0  0  0  0  0  0  0  0  0  0  0  0
   -6.1041    2.0116   -3.7607 O   0  0  0  0  0  0  0  0  0  0  0  0
   -3.3967    0.4490   -1.9074 C   0  0  0  0  0  0  0  0  0  0  0  0
   -2.2384   -0.3250   -2.1285 C   0  0  0  0  0  0  0  0  0  0  0  0
   -1.3816   -0.7168   -0.9440 C   0  0  0  0  0  0  0  0  0  0  0  0
   -0.1680    0.5807   -0.5597 S   0  0  0  0  0  0  0  0  0  0  0  0
    0.8286   -0.2895    0.5885 C   0  0  0  0  0  0  0  0  0  0  0  0
    0.2142   -1.0829    1.4055 N   0  0  0  0  0  0  0  0  0  0  0  0
    0.9634   -1.7995    2.3389 C   0  0  0  0  0  0  0  0  0  0  0  0
    0.2969   -2.6333    3.2410 C   0  0  0  0  0  0  0  0  0  0  0  0
    1.0147   -3.3763    4.1886 C   0  0  0  0  0  0  0  0  0  0  0  0
    0.2535   -4.2358    5.1266 C   0  0  0  0  0  0  0  0  0  0  0  0
   -0.9579   -4.3438    5.1717 O   0  0  0  0  0  0  0  0  0  0  0  0
    1.0501   -4.9175    5.9683 O   0  0  0  0  0  0  0  0  0  0  0  0
    2.4129   -3.2847    4.2307 C   0  0  0  0  0  0  0  0  0  0  0  0
    3.0827   -2.4515    3.3330 C   0  0  0  0  0  0  0  0  0  0  0  0
    2.3504   -1.7137    2.3946 C   0  0  0  0  0  0  0  0  0  0  0  0
    3.0192   -0.8169    1.4372 C   0  0  0  0  0  0  0  0  0  0  0  0
    4.2468   -0.7585    1.4509 O   0  0  0  0  0  0  0  0  0  0  0  0
    2.2022   -0.0942    0.5698 N   0  0  0  0  0  0  0  0  0  0  0  0
    2.8862    0.8311   -0.3440 C   0  0  0  0  0  0  0  0  0  0  0  0
    2.9440    2.2517    0.1863 C   0  0  0  0  0  0  0  0  0  0  0  0
    3.7393    2.5705    1.2973 C   0  0  0  0  0  0  0  0  0  0  0  0
    3.7889    3.8778    1.7877 C   0  0  0  0  0  0  0  0  0  0  0  0
    3.0492    4.8840    1.1706 C   0  0  0  0  0  0  0  0  0  0  0  0
    2.2647    4.5851    0.0589 C   0  0  0  0  0  0  0  0  0  0  0  0
    2.2145    3.2785   -0.4328 C   0  0  0  0  0  0  0  0  0  0  0  0
   -0.0930   -0.8164   -5.4603 H   0  0  0  0  0  0  0  0  0  0  0  0
    0.6431   -2.2879   -4.8115 H   0  0  0  0  0  0  0  0  0  0  0  0
   -1.0185   -2.3703   -5.4111 H   0  0  0  0  0  0  0  0  0  0  0  0
   -2.4651   -0.5494   -5.5364 H   0  0  0  0  0  0  0  0  0  0  0  0
   -4.4632    0.7729   -5.1217 H   0  0  0  0  0  0  0  0  0  0  0  0
   -6.8070    2.5918   -1.4306 H   0  0  0  0  0  0  0  0  0  0  0  0
   -5.9976    1.1668   -0.7687 H   0  0  0  0  0  0  0  0  0  0  0  0
   -5.1026    2.7208   -0.9508 H   0  0  0  0  0  0  0  0  0  0  0  0
   -3.6447    0.7290   -0.8858 H   0  0  0  0  0  0  0  0  0  0  0  0
   -2.0260   -0.8820   -0.0725 H   0  0  0  0  0  0  0  0  0  0  0  0
   -0.8721   -1.6671   -1.1367 H   0  0  0  0  0  0  0  0  0  0  0  0
   -0.7895   -2.6985    3.2012 H   0  0  0  0  0  0  0  0  0  0  0  0
    0.4239   -5.4270    6.5262 H   0  0  0  0  0  0  0  0  0  0  0  0
    2.9879   -3.8526    4.9593 H   0  0  0  0  0  0  0  0  0  0  0  0
    4.1685   -2.3763    3.3684 H   0  0  0  0  0  0  0  0  0  0  0  0
    3.9158    0.4946   -0.5262 H   0  0  0  0  0  0  0  0  0  0  0  0
    2.4063    0.8059   -1.3291 H   0  0  0  0  0  0  0  0  0  0  0  0
    4.3350    1.8034    1.7890 H   0  0  0  0  0  0  0  0  0  0  0  0
    4.4062    4.1096    2.6516 H   0  0  0  0  0  0  0  0  0  0  0  0
    3.0868    5.9010    1.5538 H   0  0  0  0  0  0  0  0  0  0  0  0
    1.6891    5.3698   -0.4264 H   0  0  0  0  0  0  0  0  0  0  0  0
    1.5963    3.0721   -1.3042 H   0  0  0  0  0  0  0  0  0  0  0  0
  1  2  1  0
  2  3  1  0
  3  4  2  0
  4  5  1  0
  5  6  2  0
  6  7  1  0
  7  8  1  0
  7  9  2  0
  6 10  1  0
 10 11  2  0
 11 12  1  0
 12 13  1  0
 13 14  1  0
 14 15  2  0
 15 16  1  0
 16 17  2  0
 17 18  1  0
 18 19  1  0
 19 20  2  0
 19 21  1  0
 18 22  2  0
 22 23  1  0
 23 24  2  0
 24 25  1  0
 25 26  2  0
 25 27  1  0
 27 28  1  0
 28 29  1  0
 29 30  2  0
 30 31  1  0
 31 32  2  0
 32 33  1  0
 33 34  2  0
 11  3  1  0
 27 14  1  0
 34 29  1  0
 24 16  1  0
  1 35  1  0
  1 36  1  0
  1 37  1  0
  4 38  1  0
  5 39  1  0
  8 40  1  0
  8 41  1  0
  8 42  1  0
 10 43  1  0
 12 44  1  0
 12 45  1  0
 17 46  1  0
 21 47  1  0
 22 48  1  0
 23 49  1  0
 28 50  1  0
 28 51  1  0
 30 52  1  0
 31 53  1  0
 32 54  1  0
 33 55  1  0
 34 56  1  0
M  END
$$$$
