
     RDKit          3D

 38 40  0  0  0  0  0  0  0  0999 V2000
   -6.1485    0.7611   -2.6499 C   0  0  0  0  0  0  0  0  0  0  0  0
   -5.5691    0.1797   -1.3944 C   0  0  0  0  0  0  0  0  0  0  0  0
   -5.9285   -0.8786   -0.8971 O   0  0  0  0  0  0  0  0  0  0  0  0
   -4.5825    1.0382   -0.9216 O   0  0  0  0  0  0  0  0  0  0  0  0
   -3.9520    0.6172    0.2543 C   0  0  0  0  0  0  0  0  0  0  0  0
   -4.6415    0.5961    1.4646 C   0  0  0  0  0  0  0  0  0  0  0  0
   -3.9684    0.2090    2.6207 C   0  0  0  0  0  0  0  0  0  0  0  0
   -2.6129   -0.1316    2.5612 C   0  0  0  0  0  0  0  0  0  0  0  0
   -1.9102   -0.0735    1.3483 C   0  0  0  0  0  0  0  0  0  0  0  0
   -0.4920   -0.4596    1.3293 C   0  0  0  0  0  0  0  0  0  0  0  0
    0.4398    0.1836    0.6061 C   0  0  0  0  0  0  0  0  0  0  0  0
    1.8640   -0.1649    0.5406 C   0  0  0  0  0  0  0  0  0  0  0  0
    2.5427   -0.8011    1.5729 C   0  0  0  0  0  0  0  0  0  0  0  0
    3.9025   -1.0627    1.4222 C   0  0  0  0  0  0  0  0  0  0  0  0
    4.5585   -0.6763    0.2492 C   0  0  0  0  0  0  0  0  0  0  0  0
    5.9306   -0.9155    0.0412 C   0  0  0  0  0  0  0  0  0  0  0  0
    6.5481   -0.5104   -1.1435 C   0  0  0  0  0  0  0  0  0  0  0  0
    5.8025    0.1343   -2.1248 C   0  0  0  0  0  0  0  0  0  0  0  0
    4.4476    0.3643   -1.9056 C   0  0  0  0  0  0  0  0  0  0  0  0
    3.7325    1.0025   -2.8913 O   0  0  0  0  0  0  0  0  0  0  0  0
    3.7966   -0.0247   -0.7381 C   0  0  0  0  0  0  0  0  0  0  0  0
    2.4785    0.2346   -0.5980 N   0  0  0  0  0  0  0  0  0  0  0  0
   -2.5951    0.3003    0.1860 C   0  0  0  0  0  0  0  0  0  0  0  0
   -6.9278    0.0950   -3.0312 H   0  0  0  0  0  0  0  0  0  0  0  0
   -6.5970    1.7343   -2.4352 H   0  0  0  0  0  0  0  0  0  0  0  0
   -5.3683    0.8547   -3.4095 H   0  0  0  0  0  0  0  0  0  0  0  0
   -5.6930    0.8621    1.5093 H   0  0  0  0  0  0  0  0  0  0  0  0
   -4.4972    0.1693    3.5695 H   0  0  0  0  0  0  0  0  0  0  0  0
   -2.1072   -0.4326    3.4762 H   0  0  0  0  0  0  0  0  0  0  0  0
   -0.2375   -1.3138    1.9507 H   0  0  0  0  0  0  0  0  0  0  0  0
    0.1691    1.0327   -0.0167 H   0  0  0  0  0  0  0  0  0  0  0  0
    2.0412   -1.0856    2.4911 H   0  0  0  0  0  0  0  0  0  0  0  0
    4.4423   -1.5619    2.2227 H   0  0  0  0  0  0  0  0  0  0  0  0
    6.5240   -1.4184    0.8017 H   0  0  0  0  0  0  0  0  0  0  0  0
    7.6075   -0.6973   -1.3000 H   0  0  0  0  0  0  0  0  0  0  0  0
    6.2657    0.4564   -3.0526 H   0  0  0  0  0  0  0  0  0  0  0  0
    2.8226    1.0499   -2.5277 H   0  0  0  0  0  0  0  0  0  0  0  0
   -2.0877    0.3334   -0.7737 H   0  0  0  0  0  0  0  0  0  0  0  0
  1  2  1  0
  2  3  2  0
  2  4  1  0
  4  5  1  0
  5  6  2  0
  6  7  1  0
  7  8  2  0
  8  9  1  0
  9 10  1  0
 10 11  2  0
 11 12  1  0
 12 13  2  0
 13 14  1  0
 14 15  2  0
 15 16  1  0
 16 17  2  0
 17 18  1  0
 18 19  2  0
 19 20  1  0
 19 21  1  0
 21 22  2  0
  9 23  2  0
 23  5  1  0
 22 12  1  0
 21 15  1  0
  1 24  1  0
  1 25  1  0
  1 26  1  0
  6 27  1  0
  7 28  1  0
  8 29  1  0
 10 30  1  0
 11 31  1  0
 13 32  1  0
 14 33  1  0
 16 34  1  0
 17 35  1  0
 18 36  1  0
 20 37  1  0
 23 38  1  0
M  END
$$$$
