
     RDKit          3D

 55 58  0  0  0  0  0  0  0  0999 V2000
   -7.3245   -0.1195   -2.9910 C   0  0  0  0  0  0  0  0  0  0  0  0
   -7.1281    1.1292   -2.1450 C   0  0  0  0  0  0  0  0  0  0  0  0
   -7.5735    0.9535   -0.6907 C   0  0  0  0  0  0  0  0  0  0  0  0
   -6.7301   -0.0204    0.1333 C   0  0  0  0  0  0  0  0  0  0  0  0
   -5.3901    0.4792    0.3715 N   0  0  0  0  0  0  0  0  0  0  0  0
   -4.2958    0.0142   -0.3278 C   0  0  0  0  0  0  0  0  0  0  0  0
   -4.3558   -0.8600   -1.1845 O   0  0  0  0  0  0  0  0  0  0  0  0
   -2.9918    0.6641   -0.0196 C   0  0  0  0  0  0  0  0  0  0  0  0
   -2.0239    0.7220   -1.0271 C   0  0  0  0  0  0  0  0  0  0  0  0
   -0.7849    1.3207   -0.7824 C   0  0  0  0  0  0  0  0  0  0  0  0
   -0.4856    1.8589    0.4781 C   0  0  0  0  0  0  0  0  0  0  0  0
    0.8632    2.5023    0.7484 C   0  0  0  0  0  0  0  0  0  0  0  0
    1.9646    1.5323    0.7934 N   0  0  0  0  0  0  0  0  0  0  0  0
    2.3016    0.8509    1.9813 C   0  0  0  0  0  0  0  0  0  0  0  0
    1.5931    1.0409    3.4938 S   0  0  0  0  0  0  0  0  0  0  0  0
    3.3295   -0.0666    1.9190 N   0  0  0  0  0  0  0  0  0  0  0  0
    4.0232   -0.3084    0.7646 C   0  0  0  0  0  0  0  0  0  0  0  0
    3.6962    0.3828   -0.3623 C   0  0  0  0  0  0  0  0  0  0  0  0
    4.5283   -0.0300   -1.3647 N   0  0  0  0  0  0  0  0  0  0  0  0
    5.3948   -0.9906   -0.8815 C   0  0  0  0  0  0  0  0  0  0  0  0
    6.4118   -1.6938   -1.5321 C   0  0  0  0  0  0  0  0  0  0  0  0
    7.1369   -2.6203   -0.7752 C   0  0  0  0  0  0  0  0  0  0  0  0
    6.8639   -2.8424    0.5764 C   0  0  0  0  0  0  0  0  0  0  0  0
    7.6663   -3.7821    1.1676 O   0  0  0  0  0  0  0  0  0  0  0  0
    7.4247   -4.0658    2.5397 C   0  0  0  0  0  0  0  0  0  0  0  0
    5.8409   -2.1275    1.2108 C   0  0  0  0  0  0  0  0  0  0  0  0
    5.0929   -1.1859    0.4713 C   0  0  0  0  0  0  0  0  0  0  0  0
    2.6559    1.3586   -0.4247 C   0  0  0  0  0  0  0  0  0  0  0  0
    2.4180    1.9791   -1.4573 O   0  0  0  0  0  0  0  0  0  0  0  0
   -1.4615    1.7920    1.4844 C   0  0  0  0  0  0  0  0  0  0  0  0
   -2.7025    1.1929    1.2426 C   0  0  0  0  0  0  0  0  0  0  0  0
   -7.0609    0.0883   -4.0330 H   0  0  0  0  0  0  0  0  0  0  0  0
   -6.6953   -0.9450   -2.6482 H   0  0  0  0  0  0  0  0  0  0  0  0
   -8.3681   -0.4491   -2.9665 H   0  0  0  0  0  0  0  0  0  0  0  0
   -7.7183    1.9400   -2.5892 H   0  0  0  0  0  0  0  0  0  0  0  0
   -6.0808    1.4464   -2.1916 H   0  0  0  0  0  0  0  0  0  0  0  0
   -8.6167    0.6147   -0.6762 H   0  0  0  0  0  0  0  0  0  0  0  0
   -7.5570    1.9374   -0.2048 H   0  0  0  0  0  0  0  0  0  0  0  0
   -7.1888   -0.1389    1.1211 H   0  0  0  0  0  0  0  0  0  0  0  0
   -6.6922   -1.0105   -0.3307 H   0  0  0  0  0  0  0  0  0  0  0  0
   -5.2949    1.3006    0.9517 H   0  0  0  0  0  0  0  0  0  0  0  0
   -2.2337    0.3031   -2.0098 H   0  0  0  0  0  0  0  0  0  0  0  0
   -0.0589    1.3634   -1.5921 H   0  0  0  0  0  0  0  0  0  0  0  0
    1.0454    3.2539   -0.0300 H   0  0  0  0  0  0  0  0  0  0  0  0
    0.8304    3.0704    1.6845 H   0  0  0  0  0  0  0  0  0  0  0  0
    3.5771   -0.5719    2.7612 H   0  0  0  0  0  0  0  0  0  0  0  0
    4.5068    0.3191   -2.3144 H   0  0  0  0  0  0  0  0  0  0  0  0
    6.6375   -1.5353   -2.5816 H   0  0  0  0  0  0  0  0  0  0  0  0
    7.9354   -3.1839   -1.2545 H   0  0  0  0  0  0  0  0  0  0  0  0
    8.1374   -4.8350    2.8526 H   0  0  0  0  0  0  0  0  0  0  0  0
    7.5957   -3.1809    3.1616 H   0  0  0  0  0  0  0  0  0  0  0  0
    6.4163   -4.4660    2.6888 H   0  0  0  0  0  0  0  0  0  0  0  0
    5.6024   -2.2740    2.2566 H   0  0  0  0  0  0  0  0  0  0  0  0
   -1.2611    2.1958    2.4753 H   0  0  0  0  0  0  0  0  0  0  0  0
   -3.4155    1.1220    2.0588 H   0  0  0  0  0  0  0  0  0  0  0  0
  1  2  1  0
  2  3  1  0
  3  4  1  0
  4  5  1  0
  5  6  1  0
  6  7  2  0
  6  8  1  0
  8  9  2  0
  9 10  1  0
 10 11  2  0
 11 12  1  0
 12 13  1  0
 13 14  1  0
 14 15  2  0
 14 16  1  0
 16 17  1  0
 17 18  2  0
 18 19  1  0
 19 20  1  0
 20 21  2  0
 21 22  1  0
 22 23  2  0
 23 24  1  0
 24 25  1  0
 23 26  1  0
 26 27  2  0
 18 28  1  0
 28 29  2  0
 11 30  1  0
 30 31  2  0
 31  8  1  0
 28 13  1  0
 27 17  1  0
 27 20  1  0
  1 32  1  0
  1 33  1  0
  1 34  1  0
  2 35  1  0
  2 36  1  0
  3 37  1  0
  3 38  1  0
  4 39  1  0
  4 40  1  0
  5 41  1  0
  9 42  1  0
 10 43  1  0
 12 44  1  0
 12 45  1  0
 16 46  1  0
 19 47  1  0
 21 48  1  0
 22 49  1  0
 25 50  1  0
 25 51  1  0
 25 52  1  0
 26 53  1  0
 30 54  1  0
 31 55  1  0
M  END
$$$$
