
     RDKit          3D

 37 39  0  0  0  0  0  0  0  0999 V2000
    2.0052    2.1232   -1.0116 N   0  0  0  0  0  0  0  0  0  0  0  0
    3.1896    1.6213   -0.5611 C   0  0  0  0  0  0  0  0  0  0  0  0
    4.2284    2.2623   -0.6857 O   0  0  0  0  0  0  0  0  0  0  0  0
    3.1510    0.2427    0.0756 C   0  0  0  0  0  0  0  0  0  0  0  0
    2.6891   -0.8080   -0.9459 C   0  0  0  0  0  0  0  0  0  0  0  0
    2.4769   -2.1691   -0.2845 C   0  0  0  0  0  0  0  0  0  0  0  0
    1.5287   -2.0343    0.8282 N   0  0  0  0  0  0  0  0  0  0  0  0
    0.2021   -1.9145    0.5044 C   0  0  0  0  0  0  0  0  0  0  0  0
   -0.5461   -0.8921    0.8564 N   0  0  0  0  0  0  0  0  0  0  0  0
   -1.8147   -0.9911    0.3239 C   0  0  0  0  0  0  0  0  0  0  0  0
   -2.7841    0.0745    0.4988 C   0  0  0  0  0  0  0  0  0  0  0  0
   -4.1049   -0.2043    0.8791 C   0  0  0  0  0  0  0  0  0  0  0  0
   -5.0249    0.8350    1.0507 C   0  0  0  0  0  0  0  0  0  0  0  0
   -4.6348    2.1585    0.8449 C   0  0  0  0  0  0  0  0  0  0  0  0
   -3.3239    2.4453    0.4676 C   0  0  0  0  0  0  0  0  0  0  0  0
   -2.4081    1.4082    0.2980 C   0  0  0  0  0  0  0  0  0  0  0  0
   -1.1613    1.7233   -0.0927 F   0  0  0  0  0  0  0  0  0  0  0  0
   -2.0605   -2.1498   -0.3809 C   0  0  0  0  0  0  0  0  0  0  0  0
   -0.6455   -3.1129   -0.4175 S   0  0  0  0  0  0  0  0  0  0  0  0
    2.0278   -1.1442    1.8864 C   0  0  0  0  0  0  0  0  0  0  0  0
    2.2952    0.2611    1.3504 C   0  0  0  0  0  0  0  0  0  0  0  0
    2.0107    3.0722   -1.3607 H   0  0  0  0  0  0  0  0  0  0  0  0
    1.1089    1.7274   -0.7478 H   0  0  0  0  0  0  0  0  0  0  0  0
    4.1807   -0.0056    0.3681 H   0  0  0  0  0  0  0  0  0  0  0  0
    3.4362   -0.8993   -1.7438 H   0  0  0  0  0  0  0  0  0  0  0  0
    1.7594   -0.4911   -1.4345 H   0  0  0  0  0  0  0  0  0  0  0  0
    2.1439   -2.9035   -1.0264 H   0  0  0  0  0  0  0  0  0  0  0  0
    3.4324   -2.5461    0.1020 H   0  0  0  0  0  0  0  0  0  0  0  0
   -4.4254   -1.2274    1.0625 H   0  0  0  0  0  0  0  0  0  0  0  0
   -6.0459    0.6111    1.3518 H   0  0  0  0  0  0  0  0  0  0  0  0
   -5.3510    2.9653    0.9808 H   0  0  0  0  0  0  0  0  0  0  0  0
   -3.0074    3.4704    0.3021 H   0  0  0  0  0  0  0  0  0  0  0  0
   -2.9627   -2.4639   -0.8851 H   0  0  0  0  0  0  0  0  0  0  0  0
    2.9604   -1.5635    2.2851 H   0  0  0  0  0  0  0  0  0  0  0  0
    1.3303   -1.1060    2.7328 H   0  0  0  0  0  0  0  0  0  0  0  0
    2.8016    0.8542    2.1224 H   0  0  0  0  0  0  0  0  0  0  0  0
    1.3426    0.7708    1.1725 H   0  0  0  0  0  0  0  0  0  0  0  0
  1  2  1  0
  2  3  2  0
  2  4  1  0
  4  5  1  0
  5  6  1  0
  6  7  1  0
  7  8  1  0
  8  9  2  0
  9 10  1  0
 10 11  1  0
 11 12  2  0
 12 13  1  0
 13 14  2  0
 14 15  1  0
 15 16  2  0
 16 17  1  0
 10 18  2  0
 18 19  1  0
  7 20  1  0
 20 21  1  0
 21  4  1  0
 19  8  1  0
 16 11  1  0
  1 22  1  0
  1 23  1  0
  4 24  1  0
  5 25  1  0
  5 26  1  0
  6 27  1  0
  6 28  1  0
 12 29  1  0
 13 30  1  0
 14 31  1  0
 15 32  1  0
 18 33  1  0
 20 34  1  0
 20 35  1  0
 21 36  1  0
 21 37  1  0
M  END
$$$$
