
     RDKit          3D

 48 48  0  0  0  0  0  0  0  0999 V2000
    3.3158   -0.4314   -1.6604 C   0  0  0  0  0  0  0  0  0  0  0  0
    3.4564   -0.1595   -0.1577 C   0  0  0  0  0  0  0  0  0  0  0  0
    2.5246    0.9818    0.2805 C   0  0  0  0  0  0  0  0  0  0  0  0
    1.1225    0.6405    0.1333 N   0  0  0  0  0  0  0  0  0  0  0  0
    0.1531    1.6194    0.2356 C   0  0  0  0  0  0  0  0  0  0  0  0
    0.4075    2.8101    0.3760 O   0  0  0  0  0  0  0  0  0  0  0  0
   -1.2597    1.1493    0.2119 C   0  0  0  0  0  0  0  0  0  0  0  0
   -1.6421   -0.0180   -0.4517 C   0  0  0  0  0  0  0  0  0  0  0  0
   -2.9833   -0.4191   -0.4466 C   0  0  0  0  0  0  0  0  0  0  0  0
   -3.9778    0.3325    0.2113 C   0  0  0  0  0  0  0  0  0  0  0  0
   -5.4425   -0.1414    0.1925 C   0  0  0  0  0  0  0  0  0  0  0  0
   -5.9474   -0.2061   -1.2650 C   0  0  0  0  0  0  0  0  0  0  0  0
   -6.4079    0.7809    0.9709 C   0  0  0  0  0  0  0  0  0  0  0  0
   -5.5428   -1.5452    0.8278 C   0  0  0  0  0  0  0  0  0  0  0  0
   -3.5717    1.5123    0.8572 C   0  0  0  0  0  0  0  0  0  0  0  0
   -2.2317    1.9188    0.8541 C   0  0  0  0  0  0  0  0  0  0  0  0
    4.9109    0.2091    0.2176 C   0  0  0  0  0  0  0  0  0  0  0  0
    5.9123   -0.8128   -0.1386 N   0  0  0  0  0  0  0  0  0  0  0  0
    7.2637   -0.2638    0.0082 C   0  0  0  0  0  0  0  0  0  0  0  0
    5.7814   -2.0210    0.6782 C   0  0  0  0  0  0  0  0  0  0  0  0
    2.2836   -0.6869   -1.9214 H   0  0  0  0  0  0  0  0  0  0  0  0
    3.9437   -1.2722   -1.9721 H   0  0  0  0  0  0  0  0  0  0  0  0
    3.6056    0.4453   -2.2496 H   0  0  0  0  0  0  0  0  0  0  0  0
    3.1562   -1.0655    0.3827 H   0  0  0  0  0  0  0  0  0  0  0  0
    2.6798    1.2156    1.3406 H   0  0  0  0  0  0  0  0  0  0  0  0
    2.7283    1.8960   -0.2900 H   0  0  0  0  0  0  0  0  0  0  0  0
    0.8478   -0.3124    0.3310 H   0  0  0  0  0  0  0  0  0  0  0  0
   -0.9197   -0.6136   -1.0024 H   0  0  0  0  0  0  0  0  0  0  0  0
   -3.2448   -1.3317   -0.9790 H   0  0  0  0  0  0  0  0  0  0  0  0
   -5.3835   -0.9267   -1.8674 H   0  0  0  0  0  0  0  0  0  0  0  0
   -7.0003   -0.5089   -1.3055 H   0  0  0  0  0  0  0  0  0  0  0  0
   -5.8622    0.7708   -1.7557 H   0  0  0  0  0  0  0  0  0  0  0  0
   -7.4353    0.3988    0.9337 H   0  0  0  0  0  0  0  0  0  0  0  0
   -6.4264    1.7931    0.5505 H   0  0  0  0  0  0  0  0  0  0  0  0
   -6.1299    0.8550    2.0287 H   0  0  0  0  0  0  0  0  0  0  0  0
   -6.5826   -1.8913    0.8597 H   0  0  0  0  0  0  0  0  0  0  0  0
   -4.9734   -2.2955    0.2685 H   0  0  0  0  0  0  0  0  0  0  0  0
   -5.1610   -1.5411    1.8557 H   0  0  0  0  0  0  0  0  0  0  0  0
   -4.2822    2.1504    1.3759 H   0  0  0  0  0  0  0  0  0  0  0  0
   -1.9504    2.8415    1.3585 H   0  0  0  0  0  0  0  0  0  0  0  0
    5.1575    1.1422   -0.3077 H   0  0  0  0  0  0  0  0  0  0  0  0
    4.9694    0.4335    1.2914 H   0  0  0  0  0  0  0  0  0  0  0  0
    7.4001    0.6054   -0.6449 H   0  0  0  0  0  0  0  0  0  0  0  0
    8.0149   -1.0012   -0.2963 H   0  0  0  0  0  0  0  0  0  0  0  0
    7.4760    0.0411    1.0394 H   0  0  0  0  0  0  0  0  0  0  0  0
    4.8235   -2.5191    0.5004 H   0  0  0  0  0  0  0  0  0  0  0  0
    6.5538   -2.7512    0.4103 H   0  0  0  0  0  0  0  0  0  0  0  0
    5.8699   -1.8075    1.7495 H   0  0  0  0  0  0  0  0  0  0  0  0
  1  2  1  0
  2  3  1  0
  3  4  1  0
  4  5  1  0
  5  6  2  0
  5  7  1  0
  7  8  2  0
  8  9  1  0
  9 10  2  0
 10 11  1  0
 11 12  1  0
 11 13  1  0
 11 14  1  0
 10 15  1  0
 15 16  2  0
  2 17  1  0
 17 18  1  0
 18 19  1  0
 18 20  1  0
 16  7  1  0
  1 21  1  0
  1 22  1  0
  1 23  1  0
  2 24  1  0
  3 25  1  0
  3 26  1  0
  4 27  1  0
  8 28  1  0
  9 29  1  0
 12 30  1  0
 12 31  1  0
 12 32  1  0
 13 33  1  0
 13 34  1  0
 13 35  1  0
 14 36  1  0
 14 37  1  0
 14 38  1  0
 15 39  1  0
 16 40  1  0
 17 41  1  0
 17 42  1  0
 19 43  1  0
 19 44  1  0
 19 45  1  0
 20 46  1  0
 20 47  1  0
 20 48  1  0
M  END
$$$$
