
     RDKit          3D

 40 43  0  0  0  0  0  0  0  0999 V2000
   -4.3832    0.9361    2.9620 C   0  0  0  0  0  0  0  0  0  0  0  0
   -4.3796   -0.0558    1.8584 C   0  0  0  0  0  0  0  0  0  0  0  0
   -5.4871   -0.8924    1.7434 N   0  0  0  0  0  0  0  0  0  0  0  0
   -5.4016   -1.6897    0.6932 N   0  0  0  0  0  0  0  0  0  0  0  0
   -4.0087   -1.4440   -0.1958 S   0  0  0  0  0  0  0  0  0  0  0  0
   -3.4146   -0.2453    0.8794 C   0  0  0  0  0  0  0  0  0  0  0  0
   -2.1584    0.3856    0.6727 C   0  0  0  0  0  0  0  0  0  0  0  0
   -1.8499    1.1016   -0.3935 N   0  0  0  0  0  0  0  0  0  0  0  0
   -0.5665    1.5794   -0.2332 N   0  0  0  0  0  0  0  0  0  0  0  0
   -0.1183    1.1318    0.9186 C   0  0  0  0  0  0  0  0  0  0  0  0
    1.4370    1.4629    1.5972 S   0  0  0  0  0  0  0  0  0  0  0  0
    2.4253    1.5044    0.0693 C   0  0  0  0  0  0  0  0  0  0  0  0
    2.4196    0.1605   -0.6452 C   0  0  0  0  0  0  0  0  0  0  0  0
    2.1930   -0.9077   -0.0763 O   0  0  0  0  0  0  0  0  0  0  0  0
    2.7351    0.1313   -2.1060 C   0  0  0  0  0  0  0  0  0  0  0  0
    3.3316    1.2116   -2.7687 C   0  0  0  0  0  0  0  0  0  0  0  0
    3.6138    1.1277   -4.1382 C   0  0  0  0  0  0  0  0  0  0  0  0
    3.3060   -0.0341   -4.8549 C   0  0  0  0  0  0  0  0  0  0  0  0
    3.6011   -0.1160   -6.2556 C   0  0  0  0  0  0  0  0  0  0  0  0
    3.8464   -0.1783   -7.3880 N   0  0  0  0  0  0  0  0  0  0  0  0
    2.7157   -1.1157   -4.1955 C   0  0  0  0  0  0  0  0  0  0  0  0
    2.4337   -1.0331   -2.8281 C   0  0  0  0  0  0  0  0  0  0  0  0
   -1.0675    0.3430    1.5038 N   0  0  0  0  0  0  0  0  0  0  0  0
   -0.9467   -0.3823    2.7903 C   0  0  0  0  0  0  0  0  0  0  0  0
    0.0762   -1.4774    2.9967 C   0  0  0  0  0  0  0  0  0  0  0  0
   -1.3806   -1.8184    2.9810 C   0  0  0  0  0  0  0  0  0  0  0  0
   -4.6944    1.9162    2.5866 H   0  0  0  0  0  0  0  0  0  0  0  0
   -3.3960    1.0390    3.4180 H   0  0  0  0  0  0  0  0  0  0  0  0
   -5.0815    0.6361    3.7497 H   0  0  0  0  0  0  0  0  0  0  0  0
    2.0240    2.2917   -0.5749 H   0  0  0  0  0  0  0  0  0  0  0  0
    3.4581    1.7500    0.3334 H   0  0  0  0  0  0  0  0  0  0  0  0
    3.5995    2.1266   -2.2480 H   0  0  0  0  0  0  0  0  0  0  0  0
    4.0787    1.9749   -4.6405 H   0  0  0  0  0  0  0  0  0  0  0  0
    2.4711   -2.0290   -4.7360 H   0  0  0  0  0  0  0  0  0  0  0  0
    1.9734   -1.8851   -2.3285 H   0  0  0  0  0  0  0  0  0  0  0  0
   -1.0978    0.2849    3.6354 H   0  0  0  0  0  0  0  0  0  0  0  0
    0.6789   -1.7985    2.1526 H   0  0  0  0  0  0  0  0  0  0  0  0
    0.6019   -1.5092    3.9447 H   0  0  0  0  0  0  0  0  0  0  0  0
   -1.7369   -2.3966    2.1358 H   0  0  0  0  0  0  0  0  0  0  0  0
   -1.8506   -2.0868    3.9215 H   0  0  0  0  0  0  0  0  0  0  0  0
  1  2  1  0
  2  3  1  0
  3  4  2  0
  4  5  1  0
  5  6  1  0
  6  7  1  0
  7  8  2  0
  8  9  1  0
  9 10  2  0
 10 11  1  0
 11 12  1  0
 12 13  1  0
 13 14  2  0
 13 15  1  0
 15 16  2  0
 16 17  1  0
 17 18  2  0
 18 19  1  0
 19 20  3  0
 18 21  1  0
 21 22  2  0
 10 23  1  0
 23 24  1  0
 24 25  1  0
 25 26  1  0
  6  2  2  0
 23  7  1  0
 26 24  1  0
 22 15  1  0
  1 27  1  0
  1 28  1  0
  1 29  1  0
 12 30  1  0
 12 31  1  0
 16 32  1  0
 17 33  1  0
 21 34  1  0
 22 35  1  0
 24 36  1  0
 25 37  1  0
 25 38  1  0
 26 39  1  0
 26 40  1  0
M  END
$$$$
