
     RDKit          3D

 43 45  0  0  0  0  0  0  0  0999 V2000
   -0.0098   -3.8276    4.1408 C   0  0  0  0  0  0  0  0  0  0  0  0
    1.0965   -3.1096    3.5133 N   0  0  0  0  0  0  0  0  0  0  0  0
    1.0697   -3.2292    2.0424 C   0  0  0  0  0  0  0  0  0  0  0  0
    0.5515   -1.9900    1.2877 C   0  0  0  0  0  0  0  0  0  0  0  0
    1.2609   -0.7667    1.6755 N   0  0  0  0  0  0  0  0  0  0  0  0
    1.3135    0.3879    0.9085 C   0  0  0  0  0  0  0  0  0  0  0  0
    1.9190    1.4068    1.2152 O   0  0  0  0  0  0  0  0  0  0  0  0
    0.5920    0.3670   -0.4272 C   0  0  0  0  0  0  0  0  0  0  0  0
    1.5053    0.4867   -1.6305 C   0  0  0  0  0  0  0  0  0  0  0  0
    1.1717    1.6815   -2.4745 C   0  0  0  0  0  0  0  0  0  0  0  0
    0.7311    1.7000   -3.7846 C   0  0  0  0  0  0  0  0  0  0  0  0
    0.5085    3.0222   -4.2646 C   0  0  0  0  0  0  0  0  0  0  0  0
    0.8035    3.9711   -3.3126 C   0  0  0  0  0  0  0  0  0  0  0  0
    1.3520    3.2691   -1.8547 S   0  0  0  0  0  0  0  0  0  0  0  0
   -0.7014    0.2184   -0.3987 N   0  0  0  0  0  0  0  0  0  0  0  0
   -1.3554    0.1217   -1.5972 C   0  0  0  0  0  0  0  0  0  0  0  0
   -1.1291   -0.7649   -2.4146 O   0  0  0  0  0  0  0  0  0  0  0  0
   -2.3599    1.1516   -1.7714 C   0  0  0  0  0  0  0  0  0  0  0  0
   -3.2316    1.3890   -2.8203 C   0  0  0  0  0  0  0  0  0  0  0  0
   -3.9813    2.5405   -2.4805 C   0  0  0  0  0  0  0  0  0  0  0  0
   -3.5269    2.9400   -1.2469 C   0  0  0  0  0  0  0  0  0  0  0  0
   -2.5499    2.1081   -0.8064 O   0  0  0  0  0  0  0  0  0  0  0  0
    1.8734   -0.7651    3.0036 C   0  0  0  0  0  0  0  0  0  0  0  0
    1.1297   -1.7037    3.9689 C   0  0  0  0  0  0  0  0  0  0  0  0
    0.0371   -4.8946    3.8965 H   0  0  0  0  0  0  0  0  0  0  0  0
   -0.9849   -3.4427    3.8216 H   0  0  0  0  0  0  0  0  0  0  0  0
    0.0519   -3.7534    5.2323 H   0  0  0  0  0  0  0  0  0  0  0  0
    2.1064   -3.4030    1.7249 H   0  0  0  0  0  0  0  0  0  0  0  0
    0.5114   -4.1168    1.7198 H   0  0  0  0  0  0  0  0  0  0  0  0
   -0.5116   -1.8354    1.5066 H   0  0  0  0  0  0  0  0  0  0  0  0
    0.6574   -2.1476    0.2096 H   0  0  0  0  0  0  0  0  0  0  0  0
    1.4270   -0.4365   -2.2157 H   0  0  0  0  0  0  0  0  0  0  0  0
    2.5495    0.5525   -1.3025 H   0  0  0  0  0  0  0  0  0  0  0  0
    0.5619    0.8030   -4.3699 H   0  0  0  0  0  0  0  0  0  0  0  0
    0.1523    3.2654   -5.2579 H   0  0  0  0  0  0  0  0  0  0  0  0
    0.7294    5.0461   -3.4021 H   0  0  0  0  0  0  0  0  0  0  0  0
   -3.3027    0.7958   -3.7219 H   0  0  0  0  0  0  0  0  0  0  0  0
   -4.7543    3.0222   -3.0625 H   0  0  0  0  0  0  0  0  0  0  0  0
   -3.7807    3.7535   -0.5813 H   0  0  0  0  0  0  0  0  0  0  0  0
    2.9152   -1.0853    2.8825 H   0  0  0  0  0  0  0  0  0  0  0  0
    1.8857    0.2529    3.4083 H   0  0  0  0  0  0  0  0  0  0  0  0
    1.6086   -1.6629    4.9538 H   0  0  0  0  0  0  0  0  0  0  0  0
    0.1076   -1.3180    4.0868 H   0  0  0  0  0  0  0  0  0  0  0  0
  1  2  1  0
  2  3  1  0
  3  4  1  0
  4  5  1  0
  5  6  1  0
  6  7  2  0
  6  8  1  0
  8  9  1  0
  9 10  1  0
 10 11  2  0
 11 12  1  0
 12 13  2  0
 13 14  1  0
  8 15  2  3
 15 16  1  0
 16 17  2  0
 16 18  1  0
 18 19  2  0
 19 20  1  0
 20 21  2  0
 21 22  1  0
  5 23  1  0
 23 24  1  0
 24  2  1  0
 14 10  1  0
 22 18  1  0
  1 25  1  0
  1 26  1  0
  1 27  1  0
  3 28  1  0
  3 29  1  0
  4 30  1  0
  4 31  1  0
  9 32  1  0
  9 33  1  0
 11 34  1  0
 12 35  1  0
 13 36  1  0
 19 37  1  0
 20 38  1  0
 21 39  1  0
 23 40  1  0
 23 41  1  0
 24 42  1  0
 24 43  1  0
M  END
$$$$
