
     RDKit          3D

 46 49  0  0  0  0  0  0  0  0999 V2000
    5.3833   -2.6658    0.1940 C   0  0  0  0  0  0  0  0  0  0  0  0
    5.2993   -1.5521    1.2208 C   0  0  0  0  0  0  0  0  0  0  0  0
    3.9934   -0.9582    1.2010 O   0  0  0  0  0  0  0  0  0  0  0  0
    3.8081    0.0466    0.3015 C   0  0  0  0  0  0  0  0  0  0  0  0
    4.6736    0.4407   -0.4704 O   0  0  0  0  0  0  0  0  0  0  0  0
    2.5235    0.5597    0.3517 N   0  0  0  0  0  0  0  0  0  0  0  0
    2.1210    1.5905   -0.5990 C   0  0  0  0  0  0  0  0  0  0  0  0
    0.6848    1.3697   -1.0540 C   0  0  0  0  0  0  0  0  0  0  0  0
   -0.3107    1.4141    0.1335 C   0  0  0  0  0  0  0  0  0  0  0  0
    0.3822    1.0754    1.4808 C   0  0  0  0  0  0  0  0  0  0  0  0
    1.5290    0.0859    1.3094 C   0  0  0  0  0  0  0  0  0  0  0  0
   -0.8431    2.8081    0.2004 N   0  0  0  0  0  0  0  0  0  0  0  0
   -2.0807    2.9406    0.9938 C   0  0  0  0  0  0  0  0  0  0  0  0
   -3.2625    2.1425    0.4044 C   0  0  0  0  0  0  0  0  0  0  0  0
   -2.8151    0.7735    0.0340 C   0  0  0  0  0  0  0  0  0  0  0  0
   -1.4730    0.4728   -0.1061 C   0  0  0  0  0  0  0  0  0  0  0  0
   -1.3860   -0.8492   -0.4611 N   0  0  0  0  0  0  0  0  0  0  0  0
   -2.6447   -1.4038   -0.5489 C   0  0  0  0  0  0  0  0  0  0  0  0
   -3.0327   -2.7085   -0.8769 C   0  0  0  0  0  0  0  0  0  0  0  0
   -4.4017   -2.9926   -0.8932 C   0  0  0  0  0  0  0  0  0  0  0  0
   -5.3428   -2.0098   -0.5946 C   0  0  0  0  0  0  0  0  0  0  0  0
   -4.9386   -0.7098   -0.2693 C   0  0  0  0  0  0  0  0  0  0  0  0
   -3.5651   -0.3994   -0.2443 C   0  0  0  0  0  0  0  0  0  0  0  0
    4.5959   -3.4071    0.3657 H   0  0  0  0  0  0  0  0  0  0  0  0
    5.2398   -2.2782   -0.8195 H   0  0  0  0  0  0  0  0  0  0  0  0
    6.3550   -3.1654    0.2423 H   0  0  0  0  0  0  0  0  0  0  0  0
    6.0831   -0.8018    1.0663 H   0  0  0  0  0  0  0  0  0  0  0  0
    5.4460   -1.9661    2.2238 H   0  0  0  0  0  0  0  0  0  0  0  0
    2.7894    1.5882   -1.4666 H   0  0  0  0  0  0  0  0  0  0  0  0
    2.2335    2.5621   -0.1039 H   0  0  0  0  0  0  0  0  0  0  0  0
    0.6430    0.4026   -1.5718 H   0  0  0  0  0  0  0  0  0  0  0  0
    0.4207    2.1134   -1.8177 H   0  0  0  0  0  0  0  0  0  0  0  0
    0.8059    1.9861    1.9279 H   0  0  0  0  0  0  0  0  0  0  0  0
   -0.3349    0.6843    2.2139 H   0  0  0  0  0  0  0  0  0  0  0  0
    2.0123   -0.0839    2.2781 H   0  0  0  0  0  0  0  0  0  0  0  0
    1.1659   -0.8843    0.9536 H   0  0  0  0  0  0  0  0  0  0  0  0
   -0.1324    3.4306    0.5789 H   0  0  0  0  0  0  0  0  0  0  0  0
   -2.3606    3.9995    1.0334 H   0  0  0  0  0  0  0  0  0  0  0  0
   -1.8942    2.6294    2.0292 H   0  0  0  0  0  0  0  0  0  0  0  0
   -3.6382    2.6488   -0.4930 H   0  0  0  0  0  0  0  0  0  0  0  0
   -4.0791    2.1011    1.1333 H   0  0  0  0  0  0  0  0  0  0  0  0
   -0.5324   -1.3568   -0.6455 H   0  0  0  0  0  0  0  0  0  0  0  0
   -2.3033   -3.4758   -1.1135 H   0  0  0  0  0  0  0  0  0  0  0  0
   -4.7360   -3.9963   -1.1455 H   0  0  0  0  0  0  0  0  0  0  0  0
   -6.4024   -2.2519   -0.6156 H   0  0  0  0  0  0  0  0  0  0  0  0
   -5.6786    0.0508   -0.0404 H   0  0  0  0  0  0  0  0  0  0  0  0
  1  2  1  0
  2  3  1  0
  3  4  1  0
  4  5  2  0
  4  6  1  0
  6  7  1  0
  7  8  1  0
  8  9  1  0
  9 10  1  0
 10 11  1  0
  9 12  1  0
 12 13  1  0
 13 14  1  0
 14 15  1  0
 15 16  2  0
 16 17  1  0
 17 18  1  0
 18 19  2  0
 19 20  1  0
 20 21  2  0
 21 22  1  0
 22 23  2  0
 11  6  1  0
 23 15  1  0
 16  9  1  0
 23 18  1  0
  1 24  1  0
  1 25  1  0
  1 26  1  0
  2 27  1  0
  2 28  1  0
  7 29  1  0
  7 30  1  0
  8 31  1  0
  8 32  1  0
 10 33  1  0
 10 34  1  0
 11 35  1  0
 11 36  1  0
 12 37  1  0
 13 38  1  0
 13 39  1  0
 14 40  1  0
 14 41  1  0
 17 42  1  0
 19 43  1  0
 20 44  1  0
 21 45  1  0
 22 46  1  0
M  END
$$$$
