
     RDKit          3D

 52 55  0  0  0  0  0  0  0  0999 V2000
   -6.1081   -1.7672   -0.1316 C   0  0  0  0  0  0  0  0  0  0  0  0
   -5.2731   -1.0888    0.9444 C   0  0  0  0  0  0  0  0  0  0  0  0
   -4.9547    0.3616    0.5708 C   0  0  0  0  0  0  0  0  0  0  0  0
   -4.1730    1.0983    1.6609 C   0  0  0  0  0  0  0  0  0  0  0  0
   -2.7685    0.6240    1.7928 C   0  0  0  0  0  0  0  0  0  0  0  0
   -2.3988   -0.2908    2.6728 N   0  0  0  0  0  0  0  0  0  0  0  0
   -1.0452   -0.4496    2.6007 N   0  0  0  0  0  0  0  0  0  0  0  0
   -0.6033    0.3633    1.6698 C   0  0  0  0  0  0  0  0  0  0  0  0
    0.7524    0.5821    1.2431 C   0  0  0  0  0  0  0  0  0  0  0  0
    1.7958   -0.1478    1.8745 N   0  0  0  0  0  0  0  0  0  0  0  0
    1.5958   -1.4693    2.5139 C   0  0  0  0  0  0  0  0  0  0  0  0
    3.4124    0.3744    1.8231 S   0  0  0  0  0  6  0  0  0  0  0  0
    4.0751   -0.1258    3.0133 O   0  0  0  0  0  0  0  0  0  0  0  0
    3.5005    1.7803    1.4917 O   0  0  0  0  0  0  0  0  0  0  0  0
    4.0517   -0.5424    0.4365 C   0  0  0  0  0  0  0  0  0  0  0  0
    3.7978   -0.0909   -0.8606 C   0  0  0  0  0  0  0  0  0  0  0  0
    4.2897   -0.8102   -1.9495 C   0  0  0  0  0  0  0  0  0  0  0  0
    5.0414   -1.9759   -1.7501 C   0  0  0  0  0  0  0  0  0  0  0  0
    5.5878   -2.7289   -2.9270 C   0  0  0  0  0  0  0  0  0  0  0  0
    5.3257   -2.3933   -0.4429 C   0  0  0  0  0  0  0  0  0  0  0  0
    4.8327   -1.6797    0.6523 C   0  0  0  0  0  0  0  0  0  0  0  0
    1.0004    1.4208    0.2887 N   0  0  0  0  0  0  0  0  0  0  0  0
   -0.0601    2.1217   -0.3191 C   0  0  0  0  0  0  0  0  0  0  0  0
    0.2639    3.0113   -1.3461 C   0  0  0  0  0  0  0  0  0  0  0  0
   -0.7309    3.7259   -2.0090 C   0  0  0  0  0  0  0  0  0  0  0  0
   -2.0640    3.5515   -1.6492 C   0  0  0  0  0  0  0  0  0  0  0  0
   -2.4106    2.6703   -0.6215 C   0  0  0  0  0  0  0  0  0  0  0  0
   -1.4119    1.9630    0.0492 C   0  0  0  0  0  0  0  0  0  0  0  0
   -1.6496    1.0520    1.1013 N   0  0  0  0  0  0  0  0  0  0  0  0
   -6.3402   -2.7988    0.1597 H   0  0  0  0  0  0  0  0  0  0  0  0
   -7.0537   -1.2394   -0.2850 H   0  0  0  0  0  0  0  0  0  0  0  0
   -5.5685   -1.7962   -1.0854 H   0  0  0  0  0  0  0  0  0  0  0  0
   -4.3478   -1.6584    1.0832 H   0  0  0  0  0  0  0  0  0  0  0  0
   -5.8194   -1.1181    1.8950 H   0  0  0  0  0  0  0  0  0  0  0  0
   -5.8992    0.8964    0.4060 H   0  0  0  0  0  0  0  0  0  0  0  0
   -4.4097    0.3794   -0.3805 H   0  0  0  0  0  0  0  0  0  0  0  0
   -4.6798    0.9517    2.6225 H   0  0  0  0  0  0  0  0  0  0  0  0
   -4.2006    2.1788    1.4964 H   0  0  0  0  0  0  0  0  0  0  0  0
    2.5116   -2.0679    2.5374 H   0  0  0  0  0  0  0  0  0  0  0  0
    0.8715   -2.0615    1.9450 H   0  0  0  0  0  0  0  0  0  0  0  0
    1.2486   -1.3384    3.5432 H   0  0  0  0  0  0  0  0  0  0  0  0
    3.2242    0.8165   -1.0303 H   0  0  0  0  0  0  0  0  0  0  0  0
    4.0839   -0.4553   -2.9581 H   0  0  0  0  0  0  0  0  0  0  0  0
    5.7854   -3.7743   -2.6684 H   0  0  0  0  0  0  0  0  0  0  0  0
    4.8706   -2.7270   -3.7535 H   0  0  0  0  0  0  0  0  0  0  0  0
    6.5189   -2.2682   -3.2632 H   0  0  0  0  0  0  0  0  0  0  0  0
    5.9350   -3.2778   -0.2685 H   0  0  0  0  0  0  0  0  0  0  0  0
    5.0642   -2.0164    1.6622 H   0  0  0  0  0  0  0  0  0  0  0  0
    1.3030    3.1471   -1.6281 H   0  0  0  0  0  0  0  0  0  0  0  0
   -0.4644    4.4160   -2.8064 H   0  0  0  0  0  0  0  0  0  0  0  0
   -2.8408    4.1033   -2.1759 H   0  0  0  0  0  0  0  0  0  0  0  0
   -3.4647    2.5685   -0.4025 H   0  0  0  0  0  0  0  0  0  0  0  0
  1  2  1  0
  2  3  1  0
  3  4  1  0
  4  5  1  0
  5  6  2  0
  6  7  1  0
  7  8  2  0
  8  9  1  0
  9 10  1  0
 10 11  1  0
 10 12  1  0
 12 13  2  0
 12 14  2  0
 12 15  1  0
 15 16  2  0
 16 17  1  0
 17 18  2  0
 18 19  1  0
 18 20  1  0
 20 21  2  0
  9 22  2  0
 22 23  1  0
 23 24  2  0
 24 25  1  0
 25 26  2  0
 26 27  1  0
 27 28  2  0
 28 29  1  0
 29  5  1  0
 29  8  1  0
 21 15  1  0
 28 23  1  0
  1 30  1  0
  1 31  1  0
  1 32  1  0
  2 33  1  0
  2 34  1  0
  3 35  1  0
  3 36  1  0
  4 37  1  0
  4 38  1  0
 11 39  1  0
 11 40  1  0
 11 41  1  0
 16 42  1  0
 17 43  1  0
 19 44  1  0
 19 45  1  0
 19 46  1  0
 20 47  1  0
 21 48  1  0
 24 49  1  0
 25 50  1  0
 26 51  1  0
 27 52  1  0
M  END
$$$$
