
     RDKit          3D

 42 44  0  0  0  0  0  0  0  0999 V2000
    4.4058    1.0030   -0.2031 C   0  0  0  0  0  0  0  0  0  0  0  0
    4.1306   -0.1518    0.7546 C   0  0  0  0  0  0  0  0  0  0  0  0
    3.5075    0.3105    2.0685 C   0  0  0  0  0  0  0  0  0  0  0  0
    3.2103   -1.5345   -0.0394 S   0  0  0  0  0  0  0  0  0  0  0  0
    1.5303   -0.9350   -0.1224 C   0  0  0  0  0  0  0  0  0  0  0  0
    0.5025   -1.8433    0.0273 C   0  0  0  0  0  0  0  0  0  0  0  0
   -0.7902   -1.3709   -0.0613 C   0  0  0  0  0  0  0  0  0  0  0  0
   -1.8774   -2.1888    0.0947 N   0  0  0  0  0  0  0  0  0  0  0  0
   -1.8475   -3.6256    0.3074 C   0  0  0  0  0  0  0  0  0  0  0  0
   -3.3096   -3.9745    0.5743 C   0  0  0  0  0  0  0  0  0  0  0  0
   -4.0633   -2.9649   -0.2769 C   0  0  0  0  0  0  0  0  0  0  0  0
   -3.2283   -1.6920   -0.1377 C   0  0  0  0  0  0  0  0  0  0  0  0
   -1.0149   -0.0668   -0.2943 N   0  0  0  0  0  0  0  0  0  0  0  0
    0.0448    0.7436   -0.4659 C   0  0  0  0  0  0  0  0  0  0  0  0
   -0.2333    2.1673   -0.6809 C   0  0  0  0  0  0  0  0  0  0  0  0
   -1.1492    2.8235    0.1714 C   0  0  0  0  0  0  0  0  0  0  0  0
   -1.4381    4.1837    0.0316 C   0  0  0  0  0  0  0  0  0  0  0  0
   -0.8210    4.9221   -0.9720 C   0  0  0  0  0  0  0  0  0  0  0  0
    0.0749    4.2970   -1.8378 C   0  0  0  0  0  0  0  0  0  0  0  0
    0.3654    2.9316   -1.6989 C   0  0  0  0  0  0  0  0  0  0  0  0
    1.4380    2.2480   -2.8762 Cl  0  0  0  0  0  0  0  0  0  0  0  0
    1.3236    0.3613   -0.3705 N   0  0  0  0  0  0  0  0  0  0  0  0
    4.8464    0.6478   -1.1416 H   0  0  0  0  0  0  0  0  0  0  0  0
    5.1219    1.7005    0.2483 H   0  0  0  0  0  0  0  0  0  0  0  0
    3.5087    1.5805   -0.4368 H   0  0  0  0  0  0  0  0  0  0  0  0
    5.1044   -0.5914    1.0036 H   0  0  0  0  0  0  0  0  0  0  0  0
    3.3323   -0.5329    2.7458 H   0  0  0  0  0  0  0  0  0  0  0  0
    4.1854    1.0032    2.5818 H   0  0  0  0  0  0  0  0  0  0  0  0
    2.5615    0.8400    1.9231 H   0  0  0  0  0  0  0  0  0  0  0  0
    0.7156   -2.8872    0.2091 H   0  0  0  0  0  0  0  0  0  0  0  0
   -1.4881   -4.1356   -0.5930 H   0  0  0  0  0  0  0  0  0  0  0  0
   -1.2234   -3.9133    1.1596 H   0  0  0  0  0  0  0  0  0  0  0  0
   -3.5470   -5.0106    0.3174 H   0  0  0  0  0  0  0  0  0  0  0  0
   -3.5466   -3.8195    1.6340 H   0  0  0  0  0  0  0  0  0  0  0  0
   -4.0732   -3.2943   -1.3234 H   0  0  0  0  0  0  0  0  0  0  0  0
   -5.0985   -2.8235    0.0463 H   0  0  0  0  0  0  0  0  0  0  0  0
   -3.3138   -1.0846   -1.0461 H   0  0  0  0  0  0  0  0  0  0  0  0
   -3.5634   -1.1019    0.7228 H   0  0  0  0  0  0  0  0  0  0  0  0
   -1.6399    2.2613    0.9661 H   0  0  0  0  0  0  0  0  0  0  0  0
   -2.1415    4.6612    0.7087 H   0  0  0  0  0  0  0  0  0  0  0  0
   -1.0422    5.9804   -1.0866 H   0  0  0  0  0  0  0  0  0  0  0  0
    0.5404    4.8766   -2.6314 H   0  0  0  0  0  0  0  0  0  0  0  0
  1  2  1  0
  2  3  1  0
  2  4  1  0
  4  5  1  0
  5  6  2  0
  6  7  1  0
  7  8  1  0
  8  9  1  0
  9 10  1  0
 10 11  1  0
 11 12  1  0
  7 13  2  0
 13 14  1  0
 14 15  1  0
 15 16  2  0
 16 17  1  0
 17 18  2  0
 18 19  1  0
 19 20  2  0
 20 21  1  0
 14 22  2  0
 22  5  1  0
 12  8  1  0
 20 15  1  0
  1 23  1  0
  1 24  1  0
  1 25  1  0
  2 26  1  0
  3 27  1  0
  3 28  1  0
  3 29  1  0
  6 30  1  0
  9 31  1  0
  9 32  1  0
 10 33  1  0
 10 34  1  0
 11 35  1  0
 11 36  1  0
 12 37  1  0
 12 38  1  0
 16 39  1  0
 17 40  1  0
 18 41  1  0
 19 42  1  0
M  END
$$$$
