
     RDKit          3D

 52 54  0  0  0  0  0  0  0  0999 V2000
    2.5728    1.5564    1.4473 C   0  0  0  0  0  0  0  0  0  0  0  0
    2.0091    0.1430    1.3032 C   0  0  0  0  0  0  0  0  0  0  0  0
    1.0821   -0.1401    0.1962 N   0  0  0  0  0  0  0  0  0  0  0  0
    1.2752    0.6519   -1.0218 C   0  0  0  0  0  0  0  0  0  0  0  0
    2.5748    0.3635   -1.7480 C   0  0  0  0  0  0  0  0  0  0  0  0
    3.0202   -0.9525   -1.9475 C   0  0  0  0  0  0  0  0  0  0  0  0
    4.1981   -1.2067   -2.6522 C   0  0  0  0  0  0  0  0  0  0  0  0
    4.9385   -0.1499   -3.1772 C   0  0  0  0  0  0  0  0  0  0  0  0
    4.5007    1.1609   -3.0007 C   0  0  0  0  0  0  0  0  0  0  0  0
    3.3230    1.4165   -2.2956 C   0  0  0  0  0  0  0  0  0  0  0  0
   -0.3427   -0.3157    0.5652 C   0  0  0  0  0  0  0  0  0  0  0  0
   -0.5408   -1.5298    1.4833 C   0  0  0  0  0  0  0  0  0  0  0  0
   -0.9592   -1.4297    2.8168 C   0  0  0  0  0  0  0  0  0  0  0  0
   -1.1174   -2.5900    3.5604 C   0  0  0  0  0  0  0  0  0  0  0  0
   -0.8903   -3.8299    3.0792 N   0  0  0  0  0  0  0  0  0  0  0  0
   -0.4655   -3.9137    1.8027 C   0  0  0  0  0  0  0  0  0  0  0  0
   -0.2792   -2.8142    0.9799 C   0  0  0  0  0  0  0  0  0  0  0  0
   -1.0456    0.9330    1.0285 C   0  0  0  0  0  0  0  0  0  0  0  0
   -0.5911    1.7817    1.9353 N   0  0  0  0  0  0  0  0  0  0  0  0
   -1.5232    2.7636    2.0694 N   0  0  0  0  0  0  0  0  0  0  0  0
   -2.5563    2.5374    1.2816 N   0  0  0  0  0  0  0  0  0  0  0  0
   -2.2949    1.3796    0.6354 N   0  0  0  0  0  0  0  0  0  0  0  0
   -3.2927    0.8469   -0.3056 C   0  0  0  0  0  0  0  0  0  0  0  0
   -4.6168    1.6591   -0.2435 C   0  0  0  0  0  0  0  0  0  0  0  0
   -2.7750    0.9531   -1.7517 C   0  0  0  0  0  0  0  0  0  0  0  0
   -3.6684   -0.6095    0.0291 C   0  0  0  0  0  0  0  0  0  0  0  0
    3.2612    1.8047    0.6355 H   0  0  0  0  0  0  0  0  0  0  0  0
    1.7917    2.3185    1.4796 H   0  0  0  0  0  0  0  0  0  0  0  0
    3.1428    1.6294    2.3801 H   0  0  0  0  0  0  0  0  0  0  0  0
    1.5740   -0.1405    2.2677 H   0  0  0  0  0  0  0  0  0  0  0  0
    2.8654   -0.5330    1.1824 H   0  0  0  0  0  0  0  0  0  0  0  0
    0.4913    0.4155   -1.7532 H   0  0  0  0  0  0  0  0  0  0  0  0
    1.1720    1.7238   -0.8134 H   0  0  0  0  0  0  0  0  0  0  0  0
    2.4527   -1.7872   -1.5428 H   0  0  0  0  0  0  0  0  0  0  0  0
    4.5379   -2.2298   -2.7897 H   0  0  0  0  0  0  0  0  0  0  0  0
    5.8565   -0.3478   -3.7241 H   0  0  0  0  0  0  0  0  0  0  0  0
    5.0768    1.9857   -3.4119 H   0  0  0  0  0  0  0  0  0  0  0  0
    2.9964    2.4465   -2.1699 H   0  0  0  0  0  0  0  0  0  0  0  0
   -0.8362   -0.6288   -0.3594 H   0  0  0  0  0  0  0  0  0  0  0  0
   -1.1508   -0.4727    3.2929 H   0  0  0  0  0  0  0  0  0  0  0  0
   -1.4383   -2.5476    4.5976 H   0  0  0  0  0  0  0  0  0  0  0  0
   -0.2694   -4.9204    1.4450 H   0  0  0  0  0  0  0  0  0  0  0  0
    0.0762   -2.9558   -0.0361 H   0  0  0  0  0  0  0  0  0  0  0  0
   -4.4605    2.7098   -0.5157 H   0  0  0  0  0  0  0  0  0  0  0  0
   -5.3634    1.2551   -0.9376 H   0  0  0  0  0  0  0  0  0  0  0  0
   -5.0553    1.6325    0.7613 H   0  0  0  0  0  0  0  0  0  0  0  0
   -3.5445    0.6465   -2.4698 H   0  0  0  0  0  0  0  0  0  0  0  0
   -1.9037    0.3196   -1.9319 H   0  0  0  0  0  0  0  0  0  0  0  0
   -2.4846    1.9826   -1.9919 H   0  0  0  0  0  0  0  0  0  0  0  0
   -2.8660   -1.3139   -0.1979 H   0  0  0  0  0  0  0  0  0  0  0  0
   -4.5353   -0.9383   -0.5565 H   0  0  0  0  0  0  0  0  0  0  0  0
   -3.9221   -0.7193    1.0897 H   0  0  0  0  0  0  0  0  0  0  0  0
  1  2  1  0
  2  3  1  0
  3  4  1  0
  4  5  1  0
  5  6  2  0
  6  7  1  0
  7  8  2  0
  8  9  1  0
  9 10  2  0
  3 11  1  0
 11 12  1  0
 12 13  2  0
 13 14  1  0
 14 15  2  0
 15 16  1  0
 16 17  2  0
 11 18  1  0
 18 19  2  0
 19 20  1  0
 20 21  2  0
 21 22  1  0
 22 23  1  0
 23 24  1  0
 23 25  1  0
 23 26  1  0
 10  5  1  0
 17 12  1  0
 22 18  1  0
  1 27  1  0
  1 28  1  0
  1 29  1  0
  2 30  1  0
  2 31  1  0
  4 32  1  0
  4 33  1  0
  6 34  1  0
  7 35  1  0
  8 36  1  0
  9 37  1  0
 10 38  1  0
 11 39  1  0
 13 40  1  0
 14 41  1  0
 16 42  1  0
 17 43  1  0
 24 44  1  0
 24 45  1  0
 24 46  1  0
 25 47  1  0
 25 48  1  0
 25 49  1  0
 26 50  1  0
 26 51  1  0
 26 52  1  0
M  END
$$$$
