
     RDKit          3D

 35 36  0  0  0  0  0  0  0  0999 V2000
    1.7200   -2.5727   -0.5319 C   0  0  0  0  0  0  0  0  0  0  0  0
    1.3666   -1.1945   -0.5135 O   0  0  0  0  0  0  0  0  0  0  0  0
    2.0614   -0.3837    0.3563 C   0  0  0  0  0  0  0  0  0  0  0  0
    3.1435   -0.7908    1.1411 C   0  0  0  0  0  0  0  0  0  0  0  0
    3.7709    0.1208    1.9928 C   0  0  0  0  0  0  0  0  0  0  0  0
    3.3223    1.4378    2.0624 C   0  0  0  0  0  0  0  0  0  0  0  0
    2.2432    1.8548    1.2807 C   0  0  0  0  0  0  0  0  0  0  0  0
    1.6083    0.9523    0.4267 C   0  0  0  0  0  0  0  0  0  0  0  0
    0.5140    1.2915   -0.3956 N   0  0  0  0  0  0  0  0  0  0  0  0
   -0.2116    2.4654   -0.4273 C   0  0  0  0  0  0  0  0  0  0  0  0
   -0.0315    3.4544    0.2790 O   0  0  0  0  0  0  0  0  0  0  0  0
   -1.3702    2.4182   -1.4369 C   0  0  0  0  0  0  0  0  0  0  0  0
   -2.5877    1.8520   -0.8245 N   0  0  0  0  0  0  0  0  0  0  0  0
   -2.6222    0.4652   -0.6222 C   0  0  0  0  0  0  0  0  0  0  0  0
   -3.0133   -0.0409    0.6264 C   0  0  0  0  0  0  0  0  0  0  0  0
   -3.0521   -1.4172    0.8647 C   0  0  0  0  0  0  0  0  0  0  0  0
   -2.7193   -2.3000   -0.1547 C   0  0  0  0  0  0  0  0  0  0  0  0
   -2.7524   -3.6174    0.0941 F   0  0  0  0  0  0  0  0  0  0  0  0
   -2.3653   -1.8202   -1.4112 C   0  0  0  0  0  0  0  0  0  0  0  0
   -1.9677   -2.9078   -2.6860 Cl  0  0  0  0  0  0  0  0  0  0  0  0
   -2.3277   -0.4435   -1.6477 C   0  0  0  0  0  0  0  0  0  0  0  0
    1.0516   -3.0795   -1.2341 H   0  0  0  0  0  0  0  0  0  0  0  0
    1.5778   -3.0308    0.4524 H   0  0  0  0  0  0  0  0  0  0  0  0
    2.7450   -2.7108   -0.8909 H   0  0  0  0  0  0  0  0  0  0  0  0
    3.5247   -1.8058    1.1137 H   0  0  0  0  0  0  0  0  0  0  0  0
    4.6128   -0.1968    2.6032 H   0  0  0  0  0  0  0  0  0  0  0  0
    3.8129    2.1465    2.7253 H   0  0  0  0  0  0  0  0  0  0  0  0
    1.9245    2.8895    1.3556 H   0  0  0  0  0  0  0  0  0  0  0  0
    0.1743    0.5104   -0.9491 H   0  0  0  0  0  0  0  0  0  0  0  0
   -1.5837    3.4501   -1.7391 H   0  0  0  0  0  0  0  0  0  0  0  0
   -1.0654    1.8908   -2.3469 H   0  0  0  0  0  0  0  0  0  0  0  0
   -2.8033    2.3647    0.0322 H   0  0  0  0  0  0  0  0  0  0  0  0
   -3.2759    0.6362    1.4365 H   0  0  0  0  0  0  0  0  0  0  0  0
   -3.3385   -1.8021    1.8384 H   0  0  0  0  0  0  0  0  0  0  0  0
   -2.0861   -0.0860   -2.6446 H   0  0  0  0  0  0  0  0  0  0  0  0
  1  2  1  0
  2  3  1  0
  3  4  2  0
  4  5  1  0
  5  6  2  0
  6  7  1  0
  7  8  2  0
  8  9  1  0
  9 10  1  0
 10 11  2  0
 10 12  1  0
 12 13  1  0
 13 14  1  0
 14 15  2  0
 15 16  1  0
 16 17  2  0
 17 18  1  0
 17 19  1  0
 19 20  1  0
 19 21  2  0
  8  3  1  0
 21 14  1  0
  1 22  1  0
  1 23  1  0
  1 24  1  0
  4 25  1  0
  5 26  1  0
  6 27  1  0
  7 28  1  0
  9 29  1  0
 12 30  1  0
 12 31  1  0
 13 32  1  0
 15 33  1  0
 16 34  1  0
 21 35  1  0
M  END
$$$$
