
     RDKit          3D

 32 34  0  0  0  0  0  0  0  0999 V2000
    6.6183   -0.8643   -0.8041 C   0  0  0  0  0  0  0  0  0  0  0  0
    5.5598   -1.1009    0.1158 O   0  0  0  0  0  0  0  0  0  0  0  0
    4.3147   -0.6538   -0.2372 C   0  0  0  0  0  0  0  0  0  0  0  0
    3.9928    0.0078   -1.4199 C   0  0  0  0  0  0  0  0  0  0  0  0
    2.6761    0.4194   -1.6719 C   0  0  0  0  0  0  0  0  0  0  0  0
    1.6655    0.1650   -0.7245 C   0  0  0  0  0  0  0  0  0  0  0  0
    0.3298    0.5124   -0.8425 N   0  0  0  0  0  0  0  0  0  0  0  0
   -0.3207    0.1283    0.2293 C   0  0  0  0  0  0  0  0  0  0  0  0
   -1.6681    0.3529    0.3384 N   0  0  0  0  0  0  0  0  0  0  0  0
   -2.4723    0.0909    1.4199 C   0  0  0  0  0  0  0  0  0  0  0  0
   -2.1055   -0.3190    2.5140 O   0  0  0  0  0  0  0  0  0  0  0  0
   -3.8834    0.4061    1.1998 C   0  0  0  0  0  0  0  0  0  0  0  0
   -4.8268    0.7587    2.2144 C   0  0  0  0  0  0  0  0  0  0  0  0
   -6.0283    0.9702    1.5870 C   0  0  0  0  0  0  0  0  0  0  0  0
   -5.9066    0.7501    0.2563 O   0  0  0  0  0  0  0  0  0  0  0  0
   -4.6138    0.3847    0.0188 C   0  0  0  0  0  0  0  0  0  0  0  0
   -4.3172    0.0321   -1.3881 C   0  0  0  0  0  0  0  0  0  0  0  0
    0.5920   -0.6760    1.4157 S   0  0  0  0  0  0  0  0  0  0  0  0
    2.0066   -0.4990    0.4537 C   0  0  0  0  0  0  0  0  0  0  0  0
    3.3216   -0.9154    0.7151 C   0  0  0  0  0  0  0  0  0  0  0  0
    6.4370   -1.3773   -1.7544 H   0  0  0  0  0  0  0  0  0  0  0  0
    7.5349   -1.2776   -0.3723 H   0  0  0  0  0  0  0  0  0  0  0  0
    6.7762    0.2085   -0.9566 H   0  0  0  0  0  0  0  0  0  0  0  0
    4.7407    0.2241   -2.1762 H   0  0  0  0  0  0  0  0  0  0  0  0
    2.4270    0.9351   -2.5942 H   0  0  0  0  0  0  0  0  0  0  0  0
   -2.0464    0.8419   -0.4571 H   0  0  0  0  0  0  0  0  0  0  0  0
   -4.6322    0.8507    3.2748 H   0  0  0  0  0  0  0  0  0  0  0  0
   -7.0134    1.2572    1.9282 H   0  0  0  0  0  0  0  0  0  0  0  0
   -3.6285   -0.8163   -1.4420 H   0  0  0  0  0  0  0  0  0  0  0  0
   -5.2297   -0.2484   -1.9241 H   0  0  0  0  0  0  0  0  0  0  0  0
   -3.8672    0.8833   -1.9077 H   0  0  0  0  0  0  0  0  0  0  0  0
    3.5672   -1.4313    1.6389 H   0  0  0  0  0  0  0  0  0  0  0  0
  1  2  1  0
  2  3  1  0
  3  4  2  0
  4  5  1  0
  5  6  2  0
  6  7  1  0
  7  8  2  0
  8  9  1  0
  9 10  1  0
 10 11  2  0
 10 12  1  0
 12 13  1  0
 13 14  2  0
 14 15  1  0
 15 16  1  0
 16 17  1  0
  8 18  1  0
 18 19  1  0
 19 20  2  0
 20  3  1  0
 19  6  1  0
 16 12  2  0
  1 21  1  0
  1 22  1  0
  1 23  1  0
  4 24  1  0
  5 25  1  0
  9 26  1  0
 13 27  1  0
 14 28  1  0
 17 29  1  0
 17 30  1  0
 17 31  1  0
 20 32  1  0
M  END
$$$$
