
     RDKit          3D

 42 44  0  0  0  0  0  0  0  0999 V2000
   -3.6855   -2.1152   -1.0207 O   0  0  0  0  0  0  0  0  0  0  0  0
   -3.0438   -1.3027   -0.3449 C   0  0  0  0  0  0  0  0  0  0  0  0
   -3.8046   -0.4015    0.6543 C   0  0  0  0  0  0  0  0  0  0  0  0
   -4.2427    0.9005    0.0031 C   0  0  0  0  0  0  0  0  0  0  0  0
   -4.5616    1.7528    1.2047 C   0  0  0  0  0  0  0  0  0  0  0  0
   -3.5111    1.3141    2.2012 C   0  0  0  0  0  0  0  0  0  0  0  0
   -3.1521   -0.0372    1.8744 O   0  0  0  0  0  0  0  0  0  0  0  0
   -1.6774   -1.1472   -0.5184 N   0  0  0  0  0  0  0  0  0  0  0  0
   -0.8306   -0.2278    0.2442 C   0  0  0  0  0  0  0  0  0  0  0  0
    0.5438   -0.0097   -0.4050 C   0  0  0  0  0  0  0  0  0  0  0  0
    1.2911   -1.2963   -0.5876 N   0  0  0  0  0  0  0  0  0  0  0  0
    2.6279   -1.2099   -1.6491 S   0  0  0  0  0  6  0  0  0  0  0  0
    3.3326   -2.4723   -1.5908 O   0  0  0  0  0  0  0  0  0  0  0  0
    2.1387   -0.6818   -2.9056 O   0  0  0  0  0  0  0  0  0  0  0  0
    3.6613    0.0106   -0.8814 C   0  0  0  0  0  0  0  0  0  0  0  0
    3.8717    1.2446   -1.5025 C   0  0  0  0  0  0  0  0  0  0  0  0
    4.6866    2.1914   -0.8820 C   0  0  0  0  0  0  0  0  0  0  0  0
    5.2873    1.9010    0.3450 C   0  0  0  0  0  0  0  0  0  0  0  0
    5.0802    0.6626    0.9559 C   0  0  0  0  0  0  0  0  0  0  0  0
    4.2673   -0.2897    0.3425 C   0  0  0  0  0  0  0  0  0  0  0  0
    0.3951   -2.4750   -0.8530 C   0  0  0  0  0  0  0  0  0  0  0  0
   -0.9680   -2.0622   -1.4191 C   0  0  0  0  0  0  0  0  0  0  0  0
   -4.6922   -0.9723    0.9596 H   0  0  0  0  0  0  0  0  0  0  0  0
   -3.4285    1.3518   -0.5755 H   0  0  0  0  0  0  0  0  0  0  0  0
   -5.0958    0.7699   -0.6694 H   0  0  0  0  0  0  0  0  0  0  0  0
   -4.5368    2.8268    1.0024 H   0  0  0  0  0  0  0  0  0  0  0  0
   -5.5600    1.5017    1.5824 H   0  0  0  0  0  0  0  0  0  0  0  0
   -2.6083    1.9284    2.1221 H   0  0  0  0  0  0  0  0  0  0  0  0
   -3.8700    1.3587    3.2334 H   0  0  0  0  0  0  0  0  0  0  0  0
   -0.7056   -0.6561    1.2454 H   0  0  0  0  0  0  0  0  0  0  0  0
   -1.3322    0.7377    0.3368 H   0  0  0  0  0  0  0  0  0  0  0  0
    0.4027    0.4840   -1.3734 H   0  0  0  0  0  0  0  0  0  0  0  0
    1.1314    0.6529    0.2386 H   0  0  0  0  0  0  0  0  0  0  0  0
    3.4141    1.4727   -2.4625 H   0  0  0  0  0  0  0  0  0  0  0  0
    4.8608    3.1541   -1.3568 H   0  0  0  0  0  0  0  0  0  0  0  0
    5.9264    2.6400    0.8232 H   0  0  0  0  0  0  0  0  0  0  0  0
    5.5580    0.4387    1.9068 H   0  0  0  0  0  0  0  0  0  0  0  0
    4.1104   -1.2579    0.8134 H   0  0  0  0  0  0  0  0  0  0  0  0
    0.2622   -2.9974    0.1025 H   0  0  0  0  0  0  0  0  0  0  0  0
    0.8664   -3.1884   -1.5368 H   0  0  0  0  0  0  0  0  0  0  0  0
   -0.8419   -1.5366   -2.3731 H   0  0  0  0  0  0  0  0  0  0  0  0
   -1.5674   -2.9577   -1.6119 H   0  0  0  0  0  0  0  0  0  0  0  0
  1  2  2  0
  2  3  1  0
  3  4  1  0
  4  5  1  0
  5  6  1  0
  6  7  1  0
  2  8  1  0
  8  9  1  0
  9 10  1  0
 10 11  1  0
 11 12  1  0
 12 13  2  0
 12 14  2  0
 12 15  1  0
 15 16  2  0
 16 17  1  0
 17 18  2  0
 18 19  1  0
 19 20  2  0
 11 21  1  0
 21 22  1  0
  7  3  1  0
 22  8  1  0
 20 15  1  0
  3 23  1  0
  4 24  1  0
  4 25  1  0
  5 26  1  0
  5 27  1  0
  6 28  1  0
  6 29  1  0
  9 30  1  0
  9 31  1  0
 10 32  1  0
 10 33  1  0
 16 34  1  0
 17 35  1  0
 18 36  1  0
 19 37  1  0
 20 38  1  0
 21 39  1  0
 21 40  1  0
 22 41  1  0
 22 42  1  0
M  END
$$$$
