
     RDKit          3D

 43 46  0  0  0  0  0  0  0  0999 V2000
   -2.5222    0.6448   -5.1876 N   0  0  0  0  0  0  0  0  0  0  0  0
   -2.8457    0.6906   -4.0743 C   0  0  0  0  0  0  0  0  0  0  0  0
   -3.3137    0.7736   -2.6848 C   0  0  0  0  0  0  0  0  0  0  0  0
   -2.6995   -0.3012   -1.8013 C   0  0  0  0  0  0  0  0  0  0  0  0
   -1.3102   -0.0297   -1.4843 N   0  0  0  0  0  0  0  0  0  0  0  0
   -0.8385    0.6723   -0.4179 C   0  0  0  0  0  0  0  0  0  0  0  0
    0.5317    0.6881   -0.5542 C   0  0  0  0  0  0  0  0  0  0  0  0
    1.4547    1.3687    0.3002 C   0  0  0  0  0  0  0  0  0  0  0  0
    1.4589    1.4440    1.6477 C   0  0  0  0  0  0  0  0  0  0  0  0
    2.4756    2.1948    2.3076 C   0  0  0  0  0  0  0  0  0  0  0  0
    3.3266    2.7956    2.8195 N   0  0  0  0  0  0  0  0  0  0  0  0
    0.4881    0.7771    2.4484 C   0  0  0  0  0  0  0  0  0  0  0  0
   -0.6094    1.3121    2.9471 N   0  0  0  0  0  0  0  0  0  0  0  0
   -1.3202    0.3763    3.6799 C   0  0  0  0  0  0  0  0  0  0  0  0
   -2.5403    0.6050    4.3476 C   0  0  0  0  0  0  0  0  0  0  0  0
   -3.1550   -0.4372    5.0493 C   0  0  0  0  0  0  0  0  0  0  0  0
   -2.5696   -1.6985    5.0922 C   0  0  0  0  0  0  0  0  0  0  0  0
   -1.3589   -1.9496    4.4391 C   0  0  0  0  0  0  0  0  0  0  0  0
   -0.7505   -0.8951    3.7383 C   0  0  0  0  0  0  0  0  0  0  0  0
    0.7227   -0.8901    2.8523 S   0  0  0  0  0  0  0  0  0  0  0  0
    0.7980   -0.0361   -1.7582 C   0  0  0  0  0  0  0  0  0  0  0  0
    2.0783   -0.3278   -2.4041 C   0  0  0  0  0  0  0  0  0  0  0  0
    3.1938   -0.7327   -1.6548 C   0  0  0  0  0  0  0  0  0  0  0  0
    4.4091   -1.0028   -2.2897 C   0  0  0  0  0  0  0  0  0  0  0  0
    4.5066   -0.8762   -3.6707 C   0  0  0  0  0  0  0  0  0  0  0  0
    5.6728   -1.1373   -4.2752 F   0  0  0  0  0  0  0  0  0  0  0  0
    3.4111   -0.4898   -4.4323 C   0  0  0  0  0  0  0  0  0  0  0  0
    2.1958   -0.2192   -3.7998 C   0  0  0  0  0  0  0  0  0  0  0  0
   -0.3503   -0.4656   -2.3073 N   0  0  0  0  0  0  0  0  0  0  0  0
   -4.4034    0.6513   -2.6789 H   0  0  0  0  0  0  0  0  0  0  0  0
   -3.1043    1.7719   -2.2828 H   0  0  0  0  0  0  0  0  0  0  0  0
   -2.7513   -1.2954   -2.2612 H   0  0  0  0  0  0  0  0  0  0  0  0
   -3.2358   -0.3507   -0.8462 H   0  0  0  0  0  0  0  0  0  0  0  0
   -1.5043    1.1089    0.3151 H   0  0  0  0  0  0  0  0  0  0  0  0
    2.2650    1.8747   -0.2288 H   0  0  0  0  0  0  0  0  0  0  0  0
   -2.9921    1.5916    4.3158 H   0  0  0  0  0  0  0  0  0  0  0  0
   -4.0945   -0.2565    5.5669 H   0  0  0  0  0  0  0  0  0  0  0  0
   -3.0566   -2.5002    5.6442 H   0  0  0  0  0  0  0  0  0  0  0  0
   -0.9016   -2.9339    4.4772 H   0  0  0  0  0  0  0  0  0  0  0  0
    3.1245   -0.8644   -0.5784 H   0  0  0  0  0  0  0  0  0  0  0  0
    5.2761   -1.3195   -1.7185 H   0  0  0  0  0  0  0  0  0  0  0  0
    3.5039   -0.4061   -5.5104 H   0  0  0  0  0  0  0  0  0  0  0  0
    1.3348    0.0743   -4.3993 H   0  0  0  0  0  0  0  0  0  0  0  0
  1  2  3  0
  2  3  1  0
  3  4  1  0
  4  5  1  0
  5  6  1  0
  6  7  2  0
  7  8  1  0
  8  9  2  3
  9 10  1  0
 10 11  3  0
  9 12  1  0
 12 13  2  0
 13 14  1  0
 14 15  2  0
 15 16  1  0
 16 17  2  0
 17 18  1  0
 18 19  2  0
 19 20  1  0
  7 21  1  0
 21 22  1  0
 22 23  2  0
 23 24  1  0
 24 25  2  0
 25 26  1  0
 25 27  1  0
 27 28  2  0
 21 29  2  0
 29  5  1  0
 20 12  1  0
 28 22  1  0
 19 14  1  0
  3 30  1  0
  3 31  1  0
  4 32  1  0
  4 33  1  0
  6 34  1  0
  8 35  1  0
 15 36  1  0
 16 37  1  0
 17 38  1  0
 18 39  1  0
 23 40  1  0
 24 41  1  0
 27 42  1  0
 28 43  1  0
M  END
$$$$
