
     RDKit          3D

 45 47  0  0  0  0  0  0  0  0999 V2000
    4.8929    0.6537    0.5514 C   0  0  0  0  0  0  0  0  0  0  0  0
    4.3315   -0.7140    0.2819 C   0  0  0  0  0  0  0  0  0  0  0  0
    5.2175   -1.7745    0.0082 C   0  0  0  0  0  0  0  0  0  0  0  0
    4.7506   -3.0580   -0.2610 C   0  0  0  0  0  0  0  0  0  0  0  0
    3.3825   -3.3314   -0.2737 C   0  0  0  0  0  0  0  0  0  0  0  0
    2.4962   -2.2762   -0.0098 C   0  0  0  0  0  0  0  0  0  0  0  0
    0.7774   -2.2958    0.0344 S   0  0  0  0  0  0  0  0  0  0  0  0
    0.7503   -0.6190    0.3870 C   0  0  0  0  0  0  0  0  0  0  0  0
   -0.4802    0.0258    0.5377 N   0  0  0  0  0  0  0  0  0  0  0  0
   -1.7513   -0.6674    0.7782 C   0  0  0  0  0  0  0  0  0  0  0  0
   -2.5803   -0.7735   -0.5054 C   0  0  0  0  0  0  0  0  0  0  0  0
   -3.9161   -1.5066   -0.3074 C   0  0  0  0  0  0  0  0  0  0  0  0
   -5.1059   -0.7153    0.0276 N   0  0  0  0  0  0  0  0  0  0  0  0
   -4.9986    0.0352    1.2727 C   0  0  0  0  0  0  0  0  0  0  0  0
   -5.5343    0.1545   -1.0661 C   0  0  0  0  0  0  0  0  0  0  0  0
   -0.5215    1.4381    0.5927 C   0  0  0  0  0  0  0  0  0  0  0  0
   -1.4693    2.0107    1.1402 O   0  0  0  0  0  0  0  0  0  0  0  0
    0.5069    2.2344   -0.0644 C   0  0  0  0  0  0  0  0  0  0  0  0
    1.2254    3.2905    0.4689 C   0  0  0  0  0  0  0  0  0  0  0  0
    2.1199    3.8693   -0.4804 C   0  0  0  0  0  0  0  0  0  0  0  0
    2.0039    3.2576   -1.7015 C   0  0  0  0  0  0  0  0  0  0  0  0
    2.8881    3.6368   -3.1239 Cl  0  0  0  0  0  0  0  0  0  0  0  0
    0.8367    2.0340   -1.7401 S   0  0  0  0  0  0  0  0  0  0  0  0
    1.9320   -0.0645    0.5080 N   0  0  0  0  0  0  0  0  0  0  0  0
    2.9409   -0.9839    0.2677 C   0  0  0  0  0  0  0  0  0  0  0  0
    5.6393    0.6058    1.3508 H   0  0  0  0  0  0  0  0  0  0  0  0
    4.1135    1.3546    0.8649 H   0  0  0  0  0  0  0  0  0  0  0  0
    5.3633    1.0494   -0.3543 H   0  0  0  0  0  0  0  0  0  0  0  0
    6.2911   -1.5914    0.0059 H   0  0  0  0  0  0  0  0  0  0  0  0
    5.4600   -3.8570   -0.4669 H   0  0  0  0  0  0  0  0  0  0  0  0
    3.0172   -4.3313   -0.4870 H   0  0  0  0  0  0  0  0  0  0  0  0
   -2.3052   -0.1231    1.5478 H   0  0  0  0  0  0  0  0  0  0  0  0
   -1.5728   -1.6576    1.2101 H   0  0  0  0  0  0  0  0  0  0  0  0
   -1.9968   -1.3327   -1.2483 H   0  0  0  0  0  0  0  0  0  0  0  0
   -2.7318    0.2180   -0.9457 H   0  0  0  0  0  0  0  0  0  0  0  0
   -4.1371   -2.0543   -1.2336 H   0  0  0  0  0  0  0  0  0  0  0  0
   -3.7939   -2.2918    0.4498 H   0  0  0  0  0  0  0  0  0  0  0  0
   -4.6794   -0.6154    2.0941 H   0  0  0  0  0  0  0  0  0  0  0  0
   -5.9778    0.4366    1.5579 H   0  0  0  0  0  0  0  0  0  0  0  0
   -4.3034    0.8775    1.1959 H   0  0  0  0  0  0  0  0  0  0  0  0
   -5.6660   -0.4186   -1.9906 H   0  0  0  0  0  0  0  0  0  0  0  0
   -6.5086    0.6013   -0.8372 H   0  0  0  0  0  0  0  0  0  0  0  0
   -4.8281    0.9682   -1.2612 H   0  0  0  0  0  0  0  0  0  0  0  0
    1.1239    3.6133    1.4985 H   0  0  0  0  0  0  0  0  0  0  0  0
    2.7974    4.6878   -0.2737 H   0  0  0  0  0  0  0  0  0  0  0  0
  1  2  1  0
  2  3  2  0
  3  4  1  0
  4  5  2  0
  5  6  1  0
  6  7  1  0
  7  8  1  0
  8  9  1  0
  9 10  1  0
 10 11  1  0
 11 12  1  0
 12 13  1  0
 13 14  1  0
 13 15  1  0
  9 16  1  0
 16 17  2  0
 16 18  1  0
 18 19  2  0
 19 20  1  0
 20 21  2  0
 21 22  1  0
 21 23  1  0
  8 24  2  0
 24 25  1  0
 25  2  1  0
 25  6  2  0
 23 18  1  0
  1 26  1  0
  1 27  1  0
  1 28  1  0
  3 29  1  0
  4 30  1  0
  5 31  1  0
 10 32  1  0
 10 33  1  0
 11 34  1  0
 11 35  1  0
 12 36  1  0
 12 37  1  0
 14 38  1  0
 14 39  1  0
 14 40  1  0
 15 41  1  0
 15 42  1  0
 15 43  1  0
 19 44  1  0
 20 45  1  0
M  END
$$$$
