
     RDKit          3D

 63 67  0  0  0  0  0  0  0  0999 V2000
   -0.5902   -1.0642    0.6223 O   0  0  0  0  0  0  0  0  0  0  0  0
   -1.3810   -0.1221    0.6394 C   0  0  0  0  0  0  0  0  0  0  0  0
   -2.6896   -0.2248    0.2232 N   0  0  0  0  0  0  0  0  0  0  0  0
   -3.1972   -1.5055   -0.2541 C   0  0  0  0  0  0  0  0  0  0  0  0
   -3.4941   -2.4469    0.9319 C   0  0  0  0  0  0  0  0  0  0  0  0
   -4.9500   -2.3656    1.3893 C   0  0  0  0  0  0  0  0  0  0  0  0
   -5.8614   -2.7610    0.2279 C   0  0  0  0  0  0  0  0  0  0  0  0
   -5.6277   -1.8747   -0.9680 C   0  0  0  0  0  0  0  0  0  0  0  0
   -6.6652   -1.6784   -1.8951 C   0  0  0  0  0  0  0  0  0  0  0  0
   -6.4666   -0.8884   -3.0275 C   0  0  0  0  0  0  0  0  0  0  0  0
   -5.2257   -0.2998   -3.2552 C   0  0  0  0  0  0  0  0  0  0  0  0
   -4.1838   -0.5018   -2.3494 C   0  0  0  0  0  0  0  0  0  0  0  0
   -4.3666   -1.2898   -1.1981 C   0  0  0  0  0  0  0  0  0  0  0  0
   -0.9132    1.1941    1.1399 C   0  0  0  0  0  0  0  0  0  0  0  0
   -1.4301    2.4062    0.6701 C   0  0  0  0  0  0  0  0  0  0  0  0
   -0.8641    3.6122    1.0987 C   0  0  0  0  0  0  0  0  0  0  0  0
    0.2224    3.6136    1.9764 C   0  0  0  0  0  0  0  0  0  0  0  0
    0.7436    2.3959    2.4304 C   0  0  0  0  0  0  0  0  0  0  0  0
    2.1668    2.3657    3.5061 S   0  0  0  0  0  6  0  0  0  0  0  0
    1.8685    1.4383    4.5780 O   0  0  0  0  0  0  0  0  0  0  0  0
    2.5220    3.7431    3.7767 O   0  0  0  0  0  0  0  0  0  0  0  0
    3.3917    1.7031    2.5446 N   0  0  0  0  0  0  0  0  0  0  0  0
    3.8709    2.5053    1.3868 C   0  0  0  0  0  0  0  0  0  0  0  0
    4.9235    1.7428    0.5517 C   0  0  0  0  0  0  0  0  0  0  0  0
    4.3992    0.4532    0.0677 N   0  0  0  0  0  0  0  0  0  0  0  0
    4.7100   -0.0090   -1.2037 C   0  0  0  0  0  0  0  0  0  0  0  0
    5.9448    0.2831   -1.8094 C   0  0  0  0  0  0  0  0  0  0  0  0
    6.2753   -0.1860   -3.0878 C   0  0  0  0  0  0  0  0  0  0  0  0
    5.3724   -0.9665   -3.8013 C   0  0  0  0  0  0  0  0  0  0  0  0
    4.1445   -1.2774   -3.2290 C   0  0  0  0  0  0  0  0  0  0  0  0
    3.8266   -0.8114   -1.9467 C   0  0  0  0  0  0  0  0  0  0  0  0
    3.3115   -0.1556    0.8482 C   0  0  0  0  0  0  0  0  0  0  0  0
    3.4221    0.2263    2.3361 C   0  0  0  0  0  0  0  0  0  0  0  0
    0.1548    1.1927    2.0455 C   0  0  0  0  0  0  0  0  0  0  0  0
   -3.3668    0.4817    0.4705 H   0  0  0  0  0  0  0  0  0  0  0  0
   -2.3952   -1.9674   -0.8428 H   0  0  0  0  0  0  0  0  0  0  0  0
   -3.2935   -3.4816    0.6152 H   0  0  0  0  0  0  0  0  0  0  0  0
   -2.8268   -2.2447    1.7824 H   0  0  0  0  0  0  0  0  0  0  0  0
   -5.1923   -1.3507    1.7396 H   0  0  0  0  0  0  0  0  0  0  0  0
   -5.1114   -3.0515    2.2272 H   0  0  0  0  0  0  0  0  0  0  0  0
   -6.9168   -2.7205    0.5467 H   0  0  0  0  0  0  0  0  0  0  0  0
   -5.6456   -3.8023   -0.0708 H   0  0  0  0  0  0  0  0  0  0  0  0
   -7.6378   -2.1402   -1.7363 H   0  0  0  0  0  0  0  0  0  0  0  0
   -7.2790   -0.7369   -3.7351 H   0  0  0  0  0  0  0  0  0  0  0  0
   -5.0660    0.3089   -4.1418 H   0  0  0  0  0  0  0  0  0  0  0  0
   -3.2158   -0.0436   -2.5475 H   0  0  0  0  0  0  0  0  0  0  0  0
   -2.2405    2.4317   -0.0524 H   0  0  0  0  0  0  0  0  0  0  0  0
   -1.2688    4.5599    0.7375 H   0  0  0  0  0  0  0  0  0  0  0  0
    0.6666    4.5582    2.2886 H   0  0  0  0  0  0  0  0  0  0  0  0
    3.0238    2.7594    0.7413 H   0  0  0  0  0  0  0  0  0  0  0  0
    4.3107    3.4365    1.7540 H   0  0  0  0  0  0  0  0  0  0  0  0
    5.2227    2.3814   -0.2834 H   0  0  0  0  0  0  0  0  0  0  0  0
    5.8130    1.5528    1.1603 H   0  0  0  0  0  0  0  0  0  0  0  0
    6.6930    0.8623   -1.2716 H   0  0  0  0  0  0  0  0  0  0  0  0
    7.2442    0.0488   -3.5170 H   0  0  0  0  0  0  0  0  0  0  0  0
    5.6225   -1.3373   -4.7907 H   0  0  0  0  0  0  0  0  0  0  0  0
    3.4216   -1.8824   -3.7714 H   0  0  0  0  0  0  0  0  0  0  0  0
    2.8488   -1.0815   -1.5522 H   0  0  0  0  0  0  0  0  0  0  0  0
    3.3469   -1.2485    0.7812 H   0  0  0  0  0  0  0  0  0  0  0  0
    2.3506    0.1799    0.4415 H   0  0  0  0  0  0  0  0  0  0  0  0
    4.3696   -0.1467    2.7505 H   0  0  0  0  0  0  0  0  0  0  0  0
    2.6246   -0.2814    2.8890 H   0  0  0  0  0  0  0  0  0  0  0  0
    0.5335    0.2427    2.4223 H   0  0  0  0  0  0  0  0  0  0  0  0
  1  2  2  0
  2  3  1  0
  3  4  1  0
  4  5  1  0
  5  6  1  0
  6  7  1  0
  7  8  1  0
  8  9  2  0
  9 10  1  0
 10 11  2  0
 11 12  1  0
 12 13  2  0
  2 14  1  0
 14 15  2  0
 15 16  1  0
 16 17  2  0
 17 18  1  0
 18 19  1  0
 19 20  2  0
 19 21  2  0
 19 22  1  0
 22 23  1  0
 23 24  1  0
 24 25  1  0
 25 26  1  0
 26 27  2  0
 27 28  1  0
 28 29  2  0
 29 30  1  0
 30 31  2  0
 25 32  1  0
 32 33  1  0
 18 34  2  0
 13  4  1  0
 34 14  1  0
 13  8  1  0
 33 22  1  0
 31 26  1  0
  3 35  1  0
  4 36  1  0
  5 37  1  0
  5 38  1  0
  6 39  1  0
  6 40  1  0
  7 41  1  0
  7 42  1  0
  9 43  1  0
 10 44  1  0
 11 45  1  0
 12 46  1  0
 15 47  1  0
 16 48  1  0
 17 49  1  0
 23 50  1  0
 23 51  1  0
 24 52  1  0
 24 53  1  0
 27 54  1  0
 28 55  1  0
 29 56  1  0
 30 57  1  0
 31 58  1  0
 32 59  1  0
 32 60  1  0
 33 61  1  0
 33 62  1  0
 34 63  1  0
M  END
$$$$
