
     RDKit          3D

 39 41  0  0  0  0  0  0  0  0999 V2000
   -2.1070   -1.8271   -1.9101 C   0  0  0  0  0  0  0  0  0  0  0  0
   -2.7520   -0.8152   -1.0007 C   0  0  0  0  0  0  0  0  0  0  0  0
   -4.1518   -0.6947   -1.0914 C   0  0  0  0  0  0  0  0  0  0  0  0
   -4.8392    0.2787   -0.3755 C   0  0  0  0  0  0  0  0  0  0  0  0
   -4.1373    1.1546    0.4428 C   0  0  0  0  0  0  0  0  0  0  0  0
   -2.7434    1.0466    0.5807 C   0  0  0  0  0  0  0  0  0  0  0  0
   -2.0516    2.0147    1.5055 C   0  0  0  0  0  0  0  0  0  0  0  0
   -2.0449    0.0272   -0.1150 C   0  0  0  0  0  0  0  0  0  0  0  0
   -0.6401   -0.0466    0.0704 N   0  0  0  0  0  0  0  0  0  0  0  0
    0.0938   -1.2070    0.2139 C   0  0  0  0  0  0  0  0  0  0  0  0
   -0.3761   -2.3412    0.2764 O   0  0  0  0  0  0  0  0  0  0  0  0
    1.6111   -1.0203    0.2729 C   0  0  0  0  0  0  0  0  0  0  0  0
    2.2430   -0.7248   -1.0997 C   0  0  0  0  0  0  0  0  0  0  0  0
    3.1998    0.4431   -0.7956 C   0  0  0  0  0  0  0  0  0  0  0  0
    4.3216   -0.0362    0.1451 C   0  0  0  0  0  0  0  0  0  0  0  0
    3.6069   -0.1758    1.5008 C   0  0  0  0  0  0  0  0  0  0  0  0
    2.1415    0.1448    1.1451 C   0  0  0  0  0  0  0  0  0  0  0  0
    2.3478    1.2891    0.1432 C   0  0  0  0  0  0  0  0  0  0  0  0
   -1.0897   -1.5370   -2.1878 H   0  0  0  0  0  0  0  0  0  0  0  0
   -2.6613   -1.9011   -2.8533 H   0  0  0  0  0  0  0  0  0  0  0  0
   -2.1047   -2.8165   -1.4446 H   0  0  0  0  0  0  0  0  0  0  0  0
   -4.7131   -1.3566   -1.7485 H   0  0  0  0  0  0  0  0  0  0  0  0
   -5.9188    0.3617   -0.4672 H   0  0  0  0  0  0  0  0  0  0  0  0
   -4.6887    1.9196    0.9852 H   0  0  0  0  0  0  0  0  0  0  0  0
   -1.3500    2.6400    0.9439 H   0  0  0  0  0  0  0  0  0  0  0  0
   -2.7645    2.6842    1.9987 H   0  0  0  0  0  0  0  0  0  0  0  0
   -1.5162    1.4740    2.2928 H   0  0  0  0  0  0  0  0  0  0  0  0
   -0.2233    0.7635    0.5004 H   0  0  0  0  0  0  0  0  0  0  0  0
    2.0036   -1.9699    0.6628 H   0  0  0  0  0  0  0  0  0  0  0  0
    2.7762   -1.5964   -1.4936 H   0  0  0  0  0  0  0  0  0  0  0  0
    1.4908   -0.4265   -1.8391 H   0  0  0  0  0  0  0  0  0  0  0  0
    3.5644    0.9518   -1.6900 H   0  0  0  0  0  0  0  0  0  0  0  0
    4.7661   -0.9806   -0.1845 H   0  0  0  0  0  0  0  0  0  0  0  0
    5.1190    0.7118    0.2173 H   0  0  0  0  0  0  0  0  0  0  0  0
    3.7351   -1.1723    1.9349 H   0  0  0  0  0  0  0  0  0  0  0  0
    4.0025    0.5575    2.2132 H   0  0  0  0  0  0  0  0  0  0  0  0
    1.5247    0.3880    2.0128 H   0  0  0  0  0  0  0  0  0  0  0  0
    1.4345    1.6550   -0.3318 H   0  0  0  0  0  0  0  0  0  0  0  0
    2.8911    2.1398    0.5694 H   0  0  0  0  0  0  0  0  0  0  0  0
  1  2  1  0
  2  3  2  0
  3  4  1  0
  4  5  2  0
  5  6  1  0
  6  7  1  0
  6  8  2  0
  8  9  1  0
  9 10  1  0
 10 11  2  0
 10 12  1  0
 12 13  1  0
 13 14  1  0
 14 15  1  0
 15 16  1  0
 16 17  1  0
 17 18  1  0
  8  2  1  0
 17 12  1  0
 18 14  1  0
  1 19  1  0
  1 20  1  0
  1 21  1  0
  3 22  1  0
  4 23  1  0
  5 24  1  0
  7 25  1  0
  7 26  1  0
  7 27  1  0
  9 28  1  0
 12 29  1  0
 13 30  1  0
 13 31  1  0
 14 32  1  0
 15 33  1  0
 15 34  1  0
 16 35  1  0
 16 36  1  0
 17 37  1  0
 18 38  1  0
 18 39  1  0
M  END
$$$$
