
     RDKit          3D

 74 77  0  0  0  0  0  0  0  0999 V2000
    0.2994    2.3958    2.9782 C   0  0  0  0  0  0  0  0  0  0  0  0
   -0.1960    2.5005    1.5296 C   0  0  0  0  0  0  0  0  0  0  0  0
    0.4296    3.7211    0.8449 C   0  0  0  0  0  0  0  0  0  0  0  0
    0.2019    3.9181   -0.5973 N   0  0  0  0  0  0  0  0  0  0  0  0
    1.2130    4.7436   -1.3127 C   0  0  0  0  0  0  0  0  0  0  0  0
    2.5637    4.0280   -1.4112 C   0  0  0  0  0  0  0  0  0  0  0  0
    1.3844    6.1620   -0.7225 C   0  0  0  0  0  0  0  0  0  0  0  0
    0.1653    6.8887   -0.6436 O   0  0  0  0  0  0  0  0  0  0  0  0
   -1.1094    4.0433   -1.0972 C   0  0  0  0  0  0  0  0  0  0  0  0
   -1.4290    5.0050   -1.8014 O   0  0  0  0  0  0  0  0  0  0  0  0
   -2.1265    2.9784   -0.8731 C   0  0  0  0  0  0  0  0  0  0  0  0
   -3.4809    3.3332   -0.9665 C   0  0  0  0  0  0  0  0  0  0  0  0
   -4.4803    2.3616   -0.8683 C   0  0  0  0  0  0  0  0  0  0  0  0
   -4.1387    1.0166   -0.7027 C   0  0  0  0  0  0  0  0  0  0  0  0
   -2.7977    0.6359   -0.6248 C   0  0  0  0  0  0  0  0  0  0  0  0
   -2.3832   -0.7007   -0.4547 N   0  0  0  0  0  0  0  0  0  0  0  0
   -3.1157   -1.8677   -0.5788 C   0  0  0  0  0  0  0  0  0  0  0  0
   -4.2765   -1.9507   -0.9463 O   0  0  0  0  0  0  0  0  0  0  0  0
   -2.3118   -2.9399   -0.2145 N   0  0  0  0  0  0  0  0  0  0  0  0
   -2.5074   -4.2963   -0.5052 C   0  0  0  0  0  0  0  0  0  0  0  0
   -1.7202   -5.2222    0.1949 C   0  0  0  0  0  0  0  0  0  0  0  0
   -1.7735   -6.5808   -0.1117 C   0  0  0  0  0  0  0  0  0  0  0  0
   -2.6209   -7.0288   -1.1262 C   0  0  0  0  0  0  0  0  0  0  0  0
   -3.4298   -6.1164   -1.8034 C   0  0  0  0  0  0  0  0  0  0  0  0
   -3.3842   -4.7553   -1.4891 C   0  0  0  0  0  0  0  0  0  0  0  0
   -1.7980    1.6298   -0.6818 C   0  0  0  0  0  0  0  0  0  0  0  0
   -0.4789    1.2530   -0.6100 O   0  0  0  0  0  0  0  0  0  0  0  0
   -0.0160    1.1701    0.7579 C   0  0  0  0  0  0  0  0  0  0  0  0
    1.4346    0.6378    0.6562 C   0  0  0  0  0  0  0  0  0  0  0  0
    1.7895   -0.2446    1.8018 N   0  0  0  0  0  0  0  0  0  0  0  0
    3.1568   -0.0348    2.3162 C   0  0  0  0  0  0  0  0  0  0  0  0
    1.2395   -1.8617    1.7548 S   0  0  0  0  0  6  0  0  0  0  0  0
    1.4271   -2.4331    3.0678 O   0  0  0  0  0  0  0  0  0  0  0  0
   -0.0655   -1.8906    1.1224 O   0  0  0  0  0  0  0  0  0  0  0  0
    2.3607   -2.6899    0.6459 C   0  0  0  0  0  0  0  0  0  0  0  0
    3.4984   -3.3195    1.1614 C   0  0  0  0  0  0  0  0  0  0  0  0
    4.3161   -4.0633    0.3106 C   0  0  0  0  0  0  0  0  0  0  0  0
    3.9831   -4.1954   -1.0384 C   0  0  0  0  0  0  0  0  0  0  0  0
    2.8424   -3.5744   -1.5477 C   0  0  0  0  0  0  0  0  0  0  0  0
    2.0235   -2.8216   -0.7059 C   0  0  0  0  0  0  0  0  0  0  0  0
    1.3872    2.3212    3.0305 H   0  0  0  0  0  0  0  0  0  0  0  0
    0.0019    3.2837    3.5494 H   0  0  0  0  0  0  0  0  0  0  0  0
   -0.1296    1.5204    3.4753 H   0  0  0  0  0  0  0  0  0  0  0  0
   -1.2735    2.6986    1.6102 H   0  0  0  0  0  0  0  0  0  0  0  0
    0.0719    4.6319    1.3547 H   0  0  0  0  0  0  0  0  0  0  0  0
    1.5129    3.6780    1.0085 H   0  0  0  0  0  0  0  0  0  0  0  0
    0.8595    4.8537   -2.3496 H   0  0  0  0  0  0  0  0  0  0  0  0
    3.0705    3.9615   -0.4452 H   0  0  0  0  0  0  0  0  0  0  0  0
    3.2282    4.5513   -2.0999 H   0  0  0  0  0  0  0  0  0  0  0  0
    2.4259    3.0081   -1.7863 H   0  0  0  0  0  0  0  0  0  0  0  0
    1.8105    6.1228    0.2844 H   0  0  0  0  0  0  0  0  0  0  0  0
    2.0756    6.7405   -1.3433 H   0  0  0  0  0  0  0  0  0  0  0  0
   -0.4878    6.4383   -1.2278 H   0  0  0  0  0  0  0  0  0  0  0  0
   -3.7613    4.3717   -1.1339 H   0  0  0  0  0  0  0  0  0  0  0  0
   -5.5263    2.6520   -0.9418 H   0  0  0  0  0  0  0  0  0  0  0  0
   -4.9384    0.2820   -0.6301 H   0  0  0  0  0  0  0  0  0  0  0  0
   -1.3830   -0.8524   -0.3636 H   0  0  0  0  0  0  0  0  0  0  0  0
   -1.5733   -2.7138    0.4535 H   0  0  0  0  0  0  0  0  0  0  0  0
   -1.0452   -4.8847    0.9842 H   0  0  0  0  0  0  0  0  0  0  0  0
   -1.1166   -7.2773    0.3965 H   0  0  0  0  0  0  0  0  0  0  0  0
   -2.6382   -8.0809   -1.3822 H   0  0  0  0  0  0  0  0  0  0  0  0
   -4.0835   -6.4608   -2.6025 H   0  0  0  0  0  0  0  0  0  0  0  0
   -4.0325   -4.0747   -2.0341 H   0  0  0  0  0  0  0  0  0  0  0  0
   -0.6293    0.4306    1.2802 H   0  0  0  0  0  0  0  0  0  0  0  0
    2.1374    1.4768    0.5872 H   0  0  0  0  0  0  0  0  0  0  0  0
    1.5735    0.0782   -0.2775 H   0  0  0  0  0  0  0  0  0  0  0  0
    3.3133    1.0245    2.5439 H   0  0  0  0  0  0  0  0  0  0  0  0
    3.8999   -0.3389    1.5746 H   0  0  0  0  0  0  0  0  0  0  0  0
    3.3130   -0.5824    3.2500 H   0  0  0  0  0  0  0  0  0  0  0  0
    3.7500   -3.2490    2.2193 H   0  0  0  0  0  0  0  0  0  0  0  0
    5.1955   -4.5678    0.7025 H   0  0  0  0  0  0  0  0  0  0  0  0
    4.6099   -4.7991   -1.6916 H   0  0  0  0  0  0  0  0  0  0  0  0
    2.5723   -3.7073   -2.5935 H   0  0  0  0  0  0  0  0  0  0  0  0
    1.1207   -2.3714   -1.1096 H   0  0  0  0  0  0  0  0  0  0  0  0
  1  2  1  0
  2  3  1  0
  3  4  1  0
  4  5  1  0
  5  6  1  0
  5  7  1  0
  7  8  1  0
  4  9  1  0
  9 10  2  0
  9 11  1  0
 11 12  2  0
 12 13  1  0
 13 14  2  0
 14 15  1  0
 15 16  1  0
 16 17  1  0
 17 18  2  0
 17 19  1  0
 19 20  1  0
 20 21  2  0
 21 22  1  0
 22 23  2  0
 23 24  1  0
 24 25  2  0
 15 26  2  0
 26 27  1  0
 27 28  1  0
 28 29  1  0
 29 30  1  0
 30 31  1  0
 30 32  1  0
 32 33  2  0
 32 34  2  0
 32 35  1  0
 35 36  2  0
 36 37  1  0
 37 38  2  0
 38 39  1  0
 39 40  2  0
 28  2  1  0
 40 35  1  0
 26 11  1  0
 25 20  1  0
  1 41  1  0
  1 42  1  0
  1 43  1  0
  2 44  1  0
  3 45  1  0
  3 46  1  0
  5 47  1  0
  6 48  1  0
  6 49  1  0
  6 50  1  0
  7 51  1  0
  7 52  1  0
  8 53  1  0
 12 54  1  0
 13 55  1  0
 14 56  1  0
 16 57  1  0
 19 58  1  0
 21 59  1  0
 22 60  1  0
 23 61  1  0
 24 62  1  0
 25 63  1  0
 28 64  1  0
 29 65  1  0
 29 66  1  0
 31 67  1  0
 31 68  1  0
 31 69  1  0
 36 70  1  0
 37 71  1  0
 38 72  1  0
 39 73  1  0
 40 74  1  0
M  END
$$$$
