
     RDKit          3D

 54 58  0  0  0  0  0  0  0  0999 V2000
   -6.0575   -3.1716    0.6005 C   0  0  0  0  0  0  0  0  0  0  0  0
   -4.9092   -2.1825    0.7462 C   0  0  0  0  0  0  0  0  0  0  0  0
   -3.6917   -2.5286   -0.1338 C   0  0  0  0  0  0  0  0  0  0  0  0
   -3.9897   -2.4502   -1.6348 C   0  0  0  0  0  0  0  0  0  0  0  0
   -2.5126   -1.7241    0.2333 N   0  0  0  0  0  0  0  0  0  0  0  0
   -1.4103   -2.3672    0.7927 C   0  0  0  0  0  0  0  0  0  0  0  0
   -0.3024   -1.8080    1.1766 N   0  0  0  0  0  0  0  0  0  0  0  0
   -0.2873   -0.4697    0.9811 C   0  0  0  0  0  0  0  0  0  0  0  0
   -1.2979    0.3068    0.4545 C   0  0  0  0  0  0  0  0  0  0  0  0
   -2.5235   -0.3305    0.0423 C   0  0  0  0  0  0  0  0  0  0  0  0
   -3.4737    0.2910   -0.4211 O   0  0  0  0  0  0  0  0  0  0  0  0
   -0.8551    1.6432    0.4549 C   0  0  0  0  0  0  0  0  0  0  0  0
   -1.4567    2.7915    0.0587 N   0  0  0  0  0  0  0  0  0  0  0  0
   -0.7141    3.8975    0.2209 C   0  0  0  0  0  0  0  0  0  0  0  0
   -1.2581    5.1155   -0.1658 C   0  0  0  0  0  0  0  0  0  0  0  0
   -0.5498    6.3100   -0.0281 C   0  0  0  0  0  0  0  0  0  0  0  0
    0.7298    6.2877    0.5079 C   0  0  0  0  0  0  0  0  0  0  0  0
    1.2895    5.0710    0.9012 C   0  0  0  0  0  0  0  0  0  0  0  0
    0.5970    3.8739    0.7700 C   0  0  0  0  0  0  0  0  0  0  0  0
    1.2015    2.7417    1.1707 N   0  0  0  0  0  0  0  0  0  0  0  0
    0.4328    1.6483    0.9860 C   0  0  0  0  0  0  0  0  0  0  0  0
    0.7729    0.3501    1.2808 N   0  0  0  0  0  0  0  0  0  0  0  0
    2.0385   -0.0668    1.8584 C   0  0  0  0  0  0  0  0  0  0  0  0
    3.0476   -0.4111    0.7909 C   0  0  0  0  0  0  0  0  0  0  0  0
    3.8742    0.5783    0.2448 C   0  0  0  0  0  0  0  0  0  0  0  0
    4.7981    0.2559   -0.7520 C   0  0  0  0  0  0  0  0  0  0  0  0
    4.9105   -1.0530   -1.2248 C   0  0  0  0  0  0  0  0  0  0  0  0
    5.8535   -1.2302   -2.1995 O   0  0  0  0  0  0  0  0  0  0  0  0
    5.9921   -2.5430   -2.7272 C   0  0  0  0  0  0  0  0  0  0  0  0
    4.0843   -2.0418   -0.6917 C   0  0  0  0  0  0  0  0  0  0  0  0
    3.1576   -1.7220    0.3074 C   0  0  0  0  0  0  0  0  0  0  0  0
   -6.4874   -3.1412   -0.4049 H   0  0  0  0  0  0  0  0  0  0  0  0
   -6.8551   -2.9269    1.3093 H   0  0  0  0  0  0  0  0  0  0  0  0
   -5.7251   -4.1940    0.8060 H   0  0  0  0  0  0  0  0  0  0  0  0
   -4.5975   -2.1691    1.7984 H   0  0  0  0  0  0  0  0  0  0  0  0
   -5.2826   -1.1776    0.5208 H   0  0  0  0  0  0  0  0  0  0  0  0
   -3.4411   -3.5778    0.0705 H   0  0  0  0  0  0  0  0  0  0  0  0
   -3.0773   -2.6135   -2.2188 H   0  0  0  0  0  0  0  0  0  0  0  0
   -4.4026   -1.4795   -1.9245 H   0  0  0  0  0  0  0  0  0  0  0  0
   -4.7118   -3.2175   -1.9315 H   0  0  0  0  0  0  0  0  0  0  0  0
   -1.5251   -3.4569    0.9058 H   0  0  0  0  0  0  0  0  0  0  0  0
   -2.2615    5.1323   -0.5862 H   0  0  0  0  0  0  0  0  0  0  0  0
   -1.0003    7.2489   -0.3399 H   0  0  0  0  0  0  0  0  0  0  0  0
    1.2945    7.2096    0.6211 H   0  0  0  0  0  0  0  0  0  0  0  0
    2.2927    5.0557    1.3206 H   0  0  0  0  0  0  0  0  0  0  0  0
    2.4100    0.7398    2.5015 H   0  0  0  0  0  0  0  0  0  0  0  0
    1.8538   -0.9243    2.5161 H   0  0  0  0  0  0  0  0  0  0  0  0
    3.7990    1.6095    0.5853 H   0  0  0  0  0  0  0  0  0  0  0  0
    5.4327    1.0347   -1.1678 H   0  0  0  0  0  0  0  0  0  0  0  0
    6.3102   -3.2484   -1.9525 H   0  0  0  0  0  0  0  0  0  0  0  0
    6.7739   -2.5149   -3.4924 H   0  0  0  0  0  0  0  0  0  0  0  0
    5.0666   -2.8749   -3.2093 H   0  0  0  0  0  0  0  0  0  0  0  0
    4.1303   -3.0707   -1.0314 H   0  0  0  0  0  0  0  0  0  0  0  0
    2.5130   -2.5053    0.7027 H   0  0  0  0  0  0  0  0  0  0  0  0
  1  2  1  0
  2  3  1  0
  3  4  1  0
  3  5  1  0
  5  6  1  0
  6  7  2  0
  7  8  1  0
  8  9  2  0
  9 10  1  0
 10 11  2  0
  9 12  1  0
 12 13  2  0
 13 14  1  0
 14 15  2  0
 15 16  1  0
 16 17  2  0
 17 18  1  0
 18 19  2  0
 19 20  1  0
 20 21  2  0
 21 22  1  0
 22 23  1  0
 23 24  1  0
 24 25  2  0
 25 26  1  0
 26 27  2  0
 27 28  1  0
 28 29  1  0
 27 30  1  0
 30 31  2  0
 10  5  1  0
 21 12  1  0
 31 24  1  0
 22  8  1  0
 19 14  1  0
  1 32  1  0
  1 33  1  0
  1 34  1  0
  2 35  1  0
  2 36  1  0
  3 37  1  0
  4 38  1  0
  4 39  1  0
  4 40  1  0
  6 41  1  0
 15 42  1  0
 16 43  1  0
 17 44  1  0
 18 45  1  0
 23 46  1  0
 23 47  1  0
 25 48  1  0
 26 49  1  0
 29 50  1  0
 29 51  1  0
 29 52  1  0
 30 53  1  0
 31 54  1  0
M  END
$$$$
