
     RDKit          3D

 61 64  0  0  0  0  0  0  0  0999 V2000
   -8.9496   -1.5653   -4.0362 C   0  0  0  0  0  0  0  0  0  0  0  0
   -8.0760   -1.4981   -2.9083 O   0  0  0  0  0  0  0  0  0  0  0  0
   -7.5696   -0.2601   -2.6776 C   0  0  0  0  0  0  0  0  0  0  0  0
   -7.8010    0.7406   -3.3394 O   0  0  0  0  0  0  0  0  0  0  0  0
   -6.6607   -0.2754   -1.4997 C   0  0  0  0  0  0  0  0  0  0  0  0
   -5.9138    0.8758   -1.2244 C   0  0  0  0  0  0  0  0  0  0  0  0
   -5.0441    0.9078   -0.1318 C   0  0  0  0  0  0  0  0  0  0  0  0
   -4.9095   -0.2089    0.7047 C   0  0  0  0  0  0  0  0  0  0  0  0
   -3.9650   -0.1682    1.8889 C   0  0  0  0  0  0  0  0  0  0  0  0
   -2.5581    0.0257    1.5004 N   0  0  0  0  0  0  0  0  0  0  0  0
   -1.7198    0.2938    2.6690 C   0  0  0  0  0  0  0  0  0  0  0  0
   -0.3376    0.7808    2.2274 C   0  0  0  0  0  0  0  0  0  0  0  0
    0.1482    0.1186    0.9298 C   0  0  0  0  0  0  0  0  0  0  0  0
    1.5639   -0.0986    0.9727 O   0  0  0  0  0  0  0  0  0  0  0  0
    2.4081    0.9493    0.7346 C   0  0  0  0  0  0  0  0  0  0  0  0
    2.0451    2.2288    0.3099 C   0  0  0  0  0  0  0  0  0  0  0  0
    3.0199    3.2146    0.1161 C   0  0  0  0  0  0  0  0  0  0  0  0
    4.3646    2.9245    0.3353 C   0  0  0  0  0  0  0  0  0  0  0  0
    4.7313    1.6392    0.7336 C   0  0  0  0  0  0  0  0  0  0  0  0
    6.1567    1.3550    0.9951 C   0  0  0  0  0  0  0  0  0  0  0  0
    6.7327    2.0264    1.8473 O   0  0  0  0  0  0  0  0  0  0  0  0
    6.7765    0.3680    0.2551 N   0  0  0  0  0  0  0  0  0  0  0  0
    8.1891    0.0856    0.4433 C   0  0  0  0  0  0  0  0  0  0  0  0
    8.6178   -0.6028   -0.8446 C   0  0  0  0  0  0  0  0  0  0  0  0
    7.3448   -1.3069   -1.2941 C   0  0  0  0  0  0  0  0  0  0  0  0
    6.2579   -0.3066   -0.9265 C   0  0  0  0  0  0  0  0  0  0  0  0
    3.7575    0.6600    0.9497 C   0  0  0  0  0  0  0  0  0  0  0  0
   -0.5165   -1.2472    0.7684 C   0  0  0  0  0  0  0  0  0  0  0  0
   -2.0420   -1.1177    0.7248 C   0  0  0  0  0  0  0  0  0  0  0  0
   -5.6655   -1.3570    0.4307 C   0  0  0  0  0  0  0  0  0  0  0  0
   -6.5341   -1.3920   -0.6643 C   0  0  0  0  0  0  0  0  0  0  0  0
   -8.4373   -1.2311   -4.9441 H   0  0  0  0  0  0  0  0  0  0  0  0
   -9.8493   -0.9688   -3.8552 H   0  0  0  0  0  0  0  0  0  0  0  0
   -9.2468   -2.6088   -4.1736 H   0  0  0  0  0  0  0  0  0  0  0  0
   -5.9987    1.7503   -1.8640 H   0  0  0  0  0  0  0  0  0  0  0  0
   -4.4584    1.8041    0.0616 H   0  0  0  0  0  0  0  0  0  0  0  0
   -4.2965    0.6666    2.5218 H   0  0  0  0  0  0  0  0  0  0  0  0
   -4.0752   -1.0745    2.4999 H   0  0  0  0  0  0  0  0  0  0  0  0
   -2.1641    1.0730    3.3018 H   0  0  0  0  0  0  0  0  0  0  0  0
   -1.6251   -0.6043    3.2944 H   0  0  0  0  0  0  0  0  0  0  0  0
    0.3769    0.6140    3.0415 H   0  0  0  0  0  0  0  0  0  0  0  0
   -0.3696    1.8650    2.0738 H   0  0  0  0  0  0  0  0  0  0  0  0
   -0.1280    0.7137    0.0506 H   0  0  0  0  0  0  0  0  0  0  0  0
    1.0115    2.5031    0.1276 H   0  0  0  0  0  0  0  0  0  0  0  0
    2.7271    4.2126   -0.1995 H   0  0  0  0  0  0  0  0  0  0  0  0
    5.1214    3.6933    0.2017 H   0  0  0  0  0  0  0  0  0  0  0  0
    8.7611    0.9964    0.6427 H   0  0  0  0  0  0  0  0  0  0  0  0
    8.2789   -0.5863    1.3029 H   0  0  0  0  0  0  0  0  0  0  0  0
    9.4585   -1.2866   -0.6984 H   0  0  0  0  0  0  0  0  0  0  0  0
    8.9093    0.1465   -1.5903 H   0  0  0  0  0  0  0  0  0  0  0  0
    7.3455   -1.5589   -2.3575 H   0  0  0  0  0  0  0  0  0  0  0  0
    7.2117   -2.2329   -0.7212 H   0  0  0  0  0  0  0  0  0  0  0  0
    5.3025   -0.7962   -0.7295 H   0  0  0  0  0  0  0  0  0  0  0  0
    6.1228    0.4431   -1.7120 H   0  0  0  0  0  0  0  0  0  0  0  0
    4.0461   -0.3259    1.3021 H   0  0  0  0  0  0  0  0  0  0  0  0
   -0.1527   -1.7437   -0.1394 H   0  0  0  0  0  0  0  0  0  0  0  0
   -0.2169   -1.8991    1.6008 H   0  0  0  0  0  0  0  0  0  0  0  0
   -2.3517   -0.9956   -0.3199 H   0  0  0  0  0  0  0  0  0  0  0  0
   -2.4658   -2.0670    1.0767 H   0  0  0  0  0  0  0  0  0  0  0  0
   -5.5818   -2.2347    1.0668 H   0  0  0  0  0  0  0  0  0  0  0  0
   -7.1069   -2.2965   -0.8520 H   0  0  0  0  0  0  0  0  0  0  0  0
  1  2  1  0
  2  3  1  0
  3  4  2  0
  3  5  1  0
  5  6  2  0
  6  7  1  0
  7  8  2  0
  8  9  1  0
  9 10  1  0
 10 11  1  0
 11 12  1  0
 12 13  1  0
 13 14  1  0
 14 15  1  0
 15 16  2  0
 16 17  1  0
 17 18  2  0
 18 19  1  0
 19 20  1  0
 20 21  2  0
 20 22  1  0
 22 23  1  0
 23 24  1  0
 24 25  1  0
 25 26  1  0
 19 27  2  0
 13 28  1  0
 28 29  1  0
  8 30  1  0
 30 31  2  0
 31  5  1  0
 29 10  1  0
 27 15  1  0
 26 22  1  0
  1 32  1  0
  1 33  1  0
  1 34  1  0
  6 35  1  0
  7 36  1  0
  9 37  1  0
  9 38  1  0
 11 39  1  0
 11 40  1  0
 12 41  1  0
 12 42  1  0
 13 43  1  0
 16 44  1  0
 17 45  1  0
 18 46  1  0
 23 47  1  0
 23 48  1  0
 24 49  1  0
 24 50  1  0
 25 51  1  0
 25 52  1  0
 26 53  1  0
 26 54  1  0
 27 55  1  0
 28 56  1  0
 28 57  1  0
 29 58  1  0
 29 59  1  0
 30 60  1  0
 31 61  1  0
M  END
$$$$
