
     RDKit          3D

 33 35  0  0  0  0  0  0  0  0999 V2000
    1.2180   -0.5093    1.8098 O   0  0  0  0  0  0  0  0  0  0  0  0
    1.5760   -0.0718    0.7204 C   0  0  0  0  0  0  0  0  0  0  0  0
    0.7597    0.1853   -0.3589 N   0  0  0  0  0  0  0  0  0  0  0  0
   -0.6140    0.0808   -0.3370 C   0  0  0  0  0  0  0  0  0  0  0  0
   -1.2462   -0.1261   -1.9298 S   0  0  0  0  0  0  0  0  0  0  0  0
   -2.7736   -0.3741   -1.3101 C   0  0  0  0  0  0  0  0  0  0  0  0
   -2.8462   -0.2430    0.0476 C   0  0  0  0  0  0  0  0  0  0  0  0
   -1.5972    0.0933    0.6457 C   0  0  0  0  0  0  0  0  0  0  0  0
   -1.4310    0.4154    2.0482 C   0  0  0  0  0  0  0  0  0  0  0  0
   -2.0503   -0.1016    2.9688 O   0  0  0  0  0  0  0  0  0  0  0  0
   -0.6121    1.4656    2.2892 O   0  0  0  0  0  0  0  0  0  0  0  0
   -4.2391   -0.4334    0.5291 C   0  0  0  0  0  0  0  0  0  0  0  0
   -5.0603   -0.3646   -0.7971 C   0  0  0  0  0  0  0  0  0  0  0  0
   -4.0688   -0.6768   -1.9600 C   0  0  0  0  0  0  0  0  0  0  0  0
    3.0391    0.0818    0.4754 C   0  0  0  0  0  0  0  0  0  0  0  0
    3.8771   -0.8648    1.0926 C   0  0  0  0  0  0  0  0  0  0  0  0
    5.2613   -0.8153    0.9204 C   0  0  0  0  0  0  0  0  0  0  0  0
    5.8263    0.1854    0.1359 C   0  0  0  0  0  0  0  0  0  0  0  0
    5.0078    1.1400   -0.4690 C   0  0  0  0  0  0  0  0  0  0  0  0
    3.6170    1.0969   -0.2999 C   0  0  0  0  0  0  0  0  0  0  0  0
    2.7089    2.3585   -1.0553 Cl  0  0  0  0  0  0  0  0  0  0  0  0
    1.1738    0.3037   -1.2752 H   0  0  0  0  0  0  0  0  0  0  0  0
   -0.5648    1.4734    3.2652 H   0  0  0  0  0  0  0  0  0  0  0  0
   -4.3500   -1.4168    0.9978 H   0  0  0  0  0  0  0  0  0  0  0  0
   -4.5571    0.3427    1.2306 H   0  0  0  0  0  0  0  0  0  0  0  0
   -5.4471    0.6555   -0.9230 H   0  0  0  0  0  0  0  0  0  0  0  0
   -5.9195   -1.0424   -0.7895 H   0  0  0  0  0  0  0  0  0  0  0  0
   -4.1260   -1.7336   -2.2401 H   0  0  0  0  0  0  0  0  0  0  0  0
   -4.2737   -0.0524   -2.8337 H   0  0  0  0  0  0  0  0  0  0  0  0
    3.4473   -1.6513    1.7124 H   0  0  0  0  0  0  0  0  0  0  0  0
    5.8953   -1.5562    1.4024 H   0  0  0  0  0  0  0  0  0  0  0  0
    6.9049    0.2293    0.0025 H   0  0  0  0  0  0  0  0  0  0  0  0
    5.4645    1.9262   -1.0668 H   0  0  0  0  0  0  0  0  0  0  0  0
  1  2  2  0
  2  3  1  0
  3  4  1  0
  4  5  1  0
  5  6  1  0
  6  7  2  0
  7  8  1  0
  8  9  1  0
  9 10  2  0
  9 11  1  0
  7 12  1  0
 12 13  1  0
 13 14  1  0
  2 15  1  0
 15 16  2  0
 16 17  1  0
 17 18  2  0
 18 19  1  0
 19 20  2  0
 20 21  1  0
  8  4  2  0
 20 15  1  0
 14  6  1  0
  3 22  1  0
 11 23  1  0
 12 24  1  0
 12 25  1  0
 13 26  1  0
 13 27  1  0
 14 28  1  0
 14 29  1  0
 16 30  1  0
 17 31  1  0
 18 32  1  0
 19 33  1  0
M  END
$$$$
