
     RDKit          3D

 30 31  0  0  0  0  0  0  0  0999 V2000
    5.8078   -2.2708    1.3102 N   0  0  0  0  0  0  0  0  0  0  0  0
    4.8061   -1.8683    0.8859 C   0  0  0  0  0  0  0  0  0  0  0  0
    3.5416   -1.3395    0.3692 C   0  0  0  0  0  0  0  0  0  0  0  0
    2.7961   -0.6030    1.4713 C   0  0  0  0  0  0  0  0  0  0  0  0
    1.5712   -0.0046    0.9774 N   0  0  0  0  0  0  0  0  0  0  0  0
    1.2937    1.3209    0.8725 C   0  0  0  0  0  0  0  0  0  0  0  0
    0.0231    1.4164    0.3386 C   0  0  0  0  0  0  0  0  0  0  0  0
   -0.7605    2.6091    0.0842 C   0  0  0  0  0  0  0  0  0  0  0  0
   -0.3307    3.8155   -0.1475 N   0  0  0  0  0  0  0  0  0  0  0  0
    1.0610    3.9205   -0.2051 O   0  0  0  0  0  0  0  0  0  0  0  0
   -0.3844    0.0546    0.1581 C   0  0  0  0  0  0  0  0  0  0  0  0
   -1.6386   -0.4584   -0.3920 C   0  0  0  0  0  0  0  0  0  0  0  0
   -2.3161   -1.4986    0.2608 C   0  0  0  0  0  0  0  0  0  0  0  0
   -3.5164   -1.9967   -0.2537 C   0  0  0  0  0  0  0  0  0  0  0  0
   -4.0396   -1.4609   -1.4283 C   0  0  0  0  0  0  0  0  0  0  0  0
   -5.5165   -2.0724   -2.0638 Cl  0  0  0  0  0  0  0  0  0  0  0  0
   -3.3709   -0.4360   -2.0954 C   0  0  0  0  0  0  0  0  0  0  0  0
   -2.1700    0.0626   -1.5805 C   0  0  0  0  0  0  0  0  0  0  0  0
    0.5687   -0.7962    0.5737 N   0  0  0  0  0  0  0  0  0  0  0  0
    2.9329   -2.1616   -0.0253 H   0  0  0  0  0  0  0  0  0  0  0  0
    3.7396   -0.6632   -0.4710 H   0  0  0  0  0  0  0  0  0  0  0  0
    3.4115    0.1981    1.8985 H   0  0  0  0  0  0  0  0  0  0  0  0
    2.5182   -1.2775    2.2904 H   0  0  0  0  0  0  0  0  0  0  0  0
    1.9948    2.0787    1.1938 H   0  0  0  0  0  0  0  0  0  0  0  0
   -1.8552    2.4745    0.0804 H   0  0  0  0  0  0  0  0  0  0  0  0
    1.1916    4.8689   -0.3927 H   0  0  0  0  0  0  0  0  0  0  0  0
   -1.9070   -1.9271    1.1741 H   0  0  0  0  0  0  0  0  0  0  0  0
   -4.0309   -2.8021    0.2636 H   0  0  0  0  0  0  0  0  0  0  0  0
   -3.7729   -0.0271   -3.0189 H   0  0  0  0  0  0  0  0  0  0  0  0
   -1.6482    0.8441   -2.1285 H   0  0  0  0  0  0  0  0  0  0  0  0
  1  2  3  0
  2  3  1  0
  3  4  1  0
  4  5  1  0
  5  6  1  0
  6  7  2  0
  7  8  1  0
  8  9  2  3
  9 10  1  0
  7 11  1  0
 11 12  1  0
 12 13  2  0
 13 14  1  0
 14 15  2  0
 15 16  1  0
 15 17  1  0
 17 18  2  0
 11 19  2  0
 19  5  1  0
 18 12  1  0
  3 20  1  0
  3 21  1  0
  4 22  1  0
  4 23  1  0
  6 24  1  0
  8 25  1  0
 10 26  1  0
 13 27  1  0
 14 28  1  0
 17 29  1  0
 18 30  1  0
M  END
$$$$
