
     RDKit          3D

 48 50  0  0  0  0  0  0  0  0999 V2000
    4.5302   -3.4297    2.6504 C   0  0  0  0  0  0  0  0  0  0  0  0
    4.2821   -2.6991    1.4574 O   0  0  0  0  0  0  0  0  0  0  0  0
    2.9733   -2.5104    1.0886 C   0  0  0  0  0  0  0  0  0  0  0  0
    1.8737   -3.0359    1.7762 C   0  0  0  0  0  0  0  0  0  0  0  0
    0.5756   -2.7880    1.3241 C   0  0  0  0  0  0  0  0  0  0  0  0
    0.3740   -2.0123    0.1828 C   0  0  0  0  0  0  0  0  0  0  0  0
   -0.9878   -1.7199   -0.3030 C   0  0  0  0  0  0  0  0  0  0  0  0
   -2.0455   -2.1589    0.3065 N   0  0  0  0  0  0  0  0  0  0  0  0
   -3.2191   -1.7657   -0.2822 N   0  0  0  0  0  0  0  0  0  0  0  0
   -3.8846   -0.6102    0.0210 C   0  0  0  0  0  0  0  0  0  0  0  0
   -5.1683   -0.4594   -0.2349 N   0  0  0  0  0  0  0  0  0  0  0  0
   -5.5773    0.7843    0.1575 C   0  0  0  0  0  0  0  0  0  0  0  0
   -6.8464    1.1801    0.0008 O   0  0  0  0  0  0  0  0  0  0  0  0
   -4.6255    1.6077    0.7078 C   0  0  0  0  0  0  0  0  0  0  0  0
   -4.7605    3.0028    1.2162 C   0  0  0  0  0  0  0  0  0  0  0  0
   -5.4342    3.0209    2.5672 C   0  0  0  0  0  0  0  0  0  0  0  0
   -5.6602    2.0879    3.3203 O   0  0  0  0  0  0  0  0  0  0  0  0
   -5.7695    4.2774    2.9409 O   0  0  0  0  0  0  0  0  0  0  0  0
   -3.1309    0.7737    0.7379 S   0  0  0  0  0  0  0  0  0  0  0  0
    1.4627   -1.4845   -0.5164 C   0  0  0  0  0  0  0  0  0  0  0  0
    2.7650   -1.7371   -0.0731 C   0  0  0  0  0  0  0  0  0  0  0  0
    3.8936   -1.2343   -0.6728 O   0  0  0  0  0  0  0  0  0  0  0  0
    3.8218   -0.8329   -2.0420 C   0  0  0  0  0  0  0  0  0  0  0  0
    3.4350    0.6206   -2.2176 C   0  0  0  0  0  0  0  0  0  0  0  0
    3.7527    1.5826   -1.2460 C   0  0  0  0  0  0  0  0  0  0  0  0
    3.4050    2.9229   -1.4317 C   0  0  0  0  0  0  0  0  0  0  0  0
    2.7489    3.3122   -2.5966 C   0  0  0  0  0  0  0  0  0  0  0  0
    2.3185    4.9627   -2.8259 Cl  0  0  0  0  0  0  0  0  0  0  0  0
    2.4428    2.3740   -3.5800 C   0  0  0  0  0  0  0  0  0  0  0  0
    2.7894    1.0330   -3.3939 C   0  0  0  0  0  0  0  0  0  0  0  0
    4.0871   -2.9313    3.5191 H   0  0  0  0  0  0  0  0  0  0  0  0
    5.6136   -3.4622    2.8035 H   0  0  0  0  0  0  0  0  0  0  0  0
    4.1765   -4.4621    2.5616 H   0  0  0  0  0  0  0  0  0  0  0  0
    1.9907   -3.6405    2.6693 H   0  0  0  0  0  0  0  0  0  0  0  0
   -0.2713   -3.1961    1.8719 H   0  0  0  0  0  0  0  0  0  0  0  0
   -1.0699   -1.1028   -1.2171 H   0  0  0  0  0  0  0  0  0  0  0  0
   -3.8855   -2.5293   -0.4016 H   0  0  0  0  0  0  0  0  0  0  0  0
   -7.3187    0.4153   -0.3719 H   0  0  0  0  0  0  0  0  0  0  0  0
   -5.3690    3.5853    0.5144 H   0  0  0  0  0  0  0  0  0  0  0  0
   -3.7845    3.4908    1.3128 H   0  0  0  0  0  0  0  0  0  0  0  0
   -6.1851    4.1520    3.8205 H   0  0  0  0  0  0  0  0  0  0  0  0
    1.2752   -0.8615   -1.3833 H   0  0  0  0  0  0  0  0  0  0  0  0
    3.1677   -1.5024   -2.6144 H   0  0  0  0  0  0  0  0  0  0  0  0
    4.8291   -0.9559   -2.4574 H   0  0  0  0  0  0  0  0  0  0  0  0
    4.2701    1.2902   -0.3333 H   0  0  0  0  0  0  0  0  0  0  0  0
    3.6502    3.6536   -0.6657 H   0  0  0  0  0  0  0  0  0  0  0  0
    1.9388    2.6794   -4.4937 H   0  0  0  0  0  0  0  0  0  0  0  0
    2.5507    0.3126   -4.1742 H   0  0  0  0  0  0  0  0  0  0  0  0
  1  2  1  0
  2  3  1  0
  3  4  2  0
  4  5  1  0
  5  6  2  0
  6  7  1  0
  7  8  2  3
  8  9  1  0
  9 10  1  0
 10 11  2  0
 11 12  1  0
 12 13  1  0
 12 14  2  0
 14 15  1  0
 15 16  1  0
 16 17  2  0
 16 18  1  0
 14 19  1  0
  6 20  1  0
 20 21  2  0
 21 22  1  0
 22 23  1  0
 23 24  1  0
 24 25  2  0
 25 26  1  0
 26 27  2  0
 27 28  1  0
 27 29  1  0
 29 30  2  0
 21  3  1  0
 30 24  1  0
 19 10  1  0
  1 31  1  0
  1 32  1  0
  1 33  1  0
  4 34  1  0
  5 35  1  0
  7 36  1  0
  9 37  1  0
 13 38  1  0
 15 39  1  0
 15 40  1  0
 18 41  1  0
 20 42  1  0
 23 43  1  0
 23 44  1  0
 25 45  1  0
 26 46  1  0
 29 47  1  0
 30 48  1  0
M  END
$$$$
