
     RDKit          3D

 45 47  0  0  0  0  0  0  0  0999 V2000
    0.2958   -2.5924   -2.7042 C   0  0  0  0  0  0  0  0  0  0  0  0
    0.5909   -1.5006   -1.7431 C   0  0  0  0  0  0  0  0  0  0  0  0
    1.7607   -1.3213   -1.1601 N   0  0  0  0  0  0  0  0  0  0  0  0
    1.4981   -0.4006   -0.1652 C   0  0  0  0  0  0  0  0  0  0  0  0
    2.5513    0.0689    0.7642 C   0  0  0  0  0  0  0  0  0  0  0  0
    2.3373    0.8776    1.6615 O   0  0  0  0  0  0  0  0  0  0  0  0
    3.7710   -0.5207    0.4777 N   0  0  0  0  0  0  0  0  0  0  0  0
    5.0146   -0.3448    1.1193 C   0  0  0  0  0  0  0  0  0  0  0  0
    5.1982    0.5119    2.2086 C   0  0  0  0  0  0  0  0  0  0  0  0
    6.4585    0.6443    2.8036 C   0  0  0  0  0  0  0  0  0  0  0  0
    7.5427   -0.0789    2.3133 C   0  0  0  0  0  0  0  0  0  0  0  0
    9.0871    0.0904    3.0509 Cl  0  0  0  0  0  0  0  0  0  0  0  0
    7.3840   -0.9370    1.2309 C   0  0  0  0  0  0  0  0  0  0  0  0
    6.1255   -1.0672    0.6393 C   0  0  0  0  0  0  0  0  0  0  0  0
    5.9713   -2.1474   -0.7064 Cl  0  0  0  0  0  0  0  0  0  0  0  0
    0.2150   -0.0188   -0.1122 N   0  0  0  0  0  0  0  0  0  0  0  0
   -0.3326   -0.6205   -1.1965 N   0  0  0  0  0  0  0  0  0  0  0  0
   -1.6855   -0.3571   -1.5258 C   0  0  0  0  0  0  0  0  0  0  0  0
   -2.5803   -0.1622   -0.4564 C   0  0  0  0  0  0  0  0  0  0  0  0
   -3.9333    0.0824   -0.6978 C   0  0  0  0  0  0  0  0  0  0  0  0
   -4.7582    0.1936    0.3897 O   0  0  0  0  0  0  0  0  0  0  0  0
   -5.0445    1.5653    0.7208 C   0  0  0  0  0  0  0  0  0  0  0  0
   -6.4893    1.6200    1.2088 C   0  0  0  0  0  0  0  0  0  0  0  0
   -4.1006    2.0295    1.8273 C   0  0  0  0  0  0  0  0  0  0  0  0
   -4.4133    0.1100   -2.0080 C   0  0  0  0  0  0  0  0  0  0  0  0
   -6.0865    0.3294   -2.3621 Cl  0  0  0  0  0  0  0  0  0  0  0  0
   -3.5239   -0.0340   -3.0741 C   0  0  0  0  0  0  0  0  0  0  0  0
   -2.1582   -0.2472   -2.8400 C   0  0  0  0  0  0  0  0  0  0  0  0
   -1.1351   -0.1788   -4.2306 Cl  0  0  0  0  0  0  0  0  0  0  0  0
   -0.7714   -2.8181   -2.7741 H   0  0  0  0  0  0  0  0  0  0  0  0
    0.6847   -2.3502   -3.6969 H   0  0  0  0  0  0  0  0  0  0  0  0
    0.7944   -3.5111   -2.3756 H   0  0  0  0  0  0  0  0  0  0  0  0
    3.7532   -1.1715   -0.3082 H   0  0  0  0  0  0  0  0  0  0  0  0
    4.3818    1.0954    2.6242 H   0  0  0  0  0  0  0  0  0  0  0  0
    6.5811    1.3161    3.6503 H   0  0  0  0  0  0  0  0  0  0  0  0
    8.2315   -1.5002    0.8504 H   0  0  0  0  0  0  0  0  0  0  0  0
   -2.2367   -0.2256    0.5762 H   0  0  0  0  0  0  0  0  0  0  0  0
   -4.9435    2.2276   -0.1492 H   0  0  0  0  0  0  0  0  0  0  0  0
   -6.6373    0.9624    2.0727 H   0  0  0  0  0  0  0  0  0  0  0  0
   -7.1734    1.2704    0.4289 H   0  0  0  0  0  0  0  0  0  0  0  0
   -6.7757    2.6381    1.4898 H   0  0  0  0  0  0  0  0  0  0  0  0
   -4.3540    3.0385    2.1671 H   0  0  0  0  0  0  0  0  0  0  0  0
   -3.0641    2.0409    1.4758 H   0  0  0  0  0  0  0  0  0  0  0  0
   -4.1360    1.3489    2.6851 H   0  0  0  0  0  0  0  0  0  0  0  0
   -3.8951    0.0444   -4.0942 H   0  0  0  0  0  0  0  0  0  0  0  0
  1  2  1  0
  2  3  2  0
  3  4  1  0
  4  5  1  0
  5  6  2  0
  5  7  1  0
  7  8  1  0
  8  9  2  0
  9 10  1  0
 10 11  2  0
 11 12  1  0
 11 13  1  0
 13 14  2  0
 14 15  1  0
  4 16  2  0
 16 17  1  0
 17 18  1  0
 18 19  2  0
 19 20  1  0
 20 21  1  0
 21 22  1  0
 22 23  1  0
 22 24  1  0
 20 25  2  0
 25 26  1  0
 25 27  1  0
 27 28  2  0
 28 29  1  0
 17  2  1  0
 28 18  1  0
 14  8  1  0
  1 30  1  0
  1 31  1  0
  1 32  1  0
  7 33  1  0
  9 34  1  0
 10 35  1  0
 13 36  1  0
 19 37  1  0
 22 38  1  0
 23 39  1  0
 23 40  1  0
 23 41  1  0
 24 42  1  0
 24 43  1  0
 24 44  1  0
 27 45  1  0
M  END
$$$$
