
     RDKit          3D

 41 42  0  0  0  0  0  0  0  0999 V2000
   -1.2244    3.4614    0.6718 O   0  0  0  0  0  0  0  0  0  0  0  0
   -0.7264    2.5460    0.0207 C   0  0  0  0  0  0  0  0  0  0  0  0
    0.3838    2.7817   -0.9964 C   0  0  0  0  0  0  0  0  0  0  0  0
    1.3067    1.6969   -0.9891 O   0  0  0  0  0  0  0  0  0  0  0  0
    2.2468    1.8999   -2.0079 N   0  0  0  0  0  0  0  0  0  0  0  0
    3.2897    1.1326   -1.8897 C   0  0  0  0  0  0  0  0  0  0  0  0
    3.5516    0.0729   -0.8947 C   0  0  0  0  0  0  0  0  0  0  0  0
    4.8562   -0.0510   -0.4021 C   0  0  0  0  0  0  0  0  0  0  0  0
    5.1629   -1.0483    0.5266 C   0  0  0  0  0  0  0  0  0  0  0  0
    4.1716   -1.9327    0.9552 C   0  0  0  0  0  0  0  0  0  0  0  0
    2.8727   -1.8172    0.4398 C   0  0  0  0  0  0  0  0  0  0  0  0
    1.8333   -2.7578    0.8732 N   0  0  0  0  0  4  0  0  0  0  0  0
    2.1129   -3.5454    1.7876 O   0  0  0  0  0  0  0  0  0  0  0  0
    0.7387   -2.7113    0.2941 O   0  0  0  0  0  1  0  0  0  0  0  0
    2.5574   -0.8214   -0.4931 C   0  0  0  0  0  0  0  0  0  0  0  0
   -1.1567    1.2361    0.1035 N   0  0  0  0  0  0  0  0  0  0  0  0
   -2.2957    0.8405    0.9222 C   0  0  0  0  0  0  0  0  0  0  0  0
   -2.2144   -0.6476    1.2853 C   0  0  0  0  0  0  0  0  0  0  0  0
   -2.5218   -1.5670    0.1028 C   0  0  0  0  0  0  0  0  0  0  0  0
   -3.8526   -1.2179   -0.5552 C   0  0  0  0  0  0  0  0  0  0  0  0
   -3.9108    0.2516   -0.9590 C   0  0  0  0  0  0  0  0  0  0  0  0
   -3.6251    1.1709    0.2277 C   0  0  0  0  0  0  0  0  0  0  0  0
    0.9123    3.7029   -0.7282 H   0  0  0  0  0  0  0  0  0  0  0  0
   -0.0745    2.8869   -1.9859 H   0  0  0  0  0  0  0  0  0  0  0  0
    4.1063    1.3083   -2.6119 H   0  0  0  0  0  0  0  0  0  0  0  0
    5.6368    0.6362   -0.7225 H   0  0  0  0  0  0  0  0  0  0  0  0
    6.1744   -1.1342    0.9189 H   0  0  0  0  0  0  0  0  0  0  0  0
    4.4256   -2.7036    1.6809 H   0  0  0  0  0  0  0  0  0  0  0  0
    1.5580   -0.7468   -0.9133 H   0  0  0  0  0  0  0  0  0  0  0  0
   -0.7942    0.5848   -0.5833 H   0  0  0  0  0  0  0  0  0  0  0  0
   -2.2388    1.4260    1.8484 H   0  0  0  0  0  0  0  0  0  0  0  0
   -2.9363   -0.8554    2.0856 H   0  0  0  0  0  0  0  0  0  0  0  0
   -1.2215   -0.8872    1.6848 H   0  0  0  0  0  0  0  0  0  0  0  0
   -2.5437   -2.6079    0.4452 H   0  0  0  0  0  0  0  0  0  0  0  0
   -1.7201   -1.4974   -0.6417 H   0  0  0  0  0  0  0  0  0  0  0  0
   -4.0044   -1.8497   -1.4376 H   0  0  0  0  0  0  0  0  0  0  0  0
   -4.6721   -1.4382    0.1400 H   0  0  0  0  0  0  0  0  0  0  0  0
   -3.1853    0.4422   -1.7591 H   0  0  0  0  0  0  0  0  0  0  0  0
   -4.9015    0.4800   -1.3682 H   0  0  0  0  0  0  0  0  0  0  0  0
   -3.6378    2.2132   -0.1116 H   0  0  0  0  0  0  0  0  0  0  0  0
   -4.4395    1.0671    0.9563 H   0  0  0  0  0  0  0  0  0  0  0  0
  1  2  2  0
  2  3  1  0
  3  4  1  0
  4  5  1  0
  5  6  2  3
  6  7  1  0
  7  8  2  0
  8  9  1  0
  9 10  2  0
 10 11  1  0
 11 12  1  0
 12 13  2  0
 12 14  1  0
 11 15  2  0
  2 16  1  0
 16 17  1  0
 17 18  1  0
 18 19  1  0
 19 20  1  0
 20 21  1  0
 21 22  1  0
 15  7  1  0
 22 17  1  0
  3 23  1  0
  3 24  1  0
  6 25  1  0
  8 26  1  0
  9 27  1  0
 10 28  1  0
 15 29  1  0
 16 30  1  0
 17 31  1  0
 18 32  1  0
 18 33  1  0
 19 34  1  0
 19 35  1  0
 20 36  1  0
 20 37  1  0
 21 38  1  0
 21 39  1  0
 22 40  1  0
 22 41  1  0
M  CHG  2  12   1  14  -1
M  END
$$$$
