
     RDKit          3D

 49 52  0  0  0  0  0  0  0  0999 V2000
    1.3875    0.1371    2.4713 N   0  0  0  0  0  0  0  0  0  0  0  0
    0.1888   -0.1893    1.9625 C   0  0  0  0  0  0  0  0  0  0  0  0
   -0.6004   -1.0660    2.5072 N   0  0  0  0  0  0  0  0  0  0  0  0
   -1.7761   -1.1185    1.5924 C   0  0  0  0  0  0  0  0  0  0  0  0
   -1.5873   -0.0044    0.5388 C   0  0  0  0  0  0  0  0  0  0  0  0
   -2.5844    1.1528    0.7068 C   0  0  0  0  0  0  0  0  0  0  0  0
   -3.9798    0.8034    0.2439 C   0  0  0  0  0  0  0  0  0  0  0  0
   -4.9990    0.5545    1.1745 C   0  0  0  0  0  0  0  0  0  0  0  0
   -6.2856    0.2192    0.7465 C   0  0  0  0  0  0  0  0  0  0  0  0
   -6.5533    0.1353   -0.6155 C   0  0  0  0  0  0  0  0  0  0  0  0
   -7.7942   -0.1892   -1.0775 O   0  0  0  0  0  0  0  0  0  0  0  0
   -5.5580    0.3822   -1.5525 C   0  0  0  0  0  0  0  0  0  0  0  0
   -4.2725    0.7166   -1.1250 C   0  0  0  0  0  0  0  0  0  0  0  0
   -0.2334    0.4552    0.8458 N   0  0  0  0  0  0  0  0  0  0  0  0
    0.6194    0.9453   -0.2324 C   0  0  0  0  0  0  0  0  0  0  0  0
    1.1869   -0.1712   -1.1247 C   0  0  0  0  0  0  0  0  0  0  0  0
    2.4973   -0.7618   -0.6394 C   0  0  0  0  0  0  0  0  0  0  0  0
    2.4474   -1.9944    0.0356 C   0  0  0  0  0  0  0  0  0  0  0  0
    3.6064   -2.5939    0.5142 C   0  0  0  0  0  0  0  0  0  0  0  0
    4.8361   -1.9714    0.3259 C   0  0  0  0  0  0  0  0  0  0  0  0
    4.9253   -0.7407   -0.3398 C   0  0  0  0  0  0  0  0  0  0  0  0
    6.1782   -0.1295   -0.5143 C   0  0  0  0  0  0  0  0  0  0  0  0
    6.2966    1.0930   -1.1719 C   0  0  0  0  0  0  0  0  0  0  0  0
    5.1614    1.7206   -1.6647 C   0  0  0  0  0  0  0  0  0  0  0  0
    3.9079    1.1254   -1.4988 C   0  0  0  0  0  0  0  0  0  0  0  0
    3.7519   -0.1145   -0.8346 C   0  0  0  0  0  0  0  0  0  0  0  0
    1.5168   -0.2577    3.3952 H   0  0  0  0  0  0  0  0  0  0  0  0
    1.5937    1.1249    2.4436 H   0  0  0  0  0  0  0  0  0  0  0  0
   -2.6952   -1.0102    2.1751 H   0  0  0  0  0  0  0  0  0  0  0  0
   -1.7956   -2.1016    1.1083 H   0  0  0  0  0  0  0  0  0  0  0  0
   -1.6514   -0.4328   -0.4682 H   0  0  0  0  0  0  0  0  0  0  0  0
   -2.6060    1.4914    1.7513 H   0  0  0  0  0  0  0  0  0  0  0  0
   -2.2471    2.0247    0.1303 H   0  0  0  0  0  0  0  0  0  0  0  0
   -4.7966    0.6187    2.2421 H   0  0  0  0  0  0  0  0  0  0  0  0
   -7.0576    0.0294    1.4854 H   0  0  0  0  0  0  0  0  0  0  0  0
   -8.3801   -0.3301   -0.3158 H   0  0  0  0  0  0  0  0  0  0  0  0
   -5.7834    0.3160   -2.6131 H   0  0  0  0  0  0  0  0  0  0  0  0
   -3.5040    0.9128   -1.8691 H   0  0  0  0  0  0  0  0  0  0  0  0
    0.0100    1.6034   -0.8644 H   0  0  0  0  0  0  0  0  0  0  0  0
    1.4152    1.5801    0.1732 H   0  0  0  0  0  0  0  0  0  0  0  0
    1.3452    0.2227   -2.1365 H   0  0  0  0  0  0  0  0  0  0  0  0
    0.4508   -0.9737   -1.2588 H   0  0  0  0  0  0  0  0  0  0  0  0
    1.4917   -2.4846    0.2136 H   0  0  0  0  0  0  0  0  0  0  0  0
    3.5483   -3.5412    1.0431 H   0  0  0  0  0  0  0  0  0  0  0  0
    5.7301   -2.4565    0.7112 H   0  0  0  0  0  0  0  0  0  0  0  0
    7.0792   -0.6075   -0.1354 H   0  0  0  0  0  0  0  0  0  0  0  0
    7.2739    1.5506   -1.2985 H   0  0  0  0  0  0  0  0  0  0  0  0
    5.2466    2.6733   -2.1806 H   0  0  0  0  0  0  0  0  0  0  0  0
    3.0488    1.6524   -1.9034 H   0  0  0  0  0  0  0  0  0  0  0  0
  1  2  1  0
  2  3  2  0
  3  4  1  0
  4  5  1  0
  5  6  1  0
  6  7  1  0
  7  8  2  0
  8  9  1  0
  9 10  2  0
 10 11  1  0
 10 12  1  0
 12 13  2  0
  5 14  1  0
 14 15  1  0
 15 16  1  0
 16 17  1  0
 17 18  2  0
 18 19  1  0
 19 20  2  0
 20 21  1  0
 21 22  2  0
 22 23  1  0
 23 24  2  0
 24 25  1  0
 25 26  2  0
 14  2  1  0
 26 17  1  0
 13  7  1  0
 26 21  1  0
  1 27  1  0
  1 28  1  0
  4 29  1  0
  4 30  1  0
  5 31  1  0
  6 32  1  0
  6 33  1  0
  8 34  1  0
  9 35  1  0
 11 36  1  0
 12 37  1  0
 13 38  1  0
 15 39  1  0
 15 40  1  0
 16 41  1  0
 16 42  1  0
 18 43  1  0
 19 44  1  0
 20 45  1  0
 22 46  1  0
 23 47  1  0
 24 48  1  0
 25 49  1  0
M  END
$$$$
