
     RDKit          3D

 52 55  0  0  0  0  0  0  0  0999 V2000
   -4.2351    2.1671    0.0963 C   0  0  0  0  0  0  0  0  0  0  0  0
   -5.3723    1.1826    0.1138 C   0  0  0  0  0  0  0  0  0  0  0  0
   -6.5420    1.5149   -0.5957 C   0  0  0  0  0  0  0  0  0  0  0  0
   -7.6562    0.6762   -0.5848 C   0  0  0  0  0  0  0  0  0  0  0  0
   -7.6229   -0.5065    0.1423 C   0  0  0  0  0  0  0  0  0  0  0  0
   -6.4662   -0.8564    0.8374 C   0  0  0  0  0  0  0  0  0  0  0  0
   -5.3160   -0.0479    0.7982 C   0  0  0  0  0  0  0  0  0  0  0  0
   -4.2148   -0.4838    1.5819 N   0  0  0  0  0  0  0  0  0  0  0  0
   -2.8463   -0.3719    1.2485 C   0  0  0  0  0  0  0  0  0  0  0  0
   -2.0822    0.2573    2.1686 N   0  0  0  0  0  0  0  0  0  0  0  0
   -0.7512    0.4530    1.9542 N   0  0  0  0  0  0  0  0  0  0  0  0
   -0.1732   -0.0026    0.8206 C   0  0  0  0  0  0  0  0  0  0  0  0
    1.2689    0.2683    0.7431 C   0  0  0  0  0  0  0  0  0  0  0  0
    1.7399    1.5746    0.5380 C   0  0  0  0  0  0  0  0  0  0  0  0
    3.1114    1.8390    0.4658 C   0  0  0  0  0  0  0  0  0  0  0  0
    4.0398    0.8000    0.5973 C   0  0  0  0  0  0  0  0  0  0  0  0
    5.4909    1.1318    0.5149 C   0  0  0  0  0  0  0  0  0  0  0  0
    5.8794    2.2753    0.7254 O   0  0  0  0  0  0  0  0  0  0  0  0
    6.3377    0.1048    0.1568 N   0  0  0  0  0  0  0  0  0  0  0  0
    7.7451    0.3585   -0.0907 C   0  0  0  0  0  0  0  0  0  0  0  0
    8.5138   -0.9498   -0.2504 C   0  0  0  0  0  0  0  0  0  0  0  0
    7.9715   -1.7093   -1.3331 O   0  0  0  0  0  0  0  0  0  0  0  0
    3.5839   -0.5028    0.8300 C   0  0  0  0  0  0  0  0  0  0  0  0
    2.2103   -0.7632    0.9008 C   0  0  0  0  0  0  0  0  0  0  0  0
   -0.9071   -0.6831   -0.1700 C   0  0  0  0  0  0  0  0  0  0  0  0
   -0.3343   -1.1619   -1.3764 C   0  0  0  0  0  0  0  0  0  0  0  0
   -1.0891   -1.8534   -2.3229 C   0  0  0  0  0  0  0  0  0  0  0  0
   -2.4341   -2.0868   -2.0877 C   0  0  0  0  0  0  0  0  0  0  0  0
   -3.0231   -1.6144   -0.9143 C   0  0  0  0  0  0  0  0  0  0  0  0
   -2.2879   -0.8901    0.0583 C   0  0  0  0  0  0  0  0  0  0  0  0
   -4.5667    3.1500   -0.2569 H   0  0  0  0  0  0  0  0  0  0  0  0
   -3.8365    2.3203    1.1037 H   0  0  0  0  0  0  0  0  0  0  0  0
   -3.4421    1.8257   -0.5748 H   0  0  0  0  0  0  0  0  0  0  0  0
   -6.5967    2.4479   -1.1537 H   0  0  0  0  0  0  0  0  0  0  0  0
   -8.5526    0.9555   -1.1322 H   0  0  0  0  0  0  0  0  0  0  0  0
   -8.4929   -1.1566    0.1707 H   0  0  0  0  0  0  0  0  0  0  0  0
   -6.4499   -1.7853    1.4040 H   0  0  0  0  0  0  0  0  0  0  0  0
   -4.2836   -0.0226    2.4912 H   0  0  0  0  0  0  0  0  0  0  0  0
    1.0351    2.3992    0.4412 H   0  0  0  0  0  0  0  0  0  0  0  0
    3.4528    2.8611    0.3111 H   0  0  0  0  0  0  0  0  0  0  0  0
    5.9525   -0.7229   -0.2826 H   0  0  0  0  0  0  0  0  0  0  0  0
    7.8035    0.9508   -1.0106 H   0  0  0  0  0  0  0  0  0  0  0  0
    8.1539    0.9529    0.7328 H   0  0  0  0  0  0  0  0  0  0  0  0
    8.4336   -1.5600    0.6547 H   0  0  0  0  0  0  0  0  0  0  0  0
    9.5729   -0.7618   -0.4507 H   0  0  0  0  0  0  0  0  0  0  0  0
    8.1412   -1.2064   -2.1493 H   0  0  0  0  0  0  0  0  0  0  0  0
    4.2785   -1.3225    0.9910 H   0  0  0  0  0  0  0  0  0  0  0  0
    1.8738   -1.7802    1.0984 H   0  0  0  0  0  0  0  0  0  0  0  0
    0.7194   -0.9962   -1.5940 H   0  0  0  0  0  0  0  0  0  0  0  0
   -0.6237   -2.2112   -3.2377 H   0  0  0  0  0  0  0  0  0  0  0  0
   -3.0320   -2.6326   -2.8132 H   0  0  0  0  0  0  0  0  0  0  0  0
   -4.0792   -1.8243   -0.7607 H   0  0  0  0  0  0  0  0  0  0  0  0
  1  2  1  0
  2  3  2  0
  3  4  1  0
  4  5  2  0
  5  6  1  0
  6  7  2  0
  7  8  1  0
  8  9  1  0
  9 10  2  0
 10 11  1  0
 11 12  2  0
 12 13  1  0
 13 14  2  0
 14 15  1  0
 15 16  2  0
 16 17  1  0
 17 18  2  0
 17 19  1  0
 19 20  1  0
 20 21  1  0
 21 22  1  0
 16 23  1  0
 23 24  2  0
 12 25  1  0
 25 26  2  0
 26 27  1  0
 27 28  2  0
 28 29  1  0
 29 30  2  0
  7  2  1  0
 30  9  1  0
 24 13  1  0
 30 25  1  0
  1 31  1  0
  1 32  1  0
  1 33  1  0
  3 34  1  0
  4 35  1  0
  5 36  1  0
  6 37  1  0
  8 38  1  0
 14 39  1  0
 15 40  1  0
 19 41  1  0
 20 42  1  0
 20 43  1  0
 21 44  1  0
 21 45  1  0
 22 46  1  0
 23 47  1  0
 24 48  1  0
 26 49  1  0
 27 50  1  0
 28 51  1  0
 29 52  1  0
M  END
$$$$
