
     RDKit          3D

 38 40  0  0  0  0  0  0  0  0999 V2000
    3.3759   -0.8676   -1.9144 N   0  0  0  0  0  0  0  0  0  0  0  0
    3.2083   -0.7623   -0.6267 C   0  0  0  0  0  0  0  0  0  0  0  0
    2.0447   -1.1931   -0.0089 N   0  0  0  0  0  0  0  0  0  0  0  0
    0.9402   -1.1902   -0.8792 O   0  0  0  0  0  0  0  0  0  0  0  0
    0.0678   -0.1650   -0.6122 C   0  0  0  0  0  0  0  0  0  0  0  0
    0.1819    0.6055    0.3343 O   0  0  0  0  0  0  0  0  0  0  0  0
   -0.9994   -0.1281   -1.6810 C   0  0  0  0  0  0  0  0  0  0  0  0
   -2.3170    0.4492   -1.2027 C   0  0  0  0  0  0  0  0  0  0  0  0
   -2.6177    1.7786   -1.5503 C   0  0  0  0  0  0  0  0  0  0  0  0
   -3.8069    2.3696   -1.1389 C   0  0  0  0  0  0  0  0  0  0  0  0
   -4.7118    1.6434   -0.3703 C   0  0  0  0  0  0  0  0  0  0  0  0
   -4.4410    0.3187    0.0022 C   0  0  0  0  0  0  0  0  0  0  0  0
   -5.3669   -0.3925    0.7839 C   0  0  0  0  0  0  0  0  0  0  0  0
   -5.1201   -1.7081    1.1711 C   0  0  0  0  0  0  0  0  0  0  0  0
   -3.9420   -2.3298    0.7812 C   0  0  0  0  0  0  0  0  0  0  0  0
   -3.0111   -1.6364    0.0027 C   0  0  0  0  0  0  0  0  0  0  0  0
   -3.2320   -0.3003   -0.4083 C   0  0  0  0  0  0  0  0  0  0  0  0
    4.2472   -0.1589    0.2913 C   0  0  0  0  0  0  0  0  0  0  0  0
    5.5709    0.0221   -0.0901 C   0  0  0  0  0  0  0  0  0  0  0  0
    6.4474    0.5891    0.8328 C   0  0  0  0  0  0  0  0  0  0  0  0
    5.9786    0.9504    2.0918 C   0  0  0  0  0  0  0  0  0  0  0  0
    4.6440    0.7244    2.3875 C   0  0  0  0  0  0  0  0  0  0  0  0
    3.7676    0.1732    1.5214 N   0  0  0  0  0  0  0  0  0  0  0  0
    4.2643   -0.4786   -2.2281 H   0  0  0  0  0  0  0  0  0  0  0  0
    1.8677   -0.6924    0.8717 H   0  0  0  0  0  0  0  0  0  0  0  0
   -0.6032    0.4617   -2.5171 H   0  0  0  0  0  0  0  0  0  0  0  0
   -1.1727   -1.1359   -2.0764 H   0  0  0  0  0  0  0  0  0  0  0  0
   -1.9184    2.3660   -2.1425 H   0  0  0  0  0  0  0  0  0  0  0  0
   -4.0276    3.3980   -1.4124 H   0  0  0  0  0  0  0  0  0  0  0  0
   -5.6354    2.1256   -0.0569 H   0  0  0  0  0  0  0  0  0  0  0  0
   -6.2946    0.0792    1.1015 H   0  0  0  0  0  0  0  0  0  0  0  0
   -5.8462   -2.2431    1.7775 H   0  0  0  0  0  0  0  0  0  0  0  0
   -3.7415   -3.3551    1.0819 H   0  0  0  0  0  0  0  0  0  0  0  0
   -2.1038   -2.1663   -0.2751 H   0  0  0  0  0  0  0  0  0  0  0  0
    5.9383   -0.2804   -1.0620 H   0  0  0  0  0  0  0  0  0  0  0  0
    7.4915    0.7445    0.5731 H   0  0  0  0  0  0  0  0  0  0  0  0
    6.6395    1.3952    2.8282 H   0  0  0  0  0  0  0  0  0  0  0  0
    4.2334    0.9899    3.3583 H   0  0  0  0  0  0  0  0  0  0  0  0
  1  2  2  3
  2  3  1  0
  3  4  1  0
  4  5  1  0
  5  6  2  0
  5  7  1  0
  7  8  1  0
  8  9  2  0
  9 10  1  0
 10 11  2  0
 11 12  1  0
 12 13  2  0
 13 14  1  0
 14 15  2  0
 15 16  1  0
 16 17  2  0
  2 18  1  0
 18 19  2  0
 19 20  1  0
 20 21  2  0
 21 22  1  0
 22 23  2  0
 17  8  1  0
 23 18  1  0
 17 12  1  0
  1 24  1  0
  3 25  1  0
  7 26  1  0
  7 27  1  0
  9 28  1  0
 10 29  1  0
 11 30  1  0
 13 31  1  0
 14 32  1  0
 15 33  1  0
 16 34  1  0
 19 35  1  0
 20 36  1  0
 21 37  1  0
 22 38  1  0
M  END
$$$$
