
     RDKit          3D

 50 53  0  0  0  0  0  0  0  0999 V2000
    6.3453    0.0103    1.0447 C   0  0  0  0  0  0  0  0  0  0  0  0
    5.4778    0.6740   -0.0168 C   0  0  0  0  0  0  0  0  0  0  0  0
    4.1570    1.0085    0.5257 N   0  0  0  0  0  0  0  0  0  0  0  0
    4.0211    2.3629    1.0807 C   0  0  0  0  0  0  0  0  0  0  0  0
    3.1649    3.2400    0.1713 C   0  0  0  0  0  0  0  0  0  0  0  0
    3.1584    0.0498    0.6699 C   0  0  0  0  0  0  0  0  0  0  0  0
    3.2279   -1.2060    0.0331 C   0  0  0  0  0  0  0  0  0  0  0  0
    2.2173   -2.1734    0.1617 C   0  0  0  0  0  0  0  0  0  0  0  0
    1.0811   -1.9179    0.9344 C   0  0  0  0  0  0  0  0  0  0  0  0
    0.0704   -2.9687    1.0853 C   0  0  0  0  0  0  0  0  0  0  0  0
   -1.2549   -2.8707    0.8842 C   0  0  0  0  0  0  0  0  0  0  0  0
   -2.3118   -4.2602    1.1287 S   0  0  0  0  0  0  0  0  0  0  0  0
   -3.6610   -3.3101    0.6710 C   0  0  0  0  0  0  0  0  0  0  0  0
   -4.9415   -3.5271    0.5809 N   0  0  0  0  0  0  0  0  0  0  0  0
   -5.4971   -2.3254    0.1633 N   0  0  0  0  0  0  0  0  0  0  0  0
   -4.5228   -1.4342    0.0011 C   0  0  0  0  0  0  0  0  0  0  0  0
   -4.6855   -0.0485   -0.4268 C   0  0  0  0  0  0  0  0  0  0  0  0
   -5.3090    0.8465    0.4578 C   0  0  0  0  0  0  0  0  0  0  0  0
   -5.4875    2.1868    0.1117 C   0  0  0  0  0  0  0  0  0  0  0  0
   -5.0491    2.6461   -1.1250 C   0  0  0  0  0  0  0  0  0  0  0  0
   -4.4491    1.7632   -2.0242 C   0  0  0  0  0  0  0  0  0  0  0  0
   -4.2695    0.4071   -1.6953 C   0  0  0  0  0  0  0  0  0  0  0  0
   -3.6154   -0.4942   -2.7079 C   0  0  0  0  0  0  0  0  0  0  0  0
   -3.3413   -2.0394    0.3403 N   0  0  0  0  0  0  0  0  0  0  0  0
   -2.0219   -1.6659    0.4219 C   0  0  0  0  0  0  0  0  0  0  0  0
   -1.6454   -0.5406    0.1533 O   0  0  0  0  0  0  0  0  0  0  0  0
    0.9936   -0.6940    1.5954 C   0  0  0  0  0  0  0  0  0  0  0  0
    2.0037    0.2715    1.4491 C   0  0  0  0  0  0  0  0  0  0  0  0
    5.9086   -0.9326    1.3865 H   0  0  0  0  0  0  0  0  0  0  0  0
    6.4617    0.6573    1.9182 H   0  0  0  0  0  0  0  0  0  0  0  0
    7.3385   -0.2070    0.6412 H   0  0  0  0  0  0  0  0  0  0  0  0
    5.9835    1.5871   -0.3510 H   0  0  0  0  0  0  0  0  0  0  0  0
    5.4129    0.0484   -0.9119 H   0  0  0  0  0  0  0  0  0  0  0  0
    5.0129    2.8314    1.1665 H   0  0  0  0  0  0  0  0  0  0  0  0
    3.6263    2.3474    2.1072 H   0  0  0  0  0  0  0  0  0  0  0  0
    3.1399    4.2589    0.5613 H   0  0  0  0  0  0  0  0  0  0  0  0
    3.5672    3.2744   -0.8481 H   0  0  0  0  0  0  0  0  0  0  0  0
    2.1291    2.8753    0.1229 H   0  0  0  0  0  0  0  0  0  0  0  0
    4.0679   -1.4659   -0.6059 H   0  0  0  0  0  0  0  0  0  0  0  0
    2.3326   -3.1214   -0.3720 H   0  0  0  0  0  0  0  0  0  0  0  0
    0.4924   -3.9293    1.3845 H   0  0  0  0  0  0  0  0  0  0  0  0
   -5.6649    0.4977    1.4264 H   0  0  0  0  0  0  0  0  0  0  0  0
   -5.9698    2.8730    0.8058 H   0  0  0  0  0  0  0  0  0  0  0  0
   -5.1886    3.6906   -1.3975 H   0  0  0  0  0  0  0  0  0  0  0  0
   -4.1369    2.1393   -2.9924 H   0  0  0  0  0  0  0  0  0  0  0  0
   -3.7638   -0.1160   -3.7240 H   0  0  0  0  0  0  0  0  0  0  0  0
   -2.5437   -0.5579   -2.5191 H   0  0  0  0  0  0  0  0  0  0  0  0
   -4.0437   -1.4993   -2.6876 H   0  0  0  0  0  0  0  0  0  0  0  0
    0.1394   -0.4565    2.2230 H   0  0  0  0  0  0  0  0  0  0  0  0
    1.8428    1.2146    1.9712 H   0  0  0  0  0  0  0  0  0  0  0  0
  1  2  1  0
  2  3  1  0
  3  4  1  0
  4  5  1  0
  3  6  1  0
  6  7  2  0
  7  8  1  0
  8  9  2  0
  9 10  1  0
 10 11  2  3
 11 12  1  0
 12 13  1  0
 13 14  2  0
 14 15  1  0
 15 16  2  0
 16 17  1  0
 17 18  2  0
 18 19  1  0
 19 20  2  0
 20 21  1  0
 21 22  2  0
 22 23  1  0
 16 24  1  0
 24 25  1  0
 25 26  2  0
  9 27  1  0
 27 28  2  0
 28  6  1  0
 25 11  1  0
 24 13  1  0
 22 17  1  0
  1 29  1  0
  1 30  1  0
  1 31  1  0
  2 32  1  0
  2 33  1  0
  4 34  1  0
  4 35  1  0
  5 36  1  0
  5 37  1  0
  5 38  1  0
  7 39  1  0
  8 40  1  0
 10 41  1  0
 18 42  1  0
 19 43  1  0
 20 44  1  0
 21 45  1  0
 23 46  1  0
 23 47  1  0
 23 48  1  0
 27 49  1  0
 28 50  1  0
M  END
$$$$
