
     RDKit          3D

 61 63  0  0  0  0  0  0  0  0999 V2000
   -7.1452   -1.3286   -0.0643 C   0  0  0  0  0  0  0  0  0  0  0  0
   -6.1299   -1.3573   -1.1946 C   0  0  0  0  0  0  0  0  0  0  0  0
   -4.7184   -0.8869   -0.8137 C   0  0  0  0  0  0  0  0  0  0  0  0
   -4.0807   -1.7801    0.1674 N   0  0  0  0  0  0  0  0  0  0  0  0
   -4.1303   -1.2070    1.5243 C   0  0  0  0  0  0  0  0  0  0  0  0
   -3.7300   -2.1792    2.6433 C   0  0  0  0  0  0  0  0  0  0  0  0
   -4.6105   -3.4194    2.7024 C   0  0  0  0  0  0  0  0  0  0  0  0
   -2.7285   -2.2086   -0.2471 C   0  0  0  0  0  0  0  0  0  0  0  0
   -1.5516   -1.2128   -0.1265 C   0  0  0  0  0  0  0  0  0  0  0  0
   -1.7500   -0.0367   -0.9729 N   0  0  0  0  0  0  0  0  0  0  0  0
   -1.2372    1.4726   -0.4843 S   0  0  0  0  0  6  0  0  0  0  0  0
   -1.4984    2.3699   -1.5875 O   0  0  0  0  0  0  0  0  0  0  0  0
   -1.7506    1.7231    0.8436 O   0  0  0  0  0  0  0  0  0  0  0  0
    0.5230    1.2554   -0.3677 C   0  0  0  0  0  0  0  0  0  0  0  0
    1.3035    1.3481   -1.5310 C   0  0  0  0  0  0  0  0  0  0  0  0
    2.6959    1.2014   -1.4640 C   0  0  0  0  0  0  0  0  0  0  0  0
    3.2897    0.9812   -0.2325 C   0  0  0  0  0  0  0  0  0  0  0  0
    2.4942    0.8807    0.9179 C   0  0  0  0  0  0  0  0  0  0  0  0
    1.1147    1.0317    0.8763 C   0  0  0  0  0  0  0  0  0  0  0  0
    3.3274    0.6524    2.1398 C   0  0  0  0  0  0  0  0  0  0  0  0
    4.6923    0.3524    1.5216 C   0  0  0  0  0  0  0  0  0  0  0  0
    4.6371    0.7834    0.1164 N   0  0  0  0  0  0  0  0  0  0  0  0
    5.8157    0.8506   -0.6187 C   0  0  0  0  0  0  0  0  0  0  0  0
    6.8648    0.4092   -0.1203 O   0  0  0  0  0  0  0  0  0  0  0  0
    5.8210    1.5186   -2.0121 C   0  0  0  0  0  0  0  0  0  0  0  0
    7.2163    1.9014   -2.6020 C   0  0  0  0  0  0  0  0  0  0  0  0
    6.5483    3.1412   -3.2185 C   0  0  0  0  0  0  0  0  0  0  0  0
    5.4996    3.0420   -2.0978 C   0  0  0  0  0  0  0  0  0  0  0  0
   -8.1418   -1.5657   -0.4506 H   0  0  0  0  0  0  0  0  0  0  0  0
   -7.1905   -0.3387    0.3998 H   0  0  0  0  0  0  0  0  0  0  0  0
   -6.9084   -2.0690    0.7052 H   0  0  0  0  0  0  0  0  0  0  0  0
   -6.0810   -2.3723   -1.6079 H   0  0  0  0  0  0  0  0  0  0  0  0
   -6.4968   -0.7120   -2.0024 H   0  0  0  0  0  0  0  0  0  0  0  0
   -4.1528   -0.8729   -1.7535 H   0  0  0  0  0  0  0  0  0  0  0  0
   -4.7427    0.1539   -0.4661 H   0  0  0  0  0  0  0  0  0  0  0  0
   -3.5073   -0.3080    1.5928 H   0  0  0  0  0  0  0  0  0  0  0  0
   -5.1504   -0.8731    1.7458 H   0  0  0  0  0  0  0  0  0  0  0  0
   -2.6806   -2.4778    2.5449 H   0  0  0  0  0  0  0  0  0  0  0  0
   -3.8084   -1.6510    3.6015 H   0  0  0  0  0  0  0  0  0  0  0  0
   -5.6629   -3.1469    2.8303 H   0  0  0  0  0  0  0  0  0  0  0  0
   -4.3192   -4.0473    3.5504 H   0  0  0  0  0  0  0  0  0  0  0  0
   -4.5178   -4.0219    1.7935 H   0  0  0  0  0  0  0  0  0  0  0  0
   -2.7784   -2.5728   -1.2825 H   0  0  0  0  0  0  0  0  0  0  0  0
   -2.4646   -3.1003    0.3351 H   0  0  0  0  0  0  0  0  0  0  0  0
   -0.6363   -1.7176   -0.4562 H   0  0  0  0  0  0  0  0  0  0  0  0
   -1.4044   -0.9318    0.9204 H   0  0  0  0  0  0  0  0  0  0  0  0
   -1.9142   -0.1495   -1.9708 H   0  0  0  0  0  0  0  0  0  0  0  0
    0.8321    1.5358   -2.4946 H   0  0  0  0  0  0  0  0  0  0  0  0
    3.2526    1.2503   -2.3883 H   0  0  0  0  0  0  0  0  0  0  0  0
    0.5208    0.9814    1.7848 H   0  0  0  0  0  0  0  0  0  0  0  0
    2.9672   -0.1829    2.7467 H   0  0  0  0  0  0  0  0  0  0  0  0
    3.3620    1.5645    2.7448 H   0  0  0  0  0  0  0  0  0  0  0  0
    5.5039    0.8626    2.0519 H   0  0  0  0  0  0  0  0  0  0  0  0
    4.9031   -0.7243    1.5312 H   0  0  0  0  0  0  0  0  0  0  0  0
    5.2807    0.9087   -2.7485 H   0  0  0  0  0  0  0  0  0  0  0  0
    7.6380    1.1912   -3.3183 H   0  0  0  0  0  0  0  0  0  0  0  0
    7.9800    2.1445   -1.8535 H   0  0  0  0  0  0  0  0  0  0  0  0
    7.1499    4.0531   -3.2287 H   0  0  0  0  0  0  0  0  0  0  0  0
    6.1391    2.9713   -4.2215 H   0  0  0  0  0  0  0  0  0  0  0  0
    4.4853    3.3134   -2.3986 H   0  0  0  0  0  0  0  0  0  0  0  0
    5.7613    3.6068   -1.1950 H   0  0  0  0  0  0  0  0  0  0  0  0
  1  2  1  0
  2  3  1  0
  3  4  1  0
  4  5  1  0
  5  6  1  0
  6  7  1  0
  4  8  1  0
  8  9  1  0
  9 10  1  0
 10 11  1  0
 11 12  2  0
 11 13  2  0
 11 14  1  0
 14 15  2  0
 15 16  1  0
 16 17  2  0
 17 18  1  0
 18 19  2  0
 18 20  1  0
 20 21  1  0
 21 22  1  0
 22 23  1  0
 23 24  2  0
 23 25  1  0
 25 26  1  0
 26 27  1  0
 27 28  1  0
 19 14  1  0
 28 25  1  0
 22 17  1  0
  1 29  1  0
  1 30  1  0
  1 31  1  0
  2 32  1  0
  2 33  1  0
  3 34  1  0
  3 35  1  0
  5 36  1  0
  5 37  1  0
  6 38  1  0
  6 39  1  0
  7 40  1  0
  7 41  1  0
  7 42  1  0
  8 43  1  0
  8 44  1  0
  9 45  1  0
  9 46  1  0
 10 47  1  0
 15 48  1  0
 16 49  1  0
 19 50  1  0
 20 51  1  0
 20 52  1  0
 21 53  1  0
 21 54  1  0
 25 55  1  0
 26 56  1  0
 26 57  1  0
 27 58  1  0
 27 59  1  0
 28 60  1  0
 28 61  1  0
M  END
$$$$
