
     RDKit          3D

 46 49  0  0  0  0  0  0  0  0999 V2000
    5.7622   -0.8467    1.3399 C   0  0  0  0  0  0  0  0  0  0  0  0
    5.3105    0.1572    0.3824 N   0  0  0  0  0  0  0  0  0  0  0  0
    5.9149    1.4635    0.6602 C   0  0  0  0  0  0  0  0  0  0  0  0
    5.0615    2.4286   -0.1446 C   0  0  0  0  0  0  0  0  0  0  0  0
    3.7268    1.7180   -0.3364 C   0  0  0  0  0  0  0  0  0  0  0  0
    3.8571    0.3931    0.4213 C   0  0  0  0  0  0  0  0  0  0  0  0
    3.0424   -0.7409   -0.2137 C   0  0  0  0  0  0  0  0  0  0  0  0
    1.5403   -0.4429   -0.2119 C   0  0  0  0  0  0  0  0  0  0  0  0
    0.8129   -1.6018   -0.7263 N   0  0  0  0  0  0  0  0  0  0  0  0
   -0.5721   -1.5340   -0.8962 C   0  0  0  0  0  0  0  0  0  0  0  0
   -1.2007   -2.5331   -1.6440 C   0  0  0  0  0  0  0  0  0  0  0  0
   -2.5910   -2.5617   -1.7948 C   0  0  0  0  0  0  0  0  0  0  0  0
   -3.4034   -1.6024   -1.1772 C   0  0  0  0  0  0  0  0  0  0  0  0
   -5.1474   -1.7360   -1.4487 S   0  0  0  0  0  0  0  0  0  0  0  0
   -5.8197   -0.4404   -0.4453 C   0  0  0  0  0  0  0  0  0  0  0  0
   -7.2207   -0.3317   -0.4081 C   0  0  0  0  0  0  0  0  0  0  0  0
   -7.8483    0.6603    0.3478 C   0  0  0  0  0  0  0  0  0  0  0  0
   -7.0821    1.5602    1.0778 C   0  0  0  0  0  0  0  0  0  0  0  0
   -5.6915    1.4635    1.0489 C   0  0  0  0  0  0  0  0  0  0  0  0
   -5.0531    0.4646    0.2899 C   0  0  0  0  0  0  0  0  0  0  0  0
   -3.5723    0.4252    0.3103 C   0  0  0  0  0  0  0  0  0  0  0  0
   -2.9660    1.2922    0.9392 O   0  0  0  0  0  0  0  0  0  0  0  0
   -2.7970   -0.6218   -0.3962 C   0  0  0  0  0  0  0  0  0  0  0  0
   -1.3931   -0.6049   -0.2509 C   0  0  0  0  0  0  0  0  0  0  0  0
    6.8539   -0.9367    1.3089 H   0  0  0  0  0  0  0  0  0  0  0  0
    5.4683   -0.6058    2.3678 H   0  0  0  0  0  0  0  0  0  0  0  0
    5.3632   -1.8347    1.0898 H   0  0  0  0  0  0  0  0  0  0  0  0
    5.8538    1.7195    1.7260 H   0  0  0  0  0  0  0  0  0  0  0  0
    6.9651    1.5035    0.3537 H   0  0  0  0  0  0  0  0  0  0  0  0
    5.5172    2.6326   -1.1206 H   0  0  0  0  0  0  0  0  0  0  0  0
    4.9401    3.3844    0.3751 H   0  0  0  0  0  0  0  0  0  0  0  0
    2.8987    2.3203    0.0527 H   0  0  0  0  0  0  0  0  0  0  0  0
    3.5509    1.5607   -1.4077 H   0  0  0  0  0  0  0  0  0  0  0  0
    3.5268    0.5472    1.4586 H   0  0  0  0  0  0  0  0  0  0  0  0
    3.3798   -0.9207   -1.2432 H   0  0  0  0  0  0  0  0  0  0  0  0
    3.2149   -1.6756    0.3342 H   0  0  0  0  0  0  0  0  0  0  0  0
    1.3305    0.4333   -0.8359 H   0  0  0  0  0  0  0  0  0  0  0  0
    1.2244   -0.2277    0.8154 H   0  0  0  0  0  0  0  0  0  0  0  0
    1.2716   -2.0367   -1.5245 H   0  0  0  0  0  0  0  0  0  0  0  0
   -0.6081   -3.3111   -2.1206 H   0  0  0  0  0  0  0  0  0  0  0  0
   -3.0311   -3.3537   -2.3983 H   0  0  0  0  0  0  0  0  0  0  0  0
   -7.8416   -1.0250   -0.9736 H   0  0  0  0  0  0  0  0  0  0  0  0
   -8.9334    0.7280    0.3638 H   0  0  0  0  0  0  0  0  0  0  0  0
   -7.5616    2.3366    1.6689 H   0  0  0  0  0  0  0  0  0  0  0  0
   -5.1015    2.1748    1.6253 H   0  0  0  0  0  0  0  0  0  0  0  0
   -0.9521    0.1590    0.3845 H   0  0  0  0  0  0  0  0  0  0  0  0
  1  2  1  0
  2  3  1  0
  3  4  1  0
  4  5  1  0
  5  6  1  0
  6  7  1  0
  7  8  1  0
  8  9  1  0
  9 10  1  0
 10 11  2  0
 11 12  1  0
 12 13  2  0
 13 14  1  0
 14 15  1  0
 15 16  2  0
 16 17  1  0
 17 18  2  0
 18 19  1  0
 19 20  2  0
 20 21  1  0
 21 22  2  0
 21 23  1  0
 23 24  2  0
  6  2  1  0
 24 10  1  0
 23 13  1  0
 20 15  1  0
  1 25  1  0
  1 26  1  0
  1 27  1  0
  3 28  1  0
  3 29  1  0
  4 30  1  0
  4 31  1  0
  5 32  1  0
  5 33  1  0
  6 34  1  0
  7 35  1  0
  7 36  1  0
  8 37  1  0
  8 38  1  0
  9 39  1  0
 11 40  1  0
 12 41  1  0
 16 42  1  0
 17 43  1  0
 18 44  1  0
 19 45  1  0
 24 46  1  0
M  END
$$$$
