
     RDKit          3D

 50 53  0  0  0  0  0  0  0  0999 V2000
   -1.7906    1.3561   -4.4828 C   0  0  0  0  0  0  0  0  0  0  0  0
   -1.2742    1.6456   -3.1908 O   0  0  0  0  0  0  0  0  0  0  0  0
   -1.7644    0.8081   -2.2096 C   0  0  0  0  0  0  0  0  0  0  0  0
   -1.2055    0.9757   -1.0251 N   0  0  0  0  0  0  0  0  0  0  0  0
   -1.6718    0.1707   -0.0799 C   0  0  0  0  0  0  0  0  0  0  0  0
   -1.1545    0.2441    1.2388 N   0  0  0  0  0  0  0  0  0  0  0  0
    0.1912    0.4846    1.4011 N   0  0  0  0  0  0  0  0  0  0  0  0
    0.5434    1.7226    1.2345 C   0  0  0  0  0  0  0  0  0  0  0  0
    1.9122    2.1423    1.3565 C   0  0  0  0  0  0  0  0  0  0  0  0
    2.5058    3.3729    1.1543 C   0  0  0  0  0  0  0  0  0  0  0  0
    3.8881    3.2054    1.4177 C   0  0  0  0  0  0  0  0  0  0  0  0
    4.0575    1.8875    1.7864 C   0  0  0  0  0  0  0  0  0  0  0  0
    5.2033    1.0726    2.1596 C   0  0  0  0  0  0  0  0  0  0  0  0
    6.3820    1.1750    1.4014 C   0  0  0  0  0  0  0  0  0  0  0  0
    7.4978    0.3792    1.6880 C   0  0  0  0  0  0  0  0  0  0  0  0
    7.4599   -0.5357    2.7392 C   0  0  0  0  0  0  0  0  0  0  0  0
    6.3089   -0.6505    3.5151 C   0  0  0  0  0  0  0  0  0  0  0  0
    5.1969    0.1565    3.2230 C   0  0  0  0  0  0  0  0  0  0  0  0
    4.0551    0.0530    4.1169 N   0  0  0  0  0  4  0  0  0  0  0  0
    3.7099    1.0799    4.7192 O   0  0  0  0  0  0  0  0  0  0  0  0
    3.5666   -1.0748    4.2772 O   0  0  0  0  0  1  0  0  0  0  0  0
    2.8629    1.2356    1.7346 O   0  0  0  0  0  0  0  0  0  0  0  0
   -2.6476   -0.7137   -0.2697 N   0  0  0  0  0  0  0  0  0  0  0  0
   -3.1620   -0.7992   -1.4932 C   0  0  0  0  0  0  0  0  0  0  0  0
   -4.1633   -1.7442   -1.7369 N   0  0  0  0  0  0  0  0  0  0  0  0
   -4.9132   -2.1552   -0.5374 C   0  0  0  0  0  0  0  0  0  0  0  0
   -5.9133   -3.2660   -0.8927 C   0  0  0  0  0  0  0  0  0  0  0  0
   -6.7837   -2.8689   -1.9637 O   0  0  0  0  0  0  0  0  0  0  0  0
   -6.0113   -2.5832   -3.1397 C   0  0  0  0  0  0  0  0  0  0  0  0
   -5.0173   -1.4374   -2.8964 C   0  0  0  0  0  0  0  0  0  0  0  0
   -2.7368   -0.0475   -2.5006 N   0  0  0  0  0  0  0  0  0  0  0  0
   -1.3115    2.0361   -5.1939 H   0  0  0  0  0  0  0  0  0  0  0  0
   -2.8704    1.5363   -4.5284 H   0  0  0  0  0  0  0  0  0  0  0  0
   -1.5498    0.3320   -4.7895 H   0  0  0  0  0  0  0  0  0  0  0  0
   -1.4696   -0.6262    1.6687 H   0  0  0  0  0  0  0  0  0  0  0  0
   -0.1970    2.5068    0.9939 H   0  0  0  0  0  0  0  0  0  0  0  0
    2.0015    4.2790    0.8482 H   0  0  0  0  0  0  0  0  0  0  0  0
    4.6626    3.9574    1.3596 H   0  0  0  0  0  0  0  0  0  0  0  0
    6.4354    1.8639    0.5597 H   0  0  0  0  0  0  0  0  0  0  0  0
    8.3959    0.4692    1.0802 H   0  0  0  0  0  0  0  0  0  0  0  0
    8.3277   -1.1551    2.9545 H   0  0  0  0  0  0  0  0  0  0  0  0
    6.2834   -1.3554    4.3436 H   0  0  0  0  0  0  0  0  0  0  0  0
   -5.4627   -1.2929   -0.1379 H   0  0  0  0  0  0  0  0  0  0  0  0
   -4.2456   -2.5400    0.2426 H   0  0  0  0  0  0  0  0  0  0  0  0
   -5.3923   -4.1875   -1.1795 H   0  0  0  0  0  0  0  0  0  0  0  0
   -6.5386   -3.4942   -0.0237 H   0  0  0  0  0  0  0  0  0  0  0  0
   -5.4908   -3.4956   -3.4552 H   0  0  0  0  0  0  0  0  0  0  0  0
   -6.7091   -2.3062   -3.9362 H   0  0  0  0  0  0  0  0  0  0  0  0
   -4.4247   -1.3061   -3.8096 H   0  0  0  0  0  0  0  0  0  0  0  0
   -5.5765   -0.5127   -2.7030 H   0  0  0  0  0  0  0  0  0  0  0  0
  1  2  1  0
  2  3  1  0
  3  4  2  0
  4  5  1  0
  5  6  1  0
  6  7  1  0
  7  8  2  3
  8  9  1  0
  9 10  2  0
 10 11  1  0
 11 12  2  0
 12 13  1  0
 13 14  2  0
 14 15  1  0
 15 16  2  0
 16 17  1  0
 17 18  2  0
 18 19  1  0
 19 20  2  0
 19 21  1  0
 12 22  1  0
  5 23  2  0
 23 24  1  0
 24 25  1  0
 25 26  1  0
 26 27  1  0
 27 28  1  0
 28 29  1  0
 29 30  1  0
 24 31  2  0
 31  3  1  0
 22  9  1  0
 30 25  1  0
 18 13  1  0
  1 32  1  0
  1 33  1  0
  1 34  1  0
  6 35  1  0
  8 36  1  0
 10 37  1  0
 11 38  1  0
 14 39  1  0
 15 40  1  0
 16 41  1  0
 17 42  1  0
 26 43  1  0
 26 44  1  0
 27 45  1  0
 27 46  1  0
 29 47  1  0
 29 48  1  0
 30 49  1  0
 30 50  1  0
M  CHG  2  19   1  21  -1
M  END
$$$$
