
     RDKit          3D

 46 50  0  0  0  0  0  0  0  0999 V2000
   -0.0493    0.7343   -3.1524 O   0  0  0  0  0  0  0  0  0  0  0  0
   -0.5356    0.6164   -2.0322 C   0  0  0  0  0  0  0  0  0  0  0  0
   -1.7741    1.3448   -1.6993 C   0  0  0  0  0  0  0  0  0  0  0  0
   -2.3008    2.2927   -2.5826 C   0  0  0  0  0  0  0  0  0  0  0  0
   -3.4492    2.9934   -2.2227 C   0  0  0  0  0  0  0  0  0  0  0  0
   -4.1059    4.1672   -3.2942 Cl  0  0  0  0  0  0  0  0  0  0  0  0
   -4.0679    2.7560   -0.9949 C   0  0  0  0  0  0  0  0  0  0  0  0
   -3.5387    1.8026   -0.1222 C   0  0  0  0  0  0  0  0  0  0  0  0
   -2.3978    1.0861   -0.4810 C   0  0  0  0  0  0  0  0  0  0  0  0
   -1.9568    0.1634    0.4228 O   0  0  0  0  0  0  0  0  0  0  0  0
   -1.0633   -0.8623   -0.0885 C   0  0  0  0  0  0  0  0  0  0  0  0
   -0.5208   -1.6037    1.1734 C   0  0  0  0  0  0  0  0  0  0  0  0
   -1.2780   -2.8927    1.5135 C   0  0  0  0  0  0  0  0  0  0  0  0
   -2.7038   -2.7413    1.2841 N   0  0  0  0  0  0  0  0  0  0  0  0
   -3.0151   -2.5121   -0.1250 C   0  0  0  0  0  0  0  0  0  0  0  0
   -1.8652   -1.8910   -0.9269 C   0  0  0  0  0  0  0  0  0  0  0  0
    0.0832   -0.1943   -0.8965 C   0  0  0  0  0  0  0  0  0  0  0  0
    0.9835    0.7431   -0.0990 C   0  0  0  0  0  0  0  0  0  0  0  0
    2.2473   -0.0419   -0.1193 C   0  0  0  0  0  0  0  0  0  0  0  0
    3.4428    0.3769    0.6512 C   0  0  0  0  0  0  0  0  0  0  0  0
    3.4547    1.5598    1.4004 C   0  0  0  0  0  0  0  0  0  0  0  0
    4.5996    1.9226    2.1181 C   0  0  0  0  0  0  0  0  0  0  0  0
    5.7299    1.1069    2.0865 C   0  0  0  0  0  0  0  0  0  0  0  0
    7.1336    1.5581    2.9716 Cl  0  0  0  0  0  0  0  0  0  0  0  0
    5.7281   -0.0699    1.3418 C   0  0  0  0  0  0  0  0  0  0  0  0
    4.5856   -0.4346    0.6241 C   0  0  0  0  0  0  0  0  0  0  0  0
    2.2202   -1.1083   -0.8503 N   0  0  0  0  0  0  0  0  0  0  0  0
    0.9470   -1.1908   -1.4553 O   0  0  0  0  0  0  0  0  0  0  0  0
   -1.8144    2.4857   -3.5364 H   0  0  0  0  0  0  0  0  0  0  0  0
   -4.9629    3.3058   -0.7134 H   0  0  0  0  0  0  0  0  0  0  0  0
   -4.0247    1.6088    0.8316 H   0  0  0  0  0  0  0  0  0  0  0  0
    0.5278   -1.8910    1.0525 H   0  0  0  0  0  0  0  0  0  0  0  0
   -0.5658   -0.9313    2.0403 H   0  0  0  0  0  0  0  0  0  0  0  0
   -0.8850   -3.7358    0.9314 H   0  0  0  0  0  0  0  0  0  0  0  0
   -1.1021   -3.1383    2.5670 H   0  0  0  0  0  0  0  0  0  0  0  0
   -3.2113   -3.5591    1.6211 H   0  0  0  0  0  0  0  0  0  0  0  0
   -3.8963   -1.8628   -0.1761 H   0  0  0  0  0  0  0  0  0  0  0  0
   -3.2977   -3.4597   -0.5989 H   0  0  0  0  0  0  0  0  0  0  0  0
   -1.1933   -2.6878   -1.2721 H   0  0  0  0  0  0  0  0  0  0  0  0
   -2.2954   -1.4399   -1.8278 H   0  0  0  0  0  0  0  0  0  0  0  0
    0.6350    0.9170    0.9221 H   0  0  0  0  0  0  0  0  0  0  0  0
    1.1523    1.7081   -0.5891 H   0  0  0  0  0  0  0  0  0  0  0  0
    2.5920    2.2183    1.4404 H   0  0  0  0  0  0  0  0  0  0  0  0
    4.6044    2.8426    2.6977 H   0  0  0  0  0  0  0  0  0  0  0  0
    6.6084   -0.7070    1.3121 H   0  0  0  0  0  0  0  0  0  0  0  0
    4.5959   -1.3551    0.0424 H   0  0  0  0  0  0  0  0  0  0  0  0
  1  2  2  0
  2  3  1  0
  3  4  2  0
  4  5  1  0
  5  6  1  0
  5  7  2  0
  7  8  1  0
  8  9  2  0
  9 10  1  0
 10 11  1  0
 11 12  1  0
 12 13  1  0
 13 14  1  0
 14 15  1  0
 15 16  1  0
 11 17  1  0
 17 18  1  0
 18 19  1  0
 19 20  1  0
 20 21  2  0
 21 22  1  0
 22 23  2  0
 23 24  1  0
 23 25  1  0
 25 26  2  0
 19 27  2  0
 27 28  1  0
 17  2  1  0
 26 20  1  0
  9  3  1  0
 16 11  1  0
 28 17  1  0
  4 29  1  0
  7 30  1  0
  8 31  1  0
 12 32  1  0
 12 33  1  0
 13 34  1  0
 13 35  1  0
 14 36  1  0
 15 37  1  0
 15 38  1  0
 16 39  1  0
 16 40  1  0
 18 41  1  0
 18 42  1  0
 21 43  1  0
 22 44  1  0
 25 45  1  0
 26 46  1  0
M  END
$$$$
