
     RDKit          3D

 53 56  0  0  0  0  0  0  0  0999 V2000
   -3.8405    0.6214    3.3479 C   0  0  0  0  0  0  0  0  0  0  0  0
   -4.1489    0.8659    1.8757 C   0  0  0  0  0  0  0  0  0  0  0  0
   -3.4865   -0.1197    0.8914 C   0  0  0  0  0  0  0  0  0  0  0  0
   -3.8609   -1.6009    1.1321 C   0  0  0  0  0  0  0  0  0  0  0  0
   -5.3266   -1.9016    0.9232 C   0  0  0  0  0  0  0  0  0  0  0  0
   -5.8733   -1.8780   -0.3678 C   0  0  0  0  0  0  0  0  0  0  0  0
   -7.2276   -2.1469   -0.5690 C   0  0  0  0  0  0  0  0  0  0  0  0
   -8.0482   -2.4451    0.5168 C   0  0  0  0  0  0  0  0  0  0  0  0
   -7.5142   -2.4784    1.8036 C   0  0  0  0  0  0  0  0  0  0  0  0
   -6.1593   -2.2100    2.0068 C   0  0  0  0  0  0  0  0  0  0  0  0
   -2.0318    0.0563    0.8960 N   0  0  0  0  0  0  0  0  0  0  0  0
   -1.2544   -0.3243   -0.1786 C   0  0  0  0  0  0  0  0  0  0  0  0
   -1.7104   -0.8135   -1.2054 O   0  0  0  0  0  0  0  0  0  0  0  0
    0.2095   -0.0791   -0.0579 C   0  0  0  0  0  0  0  0  0  0  0  0
    0.8615   -0.1112    1.1776 C   0  0  0  0  0  0  0  0  0  0  0  0
    2.2406    0.1213    1.2555 C   0  0  0  0  0  0  0  0  0  0  0  0
    2.9782    0.3801    0.0822 C   0  0  0  0  0  0  0  0  0  0  0  0
    4.3354    0.6275    0.0181 N   0  0  0  0  0  0  0  0  0  0  0  0
    4.7315    0.8211   -1.2219 C   0  0  0  0  0  0  0  0  0  0  0  0
    6.0270    1.0798   -1.5529 N   0  0  0  0  0  0  0  0  0  0  0  0
    6.4814    1.3123   -2.9249 C   0  0  0  0  0  0  0  0  0  0  0  0
    8.0110    1.1745   -3.0041 C   0  0  0  0  0  0  0  0  0  0  0  0
    8.7201    2.0801   -2.1474 O   0  0  0  0  0  0  0  0  0  0  0  0
    8.0057    2.4083   -0.9462 C   0  0  0  0  0  0  0  0  0  0  0  0
    7.0089    1.3302   -0.4918 C   0  0  0  0  0  0  0  0  0  0  0  0
    3.4500    0.7167   -2.3825 S   0  0  0  0  0  0  0  0  0  0  0  0
    2.3130    0.3903   -1.1400 C   0  0  0  0  0  0  0  0  0  0  0  0
    0.9311    0.1582   -1.2382 C   0  0  0  0  0  0  0  0  0  0  0  0
   -2.7652    0.6470    3.5466 H   0  0  0  0  0  0  0  0  0  0  0  0
   -4.2310   -0.3404    3.6897 H   0  0  0  0  0  0  0  0  0  0  0  0
   -4.3091    1.4003    3.9585 H   0  0  0  0  0  0  0  0  0  0  0  0
   -3.8267    1.8847    1.6243 H   0  0  0  0  0  0  0  0  0  0  0  0
   -5.2365    0.8470    1.7385 H   0  0  0  0  0  0  0  0  0  0  0  0
   -3.8219    0.1638   -0.1153 H   0  0  0  0  0  0  0  0  0  0  0  0
   -3.2940   -2.2478    0.4493 H   0  0  0  0  0  0  0  0  0  0  0  0
   -3.5450   -1.9157    2.1345 H   0  0  0  0  0  0  0  0  0  0  0  0
   -5.2415   -1.6546   -1.2262 H   0  0  0  0  0  0  0  0  0  0  0  0
   -7.6403   -2.1267   -1.5742 H   0  0  0  0  0  0  0  0  0  0  0  0
   -9.1024   -2.6563    0.3594 H   0  0  0  0  0  0  0  0  0  0  0  0
   -8.1531   -2.7164    2.6500 H   0  0  0  0  0  0  0  0  0  0  0  0
   -5.7601   -2.2459    3.0174 H   0  0  0  0  0  0  0  0  0  0  0  0
   -1.6120    0.5771    1.6529 H   0  0  0  0  0  0  0  0  0  0  0  0
    0.3240   -0.3442    2.0926 H   0  0  0  0  0  0  0  0  0  0  0  0
    2.7552    0.0945    2.2115 H   0  0  0  0  0  0  0  0  0  0  0  0
    6.0406    0.5887   -3.6194 H   0  0  0  0  0  0  0  0  0  0  0  0
    6.1876    2.3226   -3.2334 H   0  0  0  0  0  0  0  0  0  0  0  0
    8.3157    0.1560   -2.7350 H   0  0  0  0  0  0  0  0  0  0  0  0
    8.3523    1.3560   -4.0283 H   0  0  0  0  0  0  0  0  0  0  0  0
    7.4819    3.3548   -1.1253 H   0  0  0  0  0  0  0  0  0  0  0  0
    8.7480    2.5899   -0.1625 H   0  0  0  0  0  0  0  0  0  0  0  0
    6.5371    1.6699    0.4375 H   0  0  0  0  0  0  0  0  0  0  0  0
    7.5410    0.3950   -0.2813 H   0  0  0  0  0  0  0  0  0  0  0  0
    0.4331    0.1656   -2.2046 H   0  0  0  0  0  0  0  0  0  0  0  0
  1  2  1  0
  2  3  1  0
  3  4  1  0
  4  5  1  0
  5  6  2  0
  6  7  1  0
  7  8  2  0
  8  9  1  0
  9 10  2  0
  3 11  1  0
 11 12  1  0
 12 13  2  0
 12 14  1  0
 14 15  2  0
 15 16  1  0
 16 17  2  0
 17 18  1  0
 18 19  2  0
 19 20  1  0
 20 21  1  0
 21 22  1  0
 22 23  1  0
 23 24  1  0
 24 25  1  0
 19 26  1  0
 26 27  1  0
 27 28  2  0
 10  5  1  0
 28 14  1  0
 27 17  1  0
 25 20  1  0
  1 29  1  0
  1 30  1  0
  1 31  1  0
  2 32  1  0
  2 33  1  0
  3 34  1  0
  4 35  1  0
  4 36  1  0
  6 37  1  0
  7 38  1  0
  8 39  1  0
  9 40  1  0
 10 41  1  0
 11 42  1  0
 15 43  1  0
 16 44  1  0
 21 45  1  0
 21 46  1  0
 22 47  1  0
 22 48  1  0
 24 49  1  0
 24 50  1  0
 25 51  1  0
 25 52  1  0
 28 53  1  0
M  END
$$$$
