
     RDKit          3D

 40 42  0  0  0  0  0  0  0  0999 V2000
    6.2069    0.1205    0.8677 C   0  0  0  0  0  0  0  0  0  0  0  0
    5.5141    0.8294   -0.2856 C   0  0  0  0  0  0  0  0  0  0  0  0
    4.0164    0.6636   -0.2271 C   0  0  0  0  0  0  0  0  0  0  0  0
    3.2235    1.6072    0.4361 C   0  0  0  0  0  0  0  0  0  0  0  0
    1.8372    1.4470    0.5012 C   0  0  0  0  0  0  0  0  0  0  0  0
    1.2257    0.3359   -0.0904 C   0  0  0  0  0  0  0  0  0  0  0  0
   -0.2468    0.1928   -0.0013 C   0  0  0  0  0  0  0  0  0  0  0  0
   -1.0116    1.0892    0.5416 N   0  0  0  0  0  0  0  0  0  0  0  0
   -2.4134    0.5824    0.4081 N   0  0  0  0  0  0  0  0  0  0  0  0
   -3.5325    1.0064    1.6288 S   0  0  0  0  0  6  0  0  0  0  0  0
   -2.6531    0.5137    3.0971 C   0  0  0  0  0  0  0  0  0  0  0  0
   -4.6987    0.1544    1.5161 O   0  0  0  0  0  0  0  0  0  0  0  0
   -3.6633    2.4488    1.6648 O   0  0  0  0  0  0  0  0  0  0  0  0
   -2.3917   -0.8305   -0.0402 C   0  0  0  0  0  0  0  0  0  0  0  0
   -3.3877   -1.0660   -1.1405 C   0  0  0  0  0  0  0  0  0  0  0  0
   -3.9161   -0.1732   -2.0554 C   0  0  0  0  0  0  0  0  0  0  0  0
   -4.8333   -0.7904   -2.9533 C   0  0  0  0  0  0  0  0  0  0  0  0
   -4.9751   -2.1355   -2.7008 C   0  0  0  0  0  0  0  0  0  0  0  0
   -4.0048   -2.6490   -1.3914 S   0  0  0  0  0  0  0  0  0  0  0  0
   -0.9572   -1.0173   -0.5484 C   0  0  0  0  0  0  0  0  0  0  0  0
    2.0133   -0.6115   -0.7517 C   0  0  0  0  0  0  0  0  0  0  0  0
    3.4007   -0.4479   -0.8161 C   0  0  0  0  0  0  0  0  0  0  0  0
    6.0041   -0.9554    0.8520 H   0  0  0  0  0  0  0  0  0  0  0  0
    7.2903    0.2620    0.8031 H   0  0  0  0  0  0  0  0  0  0  0  0
    5.8704    0.5112    1.8337 H   0  0  0  0  0  0  0  0  0  0  0  0
    5.7694    1.8959   -0.2711 H   0  0  0  0  0  0  0  0  0  0  0  0
    5.8896    0.4406   -1.2399 H   0  0  0  0  0  0  0  0  0  0  0  0
    3.6792    2.4769    0.9049 H   0  0  0  0  0  0  0  0  0  0  0  0
    1.2430    2.1996    1.0157 H   0  0  0  0  0  0  0  0  0  0  0  0
   -1.7378    1.1010    3.1861 H   0  0  0  0  0  0  0  0  0  0  0  0
   -3.2996    0.7142    3.9548 H   0  0  0  0  0  0  0  0  0  0  0  0
   -2.4339   -0.5538    3.0466 H   0  0  0  0  0  0  0  0  0  0  0  0
   -2.5646   -1.4983    0.8122 H   0  0  0  0  0  0  0  0  0  0  0  0
   -3.6640    0.8817   -2.0719 H   0  0  0  0  0  0  0  0  0  0  0  0
   -5.3675   -0.2703   -3.7390 H   0  0  0  0  0  0  0  0  0  0  0  0
   -5.6069   -2.8428   -3.2203 H   0  0  0  0  0  0  0  0  0  0  0  0
   -0.8797   -1.0146   -1.6412 H   0  0  0  0  0  0  0  0  0  0  0  0
   -0.5221   -1.9416   -0.1562 H   0  0  0  0  0  0  0  0  0  0  0  0
    1.5767   -1.4825   -1.2310 H   0  0  0  0  0  0  0  0  0  0  0  0
    4.0012   -1.1937   -1.3332 H   0  0  0  0  0  0  0  0  0  0  0  0
  1  2  1  0
  2  3  1  0
  3  4  2  0
  4  5  1  0
  5  6  2  0
  6  7  1  0
  7  8  2  0
  8  9  1  0
  9 10  1  0
 10 11  1  0
 10 12  2  0
 10 13  2  0
  9 14  1  0
 14 15  1  0
 15 16  2  0
 16 17  1  0
 17 18  2  0
 18 19  1  0
 14 20  1  0
  6 21  1  0
 21 22  2  0
 22  3  1  0
 20  7  1  0
 19 15  1  0
  1 23  1  0
  1 24  1  0
  1 25  1  0
  2 26  1  0
  2 27  1  0
  4 28  1  0
  5 29  1  0
 11 30  1  0
 11 31  1  0
 11 32  1  0
 14 33  1  0
 16 34  1  0
 17 35  1  0
 18 36  1  0
 20 37  1  0
 20 38  1  0
 21 39  1  0
 22 40  1  0
M  END
$$$$
