
     RDKit          3D

 58 60  0  0  0  0  0  0  0  0999 V2000
   -5.8206   -0.8934    2.6726 C   0  0  0  0  0  0  0  0  0  0  0  0
   -6.2674   -0.5335    1.3755 O   0  0  0  0  0  0  0  0  0  0  0  0
   -5.3719    0.0690    0.5299 C   0  0  0  0  0  0  0  0  0  0  0  0
   -4.0911    0.4958    0.9083 C   0  0  0  0  0  0  0  0  0  0  0  0
   -3.2416    1.0930   -0.0274 C   0  0  0  0  0  0  0  0  0  0  0  0
   -1.9724    1.5459    0.2280 O   0  0  0  0  0  0  0  0  0  0  0  0
   -1.3792    1.1629    1.4612 C   0  0  0  0  0  0  0  0  0  0  0  0
   -3.6833    1.2730   -1.3508 C   0  0  0  0  0  0  0  0  0  0  0  0
   -2.7724    1.8185   -2.3128 N   0  0  0  0  0  0  0  0  0  0  0  0
   -2.1739    0.7821   -3.5119 S   0  0  0  0  0  6  0  0  0  0  0  0
   -3.2741    0.3268   -4.3354 O   0  0  0  0  0  0  0  0  0  0  0  0
   -1.0193    1.4301   -4.0957 O   0  0  0  0  0  0  0  0  0  0  0  0
   -1.5814   -0.6215   -2.5828 C   0  0  0  0  0  0  0  0  0  0  0  0
   -2.3627   -1.7794   -2.4977 C   0  0  0  0  0  0  0  0  0  0  0  0
   -1.9038   -2.8731   -1.7580 C   0  0  0  0  0  0  0  0  0  0  0  0
   -0.6639   -2.8152   -1.1152 C   0  0  0  0  0  0  0  0  0  0  0  0
   -0.1579   -4.1819   -0.1901 Cl  0  0  0  0  0  0  0  0  0  0  0  0
    0.1146   -1.6596   -1.2259 C   0  0  0  0  0  0  0  0  0  0  0  0
    1.4329   -1.5759   -0.5948 C   0  0  0  0  0  0  0  0  0  0  0  0
    2.4602   -1.9906   -1.0986 O   0  0  0  0  0  0  0  0  0  0  0  0
    1.2926   -0.9394    0.5921 O   0  0  0  0  0  0  0  0  0  0  0  0
    2.5487   -0.5864    1.1923 C   0  0  0  0  0  0  0  0  0  0  0  0
    2.2802   -0.1928    2.6376 C   0  0  0  0  0  0  0  0  0  0  0  0
    3.1614    0.6102    0.4384 C   0  0  0  0  0  0  0  0  0  0  0  0
    2.4396    1.4130   -0.1597 O   0  0  0  0  0  0  0  0  0  0  0  0
    4.5319    0.7554    0.4782 N   0  0  0  0  0  0  0  0  0  0  0  0
    5.1940    1.8031   -0.2856 C   0  0  0  0  0  0  0  0  0  0  0  0
    6.6445    1.3520   -0.3800 C   0  0  0  0  0  0  0  0  0  0  0  0
    6.8310    0.5317    0.8885 C   0  0  0  0  0  0  0  0  0  0  0  0
    5.4961   -0.1870    1.0182 C   0  0  0  0  0  0  0  0  0  0  0  0
   -0.3308   -0.5581   -1.9646 C   0  0  0  0  0  0  0  0  0  0  0  0
   -4.9556    0.8636   -1.7369 C   0  0  0  0  0  0  0  0  0  0  0  0
   -5.7955    0.2651   -0.7988 C   0  0  0  0  0  0  0  0  0  0  0  0
   -7.3649   -0.2418   -1.3288 Cl  0  0  0  0  0  0  0  0  0  0  0  0
   -4.9510   -1.5539    2.6212 H   0  0  0  0  0  0  0  0  0  0  0  0
   -5.6073   -0.0022    3.2730 H   0  0  0  0  0  0  0  0  0  0  0  0
   -6.6276   -1.4421    3.1646 H   0  0  0  0  0  0  0  0  0  0  0  0
   -3.7613    0.3747    1.9331 H   0  0  0  0  0  0  0  0  0  0  0  0
   -0.3481    1.5274    1.4603 H   0  0  0  0  0  0  0  0  0  0  0  0
   -1.8933    1.6333    2.3050 H   0  0  0  0  0  0  0  0  0  0  0  0
   -1.3560    0.0735    1.5703 H   0  0  0  0  0  0  0  0  0  0  0  0
   -2.0088    2.3608   -1.8980 H   0  0  0  0  0  0  0  0  0  0  0  0
   -3.3283   -1.8361   -2.9976 H   0  0  0  0  0  0  0  0  0  0  0  0
   -2.5199   -3.7665   -1.6909 H   0  0  0  0  0  0  0  0  0  0  0  0
    3.2139   -1.4565    1.1804 H   0  0  0  0  0  0  0  0  0  0  0  0
    1.6624    0.7102    2.6943 H   0  0  0  0  0  0  0  0  0  0  0  0
    1.7312   -0.9850    3.1542 H   0  0  0  0  0  0  0  0  0  0  0  0
    3.2066    0.0009    3.1809 H   0  0  0  0  0  0  0  0  0  0  0  0
    5.0953    2.7406    0.2735 H   0  0  0  0  0  0  0  0  0  0  0  0
    4.7324    1.9251   -1.2707 H   0  0  0  0  0  0  0  0  0  0  0  0
    6.7811    0.7074   -1.2575 H   0  0  0  0  0  0  0  0  0  0  0  0
    7.3472    2.1872   -0.4634 H   0  0  0  0  0  0  0  0  0  0  0  0
    6.9864    1.2015    1.7433 H   0  0  0  0  0  0  0  0  0  0  0  0
    7.6777   -0.1568    0.8318 H   0  0  0  0  0  0  0  0  0  0  0  0
    5.2545   -0.4498    2.0514 H   0  0  0  0  0  0  0  0  0  0  0  0
    5.4684   -1.0912    0.4003 H   0  0  0  0  0  0  0  0  0  0  0  0
    0.2895    0.3327   -2.0467 H   0  0  0  0  0  0  0  0  0  0  0  0
   -5.2894    1.0034   -2.7640 H   0  0  0  0  0  0  0  0  0  0  0  0
  1  2  1  0
  2  3  1  0
  3  4  2  0
  4  5  1  0
  5  6  1  0
  6  7  1  0
  5  8  2  0
  8  9  1  0
  9 10  1  0
 10 11  2  0
 10 12  2  0
 10 13  1  0
 13 14  2  0
 14 15  1  0
 15 16  2  0
 16 17  1  0
 16 18  1  0
 18 19  1  0
 19 20  2  0
 19 21  1  0
 21 22  1  0
 22 23  1  0
 22 24  1  0
 24 25  2  0
 24 26  1  0
 26 27  1  0
 27 28  1  0
 28 29  1  0
 29 30  1  0
 18 31  2  0
  8 32  1  0
 32 33  2  0
 33 34  1  0
 33  3  1  0
 31 13  1  0
 30 26  1  0
  1 35  1  0
  1 36  1  0
  1 37  1  0
  4 38  1  0
  7 39  1  0
  7 40  1  0
  7 41  1  0
  9 42  1  0
 14 43  1  0
 15 44  1  0
 22 45  1  0
 23 46  1  0
 23 47  1  0
 23 48  1  0
 27 49  1  0
 27 50  1  0
 28 51  1  0
 28 52  1  0
 29 53  1  0
 29 54  1  0
 30 55  1  0
 30 56  1  0
 31 57  1  0
 32 58  1  0
M  END
$$$$
