
     RDKit          3D

 35 36  0  0  0  0  0  0  0  0999 V2000
    3.8733    2.0666   -1.9271 C   0  0  0  0  0  0  0  0  0  0  0  0
    3.8885    0.5687   -1.6778 C   0  0  0  0  0  0  0  0  0  0  0  0
    3.7365    0.2413   -0.2685 N   0  0  0  0  0  0  0  0  0  0  0  0
    4.8659    0.0824    0.4604 N   0  0  0  0  0  0  0  0  0  0  0  0
    4.4229   -0.2246    1.6767 C   0  0  0  0  0  0  0  0  0  0  0  0
    3.0257   -0.2693    1.7215 C   0  0  0  0  0  0  0  0  0  0  0  0
    2.0866   -0.6541    3.2983 Br  0  0  0  0  0  0  0  0  0  0  0  0
    2.5705    0.0316    0.4495 C   0  0  0  0  0  0  0  0  0  0  0  0
    1.2338    0.1511   -0.1125 C   0  0  0  0  0  0  0  0  0  0  0  0
    1.0455    0.6571   -1.2133 O   0  0  0  0  0  0  0  0  0  0  0  0
    0.2276   -0.3593    0.6852 N   0  0  0  0  0  0  0  0  0  0  0  0
   -1.1608   -0.3934    0.4352 C   0  0  0  0  0  0  0  0  0  0  0  0
   -1.7673    0.1195   -0.7124 C   0  0  0  0  0  0  0  0  0  0  0  0
   -3.1571    0.0331   -0.8919 C   0  0  0  0  0  0  0  0  0  0  0  0
   -3.7948    0.6125   -2.1210 C   0  0  0  0  0  0  0  0  0  0  0  0
   -3.9452   -0.5473    0.1080 C   0  0  0  0  0  0  0  0  0  0  0  0
   -3.3588   -1.0523    1.2725 C   0  0  0  0  0  0  0  0  0  0  0  0
   -4.2027   -1.7105    2.3237 C   0  0  0  0  0  0  0  0  0  0  0  0
   -1.9664   -0.9840    1.4193 C   0  0  0  0  0  0  0  0  0  0  0  0
    2.9361    2.5219   -1.5923 H   0  0  0  0  0  0  0  0  0  0  0  0
    3.9918    2.2744   -2.9949 H   0  0  0  0  0  0  0  0  0  0  0  0
    4.6906    2.5613   -1.3913 H   0  0  0  0  0  0  0  0  0  0  0  0
    4.8451    0.1469   -2.0093 H   0  0  0  0  0  0  0  0  0  0  0  0
    3.1102    0.0518   -2.2453 H   0  0  0  0  0  0  0  0  0  0  0  0
    5.1403   -0.3979    2.4686 H   0  0  0  0  0  0  0  0  0  0  0  0
    0.5184   -0.7657    1.5641 H   0  0  0  0  0  0  0  0  0  0  0  0
   -1.1823    0.5941   -1.4940 H   0  0  0  0  0  0  0  0  0  0  0  0
   -3.1339    0.5105   -2.9882 H   0  0  0  0  0  0  0  0  0  0  0  0
   -4.7273    0.0911   -2.3616 H   0  0  0  0  0  0  0  0  0  0  0  0
   -4.0137    1.6731   -1.9638 H   0  0  0  0  0  0  0  0  0  0  0  0
   -5.0243   -0.6052   -0.0225 H   0  0  0  0  0  0  0  0  0  0  0  0
   -4.2882   -2.7818    2.1178 H   0  0  0  0  0  0  0  0  0  0  0  0
   -3.7644   -1.5743    3.3180 H   0  0  0  0  0  0  0  0  0  0  0  0
   -5.2066   -1.2737    2.3498 H   0  0  0  0  0  0  0  0  0  0  0  0
   -1.5155   -1.3959    2.3193 H   0  0  0  0  0  0  0  0  0  0  0  0
  1  2  1  0
  2  3  1  0
  3  4  1  0
  4  5  2  0
  5  6  1  0
  6  7  1  0
  6  8  2  0
  8  9  1  0
  9 10  2  0
  9 11  1  0
 11 12  1  0
 12 13  2  0
 13 14  1  0
 14 15  1  0
 14 16  2  0
 16 17  1  0
 17 18  1  0
 17 19  2  0
  8  3  1  0
 19 12  1  0
  1 20  1  0
  1 21  1  0
  1 22  1  0
  2 23  1  0
  2 24  1  0
  5 25  1  0
 11 26  1  0
 13 27  1  0
 15 28  1  0
 15 29  1  0
 15 30  1  0
 16 31  1  0
 18 32  1  0
 18 33  1  0
 18 34  1  0
 19 35  1  0
M  END
$$$$
