
     RDKit          3D

 70 75  0  0  0  0  0  0  0  0999 V2000
   -1.7740   -6.4869   -1.9383 C   0  0  0  0  0  0  0  0  0  0  0  0
   -1.4625   -5.0202   -1.9437 C   0  0  0  0  0  0  0  0  0  0  0  0
   -0.2966   -4.5306   -1.3478 C   0  0  0  0  0  0  0  0  0  0  0  0
   -0.0242   -3.1592   -1.3448 C   0  0  0  0  0  0  0  0  0  0  0  0
   -0.9131   -2.2513   -1.9356 C   0  0  0  0  0  0  0  0  0  0  0  0
   -0.6300   -0.7625   -1.9203 C   0  0  0  0  0  0  0  0  0  0  0  0
   -1.2094   -0.0938   -0.7563 N   0  0  0  0  0  0  0  0  0  0  0  0
   -2.5371    0.3479   -0.8587 C   0  0  0  0  0  0  0  0  0  0  0  0
   -3.1387    0.4119   -1.9328 O   0  0  0  0  0  0  0  0  0  0  0  0
   -3.1648    0.8548    0.4612 C   0  0  0  0  0  0  0  0  0  0  0  0
   -4.6926    0.9425    0.3174 C   0  0  0  0  0  0  0  0  0  0  0  0
   -5.3796    1.5430    1.5243 C   0  0  0  0  0  0  0  0  0  0  0  0
   -5.3721    2.9295    1.7325 C   0  0  0  0  0  0  0  0  0  0  0  0
   -6.0119    3.4794    2.8446 C   0  0  0  0  0  0  0  0  0  0  0  0
   -6.6629    2.6512    3.7558 C   0  0  0  0  0  0  0  0  0  0  0  0
   -6.6700    1.2711    3.5617 C   0  0  0  0  0  0  0  0  0  0  0  0
   -6.0327    0.7187    2.4501 C   0  0  0  0  0  0  0  0  0  0  0  0
   -2.7979   -0.0415    1.5617 N   0  0  0  0  0  0  0  0  0  0  0  0
   -1.4052   -0.1536    1.6813 C   0  0  0  0  0  0  0  0  0  0  0  0
   -0.9469   -0.2658    2.9351 N   0  0  0  0  0  0  0  0  0  0  0  0
    0.3735   -0.4164    3.0573 C   0  0  0  0  0  0  0  0  0  0  0  0
    1.2650   -0.4169    2.0590 N   0  0  0  0  0  0  0  0  0  0  0  0
    0.7890   -0.2722    0.8014 C   0  0  0  0  0  0  0  0  0  0  0  0
    1.7447   -0.0672   -0.2208 N   0  0  0  0  0  0  0  0  0  0  0  0
    3.0551   -0.7163    0.0383 C   0  0  0  0  0  0  0  0  0  0  0  0
    4.1236    0.2486    0.5997 C   0  0  0  0  0  0  0  0  0  0  0  0
    4.3274    1.4049   -0.3004 N   0  0  0  0  0  0  0  0  0  0  0  0
    5.5984    1.9177   -0.5150 C   0  0  0  0  0  0  0  0  0  0  0  0
    6.5889    1.8583    0.4803 C   0  0  0  0  0  0  0  0  0  0  0  0
    7.8762    2.3731    0.2803 C   0  0  0  0  0  0  0  0  0  0  0  0
    8.2059    2.9714   -0.9298 C   0  0  0  0  0  0  0  0  0  0  0  0
    7.2470    3.0580   -1.9314 C   0  0  0  0  0  0  0  0  0  0  0  0
    5.9616    2.5418   -1.7202 C   0  0  0  0  0  0  0  0  0  0  0  0
    3.1953    1.7528   -1.1781 C   0  0  0  0  0  0  0  0  0  0  0  0
    1.8500    1.3905   -0.5127 C   0  0  0  0  0  0  0  0  0  0  0  0
   -0.5886   -0.1838    0.5429 C   0  0  0  0  0  0  0  0  0  0  0  0
   -2.0881   -2.7455   -2.5185 C   0  0  0  0  0  0  0  0  0  0  0  0
   -2.3604   -4.1156   -2.5202 C   0  0  0  0  0  0  0  0  0  0  0  0
   -2.0587   -6.8197   -2.9419 H   0  0  0  0  0  0  0  0  0  0  0  0
   -2.5941   -6.6953   -1.2445 H   0  0  0  0  0  0  0  0  0  0  0  0
   -0.9044   -7.0762   -1.6302 H   0  0  0  0  0  0  0  0  0  0  0  0
    0.4093   -5.2116   -0.8787 H   0  0  0  0  0  0  0  0  0  0  0  0
    0.8885   -2.8049   -0.8713 H   0  0  0  0  0  0  0  0  0  0  0  0
   -1.0582   -0.3233   -2.8314 H   0  0  0  0  0  0  0  0  0  0  0  0
    0.4382   -0.5807   -2.0294 H   0  0  0  0  0  0  0  0  0  0  0  0
   -2.7612    1.8592    0.6499 H   0  0  0  0  0  0  0  0  0  0  0  0
   -4.9538    1.5555   -0.5552 H   0  0  0  0  0  0  0  0  0  0  0  0
   -5.1133   -0.0497    0.1115 H   0  0  0  0  0  0  0  0  0  0  0  0
   -4.8770    3.5919    1.0265 H   0  0  0  0  0  0  0  0  0  0  0  0
   -6.0114    4.5566    2.9951 H   0  0  0  0  0  0  0  0  0  0  0  0
   -7.1660    3.0817    4.6179 H   0  0  0  0  0  0  0  0  0  0  0  0
   -7.1791    0.6256    4.2710 H   0  0  0  0  0  0  0  0  0  0  0  0
   -6.0483   -0.3614    2.3110 H   0  0  0  0  0  0  0  0  0  0  0  0
   -3.1746    0.1937    2.4771 H   0  0  0  0  0  0  0  0  0  0  0  0
    0.7642   -0.5352    4.0632 H   0  0  0  0  0  0  0  0  0  0  0  0
    2.9616   -1.6033    0.6773 H   0  0  0  0  0  0  0  0  0  0  0  0
    3.4108   -1.0944   -0.9295 H   0  0  0  0  0  0  0  0  0  0  0  0
    3.8281    0.6196    1.5877 H   0  0  0  0  0  0  0  0  0  0  0  0
    5.0480   -0.3299    0.7190 H   0  0  0  0  0  0  0  0  0  0  0  0
    6.3636    1.4263    1.4523 H   0  0  0  0  0  0  0  0  0  0  0  0
    8.6138    2.3095    1.0757 H   0  0  0  0  0  0  0  0  0  0  0  0
    9.2044    3.3681   -1.0910 H   0  0  0  0  0  0  0  0  0  0  0  0
    7.4940    3.5228   -2.8826 H   0  0  0  0  0  0  0  0  0  0  0  0
    5.2528    2.6197   -2.5397 H   0  0  0  0  0  0  0  0  0  0  0  0
    3.2892    1.2204   -2.1340 H   0  0  0  0  0  0  0  0  0  0  0  0
    3.1890    2.8305   -1.3808 H   0  0  0  0  0  0  0  0  0  0  0  0
    1.0345    1.6913   -1.1805 H   0  0  0  0  0  0  0  0  0  0  0  0
    1.7563    1.9799    0.4109 H   0  0  0  0  0  0  0  0  0  0  0  0
   -2.8051   -2.0628   -2.9715 H   0  0  0  0  0  0  0  0  0  0  0  0
   -3.2832   -4.4719   -2.9722 H   0  0  0  0  0  0  0  0  0  0  0  0
  1  2  1  0
  2  3  2  0
  3  4  1  0
  4  5  2  0
  5  6  1  0
  6  7  1  0
  7  8  1  0
  8  9  2  0
  8 10  1  0
 10 11  1  0
 11 12  1  0
 12 13  2  0
 13 14  1  0
 14 15  2  0
 15 16  1  0
 16 17  2  0
 10 18  1  0
 18 19  1  0
 19 20  2  0
 20 21  1  0
 21 22  2  0
 22 23  1  0
 23 24  1  0
 24 25  1  0
 25 26  1  0
 26 27  1  0
 27 28  1  0
 28 29  2  0
 29 30  1  0
 30 31  2  0
 31 32  1  0
 32 33  2  0
 27 34  1  0
 34 35  1  0
 23 36  2  0
  5 37  1  0
 37 38  2  0
 38  2  1  0
 36  7  1  0
 17 12  1  0
 36 19  1  0
 35 24  1  0
 33 28  1  0
  1 39  1  0
  1 40  1  0
  1 41  1  0
  3 42  1  0
  4 43  1  0
  6 44  1  0
  6 45  1  0
 10 46  1  0
 11 47  1  0
 11 48  1  0
 13 49  1  0
 14 50  1  0
 15 51  1  0
 16 52  1  0
 17 53  1  0
 18 54  1  0
 21 55  1  0
 25 56  1  0
 25 57  1  0
 26 58  1  0
 26 59  1  0
 29 60  1  0
 30 61  1  0
 31 62  1  0
 32 63  1  0
 33 64  1  0
 34 65  1  0
 34 66  1  0
 35 67  1  0
 35 68  1  0
 37 69  1  0
 38 70  1  0
M  END
$$$$
