
     RDKit          3D

 57 60  0  0  0  0  0  0  0  0999 V2000
    4.8848    2.5288    2.6565 O   0  0  0  0  0  0  0  0  0  0  0  0
    4.6637    1.2822    1.9587 S   0  0  0  0  0  6  0  0  0  0  0  0
    5.5106    0.1289    2.1628 O   0  0  0  0  0  0  0  0  0  0  0  0
    4.6570    1.6532    0.3229 N   0  0  0  0  0  0  0  0  0  0  0  0
    4.7954    0.5760   -0.6648 C   0  0  0  0  0  0  0  0  0  0  0  0
    4.1651    1.0290   -1.9832 C   0  0  0  0  0  0  0  0  0  0  0  0
    5.3108    1.6831   -2.7393 C   0  0  0  0  0  0  0  0  0  0  0  0
    6.4853    0.7710   -2.4312 C   0  0  0  0  0  0  0  0  0  0  0  0
    6.2775    0.3357   -0.9815 C   0  0  0  0  0  0  0  0  0  0  0  0
    2.9727    0.8092    2.2276 C   0  0  0  0  0  0  0  0  0  0  0  0
    2.6457   -0.5403    2.4048 C   0  0  0  0  0  0  0  0  0  0  0  0
    1.3167   -0.9025    2.6304 C   0  0  0  0  0  0  0  0  0  0  0  0
    0.3323    0.0905    2.6800 C   0  0  0  0  0  0  0  0  0  0  0  0
   -1.3657   -0.3503    2.9650 S   0  0  0  0  0  6  0  0  0  0  0  0
   -1.8275    0.4370    4.0870 O   0  0  0  0  0  0  0  0  0  0  0  0
   -1.4750   -1.7938    2.9523 O   0  0  0  0  0  0  0  0  0  0  0  0
   -2.1364    0.2231    1.5564 N   0  0  0  0  0  0  0  0  0  0  0  0
   -1.7750   -0.4951    0.2875 C   0  0  0  0  0  0  0  0  0  0  0  0
   -2.8855   -1.4446   -0.1983 C   0  0  0  0  0  0  0  0  0  0  0  0
   -4.1306   -0.7020   -0.4482 N   0  0  0  0  0  0  0  0  0  0  0  0
   -5.0974   -1.1690   -1.3231 C   0  0  0  0  0  0  0  0  0  0  0  0
   -6.0858   -0.3209   -1.8506 C   0  0  0  0  0  0  0  0  0  0  0  0
   -7.0642   -0.7817   -2.7404 C   0  0  0  0  0  0  0  0  0  0  0  0
   -7.0791   -2.1150   -3.1296 C   0  0  0  0  0  0  0  0  0  0  0  0
   -6.1151   -2.9807   -2.6291 C   0  0  0  0  0  0  0  0  0  0  0  0
   -5.1397   -2.5093   -1.7412 C   0  0  0  0  0  0  0  0  0  0  0  0
   -4.3689    0.4842    0.3925 C   0  0  0  0  0  0  0  0  0  0  0  0
   -3.6208    0.3782    1.7342 C   0  0  0  0  0  0  0  0  0  0  0  0
    0.6610    1.4419    2.5200 C   0  0  0  0  0  0  0  0  0  0  0  0
    1.9892    1.8034    2.2942 C   0  0  0  0  0  0  0  0  0  0  0  0
    5.0549    2.5690    0.1182 H   0  0  0  0  0  0  0  0  0  0  0  0
    4.2989   -0.3316   -0.3066 H   0  0  0  0  0  0  0  0  0  0  0  0
    3.3171    1.7089   -1.8527 H   0  0  0  0  0  0  0  0  0  0  0  0
    3.8137    0.1532   -2.5426 H   0  0  0  0  0  0  0  0  0  0  0  0
    5.4993    2.6919   -2.3548 H   0  0  0  0  0  0  0  0  0  0  0  0
    5.1128    1.7565   -3.8122 H   0  0  0  0  0  0  0  0  0  0  0  0
    6.4587   -0.1072   -3.0877 H   0  0  0  0  0  0  0  0  0  0  0  0
    7.4481    1.2689   -2.5800 H   0  0  0  0  0  0  0  0  0  0  0  0
    6.9399    0.9014   -0.3160 H   0  0  0  0  0  0  0  0  0  0  0  0
    6.5350   -0.7233   -0.8686 H   0  0  0  0  0  0  0  0  0  0  0  0
    3.4163   -1.3083    2.3756 H   0  0  0  0  0  0  0  0  0  0  0  0
    1.0602   -1.9503    2.7747 H   0  0  0  0  0  0  0  0  0  0  0  0
   -0.8424   -1.0566    0.4004 H   0  0  0  0  0  0  0  0  0  0  0  0
   -1.5808    0.2734   -0.4715 H   0  0  0  0  0  0  0  0  0  0  0  0
   -2.5280   -1.9210   -1.1189 H   0  0  0  0  0  0  0  0  0  0  0  0
   -3.0685   -2.2282    0.5463 H   0  0  0  0  0  0  0  0  0  0  0  0
   -6.0991    0.7352   -1.5956 H   0  0  0  0  0  0  0  0  0  0  0  0
   -7.8085   -0.0924   -3.1296 H   0  0  0  0  0  0  0  0  0  0  0  0
   -7.8366   -2.4769   -3.8186 H   0  0  0  0  0  0  0  0  0  0  0  0
   -6.1186   -4.0274   -2.9216 H   0  0  0  0  0  0  0  0  0  0  0  0
   -4.4221   -3.2307   -1.3609 H   0  0  0  0  0  0  0  0  0  0  0  0
   -4.0384    1.3782   -0.1499 H   0  0  0  0  0  0  0  0  0  0  0  0
   -5.4350    0.5986    0.6221 H   0  0  0  0  0  0  0  0  0  0  0  0
   -4.0168   -0.4784    2.2941 H   0  0  0  0  0  0  0  0  0  0  0  0
   -3.8049    1.2872    2.3174 H   0  0  0  0  0  0  0  0  0  0  0  0
   -0.1104    2.2074    2.5787 H   0  0  0  0  0  0  0  0  0  0  0  0
    2.2542    2.8524    2.1777 H   0  0  0  0  0  0  0  0  0  0  0  0
  1  2  2  0
  2  3  2  0
  2  4  1  0
  4  5  1  0
  5  6  1  0
  6  7  1  0
  7  8  1  0
  8  9  1  0
  2 10  1  0
 10 11  2  0
 11 12  1  0
 12 13  2  0
 13 14  1  0
 14 15  2  0
 14 16  2  0
 14 17  1  0
 17 18  1  0
 18 19  1  0
 19 20  1  0
 20 21  1  0
 21 22  2  0
 22 23  1  0
 23 24  2  0
 24 25  1  0
 25 26  2  0
 20 27  1  0
 27 28  1  0
 13 29  1  0
 29 30  2  0
  9  5  1  0
 30 10  1  0
 28 17  1  0
 26 21  1  0
  4 31  1  0
  5 32  1  0
  6 33  1  0
  6 34  1  0
  7 35  1  0
  7 36  1  0
  8 37  1  0
  8 38  1  0
  9 39  1  0
  9 40  1  0
 11 41  1  0
 12 42  1  0
 18 43  1  0
 18 44  1  0
 19 45  1  0
 19 46  1  0
 22 47  1  0
 23 48  1  0
 24 49  1  0
 25 50  1  0
 26 51  1  0
 27 52  1  0
 27 53  1  0
 28 54  1  0
 28 55  1  0
 29 56  1  0
 30 57  1  0
M  END
$$$$
