
     RDKit          3D

 53 55  0  0  0  0  0  0  0  0999 V2000
   -1.9432    2.5145   -1.8558 O   0  0  0  0  0  0  0  0  0  0  0  0
   -1.6076    1.6230   -1.0861 C   0  0  0  0  0  0  0  0  0  0  0  0
   -2.3436    1.2515    0.0177 N   0  0  0  0  0  0  0  0  0  0  0  0
   -3.5731    1.9731    0.3608 C   0  0  0  0  0  0  0  0  0  0  0  0
   -4.5217    1.0982    1.1968 C   0  0  0  0  0  0  0  0  0  0  0  0
   -4.8893   -0.2159    0.5449 C   0  0  0  0  0  0  0  0  0  0  0  0
   -5.6055   -0.2426   -0.6593 C   0  0  0  0  0  0  0  0  0  0  0  0
   -5.9410   -1.4591   -1.2565 C   0  0  0  0  0  0  0  0  0  0  0  0
   -5.5689   -2.6593   -0.6558 C   0  0  0  0  0  0  0  0  0  0  0  0
   -4.8635   -2.6455    0.5453 C   0  0  0  0  0  0  0  0  0  0  0  0
   -4.5256   -1.4304    1.1437 C   0  0  0  0  0  0  0  0  0  0  0  0
   -3.2793    3.2406    1.1689 C   0  0  0  0  0  0  0  0  0  0  0  0
   -4.1010    4.0816    1.5032 O   0  0  0  0  0  0  0  0  0  0  0  0
   -1.9993    3.3570    1.5857 O   0  0  0  0  0  0  0  0  0  0  0  0
   -0.3230    0.8997   -1.2815 C   0  0  0  0  0  0  0  0  0  0  0  0
   -0.1731   -0.4388   -0.8903 C   0  0  0  0  0  0  0  0  0  0  0  0
    1.0407   -1.0972   -1.1041 C   0  0  0  0  0  0  0  0  0  0  0  0
    2.1058   -0.4110   -1.6986 C   0  0  0  0  0  0  0  0  0  0  0  0
    3.6365   -1.2713   -2.0169 S   0  0  0  0  0  6  0  0  0  0  0  0
    3.3172   -2.6782   -2.1343 O   0  0  0  0  0  0  0  0  0  0  0  0
    4.3207   -0.5659   -3.0803 O   0  0  0  0  0  0  0  0  0  0  0  0
    4.5078   -1.0390   -0.5823 N   0  0  0  0  0  0  0  0  0  0  0  0
    4.0978   -1.8100    0.6084 C   0  0  0  0  0  0  0  0  0  0  0  0
    5.1764   -1.7012    1.6800 C   0  0  0  0  0  0  0  0  0  0  0  0
    5.4236   -0.2537    2.1076 C   0  0  0  0  0  0  0  0  0  0  0  0
    4.8852    0.7558    1.0968 C   0  0  0  0  0  0  0  0  0  0  0  0
    5.1064    0.2937   -0.3378 C   0  0  0  0  0  0  0  0  0  0  0  0
    1.9508    0.9126   -2.1242 C   0  0  0  0  0  0  0  0  0  0  0  0
    0.7348    1.5667   -1.9130 C   0  0  0  0  0  0  0  0  0  0  0  0
   -1.8506    0.8002    0.7761 H   0  0  0  0  0  0  0  0  0  0  0  0
   -4.0525    2.2923   -0.5719 H   0  0  0  0  0  0  0  0  0  0  0  0
   -4.0654    0.9028    2.1769 H   0  0  0  0  0  0  0  0  0  0  0  0
   -5.4497    1.6453    1.4104 H   0  0  0  0  0  0  0  0  0  0  0  0
   -5.9093    0.6834   -1.1435 H   0  0  0  0  0  0  0  0  0  0  0  0
   -6.4941   -1.4682   -2.1919 H   0  0  0  0  0  0  0  0  0  0  0  0
   -5.8329   -3.6048   -1.1217 H   0  0  0  0  0  0  0  0  0  0  0  0
   -4.5798   -3.5822    1.0174 H   0  0  0  0  0  0  0  0  0  0  0  0
   -3.9803   -1.4415    2.0839 H   0  0  0  0  0  0  0  0  0  0  0  0
   -1.9827    4.2289    2.0318 H   0  0  0  0  0  0  0  0  0  0  0  0
   -1.0060   -0.9898   -0.4601 H   0  0  0  0  0  0  0  0  0  0  0  0
    1.1418   -2.1453   -0.8270 H   0  0  0  0  0  0  0  0  0  0  0  0
    3.1416   -1.4420    0.9927 H   0  0  0  0  0  0  0  0  0  0  0  0
    3.9785   -2.8654    0.3471 H   0  0  0  0  0  0  0  0  0  0  0  0
    4.9051   -2.3038    2.5534 H   0  0  0  0  0  0  0  0  0  0  0  0
    6.1136   -2.1212    1.2904 H   0  0  0  0  0  0  0  0  0  0  0  0
    4.9603   -0.0634    3.0863 H   0  0  0  0  0  0  0  0  0  0  0  0
    6.5053   -0.1055    2.2441 H   0  0  0  0  0  0  0  0  0  0  0  0
    3.8119    0.9025    1.2688 H   0  0  0  0  0  0  0  0  0  0  0  0
    5.3607    1.7284    1.2590 H   0  0  0  0  0  0  0  0  0  0  0  0
    6.1800    0.2242   -0.5503 H   0  0  0  0  0  0  0  0  0  0  0  0
    4.6929    1.0478   -1.0141 H   0  0  0  0  0  0  0  0  0  0  0  0
    2.7593    1.4343   -2.6321 H   0  0  0  0  0  0  0  0  0  0  0  0
    0.6073    2.5944   -2.2509 H   0  0  0  0  0  0  0  0  0  0  0  0
  1  2  2  0
  2  3  1  0
  3  4  1  0
  4  5  1  0
  5  6  1  0
  6  7  2  0
  7  8  1  0
  8  9  2  0
  9 10  1  0
 10 11  2  0
  4 12  1  0
 12 13  2  0
 12 14  1  0
  2 15  1  0
 15 16  2  0
 16 17  1  0
 17 18  2  0
 18 19  1  0
 19 20  2  0
 19 21  2  0
 19 22  1  0
 22 23  1  0
 23 24  1  0
 24 25  1  0
 25 26  1  0
 26 27  1  0
 18 28  1  0
 28 29  2  0
 11  6  1  0
 29 15  1  0
 27 22  1  0
  3 30  1  0
  4 31  1  0
  5 32  1  0
  5 33  1  0
  7 34  1  0
  8 35  1  0
  9 36  1  0
 10 37  1  0
 11 38  1  0
 14 39  1  0
 16 40  1  0
 17 41  1  0
 23 42  1  0
 23 43  1  0
 24 44  1  0
 24 45  1  0
 25 46  1  0
 25 47  1  0
 26 48  1  0
 26 49  1  0
 27 50  1  0
 27 51  1  0
 28 52  1  0
 29 53  1  0
M  END
$$$$
