
     RDKit          3D

 48 50  0  0  0  0  0  0  0  0999 V2000
    6.0809   -0.5670    0.2818 C   0  0  0  0  0  0  0  0  0  0  0  0
    4.6120   -0.8459    0.1543 C   0  0  0  0  0  0  0  0  0  0  0  0
    4.1629   -2.0165   -0.4622 C   0  0  0  0  0  0  0  0  0  0  0  0
    2.7917   -2.3062   -0.6204 C   0  0  0  0  0  0  0  0  0  0  0  0
    2.3902   -3.5812   -1.3073 C   0  0  0  0  0  0  0  0  0  0  0  0
    1.8779   -1.3337   -0.1562 C   0  0  0  0  0  0  0  0  0  0  0  0
    0.1530   -1.3253   -0.2036 S   0  0  0  0  0  0  0  0  0  0  0  0
    0.1120    0.1977    0.5761 C   0  0  0  0  0  0  0  0  0  0  0  0
   -1.1268    0.7880    0.8477 N   0  0  0  0  0  0  0  0  0  0  0  0
   -2.3668    0.4455    0.1415 C   0  0  0  0  0  0  0  0  0  0  0  0
   -2.4289    1.0441   -1.2680 C   0  0  0  0  0  0  0  0  0  0  0  0
   -3.7950    0.8646   -1.9467 C   0  0  0  0  0  0  0  0  0  0  0  0
   -3.9014   -0.3090   -2.8317 N   0  0  0  0  0  0  0  0  0  0  0  0
   -5.1502   -0.2385   -3.5987 C   0  0  0  0  0  0  0  0  0  0  0  0
   -3.8361   -1.5817   -2.1184 C   0  0  0  0  0  0  0  0  0  0  0  0
   -1.1494    1.9812    1.6022 C   0  0  0  0  0  0  0  0  0  0  0  0
   -2.0192    2.8326    1.3891 O   0  0  0  0  0  0  0  0  0  0  0  0
   -0.2046    2.1742    2.6976 C   0  0  0  0  0  0  0  0  0  0  0  0
    0.4850    3.3312    3.0165 C   0  0  0  0  0  0  0  0  0  0  0  0
    1.2887    3.1804    4.1858 C   0  0  0  0  0  0  0  0  0  0  0  0
    1.1384    1.9303    4.7294 C   0  0  0  0  0  0  0  0  0  0  0  0
    2.0503    1.3502    6.3057 Br  0  0  0  0  0  0  0  0  0  0  0  0
    0.0450    0.9536    3.8820 S   0  0  0  0  0  0  0  0  0  0  0  0
    1.2875    0.7104    0.8458 N   0  0  0  0  0  0  0  0  0  0  0  0
    2.2974   -0.1470    0.4471 C   0  0  0  0  0  0  0  0  0  0  0  0
    3.6767    0.0955    0.6004 C   0  0  0  0  0  0  0  0  0  0  0  0
    6.2873    0.0411    1.1688 H   0  0  0  0  0  0  0  0  0  0  0  0
    6.4386   -0.0339   -0.6044 H   0  0  0  0  0  0  0  0  0  0  0  0
    6.6477   -1.4979    0.3881 H   0  0  0  0  0  0  0  0  0  0  0  0
    4.8966   -2.7341   -0.8308 H   0  0  0  0  0  0  0  0  0  0  0  0
    3.0458   -4.4042   -1.0027 H   0  0  0  0  0  0  0  0  0  0  0  0
    2.4616   -3.4559   -2.3923 H   0  0  0  0  0  0  0  0  0  0  0  0
    1.3672   -3.8746   -1.0557 H   0  0  0  0  0  0  0  0  0  0  0  0
   -2.4937   -0.6395    0.1422 H   0  0  0  0  0  0  0  0  0  0  0  0
   -3.2108    0.8292    0.7296 H   0  0  0  0  0  0  0  0  0  0  0  0
   -2.2301    2.1215   -1.1970 H   0  0  0  0  0  0  0  0  0  0  0  0
   -1.6289    0.6435   -1.9019 H   0  0  0  0  0  0  0  0  0  0  0  0
   -3.9401    1.7581   -2.5691 H   0  0  0  0  0  0  0  0  0  0  0  0
   -4.6028    0.8746   -1.2035 H   0  0  0  0  0  0  0  0  0  0  0  0
   -6.0336   -0.2680   -2.9505 H   0  0  0  0  0  0  0  0  0  0  0  0
   -5.2147   -1.0701   -4.3096 H   0  0  0  0  0  0  0  0  0  0  0  0
   -5.1880    0.6803   -4.1947 H   0  0  0  0  0  0  0  0  0  0  0  0
   -2.8345   -1.7487   -1.7143 H   0  0  0  0  0  0  0  0  0  0  0  0
   -4.0193   -2.4206   -2.8002 H   0  0  0  0  0  0  0  0  0  0  0  0
   -4.5664   -1.6395   -1.3038 H   0  0  0  0  0  0  0  0  0  0  0  0
    0.4244    4.2355    2.4219 H   0  0  0  0  0  0  0  0  0  0  0  0
    1.9273    3.9523    4.5967 H   0  0  0  0  0  0  0  0  0  0  0  0
    3.9950    1.0234    1.0665 H   0  0  0  0  0  0  0  0  0  0  0  0
  1  2  1  0
  2  3  2  0
  3  4  1  0
  4  5  1  0
  4  6  2  0
  6  7  1  0
  7  8  1  0
  8  9  1  0
  9 10  1  0
 10 11  1  0
 11 12  1  0
 12 13  1  0
 13 14  1  0
 13 15  1  0
  9 16  1  0
 16 17  2  0
 16 18  1  0
 18 19  2  0
 19 20  1  0
 20 21  2  0
 21 22  1  0
 21 23  1  0
  8 24  2  0
 24 25  1  0
 25 26  2  0
 26  2  1  0
 25  6  1  0
 23 18  1  0
  1 27  1  0
  1 28  1  0
  1 29  1  0
  3 30  1  0
  5 31  1  0
  5 32  1  0
  5 33  1  0
 10 34  1  0
 10 35  1  0
 11 36  1  0
 11 37  1  0
 12 38  1  0
 12 39  1  0
 14 40  1  0
 14 41  1  0
 14 42  1  0
 15 43  1  0
 15 44  1  0
 15 45  1  0
 19 46  1  0
 20 47  1  0
 26 48  1  0
M  END
$$$$
