
     RDKit          3D

 53 56  0  0  0  0  0  0  0  0999 V2000
    3.9655    5.3319   -1.8615 C   0  0  0  0  0  0  0  0  0  0  0  0
    4.8554    5.1029   -0.7770 O   0  0  0  0  0  0  0  0  0  0  0  0
    4.8397    3.8573   -0.2154 C   0  0  0  0  0  0  0  0  0  0  0  0
    5.7459    3.6747    0.8270 C   0  0  0  0  0  0  0  0  0  0  0  0
    5.8330    2.4472    1.4930 C   0  0  0  0  0  0  0  0  0  0  0  0
    5.0105    1.3764    1.1249 C   0  0  0  0  0  0  0  0  0  0  0  0
    5.0330    0.1530    1.7476 O   0  0  0  0  0  0  0  0  0  0  0  0
    5.7468    0.0491    2.9726 C   0  0  0  0  0  0  0  0  0  0  0  0
    4.1028    1.5453    0.0575 C   0  0  0  0  0  0  0  0  0  0  0  0
    3.2108    0.4844   -0.4113 C   0  0  0  0  0  0  0  0  0  0  0  0
    3.5758   -0.8410   -0.5545 C   0  0  0  0  0  0  0  0  0  0  0  0
    2.2539   -1.7507   -1.1602 S   0  0  0  0  0  0  0  0  0  0  0  0
    1.3118   -0.3327   -1.2020 C   0  0  0  0  0  0  0  0  0  0  0  0
    0.0038   -0.3136   -1.6119 N   0  0  0  0  0  0  0  0  0  0  0  0
   -0.7368   -1.3701   -2.0891 C   0  0  0  0  0  0  0  0  0  0  0  0
   -0.3711   -2.5337   -2.2467 O   0  0  0  0  0  0  0  0  0  0  0  0
   -2.1606   -0.9945   -2.4283 C   0  0  0  0  0  0  0  0  0  0  0  0
   -3.0586   -1.3902   -1.3605 N   0  0  0  0  0  0  0  0  0  0  0  0
   -3.4260   -2.6851   -1.0584 C   0  0  0  0  0  0  0  0  0  0  0  0
   -2.8838   -3.7572   -1.6293 O   0  0  0  0  0  0  0  0  0  0  0  0
   -4.4227   -2.6151   -0.1076 C   0  0  0  0  0  0  0  0  0  0  0  0
   -4.5991   -1.2415    0.2381 C   0  0  0  0  0  0  0  0  0  0  0  0
   -3.7239   -0.5078   -0.5388 C   0  0  0  0  0  0  0  0  0  0  0  0
   -3.4798    0.7984   -0.6017 O   0  0  0  0  0  0  0  0  0  0  0  0
   -5.5968   -0.7891    1.2529 C   0  0  0  0  0  0  0  0  0  0  0  0
   -6.0780   -1.9545    2.1349 C   0  0  0  0  0  0  0  0  0  0  0  0
   -6.4046   -3.2078    1.3051 C   0  0  0  0  0  0  0  0  0  0  0  0
   -5.1752   -3.7304    0.5408 C   0  0  0  0  0  0  0  0  0  0  0  0
    1.9101    0.7689   -0.8155 N   0  0  0  0  0  0  0  0  0  0  0  0
    4.0202    2.7948   -0.5930 C   0  0  0  0  0  0  0  0  0  0  0  0
    4.1125    6.3610   -2.2034 H   0  0  0  0  0  0  0  0  0  0  0  0
    2.9234    5.2327   -1.5425 H   0  0  0  0  0  0  0  0  0  0  0  0
    4.1884    4.6665   -2.7019 H   0  0  0  0  0  0  0  0  0  0  0  0
    6.3934    4.4972    1.1263 H   0  0  0  0  0  0  0  0  0  0  0  0
    6.5570    2.3642    2.2957 H   0  0  0  0  0  0  0  0  0  0  0  0
    6.8242    0.1551    2.8102 H   0  0  0  0  0  0  0  0  0  0  0  0
    5.5702   -0.9528    3.3775 H   0  0  0  0  0  0  0  0  0  0  0  0
    5.3819    0.7735    3.7074 H   0  0  0  0  0  0  0  0  0  0  0  0
    4.5241   -1.3147   -0.3382 H   0  0  0  0  0  0  0  0  0  0  0  0
   -0.4288    0.5957   -1.4985 H   0  0  0  0  0  0  0  0  0  0  0  0
   -2.4681   -1.5166   -3.3410 H   0  0  0  0  0  0  0  0  0  0  0  0
   -2.2589    0.0775   -2.6224 H   0  0  0  0  0  0  0  0  0  0  0  0
   -1.9731   -3.5574   -1.9340 H   0  0  0  0  0  0  0  0  0  0  0  0
   -4.0639    1.2217    0.0569 H   0  0  0  0  0  0  0  0  0  0  0  0
   -5.1690   -0.0031    1.8881 H   0  0  0  0  0  0  0  0  0  0  0  0
   -6.4569   -0.3556    0.7280 H   0  0  0  0  0  0  0  0  0  0  0  0
   -6.9625   -1.6394    2.7025 H   0  0  0  0  0  0  0  0  0  0  0  0
   -5.2997   -2.2027    2.8685 H   0  0  0  0  0  0  0  0  0  0  0  0
   -7.2061   -2.9685    0.5930 H   0  0  0  0  0  0  0  0  0  0  0  0
   -6.7877   -4.0020    1.9622 H   0  0  0  0  0  0  0  0  0  0  0  0
   -5.4967   -4.4631   -0.2107 H   0  0  0  0  0  0  0  0  0  0  0  0
   -4.5081   -4.2425    1.2459 H   0  0  0  0  0  0  0  0  0  0  0  0
    3.3023    2.9038   -1.4011 H   0  0  0  0  0  0  0  0  0  0  0  0
  1  2  1  0
  2  3  1  0
  3  4  2  0
  4  5  1  0
  5  6  2  0
  6  7  1  0
  7  8  1  0
  6  9  1  0
  9 10  1  0
 10 11  2  0
 11 12  1  0
 12 13  1  0
 13 14  1  0
 14 15  1  0
 15 16  2  0
 15 17  1  0
 17 18  1  0
 18 19  1  0
 19 20  1  0
 19 21  2  0
 21 22  1  0
 22 23  2  0
 23 24  1  0
 22 25  1  0
 25 26  1  0
 26 27  1  0
 27 28  1  0
 13 29  2  0
  9 30  2  0
 30  3  1  0
 29 10  1  0
 23 18  1  0
 28 21  1  0
  1 31  1  0
  1 32  1  0
  1 33  1  0
  4 34  1  0
  5 35  1  0
  8 36  1  0
  8 37  1  0
  8 38  1  0
 11 39  1  0
 14 40  1  0
 17 41  1  0
 17 42  1  0
 20 43  1  0
 24 44  1  0
 25 45  1  0
 25 46  1  0
 26 47  1  0
 26 48  1  0
 27 49  1  0
 27 50  1  0
 28 51  1  0
 28 52  1  0
 30 53  1  0
M  END
$$$$
