
     RDKit          3D

 40 43  0  0  0  0  0  0  0  0999 V2000
   -2.2754   -2.2790   -2.5781 O   0  0  0  0  0  0  0  0  0  0  0  0
   -3.1932   -1.5027   -2.3752 C   0  0  0  0  0  0  0  0  0  0  0  0
   -4.4719   -1.5995   -2.8783 N   0  0  0  0  0  0  0  0  0  0  0  0
   -5.1066   -0.5929   -2.3828 C   0  0  0  0  0  0  0  0  0  0  0  0
   -6.5192   -0.2281   -2.6041 C   0  0  0  0  0  0  0  0  0  0  0  0
   -6.9988    0.8760   -2.0072 C   0  0  0  0  0  0  0  0  0  0  0  0
   -6.1838    1.7290   -1.1580 C   0  0  0  0  0  0  0  0  0  0  0  0
   -4.8931    1.4498   -0.9111 C   0  0  0  0  0  0  0  0  0  0  0  0
   -4.3163    0.2776   -1.5025 C   0  0  0  0  0  0  0  0  0  0  0  0
   -3.1162   -0.3030   -1.4978 C   0  0  0  0  0  0  0  0  0  0  0  0
   -1.9521    0.1319   -0.8332 C   0  0  0  0  0  0  0  0  0  0  0  0
   -1.8876    0.3247    0.8815 S   0  0  0  0  0  0  0  0  0  0  0  0
   -0.2410    0.7472    0.7591 C   0  0  0  0  0  0  0  0  0  0  0  0
    0.5404    1.1303    1.9141 N   0  0  0  0  0  0  0  0  0  0  0  0
    1.8014    0.0579    2.2361 S   0  0  0  0  0  6  0  0  0  0  0  0
    2.1981    0.3865    3.5921 O   0  0  0  0  0  0  0  0  0  0  0  0
    1.3513   -1.2786    1.9079 O   0  0  0  0  0  0  0  0  0  0  0  0
    3.0778    0.6064    1.0881 C   0  0  0  0  0  0  0  0  0  0  0  0
    4.3379   -0.1801    1.3423 C   0  0  0  0  0  0  0  0  0  0  0  0
    4.5404   -1.4193    0.7173 C   0  0  0  0  0  0  0  0  0  0  0  0
    5.7052   -2.1500    0.9555 C   0  0  0  0  0  0  0  0  0  0  0  0
    6.6772   -1.6521    1.8205 C   0  0  0  0  0  0  0  0  0  0  0  0
    6.4844   -0.4248    2.4513 C   0  0  0  0  0  0  0  0  0  0  0  0
    5.3205    0.3083    2.2154 C   0  0  0  0  0  0  0  0  0  0  0  0
    0.2671    0.8101   -0.4445 N   0  0  0  0  0  0  0  0  0  0  0  0
   -0.7014    0.4400   -1.3406 C   0  0  0  0  0  0  0  0  0  0  0  0
   -0.4502    0.4162   -2.6564 O   0  0  0  0  0  0  0  0  0  0  0  0
   -7.1165   -0.8668   -3.2419 H   0  0  0  0  0  0  0  0  0  0  0  0
   -8.0357    1.1670   -2.1542 H   0  0  0  0  0  0  0  0  0  0  0  0
   -6.6541    2.6102   -0.7294 H   0  0  0  0  0  0  0  0  0  0  0  0
   -4.2914    2.0976   -0.2838 H   0  0  0  0  0  0  0  0  0  0  0  0
   -0.0118    1.2586    2.7603 H   0  0  0  0  0  0  0  0  0  0  0  0
    3.2417    1.6763    1.2498 H   0  0  0  0  0  0  0  0  0  0  0  0
    2.7324    0.4462    0.0644 H   0  0  0  0  0  0  0  0  0  0  0  0
    3.7870   -1.8319    0.0479 H   0  0  0  0  0  0  0  0  0  0  0  0
    5.8503   -3.1122    0.4709 H   0  0  0  0  0  0  0  0  0  0  0  0
    7.5816   -2.2246    2.0091 H   0  0  0  0  0  0  0  0  0  0  0  0
    7.2385   -0.0413    3.1339 H   0  0  0  0  0  0  0  0  0  0  0  0
    5.1836    1.2585    2.7281 H   0  0  0  0  0  0  0  0  0  0  0  0
    0.4996    0.5945   -2.7665 H   0  0  0  0  0  0  0  0  0  0  0  0
  1  2  2  0
  2  3  1  0
  3  4  2  0
  4  5  1  0
  5  6  2  0
  6  7  1  0
  7  8  2  0
  8  9  1  0
  9 10  2  0
 10 11  1  0
 11 12  1  0
 12 13  1  0
 13 14  1  0
 14 15  1  0
 15 16  2  0
 15 17  2  0
 15 18  1  0
 18 19  1  0
 19 20  2  0
 20 21  1  0
 21 22  2  0
 22 23  1  0
 23 24  2  0
 13 25  2  0
 25 26  1  0
 26 27  1  0
 10  2  1  0
 26 11  2  0
  9  4  1  0
 24 19  1  0
  5 28  1  0
  6 29  1  0
  7 30  1  0
  8 31  1  0
 14 32  1  0
 18 33  1  0
 18 34  1  0
 20 35  1  0
 21 36  1  0
 22 37  1  0
 23 38  1  0
 24 39  1  0
 27 40  1  0
M  END
$$$$
