
     RDKit          3D

 36 37  0  0  0  0  0  0  0  0999 V2000
    6.1037   -0.5873   -1.3564 C   0  0  0  0  0  0  0  0  0  0  0  0
    5.0073   -0.2001   -2.1742 O   0  0  0  0  0  0  0  0  0  0  0  0
    3.7671   -0.1957   -1.5970 C   0  0  0  0  0  0  0  0  0  0  0  0
    2.7415    0.2449   -2.4336 C   0  0  0  0  0  0  0  0  0  0  0  0
    1.4203    0.3020   -1.9816 C   0  0  0  0  0  0  0  0  0  0  0  0
    1.1112   -0.0670   -0.6749 C   0  0  0  0  0  0  0  0  0  0  0  0
   -0.1979   -0.0677   -0.1360 N   0  0  0  0  0  0  0  0  0  0  0  0
   -1.3621    0.6222   -0.4781 C   0  0  0  0  0  0  0  0  0  0  0  0
   -1.4631    1.9456   -1.4950 S   0  0  0  0  0  0  0  0  0  0  0  0
   -2.4308   -0.0007    0.1758 N   0  0  0  0  0  0  0  0  0  0  0  0
   -3.7536    0.4224    0.4312 C   0  0  0  0  0  0  0  0  0  0  0  0
   -4.1584    1.7563    0.4871 C   0  0  0  0  0  0  0  0  0  0  0  0
   -5.4866    2.0855    0.7799 C   0  0  0  0  0  0  0  0  0  0  0  0
   -6.4190    1.0837    1.0357 C   0  0  0  0  0  0  0  0  0  0  0  0
   -6.0217   -0.2495    1.0102 C   0  0  0  0  0  0  0  0  0  0  0  0
   -4.6946   -0.5766    0.7182 C   0  0  0  0  0  0  0  0  0  0  0  0
    2.1419   -0.5419    0.1677 C   0  0  0  0  0  0  0  0  0  0  0  0
    1.7340   -0.9297    1.4265 O   0  0  0  0  0  0  0  0  0  0  0  0
    2.7474   -1.2999    2.3535 C   0  0  0  0  0  0  0  0  0  0  0  0
    3.4639   -0.5974   -0.2951 C   0  0  0  0  0  0  0  0  0  0  0  0
    7.0148   -0.5037   -1.9567 H   0  0  0  0  0  0  0  0  0  0  0  0
    6.0086   -1.6310   -1.0393 H   0  0  0  0  0  0  0  0  0  0  0  0
    6.2100    0.0802   -0.4948 H   0  0  0  0  0  0  0  0  0  0  0  0
    2.9688    0.5407   -3.4555 H   0  0  0  0  0  0  0  0  0  0  0  0
    0.6585    0.6074   -2.6892 H   0  0  0  0  0  0  0  0  0  0  0  0
   -0.2217   -0.4731    0.7958 H   0  0  0  0  0  0  0  0  0  0  0  0
   -2.2668   -0.9881    0.3276 H   0  0  0  0  0  0  0  0  0  0  0  0
   -3.4591    2.5723    0.3431 H   0  0  0  0  0  0  0  0  0  0  0  0
   -5.7865    3.1300    0.8154 H   0  0  0  0  0  0  0  0  0  0  0  0
   -7.4497    1.3434    1.2620 H   0  0  0  0  0  0  0  0  0  0  0  0
   -6.7430   -1.0358    1.2162 H   0  0  0  0  0  0  0  0  0  0  0  0
   -4.4131   -1.6262    0.7025 H   0  0  0  0  0  0  0  0  0  0  0  0
    2.2609   -1.5203    3.3085 H   0  0  0  0  0  0  0  0  0  0  0  0
    3.4515   -0.4782    2.5209 H   0  0  0  0  0  0  0  0  0  0  0  0
    3.2650   -2.2078    2.0274 H   0  0  0  0  0  0  0  0  0  0  0  0
    4.2513   -0.9590    0.3518 H   0  0  0  0  0  0  0  0  0  0  0  0
  1  2  1  0
  2  3  1  0
  3  4  2  0
  4  5  1  0
  5  6  2  0
  6  7  1  0
  7  8  1  0
  8  9  2  0
  8 10  1  0
 10 11  1  0
 11 12  2  0
 12 13  1  0
 13 14  2  0
 14 15  1  0
 15 16  2  0
  6 17  1  0
 17 18  1  0
 18 19  1  0
 17 20  2  0
 20  3  1  0
 16 11  1  0
  1 21  1  0
  1 22  1  0
  1 23  1  0
  4 24  1  0
  5 25  1  0
  7 26  1  0
 10 27  1  0
 12 28  1  0
 13 29  1  0
 14 30  1  0
 15 31  1  0
 16 32  1  0
 19 33  1  0
 19 34  1  0
 19 35  1  0
 20 36  1  0
M  END
$$$$
