
     RDKit          3D

 49 52  0  0  0  0  0  0  0  0999 V2000
    0.2071   -0.5141    4.4294 O   0  0  0  0  0  0  0  0  0  0  0  0
    0.9278   -0.6291    3.4410 C   0  0  0  0  0  0  0  0  0  0  0  0
    2.4470   -0.7703    3.5867 C   0  0  0  0  0  0  0  0  0  0  0  0
    3.0662   -1.4127    2.4241 N   0  0  0  0  0  0  0  0  0  0  0  0
    3.2427   -0.6289    1.2984 N   0  0  0  0  0  0  0  0  0  0  0  0
    3.7721   -1.1819    0.2487 C   0  0  0  0  0  0  0  0  0  0  0  0
    3.9598   -0.3583   -0.9793 C   0  0  0  0  0  0  0  0  0  0  0  0
    4.2595    1.0050   -0.8327 C   0  0  0  0  0  0  0  0  0  0  0  0
    4.4239    1.8128   -1.9597 C   0  0  0  0  0  0  0  0  0  0  0  0
    4.2787    1.2592   -3.2261 C   0  0  0  0  0  0  0  0  0  0  0  0
    4.4330    2.0340   -4.3069 F   0  0  0  0  0  0  0  0  0  0  0  0
    3.9673   -0.0866   -3.3880 C   0  0  0  0  0  0  0  0  0  0  0  0
    3.8023   -0.8999   -2.2636 C   0  0  0  0  0  0  0  0  0  0  0  0
    4.2145   -2.5912    0.1908 C   0  0  0  0  0  0  0  0  0  0  0  0
    3.9952   -3.3379    1.2735 C   0  0  0  0  0  0  0  0  0  0  0  0
    3.3582   -2.7689    2.4772 C   0  0  0  0  0  0  0  0  0  0  0  0
    3.1416   -3.5012    3.4372 O   0  0  0  0  0  0  0  0  0  0  0  0
    0.5246   -0.4921    2.1237 N   0  0  0  0  0  0  0  0  0  0  0  0
   -0.7714   -0.3101    1.6167 C   0  0  0  0  0  0  0  0  0  0  0  0
   -0.8934   -0.1163    0.2343 C   0  0  0  0  0  0  0  0  0  0  0  0
   -2.1487    0.0738   -0.3540 C   0  0  0  0  0  0  0  0  0  0  0  0
   -3.2988    0.0731    0.4420 C   0  0  0  0  0  0  0  0  0  0  0  0
   -4.6560    0.2671   -0.1363 C   0  0  0  0  0  0  0  0  0  0  0  0
   -5.6254   -0.2811    0.3763 O   0  0  0  0  0  0  0  0  0  0  0  0
   -4.7299    1.1043   -1.2350 N   0  0  0  0  0  0  0  0  0  0  0  0
   -5.9776    1.4357   -1.8480 C   0  0  0  0  0  0  0  0  0  0  0  0
   -6.6127    2.7765   -1.6053 C   0  0  0  0  0  0  0  0  0  0  0  0
   -6.0436    2.4519   -2.9552 C   0  0  0  0  0  0  0  0  0  0  0  0
   -3.1827   -0.1435    1.8183 C   0  0  0  0  0  0  0  0  0  0  0  0
   -1.9240   -0.3275    2.4029 C   0  0  0  0  0  0  0  0  0  0  0  0
    2.6534   -1.3536    4.4897 H   0  0  0  0  0  0  0  0  0  0  0  0
    2.8811    0.2285    3.7039 H   0  0  0  0  0  0  0  0  0  0  0  0
    4.3728    1.4431    0.1572 H   0  0  0  0  0  0  0  0  0  0  0  0
    4.6618    2.8673   -1.8571 H   0  0  0  0  0  0  0  0  0  0  0  0
    3.8478   -0.4904   -4.3891 H   0  0  0  0  0  0  0  0  0  0  0  0
    3.5290   -1.9411   -2.4117 H   0  0  0  0  0  0  0  0  0  0  0  0
    4.7128   -2.9903   -0.6815 H   0  0  0  0  0  0  0  0  0  0  0  0
    4.2841   -4.3798    1.3306 H   0  0  0  0  0  0  0  0  0  0  0  0
    1.2976   -0.4996    1.4583 H   0  0  0  0  0  0  0  0  0  0  0  0
   -0.0118   -0.1141   -0.4023 H   0  0  0  0  0  0  0  0  0  0  0  0
   -2.2117    0.1909   -1.4320 H   0  0  0  0  0  0  0  0  0  0  0  0
   -3.9180    1.6521   -1.4873 H   0  0  0  0  0  0  0  0  0  0  0  0
   -6.6514    0.5842   -1.9316 H   0  0  0  0  0  0  0  0  0  0  0  0
   -6.0865    3.4900   -0.9826 H   0  0  0  0  0  0  0  0  0  0  0  0
   -7.6907    2.8048   -1.4952 H   0  0  0  0  0  0  0  0  0  0  0  0
   -5.1362    2.9601   -3.2569 H   0  0  0  0  0  0  0  0  0  0  0  0
   -6.7384    2.2669   -3.7665 H   0  0  0  0  0  0  0  0  0  0  0  0
   -4.0723   -0.1682    2.4456 H   0  0  0  0  0  0  0  0  0  0  0  0
   -1.8808   -0.4925    3.4755 H   0  0  0  0  0  0  0  0  0  0  0  0
  1  2  2  0
  2  3  1  0
  3  4  1  0
  4  5  1  0
  5  6  2  0
  6  7  1  0
  7  8  2  0
  8  9  1  0
  9 10  2  0
 10 11  1  0
 10 12  1  0
 12 13  2  0
  6 14  1  0
 14 15  2  0
 15 16  1  0
 16 17  2  0
  2 18  1  0
 18 19  1  0
 19 20  2  0
 20 21  1  0
 21 22  2  0
 22 23  1  0
 23 24  2  0
 23 25  1  0
 25 26  1  0
 26 27  1  0
 27 28  1  0
 22 29  1  0
 29 30  2  0
 16  4  1  0
 30 19  1  0
 13  7  1  0
 28 26  1  0
  3 31  1  0
  3 32  1  0
  8 33  1  0
  9 34  1  0
 12 35  1  0
 13 36  1  0
 14 37  1  0
 15 38  1  0
 18 39  1  0
 20 40  1  0
 21 41  1  0
 25 42  1  0
 26 43  1  0
 27 44  1  0
 27 45  1  0
 28 46  1  0
 28 47  1  0
 29 48  1  0
 30 49  1  0
M  END
$$$$
