
     RDKit          3D

 56 61  0  0  0  0  0  0  0  0999 V2000
    5.9450   -2.7267   -1.0091 C   0  0  0  0  0  0  0  0  0  0  0  0
    4.5287   -2.3268   -1.2977 C   0  0  0  0  0  0  0  0  0  0  0  0
    3.9758   -2.5224   -2.5598 C   0  0  0  0  0  0  0  0  0  0  0  0
    2.6443   -2.1785   -2.8024 C   0  0  0  0  0  0  0  0  0  0  0  0
    1.8325   -1.6227   -1.7966 C   0  0  0  0  0  0  0  0  0  0  0  0
    2.3621   -1.4709   -0.5101 C   0  0  0  0  0  0  0  0  0  0  0  0
    3.7105   -1.8248   -0.2790 C   0  0  0  0  0  0  0  0  0  0  0  0
    1.5841   -1.1059    0.7018 C   0  0  0  0  0  0  0  0  0  0  0  0
    1.9846   -1.5286    1.7872 O   0  0  0  0  0  0  0  0  0  0  0  0
    0.4331   -0.3499    0.6122 N   0  0  0  0  0  0  0  0  0  0  0  0
   -0.3471   -0.0906    1.8243 C   0  0  0  0  0  0  0  0  0  0  0  0
   -1.3757   -1.1430    2.1624 C   0  0  0  0  0  0  0  0  0  0  0  0
   -1.3087   -2.4832    1.7642 C   0  0  0  0  0  0  0  0  0  0  0  0
   -2.2678   -3.3940    2.2136 C   0  0  0  0  0  0  0  0  0  0  0  0
   -2.1830   -5.0379    1.7094 Cl  0  0  0  0  0  0  0  0  0  0  0  0
   -3.2862   -2.9900    3.0773 C   0  0  0  0  0  0  0  0  0  0  0  0
   -3.3532   -1.6610    3.4918 C   0  0  0  0  0  0  0  0  0  0  0  0
   -2.4137   -0.7506    3.0174 C   0  0  0  0  0  0  0  0  0  0  0  0
   -2.4942    0.5477    3.4490 O   0  0  0  0  0  0  0  0  0  0  0  0
   -2.3312    1.4527    2.3519 C   0  0  0  0  0  0  0  0  0  0  0  0
   -1.0328    1.2495    1.5655 C   0  0  0  0  0  0  0  0  0  0  0  0
   -1.2685    1.2281    0.0363 C   0  0  0  0  0  0  0  0  0  0  0  0
   -1.6508    2.5695   -0.5743 C   0  0  0  0  0  0  0  0  0  0  0  0
   -2.5724    2.5952   -1.6344 C   0  0  0  0  0  0  0  0  0  0  0  0
   -2.9583    3.7988   -2.2282 C   0  0  0  0  0  0  0  0  0  0  0  0
   -2.4295    5.0016   -1.7724 C   0  0  0  0  0  0  0  0  0  0  0  0
   -1.5144    4.9991   -0.7243 C   0  0  0  0  0  0  0  0  0  0  0  0
   -1.1277    3.7942   -0.1301 C   0  0  0  0  0  0  0  0  0  0  0  0
    0.0158    0.5061   -0.5162 C   0  0  0  0  0  0  0  0  0  0  0  0
    1.1112    1.5115   -0.9147 C   0  0  0  0  0  0  0  0  0  0  0  0
   -0.3654   -0.4048   -1.6989 C   0  0  0  0  0  0  0  0  0  0  0  0
   -1.4324   -0.2960   -2.3104 O   0  0  0  0  0  0  0  0  0  0  0  0
    0.5368   -1.2881   -2.2115 N   0  0  0  0  0  0  0  0  0  0  0  0
    6.5672   -2.6357   -1.9056 H   0  0  0  0  0  0  0  0  0  0  0  0
    6.3841   -2.0796   -0.2425 H   0  0  0  0  0  0  0  0  0  0  0  0
    5.9778   -3.7633   -0.6598 H   0  0  0  0  0  0  0  0  0  0  0  0
    4.5746   -2.9426   -3.3654 H   0  0  0  0  0  0  0  0  0  0  0  0
    2.2546   -2.3318   -3.8074 H   0  0  0  0  0  0  0  0  0  0  0  0
    4.1234   -1.7285    0.7261 H   0  0  0  0  0  0  0  0  0  0  0  0
    0.3297   -0.0026    2.6843 H   0  0  0  0  0  0  0  0  0  0  0  0
   -0.5050   -2.8335    1.1237 H   0  0  0  0  0  0  0  0  0  0  0  0
   -4.0221   -3.7049    3.4347 H   0  0  0  0  0  0  0  0  0  0  0  0
   -4.1351   -1.3354    4.1717 H   0  0  0  0  0  0  0  0  0  0  0  0
   -3.2233    1.3864    1.7151 H   0  0  0  0  0  0  0  0  0  0  0  0
   -2.3413    2.4660    2.7703 H   0  0  0  0  0  0  0  0  0  0  0  0
   -0.3205    2.0391    1.8342 H   0  0  0  0  0  0  0  0  0  0  0  0
   -2.1303    0.5602   -0.1220 H   0  0  0  0  0  0  0  0  0  0  0  0
   -3.0054    1.6698   -2.0126 H   0  0  0  0  0  0  0  0  0  0  0  0
   -3.6728    3.7926   -3.0474 H   0  0  0  0  0  0  0  0  0  0  0  0
   -2.7293    5.9385   -2.2340 H   0  0  0  0  0  0  0  0  0  0  0  0
   -1.0973    5.9378   -0.3682 H   0  0  0  0  0  0  0  0  0  0  0  0
   -0.4020    3.8427    0.6769 H   0  0  0  0  0  0  0  0  0  0  0  0
    0.7882    2.1377   -1.7536 H   0  0  0  0  0  0  0  0  0  0  0  0
    2.0386    1.0377   -1.2437 H   0  0  0  0  0  0  0  0  0  0  0  0
    1.3802    2.1599   -0.0739 H   0  0  0  0  0  0  0  0  0  0  0  0
    0.2145   -1.6681   -3.0950 H   0  0  0  0  0  0  0  0  0  0  0  0
  1  2  1  0
  2  3  2  0
  3  4  1  0
  4  5  2  0
  5  6  1  0
  6  7  2  0
  6  8  1  0
  8  9  2  0
  8 10  1  0
 10 11  1  0
 11 12  1  0
 12 13  2  0
 13 14  1  0
 14 15  1  0
 14 16  2  0
 16 17  1  0
 17 18  2  0
 18 19  1  0
 19 20  1  0
 20 21  1  0
 21 22  1  0
 22 23  1  0
 23 24  2  0
 24 25  1  0
 25 26  2  0
 26 27  1  0
 27 28  2  0
 22 29  1  0
 29 30  1  0
 29 31  1  0
 31 32  2  0
 31 33  1  0
  7  2  1  0
 29 10  1  0
 33  5  1  0
 21 11  1  0
 28 23  1  0
 18 12  1  0
  1 34  1  0
  1 35  1  0
  1 36  1  0
  3 37  1  0
  4 38  1  0
  7 39  1  0
 11 40  1  0
 13 41  1  0
 16 42  1  0
 17 43  1  0
 20 44  1  0
 20 45  1  0
 21 46  1  0
 22 47  1  0
 24 48  1  0
 25 49  1  0
 26 50  1  0
 27 51  1  0
 28 52  1  0
 30 53  1  0
 30 54  1  0
 30 55  1  0
 33 56  1  0
M  END
$$$$
