
     RDKit          3D

 47 49  0  0  0  0  0  0  0  0999 V2000
    7.3326   -0.5202   -3.0952 C   0  0  0  0  0  0  0  0  0  0  0  0
    5.9650   -0.7968   -3.3707 O   0  0  0  0  0  0  0  0  0  0  0  0
    5.1289   -0.9145   -2.2960 C   0  0  0  0  0  0  0  0  0  0  0  0
    3.7937   -1.1606   -2.6185 C   0  0  0  0  0  0  0  0  0  0  0  0
    2.8279   -1.3030   -1.6164 C   0  0  0  0  0  0  0  0  0  0  0  0
    3.1853   -1.1875   -0.2733 C   0  0  0  0  0  0  0  0  0  0  0  0
    2.2812   -1.3403    0.8008 N   0  0  0  0  0  0  0  0  0  0  0  0
    0.9223   -1.5053    0.7977 C   0  0  0  0  0  0  0  0  0  0  0  0
    0.2968   -2.4500    2.0387 S   0  0  0  0  0  0  0  0  0  0  0  0
    0.1748   -0.8453   -0.1639 N   0  0  0  0  0  0  0  0  0  0  0  0
    0.4235    0.5796   -0.4184 C   0  0  0  0  0  0  0  0  0  0  0  0
   -0.4512    1.4436    0.4976 C   0  0  0  0  0  0  0  0  0  0  0  0
   -1.8926    0.9866    0.5223 C   0  0  0  0  0  0  0  0  0  0  0  0
   -2.8843    1.8433    1.0344 C   0  0  0  0  0  0  0  0  0  0  0  0
   -4.2186    1.4320    1.1073 C   0  0  0  0  0  0  0  0  0  0  0  0
   -5.2547    2.2025    1.5649 O   0  0  0  0  0  0  0  0  0  0  0  0
   -4.9564    3.5341    1.9584 C   0  0  0  0  0  0  0  0  0  0  0  0
   -4.5443    0.1364    0.6816 C   0  0  0  0  0  0  0  0  0  0  0  0
   -5.8372   -0.3283    0.6948 O   0  0  0  0  0  0  0  0  0  0  0  0
   -6.1985   -0.7397    2.0135 C   0  0  0  0  0  0  0  0  0  0  0  0
   -3.5723   -0.7171    0.1560 C   0  0  0  0  0  0  0  0  0  0  0  0
   -2.2352   -0.3097    0.0923 C   0  0  0  0  0  0  0  0  0  0  0  0
   -1.1990   -1.2392   -0.4989 C   0  0  0  0  0  0  0  0  0  0  0  0
    4.5284   -0.9638    0.0487 C   0  0  0  0  0  0  0  0  0  0  0  0
    5.4948   -0.8210   -0.9551 C   0  0  0  0  0  0  0  0  0  0  0  0
    7.7939   -1.3360   -2.5283 H   0  0  0  0  0  0  0  0  0  0  0  0
    7.4449    0.4371   -2.5752 H   0  0  0  0  0  0  0  0  0  0  0  0
    7.8571   -0.4419   -4.0527 H   0  0  0  0  0  0  0  0  0  0  0  0
    3.5011   -1.2543   -3.6619 H   0  0  0  0  0  0  0  0  0  0  0  0
    1.8111   -1.5327   -1.9159 H   0  0  0  0  0  0  0  0  0  0  0  0
    2.7069   -1.6192    1.6786 H   0  0  0  0  0  0  0  0  0  0  0  0
    0.1940    0.7756   -1.4730 H   0  0  0  0  0  0  0  0  0  0  0  0
    1.4678    0.8516   -0.2477 H   0  0  0  0  0  0  0  0  0  0  0  0
   -0.0663    1.3922    1.5241 H   0  0  0  0  0  0  0  0  0  0  0  0
   -0.3911    2.4871    0.1668 H   0  0  0  0  0  0  0  0  0  0  0  0
   -2.5832    2.8313    1.3685 H   0  0  0  0  0  0  0  0  0  0  0  0
   -5.8917    4.0069    2.2725 H   0  0  0  0  0  0  0  0  0  0  0  0
   -4.2738    3.5487    2.8146 H   0  0  0  0  0  0  0  0  0  0  0  0
   -4.5549    4.1145    1.1213 H   0  0  0  0  0  0  0  0  0  0  0  0
   -6.2863    0.1144    2.6929 H   0  0  0  0  0  0  0  0  0  0  0  0
   -7.1793   -1.2215    1.9549 H   0  0  0  0  0  0  0  0  0  0  0  0
   -5.4866   -1.4717    2.4126 H   0  0  0  0  0  0  0  0  0  0  0  0
   -3.8667   -1.7033   -0.1937 H   0  0  0  0  0  0  0  0  0  0  0  0
   -1.3885   -2.2767   -0.2072 H   0  0  0  0  0  0  0  0  0  0  0  0
   -1.2811   -1.1908   -1.5919 H   0  0  0  0  0  0  0  0  0  0  0  0
    4.8411   -0.8851    1.0873 H   0  0  0  0  0  0  0  0  0  0  0  0
    6.5207   -0.6416   -0.6530 H   0  0  0  0  0  0  0  0  0  0  0  0
  1  2  1  0
  2  3  1  0
  3  4  2  0
  4  5  1  0
  5  6  2  0
  6  7  1  0
  7  8  1  0
  8  9  2  0
  8 10  1  0
 10 11  1  0
 11 12  1  0
 12 13  1  0
 13 14  2  0
 14 15  1  0
 15 16  1  0
 16 17  1  0
 15 18  2  0
 18 19  1  0
 19 20  1  0
 18 21  1  0
 21 22  2  0
 22 23  1  0
  6 24  1  0
 24 25  2  0
 25  3  1  0
 23 10  1  0
 22 13  1  0
  1 26  1  0
  1 27  1  0
  1 28  1  0
  4 29  1  0
  5 30  1  0
  7 31  1  0
 11 32  1  0
 11 33  1  0
 12 34  1  0
 12 35  1  0
 14 36  1  0
 17 37  1  0
 17 38  1  0
 17 39  1  0
 20 40  1  0
 20 41  1  0
 20 42  1  0
 21 43  1  0
 23 44  1  0
 23 45  1  0
 24 46  1  0
 25 47  1  0
M  END
$$$$
