
     RDKit          3D

 52 55  0  0  0  0  0  0  0  0999 V2000
    8.4943   -0.1269   -1.8714 C   0  0  0  0  0  0  0  0  0  0  0  0
    8.1274   -0.7934   -0.5570 C   0  0  0  0  0  0  0  0  0  0  0  0
    7.3796    0.0977    0.2682 O   0  0  0  0  0  0  0  0  0  0  0  0
    6.0156    0.0578    0.2130 C   0  0  0  0  0  0  0  0  0  0  0  0
    5.3715    0.7698    1.2262 C   0  0  0  0  0  0  0  0  0  0  0  0
    3.9750    0.8170    1.2981 C   0  0  0  0  0  0  0  0  0  0  0  0
    3.1998    0.1631    0.3425 C   0  0  0  0  0  0  0  0  0  0  0  0
    1.7905    0.1443    0.3562 N   0  0  0  0  0  0  0  0  0  0  0  0
    0.9510    0.9331    1.1132 C   0  0  0  0  0  0  0  0  0  0  0  0
    1.3069    1.9064    1.7716 O   0  0  0  0  0  0  0  0  0  0  0  0
   -0.3994    0.5458    1.0374 N   0  0  0  0  0  0  0  0  0  0  0  0
   -0.7804   -0.8691    0.9666 C   0  0  0  0  0  0  0  0  0  0  0  0
   -2.1886   -1.0514    0.4133 C   0  0  0  0  0  0  0  0  0  0  0  0
   -3.1907   -0.2021    1.2010 C   0  0  0  0  0  0  0  0  0  0  0  0
   -4.5591   -0.3891    0.7599 N   0  0  0  0  0  0  0  0  0  0  0  0
   -5.5726   -0.9484    1.5740 C   0  0  0  0  0  0  0  0  0  0  0  0
   -5.4738   -1.3509    2.7212 O   0  0  0  0  0  0  0  0  0  0  0  0
   -6.7442   -0.9606    0.8076 N   0  0  0  0  0  0  0  0  0  0  0  0
   -6.4723   -0.4280   -0.4445 C   0  0  0  0  0  0  0  0  0  0  0  0
   -7.3318   -0.2508   -1.5055 C   0  0  0  0  0  0  0  0  0  0  0  0
   -6.7939    0.3143   -2.6636 C   0  0  0  0  0  0  0  0  0  0  0  0
   -5.4335    0.6792   -2.7250 C   0  0  0  0  0  0  0  0  0  0  0  0
   -4.5811    0.4869   -1.6293 C   0  0  0  0  0  0  0  0  0  0  0  0
   -5.1223   -0.0710   -0.4906 C   0  0  0  0  0  0  0  0  0  0  0  0
   -2.7629    1.2673    1.2365 C   0  0  0  0  0  0  0  0  0  0  0  0
   -1.3394    1.4001    1.7644 C   0  0  0  0  0  0  0  0  0  0  0  0
    3.8457   -0.5464   -0.6764 C   0  0  0  0  0  0  0  0  0  0  0  0
    5.2450   -0.5964   -0.7445 C   0  0  0  0  0  0  0  0  0  0  0  0
    9.0073    0.8225   -1.6890 H   0  0  0  0  0  0  0  0  0  0  0  0
    9.1506   -0.7755   -2.4588 H   0  0  0  0  0  0  0  0  0  0  0  0
    7.6049    0.1017   -2.4675 H   0  0  0  0  0  0  0  0  0  0  0  0
    9.0530   -1.0163   -0.0125 H   0  0  0  0  0  0  0  0  0  0  0  0
    7.6258   -1.7563   -0.7029 H   0  0  0  0  0  0  0  0  0  0  0  0
    5.9608    1.2914    1.9770 H   0  0  0  0  0  0  0  0  0  0  0  0
    3.5249    1.3688    2.1178 H   0  0  0  0  0  0  0  0  0  0  0  0
    1.3456   -0.3162   -0.4215 H   0  0  0  0  0  0  0  0  0  0  0  0
   -0.7101   -1.2751    1.9841 H   0  0  0  0  0  0  0  0  0  0  0  0
   -0.0816   -1.4464    0.3566 H   0  0  0  0  0  0  0  0  0  0  0  0
   -2.1910   -0.7726   -0.6459 H   0  0  0  0  0  0  0  0  0  0  0  0
   -2.4699   -2.1103    0.4607 H   0  0  0  0  0  0  0  0  0  0  0  0
   -3.1535   -0.5612    2.2395 H   0  0  0  0  0  0  0  0  0  0  0  0
   -7.6271   -1.3057    1.1456 H   0  0  0  0  0  0  0  0  0  0  0  0
   -8.3765   -0.5329   -1.4504 H   0  0  0  0  0  0  0  0  0  0  0  0
   -7.4322    0.4777   -3.5302 H   0  0  0  0  0  0  0  0  0  0  0  0
   -5.0411    1.1209   -3.6390 H   0  0  0  0  0  0  0  0  0  0  0  0
   -3.5403    0.7748   -1.6988 H   0  0  0  0  0  0  0  0  0  0  0  0
   -3.4470    1.8473    1.8672 H   0  0  0  0  0  0  0  0  0  0  0  0
   -2.8073    1.7097    0.2361 H   0  0  0  0  0  0  0  0  0  0  0  0
   -1.2902    1.1239    2.8253 H   0  0  0  0  0  0  0  0  0  0  0  0
   -1.0288    2.4483    1.6867 H   0  0  0  0  0  0  0  0  0  0  0  0
    3.2723   -1.0700   -1.4366 H   0  0  0  0  0  0  0  0  0  0  0  0
    5.6953   -1.1467   -1.5635 H   0  0  0  0  0  0  0  0  0  0  0  0
  1  2  1  0
  2  3  1  0
  3  4  1  0
  4  5  2  0
  5  6  1  0
  6  7  2  0
  7  8  1  0
  8  9  1  0
  9 10  2  0
  9 11  1  0
 11 12  1  0
 12 13  1  0
 13 14  1  0
 14 15  1  0
 15 16  1  0
 16 17  2  0
 16 18  1  0
 18 19  1  0
 19 20  2  0
 20 21  1  0
 21 22  2  0
 22 23  1  0
 23 24  2  0
 14 25  1  0
 25 26  1  0
  7 27  1  0
 27 28  2  0
 28  4  1  0
 26 11  1  0
 24 15  1  0
 24 19  1  0
  1 29  1  0
  1 30  1  0
  1 31  1  0
  2 32  1  0
  2 33  1  0
  5 34  1  0
  6 35  1  0
  8 36  1  0
 12 37  1  0
 12 38  1  0
 13 39  1  0
 13 40  1  0
 14 41  1  0
 18 42  1  0
 20 43  1  0
 21 44  1  0
 22 45  1  0
 23 46  1  0
 25 47  1  0
 25 48  1  0
 26 49  1  0
 26 50  1  0
 27 51  1  0
 28 52  1  0
M  END
$$$$
