
     RDKit          3D

 79 86  0  0  0  0  0  0  0  0999 V2000
    3.5292   -5.5939    4.0760 C   0  0  0  0  0  0  0  0  0  0  0  0
    2.3516   -5.0539    3.4942 O   0  0  0  0  0  0  0  0  0  0  0  0
    2.4728   -3.8823    2.7928 C   0  0  0  0  0  0  0  0  0  0  0  0
    3.6816   -3.2128    2.5536 C   0  0  0  0  0  0  0  0  0  0  0  0
    3.7190   -2.0406    1.7817 C   0  0  0  0  0  0  0  0  0  0  0  0
    2.5446   -1.5042    1.2520 C   0  0  0  0  0  0  0  0  0  0  0  0
    1.3350   -2.1273    1.5670 C   0  0  0  0  0  0  0  0  0  0  0  0
    1.2848   -3.3396    2.2824 C   0  0  0  0  0  0  0  0  0  0  0  0
    0.1070   -4.0643    2.4850 O   0  0  0  0  0  0  0  0  0  0  0  0
   -1.0394   -3.4837    1.9885 C   0  0  0  0  0  0  0  0  0  0  0  0
   -1.7873   -2.6793    2.8423 C   0  0  0  0  0  0  0  0  0  0  0  0
   -2.6630   -1.7532    2.2883 C   0  0  0  0  0  0  0  0  0  0  0  0
   -2.7603   -1.6218    0.8924 C   0  0  0  0  0  0  0  0  0  0  0  0
   -2.1574   -2.5799    0.0646 C   0  0  0  0  0  0  0  0  0  0  0  0
   -1.3089   -3.5364    0.6184 C   0  0  0  0  0  0  0  0  0  0  0  0
   -3.3479   -0.3561    0.2931 C   0  0  0  0  0  0  0  0  0  0  0  0
   -2.5063    0.8963    0.7160 C   0  0  0  0  0  0  0  0  0  0  0  0
   -2.4496    1.9716   -0.3587 C   0  0  0  0  0  0  0  0  0  0  0  0
   -3.5596    2.8350   -0.4684 C   0  0  0  0  0  0  0  0  0  0  0  0
   -3.5681    3.8789   -1.3992 C   0  0  0  0  0  0  0  0  0  0  0  0
   -2.4447    4.1130   -2.1907 C   0  0  0  0  0  0  0  0  0  0  0  0
   -2.3282    5.1314   -3.1026 O   0  0  0  0  0  0  0  0  0  0  0  0
   -3.4442    5.9941   -3.2713 C   0  0  0  0  0  0  0  0  0  0  0  0
   -1.3270    3.2689   -2.0611 C   0  0  0  0  0  0  0  0  0  0  0  0
   -1.3313    2.1817   -1.1811 C   0  0  0  0  0  0  0  0  0  0  0  0
   -0.2550    1.3212   -1.0899 O   0  0  0  0  0  0  0  0  0  0  0  0
    0.8293    1.5958   -1.8970 C   0  0  0  0  0  0  0  0  0  0  0  0
    0.8438    2.7320   -2.7083 C   0  0  0  0  0  0  0  0  0  0  0  0
    1.9517    3.0481   -3.4915 C   0  0  0  0  0  0  0  0  0  0  0  0
    3.0515    2.2006   -3.5041 C   0  0  0  0  0  0  0  0  0  0  0  0
    3.0400    1.0220   -2.7452 C   0  0  0  0  0  0  0  0  0  0  0  0
    1.9290    0.7128   -1.9194 C   0  0  0  0  0  0  0  0  0  0  0  0
    1.9544   -0.5966   -1.1231 C   0  0  0  0  0  0  0  0  0  0  0  0
    2.5479   -0.3208    0.3057 C   0  0  0  0  0  0  0  0  0  0  0  0
    2.6274   -1.6189   -1.9652 N   0  0  0  0  0  0  0  0  0  0  0  0
    2.4374   -2.9994   -1.5545 C   0  0  0  0  0  0  0  0  0  0  0  0
    4.0326   -1.2915   -2.1909 C   0  0  0  0  0  0  0  0  0  0  0  0
    4.1940    0.0563   -2.9087 C   0  0  0  0  0  0  0  0  0  0  0  0
   -0.2227    3.5815   -2.8139 O   0  0  0  0  0  0  0  0  0  0  0  0
   -4.7151    2.6039    0.4677 C   0  0  0  0  0  0  0  0  0  0  0  0
   -4.1963    2.3182    1.8874 C   0  0  0  0  0  0  0  0  0  0  0  0
   -3.0105    1.4452    2.0082 N   0  0  0  0  0  0  0  0  0  0  0  0
   -1.9413    2.1072    2.7592 C   0  0  0  0  0  0  0  0  0  0  0  0
    4.2536   -5.8794    3.3065 H   0  0  0  0  0  0  0  0  0  0  0  0
    3.9701   -4.8977    4.7970 H   0  0  0  0  0  0  0  0  0  0  0  0
    3.2479   -6.5009    4.6199 H   0  0  0  0  0  0  0  0  0  0  0  0
    4.6250   -3.5939    2.9309 H   0  0  0  0  0  0  0  0  0  0  0  0
    4.6789   -1.5723    1.5765 H   0  0  0  0  0  0  0  0  0  0  0  0
    0.4308   -1.6600    1.1913 H   0  0  0  0  0  0  0  0  0  0  0  0
   -1.5922   -2.6803    3.9102 H   0  0  0  0  0  0  0  0  0  0  0  0
   -3.1654   -1.0467    2.9455 H   0  0  0  0  0  0  0  0  0  0  0  0
   -2.2511   -2.5174   -1.0171 H   0  0  0  0  0  0  0  0  0  0  0  0
   -0.7411   -4.2017   -0.0252 H   0  0  0  0  0  0  0  0  0  0  0  0
   -3.3617   -0.4460   -0.8006 H   0  0  0  0  0  0  0  0  0  0  0  0
   -4.3961   -0.2778    0.6050 H   0  0  0  0  0  0  0  0  0  0  0  0
   -1.4781    0.5472    0.8833 H   0  0  0  0  0  0  0  0  0  0  0  0
   -4.4465    4.5127   -1.4608 H   0  0  0  0  0  0  0  0  0  0  0  0
   -3.6632    6.5398   -2.3478 H   0  0  0  0  0  0  0  0  0  0  0  0
   -4.3214    5.4417   -3.6235 H   0  0  0  0  0  0  0  0  0  0  0  0
   -3.1853    6.7302   -4.0387 H   0  0  0  0  0  0  0  0  0  0  0  0
    1.9425    3.9414   -4.1101 H   0  0  0  0  0  0  0  0  0  0  0  0
    3.8995    2.4365   -4.1432 H   0  0  0  0  0  0  0  0  0  0  0  0
    0.9111   -0.9210   -1.0176 H   0  0  0  0  0  0  0  0  0  0  0  0
    1.9644    0.4777    0.7863 H   0  0  0  0  0  0  0  0  0  0  0  0
    3.5646    0.0849    0.2258 H   0  0  0  0  0  0  0  0  0  0  0  0
    3.0533   -3.2871   -0.6999 H   0  0  0  0  0  0  0  0  0  0  0  0
    2.7067   -3.6682   -2.3808 H   0  0  0  0  0  0  0  0  0  0  0  0
    1.3868   -3.2069   -1.3268 H   0  0  0  0  0  0  0  0  0  0  0  0
    4.5937   -1.2798   -1.2491 H   0  0  0  0  0  0  0  0  0  0  0  0
    4.5135   -2.0606   -2.8089 H   0  0  0  0  0  0  0  0  0  0  0  0
    5.1187    0.5383   -2.5685 H   0  0  0  0  0  0  0  0  0  0  0  0
    4.3011   -0.1451   -3.9836 H   0  0  0  0  0  0  0  0  0  0  0  0
   -5.3150    1.7673    0.0923 H   0  0  0  0  0  0  0  0  0  0  0  0
   -5.3733    3.4804    0.4993 H   0  0  0  0  0  0  0  0  0  0  0  0
   -5.0092    1.8697    2.4714 H   0  0  0  0  0  0  0  0  0  0  0  0
   -4.0000    3.2904    2.3622 H   0  0  0  0  0  0  0  0  0  0  0  0
   -2.3013    2.4128    3.7482 H   0  0  0  0  0  0  0  0  0  0  0  0
   -1.5556    2.9934    2.2424 H   0  0  0  0  0  0  0  0  0  0  0  0
   -1.1067    1.4193    2.9363 H   0  0  0  0  0  0  0  0  0  0  0  0
  1  2  1  0
  2  3  1  0
  3  4  2  0
  4  5  1  0
  5  6  2  0
  6  7  1  0
  7  8  2  0
  8  9  1  0
  9 10  1  0
 10 11  2  0
 11 12  1  0
 12 13  2  0
 13 14  1  0
 14 15  2  0
 13 16  1  0
 16 17  1  0
 17 18  1  0
 18 19  2  0
 19 20  1  0
 20 21  2  0
 21 22  1  0
 22 23  1  0
 21 24  1  0
 24 25  2  0
 25 26  1  0
 26 27  1  0
 27 28  2  0
 28 29  1  0
 29 30  2  0
 30 31  1  0
 31 32  2  0
 32 33  1  0
 33 34  1  0
 33 35  1  0
 35 36  1  0
 35 37  1  0
 37 38  1  0
 28 39  1  0
 19 40  1  0
 40 41  1  0
 41 42  1  0
 42 43  1  0
  8  3  1  0
 15 10  1  0
 42 17  1  0
 34  6  1  0
 25 18  1  0
 32 27  1  0
 39 24  1  0
 38 31  1  0
  1 44  1  0
  1 45  1  0
  1 46  1  0
  4 47  1  0
  5 48  1  0
  7 49  1  0
 11 50  1  0
 12 51  1  0
 14 52  1  0
 15 53  1  0
 16 54  1  0
 16 55  1  0
 17 56  1  0
 20 57  1  0
 23 58  1  0
 23 59  1  0
 23 60  1  0
 29 61  1  0
 30 62  1  0
 33 63  1  0
 34 64  1  0
 34 65  1  0
 36 66  1  0
 36 67  1  0
 36 68  1  0
 37 69  1  0
 37 70  1  0
 38 71  1  0
 38 72  1  0
 40 73  1  0
 40 74  1  0
 41 75  1  0
 41 76  1  0
 43 77  1  0
 43 78  1  0
 43 79  1  0
M  END
$$$$
