
     RDKit          3D

 43 44  0  0  0  0  0  0  0  0999 V2000
   -6.5610    2.5484    2.5290 C   0  0  0  0  0  0  0  0  0  0  0  0
   -7.6218    1.6749    1.8793 C   0  0  0  0  0  0  0  0  0  0  0  0
   -7.2927    1.3106    0.4331 C   0  0  0  0  0  0  0  0  0  0  0  0
   -6.1402    0.3851    0.3309 C   0  0  0  0  0  0  0  0  0  0  0  0
   -6.0200   -0.8554    0.7510 N   0  0  0  0  0  0  0  0  0  0  0  0
   -4.7471   -1.2561    0.4061 N   0  0  0  0  0  0  0  0  0  0  0  0
   -4.1802   -0.2369   -0.2045 C   0  0  0  0  0  0  0  0  0  0  0  0
   -2.5599   -0.2245   -0.8264 S   0  0  0  0  0  0  0  0  0  0  0  0
   -2.0297   -1.8998   -0.3549 C   0  0  0  0  0  0  0  0  0  0  0  0
   -0.5827   -2.1669   -0.7480 C   0  0  0  0  0  0  0  0  0  0  0  0
   -0.2620   -3.2543   -1.2190 O   0  0  0  0  0  0  0  0  0  0  0  0
    0.2824   -1.1274   -0.4521 N   0  0  0  0  0  0  0  0  0  0  0  0
    1.6789   -1.0862   -0.6271 C   0  0  0  0  0  0  0  0  0  0  0  0
    2.4496   -2.1764   -1.0332 C   0  0  0  0  0  0  0  0  0  0  0  0
    3.8360   -2.0499   -1.1838 C   0  0  0  0  0  0  0  0  0  0  0  0
    4.4704   -0.8285   -0.9349 C   0  0  0  0  0  0  0  0  0  0  0  0
    5.9447   -0.7474   -1.1206 C   0  0  0  0  0  0  0  0  0  0  0  0
    6.6478   -1.7155   -1.3649 O   0  0  0  0  0  0  0  0  0  0  0  0
    6.3682    0.5356   -0.9913 O   0  0  0  0  0  0  0  0  0  0  0  0
    7.7756    0.7492   -1.1772 C   0  0  0  0  0  0  0  0  0  0  0  0
    8.5018    0.6026    0.1477 C   0  0  0  0  0  0  0  0  0  0  0  0
    3.7022    0.2618   -0.5155 C   0  0  0  0  0  0  0  0  0  0  0  0
    2.3174    0.1299   -0.3608 C   0  0  0  0  0  0  0  0  0  0  0  0
   -5.0113    0.8494   -0.2850 O   0  0  0  0  0  0  0  0  0  0  0  0
   -5.6002    2.0306    2.5983 H   0  0  0  0  0  0  0  0  0  0  0  0
   -6.4118    3.4706    1.9637 H   0  0  0  0  0  0  0  0  0  0  0  0
   -6.8739    2.8202    3.5423 H   0  0  0  0  0  0  0  0  0  0  0  0
   -7.7611    0.7690    2.4777 H   0  0  0  0  0  0  0  0  0  0  0  0
   -8.5736    2.2178    1.8986 H   0  0  0  0  0  0  0  0  0  0  0  0
   -8.1632    0.8247   -0.0195 H   0  0  0  0  0  0  0  0  0  0  0  0
   -7.1054    2.2212   -0.1487 H   0  0  0  0  0  0  0  0  0  0  0  0
   -2.1176   -2.0406    0.7270 H   0  0  0  0  0  0  0  0  0  0  0  0
   -2.6645   -2.6297   -0.8686 H   0  0  0  0  0  0  0  0  0  0  0  0
   -0.1581   -0.2673   -0.1472 H   0  0  0  0  0  0  0  0  0  0  0  0
    2.0069   -3.1466   -1.2340 H   0  0  0  0  0  0  0  0  0  0  0  0
    4.4166   -2.9172   -1.4971 H   0  0  0  0  0  0  0  0  0  0  0  0
    7.8980    1.7699   -1.5565 H   0  0  0  0  0  0  0  0  0  0  0  0
    8.1876    0.0726   -1.9362 H   0  0  0  0  0  0  0  0  0  0  0  0
    8.0920    1.2974    0.8896 H   0  0  0  0  0  0  0  0  0  0  0  0
    8.3784   -0.4073    0.5516 H   0  0  0  0  0  0  0  0  0  0  0  0
    9.5705    0.8036    0.0278 H   0  0  0  0  0  0  0  0  0  0  0  0
    4.1650    1.2236   -0.3105 H   0  0  0  0  0  0  0  0  0  0  0  0
    1.7483    0.9972   -0.0362 H   0  0  0  0  0  0  0  0  0  0  0  0
  1  2  1  0
  2  3  1  0
  3  4  1  0
  4  5  2  0
  5  6  1  0
  6  7  2  0
  7  8  1  0
  8  9  1  0
  9 10  1  0
 10 11  2  0
 10 12  1  0
 12 13  1  0
 13 14  2  0
 14 15  1  0
 15 16  2  0
 16 17  1  0
 17 18  2  0
 17 19  1  0
 19 20  1  0
 20 21  1  0
 16 22  1  0
 22 23  2  0
  7 24  1  0
 24  4  1  0
 23 13  1  0
  1 25  1  0
  1 26  1  0
  1 27  1  0
  2 28  1  0
  2 29  1  0
  3 30  1  0
  3 31  1  0
  9 32  1  0
  9 33  1  0
 12 34  1  0
 14 35  1  0
 15 36  1  0
 20 37  1  0
 20 38  1  0
 21 39  1  0
 21 40  1  0
 21 41  1  0
 22 42  1  0
 23 43  1  0
M  END
$$$$
