
     RDKit          3D

 34 34  0  0  0  0  0  0  0  0999 V2000
    4.6107   -1.2029   -0.4703 C   0  0  0  0  0  0  0  0  0  0  0  0
    3.7162   -0.2708    0.1193 O   0  0  0  0  0  0  0  0  0  0  0  0
    2.4755   -0.1256   -0.4527 C   0  0  0  0  0  0  0  0  0  0  0  0
    2.0031   -0.8957   -1.5211 C   0  0  0  0  0  0  0  0  0  0  0  0
    0.7186   -0.6885   -2.0310 C   0  0  0  0  0  0  0  0  0  0  0  0
   -0.1108    0.2957   -1.4844 C   0  0  0  0  0  0  0  0  0  0  0  0
   -1.5183    0.4886   -1.9929 C   0  0  0  0  0  0  0  0  0  0  0  0
   -2.4613   -0.1201   -1.0837 N   0  0  0  0  0  0  0  0  0  0  0  0
   -3.2687    0.6166   -0.2707 C   0  0  0  0  0  0  0  0  0  0  0  0
   -3.4174    1.8302   -0.3440 O   0  0  0  0  0  0  0  0  0  0  0  0
   -4.0658   -0.1605    0.7067 C   0  0  0  0  0  0  0  0  0  0  0  0
   -3.6397   -1.0709    1.5950 C   0  0  0  0  0  0  0  0  0  0  0  0
   -2.2675   -1.5350    1.8162 C   0  0  0  0  0  0  0  0  0  0  0  0
   -1.7635   -1.6957    2.9125 O   0  0  0  0  0  0  0  0  0  0  0  0
   -1.6362   -1.8774    0.6842 O   0  0  0  0  0  0  0  0  0  0  0  0
    0.3624    1.0687   -0.4124 C   0  0  0  0  0  0  0  0  0  0  0  0
    1.6470    0.8673    0.1076 C   0  0  0  0  0  0  0  0  0  0  0  0
    2.1783    1.5762    1.1586 O   0  0  0  0  0  0  0  0  0  0  0  0
    1.3935    2.6262    1.7079 C   0  0  0  0  0  0  0  0  0  0  0  0
    4.2254   -2.2263   -0.3842 H   0  0  0  0  0  0  0  0  0  0  0  0
    5.5567   -1.1565    0.0815 H   0  0  0  0  0  0  0  0  0  0  0  0
    4.8214   -0.9444   -1.5138 H   0  0  0  0  0  0  0  0  0  0  0  0
    2.6094   -1.6704   -1.9779 H   0  0  0  0  0  0  0  0  0  0  0  0
    0.3696   -1.3055   -2.8585 H   0  0  0  0  0  0  0  0  0  0  0  0
   -1.6466   -0.0010   -2.9652 H   0  0  0  0  0  0  0  0  0  0  0  0
   -1.7286    1.5556   -2.1325 H   0  0  0  0  0  0  0  0  0  0  0  0
   -2.2992   -1.0915   -0.8332 H   0  0  0  0  0  0  0  0  0  0  0  0
   -5.1046    0.1594    0.7415 H   0  0  0  0  0  0  0  0  0  0  0  0
   -4.3445   -1.4598    2.3242 H   0  0  0  0  0  0  0  0  0  0  0  0
   -0.7370   -2.1318    0.9918 H   0  0  0  0  0  0  0  0  0  0  0  0
   -0.3042    1.8179    0.0050 H   0  0  0  0  0  0  0  0  0  0  0  0
    1.9777    3.0994    2.5045 H   0  0  0  0  0  0  0  0  0  0  0  0
    0.4736    2.2360    2.1573 H   0  0  0  0  0  0  0  0  0  0  0  0
    1.1749    3.3923    0.9549 H   0  0  0  0  0  0  0  0  0  0  0  0
  1  2  1  0
  2  3  1  0
  3  4  2  0
  4  5  1  0
  5  6  2  0
  6  7  1  0
  7  8  1  0
  8  9  1  0
  9 10  2  0
  9 11  1  0
 11 12  2  3
 12 13  1  0
 13 14  2  0
 13 15  1  0
  6 16  1  0
 16 17  2  0
 17 18  1  0
 18 19  1  0
 17  3  1  0
  1 20  1  0
  1 21  1  0
  1 22  1  0
  4 23  1  0
  5 24  1  0
  7 25  1  0
  7 26  1  0
  8 27  1  0
 11 28  1  0
 12 29  1  0
 15 30  1  0
 16 31  1  0
 19 32  1  0
 19 33  1  0
 19 34  1  0
M  END
$$$$
