
     RDKit          3D

 63 67  0  0  0  0  0  0  0  0999 V2000
   -5.5030   -4.2763   -1.8612 C   0  0  0  0  0  0  0  0  0  0  0  0
   -4.8052   -4.8731   -0.7752 O   0  0  0  0  0  0  0  0  0  0  0  0
   -4.2132   -4.0251    0.1207 C   0  0  0  0  0  0  0  0  0  0  0  0
   -3.5948   -4.6588    1.2009 C   0  0  0  0  0  0  0  0  0  0  0  0
   -2.9509   -3.9142    2.1883 C   0  0  0  0  0  0  0  0  0  0  0  0
   -2.9215   -2.5234    2.0997 C   0  0  0  0  0  0  0  0  0  0  0  0
   -3.5342   -1.8693    1.0230 C   0  0  0  0  0  0  0  0  0  0  0  0
   -3.4826   -0.4038    0.9233 C   0  0  0  0  0  0  0  0  0  0  0  0
   -4.9559    0.4665    0.9784 S   0  0  0  0  0  0  0  0  0  0  0  0
   -4.1707    1.9866    0.8467 C   0  0  0  0  0  0  0  0  0  0  0  0
   -4.7835    3.2542    0.8204 C   0  0  0  0  0  0  0  0  0  0  0  0
   -3.9864    4.3984    0.7017 C   0  0  0  0  0  0  0  0  0  0  0  0
   -2.6058    4.2914    0.6080 C   0  0  0  0  0  0  0  0  0  0  0  0
   -1.7242    5.3303    0.4854 O   0  0  0  0  0  0  0  0  0  0  0  0
   -2.2726    6.6419    0.4532 C   0  0  0  0  0  0  0  0  0  0  0  0
   -2.0096    3.0248    0.6362 C   0  0  0  0  0  0  0  0  0  0  0  0
   -2.7860    1.8423    0.7619 C   0  0  0  0  0  0  0  0  0  0  0  0
   -2.3940    0.4495    0.8138 C   0  0  0  0  0  0  0  0  0  0  0  0
   -1.0230   -0.0506    0.7578 C   0  0  0  0  0  0  0  0  0  0  0  0
   -0.5832   -0.8062   -0.3341 C   0  0  0  0  0  0  0  0  0  0  0  0
    0.7325   -1.2832   -0.3838 C   0  0  0  0  0  0  0  0  0  0  0  0
    1.6209   -1.0028    0.6537 C   0  0  0  0  0  0  0  0  0  0  0  0
    2.9241   -1.4011    0.7403 O   0  0  0  0  0  0  0  0  0  0  0  0
    3.5195   -2.0874   -0.3620 C   0  0  0  0  0  0  0  0  0  0  0  0
    3.9983   -1.1291   -1.4726 C   0  0  0  0  0  0  0  0  0  0  0  0
    4.9531   -0.0880   -1.0425 N   0  0  0  0  0  0  0  0  0  0  0  0
    6.2416   -0.6485   -0.5881 C   0  0  0  0  0  0  0  0  0  0  0  0
    7.2451    0.4610   -0.2296 C   0  0  0  0  0  0  0  0  0  0  0  0
    7.4689    1.3401   -1.3395 O   0  0  0  0  0  0  0  0  0  0  0  0
    6.2290    1.9376   -1.7408 C   0  0  0  0  0  0  0  0  0  0  0  0
    5.2056    0.8654   -2.1445 C   0  0  0  0  0  0  0  0  0  0  0  0
    1.1785   -0.2453    1.7420 C   0  0  0  0  0  0  0  0  0  0  0  0
   -0.1332    0.2317    1.7973 C   0  0  0  0  0  0  0  0  0  0  0  0
   -4.1786   -2.6317    0.0331 C   0  0  0  0  0  0  0  0  0  0  0  0
   -5.9414   -5.0810   -2.4593 H   0  0  0  0  0  0  0  0  0  0  0  0
   -4.8195   -3.7159   -2.5076 H   0  0  0  0  0  0  0  0  0  0  0  0
   -6.3218   -3.6420   -1.5055 H   0  0  0  0  0  0  0  0  0  0  0  0
   -3.6163   -5.7436    1.2727 H   0  0  0  0  0  0  0  0  0  0  0  0
   -2.4721   -4.4172    3.0241 H   0  0  0  0  0  0  0  0  0  0  0  0
   -2.4162   -1.9524    2.8754 H   0  0  0  0  0  0  0  0  0  0  0  0
   -5.8641    3.3455    0.8907 H   0  0  0  0  0  0  0  0  0  0  0  0
   -4.4874    5.3609    0.6844 H   0  0  0  0  0  0  0  0  0  0  0  0
   -2.7973    6.8735    1.3860 H   0  0  0  0  0  0  0  0  0  0  0  0
   -2.9285    6.7741   -0.4137 H   0  0  0  0  0  0  0  0  0  0  0  0
   -1.4432    7.3486    0.3537 H   0  0  0  0  0  0  0  0  0  0  0  0
   -0.9270    2.9500    0.5570 H   0  0  0  0  0  0  0  0  0  0  0  0
   -1.2606   -1.0318   -1.1545 H   0  0  0  0  0  0  0  0  0  0  0  0
    1.0215   -1.8683   -1.2489 H   0  0  0  0  0  0  0  0  0  0  0  0
    4.3740   -2.6427    0.0399 H   0  0  0  0  0  0  0  0  0  0  0  0
    2.8522   -2.8582   -0.7645 H   0  0  0  0  0  0  0  0  0  0  0  0
    4.4281   -1.7255   -2.2876 H   0  0  0  0  0  0  0  0  0  0  0  0
    3.1146   -0.6241   -1.8802 H   0  0  0  0  0  0  0  0  0  0  0  0
    6.0988   -1.2705    0.3012 H   0  0  0  0  0  0  0  0  0  0  0  0
    6.6733   -1.2757   -1.3787 H   0  0  0  0  0  0  0  0  0  0  0  0
    6.8998    1.0456    0.6318 H   0  0  0  0  0  0  0  0  0  0  0  0
    8.2086    0.0151    0.0373 H   0  0  0  0  0  0  0  0  0  0  0  0
    5.8482    2.5666   -0.9270 H   0  0  0  0  0  0  0  0  0  0  0  0
    6.4380    2.5899   -2.5947 H   0  0  0  0  0  0  0  0  0  0  0  0
    5.5850    0.3261   -3.0224 H   0  0  0  0  0  0  0  0  0  0  0  0
    4.2718    1.3635   -2.4298 H   0  0  0  0  0  0  0  0  0  0  0  0
    1.8664   -0.0211    2.5539 H   0  0  0  0  0  0  0  0  0  0  0  0
   -0.4511    0.8189    2.6554 H   0  0  0  0  0  0  0  0  0  0  0  0
   -4.6388   -2.1125   -0.8012 H   0  0  0  0  0  0  0  0  0  0  0  0
  1  2  1  0
  2  3  1  0
  3  4  2  0
  4  5  1  0
  5  6  2  0
  6  7  1  0
  7  8  1  0
  8  9  1  0
  9 10  1  0
 10 11  2  0
 11 12  1  0
 12 13  2  0
 13 14  1  0
 14 15  1  0
 13 16  1  0
 16 17  2  0
 17 18  1  0
 18 19  1  0
 19 20  2  0
 20 21  1  0
 21 22  2  0
 22 23  1  0
 23 24  1  0
 24 25  1  0
 25 26  1  0
 26 27  1  0
 27 28  1  0
 28 29  1  0
 29 30  1  0
 30 31  1  0
 22 32  1  0
 32 33  2  0
  7 34  2  0
 34  3  1  0
 18  8  2  0
 33 19  1  0
 17 10  1  0
 31 26  1  0
  1 35  1  0
  1 36  1  0
  1 37  1  0
  4 38  1  0
  5 39  1  0
  6 40  1  0
 11 41  1  0
 12 42  1  0
 15 43  1  0
 15 44  1  0
 15 45  1  0
 16 46  1  0
 20 47  1  0
 21 48  1  0
 24 49  1  0
 24 50  1  0
 25 51  1  0
 25 52  1  0
 27 53  1  0
 27 54  1  0
 28 55  1  0
 28 56  1  0
 30 57  1  0
 30 58  1  0
 31 59  1  0
 31 60  1  0
 32 61  1  0
 33 62  1  0
 34 63  1  0
M  END
$$$$
