
     RDKit          3D

 42 44  0  0  0  0  0  0  0  0999 V2000
   -5.3571    1.5542   -0.2020 C   0  0  0  0  0  0  0  0  0  0  0  0
   -4.6196    0.5833   -1.1372 C   0  0  0  0  0  0  0  0  0  0  0  0
   -4.5379    1.2226   -2.5353 C   0  0  0  0  0  0  0  0  0  0  0  0
   -5.4008   -0.7350   -1.2516 C   0  0  0  0  0  0  0  0  0  0  0  0
   -3.2529    0.3423   -0.6678 N   0  0  0  0  0  0  0  0  0  0  0  0
   -2.8997   -0.2213    0.5457 C   0  0  0  0  0  0  0  0  0  0  0  0
   -3.7076   -0.5967    1.3890 O   0  0  0  0  0  0  0  0  0  0  0  0
   -1.4324   -0.3202    0.7130 C   0  0  0  0  0  0  0  0  0  0  0  0
   -0.5616    0.1151   -0.2654 N   0  0  0  0  0  0  0  0  0  0  0  0
    0.6260   -0.1305    0.2370 C   0  0  0  0  0  0  0  0  0  0  0  0
    1.8493    0.1080   -0.3138 N   0  0  0  0  0  0  0  0  0  0  0  0
    2.8927   -0.2176    0.3940 C   0  0  0  0  0  0  0  0  0  0  0  0
    4.2533    0.0312   -0.1648 C   0  0  0  0  0  0  0  0  0  0  0  0
    5.3362    0.3891    0.6486 C   0  0  0  0  0  0  0  0  0  0  0  0
    6.5926    0.6151    0.0804 C   0  0  0  0  0  0  0  0  0  0  0  0
    6.7708    0.4937   -1.2973 C   0  0  0  0  0  0  0  0  0  0  0  0
    5.6928    0.1550   -2.1132 C   0  0  0  0  0  0  0  0  0  0  0  0
    4.4355   -0.0710   -1.5504 C   0  0  0  0  0  0  0  0  0  0  0  0
    2.8264   -0.8610    1.7464 C   0  0  0  0  0  0  0  0  0  0  0  0
    1.5947   -1.0773    2.2477 C   0  0  0  0  0  0  0  0  0  0  0  0
    1.3340   -1.7062    3.5622 C   0  0  0  0  0  0  0  0  0  0  0  0
    0.6394   -2.8645    3.4604 F   0  0  0  0  0  0  0  0  0  0  0  0
    2.4999   -2.0244    4.1932 F   0  0  0  0  0  0  0  0  0  0  0  0
    0.6662   -0.8877    4.4102 F   0  0  0  0  0  0  0  0  0  0  0  0
    0.4836   -0.7103    1.5031 N   0  0  0  0  0  0  0  0  0  0  0  0
   -0.8278   -0.8270    1.7984 N   0  0  0  0  0  0  0  0  0  0  0  0
   -4.7964    2.4886   -0.0840 H   0  0  0  0  0  0  0  0  0  0  0  0
   -5.4990    1.1311    0.7977 H   0  0  0  0  0  0  0  0  0  0  0  0
   -6.3495    1.8041   -0.5940 H   0  0  0  0  0  0  0  0  0  0  0  0
   -3.9856    2.1692   -2.5048 H   0  0  0  0  0  0  0  0  0  0  0  0
   -4.0158    0.5648   -3.2402 H   0  0  0  0  0  0  0  0  0  0  0  0
   -5.5346    1.4276   -2.9416 H   0  0  0  0  0  0  0  0  0  0  0  0
   -4.8711   -1.4516   -1.8898 H   0  0  0  0  0  0  0  0  0  0  0  0
   -6.3944   -0.5698   -1.6834 H   0  0  0  0  0  0  0  0  0  0  0  0
   -5.5448   -1.2114   -0.2765 H   0  0  0  0  0  0  0  0  0  0  0  0
   -2.4692    0.6072   -1.2605 H   0  0  0  0  0  0  0  0  0  0  0  0
    5.2228    0.5250    1.7201 H   0  0  0  0  0  0  0  0  0  0  0  0
    7.4329    0.8963    0.7111 H   0  0  0  0  0  0  0  0  0  0  0  0
    7.7489    0.6737   -1.7374 H   0  0  0  0  0  0  0  0  0  0  0  0
    5.8287    0.0713   -3.1888 H   0  0  0  0  0  0  0  0  0  0  0  0
    3.6007   -0.3285   -2.1996 H   0  0  0  0  0  0  0  0  0  0  0  0
    3.7302   -1.1563    2.2652 H   0  0  0  0  0  0  0  0  0  0  0  0
  1  2  1  0
  2  3  1  0
  2  4  1  0
  2  5  1  0
  5  6  1  0
  6  7  2  0
  6  8  1  0
  8  9  1  0
  9 10  2  0
 10 11  1  0
 11 12  2  0
 12 13  1  0
 13 14  2  0
 14 15  1  0
 15 16  2  0
 16 17  1  0
 17 18  2  0
 12 19  1  0
 19 20  2  0
 20 21  1  0
 21 22  1  0
 21 23  1  0
 21 24  1  0
 20 25  1  0
 25 26  1  0
 26  8  2  0
 25 10  1  0
 18 13  1  0
  1 27  1  0
  1 28  1  0
  1 29  1  0
  3 30  1  0
  3 31  1  0
  3 32  1  0
  4 33  1  0
  4 34  1  0
  4 35  1  0
  5 36  1  0
 14 37  1  0
 15 38  1  0
 16 39  1  0
 17 40  1  0
 18 41  1  0
 19 42  1  0
M  END
$$$$
