
     RDKit          3D

 57 60  0  0  0  0  0  0  0  0999 V2000
    5.2152    0.1884    3.6487 C   0  0  0  0  0  0  0  0  0  0  0  0
    4.6280   -0.4355    2.5165 O   0  0  0  0  0  0  0  0  0  0  0  0
    4.5124    0.3319    1.3835 C   0  0  0  0  0  0  0  0  0  0  0  0
    5.2966    1.4587    1.1164 C   0  0  0  0  0  0  0  0  0  0  0  0
    5.1042    2.1909   -0.0573 C   0  0  0  0  0  0  0  0  0  0  0  0
    4.1225    1.8065   -0.9687 C   0  0  0  0  0  0  0  0  0  0  0  0
    3.3261    0.6778   -0.7226 C   0  0  0  0  0  0  0  0  0  0  0  0
    2.2741    0.3631   -1.7339 C   0  0  0  0  0  0  0  0  0  0  0  0
    2.3922    0.7659   -2.8865 O   0  0  0  0  0  0  0  0  0  0  0  0
    1.1837   -0.3479   -1.2907 N   0  0  0  0  0  0  0  0  0  0  0  0
   -0.0311   -0.4561   -2.0678 C   0  0  0  0  0  0  0  0  0  0  0  0
   -0.6649   -1.8596   -2.0049 C   0  0  0  0  0  0  0  0  0  0  0  0
   -1.4932   -2.1863   -0.7191 C   0  0  0  0  0  0  0  0  0  0  0  0
   -2.2507   -3.5160   -0.9704 C   0  0  0  0  0  0  0  0  0  0  0  0
   -0.5731   -2.4144    0.4943 C   0  0  0  0  0  0  0  0  0  0  0  0
   -2.5442   -1.0782   -0.3785 C   0  0  0  0  0  0  0  0  0  0  0  0
   -2.1078    0.2903   -0.7887 C   0  0  0  0  0  0  0  0  0  0  0  0
   -0.9930    0.5575   -1.5634 C   0  0  0  0  0  0  0  0  0  0  0  0
   -1.0367    1.9329   -1.8028 C   0  0  0  0  0  0  0  0  0  0  0  0
   -2.1054    2.5068   -1.2596 N   0  0  0  0  0  0  0  0  0  0  0  0
   -2.7764    1.5046   -0.6213 N   0  0  0  0  0  0  0  0  0  0  0  0
   -3.9955    1.8377    0.0509 C   0  0  0  0  0  0  0  0  0  0  0  0
   -4.6407    0.9760    0.9428 C   0  0  0  0  0  0  0  0  0  0  0  0
   -5.8260    1.3650    1.5849 C   0  0  0  0  0  0  0  0  0  0  0  0
   -6.3848    2.6137    1.3347 C   0  0  0  0  0  0  0  0  0  0  0  0
   -5.7529    3.4702    0.4439 C   0  0  0  0  0  0  0  0  0  0  0  0
   -6.3023    4.6629    0.1788 F   0  0  0  0  0  0  0  0  0  0  0  0
   -4.5680    3.1042   -0.1855 C   0  0  0  0  0  0  0  0  0  0  0  0
    3.5513   -0.0785    0.4399 C   0  0  0  0  0  0  0  0  0  0  0  0
    2.7864   -1.1963    0.6925 O   0  0  0  0  0  0  0  0  0  0  0  0
    3.5250   -2.3797    0.3768 C   0  0  0  0  0  0  0  0  0  0  0  0
    6.3012    0.2743    3.5266 H   0  0  0  0  0  0  0  0  0  0  0  0
    4.7626    1.1636    3.8477 H   0  0  0  0  0  0  0  0  0  0  0  0
    5.0267   -0.4515    4.5153 H   0  0  0  0  0  0  0  0  0  0  0  0
    6.0732    1.7855    1.8001 H   0  0  0  0  0  0  0  0  0  0  0  0
    5.7167    3.0659   -0.2631 H   0  0  0  0  0  0  0  0  0  0  0  0
    3.9725    2.3954   -1.8720 H   0  0  0  0  0  0  0  0  0  0  0  0
    1.1384   -0.5260   -0.2943 H   0  0  0  0  0  0  0  0  0  0  0  0
    0.2032   -0.2421   -3.1154 H   0  0  0  0  0  0  0  0  0  0  0  0
   -1.3543   -1.9329   -2.8594 H   0  0  0  0  0  0  0  0  0  0  0  0
    0.1044   -2.6222   -2.1734 H   0  0  0  0  0  0  0  0  0  0  0  0
   -2.8952   -3.7776   -0.1254 H   0  0  0  0  0  0  0  0  0  0  0  0
   -1.5570   -4.3477   -1.1291 H   0  0  0  0  0  0  0  0  0  0  0  0
   -2.8887   -3.4375   -1.8605 H   0  0  0  0  0  0  0  0  0  0  0  0
   -1.1103   -2.9101    1.3108 H   0  0  0  0  0  0  0  0  0  0  0  0
   -0.1876   -1.4769    0.8986 H   0  0  0  0  0  0  0  0  0  0  0  0
    0.2759   -3.0532    0.2328 H   0  0  0  0  0  0  0  0  0  0  0  0
   -3.4895   -1.2895   -0.8938 H   0  0  0  0  0  0  0  0  0  0  0  0
   -2.7230   -1.1205    0.6939 H   0  0  0  0  0  0  0  0  0  0  0  0
   -0.3459    2.5377   -2.3744 H   0  0  0  0  0  0  0  0  0  0  0  0
   -4.2600    0.0018    1.1966 H   0  0  0  0  0  0  0  0  0  0  0  0
   -6.3075    0.6933    2.2882 H   0  0  0  0  0  0  0  0  0  0  0  0
   -7.3052    2.9226    1.8185 H   0  0  0  0  0  0  0  0  0  0  0  0
   -4.1181    3.8118   -0.8812 H   0  0  0  0  0  0  0  0  0  0  0  0
    2.8492   -3.2330    0.4728 H   0  0  0  0  0  0  0  0  0  0  0  0
    4.3587   -2.5338    1.0705 H   0  0  0  0  0  0  0  0  0  0  0  0
    3.8888   -2.3541   -0.6550 H   0  0  0  0  0  0  0  0  0  0  0  0
  1  2  1  0
  2  3  1  0
  3  4  2  0
  4  5  1  0
  5  6  2  0
  6  7  1  0
  7  8  1  0
  8  9  2  0
  8 10  1  0
 10 11  1  0
 11 12  1  0
 12 13  1  0
 13 14  1  0
 13 15  1  0
 13 16  1  0
 16 17  1  0
 17 18  2  0
 18 19  1  0
 19 20  2  0
 20 21  1  0
 21 22  1  0
 22 23  2  0
 23 24  1  0
 24 25  2  0
 25 26  1  0
 26 27  1  0
 26 28  2  0
  7 29  2  0
 29 30  1  0
 30 31  1  0
 29  3  1  0
 18 11  1  0
 28 22  1  0
 21 17  1  0
  1 32  1  0
  1 33  1  0
  1 34  1  0
  4 35  1  0
  5 36  1  0
  6 37  1  0
 10 38  1  0
 11 39  1  0
 12 40  1  0
 12 41  1  0
 14 42  1  0
 14 43  1  0
 14 44  1  0
 15 45  1  0
 15 46  1  0
 15 47  1  0
 16 48  1  0
 16 49  1  0
 19 50  1  0
 23 51  1  0
 24 52  1  0
 25 53  1  0
 28 54  1  0
 31 55  1  0
 31 56  1  0
 31 57  1  0
M  END
$$$$
