
     RDKit          3D

 42 43  0  0  0  0  0  0  0  0999 V2000
    3.4787    0.3573    3.0126 C   0  0  0  0  0  0  0  0  0  0  0  0
    3.7716    0.2908    1.5277 C   0  0  0  0  0  0  0  0  0  0  0  0
    2.8850   -0.0227    0.6284 N   0  0  0  0  0  0  0  0  0  0  0  0
    1.6241   -0.3569    1.0104 N   0  0  0  0  0  0  0  0  0  0  0  0
    0.6726   -0.6568    0.0424 C   0  0  0  0  0  0  0  0  0  0  0  0
    0.8538   -0.6095   -1.1697 O   0  0  0  0  0  0  0  0  0  0  0  0
   -0.6549   -1.0459    0.6679 C   0  0  0  0  0  0  0  0  0  0  0  0
   -1.7430   -1.3859   -0.3481 C   0  0  0  0  0  0  0  0  0  0  0  0
   -2.2187   -0.1653   -1.1401 C   0  0  0  0  0  0  0  0  0  0  0  0
   -3.4145   -0.5048   -1.9052 N   0  0  0  0  0  0  0  0  0  0  0  0
   -4.6944   -0.2121   -1.4338 C   0  0  0  0  0  0  0  0  0  0  0  0
   -5.0010   -0.0056   -0.0840 C   0  0  0  0  0  0  0  0  0  0  0  0
   -6.3174    0.2166    0.3374 C   0  0  0  0  0  0  0  0  0  0  0  0
   -7.3584    0.2078   -0.5855 C   0  0  0  0  0  0  0  0  0  0  0  0
   -7.0831   -0.0365   -1.9262 C   0  0  0  0  0  0  0  0  0  0  0  0
   -5.7654   -0.2570   -2.3392 C   0  0  0  0  0  0  0  0  0  0  0  0
    5.1573    0.6059    1.0599 C   0  0  0  0  0  0  0  0  0  0  0  0
    5.3378    1.0605   -0.2481 C   0  0  0  0  0  0  0  0  0  0  0  0
    6.6234    1.3430   -0.6711 C   0  0  0  0  0  0  0  0  0  0  0  0
    7.7156    1.2004    0.1095 N   0  0  0  0  0  0  0  0  0  0  0  0
    7.5161    0.7408    1.3622 C   0  0  0  0  0  0  0  0  0  0  0  0
    6.2704    0.4291    1.8808 C   0  0  0  0  0  0  0  0  0  0  0  0
    2.5426    0.8973    3.1841 H   0  0  0  0  0  0  0  0  0  0  0  0
    4.2528    0.8942    3.5649 H   0  0  0  0  0  0  0  0  0  0  0  0
    3.3905   -0.6579    3.4095 H   0  0  0  0  0  0  0  0  0  0  0  0
    1.4058   -0.4759    1.9912 H   0  0  0  0  0  0  0  0  0  0  0  0
   -0.9902   -0.2305    1.3195 H   0  0  0  0  0  0  0  0  0  0  0  0
   -0.4765   -1.9266    1.2970 H   0  0  0  0  0  0  0  0  0  0  0  0
   -1.3872   -2.1565   -1.0437 H   0  0  0  0  0  0  0  0  0  0  0  0
   -2.5867   -1.8293    0.1947 H   0  0  0  0  0  0  0  0  0  0  0  0
   -1.4434    0.1359   -1.8527 H   0  0  0  0  0  0  0  0  0  0  0  0
   -2.3843    0.7028   -0.4915 H   0  0  0  0  0  0  0  0  0  0  0  0
   -3.3111   -0.3086   -2.8980 H   0  0  0  0  0  0  0  0  0  0  0  0
   -4.2230   -0.0177    0.6719 H   0  0  0  0  0  0  0  0  0  0  0  0
   -6.5265    0.3857    1.3902 H   0  0  0  0  0  0  0  0  0  0  0  0
   -8.3808    0.3758   -0.2590 H   0  0  0  0  0  0  0  0  0  0  0  0
   -7.8901   -0.0661   -2.6530 H   0  0  0  0  0  0  0  0  0  0  0  0
   -5.5785   -0.4681   -3.3894 H   0  0  0  0  0  0  0  0  0  0  0  0
    4.4998    1.1911   -0.9260 H   0  0  0  0  0  0  0  0  0  0  0  0
    6.8147    1.7002   -1.6792 H   0  0  0  0  0  0  0  0  0  0  0  0
    8.4174    0.6202    1.9571 H   0  0  0  0  0  0  0  0  0  0  0  0
    6.1988    0.0410    2.8890 H   0  0  0  0  0  0  0  0  0  0  0  0
  1  2  1  0
  2  3  2  3
  3  4  1  0
  4  5  1  0
  5  6  2  0
  5  7  1  0
  7  8  1  0
  8  9  1  0
  9 10  1  0
 10 11  1  0
 11 12  2  0
 12 13  1  0
 13 14  2  0
 14 15  1  0
 15 16  2  0
  2 17  1  0
 17 18  2  0
 18 19  1  0
 19 20  2  0
 20 21  1  0
 21 22  2  0
 16 11  1  0
 22 17  1  0
  1 23  1  0
  1 24  1  0
  1 25  1  0
  4 26  1  0
  7 27  1  0
  7 28  1  0
  8 29  1  0
  8 30  1  0
  9 31  1  0
  9 32  1  0
 10 33  1  0
 12 34  1  0
 13 35  1  0
 14 36  1  0
 15 37  1  0
 16 38  1  0
 18 39  1  0
 19 40  1  0
 21 41  1  0
 22 42  1  0
M  END
$$$$
