
     RDKit          3D

 41 42  0  0  0  0  0  0  0  0999 V2000
   -7.1023    0.0791    0.7165 C   0  0  0  0  0  0  0  0  0  0  0  0
   -6.1903   -0.1553   -0.3460 O   0  0  0  0  0  0  0  0  0  0  0  0
   -4.8897   -0.4446   -0.0157 C   0  0  0  0  0  0  0  0  0  0  0  0
   -4.4074   -0.5450    1.2928 C   0  0  0  0  0  0  0  0  0  0  0  0
   -3.0634   -0.8469    1.5335 C   0  0  0  0  0  0  0  0  0  0  0  0
   -2.1807   -1.0629    0.4701 C   0  0  0  0  0  0  0  0  0  0  0  0
   -0.7343   -1.4184    0.7288 C   0  0  0  0  0  0  0  0  0  0  0  0
    0.2644   -0.3457    0.3441 C   0  0  0  0  0  0  0  0  0  0  0  0
    0.0018    0.7048   -0.2278 O   0  0  0  0  0  0  0  0  0  0  0  0
    1.5133   -0.7797    0.7408 O   0  0  0  0  0  0  0  0  0  0  0  0
    2.4936    0.1458    0.3374 N   0  0  0  0  0  0  0  0  0  0  0  0
    3.6851   -0.2241    0.7041 C   0  0  0  0  0  0  0  0  0  0  0  0
    3.9316   -1.3718    1.4259 N   0  0  0  0  0  0  0  0  0  0  0  0
    4.8384    0.6602    0.3326 C   0  0  0  0  0  0  0  0  0  0  0  0
    6.1478    0.1619    0.3236 C   0  0  0  0  0  0  0  0  0  0  0  0
    7.2139    0.9984   -0.0168 C   0  0  0  0  0  0  0  0  0  0  0  0
    6.9773    2.3312   -0.3522 C   0  0  0  0  0  0  0  0  0  0  0  0
    5.6753    2.8300   -0.3550 C   0  0  0  0  0  0  0  0  0  0  0  0
    4.6070    1.9970   -0.0164 C   0  0  0  0  0  0  0  0  0  0  0  0
   -2.6641   -0.9597   -0.8434 C   0  0  0  0  0  0  0  0  0  0  0  0
   -4.0048   -0.6387   -1.0925 C   0  0  0  0  0  0  0  0  0  0  0  0
   -4.5389   -0.5317   -2.3540 O   0  0  0  0  0  0  0  0  0  0  0  0
   -3.6297   -0.2001   -3.3959 C   0  0  0  0  0  0  0  0  0  0  0  0
   -6.8011    0.9469    1.3125 H   0  0  0  0  0  0  0  0  0  0  0  0
   -8.0789    0.3023    0.2761 H   0  0  0  0  0  0  0  0  0  0  0  0
   -7.2168   -0.8117    1.3428 H   0  0  0  0  0  0  0  0  0  0  0  0
   -5.0526   -0.3926    2.1513 H   0  0  0  0  0  0  0  0  0  0  0  0
   -2.7183   -0.9153    2.5630 H   0  0  0  0  0  0  0  0  0  0  0  0
   -0.4950   -2.3309    0.1694 H   0  0  0  0  0  0  0  0  0  0  0  0
   -0.5987   -1.6374    1.7950 H   0  0  0  0  0  0  0  0  0  0  0  0
    4.6777   -1.2976    2.1089 H   0  0  0  0  0  0  0  0  0  0  0  0
    3.0858   -1.7546    1.8327 H   0  0  0  0  0  0  0  0  0  0  0  0
    6.3503   -0.8801    0.5531 H   0  0  0  0  0  0  0  0  0  0  0  0
    8.2285    0.6082   -0.0299 H   0  0  0  0  0  0  0  0  0  0  0  0
    7.8071    2.9803   -0.6208 H   0  0  0  0  0  0  0  0  0  0  0  0
    5.4883    3.8664   -0.6249 H   0  0  0  0  0  0  0  0  0  0  0  0
    3.5950    2.3970   -0.0264 H   0  0  0  0  0  0  0  0  0  0  0  0
   -1.9764   -1.1354   -1.6652 H   0  0  0  0  0  0  0  0  0  0  0  0
   -3.0276   -1.0701   -3.6761 H   0  0  0  0  0  0  0  0  0  0  0  0
   -2.9937    0.6495   -3.1243 H   0  0  0  0  0  0  0  0  0  0  0  0
   -4.2178    0.0913   -4.2715 H   0  0  0  0  0  0  0  0  0  0  0  0
  1  2  1  0
  2  3  1  0
  3  4  2  0
  4  5  1  0
  5  6  2  0
  6  7  1  0
  7  8  1  0
  8  9  2  0
  8 10  1  0
 10 11  1  0
 11 12  2  3
 12 13  1  0
 12 14  1  0
 14 15  2  0
 15 16  1  0
 16 17  2  0
 17 18  1  0
 18 19  2  0
  6 20  1  0
 20 21  2  0
 21 22  1  0
 22 23  1  0
 21  3  1  0
 19 14  1  0
  1 24  1  0
  1 25  1  0
  1 26  1  0
  4 27  1  0
  5 28  1  0
  7 29  1  0
  7 30  1  0
 13 31  1  0
 13 32  1  0
 15 33  1  0
 16 34  1  0
 17 35  1  0
 18 36  1  0
 19 37  1  0
 20 38  1  0
 23 39  1  0
 23 40  1  0
 23 41  1  0
M  END
$$$$
