
     RDKit          3D

 59 62  0  0  0  0  0  0  0  0999 V2000
   -7.0593    3.0999    0.8369 C   0  0  0  0  0  0  0  0  0  0  0  0
   -6.2014    2.1432    0.0092 C   0  0  0  0  0  0  0  0  0  0  0  0
   -7.0688    1.0403   -0.6190 C   0  0  0  0  0  0  0  0  0  0  0  0
   -6.2677   -0.2275   -0.9198 C   0  0  0  0  0  0  0  0  0  0  0  0
   -4.7839    0.0781   -1.1170 C   0  0  0  0  0  0  0  0  0  0  0  0
   -4.1645    0.6538    0.0898 N   0  0  0  0  0  0  0  0  0  0  0  0
   -2.8898    1.3265   -0.2091 C   0  0  0  0  0  0  0  0  0  0  0  0
   -1.7929    0.3969   -0.7497 C   0  0  0  0  0  0  0  0  0  0  0  0
   -1.4743   -0.8003    0.1463 C   0  0  0  0  0  0  0  0  0  0  0  0
   -0.9196   -0.3452    1.4269 N   0  0  0  0  0  0  0  0  0  0  0  0
    0.0258   -1.4184    2.3105 S   0  0  0  0  0  6  0  0  0  0  0  0
   -0.4459   -2.7595    2.0463 O   0  0  0  0  0  0  0  0  0  0  0  0
    0.1064   -0.8874    3.6529 O   0  0  0  0  0  0  0  0  0  0  0  0
    1.6203   -1.2098    1.5607 C   0  0  0  0  0  0  0  0  0  0  0  0
    2.2793    0.0245    1.6933 C   0  0  0  0  0  0  0  0  0  0  0  0
    3.5408    0.2120    1.1190 C   0  0  0  0  0  0  0  0  0  0  0  0
    4.1177   -0.8417    0.4271 C   0  0  0  0  0  0  0  0  0  0  0  0
    3.4590   -2.0683    0.3080 C   0  0  0  0  0  0  0  0  0  0  0  0
    2.2078   -2.2744    0.8707 C   0  0  0  0  0  0  0  0  0  0  0  0
    4.2869   -3.0611   -0.4425 C   0  0  0  0  0  0  0  0  0  0  0  0
    5.5027   -2.2212   -0.8534 C   0  0  0  0  0  0  0  0  0  0  0  0
    5.3605   -0.8965   -0.2287 N   0  0  0  0  0  0  0  0  0  0  0  0
    6.2846    0.1307   -0.3015 C   0  0  0  0  0  0  0  0  0  0  0  0
    6.1711    1.2433    0.2001 O   0  0  0  0  0  0  0  0  0  0  0  0
    7.5349   -0.1860   -1.0574 C   0  0  0  0  0  0  0  0  0  0  0  0
    8.2789    0.9099   -1.7905 C   0  0  0  0  0  0  0  0  0  0  0  0
    7.5456   -0.1397   -2.5691 C   0  0  0  0  0  0  0  0  0  0  0  0
   -5.0783    1.5252    0.8550 C   0  0  0  0  0  0  0  0  0  0  0  0
   -7.8486    3.5466    0.2217 H   0  0  0  0  0  0  0  0  0  0  0  0
   -7.5358    2.5816    1.6770 H   0  0  0  0  0  0  0  0  0  0  0  0
   -6.4502    3.9142    1.2441 H   0  0  0  0  0  0  0  0  0  0  0  0
   -5.7433    2.7302   -0.7984 H   0  0  0  0  0  0  0  0  0  0  0  0
   -7.5132    1.4262   -1.5450 H   0  0  0  0  0  0  0  0  0  0  0  0
   -7.9096    0.7747    0.0352 H   0  0  0  0  0  0  0  0  0  0  0  0
   -6.3854   -0.9400   -0.0926 H   0  0  0  0  0  0  0  0  0  0  0  0
   -6.6755   -0.7187   -1.8107 H   0  0  0  0  0  0  0  0  0  0  0  0
   -4.6796    0.7575   -1.9733 H   0  0  0  0  0  0  0  0  0  0  0  0
   -4.2694   -0.8539   -1.3783 H   0  0  0  0  0  0  0  0  0  0  0  0
   -3.0504    2.1443   -0.9247 H   0  0  0  0  0  0  0  0  0  0  0  0
   -2.5013    1.7929    0.7053 H   0  0  0  0  0  0  0  0  0  0  0  0
   -2.0776    0.0290   -1.7430 H   0  0  0  0  0  0  0  0  0  0  0  0
   -0.8810    0.9908   -0.8943 H   0  0  0  0  0  0  0  0  0  0  0  0
   -2.3673   -1.4048    0.3298 H   0  0  0  0  0  0  0  0  0  0  0  0
   -0.7422   -1.4256   -0.3759 H   0  0  0  0  0  0  0  0  0  0  0  0
   -1.5456    0.1819    2.0373 H   0  0  0  0  0  0  0  0  0  0  0  0
    1.8134    0.8384    2.2453 H   0  0  0  0  0  0  0  0  0  0  0  0
    4.0415    1.1685    1.2271 H   0  0  0  0  0  0  0  0  0  0  0  0
    1.7090   -3.2350    0.7827 H   0  0  0  0  0  0  0  0  0  0  0  0
    3.7605   -3.4520   -1.3175 H   0  0  0  0  0  0  0  0  0  0  0  0
    4.5853   -3.8886    0.2087 H   0  0  0  0  0  0  0  0  0  0  0  0
    6.4415   -2.6853   -0.5325 H   0  0  0  0  0  0  0  0  0  0  0  0
    5.5394   -2.0914   -1.9408 H   0  0  0  0  0  0  0  0  0  0  0  0
    8.1653   -0.9209   -0.5662 H   0  0  0  0  0  0  0  0  0  0  0  0
    9.3624    0.8783   -1.7768 H   0  0  0  0  0  0  0  0  0  0  0  0
    7.8658    1.9132   -1.7693 H   0  0  0  0  0  0  0  0  0  0  0  0
    6.6415    0.1640   -3.0852 H   0  0  0  0  0  0  0  0  0  0  0  0
    8.1318   -0.8841   -3.0955 H   0  0  0  0  0  0  0  0  0  0  0  0
   -4.5282    2.3134    1.3873 H   0  0  0  0  0  0  0  0  0  0  0  0
   -5.5290    0.9074    1.6444 H   0  0  0  0  0  0  0  0  0  0  0  0
  1  2  1  0
  2  3  1  0
  3  4  1  0
  4  5  1  0
  5  6  1  0
  6  7  1  0
  7  8  1  0
  8  9  1  0
  9 10  1  0
 10 11  1  0
 11 12  2  0
 11 13  2  0
 11 14  1  0
 14 15  2  0
 15 16  1  0
 16 17  2  0
 17 18  1  0
 18 19  2  0
 18 20  1  0
 20 21  1  0
 21 22  1  0
 22 23  1  0
 23 24  2  0
 23 25  1  0
 25 26  1  0
 26 27  1  0
  6 28  1  0
 28  2  1  0
 19 14  1  0
 27 25  1  0
 22 17  1  0
  1 29  1  0
  1 30  1  0
  1 31  1  0
  2 32  1  0
  3 33  1  0
  3 34  1  0
  4 35  1  0
  4 36  1  0
  5 37  1  0
  5 38  1  0
  7 39  1  0
  7 40  1  0
  8 41  1  0
  8 42  1  0
  9 43  1  0
  9 44  1  0
 10 45  1  0
 15 46  1  0
 16 47  1  0
 19 48  1  0
 20 49  1  0
 20 50  1  0
 21 51  1  0
 21 52  1  0
 25 53  1  0
 26 54  1  0
 26 55  1  0
 27 56  1  0
 27 57  1  0
 28 58  1  0
 28 59  1  0
M  END
$$$$
