
     RDKit          3D

 44 47  0  0  0  0  0  0  0  0999 V2000
   -6.7662    0.5951   -1.4994 C   0  0  0  0  0  0  0  0  0  0  0  0
   -5.7862    1.5633   -0.8548 C   0  0  0  0  0  0  0  0  0  0  0  0
   -4.5706    0.8544   -0.3160 C   0  0  0  0  0  0  0  0  0  0  0  0
   -3.4467    0.6518   -1.1230 C   0  0  0  0  0  0  0  0  0  0  0  0
   -2.3279   -0.0209   -0.6221 C   0  0  0  0  0  0  0  0  0  0  0  0
   -2.3139   -0.5086    0.6898 C   0  0  0  0  0  0  0  0  0  0  0  0
   -1.1486   -1.1682    1.1169 N   0  0  0  0  0  0  0  0  0  0  0  0
   -0.8998   -1.7752    2.3360 C   0  0  0  0  0  0  0  0  0  0  0  0
   -1.7140   -1.9379    3.2417 O   0  0  0  0  0  0  0  0  0  0  0  0
    0.4926   -2.4076    2.4155 C   0  0  0  0  0  0  0  0  0  0  0  0
    1.4724   -1.7145    1.5754 N   0  0  0  0  0  0  0  0  0  0  0  0
    1.5155   -2.0812    0.2257 N   0  0  0  0  0  0  0  0  0  0  0  0
    2.3935   -1.5071   -0.5455 C   0  0  0  0  0  0  0  0  0  0  0  0
    3.2513   -0.5274   -0.0664 N   0  0  0  0  0  0  0  0  0  0  0  0
    3.2059   -0.1165    1.2362 C   0  0  0  0  0  0  0  0  0  0  0  0
    4.1524    0.8698    1.4080 C   0  0  0  0  0  0  0  0  0  0  0  0
    4.8010    1.0624    0.1581 C   0  0  0  0  0  0  0  0  0  0  0  0
    5.8324    1.9157   -0.2787 C   0  0  0  0  0  0  0  0  0  0  0  0
    6.2551    1.8584   -1.6105 C   0  0  0  0  0  0  0  0  0  0  0  0
    5.6663    0.9679   -2.5036 C   0  0  0  0  0  0  0  0  0  0  0  0
    4.6403    0.1099   -2.0957 C   0  0  0  0  0  0  0  0  0  0  0  0
    4.2219    0.1743   -0.7559 C   0  0  0  0  0  0  0  0  0  0  0  0
    2.2727   -0.7113    2.1525 C   0  0  0  0  0  0  0  0  0  0  0  0
    2.1871   -0.3745    3.3289 O   0  0  0  0  0  0  0  0  0  0  0  0
   -3.4356   -0.3104    1.4936 C   0  0  0  0  0  0  0  0  0  0  0  0
   -4.5565    0.3629    0.9939 C   0  0  0  0  0  0  0  0  0  0  0  0
   -6.3046    0.0614   -2.3371 H   0  0  0  0  0  0  0  0  0  0  0  0
   -7.6374    1.1367   -1.8812 H   0  0  0  0  0  0  0  0  0  0  0  0
   -7.1192   -0.1511   -0.7795 H   0  0  0  0  0  0  0  0  0  0  0  0
   -5.4777    2.3203   -1.5862 H   0  0  0  0  0  0  0  0  0  0  0  0
   -6.2839    2.1101   -0.0447 H   0  0  0  0  0  0  0  0  0  0  0  0
   -3.4348    1.0159   -2.1477 H   0  0  0  0  0  0  0  0  0  0  0  0
   -1.4708   -0.1598   -1.2751 H   0  0  0  0  0  0  0  0  0  0  0  0
   -0.3848   -1.2441    0.4492 H   0  0  0  0  0  0  0  0  0  0  0  0
    0.4230   -3.4498    2.0862 H   0  0  0  0  0  0  0  0  0  0  0  0
    0.8210   -2.3888    3.4596 H   0  0  0  0  0  0  0  0  0  0  0  0
    2.4580   -1.7940   -1.6065 H   0  0  0  0  0  0  0  0  0  0  0  0
    4.3539    1.3927    2.3354 H   0  0  0  0  0  0  0  0  0  0  0  0
    6.2983    2.6142    0.4112 H   0  0  0  0  0  0  0  0  0  0  0  0
    7.0519    2.5169   -1.9488 H   0  0  0  0  0  0  0  0  0  0  0  0
    6.0108    0.9390   -3.5355 H   0  0  0  0  0  0  0  0  0  0  0  0
    4.1936   -0.5788   -2.8059 H   0  0  0  0  0  0  0  0  0  0  0  0
   -3.4722   -0.6651    2.5188 H   0  0  0  0  0  0  0  0  0  0  0  0
   -5.4195    0.4993    1.6422 H   0  0  0  0  0  0  0  0  0  0  0  0
  1  2  1  0
  2  3  1  0
  3  4  2  0
  4  5  1  0
  5  6  2  0
  6  7  1  0
  7  8  1  0
  8  9  2  0
  8 10  1  0
 10 11  1  0
 11 12  1  0
 12 13  2  0
 13 14  1  0
 14 15  1  0
 15 16  2  0
 16 17  1  0
 17 18  2  0
 18 19  1  0
 19 20  2  0
 20 21  1  0
 21 22  2  0
 15 23  1  0
 23 24  2  0
  6 25  1  0
 25 26  2  0
 26  3  1  0
 23 11  1  0
 22 14  1  0
 22 17  1  0
  1 27  1  0
  1 28  1  0
  1 29  1  0
  2 30  1  0
  2 31  1  0
  4 32  1  0
  5 33  1  0
  7 34  1  0
 10 35  1  0
 10 36  1  0
 13 37  1  0
 16 38  1  0
 18 39  1  0
 19 40  1  0
 20 41  1  0
 21 42  1  0
 25 43  1  0
 26 44  1  0
M  END
$$$$
