
     RDKit          3D

 30 30  0  0  0  0  0  0  0  0999 V2000
    2.5178    1.3944    0.2861 C   0  0  0  0  0  0  0  0  0  0  0  0
    2.2765   -0.0413    0.4651 N   0  0  0  0  0  0  0  0  0  0  0  0
    2.4648   -0.8163   -0.7614 C   0  0  0  0  0  0  0  0  0  0  0  0
    2.0652   -0.6643    1.7024 C   0  0  0  0  0  0  0  0  0  0  0  0
    2.0833   -2.3277    1.9725 S   0  0  0  0  0  0  0  0  0  0  0  0
    1.7141    0.3901    3.0753 S   0  0  0  0  0  0  0  0  0  0  0  0
   -0.1013    0.3068    3.0572 C   0  0  0  0  0  0  0  0  0  0  0  0
   -0.6548    0.7887    1.7238 C   0  0  0  0  0  0  0  0  0  0  0  0
   -0.6822    1.9842    1.4440 O   0  0  0  0  0  0  0  0  0  0  0  0
   -1.0746   -0.2461    0.9037 N   0  0  0  0  0  0  0  0  0  0  0  0
   -1.5856   -0.1592   -0.4133 C   0  0  0  0  0  0  0  0  0  0  0  0
   -1.8349    1.0532   -1.0628 C   0  0  0  0  0  0  0  0  0  0  0  0
   -2.3337    1.0698   -2.3706 C   0  0  0  0  0  0  0  0  0  0  0  0
   -2.5877   -0.1255   -3.0368 C   0  0  0  0  0  0  0  0  0  0  0  0
   -3.2051   -0.0954   -4.6419 Cl  0  0  0  0  0  0  0  0  0  0  0  0
   -2.3510   -1.3438   -2.4103 C   0  0  0  0  0  0  0  0  0  0  0  0
   -1.8525   -1.3564   -1.1058 C   0  0  0  0  0  0  0  0  0  0  0  0
   -1.5645   -2.8944   -0.3626 Cl  0  0  0  0  0  0  0  0  0  0  0  0
    3.5209    1.5215   -0.1354 H   0  0  0  0  0  0  0  0  0  0  0  0
    2.4631    1.9800    1.2034 H   0  0  0  0  0  0  0  0  0  0  0  0
    1.7760    1.7844   -0.4197 H   0  0  0  0  0  0  0  0  0  0  0  0
    3.5355   -0.9880   -0.9044 H   0  0  0  0  0  0  0  0  0  0  0  0
    1.9396   -1.7735   -0.7319 H   0  0  0  0  0  0  0  0  0  0  0  0
    2.0715   -0.2493   -1.6122 H   0  0  0  0  0  0  0  0  0  0  0  0
   -0.4378   -0.7098    3.2838 H   0  0  0  0  0  0  0  0  0  0  0  0
   -0.4974    0.9574    3.8441 H   0  0  0  0  0  0  0  0  0  0  0  0
   -0.9317   -1.1973    1.2358 H   0  0  0  0  0  0  0  0  0  0  0  0
   -1.6578    2.0101   -0.5821 H   0  0  0  0  0  0  0  0  0  0  0  0
   -2.5222    2.0237   -2.8583 H   0  0  0  0  0  0  0  0  0  0  0  0
   -2.5535   -2.2760   -2.9307 H   0  0  0  0  0  0  0  0  0  0  0  0
  1  2  1  0
  2  3  1  0
  2  4  1  0
  4  5  2  0
  4  6  1  0
  6  7  1  0
  7  8  1  0
  8  9  2  0
  8 10  1  0
 10 11  1  0
 11 12  2  0
 12 13  1  0
 13 14  2  0
 14 15  1  0
 14 16  1  0
 16 17  2  0
 17 18  1  0
 17 11  1  0
  1 19  1  0
  1 20  1  0
  1 21  1  0
  3 22  1  0
  3 23  1  0
  3 24  1  0
  7 25  1  0
  7 26  1  0
 10 27  1  0
 12 28  1  0
 13 29  1  0
 16 30  1  0
M  END
$$$$
