
     RDKit          3D

 45 47  0  0  0  0  0  0  0  0999 V2000
    6.1085    4.2396   -2.0078 C   0  0  0  0  0  0  0  0  0  0  0  0
    5.2297    3.0192   -2.1215 C   0  0  0  0  0  0  0  0  0  0  0  0
    5.6402    1.9939   -2.6523 O   0  0  0  0  0  0  0  0  0  0  0  0
    3.9741    3.2335   -1.5807 N   0  0  0  0  0  0  0  0  0  0  0  0
    2.8963    2.3263   -1.5280 C   0  0  0  0  0  0  0  0  0  0  0  0
    1.7237    2.7638   -0.8957 C   0  0  0  0  0  0  0  0  0  0  0  0
    0.6090    1.9260   -0.7952 C   0  0  0  0  0  0  0  0  0  0  0  0
    0.6692    0.6343   -1.3192 C   0  0  0  0  0  0  0  0  0  0  0  0
   -0.7548   -0.4332   -1.2161 S   0  0  0  0  0  6  0  0  0  0  0  0
   -0.6591   -1.3686   -2.3196 O   0  0  0  0  0  0  0  0  0  0  0  0
   -1.9199    0.4140   -1.0826 O   0  0  0  0  0  0  0  0  0  0  0  0
   -0.4694   -1.2721    0.1922 N   0  0  0  0  0  0  0  0  0  0  0  0
    0.4433   -2.4138    0.1489 C   0  0  0  0  0  0  0  0  0  0  0  0
    0.4156   -2.8448    1.6179 C   0  0  0  0  0  0  0  0  0  0  0  0
   -0.1859   -1.7305    2.4005 N   0  0  0  0  0  0  0  0  0  0  0  0
   -0.6842   -0.9167    1.5239 C   0  0  0  0  0  0  0  0  0  0  0  0
   -1.5122    0.5144    1.9905 S   0  0  0  0  0  0  0  0  0  0  0  0
   -2.8679   -0.2435    2.9241 C   0  0  0  0  0  0  0  0  0  0  0  0
   -3.6782   -1.2338    2.1206 C   0  0  0  0  0  0  0  0  0  0  0  0
   -3.6493   -2.6000    2.4468 C   0  0  0  0  0  0  0  0  0  0  0  0
   -4.3824   -3.5214    1.6978 C   0  0  0  0  0  0  0  0  0  0  0  0
   -5.1434   -3.0806    0.6222 C   0  0  0  0  0  0  0  0  0  0  0  0
   -5.8442   -3.9677   -0.0963 F   0  0  0  0  0  0  0  0  0  0  0  0
   -5.1861   -1.7350    0.2810 C   0  0  0  0  0  0  0  0  0  0  0  0
   -4.4569   -0.8108    1.0305 C   0  0  0  0  0  0  0  0  0  0  0  0
    1.8188    0.1962   -1.9791 C   0  0  0  0  0  0  0  0  0  0  0  0
    2.9312    1.0400   -2.0728 C   0  0  0  0  0  0  0  0  0  0  0  0
    5.7606    5.0075   -2.7038 H   0  0  0  0  0  0  0  0  0  0  0  0
    6.0898    4.6282   -0.9856 H   0  0  0  0  0  0  0  0  0  0  0  0
    7.1400    3.9728   -2.2555 H   0  0  0  0  0  0  0  0  0  0  0  0
    3.8094    4.1434   -1.1684 H   0  0  0  0  0  0  0  0  0  0  0  0
    1.6571    3.7643   -0.4751 H   0  0  0  0  0  0  0  0  0  0  0  0
   -0.2957    2.2930   -0.3156 H   0  0  0  0  0  0  0  0  0  0  0  0
    0.0907   -3.2166   -0.5033 H   0  0  0  0  0  0  0  0  0  0  0  0
    1.4529   -2.1059   -0.1360 H   0  0  0  0  0  0  0  0  0  0  0  0
   -0.1999   -3.7416    1.7510 H   0  0  0  0  0  0  0  0  0  0  0  0
    1.4238   -3.0641    1.9834 H   0  0  0  0  0  0  0  0  0  0  0  0
   -3.5339    0.5538    3.2733 H   0  0  0  0  0  0  0  0  0  0  0  0
   -2.4590   -0.7159    3.8245 H   0  0  0  0  0  0  0  0  0  0  0  0
   -3.0478   -2.9554    3.2816 H   0  0  0  0  0  0  0  0  0  0  0  0
   -4.3631   -4.5782    1.9438 H   0  0  0  0  0  0  0  0  0  0  0  0
   -5.7788   -1.4129   -0.5693 H   0  0  0  0  0  0  0  0  0  0  0  0
   -4.4836    0.2398    0.7451 H   0  0  0  0  0  0  0  0  0  0  0  0
    1.8634   -0.7930   -2.4298 H   0  0  0  0  0  0  0  0  0  0  0  0
    3.8087    0.6636   -2.5906 H   0  0  0  0  0  0  0  0  0  0  0  0
  1  2  1  0
  2  3  2  0
  2  4  1  0
  4  5  1  0
  5  6  2  0
  6  7  1  0
  7  8  2  0
  8  9  1  0
  9 10  2  0
  9 11  2  0
  9 12  1  0
 12 13  1  0
 13 14  1  0
 14 15  1  0
 15 16  2  0
 16 17  1  0
 17 18  1  0
 18 19  1  0
 19 20  2  0
 20 21  1  0
 21 22  2  0
 22 23  1  0
 22 24  1  0
 24 25  2  0
  8 26  1  0
 26 27  2  0
 27  5  1  0
 16 12  1  0
 25 19  1  0
  1 28  1  0
  1 29  1  0
  1 30  1  0
  4 31  1  0
  6 32  1  0
  7 33  1  0
 13 34  1  0
 13 35  1  0
 14 36  1  0
 14 37  1  0
 18 38  1  0
 18 39  1  0
 20 40  1  0
 21 41  1  0
 24 42  1  0
 25 43  1  0
 26 44  1  0
 27 45  1  0
M  END
$$$$
