
     RDKit          3D

 48 49  0  0  0  0  0  0  0  0999 V2000
    2.3852   -0.9366   -2.8542 C   0  0  0  0  0  0  0  0  0  0  0  0
    2.8336   -0.4082   -1.6138 O   0  0  0  0  0  0  0  0  0  0  0  0
    1.8783   -0.0433   -0.6948 C   0  0  0  0  0  0  0  0  0  0  0  0
    0.4954   -0.1377   -0.9112 C   0  0  0  0  0  0  0  0  0  0  0  0
   -0.4097    0.2543    0.0773 C   0  0  0  0  0  0  0  0  0  0  0  0
   -1.8059    0.1894   -0.0679 N   0  0  0  0  0  0  0  0  0  0  0  0
   -2.5457   -0.3112   -1.1280 C   0  0  0  0  0  0  0  0  0  0  0  0
   -2.1030   -0.7964   -2.1637 O   0  0  0  0  0  0  0  0  0  0  0  0
   -4.0648   -0.1273   -0.8825 C   0  0  0  0  0  0  0  0  0  0  0  0
   -4.8910   -1.0915   -1.7396 C   0  0  0  0  0  0  0  0  0  0  0  0
   -6.3830   -0.9441   -1.4555 C   0  0  0  0  0  0  0  0  0  0  0  0
   -6.6640   -1.0392    0.0405 C   0  0  0  0  0  0  0  0  0  0  0  0
   -5.7807   -0.0776    0.8329 C   0  0  0  0  0  0  0  0  0  0  0  0
   -4.3550   -0.3025    0.5693 N   0  0  0  0  0  0  0  0  0  0  0  0
    0.0802    0.7489    1.2887 C   0  0  0  0  0  0  0  0  0  0  0  0
    1.4560    0.8491    1.5161 C   0  0  0  0  0  0  0  0  0  0  0  0
    2.3630    0.4552    0.5304 C   0  0  0  0  0  0  0  0  0  0  0  0
    3.7272    0.5151    0.6602 O   0  0  0  0  0  0  0  0  0  0  0  0
    4.2652    1.0186    1.8800 C   0  0  0  0  0  0  0  0  0  0  0  0
    5.8013    1.0041    1.8155 C   0  0  0  0  0  0  0  0  0  0  0  0
    6.3375   -0.4177    1.6392 C   0  0  0  0  0  0  0  0  0  0  0  0
    6.3195    1.9012    0.6901 C   0  0  0  0  0  0  0  0  0  0  0  0
    1.8044   -0.1952   -3.4127 H   0  0  0  0  0  0  0  0  0  0  0  0
    1.8168   -1.8611   -2.7086 H   0  0  0  0  0  0  0  0  0  0  0  0
    3.2690   -1.1822   -3.4509 H   0  0  0  0  0  0  0  0  0  0  0  0
    0.1230   -0.5147   -1.8544 H   0  0  0  0  0  0  0  0  0  0  0  0
   -2.3823    0.4787    0.7205 H   0  0  0  0  0  0  0  0  0  0  0  0
   -4.2919    0.9090   -1.1672 H   0  0  0  0  0  0  0  0  0  0  0  0
   -4.7048   -0.9081   -2.8046 H   0  0  0  0  0  0  0  0  0  0  0  0
   -4.5816   -2.1268   -1.5438 H   0  0  0  0  0  0  0  0  0  0  0  0
   -6.9455   -1.7153   -1.9931 H   0  0  0  0  0  0  0  0  0  0  0  0
   -6.7301    0.0268   -1.8300 H   0  0  0  0  0  0  0  0  0  0  0  0
   -6.4870   -2.0674    0.3805 H   0  0  0  0  0  0  0  0  0  0  0  0
   -7.7196   -0.8165    0.2328 H   0  0  0  0  0  0  0  0  0  0  0  0
   -6.0418    0.9620    0.6010 H   0  0  0  0  0  0  0  0  0  0  0  0
   -5.9647   -0.2153    1.9041 H   0  0  0  0  0  0  0  0  0  0  0  0
   -4.1376   -1.2738    0.8110 H   0  0  0  0  0  0  0  0  0  0  0  0
   -0.6013    1.0640    2.0752 H   0  0  0  0  0  0  0  0  0  0  0  0
    1.7843    1.2389    2.4733 H   0  0  0  0  0  0  0  0  0  0  0  0
    3.9385    0.3925    2.7196 H   0  0  0  0  0  0  0  0  0  0  0  0
    3.9257    2.0492    2.0417 H   0  0  0  0  0  0  0  0  0  0  0  0
    6.1812    1.3965    2.7671 H   0  0  0  0  0  0  0  0  0  0  0  0
    5.9818   -1.0688    2.4447 H   0  0  0  0  0  0  0  0  0  0  0  0
    7.4324   -0.4232    1.6649 H   0  0  0  0  0  0  0  0  0  0  0  0
    6.0225   -0.8543    0.6855 H   0  0  0  0  0  0  0  0  0  0  0  0
    5.9508    2.9253    0.8099 H   0  0  0  0  0  0  0  0  0  0  0  0
    7.4141    1.9376    0.6987 H   0  0  0  0  0  0  0  0  0  0  0  0
    6.0040    1.5396   -0.2943 H   0  0  0  0  0  0  0  0  0  0  0  0
  1  2  1  0
  2  3  1  0
  3  4  2  0
  4  5  1  0
  5  6  1  0
  6  7  1  0
  7  8  2  0
  7  9  1  0
  9 10  1  0
 10 11  1  0
 11 12  1  0
 12 13  1  0
 13 14  1  0
  5 15  2  0
 15 16  1  0
 16 17  2  0
 17 18  1  0
 18 19  1  0
 19 20  1  0
 20 21  1  0
 20 22  1  0
 17  3  1  0
 14  9  1  0
  1 23  1  0
  1 24  1  0
  1 25  1  0
  4 26  1  0
  6 27  1  0
  9 28  1  0
 10 29  1  0
 10 30  1  0
 11 31  1  0
 11 32  1  0
 12 33  1  0
 12 34  1  0
 13 35  1  0
 13 36  1  0
 14 37  1  0
 15 38  1  0
 16 39  1  0
 19 40  1  0
 19 41  1  0
 20 42  1  0
 21 43  1  0
 21 44  1  0
 21 45  1  0
 22 46  1  0
 22 47  1  0
 22 48  1  0
M  END
$$$$
