
     RDKit          3D

 57 60  0  0  0  0  0  0  0  0999 V2000
   -1.0528    5.3925    0.6030 C   0  0  0  0  0  0  0  0  0  0  0  0
   -1.8448    4.9615   -0.6359 C   0  0  0  0  0  0  0  0  0  0  0  0
   -0.9471    4.2467   -1.6689 C   0  0  0  0  0  0  0  0  0  0  0  0
   -0.3998    2.8983   -1.1718 C   0  0  0  0  0  0  0  0  0  0  0  0
   -1.4510    2.0883   -0.4704 C   0  0  0  0  0  0  0  0  0  0  0  0
   -2.6428    2.6524   -0.0516 C   0  0  0  0  0  0  0  0  0  0  0  0
   -3.6675    1.5282    0.7064 S   0  0  0  0  0  0  0  0  0  0  0  0
   -2.5370    0.2702    0.4980 C   0  0  0  0  0  0  0  0  0  0  0  0
   -2.8193   -0.9668    0.9322 N   0  0  0  0  0  0  0  0  0  0  0  0
   -1.8454   -1.8517    0.6989 C   0  0  0  0  0  0  0  0  0  0  0  0
   -2.0542   -3.2960    1.1558 C   0  0  0  0  0  0  0  0  0  0  0  0
   -3.4858   -3.5384    1.6746 C   0  0  0  0  0  0  0  0  0  0  0  0
   -1.0621   -3.6074    2.2901 C   0  0  0  0  0  0  0  0  0  0  0  0
   -1.8027   -4.2511   -0.0259 C   0  0  0  0  0  0  0  0  0  0  0  0
   -0.6630   -1.5669    0.1152 N   0  0  0  0  0  0  0  0  0  0  0  0
   -0.3928   -0.3089   -0.3075 C   0  0  0  0  0  0  0  0  0  0  0  0
    0.8679   -0.0313   -0.8796 N   0  0  0  0  0  0  0  0  0  0  0  0
    1.8328    0.2088    0.2201 C   0  0  0  0  0  0  0  0  0  0  0  0
    3.2856    0.0119   -0.2489 C   0  0  0  0  0  0  0  0  0  0  0  0
    3.5226   -1.3323   -0.7927 N   0  0  0  0  0  0  0  0  0  0  0  0
    4.7659   -1.9526   -0.8791 C   0  0  0  0  0  0  0  0  0  0  0  0
    4.8687   -3.1158   -1.2703 O   0  0  0  0  0  0  0  0  0  0  0  0
    5.9665   -1.1229   -0.4420 C   0  0  0  0  0  0  0  0  0  0  0  0
    7.4889   -1.7962   -1.0604 Cl  0  0  0  0  0  0  0  0  0  0  0  0
    2.3296   -2.0520   -1.2643 C   0  0  0  0  0  0  0  0  0  0  0  0
    1.2730   -1.0932   -1.8369 C   0  0  0  0  0  0  0  0  0  0  0  0
   -1.3741    0.6860   -0.1293 C   0  0  0  0  0  0  0  0  0  0  0  0
   -3.0545    4.0794   -0.2557 C   0  0  0  0  0  0  0  0  0  0  0  0
   -1.6860    5.9811    1.2757 H   0  0  0  0  0  0  0  0  0  0  0  0
   -0.6702    4.5391    1.1711 H   0  0  0  0  0  0  0  0  0  0  0  0
   -0.2008    6.0183    0.3172 H   0  0  0  0  0  0  0  0  0  0  0  0
   -2.2322    5.8781   -1.0996 H   0  0  0  0  0  0  0  0  0  0  0  0
   -1.5382    4.0740   -2.5787 H   0  0  0  0  0  0  0  0  0  0  0  0
   -0.1112    4.8938   -1.9604 H   0  0  0  0  0  0  0  0  0  0  0  0
    0.4313    3.0757   -0.4792 H   0  0  0  0  0  0  0  0  0  0  0  0
    0.0001    2.3450   -2.0289 H   0  0  0  0  0  0  0  0  0  0  0  0
   -3.7128   -2.9065    2.5415 H   0  0  0  0  0  0  0  0  0  0  0  0
   -3.6221   -4.5807    1.9855 H   0  0  0  0  0  0  0  0  0  0  0  0
   -4.2333   -3.3241    0.9015 H   0  0  0  0  0  0  0  0  0  0  0  0
   -0.0220   -3.5006    1.9599 H   0  0  0  0  0  0  0  0  0  0  0  0
   -1.2064   -2.9302    3.1404 H   0  0  0  0  0  0  0  0  0  0  0  0
   -1.1871   -4.6335    2.6544 H   0  0  0  0  0  0  0  0  0  0  0  0
   -0.7742   -4.1776   -0.3985 H   0  0  0  0  0  0  0  0  0  0  0  0
   -2.4726   -4.0278   -0.8649 H   0  0  0  0  0  0  0  0  0  0  0  0
   -1.9688   -5.2943    0.2667 H   0  0  0  0  0  0  0  0  0  0  0  0
    1.6549   -0.4718    1.0653 H   0  0  0  0  0  0  0  0  0  0  0  0
    1.7123    1.2332    0.5913 H   0  0  0  0  0  0  0  0  0  0  0  0
    3.5245    0.7245   -1.0470 H   0  0  0  0  0  0  0  0  0  0  0  0
    3.9696    0.1957    0.5852 H   0  0  0  0  0  0  0  0  0  0  0  0
    6.0186   -1.1083    0.6497 H   0  0  0  0  0  0  0  0  0  0  0  0
    5.8930   -0.1045   -0.8299 H   0  0  0  0  0  0  0  0  0  0  0  0
    1.9299   -2.6046   -0.4060 H   0  0  0  0  0  0  0  0  0  0  0  0
    2.6107   -2.7851   -2.0279 H   0  0  0  0  0  0  0  0  0  0  0  0
    0.4154   -1.6570   -2.2267 H   0  0  0  0  0  0  0  0  0  0  0  0
    1.7088   -0.5804   -2.7044 H   0  0  0  0  0  0  0  0  0  0  0  0
   -3.7840    4.1099   -1.0754 H   0  0  0  0  0  0  0  0  0  0  0  0
   -3.5516    4.4785    0.6364 H   0  0  0  0  0  0  0  0  0  0  0  0
  1  2  1  0
  2  3  1  0
  3  4  1  0
  4  5  1  0
  5  6  2  0
  6  7  1  0
  7  8  1  0
  8  9  2  0
  9 10  1  0
 10 11  1  0
 11 12  1  0
 11 13  1  0
 11 14  1  0
 10 15  2  0
 15 16  1  0
 16 17  1  0
 17 18  1  0
 18 19  1  0
 19 20  1  0
 20 21  1  0
 21 22  2  0
 21 23  1  0
 23 24  1  0
 20 25  1  0
 25 26  1  0
 16 27  2  0
  6 28  1  0
 28  2  1  0
 27  5  1  0
 27  8  1  0
 26 17  1  0
  1 29  1  0
  1 30  1  0
  1 31  1  0
  2 32  1  0
  3 33  1  0
  3 34  1  0
  4 35  1  0
  4 36  1  0
 12 37  1  0
 12 38  1  0
 12 39  1  0
 13 40  1  0
 13 41  1  0
 13 42  1  0
 14 43  1  0
 14 44  1  0
 14 45  1  0
 18 46  1  0
 18 47  1  0
 19 48  1  0
 19 49  1  0
 23 50  1  0
 23 51  1  0
 25 52  1  0
 25 53  1  0
 26 54  1  0
 26 55  1  0
 28 56  1  0
 28 57  1  0
M  END
$$$$
