
     RDKit          3D

 42 45  0  0  0  0  0  0  0  0999 V2000
    7.8124   -1.3991   -1.8035 O   0  0  0  0  0  0  0  0  0  0  0  0
    7.2549   -0.4728   -1.2393 C   0  0  0  0  0  0  0  0  0  0  0  0
    7.9683    0.5754   -0.7937 O   0  0  0  0  0  0  0  0  0  0  0  0
    5.7699   -0.3154   -1.0698 C   0  0  0  0  0  0  0  0  0  0  0  0
    5.3896    0.2694    0.2947 C   0  0  0  0  0  0  0  0  0  0  0  0
    5.5208   -0.8047    1.3772 C   0  0  0  0  0  0  0  0  0  0  0  0
    6.4738   -1.5555    1.5187 O   0  0  0  0  0  0  0  0  0  0  0  0
    4.4984   -0.8506    2.2563 O   0  0  0  0  0  0  0  0  0  0  0  0
    4.0373    0.8846    0.3265 N   0  0  0  0  0  0  0  0  0  0  0  0
    2.9533    0.1791   -0.1688 C   0  0  0  0  0  0  0  0  0  0  0  0
    2.9998   -0.9231   -0.6971 O   0  0  0  0  0  0  0  0  0  0  0  0
    1.6852    0.9303    0.0442 C   0  0  0  0  0  0  0  0  0  0  0  0
    0.5226    0.4183   -0.3790 C   0  0  0  0  0  0  0  0  0  0  0  0
   -0.7736    0.9902   -0.2414 C   0  0  0  0  0  0  0  0  0  0  0  0
   -1.2221    2.2924   -0.0723 C   0  0  0  0  0  0  0  0  0  0  0  0
   -2.6376    2.2655   -0.0116 C   0  0  0  0  0  0  0  0  0  0  0  0
   -3.0281    0.9478   -0.1604 C   0  0  0  0  0  0  0  0  0  0  0  0
   -4.3459    0.3648   -0.1784 C   0  0  0  0  0  0  0  0  0  0  0  0
   -4.5325   -0.9274   -0.3430 N   0  0  0  0  0  0  0  0  0  0  0  0
   -5.8844   -1.2213   -0.3207 C   0  0  0  0  0  0  0  0  0  0  0  0
   -6.4544   -2.5022   -0.4664 C   0  0  0  0  0  0  0  0  0  0  0  0
   -7.8441   -2.6547   -0.4234 C   0  0  0  0  0  0  0  0  0  0  0  0
   -8.6685   -1.5495   -0.2374 C   0  0  0  0  0  0  0  0  0  0  0  0
   -8.1278   -0.2681   -0.0903 C   0  0  0  0  0  0  0  0  0  0  0  0
   -6.7307   -0.1273   -0.1353 C   0  0  0  0  0  0  0  0  0  0  0  0
   -5.7761    1.2965    0.0118 S   0  0  0  0  0  0  0  0  0  0  0  0
   -1.8939    0.1924   -0.3089 O   0  0  0  0  0  0  0  0  0  0  0  0
    2.0119    2.3803    0.8936 S   0  0  0  0  0  0  0  0  0  0  0  0
    3.7353    2.0494    1.0040 C   0  0  0  0  0  0  0  0  0  0  0  0
    4.7660    3.0784    1.8186 S   0  0  0  0  0  0  0  0  0  0  0  0
    8.8977    0.3307   -0.9982 H   0  0  0  0  0  0  0  0  0  0  0  0
    5.3326   -1.3106   -1.2081 H   0  0  0  0  0  0  0  0  0  0  0  0
    5.4194    0.3295   -1.8838 H   0  0  0  0  0  0  0  0  0  0  0  0
    6.1062    1.0435    0.5782 H   0  0  0  0  0  0  0  0  0  0  0  0
    4.7398   -1.5770    2.8715 H   0  0  0  0  0  0  0  0  0  0  0  0
    0.5312   -0.5614   -0.8562 H   0  0  0  0  0  0  0  0  0  0  0  0
   -0.6092    3.1801   -0.0097 H   0  0  0  0  0  0  0  0  0  0  0  0
   -3.2908    3.1174    0.1180 H   0  0  0  0  0  0  0  0  0  0  0  0
   -5.8065   -3.3612   -0.6113 H   0  0  0  0  0  0  0  0  0  0  0  0
   -8.2792   -3.6450   -0.5363 H   0  0  0  0  0  0  0  0  0  0  0  0
   -9.7481   -1.6822   -0.2059 H   0  0  0  0  0  0  0  0  0  0  0  0
   -8.7727    0.5932    0.0547 H   0  0  0  0  0  0  0  0  0  0  0  0
  1  2  2  0
  2  3  1  0
  2  4  1  0
  4  5  1  0
  5  6  1  0
  6  7  2  0
  6  8  1  0
  5  9  1  0
  9 10  1  0
 10 11  2  0
 10 12  1  0
 12 13  2  3
 13 14  1  0
 14 15  2  0
 15 16  1  0
 16 17  2  0
 17 18  1  0
 18 19  2  0
 19 20  1  0
 20 21  2  0
 21 22  1  0
 22 23  2  0
 23 24  1  0
 24 25  2  0
 25 26  1  0
 17 27  1  0
 12 28  1  0
 28 29  1  0
 29 30  2  0
 29  9  1  0
 27 14  1  0
 26 18  1  0
 25 20  1  0
  3 31  1  0
  4 32  1  0
  4 33  1  0
  5 34  1  0
  8 35  1  0
 13 36  1  0
 15 37  1  0
 16 38  1  0
 21 39  1  0
 22 40  1  0
 23 41  1  0
 24 42  1  0
M  END
$$$$
