
     RDKit          3D

 42 44  0  0  0  0  0  0  0  0999 V2000
    5.0929   -1.1152   -0.0900 C   0  0  0  0  0  0  0  0  0  0  0  0
    4.2343    0.0638   -0.5273 C   0  0  0  0  0  0  0  0  0  0  0  0
    3.5815   -0.1200   -1.8989 C   0  0  0  0  0  0  0  0  0  0  0  0
    2.3871   -1.5011   -1.9842 S   0  0  0  0  0  0  0  0  0  0  0  0
    1.0024   -0.8349   -1.0686 C   0  0  0  0  0  0  0  0  0  0  0  0
    0.0082   -1.6992   -0.6629 C   0  0  0  0  0  0  0  0  0  0  0  0
   -1.0581   -1.1653    0.0292 C   0  0  0  0  0  0  0  0  0  0  0  0
   -2.0891   -1.9519    0.4893 N   0  0  0  0  0  0  0  0  0  0  0  0
   -3.2214   -1.3330    1.1691 C   0  0  0  0  0  0  0  0  0  0  0  0
   -4.1484   -2.5144    1.4368 C   0  0  0  0  0  0  0  0  0  0  0  0
   -3.9437   -3.3818    0.2051 C   0  0  0  0  0  0  0  0  0  0  0  0
   -2.4499   -3.2403   -0.0917 C   0  0  0  0  0  0  0  0  0  0  0  0
   -1.0947    0.1499    0.3028 N   0  0  0  0  0  0  0  0  0  0  0  0
   -0.0881    0.9287   -0.1344 C   0  0  0  0  0  0  0  0  0  0  0  0
   -0.1509    2.3734    0.1717 C   0  0  0  0  0  0  0  0  0  0  0  0
    0.8505    3.2636   -0.2645 C   0  0  0  0  0  0  0  0  0  0  0  0
    0.7928    4.6309    0.0253 C   0  0  0  0  0  0  0  0  0  0  0  0
   -0.2715    5.1426    0.7611 C   0  0  0  0  0  0  0  0  0  0  0  0
   -1.2761    4.2894    1.2064 C   0  0  0  0  0  0  0  0  0  0  0  0
   -1.2146    2.9227    0.9143 C   0  0  0  0  0  0  0  0  0  0  0  0
    0.9693    0.4812   -0.8269 N   0  0  0  0  0  0  0  0  0  0  0  0
    5.6096   -0.8750    0.8449 H   0  0  0  0  0  0  0  0  0  0  0  0
    5.8514   -1.3496   -0.8436 H   0  0  0  0  0  0  0  0  0  0  0  0
    4.4911   -2.0114    0.0869 H   0  0  0  0  0  0  0  0  0  0  0  0
    3.4819    0.2704    0.2417 H   0  0  0  0  0  0  0  0  0  0  0  0
    4.8759    0.9523   -0.5746 H   0  0  0  0  0  0  0  0  0  0  0  0
    3.0974    0.8087   -2.2189 H   0  0  0  0  0  0  0  0  0  0  0  0
    4.3610   -0.3294   -2.6403 H   0  0  0  0  0  0  0  0  0  0  0  0
    0.0778   -2.7579   -0.8703 H   0  0  0  0  0  0  0  0  0  0  0  0
   -3.7182   -0.6047    0.5162 H   0  0  0  0  0  0  0  0  0  0  0  0
   -2.9300   -0.8431    2.1043 H   0  0  0  0  0  0  0  0  0  0  0  0
   -3.8242   -3.0554    2.3340 H   0  0  0  0  0  0  0  0  0  0  0  0
   -5.1892   -2.2089    1.5744 H   0  0  0  0  0  0  0  0  0  0  0  0
   -4.5292   -2.9823   -0.6320 H   0  0  0  0  0  0  0  0  0  0  0  0
   -4.2419   -4.4222    0.3619 H   0  0  0  0  0  0  0  0  0  0  0  0
   -2.2788   -3.2895   -1.1728 H   0  0  0  0  0  0  0  0  0  0  0  0
   -1.8808   -4.0382    0.3977 H   0  0  0  0  0  0  0  0  0  0  0  0
    1.6945    2.8909   -0.8426 H   0  0  0  0  0  0  0  0  0  0  0  0
    1.5806    5.2922   -0.3257 H   0  0  0  0  0  0  0  0  0  0  0  0
   -0.3178    6.2045    0.9872 H   0  0  0  0  0  0  0  0  0  0  0  0
   -2.1100    4.6824    1.7821 H   0  0  0  0  0  0  0  0  0  0  0  0
   -2.0136    2.2770    1.2760 H   0  0  0  0  0  0  0  0  0  0  0  0
  1  2  1  0
  2  3  1  0
  3  4  1  0
  4  5  1  0
  5  6  2  0
  6  7  1  0
  7  8  1  0
  8  9  1  0
  9 10  1  0
 10 11  1  0
 11 12  1  0
  7 13  2  0
 13 14  1  0
 14 15  1  0
 15 16  2  0
 16 17  1  0
 17 18  2  0
 18 19  1  0
 19 20  2  0
 14 21  2  0
 21  5  1  0
 12  8  1  0
 20 15  1  0
  1 22  1  0
  1 23  1  0
  1 24  1  0
  2 25  1  0
  2 26  1  0
  3 27  1  0
  3 28  1  0
  6 29  1  0
  9 30  1  0
  9 31  1  0
 10 32  1  0
 10 33  1  0
 11 34  1  0
 11 35  1  0
 12 36  1  0
 12 37  1  0
 16 38  1  0
 17 39  1  0
 18 40  1  0
 19 41  1  0
 20 42  1  0
M  END
$$$$
