
     RDKit          3D

 41 44  0  0  0  0  0  0  0  0999 V2000
   -3.1349    3.0495    0.7981 C   0  0  0  0  0  0  0  0  0  0  0  0
   -3.3286    2.2023   -0.3300 O   0  0  0  0  0  0  0  0  0  0  0  0
   -4.2775    1.2195   -0.1818 C   0  0  0  0  0  0  0  0  0  0  0  0
   -5.3789    1.3228    0.6742 C   0  0  0  0  0  0  0  0  0  0  0  0
   -6.3179    0.2905    0.7429 C   0  0  0  0  0  0  0  0  0  0  0  0
   -6.1696   -0.8462   -0.0480 C   0  0  0  0  0  0  0  0  0  0  0  0
   -5.0810   -0.9546   -0.9128 C   0  0  0  0  0  0  0  0  0  0  0  0
   -4.1290    0.0716   -0.9842 C   0  0  0  0  0  0  0  0  0  0  0  0
   -3.0098   -0.0834   -1.9224 C   0  0  0  0  0  0  0  0  0  0  0  0
   -1.7225   -0.2356   -1.5788 C   0  0  0  0  0  0  0  0  0  0  0  0
   -0.4539   -0.3425   -2.8014 S   0  0  0  0  0  0  0  0  0  0  0  0
    0.7227   -0.4338   -1.5614 C   0  0  0  0  0  0  0  0  0  0  0  0
    2.0176   -0.5419   -1.5222 N   0  0  0  0  0  0  0  0  0  0  0  0
    2.2665   -0.5653   -0.1524 C   0  0  0  0  0  0  0  0  0  0  0  0
    3.6119   -0.6903    0.4076 C   0  0  0  0  0  0  0  0  0  0  0  0
    3.7773   -1.2894    1.6701 C   0  0  0  0  0  0  0  0  0  0  0  0
    5.0453   -1.4314    2.2416 C   0  0  0  0  0  0  0  0  0  0  0  0
    6.1695   -0.9660    1.5655 C   0  0  0  0  0  0  0  0  0  0  0  0
    6.0265   -0.3609    0.3183 C   0  0  0  0  0  0  0  0  0  0  0  0
    4.7585   -0.2382   -0.2651 C   0  0  0  0  0  0  0  0  0  0  0  0
    4.6678    0.4307   -1.4602 O   0  0  0  0  0  0  0  0  0  0  0  0
    5.0440   -0.4244   -2.5406 C   0  0  0  0  0  0  0  0  0  0  0  0
    1.1511   -0.5217    0.6147 N   0  0  0  0  0  0  0  0  0  0  0  0
    0.1950   -0.4143   -0.3247 N   0  0  0  0  0  0  0  0  0  0  0  0
   -1.1739   -0.3264   -0.1828 C   0  0  0  0  0  0  0  0  0  0  0  0
   -1.7329   -0.3534    0.8975 O   0  0  0  0  0  0  0  0  0  0  0  0
   -3.9500    3.7752    0.8818 H   0  0  0  0  0  0  0  0  0  0  0  0
   -3.0221    2.4729    1.7229 H   0  0  0  0  0  0  0  0  0  0  0  0
   -2.2080    3.6090    0.6386 H   0  0  0  0  0  0  0  0  0  0  0  0
   -5.5392    2.2014    1.2902 H   0  0  0  0  0  0  0  0  0  0  0  0
   -7.1695    0.3777    1.4132 H   0  0  0  0  0  0  0  0  0  0  0  0
   -6.9028   -1.6464    0.0070 H   0  0  0  0  0  0  0  0  0  0  0  0
   -4.9798   -1.8471   -1.5258 H   0  0  0  0  0  0  0  0  0  0  0  0
   -3.3017   -0.0381   -2.9694 H   0  0  0  0  0  0  0  0  0  0  0  0
    2.9102   -1.6501    2.2217 H   0  0  0  0  0  0  0  0  0  0  0  0
    5.1494   -1.8960    3.2191 H   0  0  0  0  0  0  0  0  0  0  0  0
    7.1545   -1.0607    2.0150 H   0  0  0  0  0  0  0  0  0  0  0  0
    6.9008    0.0311   -0.1941 H   0  0  0  0  0  0  0  0  0  0  0  0
    4.5353   -1.3940   -2.4919 H   0  0  0  0  0  0  0  0  0  0  0  0
    6.1293   -0.5681   -2.5606 H   0  0  0  0  0  0  0  0  0  0  0  0
    4.7504    0.0663   -3.4735 H   0  0  0  0  0  0  0  0  0  0  0  0
  1  2  1  0
  2  3  1  0
  3  4  2  0
  4  5  1  0
  5  6  2  0
  6  7  1  0
  7  8  2  0
  8  9  1  0
  9 10  2  3
 10 11  1  0
 11 12  1  0
 12 13  2  0
 13 14  1  0
 14 15  1  0
 15 16  2  0
 16 17  1  0
 17 18  2  0
 18 19  1  0
 19 20  2  0
 20 21  1  0
 21 22  1  0
 14 23  2  0
 23 24  1  0
 24 25  1  0
 25 26  2  0
  8  3  1  0
 25 10  1  0
 24 12  1  0
 20 15  1  0
  1 27  1  0
  1 28  1  0
  1 29  1  0
  4 30  1  0
  5 31  1  0
  6 32  1  0
  7 33  1  0
  9 34  1  0
 16 35  1  0
 17 36  1  0
 18 37  1  0
 19 38  1  0
 22 39  1  0
 22 40  1  0
 22 41  1  0
M  END
$$$$
