
     RDKit          3D

 42 45  0  0  0  0  0  0  0  0999 V2000
    7.4085   -0.5429    0.0633 O   0  0  0  0  0  0  0  0  0  0  0  0
    6.3875   -1.1220   -0.2630 C   0  0  0  0  0  0  0  0  0  0  0  0
    6.4185   -2.4207   -0.6188 O   0  0  0  0  0  0  0  0  0  0  0  0
    5.0073   -0.5401   -0.3778 C   0  0  0  0  0  0  0  0  0  0  0  0
    4.9453    0.8458    0.2754 C   0  0  0  0  0  0  0  0  0  0  0  0
    4.6918    0.7802    1.7837 C   0  0  0  0  0  0  0  0  0  0  0  0
    4.1320    1.6355    2.4545 O   0  0  0  0  0  0  0  0  0  0  0  0
    5.2073   -0.3090    2.3847 O   0  0  0  0  0  0  0  0  0  0  0  0
    3.8805    1.7111   -0.2975 N   0  0  0  0  0  0  0  0  0  0  0  0
    2.5815    1.2269   -0.3672 C   0  0  0  0  0  0  0  0  0  0  0  0
    2.2441    0.1091   -0.0070 O   0  0  0  0  0  0  0  0  0  0  0  0
    1.6499    2.2645   -0.8938 C   0  0  0  0  0  0  0  0  0  0  0  0
    0.3411    2.1921   -1.1731 C   0  0  0  0  0  0  0  0  0  0  0  0
   -0.4920    1.0452   -1.0820 C   0  0  0  0  0  0  0  0  0  0  0  0
   -0.2749   -0.2905   -1.3882 C   0  0  0  0  0  0  0  0  0  0  0  0
   -1.4760   -0.9959   -1.1411 C   0  0  0  0  0  0  0  0  0  0  0  0
   -2.4084   -0.0718   -0.7130 C   0  0  0  0  0  0  0  0  0  0  0  0
   -3.7789   -0.3019   -0.3448 C   0  0  0  0  0  0  0  0  0  0  0  0
   -4.3280   -1.4976   -0.3944 N   0  0  0  0  0  0  0  0  0  0  0  0
   -5.6492   -1.4246    0.0139 C   0  0  0  0  0  0  0  0  0  0  0  0
   -6.5508   -2.5057    0.0916 C   0  0  0  0  0  0  0  0  0  0  0  0
   -7.8636   -2.2880    0.5228 C   0  0  0  0  0  0  0  0  0  0  0  0
   -8.2864   -1.0104    0.8758 C   0  0  0  0  0  0  0  0  0  0  0  0
   -7.4120    0.0788    0.8076 C   0  0  0  0  0  0  0  0  0  0  0  0
   -6.0959   -0.1515    0.3732 C   0  0  0  0  0  0  0  0  0  0  0  0
   -4.8021    0.9677    0.1848 S   0  0  0  0  0  0  0  0  0  0  0  0
   -1.8098    1.1606   -0.6982 O   0  0  0  0  0  0  0  0  0  0  0  0
    2.5180    3.7486   -1.0912 S   0  0  0  0  0  0  0  0  0  0  0  0
    4.0455    3.0522   -0.5771 C   0  0  0  0  0  0  0  0  0  0  0  0
    5.4395    3.9659   -0.5111 S   0  0  0  0  0  0  0  0  0  0  0  0
    7.3557   -2.6860   -0.5054 H   0  0  0  0  0  0  0  0  0  0  0  0
    4.7797   -0.4682   -1.4477 H   0  0  0  0  0  0  0  0  0  0  0  0
    4.3057   -1.2394    0.0898 H   0  0  0  0  0  0  0  0  0  0  0  0
    5.9073    1.3511    0.1594 H   0  0  0  0  0  0  0  0  0  0  0  0
    4.9909   -0.1876    3.3347 H   0  0  0  0  0  0  0  0  0  0  0  0
   -0.1795    3.0975   -1.4800 H   0  0  0  0  0  0  0  0  0  0  0  0
    0.6493   -0.7183   -1.7516 H   0  0  0  0  0  0  0  0  0  0  0  0
   -1.6540   -2.0559   -1.2637 H   0  0  0  0  0  0  0  0  0  0  0  0
   -6.2169   -3.5010   -0.1845 H   0  0  0  0  0  0  0  0  0  0  0  0
   -8.5555   -3.1250    0.5815 H   0  0  0  0  0  0  0  0  0  0  0  0
   -9.3102   -0.8547    1.2099 H   0  0  0  0  0  0  0  0  0  0  0  0
   -7.7430    1.0754    1.0836 H   0  0  0  0  0  0  0  0  0  0  0  0
  1  2  2  0
  2  3  1  0
  2  4  1  0
  4  5  1  0
  5  6  1  0
  6  7  2  0
  6  8  1  0
  5  9  1  0
  9 10  1  0
 10 11  2  0
 10 12  1  0
 12 13  2  3
 13 14  1  0
 14 15  2  0
 15 16  1  0
 16 17  2  0
 17 18  1  0
 18 19  2  0
 19 20  1  0
 20 21  2  0
 21 22  1  0
 22 23  2  0
 23 24  1  0
 24 25  2  0
 25 26  1  0
 17 27  1  0
 12 28  1  0
 28 29  1  0
 29 30  2  0
 29  9  1  0
 27 14  1  0
 26 18  1  0
 25 20  1  0
  3 31  1  0
  4 32  1  0
  4 33  1  0
  5 34  1  0
  8 35  1  0
 13 36  1  0
 15 37  1  0
 16 38  1  0
 21 39  1  0
 22 40  1  0
 23 41  1  0
 24 42  1  0
M  END
$$$$
