
     RDKit          3D

 55 58  0  0  0  0  0  0  0  0999 V2000
    5.7127   -2.5841    3.4697 N   0  0  0  0  0  0  0  0  0  0  0  0
    5.3028   -1.9985    2.3007 C   0  0  0  0  0  0  0  0  0  0  0  0
    6.1124   -1.7115    1.4218 O   0  0  0  0  0  0  0  0  0  0  0  0
    3.8550   -1.7385    2.2112 C   0  0  0  0  0  0  0  0  0  0  0  0
    3.0676   -2.0108    3.2662 N   0  0  0  0  0  0  0  0  0  0  0  0
    1.5125   -1.5699    2.9087 S   0  0  0  0  0  0  0  0  0  0  0  0
    1.8199   -1.0512    1.3134 C   0  0  0  0  0  0  0  0  0  0  0  0
    0.7715   -0.4854    0.4886 C   0  0  0  0  0  0  0  0  0  0  0  0
    0.9150    0.6409    0.0063 O   0  0  0  0  0  0  0  0  0  0  0  0
   -0.4235   -1.2131    0.3081 N   0  0  0  0  0  0  0  0  0  0  0  0
   -0.5145   -2.6353    0.4098 C   0  0  0  0  0  0  0  0  0  0  0  0
   -1.6488   -3.2295    0.9812 C   0  0  0  0  0  0  0  0  0  0  0  0
   -1.7447   -4.6189    1.0917 C   0  0  0  0  0  0  0  0  0  0  0  0
   -0.7159   -5.4292    0.6197 C   0  0  0  0  0  0  0  0  0  0  0  0
    0.4094   -4.8519    0.0372 C   0  0  0  0  0  0  0  0  0  0  0  0
    0.5097   -3.4626   -0.0685 C   0  0  0  0  0  0  0  0  0  0  0  0
   -1.5858   -0.5072   -0.2673 C   0  0  0  0  0  0  0  0  0  0  0  0
   -1.3112    0.0683   -1.6839 C   0  0  0  0  0  0  0  0  0  0  0  0
   -0.4114   -0.3604   -2.4105 O   0  0  0  0  0  0  0  0  0  0  0  0
   -2.2173    1.0144   -2.1380 N   0  0  0  0  0  0  0  0  0  0  0  0
   -1.9341    1.8156   -3.3089 C   0  0  0  0  0  0  0  0  0  0  0  0
   -1.4444    3.1791   -2.8857 C   0  0  0  0  0  0  0  0  0  0  0  0
   -0.1370    3.3386   -2.3932 C   0  0  0  0  0  0  0  0  0  0  0  0
    0.3051    4.5848   -1.9493 C   0  0  0  0  0  0  0  0  0  0  0  0
   -0.5584    5.6717   -1.9956 C   0  0  0  0  0  0  0  0  0  0  0  0
   -0.1393    6.8664   -1.5609 F   0  0  0  0  0  0  0  0  0  0  0  0
   -1.8560    5.5362   -2.4776 C   0  0  0  0  0  0  0  0  0  0  0  0
   -2.3011    4.2901   -2.9214 C   0  0  0  0  0  0  0  0  0  0  0  0
   -2.1165    0.5152    0.6956 C   0  0  0  0  0  0  0  0  0  0  0  0
   -1.7153    1.7748    1.1043 C   0  0  0  0  0  0  0  0  0  0  0  0
   -2.6845    2.2284    2.0311 C   0  0  0  0  0  0  0  0  0  0  0  0
   -3.6198    1.2257    2.1309 C   0  0  0  0  0  0  0  0  0  0  0  0
   -3.2888    0.1845    1.3261 O   0  0  0  0  0  0  0  0  0  0  0  0
    3.1708   -1.1769    1.0679 C   0  0  0  0  0  0  0  0  0  0  0  0
    3.7619   -0.8273   -0.1026 N   0  0  0  0  0  0  0  0  0  0  0  0
    6.6914   -2.7734    3.6153 H   0  0  0  0  0  0  0  0  0  0  0  0
    5.0283   -2.7859    4.1896 H   0  0  0  0  0  0  0  0  0  0  0  0
   -2.4537   -2.6227    1.3888 H   0  0  0  0  0  0  0  0  0  0  0  0
   -2.6199   -5.0674    1.5572 H   0  0  0  0  0  0  0  0  0  0  0  0
   -0.7908   -6.5106    0.7031 H   0  0  0  0  0  0  0  0  0  0  0  0
    1.2074   -5.4828   -0.3488 H   0  0  0  0  0  0  0  0  0  0  0  0
    1.3822   -3.0475   -0.5691 H   0  0  0  0  0  0  0  0  0  0  0  0
   -2.3907   -1.2316   -0.4524 H   0  0  0  0  0  0  0  0  0  0  0  0
   -2.8855    1.4014   -1.4832 H   0  0  0  0  0  0  0  0  0  0  0  0
   -2.8665    1.9011   -3.8765 H   0  0  0  0  0  0  0  0  0  0  0  0
   -1.1952    1.3337   -3.9576 H   0  0  0  0  0  0  0  0  0  0  0  0
    0.5367    2.4835   -2.3400 H   0  0  0  0  0  0  0  0  0  0  0  0
    1.3116    4.7098   -1.5623 H   0  0  0  0  0  0  0  0  0  0  0  0
   -2.5128    6.4000   -2.5001 H   0  0  0  0  0  0  0  0  0  0  0  0
   -3.3214    4.1910   -3.2876 H   0  0  0  0  0  0  0  0  0  0  0  0
   -0.8338    2.3079    0.7666 H   0  0  0  0  0  0  0  0  0  0  0  0
   -2.7009    3.1719    2.5581 H   0  0  0  0  0  0  0  0  0  0  0  0
   -4.5345    1.1072    2.6986 H   0  0  0  0  0  0  0  0  0  0  0  0
    3.3069   -0.1742   -0.7406 H   0  0  0  0  0  0  0  0  0  0  0  0
    4.7833   -0.7840   -0.1572 H   0  0  0  0  0  0  0  0  0  0  0  0
  1  2  1  0
  2  3  2  0
  2  4  1  0
  4  5  2  0
  5  6  1  0
  6  7  1  0
  7  8  1  0
  8  9  2  0
  8 10  1  0
 10 11  1  0
 11 12  2  0
 12 13  1  0
 13 14  2  0
 14 15  1  0
 15 16  2  0
 10 17  1  0
 17 18  1  0
 18 19  2  0
 18 20  1  0
 20 21  1  0
 21 22  1  0
 22 23  2  0
 23 24  1  0
 24 25  2  0
 25 26  1  0
 25 27  1  0
 27 28  2  0
 17 29  1  0
 29 30  2  0
 30 31  1  0
 31 32  2  0
 32 33  1  0
  7 34  2  0
 34 35  1  0
 34  4  1  0
 16 11  1  0
 28 22  1  0
 33 29  1  0
  1 36  1  0
  1 37  1  0
 12 38  1  0
 13 39  1  0
 14 40  1  0
 15 41  1  0
 16 42  1  0
 17 43  1  0
 20 44  1  0
 21 45  1  0
 21 46  1  0
 23 47  1  0
 24 48  1  0
 27 49  1  0
 28 50  1  0
 30 51  1  0
 31 52  1  0
 32 53  1  0
 35 54  1  0
 35 55  1  0
M  END
$$$$
