
     RDKit          3D

 56 59  0  0  0  0  0  0  0  0999 V2000
    3.7371    1.6270   -0.6672 C   0  0  0  0  0  0  0  0  0  0  0  0
    2.8960    0.3518   -0.6076 C   0  0  0  0  0  0  0  0  0  0  0  0
    3.6606   -0.8810   -1.1316 C   0  0  0  0  0  0  0  0  0  0  0  0
    4.3494   -1.6986   -0.0308 C   0  0  0  0  0  0  0  0  0  0  0  0
    5.5181   -1.0096    0.6246 C   0  0  0  0  0  0  0  0  0  0  0  0
    5.4171   -0.5361    1.9410 C   0  0  0  0  0  0  0  0  0  0  0  0
    6.4947    0.1148    2.5432 C   0  0  0  0  0  0  0  0  0  0  0  0
    7.6828    0.2977    1.8374 C   0  0  0  0  0  0  0  0  0  0  0  0
    7.7969   -0.1760    0.5314 C   0  0  0  0  0  0  0  0  0  0  0  0
    6.7204   -0.8271   -0.0732 C   0  0  0  0  0  0  0  0  0  0  0  0
    1.6782    0.5580   -1.3887 N   0  0  0  0  0  0  0  0  0  0  0  0
    0.5239   -0.1604   -1.1430 C   0  0  0  0  0  0  0  0  0  0  0  0
    0.4362   -1.0063   -0.2556 O   0  0  0  0  0  0  0  0  0  0  0  0
   -0.6301    0.1747   -2.0945 C   0  0  0  0  0  0  0  0  0  0  0  0
   -1.9185   -0.0955   -1.5518 O   0  0  0  0  0  0  0  0  0  0  0  0
   -2.3124    0.8050   -0.6180 C   0  0  0  0  0  0  0  0  0  0  0  0
   -1.7121    1.8025   -0.2586 O   0  0  0  0  0  0  0  0  0  0  0  0
   -3.6484    0.4106   -0.1381 C   0  0  0  0  0  0  0  0  0  0  0  0
   -4.7876    0.9783   -0.7729 C   0  0  0  0  0  0  0  0  0  0  0  0
   -4.7303    1.9203   -1.8313 C   0  0  0  0  0  0  0  0  0  0  0  0
   -5.8881    2.4332   -2.4185 C   0  0  0  0  0  0  0  0  0  0  0  0
   -7.1332    2.0205   -1.9646 C   0  0  0  0  0  0  0  0  0  0  0  0
   -7.2188    1.0986   -0.9225 C   0  0  0  0  0  0  0  0  0  0  0  0
   -6.0617    0.5752   -0.3197 C   0  0  0  0  0  0  0  0  0  0  0  0
   -6.1669   -0.3486    0.7321 C   0  0  0  0  0  0  0  0  0  0  0  0
   -5.0366   -0.8898    1.3661 C   0  0  0  0  0  0  0  0  0  0  0  0
   -5.1865   -1.8040    2.4240 C   0  0  0  0  0  0  0  0  0  0  0  0
   -4.0761   -2.3526    3.0638 C   0  0  0  0  0  0  0  0  0  0  0  0
   -2.7997   -1.9904    2.6569 C   0  0  0  0  0  0  0  0  0  0  0  0
   -2.6356   -1.0822    1.6092 C   0  0  0  0  0  0  0  0  0  0  0  0
   -3.7457   -0.5136    0.9372 C   0  0  0  0  0  0  0  0  0  0  0  0
    3.1589    2.4842   -0.3038 H   0  0  0  0  0  0  0  0  0  0  0  0
    4.6391    1.5558   -0.0563 H   0  0  0  0  0  0  0  0  0  0  0  0
    4.0388    1.8507   -1.6961 H   0  0  0  0  0  0  0  0  0  0  0  0
    2.5837    0.1792    0.4301 H   0  0  0  0  0  0  0  0  0  0  0  0
    4.3810   -0.5838   -1.9042 H   0  0  0  0  0  0  0  0  0  0  0  0
    2.9575   -1.5628   -1.6293 H   0  0  0  0  0  0  0  0  0  0  0  0
    4.7143   -2.6388   -0.4662 H   0  0  0  0  0  0  0  0  0  0  0  0
    3.6106   -1.9935    0.7255 H   0  0  0  0  0  0  0  0  0  0  0  0
    4.4956   -0.6681    2.5044 H   0  0  0  0  0  0  0  0  0  0  0  0
    6.4060    0.4794    3.5643 H   0  0  0  0  0  0  0  0  0  0  0  0
    8.5208    0.8055    2.3073 H   0  0  0  0  0  0  0  0  0  0  0  0
    8.7250   -0.0375   -0.0176 H   0  0  0  0  0  0  0  0  0  0  0  0
    6.8244   -1.1929   -1.0923 H   0  0  0  0  0  0  0  0  0  0  0  0
    1.7169    1.1756   -2.1890 H   0  0  0  0  0  0  0  0  0  0  0  0
   -0.5106   -0.4579   -2.9812 H   0  0  0  0  0  0  0  0  0  0  0  0
   -0.5687    1.2175   -2.4305 H   0  0  0  0  0  0  0  0  0  0  0  0
   -3.7726    2.2737   -2.2092 H   0  0  0  0  0  0  0  0  0  0  0  0
   -5.8131    3.1561   -3.2269 H   0  0  0  0  0  0  0  0  0  0  0  0
   -8.0391    2.4159   -2.4183 H   0  0  0  0  0  0  0  0  0  0  0  0
   -8.2049    0.7903   -0.5799 H   0  0  0  0  0  0  0  0  0  0  0  0
   -7.1572   -0.6511    1.0719 H   0  0  0  0  0  0  0  0  0  0  0  0
   -6.1785   -2.0999    2.7598 H   0  0  0  0  0  0  0  0  0  0  0  0
   -4.2085   -3.0607    3.8778 H   0  0  0  0  0  0  0  0  0  0  0  0
   -1.9257   -2.4108    3.1490 H   0  0  0  0  0  0  0  0  0  0  0  0
   -1.6167   -0.8228    1.3234 H   0  0  0  0  0  0  0  0  0  0  0  0
  1  2  1  0
  2  3  1  0
  3  4  1  0
  4  5  1  0
  5  6  2  0
  6  7  1  0
  7  8  2  0
  8  9  1  0
  9 10  2  0
  2 11  1  0
 11 12  1  0
 12 13  2  0
 12 14  1  0
 14 15  1  0
 15 16  1  0
 16 17  2  0
 16 18  1  0
 18 19  1  0
 19 20  2  0
 20 21  1  0
 21 22  2  0
 22 23  1  0
 23 24  2  0
 24 25  1  0
 25 26  2  0
 26 27  1  0
 27 28  2  0
 28 29  1  0
 29 30  2  0
 30 31  1  0
 10  5  1  0
 31 18  2  0
 24 19  1  0
 31 26  1  0
  1 32  1  0
  1 33  1  0
  1 34  1  0
  2 35  1  0
  3 36  1  0
  3 37  1  0
  4 38  1  0
  4 39  1  0
  6 40  1  0
  7 41  1  0
  8 42  1  0
  9 43  1  0
 10 44  1  0
 11 45  1  0
 14 46  1  0
 14 47  1  0
 20 48  1  0
 21 49  1  0
 22 50  1  0
 23 51  1  0
 25 52  1  0
 27 53  1  0
 28 54  1  0
 29 55  1  0
 30 56  1  0
M  END
$$$$
