
     RDKit          3D

 48 48  0  0  0  0  0  0  0  0999 V2000
   -7.5773    1.1950   -0.9019 C   0  0  0  0  0  0  0  0  0  0  0  0
   -7.3955    0.0887    0.1252 C   0  0  0  0  0  0  0  0  0  0  0  0
   -6.3450   -0.9509   -0.2730 C   0  0  0  0  0  0  0  0  0  0  0  0
   -4.9291   -0.4147   -0.5124 C   0  0  0  0  0  0  0  0  0  0  0  0
   -4.3114    0.2436    0.7238 C   0  0  0  0  0  0  0  0  0  0  0  0
   -2.8936    0.7738    0.4853 C   0  0  0  0  0  0  0  0  0  0  0  0
   -1.8615   -0.3297    0.2425 C   0  0  0  0  0  0  0  0  0  0  0  0
   -0.4490    0.2484    0.1326 C   0  0  0  0  0  0  0  0  0  0  0  0
    0.5838   -0.8496   -0.1138 C   0  0  0  0  0  0  0  0  0  0  0  0
    1.9964   -0.3003   -0.2208 C   0  0  0  0  0  0  0  0  0  0  0  0
    2.2593    0.8962   -0.1505 O   0  0  0  0  0  0  0  0  0  0  0  0
    2.9313   -1.3273   -0.3927 N   0  0  0  0  0  0  0  0  0  0  0  0
    4.2142   -1.0397   -0.7785 N   0  0  0  0  0  0  0  0  0  0  0  0
    4.9862   -0.3769    0.0386 C   0  0  0  0  0  0  0  0  0  0  0  0
    4.6277   -0.0323    1.4729 C   0  0  0  0  0  0  0  0  0  0  0  0
    6.3329    0.0416   -0.4524 C   0  0  0  0  0  0  0  0  0  0  0  0
    6.9074   -0.5842   -1.5621 C   0  0  0  0  0  0  0  0  0  0  0  0
    8.1648   -0.1815   -2.0081 C   0  0  0  0  0  0  0  0  0  0  0  0
    8.8071    0.8404   -1.3284 C   0  0  0  0  0  0  0  0  0  0  0  0
    8.2813    1.4745   -0.2582 N   0  0  0  0  0  0  0  0  0  0  0  0
    7.0526    1.0670    0.1493 C   0  0  0  0  0  0  0  0  0  0  0  0
   -8.4097    1.8440   -0.6114 H   0  0  0  0  0  0  0  0  0  0  0  0
   -6.6828    1.8200   -0.9803 H   0  0  0  0  0  0  0  0  0  0  0  0
   -7.7996    0.7811   -1.8905 H   0  0  0  0  0  0  0  0  0  0  0  0
   -7.1494    0.5284    1.0977 H   0  0  0  0  0  0  0  0  0  0  0  0
   -8.3552   -0.4261    0.2554 H   0  0  0  0  0  0  0  0  0  0  0  0
   -6.3059   -1.7212    0.5073 H   0  0  0  0  0  0  0  0  0  0  0  0
   -6.6799   -1.4570   -1.1872 H   0  0  0  0  0  0  0  0  0  0  0  0
   -4.9313    0.2927   -1.3494 H   0  0  0  0  0  0  0  0  0  0  0  0
   -4.3082   -1.2615   -0.8260 H   0  0  0  0  0  0  0  0  0  0  0  0
   -4.3031   -0.4674    1.5586 H   0  0  0  0  0  0  0  0  0  0  0  0
   -4.9319    1.0915    1.0348 H   0  0  0  0  0  0  0  0  0  0  0  0
   -2.8988    1.4705   -0.3618 H   0  0  0  0  0  0  0  0  0  0  0  0
   -2.5945    1.3529    1.3680 H   0  0  0  0  0  0  0  0  0  0  0  0
   -2.0981   -0.8706   -0.6802 H   0  0  0  0  0  0  0  0  0  0  0  0
   -1.8980   -1.0549    1.0643 H   0  0  0  0  0  0  0  0  0  0  0  0
   -0.1982    0.7898    1.0534 H   0  0  0  0  0  0  0  0  0  0  0  0
   -0.4123    0.9801   -0.6841 H   0  0  0  0  0  0  0  0  0  0  0  0
    0.5590   -1.5754    0.7077 H   0  0  0  0  0  0  0  0  0  0  0  0
    0.3496   -1.3766   -1.0462 H   0  0  0  0  0  0  0  0  0  0  0  0
    2.5663   -2.1542   -0.8574 H   0  0  0  0  0  0  0  0  0  0  0  0
    3.8840   -0.7247    1.8754 H   0  0  0  0  0  0  0  0  0  0  0  0
    4.2412    0.9887    1.5247 H   0  0  0  0  0  0  0  0  0  0  0  0
    5.5088   -0.1126    2.1169 H   0  0  0  0  0  0  0  0  0  0  0  0
    6.3835   -1.3828   -2.0810 H   0  0  0  0  0  0  0  0  0  0  0  0
    8.6296   -0.6534   -2.8665 H   0  0  0  0  0  0  0  0  0  0  0  0
    9.7885    1.1888   -1.6379 H   0  0  0  0  0  0  0  0  0  0  0  0
    6.6635    1.6280    0.9934 H   0  0  0  0  0  0  0  0  0  0  0  0
  1  2  1  0
  2  3  1  0
  3  4  1  0
  4  5  1  0
  5  6  1  0
  6  7  1  0
  7  8  1  0
  8  9  1  0
  9 10  1  0
 10 11  2  0
 10 12  1  0
 12 13  1  0
 13 14  2  3
 14 15  1  0
 14 16  1  0
 16 17  2  0
 17 18  1  0
 18 19  2  0
 19 20  1  0
 20 21  2  0
 21 16  1  0
  1 22  1  0
  1 23  1  0
  1 24  1  0
  2 25  1  0
  2 26  1  0
  3 27  1  0
  3 28  1  0
  4 29  1  0
  4 30  1  0
  5 31  1  0
  5 32  1  0
  6 33  1  0
  6 34  1  0
  7 35  1  0
  7 36  1  0
  8 37  1  0
  8 38  1  0
  9 39  1  0
  9 40  1  0
 12 41  1  0
 15 42  1  0
 15 43  1  0
 15 44  1  0
 17 45  1  0
 18 46  1  0
 19 47  1  0
 21 48  1  0
M  END
$$$$
