
     RDKit          3D

 42 44  0  0  0  0  0  0  0  0999 V2000
    1.8381   -0.6342    2.8978 C   0  0  0  0  0  0  0  0  0  0  0  0
    2.1282   -0.8098    1.5169 O   0  0  0  0  0  0  0  0  0  0  0  0
    1.0901   -0.6836    0.6299 C   0  0  0  0  0  0  0  0  0  0  0  0
   -0.1994   -0.2337    0.9617 C   0  0  0  0  0  0  0  0  0  0  0  0
   -1.2353   -0.1162    0.0118 C   0  0  0  0  0  0  0  0  0  0  0  0
   -2.5044    0.3004    0.3874 N   0  0  0  0  0  0  0  0  0  0  0  0
   -3.6999   -0.1096   -0.3612 C   0  0  0  0  0  0  0  0  0  0  0  0
   -4.8294   -0.0696    0.6691 C   0  0  0  0  0  0  0  0  0  0  0  0
   -4.3544    0.9705    1.6669 C   0  0  0  0  0  0  0  0  0  0  0  0
   -2.8613    0.6775    1.7540 C   0  0  0  0  0  0  0  0  0  0  0  0
   -0.8752   -0.4114   -1.3209 C   0  0  0  0  0  0  0  0  0  0  0  0
   -1.7613   -0.2538   -2.3640 O   0  0  0  0  0  0  0  0  0  0  0  0
   -1.6221    1.0625   -2.9053 C   0  0  0  0  0  0  0  0  0  0  0  0
    0.3969   -0.8873   -1.6661 C   0  0  0  0  0  0  0  0  0  0  0  0
    1.3900   -1.0290   -0.6947 C   0  0  0  0  0  0  0  0  0  0  0  0
    2.7613   -1.5240   -1.0875 C   0  0  0  0  0  0  0  0  0  0  0  0
    3.7895   -0.4502   -1.0114 C   0  0  0  0  0  0  0  0  0  0  0  0
    3.8526    0.6439   -1.7109 N   0  0  0  0  0  0  0  0  0  0  0  0
    4.9715    1.3146   -1.2608 C   0  0  0  0  0  0  0  0  0  0  0  0
    5.5553    2.7722   -1.8074 S   0  0  0  0  0  0  0  0  0  0  0  0
    5.5949    0.6253   -0.2717 N   0  0  0  0  0  0  0  0  0  0  0  0
    4.9551   -0.5388   -0.0607 C   0  0  0  0  0  0  0  0  0  0  0  0
    5.2388   -1.4722    0.6512 O   0  0  0  0  0  0  0  0  0  0  0  0
    1.0664   -1.3345    3.2344 H   0  0  0  0  0  0  0  0  0  0  0  0
    1.5552    0.4019    3.1099 H   0  0  0  0  0  0  0  0  0  0  0  0
    2.7516   -0.8504    3.4601 H   0  0  0  0  0  0  0  0  0  0  0  0
   -0.4141    0.0271    1.9904 H   0  0  0  0  0  0  0  0  0  0  0  0
   -3.9059    0.6096   -1.1609 H   0  0  0  0  0  0  0  0  0  0  0  0
   -3.6217   -1.1185   -0.7811 H   0  0  0  0  0  0  0  0  0  0  0  0
   -5.7955    0.1786    0.2207 H   0  0  0  0  0  0  0  0  0  0  0  0
   -4.9219   -1.0454    1.1613 H   0  0  0  0  0  0  0  0  0  0  0  0
   -4.5224    1.9787    1.2695 H   0  0  0  0  0  0  0  0  0  0  0  0
   -4.8551    0.8918    2.6357 H   0  0  0  0  0  0  0  0  0  0  0  0
   -2.3092    1.5586    2.0970 H   0  0  0  0  0  0  0  0  0  0  0  0
   -2.6885   -0.1561    2.4455 H   0  0  0  0  0  0  0  0  0  0  0  0
   -0.6443    1.1895   -3.3825 H   0  0  0  0  0  0  0  0  0  0  0  0
   -1.7761    1.8336   -2.1422 H   0  0  0  0  0  0  0  0  0  0  0  0
   -2.3913    1.1893   -3.6731 H   0  0  0  0  0  0  0  0  0  0  0  0
    0.6043   -1.1248   -2.7067 H   0  0  0  0  0  0  0  0  0  0  0  0
    3.0408   -2.3730   -0.4542 H   0  0  0  0  0  0  0  0  0  0  0  0
    2.7525   -1.9003   -2.1176 H   0  0  0  0  0  0  0  0  0  0  0  0
    6.4555    0.9008    0.1695 H   0  0  0  0  0  0  0  0  0  0  0  0
  1  2  1  0
  2  3  1  0
  3  4  2  0
  4  5  1  0
  5  6  1  0
  6  7  1  0
  7  8  1  0
  8  9  1  0
  9 10  1  0
  5 11  2  0
 11 12  1  0
 12 13  1  0
 11 14  1  0
 14 15  2  0
 15 16  1  0
 16 17  1  0
 17 18  2  0
 18 19  1  0
 19 20  2  0
 19 21  1  0
 21 22  1  0
 22 23  2  0
 15  3  1  0
 22 17  1  0
 10  6  1  0
  1 24  1  0
  1 25  1  0
  1 26  1  0
  4 27  1  0
  7 28  1  0
  7 29  1  0
  8 30  1  0
  8 31  1  0
  9 32  1  0
  9 33  1  0
 10 34  1  0
 10 35  1  0
 13 36  1  0
 13 37  1  0
 13 38  1  0
 14 39  1  0
 16 40  1  0
 16 41  1  0
 21 42  1  0
M  END
$$$$
