
     RDKit          3D

 56 59  0  0  0  0  0  0  0  0999 V2000
    0.2356    2.7434    1.7277 O   0  0  0  0  0  0  0  0  0  0  0  0
   -0.3894    1.8696    0.7795 C   0  0  0  0  0  0  0  0  0  0  0  0
   -1.7753    2.4185    0.4212 C   0  0  0  0  0  0  0  0  0  0  0  0
   -2.5018    1.5072   -0.4074 O   0  0  0  0  0  0  0  0  0  0  0  0
   -3.2695    0.5578    0.3398 C   0  0  0  0  0  0  0  0  0  0  0  0
   -4.6910    1.0790    0.6004 C   0  0  0  0  0  0  0  0  0  0  0  0
   -5.5365    1.1671   -0.6709 C   0  0  0  0  0  0  0  0  0  0  0  0
   -5.7854   -0.1232   -1.2377 O   0  0  0  0  0  0  0  0  0  0  0  0
   -6.1946   -1.0121   -0.2792 C   0  0  0  0  0  0  0  0  0  0  0  0
   -6.8350   -2.1659   -0.7251 C   0  0  0  0  0  0  0  0  0  0  0  0
   -7.2947   -3.1077    0.1979 C   0  0  0  0  0  0  0  0  0  0  0  0
   -7.1039   -2.8981    1.5629 C   0  0  0  0  0  0  0  0  0  0  0  0
   -6.4482   -1.7492    2.0079 C   0  0  0  0  0  0  0  0  0  0  0  0
   -5.9839   -0.8111    1.0872 C   0  0  0  0  0  0  0  0  0  0  0  0
   -5.3354    0.2792    1.6027 O   0  0  0  0  0  0  0  0  0  0  0  0
    0.5154    1.7568   -0.4684 C   0  0  0  0  0  0  0  0  0  0  0  0
    1.9057    1.3901   -0.0951 N   0  0  0  0  0  0  0  0  0  0  0  0
    2.0096   -0.0610    0.2177 C   0  0  0  0  0  0  0  0  0  0  0  0
    3.4605   -0.5246    0.5069 C   0  0  0  0  0  0  0  0  0  0  0  0
    4.3524   -0.1646   -0.6192 N   0  0  0  0  0  0  0  0  0  0  0  0
    5.6164   -0.7679   -0.5487 C   0  0  0  0  0  0  0  0  0  0  0  0
    5.7155   -2.1650   -0.6583 C   0  0  0  0  0  0  0  0  0  0  0  0
    6.9491   -2.8220   -0.6150 C   0  0  0  0  0  0  0  0  0  0  0  0
    8.1193   -2.0882   -0.4591 C   0  0  0  0  0  0  0  0  0  0  0  0
    8.0517   -0.7027   -0.3579 C   0  0  0  0  0  0  0  0  0  0  0  0
    6.8134   -0.0518   -0.4099 C   0  0  0  0  0  0  0  0  0  0  0  0
    4.2840    1.2729   -0.9438 C   0  0  0  0  0  0  0  0  0  0  0  0
    2.8202    1.6831   -1.2310 C   0  0  0  0  0  0  0  0  0  0  0  0
    1.1912    2.5380    1.6551 H   0  0  0  0  0  0  0  0  0  0  0  0
   -0.4976    0.8876    1.2527 H   0  0  0  0  0  0  0  0  0  0  0  0
   -1.6645    3.3556   -0.1378 H   0  0  0  0  0  0  0  0  0  0  0  0
   -2.3434    2.6710    1.3243 H   0  0  0  0  0  0  0  0  0  0  0  0
   -3.2979   -0.3643   -0.2465 H   0  0  0  0  0  0  0  0  0  0  0  0
   -2.7708    0.2986    1.2823 H   0  0  0  0  0  0  0  0  0  0  0  0
   -4.6216    2.0910    1.0146 H   0  0  0  0  0  0  0  0  0  0  0  0
   -6.5068    1.6374   -0.4611 H   0  0  0  0  0  0  0  0  0  0  0  0
   -5.0361    1.7746   -1.4316 H   0  0  0  0  0  0  0  0  0  0  0  0
   -6.9896   -2.3244   -1.7890 H   0  0  0  0  0  0  0  0  0  0  0  0
   -7.8088   -4.0024   -0.1468 H   0  0  0  0  0  0  0  0  0  0  0  0
   -7.4659   -3.6287    2.2825 H   0  0  0  0  0  0  0  0  0  0  0  0
   -6.3030   -1.5872    3.0704 H   0  0  0  0  0  0  0  0  0  0  0  0
    0.5424    2.7500   -0.9346 H   0  0  0  0  0  0  0  0  0  0  0  0
    0.0959    1.0608   -1.2040 H   0  0  0  0  0  0  0  0  0  0  0  0
    1.6167   -0.6536   -0.6210 H   0  0  0  0  0  0  0  0  0  0  0  0
    1.4038   -0.2963    1.1003 H   0  0  0  0  0  0  0  0  0  0  0  0
    3.8214   -0.0525    1.4315 H   0  0  0  0  0  0  0  0  0  0  0  0
    3.4363   -1.6077    0.6747 H   0  0  0  0  0  0  0  0  0  0  0  0
    4.8171   -2.7588   -0.8201 H   0  0  0  0  0  0  0  0  0  0  0  0
    6.9934   -3.9026   -0.7234 H   0  0  0  0  0  0  0  0  0  0  0  0
    9.0813   -2.5928   -0.4270 H   0  0  0  0  0  0  0  0  0  0  0  0
    8.9625   -0.1206   -0.2325 H   0  0  0  0  0  0  0  0  0  0  0  0
    6.8107    1.0296   -0.3190 H   0  0  0  0  0  0  0  0  0  0  0  0
    4.8808    1.4896   -1.8379 H   0  0  0  0  0  0  0  0  0  0  0  0
    4.6703    1.8760   -0.1111 H   0  0  0  0  0  0  0  0  0  0  0  0
    2.4720    1.1637   -2.1350 H   0  0  0  0  0  0  0  0  0  0  0  0
    2.8058    2.7587   -1.4409 H   0  0  0  0  0  0  0  0  0  0  0  0
  1  2  1  0
  2  3  1  0
  3  4  1  0
  4  5  1  0
  5  6  1  0
  6  7  1  0
  7  8  1  0
  8  9  1  0
  9 10  2  0
 10 11  1  0
 11 12  2  0
 12 13  1  0
 13 14  2  0
 14 15  1  0
  2 16  1  0
 16 17  1  0
 17 18  1  0
 18 19  1  0
 19 20  1  0
 20 21  1  0
 21 22  2  0
 22 23  1  0
 23 24  2  0
 24 25  1  0
 25 26  2  0
 20 27  1  0
 27 28  1  0
 15  6  1  0
 28 17  1  0
 14  9  1  0
 26 21  1  0
  1 29  1  0
  2 30  1  0
  3 31  1  0
  3 32  1  0
  5 33  1  0
  5 34  1  0
  6 35  1  0
  7 36  1  0
  7 37  1  0
 10 38  1  0
 11 39  1  0
 12 40  1  0
 13 41  1  0
 16 42  1  0
 16 43  1  0
 18 44  1  0
 18 45  1  0
 19 46  1  0
 19 47  1  0
 22 48  1  0
 23 49  1  0
 24 50  1  0
 25 51  1  0
 26 52  1  0
 27 53  1  0
 27 54  1  0
 28 55  1  0
 28 56  1  0
M  END
$$$$
