
     RDKit          3D

 50 51  0  0  0  0  0  0  0  0999 V2000
    5.6494    0.6560   -2.1337 C   0  0  0  0  0  0  0  0  0  0  0  0
    4.8057    0.7168   -0.8946 C   0  0  0  0  0  0  0  0  0  0  0  0
    5.3753    0.4880    0.3636 C   0  0  0  0  0  0  0  0  0  0  0  0
    4.5839    0.5148    1.5147 C   0  0  0  0  0  0  0  0  0  0  0  0
    3.2084    0.7534    1.4197 C   0  0  0  0  0  0  0  0  0  0  0  0
    2.3761    0.7826    2.6216 C   0  0  0  0  0  0  0  0  0  0  0  0
    2.0498    1.9295    3.2313 C   0  0  0  0  0  0  0  0  0  0  0  0
    1.0380    1.6616    4.6099 S   0  0  0  0  0  0  0  0  0  0  0  0
    1.0250   -0.0899    4.3207 C   0  0  0  0  0  0  0  0  0  0  0  0
    0.1501   -1.1595    5.2516 S   0  0  0  0  0  0  0  0  0  0  0  0
    1.8435   -0.3565    3.2187 N   0  0  0  0  0  0  0  0  0  0  0  0
    2.0270   -1.7009    2.6538 C   0  0  0  0  0  0  0  0  0  0  0  0
    0.9991   -2.1112    1.6034 C   0  0  0  0  0  0  0  0  0  0  0  0
    0.9944   -3.2160    1.0694 O   0  0  0  0  0  0  0  0  0  0  0  0
    0.1035   -1.1289    1.3304 O   0  0  0  0  0  0  0  0  0  0  0  0
   -0.8722   -1.4650    0.3471 C   0  0  0  0  0  0  0  0  0  0  0  0
   -1.5267   -0.2035   -0.2135 C   0  0  0  0  0  0  0  0  0  0  0  0
   -1.0508    0.9206   -0.0819 O   0  0  0  0  0  0  0  0  0  0  0  0
   -2.7041   -0.4526   -0.8973 N   0  0  0  0  0  0  0  0  0  0  0  0
   -3.4273    0.6077   -1.5919 C   0  0  0  0  0  0  0  0  0  0  0  0
   -2.8064    0.8499   -2.9697 C   0  0  0  0  0  0  0  0  0  0  0  0
   -4.9491    0.3244   -1.6694 C   0  0  0  0  0  0  0  0  0  0  0  0
   -5.3138   -0.9230   -2.4797 C   0  0  0  0  0  0  0  0  0  0  0  0
   -5.5649    0.2320   -0.2687 C   0  0  0  0  0  0  0  0  0  0  0  0
    2.6369    0.9791    0.1629 C   0  0  0  0  0  0  0  0  0  0  0  0
    3.4290    0.9521   -0.9870 C   0  0  0  0  0  0  0  0  0  0  0  0
    5.6620   -0.3648   -2.5277 H   0  0  0  0  0  0  0  0  0  0  0  0
    5.2595    1.3290   -2.9046 H   0  0  0  0  0  0  0  0  0  0  0  0
    6.6779    0.9666   -1.9221 H   0  0  0  0  0  0  0  0  0  0  0  0
    6.4413    0.2910    0.4557 H   0  0  0  0  0  0  0  0  0  0  0  0
    5.0474    0.3444    2.4839 H   0  0  0  0  0  0  0  0  0  0  0  0
    2.3544    2.9191    2.9177 H   0  0  0  0  0  0  0  0  0  0  0  0
    1.9746   -2.4366    3.4622 H   0  0  0  0  0  0  0  0  0  0  0  0
    3.0232   -1.7798    2.2087 H   0  0  0  0  0  0  0  0  0  0  0  0
   -0.4175   -1.9921   -0.5000 H   0  0  0  0  0  0  0  0  0  0  0  0
   -1.6411   -2.0898    0.8141 H   0  0  0  0  0  0  0  0  0  0  0  0
   -2.9269   -1.4121   -1.1289 H   0  0  0  0  0  0  0  0  0  0  0  0
   -3.2921    1.5306   -1.0125 H   0  0  0  0  0  0  0  0  0  0  0  0
   -3.3604    1.6170   -3.5203 H   0  0  0  0  0  0  0  0  0  0  0  0
   -1.7699    1.1916   -2.8725 H   0  0  0  0  0  0  0  0  0  0  0  0
   -2.7854   -0.0643   -3.5717 H   0  0  0  0  0  0  0  0  0  0  0  0
   -5.4174    1.1831   -2.1694 H   0  0  0  0  0  0  0  0  0  0  0  0
   -6.4018   -1.0463   -2.5216 H   0  0  0  0  0  0  0  0  0  0  0  0
   -4.9587   -0.8480   -3.5116 H   0  0  0  0  0  0  0  0  0  0  0  0
   -4.8967   -1.8333   -2.0380 H   0  0  0  0  0  0  0  0  0  0  0  0
   -6.6550    0.1440   -0.3317 H   0  0  0  0  0  0  0  0  0  0  0  0
   -5.1911   -0.6381    0.2812 H   0  0  0  0  0  0  0  0  0  0  0  0
   -5.3380    1.1292    0.3166 H   0  0  0  0  0  0  0  0  0  0  0  0
    1.5697    1.1765    0.0700 H   0  0  0  0  0  0  0  0  0  0  0  0
    2.9621    1.1218   -1.9550 H   0  0  0  0  0  0  0  0  0  0  0  0
  1  2  1  0
  2  3  2  0
  3  4  1  0
  4  5  2  0
  5  6  1  0
  6  7  2  0
  7  8  1  0
  8  9  1  0
  9 10  2  0
  9 11  1  0
 11 12  1  0
 12 13  1  0
 13 14  2  0
 13 15  1  0
 15 16  1  0
 16 17  1  0
 17 18  2  0
 17 19  1  0
 19 20  1  0
 20 21  1  0
 20 22  1  0
 22 23  1  0
 22 24  1  0
  5 25  1  0
 25 26  2  0
 26  2  1  0
 11  6  1  0
  1 27  1  0
  1 28  1  0
  1 29  1  0
  3 30  1  0
  4 31  1  0
  7 32  1  0
 12 33  1  0
 12 34  1  0
 16 35  1  0
 16 36  1  0
 19 37  1  0
 20 38  1  0
 21 39  1  0
 21 40  1  0
 21 41  1  0
 22 42  1  0
 23 43  1  0
 23 44  1  0
 23 45  1  0
 24 46  1  0
 24 47  1  0
 24 48  1  0
 25 49  1  0
 26 50  1  0
M  END
$$$$
