
     RDKit          3D

 44 45  0  0  0  0  0  0  0  0999 V2000
    7.4722   -1.0762   -0.7341 C   0  0  0  0  0  0  0  0  0  0  0  0
    6.0111   -0.9732   -0.3930 C   0  0  0  0  0  0  0  0  0  0  0  0
    5.1452   -2.0397   -0.6796 C   0  0  0  0  0  0  0  0  0  0  0  0
    3.7797   -1.9510   -0.3860 C   0  0  0  0  0  0  0  0  0  0  0  0
    3.2589   -0.7872    0.1960 C   0  0  0  0  0  0  0  0  0  0  0  0
    1.9096   -0.7108    0.4128 O   0  0  0  0  0  0  0  0  0  0  0  0
    1.5249   -1.5050    1.5481 C   0  0  0  0  0  0  0  0  0  0  0  0
    0.0121   -1.4563    1.7454 C   0  0  0  0  0  0  0  0  0  0  0  0
   -0.5962   -2.4307    2.1832 O   0  0  0  0  0  0  0  0  0  0  0  0
   -0.5480   -0.2364    1.4130 N   0  0  0  0  0  0  0  0  0  0  0  0
   -1.9061    0.0100    1.3956 C   0  0  0  0  0  0  0  0  0  0  0  0
   -3.0039   -0.8163    1.7154 C   0  0  0  0  0  0  0  0  0  0  0  0
   -4.1785   -0.2107    1.5148 N   0  0  0  0  0  0  0  0  0  0  0  0
   -3.8283    1.0088    1.0708 N   0  0  0  0  0  0  0  0  0  0  0  0
   -4.8627    1.9397    0.6633 C   0  0  0  0  0  0  0  0  0  0  0  0
   -5.0311    2.0114   -0.8538 C   0  0  0  0  0  0  0  0  0  0  0  0
   -5.5433    0.7044   -1.4641 C   0  0  0  0  0  0  0  0  0  0  0  0
   -5.6418    0.8154   -2.9587 C   0  0  0  0  0  0  0  0  0  0  0  0
   -5.7502    1.8415   -3.6127 O   0  0  0  0  0  0  0  0  0  0  0  0
   -5.6082   -0.3829   -3.5676 O   0  0  0  0  0  0  0  0  0  0  0  0
   -2.4756    1.1963    0.9924 C   0  0  0  0  0  0  0  0  0  0  0  0
    4.1105    0.2962    0.4435 C   0  0  0  0  0  0  0  0  0  0  0  0
    3.5917    1.5388    1.0044 N   0  0  0  0  0  4  0  0  0  0  0  0
    4.1030    2.5946    0.6090 O   0  0  0  0  0  0  0  0  0  0  0  0
    2.6955    1.4679    1.8572 O   0  0  0  0  0  1  0  0  0  0  0  0
    5.4850    0.2068    0.1588 C   0  0  0  0  0  0  0  0  0  0  0  0
    7.6369   -0.7747   -1.7747 H   0  0  0  0  0  0  0  0  0  0  0  0
    8.0721   -0.4344   -0.0801 H   0  0  0  0  0  0  0  0  0  0  0  0
    7.8322   -2.1021   -0.6018 H   0  0  0  0  0  0  0  0  0  0  0  0
    5.5296   -2.9481   -1.1404 H   0  0  0  0  0  0  0  0  0  0  0  0
    3.1246   -2.7844   -0.6365 H   0  0  0  0  0  0  0  0  0  0  0  0
    1.9960   -1.1257    2.4662 H   0  0  0  0  0  0  0  0  0  0  0  0
    1.7966   -2.5589    1.3924 H   0  0  0  0  0  0  0  0  0  0  0  0
    0.0705    0.5002    1.0888 H   0  0  0  0  0  0  0  0  0  0  0  0
   -3.0004   -1.8417    2.0728 H   0  0  0  0  0  0  0  0  0  0  0  0
   -5.8008    1.6404    1.1492 H   0  0  0  0  0  0  0  0  0  0  0  0
   -4.5768    2.9246    1.0576 H   0  0  0  0  0  0  0  0  0  0  0  0
   -4.0787    2.2820   -1.3253 H   0  0  0  0  0  0  0  0  0  0  0  0
   -5.7346    2.8192   -1.0890 H   0  0  0  0  0  0  0  0  0  0  0  0
   -6.5327    0.4506   -1.0692 H   0  0  0  0  0  0  0  0  0  0  0  0
   -4.8493   -0.1111   -1.2340 H   0  0  0  0  0  0  0  0  0  0  0  0
   -5.7020   -0.1613   -4.5201 H   0  0  0  0  0  0  0  0  0  0  0  0
   -2.0494    2.1199    0.6356 H   0  0  0  0  0  0  0  0  0  0  0  0
    6.1408    1.0498    0.3715 H   0  0  0  0  0  0  0  0  0  0  0  0
  1  2  1  0
  2  3  2  0
  3  4  1  0
  4  5  2  0
  5  6  1  0
  6  7  1  0
  7  8  1  0
  8  9  2  0
  8 10  1  0
 10 11  1  0
 11 12  1  0
 12 13  2  0
 13 14  1  0
 14 15  1  0
 15 16  1  0
 16 17  1  0
 17 18  1  0
 18 19  2  0
 18 20  1  0
 14 21  1  0
  5 22  1  0
 22 23  1  0
 23 24  2  0
 23 25  1  0
 22 26  2  0
 26  2  1  0
 21 11  2  0
  1 27  1  0
  1 28  1  0
  1 29  1  0
  3 30  1  0
  4 31  1  0
  7 32  1  0
  7 33  1  0
 10 34  1  0
 12 35  1  0
 15 36  1  0
 15 37  1  0
 16 38  1  0
 16 39  1  0
 17 40  1  0
 17 41  1  0
 20 42  1  0
 21 43  1  0
 26 44  1  0
M  CHG  2  23   1  25  -1
M  END
$$$$
