
     RDKit          3D

 49 51  0  0  0  0  0  0  0  0999 V2000
    6.1616    2.7259    0.8472 C   0  0  0  0  0  0  0  0  0  0  0  0
    5.7489    1.3703    0.7570 O   0  0  0  0  0  0  0  0  0  0  0  0
    4.4991    1.1161    0.2475 C   0  0  0  0  0  0  0  0  0  0  0  0
    3.6255    2.0984   -0.2314 C   0  0  0  0  0  0  0  0  0  0  0  0
    2.3667    1.7513   -0.7455 C   0  0  0  0  0  0  0  0  0  0  0  0
    1.9621    0.4052   -0.7563 C   0  0  0  0  0  0  0  0  0  0  0  0
    2.8450   -0.5795   -0.2814 C   0  0  0  0  0  0  0  0  0  0  0  0
    4.1058   -0.2357    0.2208 C   0  0  0  0  0  0  0  0  0  0  0  0
    5.0216   -1.1393    0.7013 O   0  0  0  0  0  0  0  0  0  0  0  0
    4.6263   -2.5002    0.7872 C   0  0  0  0  0  0  0  0  0  0  0  0
    0.6095   -0.0184   -1.2982 C   0  0  0  0  0  0  0  0  0  0  0  0
   -0.2909    1.1113   -1.5701 N   0  0  0  0  0  0  0  0  0  0  0  0
   -1.5951    1.1731   -1.0383 C   0  0  0  0  0  0  0  0  0  0  0  0
   -2.4318    2.6118   -0.7912 S   0  0  0  0  0  0  0  0  0  0  0  0
   -2.1297   -0.0938   -0.8337 N   0  0  0  0  0  0  0  0  0  0  0  0
   -3.1808   -0.5279    0.0098 C   0  0  0  0  0  0  0  0  0  0  0  0
   -3.4900    0.1358    1.2017 C   0  0  0  0  0  0  0  0  0  0  0  0
   -4.4980   -0.3340    2.0484 C   0  0  0  0  0  0  0  0  0  0  0  0
   -5.1999   -1.4976    1.7349 C   0  0  0  0  0  0  0  0  0  0  0  0
   -6.3055   -1.9842    2.6235 C   0  0  0  0  0  0  0  0  0  0  0  0
   -4.8877   -2.1750    0.5515 C   0  0  0  0  0  0  0  0  0  0  0  0
   -3.8769   -1.7116   -0.3122 C   0  0  0  0  0  0  0  0  0  0  0  0
   -3.5923   -2.4975   -1.5639 C   0  0  0  0  0  0  0  0  0  0  0  0
    0.3865    2.2593   -2.1873 C   0  0  0  0  0  0  0  0  0  0  0  0
    1.4337    2.8336   -1.2365 C   0  0  0  0  0  0  0  0  0  0  0  0
    5.4978    3.2995    1.5025 H   0  0  0  0  0  0  0  0  0  0  0  0
    6.2326    3.1836   -0.1449 H   0  0  0  0  0  0  0  0  0  0  0  0
    7.1613    2.7422    1.2919 H   0  0  0  0  0  0  0  0  0  0  0  0
    3.9009    3.1481   -0.2179 H   0  0  0  0  0  0  0  0  0  0  0  0
    2.5218   -1.6151   -0.3123 H   0  0  0  0  0  0  0  0  0  0  0  0
    3.7542   -2.6201    1.4384 H   0  0  0  0  0  0  0  0  0  0  0  0
    5.4530   -3.0613    1.2333 H   0  0  0  0  0  0  0  0  0  0  0  0
    4.4396   -2.9192   -0.2070 H   0  0  0  0  0  0  0  0  0  0  0  0
    0.7570   -0.5427   -2.2496 H   0  0  0  0  0  0  0  0  0  0  0  0
    0.1582   -0.7113   -0.5814 H   0  0  0  0  0  0  0  0  0  0  0  0
   -1.8593   -0.7433   -1.5577 H   0  0  0  0  0  0  0  0  0  0  0  0
   -2.9346    1.0131    1.5189 H   0  0  0  0  0  0  0  0  0  0  0  0
   -4.7195    0.2153    2.9607 H   0  0  0  0  0  0  0  0  0  0  0  0
   -7.2598   -1.5557    2.3022 H   0  0  0  0  0  0  0  0  0  0  0  0
   -6.1240   -1.7012    3.6657 H   0  0  0  0  0  0  0  0  0  0  0  0
   -6.3788   -3.0764    2.5924 H   0  0  0  0  0  0  0  0  0  0  0  0
   -5.4417   -3.0774    0.2976 H   0  0  0  0  0  0  0  0  0  0  0  0
   -3.7028   -1.8604   -2.4475 H   0  0  0  0  0  0  0  0  0  0  0  0
   -4.2850   -3.3377   -1.6810 H   0  0  0  0  0  0  0  0  0  0  0  0
   -2.5782   -2.9084   -1.5306 H   0  0  0  0  0  0  0  0  0  0  0  0
    0.8637    1.8932   -3.1061 H   0  0  0  0  0  0  0  0  0  0  0  0
   -0.3183    3.0354   -2.4957 H   0  0  0  0  0  0  0  0  0  0  0  0
    2.0004    3.6128   -1.7589 H   0  0  0  0  0  0  0  0  0  0  0  0
    0.9481    3.2894   -0.3656 H   0  0  0  0  0  0  0  0  0  0  0  0
  1  2  1  0
  2  3  1  0
  3  4  2  0
  4  5  1  0
  5  6  2  0
  6  7  1  0
  7  8  2  0
  8  9  1  0
  9 10  1  0
  6 11  1  0
 11 12  1  0
 12 13  1  0
 13 14  2  0
 13 15  1  0
 15 16  1  0
 16 17  2  0
 17 18  1  0
 18 19  2  0
 19 20  1  0
 19 21  1  0
 21 22  2  0
 22 23  1  0
 12 24  1  0
 24 25  1  0
  8  3  1  0
 22 16  1  0
 25  5  1  0
  1 26  1  0
  1 27  1  0
  1 28  1  0
  4 29  1  0
  7 30  1  0
 10 31  1  0
 10 32  1  0
 10 33  1  0
 11 34  1  0
 11 35  1  0
 15 36  1  0
 17 37  1  0
 18 38  1  0
 20 39  1  0
 20 40  1  0
 20 41  1  0
 21 42  1  0
 23 43  1  0
 23 44  1  0
 23 45  1  0
 24 46  1  0
 24 47  1  0
 25 48  1  0
 25 49  1  0
M  END
$$$$
