
     RDKit          3D

 71 76  0  0  0  0  0  0  0  0999 V2000
    9.5092    1.5263    1.8158 C   0  0  0  0  0  0  0  0  0  0  0  0
    9.8304    1.4472    0.4317 O   0  0  0  0  0  0  0  0  0  0  0  0
    8.8917    0.8890   -0.3950 C   0  0  0  0  0  0  0  0  0  0  0  0
    9.2631    0.8239   -1.7349 C   0  0  0  0  0  0  0  0  0  0  0  0
    8.3830    0.3010   -2.6757 C   0  0  0  0  0  0  0  0  0  0  0  0
    7.1308   -0.1738   -2.2722 C   0  0  0  0  0  0  0  0  0  0  0  0
    6.7151   -0.1338   -0.9303 C   0  0  0  0  0  0  0  0  0  0  0  0
    5.4637   -0.5918   -0.5340 N   0  0  0  0  0  0  0  0  0  0  0  0
    5.1829   -0.8993    0.8822 C   0  0  0  0  0  0  0  0  0  0  0  0
    3.9619   -1.8217    1.0387 C   0  0  0  0  0  0  0  0  0  0  0  0
    2.7651   -1.2556    0.4098 N   0  0  0  0  0  0  0  0  0  0  0  0
    1.5380   -1.4002    1.0432 C   0  0  0  0  0  0  0  0  0  0  0  0
    1.4319   -2.0352    2.0944 O   0  0  0  0  0  0  0  0  0  0  0  0
    0.3298   -0.6931    0.4285 C   0  0  0  0  0  0  0  0  0  0  0  0
    0.4248    0.8326    0.6259 C   0  0  0  0  0  0  0  0  0  0  0  0
   -0.7807    1.4139    1.3585 C   0  0  0  0  0  0  0  0  0  0  0  0
   -2.0995    0.9479    0.7392 C   0  0  0  0  0  0  0  0  0  0  0  0
   -2.1075   -0.5002    0.5161 N   0  0  0  0  0  0  0  0  0  0  0  0
   -3.3596   -1.1274    0.5065 C   0  0  0  0  0  0  0  0  0  0  0  0
   -3.4422   -2.4560    0.8160 N   0  0  0  0  0  0  0  0  0  0  0  0
   -4.6385   -3.0753    0.7866 C   0  0  0  0  0  0  0  0  0  0  0  0
   -5.8415   -2.5533    0.4913 N   0  0  0  0  0  0  0  0  0  0  0  0
   -5.7346   -1.2493    0.1842 C   0  0  0  0  0  0  0  0  0  0  0  0
   -4.5811   -0.4844    0.1565 C   0  0  0  0  0  0  0  0  0  0  0  0
   -4.8873    0.8131   -0.2269 N   0  0  0  0  0  0  0  0  0  0  0  0
   -6.1979    0.8506   -0.3883 C   0  0  0  0  0  0  0  0  0  0  0  0
   -6.7516   -0.3934   -0.1565 N   0  0  0  0  0  0  0  0  0  0  0  0
   -8.1549   -0.7636   -0.1963 C   0  0  0  0  0  0  0  0  0  0  0  0
   -9.0665    0.2678    0.4572 C   0  0  0  0  0  0  0  0  0  0  0  0
   -9.4069    1.4461   -0.4546 C   0  0  0  0  0  0  0  0  0  0  0  0
   -8.2940    1.8935   -1.4061 C   0  0  0  0  0  0  0  0  0  0  0  0
   -6.9490    2.1005   -0.7195 C   0  0  0  0  0  0  0  0  0  0  0  0
   -0.9687   -1.2788    1.0105 C   0  0  0  0  0  0  0  0  0  0  0  0
    2.9843   -0.5693   -0.8683 C   0  0  0  0  0  0  0  0  0  0  0  0
    4.3741   -0.8145   -1.4995 C   0  0  0  0  0  0  0  0  0  0  0  0
    7.6325    0.4120   -0.0073 C   0  0  0  0  0  0  0  0  0  0  0  0
    8.6305    2.1584    1.9800 H   0  0  0  0  0  0  0  0  0  0  0  0
   10.3540    1.9986    2.3274 H   0  0  0  0  0  0  0  0  0  0  0  0
    9.3713    0.5264    2.2455 H   0  0  0  0  0  0  0  0  0  0  0  0
   10.2380    1.1888   -2.0457 H   0  0  0  0  0  0  0  0  0  0  0  0
    8.6712    0.2539   -3.7226 H   0  0  0  0  0  0  0  0  0  0  0  0
    6.4922   -0.5899   -3.0444 H   0  0  0  0  0  0  0  0  0  0  0  0
    6.0387   -1.4008    1.3463 H   0  0  0  0  0  0  0  0  0  0  0  0
    4.9911    0.0416    1.4170 H   0  0  0  0  0  0  0  0  0  0  0  0
    4.1505   -2.7897    0.5566 H   0  0  0  0  0  0  0  0  0  0  0  0
    3.7897   -2.0149    2.1001 H   0  0  0  0  0  0  0  0  0  0  0  0
    0.3141   -0.9091   -0.6449 H   0  0  0  0  0  0  0  0  0  0  0  0
    0.4918    1.3103   -0.3598 H   0  0  0  0  0  0  0  0  0  0  0  0
    1.3347    1.1115    1.1724 H   0  0  0  0  0  0  0  0  0  0  0  0
   -0.7449    1.1117    2.4132 H   0  0  0  0  0  0  0  0  0  0  0  0
   -0.7288    2.5097    1.3534 H   0  0  0  0  0  0  0  0  0  0  0  0
   -2.2391    1.4521   -0.2264 H   0  0  0  0  0  0  0  0  0  0  0  0
   -2.9048    1.2617    1.4135 H   0  0  0  0  0  0  0  0  0  0  0  0
   -4.6280   -4.1348    1.0192 H   0  0  0  0  0  0  0  0  0  0  0  0
   -8.2709   -1.7149    0.3262 H   0  0  0  0  0  0  0  0  0  0  0  0
   -8.4137   -0.9300   -1.2436 H   0  0  0  0  0  0  0  0  0  0  0  0
   -8.6124    0.6438    1.3821 H   0  0  0  0  0  0  0  0  0  0  0  0
  -10.0026   -0.2139    0.7534 H   0  0  0  0  0  0  0  0  0  0  0  0
  -10.2843    1.1926   -1.0577 H   0  0  0  0  0  0  0  0  0  0  0  0
   -9.7060    2.2956    0.1746 H   0  0  0  0  0  0  0  0  0  0  0  0
   -8.6070    2.8421   -1.8545 H   0  0  0  0  0  0  0  0  0  0  0  0
   -8.1958    1.1847   -2.2387 H   0  0  0  0  0  0  0  0  0  0  0  0
   -7.0752    2.6965    0.1950 H   0  0  0  0  0  0  0  0  0  0  0  0
   -6.3130    2.6966   -1.3936 H   0  0  0  0  0  0  0  0  0  0  0  0
   -0.9704   -1.2753    2.1082 H   0  0  0  0  0  0  0  0  0  0  0  0
   -1.0259   -2.3302    0.6918 H   0  0  0  0  0  0  0  0  0  0  0  0
    2.2121   -0.8758   -1.5776 H   0  0  0  0  0  0  0  0  0  0  0  0
    2.8593    0.5032   -0.6831 H   0  0  0  0  0  0  0  0  0  0  0  0
    4.4544   -0.1395   -2.3590 H   0  0  0  0  0  0  0  0  0  0  0  0
    4.4355   -1.8418   -1.8743 H   0  0  0  0  0  0  0  0  0  0  0  0
    7.3433    0.4852    1.0347 H   0  0  0  0  0  0  0  0  0  0  0  0
  1  2  1  0
  2  3  1  0
  3  4  2  0
  4  5  1  0
  5  6  2  0
  6  7  1  0
  7  8  1  0
  8  9  1  0
  9 10  1  0
 10 11  1  0
 11 12  1  0
 12 13  2  0
 12 14  1  0
 14 15  1  0
 15 16  1  0
 16 17  1  0
 17 18  1  0
 18 19  1  0
 19 20  2  0
 20 21  1  0
 21 22  2  0
 22 23  1  0
 23 24  2  0
 24 25  1  0
 25 26  2  0
 26 27  1  0
 27 28  1  0
 28 29  1  0
 29 30  1  0
 30 31  1  0
 31 32  1  0
 18 33  1  0
 11 34  1  0
 34 35  1  0
  7 36  2  0
 36  3  1  0
 35  8  1  0
 33 14  1  0
 24 19  1  0
 32 26  1  0
 27 23  1  0
  1 37  1  0
  1 38  1  0
  1 39  1  0
  4 40  1  0
  5 41  1  0
  6 42  1  0
  9 43  1  0
  9 44  1  0
 10 45  1  0
 10 46  1  0
 14 47  1  0
 15 48  1  0
 15 49  1  0
 16 50  1  0
 16 51  1  0
 17 52  1  0
 17 53  1  0
 21 54  1  0
 28 55  1  0
 28 56  1  0
 29 57  1  0
 29 58  1  0
 30 59  1  0
 30 60  1  0
 31 61  1  0
 31 62  1  0
 32 63  1  0
 32 64  1  0
 33 65  1  0
 33 66  1  0
 34 67  1  0
 34 68  1  0
 35 69  1  0
 35 70  1  0
 36 71  1  0
M  END
$$$$
