
     RDKit          3D

 45 47  0  0  0  0  0  0  0  0999 V2000
   -1.9976    1.3093    3.1992 C   0  0  0  0  0  0  0  0  0  0  0  0
   -2.0631    0.6646    1.9339 O   0  0  0  0  0  0  0  0  0  0  0  0
   -3.3047    0.5317    1.3568 C   0  0  0  0  0  0  0  0  0  0  0  0
   -4.5033    0.9755    1.9215 C   0  0  0  0  0  0  0  0  0  0  0  0
   -5.7080    0.7846    1.2421 C   0  0  0  0  0  0  0  0  0  0  0  0
   -5.7189    0.1518    0.0013 C   0  0  0  0  0  0  0  0  0  0  0  0
   -4.5257   -0.2952   -0.5705 C   0  0  0  0  0  0  0  0  0  0  0  0
   -3.3150   -0.1099    0.0985 C   0  0  0  0  0  0  0  0  0  0  0  0
   -2.0641   -0.5305   -0.4066 N   0  0  0  0  0  0  0  0  0  0  0  0
   -1.7895   -1.1708   -1.5944 C   0  0  0  0  0  0  0  0  0  0  0  0
   -2.6075   -1.4938   -2.4520 O   0  0  0  0  0  0  0  0  0  0  0  0
   -0.3104   -1.4806   -1.8101 C   0  0  0  0  0  0  0  0  0  0  0  0
    0.5217   -0.1966   -1.8975 C   0  0  0  0  0  0  0  0  0  0  0  0
    2.0142   -0.4891   -1.9869 C   0  0  0  0  0  0  0  0  0  0  0  0
    2.4661   -1.4234   -0.9260 N   0  0  0  0  0  0  0  0  0  0  0  0
    2.7943   -0.7661    0.6158 S   0  0  0  0  0  6  0  0  0  0  0  0
    3.3123   -1.8274    1.4516 O   0  0  0  0  0  0  0  0  0  0  0  0
    1.6470    0.0223    1.0117 O   0  0  0  0  0  0  0  0  0  0  0  0
    4.1628    0.3553    0.4240 C   0  0  0  0  0  0  0  0  0  0  0  0
    5.2258    0.3694   -0.4604 C   0  0  0  0  0  0  0  0  0  0  0  0
    6.1044    1.4682   -0.2352 C   0  0  0  0  0  0  0  0  0  0  0  0
    5.6898    2.2480    0.8215 C   0  0  0  0  0  0  0  0  0  0  0  0
    4.2543    1.6509    1.5366 S   0  0  0  0  0  0  0  0  0  0  0  0
    1.7072   -2.6981   -0.9323 C   0  0  0  0  0  0  0  0  0  0  0  0
    0.2192   -2.4439   -0.7419 C   0  0  0  0  0  0  0  0  0  0  0  0
   -0.9480    1.3329    3.5077 H   0  0  0  0  0  0  0  0  0  0  0  0
   -2.5549    0.7486    3.9567 H   0  0  0  0  0  0  0  0  0  0  0  0
   -2.3487    2.3443    3.1333 H   0  0  0  0  0  0  0  0  0  0  0  0
   -4.5353    1.4714    2.8854 H   0  0  0  0  0  0  0  0  0  0  0  0
   -6.6405    1.1297    1.6819 H   0  0  0  0  0  0  0  0  0  0  0  0
   -6.6575    0.0030   -0.5269 H   0  0  0  0  0  0  0  0  0  0  0  0
   -4.5737   -0.7842   -1.5379 H   0  0  0  0  0  0  0  0  0  0  0  0
   -1.2929   -0.3076    0.2201 H   0  0  0  0  0  0  0  0  0  0  0  0
   -0.2362   -1.9899   -2.7817 H   0  0  0  0  0  0  0  0  0  0  0  0
    0.3249    0.4577   -1.0427 H   0  0  0  0  0  0  0  0  0  0  0  0
    0.2128    0.3790   -2.7793 H   0  0  0  0  0  0  0  0  0  0  0  0
    2.2472   -0.9436   -2.9580 H   0  0  0  0  0  0  0  0  0  0  0  0
    2.5842    0.4444   -1.9488 H   0  0  0  0  0  0  0  0  0  0  0  0
    5.3605   -0.3827   -1.2286 H   0  0  0  0  0  0  0  0  0  0  0  0
    6.9987    1.6723   -0.8121 H   0  0  0  0  0  0  0  0  0  0  0  0
    6.1636    3.1367    1.2164 H   0  0  0  0  0  0  0  0  0  0  0  0
    1.8871   -3.2020   -1.8901 H   0  0  0  0  0  0  0  0  0  0  0  0
    2.0841   -3.3781   -0.1616 H   0  0  0  0  0  0  0  0  0  0  0  0
   -0.3255   -3.3941   -0.8007 H   0  0  0  0  0  0  0  0  0  0  0  0
    0.0388   -2.0540    0.2660 H   0  0  0  0  0  0  0  0  0  0  0  0
  1  2  1  0
  2  3  1  0
  3  4  2  0
  4  5  1  0
  5  6  2  0
  6  7  1  0
  7  8  2  0
  8  9  1  0
  9 10  1  0
 10 11  2  0
 10 12  1  0
 12 13  1  0
 13 14  1  0
 14 15  1  0
 15 16  1  0
 16 17  2  0
 16 18  2  0
 16 19  1  0
 19 20  2  0
 20 21  1  0
 21 22  2  0
 22 23  1  0
 15 24  1  0
 24 25  1  0
  8  3  1  0
 25 12  1  0
 23 19  1  0
  1 26  1  0
  1 27  1  0
  1 28  1  0
  4 29  1  0
  5 30  1  0
  6 31  1  0
  7 32  1  0
  9 33  1  0
 12 34  1  0
 13 35  1  0
 13 36  1  0
 14 37  1  0
 14 38  1  0
 20 39  1  0
 21 40  1  0
 22 41  1  0
 24 42  1  0
 24 43  1  0
 25 44  1  0
 25 45  1  0
M  END
$$$$
