
     RDKit          3D

 40 42  0  0  0  0  0  0  0  0999 V2000
    5.3923    2.7409   -2.0183 C   0  0  0  0  0  0  0  0  0  0  0  0
    6.0221    1.6662   -1.3338 O   0  0  0  0  0  0  0  0  0  0  0  0
    5.2071    0.7455   -0.7340 C   0  0  0  0  0  0  0  0  0  0  0  0
    5.8805   -0.2724   -0.0588 C   0  0  0  0  0  0  0  0  0  0  0  0
    5.1686   -1.2758    0.5948 C   0  0  0  0  0  0  0  0  0  0  0  0
    3.7726   -1.2680    0.5782 C   0  0  0  0  0  0  0  0  0  0  0  0
    3.0813   -0.2566   -0.0898 C   0  0  0  0  0  0  0  0  0  0  0  0
    1.6726   -0.1830   -0.1593 N   0  0  0  0  0  0  0  0  0  0  0  0
    0.7559   -1.0045    0.4728 C   0  0  0  0  0  0  0  0  0  0  0  0
    0.9969   -1.9046    1.2674 O   0  0  0  0  0  0  0  0  0  0  0  0
   -0.6692   -0.7008    0.1599 C   0  0  0  0  0  0  0  0  0  0  0  0
   -1.0737   -0.3194   -1.1233 C   0  0  0  0  0  0  0  0  0  0  0  0
   -2.4182   -0.0373   -1.3726 C   0  0  0  0  0  0  0  0  0  0  0  0
   -3.3732   -0.1354   -0.3489 C   0  0  0  0  0  0  0  0  0  0  0  0
   -2.9750   -0.5574    0.9328 C   0  0  0  0  0  0  0  0  0  0  0  0
   -1.6202   -0.8304    1.1785 C   0  0  0  0  0  0  0  0  0  0  0  0
   -3.9614   -0.6711    2.0699 C   0  0  0  0  0  0  0  0  0  0  0  0
   -5.4150   -0.7246    1.6041 C   0  0  0  0  0  0  0  0  0  0  0  0
   -5.6838    0.3629    0.5721 C   0  0  0  0  0  0  0  0  0  0  0  0
   -4.8221    0.1442   -0.6699 C   0  0  0  0  0  0  0  0  0  0  0  0
    3.8092    0.7485   -0.7487 C   0  0  0  0  0  0  0  0  0  0  0  0
    4.7918    2.3757   -2.8580 H   0  0  0  0  0  0  0  0  0  0  0  0
    4.7887    3.3458   -1.3335 H   0  0  0  0  0  0  0  0  0  0  0  0
    6.1779    3.3842   -2.4261 H   0  0  0  0  0  0  0  0  0  0  0  0
    6.9675   -0.2839   -0.0420 H   0  0  0  0  0  0  0  0  0  0  0  0
    5.6985   -2.0672    1.1183 H   0  0  0  0  0  0  0  0  0  0  0  0
    3.2545   -2.0705    1.0938 H   0  0  0  0  0  0  0  0  0  0  0  0
    1.2987    0.6020   -0.6754 H   0  0  0  0  0  0  0  0  0  0  0  0
   -0.3641   -0.2682   -1.9442 H   0  0  0  0  0  0  0  0  0  0  0  0
   -2.7244    0.2496   -2.3769 H   0  0  0  0  0  0  0  0  0  0  0  0
   -1.3002   -1.1456    2.1709 H   0  0  0  0  0  0  0  0  0  0  0  0
   -3.8232    0.1973    2.7263 H   0  0  0  0  0  0  0  0  0  0  0  0
   -3.7480   -1.5700    2.6605 H   0  0  0  0  0  0  0  0  0  0  0  0
   -5.6312   -1.7075    1.1665 H   0  0  0  0  0  0  0  0  0  0  0  0
   -6.0818   -0.6027    2.4651 H   0  0  0  0  0  0  0  0  0  0  0  0
   -5.4670    1.3459    1.0092 H   0  0  0  0  0  0  0  0  0  0  0  0
   -6.7426    0.3632    0.2897 H   0  0  0  0  0  0  0  0  0  0  0  0
   -5.2145   -0.7092   -1.2372 H   0  0  0  0  0  0  0  0  0  0  0  0
   -4.8970    1.0308   -1.3108 H   0  0  0  0  0  0  0  0  0  0  0  0
    3.2691    1.5309   -1.2692 H   0  0  0  0  0  0  0  0  0  0  0  0
  1  2  1  0
  2  3  1  0
  3  4  2  0
  4  5  1  0
  5  6  2  0
  6  7  1  0
  7  8  1  0
  8  9  1  0
  9 10  2  0
  9 11  1  0
 11 12  2  0
 12 13  1  0
 13 14  2  0
 14 15  1  0
 15 16  2  0
 15 17  1  0
 17 18  1  0
 18 19  1  0
 19 20  1  0
  7 21  2  0
 21  3  1  0
 16 11  1  0
 20 14  1  0
  1 22  1  0
  1 23  1  0
  1 24  1  0
  4 25  1  0
  5 26  1  0
  6 27  1  0
  8 28  1  0
 12 29  1  0
 13 30  1  0
 16 31  1  0
 17 32  1  0
 17 33  1  0
 18 34  1  0
 18 35  1  0
 19 36  1  0
 19 37  1  0
 20 38  1  0
 20 39  1  0
 21 40  1  0
M  END
$$$$
