
     RDKit          3D

 59 63  0  0  0  0  0  0  0  0999 V2000
   -2.2507   -5.1711   -0.4271 C   0  0  0  0  0  0  0  0  0  0  0  0
   -2.4169   -3.8145    0.1896 C   0  0  0  0  0  0  0  0  0  0  0  0
   -1.7767   -3.4883    1.3896 C   0  0  0  0  0  0  0  0  0  0  0  0
   -1.9241   -2.2155    1.9476 C   0  0  0  0  0  0  0  0  0  0  0  0
   -2.7190   -1.2479    1.3200 C   0  0  0  0  0  0  0  0  0  0  0  0
   -2.8429    0.1375    1.9009 C   0  0  0  0  0  0  0  0  0  0  0  0
   -1.8931    1.0189    1.2661 N   0  0  0  0  0  0  0  0  0  0  0  0
   -2.2618    1.9792    0.3583 C   0  0  0  0  0  0  0  0  0  0  0  0
   -3.4306    2.2897    0.1576 O   0  0  0  0  0  0  0  0  0  0  0  0
   -1.1611    2.6077   -0.3281 C   0  0  0  0  0  0  0  0  0  0  0  0
   -0.9632    3.9549   -0.5649 C   0  0  0  0  0  0  0  0  0  0  0  0
    0.2594    4.0686   -1.2781 C   0  0  0  0  0  0  0  0  0  0  0  0
    0.9381    5.2878   -1.7332 C   0  0  0  0  0  0  0  0  0  0  0  0
    2.2724    5.2374   -2.1668 C   0  0  0  0  0  0  0  0  0  0  0  0
    2.9334    6.3916   -2.5928 C   0  0  0  0  0  0  0  0  0  0  0  0
    2.2673    7.6139   -2.5928 C   0  0  0  0  0  0  0  0  0  0  0  0
    0.9418    7.6824   -2.1702 C   0  0  0  0  0  0  0  0  0  0  0  0
    0.2804    6.5268   -1.7432 C   0  0  0  0  0  0  0  0  0  0  0  0
    0.7701    2.8476   -1.5092 N   0  0  0  0  0  0  0  0  0  0  0  0
   -0.1158    1.9923   -0.9652 N   0  0  0  0  0  0  0  0  0  0  0  0
    0.0827    0.5706   -1.1906 C   0  0  0  0  0  0  0  0  0  0  0  0
    1.1871    0.0053   -0.3092 C   0  0  0  0  0  0  0  0  0  0  0  0
    1.3796   -1.4789   -0.5321 C   0  0  0  0  0  0  0  0  0  0  0  0
    1.5999   -1.8987    0.8791 C   0  0  0  0  0  0  0  0  0  0  0  0
    2.0805   -3.2486    1.2273 C   0  0  0  0  0  0  0  0  0  0  0  0
    2.3996   -4.2059    0.2624 C   0  0  0  0  0  0  0  0  0  0  0  0
    2.8245   -5.4702    0.6684 C   0  0  0  0  0  0  0  0  0  0  0  0
    2.9086   -5.7351    2.0262 C   0  0  0  0  0  0  0  0  0  0  0  0
    2.6026   -4.8335    2.9839 N   0  0  0  0  0  0  0  0  0  0  0  0
    2.2003   -3.6082    2.5646 C   0  0  0  0  0  0  0  0  0  0  0  0
    1.2916   -1.0064    1.7653 N   0  0  0  0  0  0  0  0  0  0  0  0
    0.8172    0.1268    1.0746 O   0  0  0  0  0  0  0  0  0  0  0  0
   -3.3488   -1.5721    0.1115 C   0  0  0  0  0  0  0  0  0  0  0  0
   -3.1968   -2.8425   -0.4496 C   0  0  0  0  0  0  0  0  0  0  0  0
   -3.2206   -5.5609   -0.7551 H   0  0  0  0  0  0  0  0  0  0  0  0
   -1.5740   -5.1125   -1.2871 H   0  0  0  0  0  0  0  0  0  0  0  0
   -1.8342   -5.8834    0.2926 H   0  0  0  0  0  0  0  0  0  0  0  0
   -1.1570   -4.2210    1.9003 H   0  0  0  0  0  0  0  0  0  0  0  0
   -1.3983   -1.9816    2.8706 H   0  0  0  0  0  0  0  0  0  0  0  0
   -3.8683    0.5071    1.7873 H   0  0  0  0  0  0  0  0  0  0  0  0
   -2.6174    0.1252    2.9735 H   0  0  0  0  0  0  0  0  0  0  0  0
   -0.9119    0.8442    1.4546 H   0  0  0  0  0  0  0  0  0  0  0  0
   -1.6166    4.7480   -0.2310 H   0  0  0  0  0  0  0  0  0  0  0  0
    2.8095    4.2915   -2.1696 H   0  0  0  0  0  0  0  0  0  0  0  0
    3.9672    6.3330   -2.9219 H   0  0  0  0  0  0  0  0  0  0  0  0
    2.7812    8.5117   -2.9238 H   0  0  0  0  0  0  0  0  0  0  0  0
    0.4192    8.6356   -2.1735 H   0  0  0  0  0  0  0  0  0  0  0  0
   -0.7557    6.6129   -1.4283 H   0  0  0  0  0  0  0  0  0  0  0  0
   -0.8728    0.0666   -1.0155 H   0  0  0  0  0  0  0  0  0  0  0  0
    0.3282    0.4449   -2.2517 H   0  0  0  0  0  0  0  0  0  0  0  0
    2.1302    0.5485   -0.4480 H   0  0  0  0  0  0  0  0  0  0  0  0
    0.4823   -1.9755   -0.9143 H   0  0  0  0  0  0  0  0  0  0  0  0
    2.2302   -1.6859   -1.1849 H   0  0  0  0  0  0  0  0  0  0  0  0
    2.3236   -3.9970   -0.8001 H   0  0  0  0  0  0  0  0  0  0  0  0
    3.0853   -6.2337   -0.0580 H   0  0  0  0  0  0  0  0  0  0  0  0
    3.2304   -6.7082    2.3903 H   0  0  0  0  0  0  0  0  0  0  0  0
    1.9626   -2.9108    3.3662 H   0  0  0  0  0  0  0  0  0  0  0  0
   -3.9594   -0.8298   -0.3999 H   0  0  0  0  0  0  0  0  0  0  0  0
   -3.6992   -3.0702   -1.3859 H   0  0  0  0  0  0  0  0  0  0  0  0
  1  2  1  0
  2  3  2  0
  3  4  1  0
  4  5  2  0
  5  6  1  0
  6  7  1  0
  7  8  1  0
  8  9  2  0
  8 10  1  0
 10 11  2  0
 11 12  1  0
 12 13  1  0
 13 14  2  0
 14 15  1  0
 15 16  2  0
 16 17  1  0
 17 18  2  0
 12 19  2  0
 19 20  1  0
 20 21  1  0
 21 22  1  0
 22 23  1  0
 23 24  1  0
 24 25  1  0
 25 26  2  0
 26 27  1  0
 27 28  2  0
 28 29  1  0
 29 30  2  0
 24 31  2  0
 31 32  1  0
  5 33  1  0
 33 34  2  0
 34  2  1  0
 20 10  1  0
 32 22  1  0
 18 13  1  0
 30 25  1  0
  1 35  1  0
  1 36  1  0
  1 37  1  0
  3 38  1  0
  4 39  1  0
  6 40  1  0
  6 41  1  0
  7 42  1  0
 11 43  1  0
 14 44  1  0
 15 45  1  0
 16 46  1  0
 17 47  1  0
 18 48  1  0
 21 49  1  0
 21 50  1  0
 22 51  1  0
 23 52  1  0
 23 53  1  0
 26 54  1  0
 27 55  1  0
 28 56  1  0
 30 57  1  0
 33 58  1  0
 34 59  1  0
M  END
$$$$
