
     RDKit          3D

 29 31  0  0  0  0  0  0  0  0999 V2000
   -3.6460    2.2424    1.2234 C   0  0  0  0  0  0  0  0  0  0  0  0
   -2.2866    1.9099    0.9752 O   0  0  0  0  0  0  0  0  0  0  0  0
   -2.0237    0.6354    0.5464 C   0  0  0  0  0  0  0  0  0  0  0  0
   -2.9795   -0.3850    0.3880 C   0  0  0  0  0  0  0  0  0  0  0  0
   -2.5980   -1.6596   -0.0416 C   0  0  0  0  0  0  0  0  0  0  0  0
   -1.2600   -1.8697   -0.3074 C   0  0  0  0  0  0  0  0  0  0  0  0
   -0.2920   -0.8677   -0.1751 C   0  0  0  0  0  0  0  0  0  0  0  0
   -0.6705    0.3869    0.2668 C   0  0  0  0  0  0  0  0  0  0  0  0
    0.9842   -1.4947   -0.5388 C   0  0  0  0  0  0  0  0  0  0  0  0
    2.2545   -1.0722   -0.6335 C   0  0  0  0  0  0  0  0  0  0  0  0
    2.7831    0.2296   -0.4476 C   0  0  0  0  0  0  0  0  0  0  0  0
    4.0476    0.5304    0.0016 C   0  0  0  0  0  0  0  0  0  0  0  0
    4.1194    1.8961   -0.0431 N   0  0  0  0  0  0  0  0  0  0  0  0
    2.9294    2.3531   -0.5346 C   0  0  0  0  0  0  0  0  0  0  0  0
    2.1065    1.3636   -0.7981 N   0  0  0  0  0  0  0  0  0  0  0  0
    0.6880   -2.9386   -0.8590 C   0  0  0  0  0  0  0  0  0  0  0  0
    1.4763   -3.8083   -1.1784 O   0  0  0  0  0  0  0  0  0  0  0  0
   -0.6810   -3.0688   -0.7103 N   0  0  0  0  0  0  0  0  0  0  0  0
   -4.0543    1.6438    2.0442 H   0  0  0  0  0  0  0  0  0  0  0  0
   -3.6830    3.2929    1.5279 H   0  0  0  0  0  0  0  0  0  0  0  0
   -4.2512    2.1374    0.3168 H   0  0  0  0  0  0  0  0  0  0  0  0
   -4.0299   -0.2152    0.6012 H   0  0  0  0  0  0  0  0  0  0  0  0
   -3.3311   -2.4501   -0.1528 H   0  0  0  0  0  0  0  0  0  0  0  0
    0.0557    1.1793    0.4048 H   0  0  0  0  0  0  0  0  0  0  0  0
    3.0004   -1.8228   -0.8938 H   0  0  0  0  0  0  0  0  0  0  0  0
    4.8731   -0.0809    0.3374 H   0  0  0  0  0  0  0  0  0  0  0  0
    4.9098    2.4672    0.2223 H   0  0  0  0  0  0  0  0  0  0  0  0
    2.7241    3.4051   -0.6811 H   0  0  0  0  0  0  0  0  0  0  0  0
   -1.1653   -3.9395   -0.8609 H   0  0  0  0  0  0  0  0  0  0  0  0
  1  2  1  0
  2  3  1  0
  3  4  2  0
  4  5  1  0
  5  6  2  0
  6  7  1  0
  7  8  2  0
  7  9  1  0
  9 10  2  3
 10 11  1  0
 11 12  2  0
 12 13  1  0
 13 14  1  0
 14 15  2  0
  9 16  1  0
 16 17  2  0
 16 18  1  0
  8  3  1  0
 15 11  1  0
 18  6  1  0
  1 19  1  0
  1 20  1  0
  1 21  1  0
  4 22  1  0
  5 23  1  0
  8 24  1  0
 10 25  1  0
 12 26  1  0
 13 27  1  0
 14 28  1  0
 18 29  1  0
M  END
$$$$
