
     RDKit          3D

 35 36  0  0  0  0  0  0  0  0999 V2000
   -6.4746    0.7945    2.2863 C   0  0  0  0  0  0  0  0  0  0  0  0
   -5.2652    0.6782    1.3762 C   0  0  0  0  0  0  0  0  0  0  0  0
   -4.1526    0.2720    2.1724 O   0  0  0  0  0  0  0  0  0  0  0  0
   -2.9465    0.1349    1.5471 C   0  0  0  0  0  0  0  0  0  0  0  0
   -1.8904   -0.2130    2.3858 C   0  0  0  0  0  0  0  0  0  0  0  0
   -0.5937   -0.3893    1.8855 C   0  0  0  0  0  0  0  0  0  0  0  0
   -0.3125   -0.2233    0.5253 C   0  0  0  0  0  0  0  0  0  0  0  0
    0.9984   -0.4026    0.0119 N   0  0  0  0  0  0  0  0  0  0  0  0
    2.1718   -0.6774    0.6989 C   0  0  0  0  0  0  0  0  0  0  0  0
    2.2835   -0.8162    1.9136 O   0  0  0  0  0  0  0  0  0  0  0  0
    3.3718   -0.8374   -0.2195 C   0  0  0  0  0  0  0  0  0  0  0  0
    3.7899    0.7606   -0.9638 S   0  0  0  0  0  0  0  0  0  0  0  0
    5.1312    0.2794   -1.9587 C   0  0  0  0  0  0  0  0  0  0  0  0
    5.5564   -1.0148   -2.0917 N   0  0  0  0  0  0  0  0  0  0  0  0
    6.5670   -0.9099   -2.9226 C   0  0  0  0  0  0  0  0  0  0  0  0
    6.7328    0.3926   -3.2714 N   0  0  0  0  0  0  0  0  0  0  0  0
    5.8230    1.1729   -2.6706 N   0  0  0  0  0  0  0  0  0  0  0  0
   -1.3932    0.1282   -0.3183 C   0  0  0  0  0  0  0  0  0  0  0  0
   -1.2077    0.3314   -1.7644 N   0  0  0  0  0  4  0  0  0  0  0  0
   -0.1570   -0.0776   -2.2830 O   0  0  0  0  0  0  0  0  0  0  0  0
   -2.1148    0.8982   -2.3905 O   0  0  0  0  0  1  0  0  0  0  0  0
   -2.6993    0.3048    0.1896 C   0  0  0  0  0  0  0  0  0  0  0  0
   -6.6850   -0.1641    2.7721 H   0  0  0  0  0  0  0  0  0  0  0  0
   -7.3584    1.1062    1.7225 H   0  0  0  0  0  0  0  0  0  0  0  0
   -6.2887    1.5218    3.0836 H   0  0  0  0  0  0  0  0  0  0  0  0
   -5.0679    1.6533    0.9159 H   0  0  0  0  0  0  0  0  0  0  0  0
   -5.4703   -0.0698    0.6017 H   0  0  0  0  0  0  0  0  0  0  0  0
   -2.0713   -0.3499    3.4507 H   0  0  0  0  0  0  0  0  0  0  0  0
    0.1742   -0.6622    2.6035 H   0  0  0  0  0  0  0  0  0  0  0  0
    1.1032   -0.2788   -0.9975 H   0  0  0  0  0  0  0  0  0  0  0  0
    4.2155   -1.2114    0.3699 H   0  0  0  0  0  0  0  0  0  0  0  0
    3.1289   -1.5778   -0.9893 H   0  0  0  0  0  0  0  0  0  0  0  0
    7.1911   -1.7106   -3.2930 H   0  0  0  0  0  0  0  0  0  0  0  0
    7.4170    0.8112   -3.8917 H   0  0  0  0  0  0  0  0  0  0  0  0
   -3.5066    0.5709   -0.4863 H   0  0  0  0  0  0  0  0  0  0  0  0
  1  2  1  0
  2  3  1  0
  3  4  1  0
  4  5  2  0
  5  6  1  0
  6  7  2  0
  7  8  1  0
  8  9  1  0
  9 10  2  0
  9 11  1  0
 11 12  1  0
 12 13  1  0
 13 14  1  0
 14 15  2  0
 15 16  1  0
 16 17  1  0
  7 18  1  0
 18 19  1  0
 19 20  2  0
 19 21  1  0
 18 22  2  0
 22  4  1  0
 17 13  2  0
  1 23  1  0
  1 24  1  0
  1 25  1  0
  2 26  1  0
  2 27  1  0
  5 28  1  0
  6 29  1  0
  8 30  1  0
 11 31  1  0
 11 32  1  0
 15 33  1  0
 16 34  1  0
 22 35  1  0
M  CHG  2  19   1  21  -1
M  END
$$$$
