
     RDKit          3D

 34 35  0  0  0  0  0  0  0  0999 V2000
   -2.0595   -2.3618    1.7557 O   0  0  0  0  0  0  0  0  0  0  0  0
   -2.9572   -2.0882    0.9426 N   0  0  0  0  0  4  0  0  0  0  0  0
   -3.9327   -2.8138    0.6987 O   0  0  0  0  0  1  0  0  0  0  0  0
   -2.8800   -0.8036    0.2425 C   0  0  0  0  0  0  0  0  0  0  0  0
   -4.0993   -0.1590   -0.0499 C   0  0  0  0  0  0  0  0  0  0  0  0
   -4.1043    1.0698   -0.7198 C   0  0  0  0  0  0  0  0  0  0  0  0
   -5.4040    1.7590   -1.0586 C   0  0  0  0  0  0  0  0  0  0  0  0
   -6.3640    1.5676   -0.1123 F   0  0  0  0  0  0  0  0  0  0  0  0
   -5.2755    3.1079   -1.1911 F   0  0  0  0  0  0  0  0  0  0  0  0
   -5.9341    1.3136   -2.2293 F   0  0  0  0  0  0  0  0  0  0  0  0
   -2.8774    1.6178   -1.1083 C   0  0  0  0  0  0  0  0  0  0  0  0
   -1.6693    0.9666   -0.8150 C   0  0  0  0  0  0  0  0  0  0  0  0
   -1.6279   -0.2446   -0.1045 C   0  0  0  0  0  0  0  0  0  0  0  0
   -0.4203   -0.9334    0.1016 N   0  0  0  0  0  0  0  0  0  0  0  0
    0.8583   -0.2080    0.0717 C   0  0  0  0  0  0  0  0  0  0  0  0
    2.0038   -1.1575    0.4409 C   0  0  0  0  0  0  0  0  0  0  0  0
    3.3681   -0.5135    0.3864 C   0  0  0  0  0  0  0  0  0  0  0  0
    4.5054   -1.3170    0.4510 C   0  0  0  0  0  0  0  0  0  0  0  0
    5.7605   -0.7153    0.4246 C   0  0  0  0  0  0  0  0  0  0  0  0
    5.8502    0.6679    0.3413 C   0  0  0  0  0  0  0  0  0  0  0  0
    4.6741    1.3948    0.2897 C   0  0  0  0  0  0  0  0  0  0  0  0
    3.4425    0.8376    0.3135 N   0  0  0  0  0  0  0  0  0  0  0  0
   -5.0468   -0.6138    0.2416 H   0  0  0  0  0  0  0  0  0  0  0  0
   -2.8472    2.5603   -1.6560 H   0  0  0  0  0  0  0  0  0  0  0  0
   -0.7547    1.4377   -1.1678 H   0  0  0  0  0  0  0  0  0  0  0  0
   -0.4871   -1.5526    0.9184 H   0  0  0  0  0  0  0  0  0  0  0  0
    0.8225    0.6302    0.7787 H   0  0  0  0  0  0  0  0  0  0  0  0
    1.0384    0.1886   -0.9345 H   0  0  0  0  0  0  0  0  0  0  0  0
    1.9893   -2.0149   -0.2444 H   0  0  0  0  0  0  0  0  0  0  0  0
    1.8459   -1.5496    1.4535 H   0  0  0  0  0  0  0  0  0  0  0  0
    4.4201   -2.3970    0.5213 H   0  0  0  0  0  0  0  0  0  0  0  0
    6.6602   -1.3222    0.4710 H   0  0  0  0  0  0  0  0  0  0  0  0
    6.8120    1.1673    0.3196 H   0  0  0  0  0  0  0  0  0  0  0  0
    4.6901    2.4791    0.2273 H   0  0  0  0  0  0  0  0  0  0  0  0
  1  2  2  0
  2  3  1  0
  2  4  1  0
  4  5  2  0
  5  6  1  0
  6  7  1  0
  7  8  1  0
  7  9  1  0
  7 10  1  0
  6 11  2  0
 11 12  1  0
 12 13  2  0
 13 14  1  0
 14 15  1  0
 15 16  1  0
 16 17  1  0
 17 18  2  0
 18 19  1  0
 19 20  2  0
 20 21  1  0
 21 22  2  0
 13  4  1  0
 22 17  1  0
  5 23  1  0
 11 24  1  0
 12 25  1  0
 14 26  1  0
 15 27  1  0
 15 28  1  0
 16 29  1  0
 16 30  1  0
 18 31  1  0
 19 32  1  0
 20 33  1  0
 21 34  1  0
M  CHG  2   2   1   3  -1
M  END
$$$$
