
     RDKit          3D

 46 49  0  0  0  0  0  0  0  0999 V2000
   -0.3856   -0.9339    2.9896 O   0  0  0  0  0  0  0  0  0  0  0  0
   -0.6066   -0.6106    1.8245 C   0  0  0  0  0  0  0  0  0  0  0  0
    0.4841   -0.5430    0.8703 C   0  0  0  0  0  0  0  0  0  0  0  0
    1.3663   -1.5735    0.6131 C   0  0  0  0  0  0  0  0  0  0  0  0
    2.2418   -1.1322   -0.3469 N   0  0  0  0  0  0  0  0  0  0  0  0
    3.3185   -1.8463   -0.9456 C   0  0  0  0  0  0  0  0  0  0  0  0
    4.1022   -1.2174   -1.9262 C   0  0  0  0  0  0  0  0  0  0  0  0
    5.1620   -1.9003   -2.5270 C   0  0  0  0  0  0  0  0  0  0  0  0
    5.4475   -3.2119   -2.1549 C   0  0  0  0  0  0  0  0  0  0  0  0
    4.6752   -3.8431   -1.1813 C   0  0  0  0  0  0  0  0  0  0  0  0
    3.6124   -3.1662   -0.5750 C   0  0  0  0  0  0  0  0  0  0  0  0
    1.9638    0.1418   -0.7167 N   0  0  0  0  0  0  0  0  0  0  0  0
    0.9431    0.5330    0.0613 C   0  0  0  0  0  0  0  0  0  0  0  0
    0.4534    1.9125   -0.0041 C   0  0  0  0  0  0  0  0  0  0  0  0
    0.0255    2.5853    1.1515 C   0  0  0  0  0  0  0  0  0  0  0  0
   -0.4533    3.8956    1.0701 C   0  0  0  0  0  0  0  0  0  0  0  0
   -0.4960    4.5363   -0.1623 C   0  0  0  0  0  0  0  0  0  0  0  0
   -0.9565    5.7916   -0.2375 F   0  0  0  0  0  0  0  0  0  0  0  0
   -0.0639    3.8952   -1.3163 C   0  0  0  0  0  0  0  0  0  0  0  0
    0.4140    2.5853   -1.2370 C   0  0  0  0  0  0  0  0  0  0  0  0
   -1.8905   -0.3055    1.3708 N   0  0  0  0  0  0  0  0  0  0  0  0
   -2.9643   -0.2498    2.3595 C   0  0  0  0  0  0  0  0  0  0  0  0
   -4.1594    0.5479    1.8540 C   0  0  0  0  0  0  0  0  0  0  0  0
   -4.7277   -0.0323    0.5586 C   0  0  0  0  0  0  0  0  0  0  0  0
   -3.6831   -0.7817   -0.2692 C   0  0  0  0  0  0  0  0  0  0  0  0
   -2.2762   -0.2373   -0.0432 C   0  0  0  0  0  0  0  0  0  0  0  0
    1.4157   -2.5640    1.0383 H   0  0  0  0  0  0  0  0  0  0  0  0
    3.9008   -0.1922   -2.2320 H   0  0  0  0  0  0  0  0  0  0  0  0
    5.7645   -1.4052   -3.2844 H   0  0  0  0  0  0  0  0  0  0  0  0
    6.2735   -3.7418   -2.6226 H   0  0  0  0  0  0  0  0  0  0  0  0
    4.9023   -4.8663   -0.8912 H   0  0  0  0  0  0  0  0  0  0  0  0
    3.0416   -3.6972    0.1801 H   0  0  0  0  0  0  0  0  0  0  0  0
    0.0724    2.1073    2.1276 H   0  0  0  0  0  0  0  0  0  0  0  0
   -0.7847    4.4202    1.9607 H   0  0  0  0  0  0  0  0  0  0  0  0
   -0.0961    4.4166   -2.2674 H   0  0  0  0  0  0  0  0  0  0  0  0
    0.7581    2.0877   -2.1420 H   0  0  0  0  0  0  0  0  0  0  0  0
   -2.5829    0.1963    3.2851 H   0  0  0  0  0  0  0  0  0  0  0  0
   -3.2576   -1.2815    2.5883 H   0  0  0  0  0  0  0  0  0  0  0  0
   -3.8437    1.5831    1.6700 H   0  0  0  0  0  0  0  0  0  0  0  0
   -4.9433    0.5895    2.6183 H   0  0  0  0  0  0  0  0  0  0  0  0
   -5.5546   -0.7157    0.7864 H   0  0  0  0  0  0  0  0  0  0  0  0
   -5.1591    0.7831   -0.0343 H   0  0  0  0  0  0  0  0  0  0  0  0
   -3.9461   -0.7316   -1.3317 H   0  0  0  0  0  0  0  0  0  0  0  0
   -3.7033   -1.8430    0.0106 H   0  0  0  0  0  0  0  0  0  0  0  0
   -2.2351    0.8144   -0.3456 H   0  0  0  0  0  0  0  0  0  0  0  0
   -1.5689   -0.7992   -0.6601 H   0  0  0  0  0  0  0  0  0  0  0  0
  1  2  2  0
  2  3  1  0
  3  4  2  0
  4  5  1  0
  5  6  1  0
  6  7  2  0
  7  8  1  0
  8  9  2  0
  9 10  1  0
 10 11  2  0
  5 12  1  0
 12 13  2  0
 13 14  1  0
 14 15  2  0
 15 16  1  0
 16 17  2  0
 17 18  1  0
 17 19  1  0
 19 20  2  0
  2 21  1  0
 21 22  1  0
 22 23  1  0
 23 24  1  0
 24 25  1  0
 25 26  1  0
 13  3  1  0
 20 14  1  0
 26 21  1  0
 11  6  1  0
  4 27  1  0
  7 28  1  0
  8 29  1  0
  9 30  1  0
 10 31  1  0
 11 32  1  0
 15 33  1  0
 16 34  1  0
 19 35  1  0
 20 36  1  0
 22 37  1  0
 22 38  1  0
 23 39  1  0
 23 40  1  0
 24 41  1  0
 24 42  1  0
 25 43  1  0
 25 44  1  0
 26 45  1  0
 26 46  1  0
M  END
$$$$
