
     RDKit          3D

 45 47  0  0  0  0  0  0  0  0999 V2000
   -7.6251   -1.8091   -0.1757 N   0  0  0  0  0  0  0  0  0  0  0  0
   -7.5215   -0.1910    0.2816 S   0  0  0  0  0  6  0  0  0  0  0  0
   -8.1437    0.5564   -0.7864 O   0  0  0  0  0  0  0  0  0  0  0  0
   -7.9506   -0.0916    1.6560 O   0  0  0  0  0  0  0  0  0  0  0  0
   -5.7709    0.0811    0.2165 C   0  0  0  0  0  0  0  0  0  0  0  0
   -5.1793    0.5220   -0.9674 C   0  0  0  0  0  0  0  0  0  0  0  0
   -3.7975    0.7388   -1.0109 C   0  0  0  0  0  0  0  0  0  0  0  0
   -3.0093    0.5467    0.1274 C   0  0  0  0  0  0  0  0  0  0  0  0
   -1.6084    0.7147    0.1530 N   0  0  0  0  0  0  0  0  0  0  0  0
   -0.7614    1.4840   -0.6380 C   0  0  0  0  0  0  0  0  0  0  0  0
   -1.2340    2.8315   -1.5249 S   0  0  0  0  0  0  0  0  0  0  0  0
    0.5822    1.0455   -0.5261 N   0  0  0  0  0  0  0  0  0  0  0  0
    0.8784   -0.4038   -0.4884 C   0  0  0  0  0  0  0  0  0  0  0  0
    2.2430   -0.7304    0.1465 C   0  0  0  0  0  0  0  0  0  0  0  0
    3.3195    0.0554   -0.4980 N   0  0  0  0  0  0  0  0  0  0  0  0
    4.6094   -0.3849   -0.1533 C   0  0  0  0  0  0  0  0  0  0  0  0
    5.0164   -1.6778   -0.5267 C   0  0  0  0  0  0  0  0  0  0  0  0
    6.2888   -2.1682   -0.2167 C   0  0  0  0  0  0  0  0  0  0  0  0
    7.1915   -1.3679    0.4734 C   0  0  0  0  0  0  0  0  0  0  0  0
    6.8208   -0.0796    0.8440 C   0  0  0  0  0  0  0  0  0  0  0  0
    5.5456    0.4060    0.5287 C   0  0  0  0  0  0  0  0  0  0  0  0
    3.0545    1.5081   -0.4553 C   0  0  0  0  0  0  0  0  0  0  0  0
    1.6951    1.8340   -1.1019 C   0  0  0  0  0  0  0  0  0  0  0  0
   -3.6187    0.0885    1.3047 C   0  0  0  0  0  0  0  0  0  0  0  0
   -4.9976   -0.1337    1.3576 C   0  0  0  0  0  0  0  0  0  0  0  0
   -8.1372   -1.8676   -1.0578 H   0  0  0  0  0  0  0  0  0  0  0  0
   -6.7188   -2.2715   -0.2302 H   0  0  0  0  0  0  0  0  0  0  0  0
   -5.7764    0.6983   -1.8600 H   0  0  0  0  0  0  0  0  0  0  0  0
   -3.3614    1.0360   -1.9596 H   0  0  0  0  0  0  0  0  0  0  0  0
   -1.1550    0.4096    1.0048 H   0  0  0  0  0  0  0  0  0  0  0  0
    0.0991   -0.9620    0.0371 H   0  0  0  0  0  0  0  0  0  0  0  0
    0.8623   -0.7490   -1.5304 H   0  0  0  0  0  0  0  0  0  0  0  0
    2.4071   -1.8093    0.0478 H   0  0  0  0  0  0  0  0  0  0  0  0
    2.2118   -0.4950    1.2186 H   0  0  0  0  0  0  0  0  0  0  0  0
    4.3422   -2.3123   -1.0968 H   0  0  0  0  0  0  0  0  0  0  0  0
    6.5729   -3.1705   -0.5254 H   0  0  0  0  0  0  0  0  0  0  0  0
    8.1823   -1.7428    0.7144 H   0  0  0  0  0  0  0  0  0  0  0  0
    7.5229    0.5545    1.3790 H   0  0  0  0  0  0  0  0  0  0  0  0
    5.3031    1.4149    0.8467 H   0  0  0  0  0  0  0  0  0  0  0  0
    3.8317    2.0576   -1.0001 H   0  0  0  0  0  0  0  0  0  0  0  0
    3.0432    1.8573    0.5854 H   0  0  0  0  0  0  0  0  0  0  0  0
    1.7264    1.6180   -2.1772 H   0  0  0  0  0  0  0  0  0  0  0  0
    1.5052    2.9039   -0.9726 H   0  0  0  0  0  0  0  0  0  0  0  0
   -3.0318   -0.0799    2.2047 H   0  0  0  0  0  0  0  0  0  0  0  0
   -5.4568   -0.4651    2.2872 H   0  0  0  0  0  0  0  0  0  0  0  0
  1  2  1  0
  2  3  2  0
  2  4  2  0
  2  5  1  0
  5  6  2  0
  6  7  1  0
  7  8  2  0
  8  9  1  0
  9 10  1  0
 10 11  2  0
 10 12  1  0
 12 13  1  0
 13 14  1  0
 14 15  1  0
 15 16  1  0
 16 17  2  0
 17 18  1  0
 18 19  2  0
 19 20  1  0
 20 21  2  0
 15 22  1  0
 22 23  1  0
  8 24  1  0
 24 25  2  0
 25  5  1  0
 23 12  1  0
 21 16  1  0
  1 26  1  0
  1 27  1  0
  6 28  1  0
  7 29  1  0
  9 30  1  0
 13 31  1  0
 13 32  1  0
 14 33  1  0
 14 34  1  0
 17 35  1  0
 18 36  1  0
 19 37  1  0
 20 38  1  0
 21 39  1  0
 22 40  1  0
 22 41  1  0
 23 42  1  0
 23 43  1  0
 24 44  1  0
 25 45  1  0
M  END
$$$$
