
     RDKit          3D

 46 48  0  0  0  0  0  0  0  0999 V2000
   -2.9688    5.0666   -0.3433 C   0  0  0  0  0  0  0  0  0  0  0  0
   -3.1131    3.5650   -0.5052 C   0  0  0  0  0  0  0  0  0  0  0  0
   -2.1771    2.8842    0.3394 O   0  0  0  0  0  0  0  0  0  0  0  0
   -0.9544    2.6898   -0.1886 C   0  0  0  0  0  0  0  0  0  0  0  0
   -0.5455    2.9941   -1.2947 O   0  0  0  0  0  0  0  0  0  0  0  0
   -0.0902    1.9446    0.7878 C   0  0  0  0  0  0  0  0  0  0  0  0
    0.1679    2.3681    1.9886 N   0  0  0  0  0  0  0  0  0  0  0  0
    0.9722    1.4191    2.5681 N   0  0  0  0  0  0  0  0  0  0  0  0
    1.3730    0.3689    1.6215 C   0  0  0  0  0  0  0  0  0  0  0  0
    2.8866    0.4244    1.3879 C   0  0  0  0  0  0  0  0  0  0  0  0
    3.6139    1.2338    1.9648 O   0  0  0  0  0  0  0  0  0  0  0  0
    3.5054   -0.5505    0.4431 C   0  0  0  0  0  0  0  0  0  0  0  0
    2.9145   -1.7847    0.1475 C   0  0  0  0  0  0  0  0  0  0  0  0
    3.5285   -2.6537   -0.7582 C   0  0  0  0  0  0  0  0  0  0  0  0
    4.7343   -2.3002   -1.3622 C   0  0  0  0  0  0  0  0  0  0  0  0
    5.3349   -1.0798   -1.0591 C   0  0  0  0  0  0  0  0  0  0  0  0
    4.7247   -0.2077   -0.1563 C   0  0  0  0  0  0  0  0  0  0  0  0
    0.5594    0.6663    0.3555 C   0  0  0  0  0  0  0  0  0  0  0  0
   -0.4449   -0.4067   -0.0068 C   0  0  0  0  0  0  0  0  0  0  0  0
   -1.4240   -0.8373    0.9014 C   0  0  0  0  0  0  0  0  0  0  0  0
   -2.3415   -1.8336    0.5492 C   0  0  0  0  0  0  0  0  0  0  0  0
   -2.2960   -2.4131   -0.7173 C   0  0  0  0  0  0  0  0  0  0  0  0
   -3.1269   -3.3924   -1.1859 O   0  0  0  0  0  0  0  0  0  0  0  0
   -4.1524   -3.8402   -0.3081 C   0  0  0  0  0  0  0  0  0  0  0  0
   -1.3277   -1.9845   -1.6265 C   0  0  0  0  0  0  0  0  0  0  0  0
   -0.4111   -0.9892   -1.2798 C   0  0  0  0  0  0  0  0  0  0  0  0
   -3.0869    5.3532    0.7069 H   0  0  0  0  0  0  0  0  0  0  0  0
   -1.9742    5.4011   -0.6549 H   0  0  0  0  0  0  0  0  0  0  0  0
   -3.7177    5.5948   -0.9399 H   0  0  0  0  0  0  0  0  0  0  0  0
   -4.1148    3.2550   -0.1898 H   0  0  0  0  0  0  0  0  0  0  0  0
   -2.9974    3.2630   -1.5527 H   0  0  0  0  0  0  0  0  0  0  0  0
    1.6845    1.8015    3.1977 H   0  0  0  0  0  0  0  0  0  0  0  0
    1.1367   -0.5830    2.1084 H   0  0  0  0  0  0  0  0  0  0  0  0
    1.9885   -2.1073    0.6143 H   0  0  0  0  0  0  0  0  0  0  0  0
    3.0686   -3.6125   -0.9883 H   0  0  0  0  0  0  0  0  0  0  0  0
    5.2112   -2.9803   -2.0643 H   0  0  0  0  0  0  0  0  0  0  0  0
    6.2799   -0.8068   -1.5229 H   0  0  0  0  0  0  0  0  0  0  0  0
    5.2039    0.7422    0.0755 H   0  0  0  0  0  0  0  0  0  0  0  0
    1.2056    0.8915   -0.5014 H   0  0  0  0  0  0  0  0  0  0  0  0
   -1.4892   -0.3977    1.8973 H   0  0  0  0  0  0  0  0  0  0  0  0
   -3.0787   -2.1300    1.2882 H   0  0  0  0  0  0  0  0  0  0  0  0
   -4.8363   -3.0246   -0.0506 H   0  0  0  0  0  0  0  0  0  0  0  0
   -4.7310   -4.6062   -0.8334 H   0  0  0  0  0  0  0  0  0  0  0  0
   -3.7289   -4.3006    0.5905 H   0  0  0  0  0  0  0  0  0  0  0  0
   -1.2901   -2.4281   -2.6191 H   0  0  0  0  0  0  0  0  0  0  0  0
    0.3247   -0.6766   -2.0190 H   0  0  0  0  0  0  0  0  0  0  0  0
  1  2  1  0
  2  3  1  0
  3  4  1  0
  4  5  2  0
  4  6  1  0
  6  7  2  0
  7  8  1  0
  8  9  1  0
  9 10  1  0
 10 11  2  0
 10 12  1  0
 12 13  2  0
 13 14  1  0
 14 15  2  0
 15 16  1  0
 16 17  2  0
  9 18  1  0
 18 19  1  0
 19 20  2  0
 20 21  1  0
 21 22  2  0
 22 23  1  0
 23 24  1  0
 22 25  1  0
 25 26  2  0
 18  6  1  0
 26 19  1  0
 17 12  1  0
  1 27  1  0
  1 28  1  0
  1 29  1  0
  2 30  1  0
  2 31  1  0
  8 32  1  0
  9 33  1  0
 13 34  1  0
 14 35  1  0
 15 36  1  0
 16 37  1  0
 17 38  1  0
 18 39  1  0
 20 40  1  0
 21 41  1  0
 24 42  1  0
 24 43  1  0
 24 44  1  0
 25 45  1  0
 26 46  1  0
M  END
$$$$
