
     RDKit          3D

 45 46  0  0  0  0  0  0  0  0999 V2000
    3.5931   -2.8364    2.8862 C   0  0  0  0  0  0  0  0  0  0  0  0
    3.3954   -2.8212    1.3990 C   0  0  0  0  0  0  0  0  0  0  0  0
    4.0258   -3.7641    0.5819 C   0  0  0  0  0  0  0  0  0  0  0  0
    3.8360   -3.7335   -0.7983 C   0  0  0  0  0  0  0  0  0  0  0  0
    3.0297   -2.7491   -1.3724 C   0  0  0  0  0  0  0  0  0  0  0  0
    2.4212   -1.7742   -0.5745 C   0  0  0  0  0  0  0  0  0  0  0  0
    1.5887   -0.8296   -1.2171 N   0  0  0  0  0  0  0  0  0  0  0  0
    1.2018    0.4400   -0.8078 C   0  0  0  0  0  0  0  0  0  0  0  0
    2.1899    1.4392    0.1235 S   0  0  0  0  0  0  0  0  0  0  0  0
   -0.0576    0.8268   -1.3276 N   0  0  0  0  0  0  0  0  0  0  0  0
   -0.5839    2.2056   -1.1617 C   0  0  0  0  0  0  0  0  0  0  0  0
   -1.3069    2.4656    0.1800 C   0  0  0  0  0  0  0  0  0  0  0  0
   -1.7490    3.8684    0.3418 N   0  0  0  0  0  0  0  0  0  0  0  0
   -2.1149    4.1149    1.7396 C   0  0  0  0  0  0  0  0  0  0  0  0
   -2.8853    4.1826   -0.5268 C   0  0  0  0  0  0  0  0  0  0  0  0
   -1.0112   -0.1389   -1.9108 C   0  0  0  0  0  0  0  0  0  0  0  0
   -1.9506   -0.6785   -0.8728 C   0  0  0  0  0  0  0  0  0  0  0  0
   -1.6587   -1.3132    0.3203 C   0  0  0  0  0  0  0  0  0  0  0  0
   -2.8295   -1.6908    1.0382 C   0  0  0  0  0  0  0  0  0  0  0  0
   -3.9797   -1.3492    0.3643 C   0  0  0  0  0  0  0  0  0  0  0  0
   -3.6464   -0.5844   -1.1269 S   0  0  0  0  0  0  0  0  0  0  0  0
    2.5932   -1.8298    0.8114 C   0  0  0  0  0  0  0  0  0  0  0  0
    2.6313   -2.7363    3.4003 H   0  0  0  0  0  0  0  0  0  0  0  0
    4.2483   -2.0120    3.1856 H   0  0  0  0  0  0  0  0  0  0  0  0
    4.0469   -3.7759    3.2190 H   0  0  0  0  0  0  0  0  0  0  0  0
    4.6631   -4.5315    1.0155 H   0  0  0  0  0  0  0  0  0  0  0  0
    4.3197   -4.4753   -1.4284 H   0  0  0  0  0  0  0  0  0  0  0  0
    2.8994   -2.7477   -2.4509 H   0  0  0  0  0  0  0  0  0  0  0  0
    1.4757   -0.9782   -2.2106 H   0  0  0  0  0  0  0  0  0  0  0  0
    0.2447    2.9141   -1.2729 H   0  0  0  0  0  0  0  0  0  0  0  0
   -1.2532    2.4026   -2.0063 H   0  0  0  0  0  0  0  0  0  0  0  0
   -0.6159    2.2136    0.9924 H   0  0  0  0  0  0  0  0  0  0  0  0
   -2.1628    1.7938    0.2960 H   0  0  0  0  0  0  0  0  0  0  0  0
   -2.4135    5.1597    1.8814 H   0  0  0  0  0  0  0  0  0  0  0  0
   -2.9375    3.4712    2.0715 H   0  0  0  0  0  0  0  0  0  0  0  0
   -1.2560    3.9460    2.3984 H   0  0  0  0  0  0  0  0  0  0  0  0
   -3.2089    5.2188   -0.3749 H   0  0  0  0  0  0  0  0  0  0  0  0
   -2.6113    4.1041   -1.5832 H   0  0  0  0  0  0  0  0  0  0  0  0
   -3.7429    3.5261   -0.3405 H   0  0  0  0  0  0  0  0  0  0  0  0
   -1.5438    0.3627   -2.7274 H   0  0  0  0  0  0  0  0  0  0  0  0
   -0.4959   -0.9854   -2.3723 H   0  0  0  0  0  0  0  0  0  0  0  0
   -0.6483   -1.4925    0.6685 H   0  0  0  0  0  0  0  0  0  0  0  0
   -2.8263   -2.1900    1.9993 H   0  0  0  0  0  0  0  0  0  0  0  0
   -5.0023   -1.5173    0.6727 H   0  0  0  0  0  0  0  0  0  0  0  0
    2.0885   -1.1210    1.4619 H   0  0  0  0  0  0  0  0  0  0  0  0
  1  2  1  0
  2  3  2  0
  3  4  1  0
  4  5  2  0
  5  6  1  0
  6  7  1  0
  7  8  1  0
  8  9  2  0
  8 10  1  0
 10 11  1  0
 11 12  1  0
 12 13  1  0
 13 14  1  0
 13 15  1  0
 10 16  1  0
 16 17  1  0
 17 18  2  0
 18 19  1  0
 19 20  2  0
 20 21  1  0
  6 22  2  0
 22  2  1  0
 21 17  1  0
  1 23  1  0
  1 24  1  0
  1 25  1  0
  3 26  1  0
  4 27  1  0
  5 28  1  0
  7 29  1  0
 11 30  1  0
 11 31  1  0
 12 32  1  0
 12 33  1  0
 14 34  1  0
 14 35  1  0
 14 36  1  0
 15 37  1  0
 15 38  1  0
 15 39  1  0
 16 40  1  0
 16 41  1  0
 18 42  1  0
 19 43  1  0
 20 44  1  0
 22 45  1  0
M  END
$$$$
