
     RDKit          3D

 48 49  0  0  0  0  0  0  0  0999 V2000
    2.3438    0.0911   -2.9695 C   0  0  0  0  0  0  0  0  0  0  0  0
    2.3422   -0.8667   -1.9125 O   0  0  0  0  0  0  0  0  0  0  0  0
    1.5938   -0.4179   -0.8517 C   0  0  0  0  0  0  0  0  0  0  0  0
    0.1981   -0.4268   -0.9423 C   0  0  0  0  0  0  0  0  0  0  0  0
   -0.5798   -0.0177    0.1437 C   0  0  0  0  0  0  0  0  0  0  0  0
   -1.9734   -0.0315   -0.0236 N   0  0  0  0  0  0  0  0  0  0  0  0
   -2.9575    0.3254    0.8812 C   0  0  0  0  0  0  0  0  0  0  0  0
   -2.7946    0.6918    2.0407 O   0  0  0  0  0  0  0  0  0  0  0  0
   -4.3740    0.1486    0.2903 C   0  0  0  0  0  0  0  0  0  0  0  0
   -4.8610   -1.2752    0.5787 C   0  0  0  0  0  0  0  0  0  0  0  0
   -6.2139   -1.5446   -0.0704 C   0  0  0  0  0  0  0  0  0  0  0  0
   -6.1736   -1.1996   -1.5546 C   0  0  0  0  0  0  0  0  0  0  0  0
   -5.6576    0.2198   -1.7750 C   0  0  0  0  0  0  0  0  0  0  0  0
   -4.3334    0.4101   -1.1769 N   0  0  0  0  0  0  0  0  0  0  0  0
    0.0583    0.3796    1.3190 C   0  0  0  0  0  0  0  0  0  0  0  0
    1.4581    0.3726    1.4125 C   0  0  0  0  0  0  0  0  0  0  0  0
    2.2399   -0.0291    0.3289 C   0  0  0  0  0  0  0  0  0  0  0  0
    3.6080   -0.0651    0.3097 O   0  0  0  0  0  0  0  0  0  0  0  0
    4.2977    0.3229    1.4969 C   0  0  0  0  0  0  0  0  0  0  0  0
    5.8100    0.2238    1.2445 C   0  0  0  0  0  0  0  0  0  0  0  0
    6.5846    0.5226    2.5271 C   0  0  0  0  0  0  0  0  0  0  0  0
    6.2514    1.1685    0.1227 C   0  0  0  0  0  0  0  0  0  0  0  0
    1.3945    0.0680   -3.5131 H   0  0  0  0  0  0  0  0  0  0  0  0
    3.1423   -0.1804   -3.6671 H   0  0  0  0  0  0  0  0  0  0  0  0
    2.5451    1.1066   -2.6052 H   0  0  0  0  0  0  0  0  0  0  0  0
   -0.2684   -0.7679   -1.8613 H   0  0  0  0  0  0  0  0  0  0  0  0
   -2.3421   -0.2924   -0.9353 H   0  0  0  0  0  0  0  0  0  0  0  0
   -5.0265    0.8908    0.7669 H   0  0  0  0  0  0  0  0  0  0  0  0
   -4.9372   -1.4318    1.6620 H   0  0  0  0  0  0  0  0  0  0  0  0
   -4.1307   -2.0093    0.2135 H   0  0  0  0  0  0  0  0  0  0  0  0
   -6.9842   -0.9393    0.4248 H   0  0  0  0  0  0  0  0  0  0  0  0
   -6.4941   -2.5953    0.0636 H   0  0  0  0  0  0  0  0  0  0  0  0
   -7.1766   -1.3000   -1.9842 H   0  0  0  0  0  0  0  0  0  0  0  0
   -5.5266   -1.9138   -2.0791 H   0  0  0  0  0  0  0  0  0  0  0  0
   -6.3653    0.9489   -1.3618 H   0  0  0  0  0  0  0  0  0  0  0  0
   -5.5886    0.4156   -2.8498 H   0  0  0  0  0  0  0  0  0  0  0  0
   -4.0600    1.3878   -1.3112 H   0  0  0  0  0  0  0  0  0  0  0  0
   -0.5055    0.7028    2.1892 H   0  0  0  0  0  0  0  0  0  0  0  0
    1.8988    0.6881    2.3527 H   0  0  0  0  0  0  0  0  0  0  0  0
    4.0230   -0.3521    2.3179 H   0  0  0  0  0  0  0  0  0  0  0  0
    4.0373    1.3552    1.7651 H   0  0  0  0  0  0  0  0  0  0  0  0
    6.0436   -0.7997    0.9230 H   0  0  0  0  0  0  0  0  0  0  0  0
    6.3081   -0.1807    3.3212 H   0  0  0  0  0  0  0  0  0  0  0  0
    6.3809    1.5380    2.8874 H   0  0  0  0  0  0  0  0  0  0  0  0
    7.6635    0.4307    2.3603 H   0  0  0  0  0  0  0  0  0  0  0  0
    6.0078    2.2099    0.3630 H   0  0  0  0  0  0  0  0  0  0  0  0
    7.3333    1.1020   -0.0394 H   0  0  0  0  0  0  0  0  0  0  0  0
    5.7606    0.9158   -0.8224 H   0  0  0  0  0  0  0  0  0  0  0  0
  1  2  1  0
  2  3  1  0
  3  4  2  0
  4  5  1  0
  5  6  1  0
  6  7  1  0
  7  8  2  0
  7  9  1  0
  9 10  1  0
 10 11  1  0
 11 12  1  0
 12 13  1  0
 13 14  1  0
  5 15  2  0
 15 16  1  0
 16 17  2  0
 17 18  1  0
 18 19  1  0
 19 20  1  0
 20 21  1  0
 20 22  1  0
 17  3  1  0
 14  9  1  0
  1 23  1  0
  1 24  1  0
  1 25  1  0
  4 26  1  0
  6 27  1  0
  9 28  1  0
 10 29  1  0
 10 30  1  0
 11 31  1  0
 11 32  1  0
 12 33  1  0
 12 34  1  0
 13 35  1  0
 13 36  1  0
 14 37  1  0
 15 38  1  0
 16 39  1  0
 19 40  1  0
 19 41  1  0
 20 42  1  0
 21 43  1  0
 21 44  1  0
 21 45  1  0
 22 46  1  0
 22 47  1  0
 22 48  1  0
M  END
$$$$
