
     RDKit          3D

 57 60  0  0  0  0  0  0  0  0999 V2000
    3.4734   -2.9781    0.9517 C   0  0  0  0  0  0  0  0  0  0  0  0
    4.4549   -1.8763    1.3249 C   0  0  0  0  0  0  0  0  0  0  0  0
    5.2142   -1.3488    0.1236 C   0  0  0  0  0  0  0  0  0  0  0  0
    6.5135   -1.8508   -0.0784 C   0  0  0  0  0  0  0  0  0  0  0  0
    7.2709   -1.4528   -1.1721 C   0  0  0  0  0  0  0  0  0  0  0  0
    6.7510   -0.5244   -2.0651 C   0  0  0  0  0  0  0  0  0  0  0  0
    5.4632    0.0167   -1.8880 C   0  0  0  0  0  0  0  0  0  0  0  0
    5.0573    1.0984   -2.8540 C   0  0  0  0  0  0  0  0  0  0  0  0
    4.6617   -0.4412   -0.8179 C   0  0  0  0  0  0  0  0  0  0  0  0
    3.3360    0.0111   -0.5993 N   0  0  0  0  0  0  0  0  0  0  0  0
    2.3695    0.2042   -1.5719 C   0  0  0  0  0  0  0  0  0  0  0  0
    2.4727   -0.0474   -2.7660 O   0  0  0  0  0  0  0  0  0  0  0  0
    1.0542    0.6806   -1.0529 C   0  0  0  0  0  0  0  0  0  0  0  0
    0.9654    1.5129    0.0699 C   0  0  0  0  0  0  0  0  0  0  0  0
   -0.2854    1.9318    0.5304 C   0  0  0  0  0  0  0  0  0  0  0  0
   -1.4598    1.5330   -0.1260 C   0  0  0  0  0  0  0  0  0  0  0  0
   -2.8141    1.9958    0.3751 C   0  0  0  0  0  0  0  0  0  0  0  0
   -3.0917    1.5566    1.7519 N   0  0  0  0  0  0  0  0  0  0  0  0
   -4.2244    2.2866    2.3452 C   0  0  0  0  0  0  0  0  0  0  0  0
   -5.5759    2.0347    1.6590 C   0  0  0  0  0  0  0  0  0  0  0  0
   -5.7964    0.5826    1.3157 C   0  0  0  0  0  0  0  0  0  0  0  0
   -7.0604    0.1473    0.8960 C   0  0  0  0  0  0  0  0  0  0  0  0
   -7.2634   -1.1847    0.5372 C   0  0  0  0  0  0  0  0  0  0  0  0
   -6.2062   -2.0900    0.5904 C   0  0  0  0  0  0  0  0  0  0  0  0
   -4.9425   -1.6645    1.0004 C   0  0  0  0  0  0  0  0  0  0  0  0
   -4.7223   -0.3254    1.3543 C   0  0  0  0  0  0  0  0  0  0  0  0
   -3.3546    0.1074    1.8411 C   0  0  0  0  0  0  0  0  0  0  0  0
   -1.3614    0.7150   -1.2604 C   0  0  0  0  0  0  0  0  0  0  0  0
   -0.1122    0.2950   -1.7235 C   0  0  0  0  0  0  0  0  0  0  0  0
    2.9655   -3.3492    1.8476 H   0  0  0  0  0  0  0  0  0  0  0  0
    3.9887   -3.8220    0.4805 H   0  0  0  0  0  0  0  0  0  0  0  0
    2.7080   -2.6228    0.2547 H   0  0  0  0  0  0  0  0  0  0  0  0
    5.1626   -2.2716    2.0651 H   0  0  0  0  0  0  0  0  0  0  0  0
    3.9411   -1.0577    1.8410 H   0  0  0  0  0  0  0  0  0  0  0  0
    6.9393   -2.5719    0.6165 H   0  0  0  0  0  0  0  0  0  0  0  0
    8.2692   -1.8545   -1.3225 H   0  0  0  0  0  0  0  0  0  0  0  0
    7.3661   -0.2009   -2.9029 H   0  0  0  0  0  0  0  0  0  0  0  0
    4.3593    1.8091   -2.4023 H   0  0  0  0  0  0  0  0  0  0  0  0
    4.6249    0.6637   -3.7594 H   0  0  0  0  0  0  0  0  0  0  0  0
    5.9303    1.6918   -3.1514 H   0  0  0  0  0  0  0  0  0  0  0  0
    2.9604   -0.1465    0.3243 H   0  0  0  0  0  0  0  0  0  0  0  0
    1.8571    1.8635    0.5826 H   0  0  0  0  0  0  0  0  0  0  0  0
   -0.3491    2.5745    1.4069 H   0  0  0  0  0  0  0  0  0  0  0  0
   -2.7952    3.0936    0.3346 H   0  0  0  0  0  0  0  0  0  0  0  0
   -3.5992    1.6832   -0.3243 H   0  0  0  0  0  0  0  0  0  0  0  0
   -4.3022    1.9976    3.4025 H   0  0  0  0  0  0  0  0  0  0  0  0
   -4.0148    3.3635    2.3581 H   0  0  0  0  0  0  0  0  0  0  0  0
   -6.3781    2.3834    2.3202 H   0  0  0  0  0  0  0  0  0  0  0  0
   -5.6312    2.6185    0.7319 H   0  0  0  0  0  0  0  0  0  0  0  0
   -7.8924    0.8458    0.8447 H   0  0  0  0  0  0  0  0  0  0  0  0
   -8.2470   -1.5166    0.2152 H   0  0  0  0  0  0  0  0  0  0  0  0
   -6.3662   -3.1289    0.3141 H   0  0  0  0  0  0  0  0  0  0  0  0
   -4.1280   -2.3841    1.0434 H   0  0  0  0  0  0  0  0  0  0  0  0
   -3.2743   -0.1886    2.8958 H   0  0  0  0  0  0  0  0  0  0  0  0
   -2.5748   -0.4579    1.3174 H   0  0  0  0  0  0  0  0  0  0  0  0
   -2.2570    0.3975   -1.7908 H   0  0  0  0  0  0  0  0  0  0  0  0
   -0.0500   -0.3376   -2.6070 H   0  0  0  0  0  0  0  0  0  0  0  0
  1  2  1  0
  2  3  1  0
  3  4  2  0
  4  5  1  0
  5  6  2  0
  6  7  1  0
  7  8  1  0
  7  9  2  0
  9 10  1  0
 10 11  1  0
 11 12  2  0
 11 13  1  0
 13 14  2  0
 14 15  1  0
 15 16  2  0
 16 17  1  0
 17 18  1  0
 18 19  1  0
 19 20  1  0
 20 21  1  0
 21 22  2  0
 22 23  1  0
 23 24  2  0
 24 25  1  0
 25 26  2  0
 26 27  1  0
 16 28  1  0
 28 29  2  0
  9  3  1  0
 29 13  1  0
 27 18  1  0
 26 21  1  0
  1 30  1  0
  1 31  1  0
  1 32  1  0
  2 33  1  0
  2 34  1  0
  4 35  1  0
  5 36  1  0
  6 37  1  0
  8 38  1  0
  8 39  1  0
  8 40  1  0
 10 41  1  0
 14 42  1  0
 15 43  1  0
 17 44  1  0
 17 45  1  0
 19 46  1  0
 19 47  1  0
 20 48  1  0
 20 49  1  0
 22 50  1  0
 23 51  1  0
 24 52  1  0
 25 53  1  0
 27 54  1  0
 27 55  1  0
 28 56  1  0
 29 57  1  0
M  END
$$$$
