
     RDKit          3D

 49 51  0  0  0  0  0  0  0  0999 V2000
   -4.6057   -2.8638   -3.0548 C   0  0  0  0  0  0  0  0  0  0  0  0
   -5.3177   -1.9597   -2.2200 O   0  0  0  0  0  0  0  0  0  0  0  0
   -4.5960   -1.2602   -1.2887 C   0  0  0  0  0  0  0  0  0  0  0  0
   -3.2036   -1.1958   -1.2457 C   0  0  0  0  0  0  0  0  0  0  0  0
   -2.5631   -0.4391   -0.2537 C   0  0  0  0  0  0  0  0  0  0  0  0
   -1.0766   -0.4018   -0.2591 C   0  0  0  0  0  0  0  0  0  0  0  0
   -0.4355   -1.3663   -0.6672 O   0  0  0  0  0  0  0  0  0  0  0  0
   -0.4902    0.7821    0.1690 N   0  0  0  0  0  0  0  0  0  0  0  0
    0.8562    1.0826    0.3352 C   0  0  0  0  0  0  0  0  0  0  0  0
    1.1795    2.6360    0.8495 S   0  0  0  0  0  0  0  0  0  0  0  0
    1.7115    0.0460    0.0445 N   0  0  0  0  0  0  0  0  0  0  0  0
    3.1124   -0.1175    0.1111 C   0  0  0  0  0  0  0  0  0  0  0  0
    3.6040   -1.3560   -0.3849 C   0  0  0  0  0  0  0  0  0  0  0  0
    4.9691   -1.6693   -0.3845 C   0  0  0  0  0  0  0  0  0  0  0  0
    5.8254   -0.7211    0.1270 C   0  0  0  0  0  0  0  0  0  0  0  0
    5.3615    0.4837    0.6178 C   0  0  0  0  0  0  0  0  0  0  0  0
    4.0160    0.8156    0.6254 C   0  0  0  0  0  0  0  0  0  0  0  0
    6.5223    1.2446    1.0811 C   0  0  0  0  0  0  0  0  0  0  0  0
    6.4649    2.3621    1.5561 O   0  0  0  0  0  0  0  0  0  0  0  0
    7.6169    0.4547    0.8596 N   0  0  0  0  0  0  0  0  0  0  0  0
    8.9722    0.8522    1.1482 C   0  0  0  0  0  0  0  0  0  0  0  0
    7.2796   -0.7324    0.2715 C   0  0  0  0  0  0  0  0  0  0  0  0
    7.9954   -1.6468   -0.0887 O   0  0  0  0  0  0  0  0  0  0  0  0
   -3.3096    0.2331    0.7255 C   0  0  0  0  0  0  0  0  0  0  0  0
   -4.7041    0.1785    0.6955 C   0  0  0  0  0  0  0  0  0  0  0  0
   -5.5290    0.8044    1.5933 O   0  0  0  0  0  0  0  0  0  0  0  0
   -4.9421    1.3237    2.7788 C   0  0  0  0  0  0  0  0  0  0  0  0
   -5.3369   -0.5479   -0.3295 C   0  0  0  0  0  0  0  0  0  0  0  0
   -6.7116   -0.6390   -0.3355 O   0  0  0  0  0  0  0  0  0  0  0  0
   -7.2639    0.3982   -1.1444 C   0  0  0  0  0  0  0  0  0  0  0  0
   -5.3384   -3.4138   -3.6532 H   0  0  0  0  0  0  0  0  0  0  0  0
   -4.0427   -3.5938   -2.4635 H   0  0  0  0  0  0  0  0  0  0  0  0
   -3.9504   -2.3239   -3.7458 H   0  0  0  0  0  0  0  0  0  0  0  0
   -2.5917   -1.7172   -1.9762 H   0  0  0  0  0  0  0  0  0  0  0  0
   -1.0901    1.5718    0.3672 H   0  0  0  0  0  0  0  0  0  0  0  0
    1.2168   -0.7694   -0.3250 H   0  0  0  0  0  0  0  0  0  0  0  0
    2.9106   -2.0958   -0.7857 H   0  0  0  0  0  0  0  0  0  0  0  0
    5.3374   -2.6151   -0.7680 H   0  0  0  0  0  0  0  0  0  0  0  0
    3.7326    1.7729    1.0378 H   0  0  0  0  0  0  0  0  0  0  0  0
    9.5668   -0.0223    1.4267 H   0  0  0  0  0  0  0  0  0  0  0  0
    9.3989    1.2955    0.2436 H   0  0  0  0  0  0  0  0  0  0  0  0
    8.9890    1.5930    1.9520 H   0  0  0  0  0  0  0  0  0  0  0  0
   -2.7979    0.7717    1.5148 H   0  0  0  0  0  0  0  0  0  0  0  0
   -5.7509    1.6730    3.4276 H   0  0  0  0  0  0  0  0  0  0  0  0
   -4.3018    2.1825    2.5532 H   0  0  0  0  0  0  0  0  0  0  0  0
   -4.3889    0.5500    3.3217 H   0  0  0  0  0  0  0  0  0  0  0  0
   -8.3532    0.2992   -1.1174 H   0  0  0  0  0  0  0  0  0  0  0  0
   -6.9424    0.3060   -2.1874 H   0  0  0  0  0  0  0  0  0  0  0  0
   -7.0052    1.3889   -0.7547 H   0  0  0  0  0  0  0  0  0  0  0  0
  1  2  1  0
  2  3  1  0
  3  4  2  0
  4  5  1  0
  5  6  1  0
  6  7  2  0
  6  8  1  0
  8  9  1  0
  9 10  2  0
  9 11  1  0
 11 12  1  0
 12 13  2  0
 13 14  1  0
 14 15  2  0
 15 16  1  0
 16 17  2  0
 16 18  1  0
 18 19  2  0
 18 20  1  0
 20 21  1  0
 20 22  1  0
 22 23  2  0
  5 24  2  0
 24 25  1  0
 25 26  1  0
 26 27  1  0
 25 28  2  0
 28 29  1  0
 29 30  1  0
 28  3  1  0
 17 12  1  0
 22 15  1  0
  1 31  1  0
  1 32  1  0
  1 33  1  0
  4 34  1  0
  8 35  1  0
 11 36  1  0
 13 37  1  0
 14 38  1  0
 17 39  1  0
 21 40  1  0
 21 41  1  0
 21 42  1  0
 24 43  1  0
 27 44  1  0
 27 45  1  0
 27 46  1  0
 30 47  1  0
 30 48  1  0
 30 49  1  0
M  END
$$$$
