
     RDKit          3D

 62 64  0  0  0  0  0  0  0  0999 V2000
    4.6826   -1.7784    1.9109 C   0  0  0  0  0  0  0  0  0  0  0  0
    5.9002   -1.2556    1.1903 C   0  0  0  0  0  0  0  0  0  0  0  0
    7.1432   -1.3836    1.8337 C   0  0  0  0  0  0  0  0  0  0  0  0
    8.3082   -0.9452    1.2187 C   0  0  0  0  0  0  0  0  0  0  0  0
    8.2389   -0.3425   -0.0323 C   0  0  0  0  0  0  0  0  0  0  0  0
    7.0073   -0.1699   -0.6958 C   0  0  0  0  0  0  0  0  0  0  0  0
    7.0528    0.6098   -1.9827 C   0  0  0  0  0  0  0  0  0  0  0  0
    5.8306   -0.6817   -0.1062 C   0  0  0  0  0  0  0  0  0  0  0  0
    4.5498   -0.6086   -0.7071 N   0  0  0  0  0  0  0  0  0  0  0  0
    4.2376   -0.7590   -2.0467 C   0  0  0  0  0  0  0  0  0  0  0  0
    5.0180   -1.0502   -2.9489 O   0  0  0  0  0  0  0  0  0  0  0  0
    2.7359   -0.6150   -2.3382 C   0  0  0  0  0  0  0  0  0  0  0  0
    2.1566    0.6337   -1.9541 O   0  0  0  0  0  0  0  0  0  0  0  0
    1.8083    0.7387   -0.6443 C   0  0  0  0  0  0  0  0  0  0  0  0
    2.0010   -0.1319    0.1955 O   0  0  0  0  0  0  0  0  0  0  0  0
    1.1999    2.0850   -0.3574 C   0  0  0  0  0  0  0  0  0  0  0  0
   -0.1759    2.2396   -0.9955 C   0  0  0  0  0  0  0  0  0  0  0  0
   -1.2293    1.3812   -0.3349 C   0  0  0  0  0  0  0  0  0  0  0  0
   -1.7763    1.7616    0.9000 C   0  0  0  0  0  0  0  0  0  0  0  0
   -2.7305    0.9610    1.5300 C   0  0  0  0  0  0  0  0  0  0  0  0
   -3.1523   -0.2206    0.9164 C   0  0  0  0  0  0  0  0  0  0  0  0
   -4.3433   -1.2614    1.7370 S   0  0  0  0  0  6  0  0  0  0  0  0
   -4.2726   -0.9666    3.1529 O   0  0  0  0  0  0  0  0  0  0  0  0
   -4.1510   -2.6101    1.2467 O   0  0  0  0  0  0  0  0  0  0  0  0
   -5.8362   -0.6860    1.1468 N   0  0  0  0  0  0  0  0  0  0  0  0
   -6.1244   -0.9408   -0.2850 C   0  0  0  0  0  0  0  0  0  0  0  0
   -7.6240   -0.7907   -0.5345 C   0  0  0  0  0  0  0  0  0  0  0  0
   -8.1267    0.5800   -0.0891 C   0  0  0  0  0  0  0  0  0  0  0  0
   -7.7411    0.8502    1.3631 C   0  0  0  0  0  0  0  0  0  0  0  0
   -6.2399    0.6731    1.5814 C   0  0  0  0  0  0  0  0  0  0  0  0
   -2.6000   -0.6246   -0.3019 C   0  0  0  0  0  0  0  0  0  0  0  0
   -1.6461    0.1806   -0.9282 C   0  0  0  0  0  0  0  0  0  0  0  0
    3.9835   -0.9632    2.1169 H   0  0  0  0  0  0  0  0  0  0  0  0
    4.9458   -2.2319    2.8728 H   0  0  0  0  0  0  0  0  0  0  0  0
    4.1877   -2.5508    1.3137 H   0  0  0  0  0  0  0  0  0  0  0  0
    7.2099   -1.8394    2.8195 H   0  0  0  0  0  0  0  0  0  0  0  0
    9.2670   -1.0585    1.7179 H   0  0  0  0  0  0  0  0  0  0  0  0
    9.1585    0.0209   -0.4884 H   0  0  0  0  0  0  0  0  0  0  0  0
    7.2651   -0.0526   -2.8261 H   0  0  0  0  0  0  0  0  0  0  0  0
    6.1273    1.1677   -2.1552 H   0  0  0  0  0  0  0  0  0  0  0  0
    7.8475    1.3653   -1.9443 H   0  0  0  0  0  0  0  0  0  0  0  0
    3.7571   -0.7419   -0.0808 H   0  0  0  0  0  0  0  0  0  0  0  0
    2.6036   -0.6950   -3.4236 H   0  0  0  0  0  0  0  0  0  0  0  0
    2.1943   -1.4605   -1.8956 H   0  0  0  0  0  0  0  0  0  0  0  0
    1.1572    2.2192    0.7296 H   0  0  0  0  0  0  0  0  0  0  0  0
    1.8859    2.8503   -0.7387 H   0  0  0  0  0  0  0  0  0  0  0  0
   -0.4912    3.2882   -0.9231 H   0  0  0  0  0  0  0  0  0  0  0  0
   -0.1344    2.0141   -2.0685 H   0  0  0  0  0  0  0  0  0  0  0  0
   -1.4524    2.6803    1.3857 H   0  0  0  0  0  0  0  0  0  0  0  0
   -3.1310    1.2589    2.4968 H   0  0  0  0  0  0  0  0  0  0  0  0
   -5.8296   -1.9576   -0.5633 H   0  0  0  0  0  0  0  0  0  0  0  0
   -5.5676   -0.2355   -0.9123 H   0  0  0  0  0  0  0  0  0  0  0  0
   -7.8395   -0.9357   -1.5993 H   0  0  0  0  0  0  0  0  0  0  0  0
   -8.1667   -1.5707    0.0154 H   0  0  0  0  0  0  0  0  0  0  0  0
   -7.6974    1.3568   -0.7343 H   0  0  0  0  0  0  0  0  0  0  0  0
   -9.2154    0.6318   -0.2017 H   0  0  0  0  0  0  0  0  0  0  0  0
   -8.2902    0.1600    2.0166 H   0  0  0  0  0  0  0  0  0  0  0  0
   -8.0396    1.8669    1.6421 H   0  0  0  0  0  0  0  0  0  0  0  0
   -6.0270    0.8175    2.6450 H   0  0  0  0  0  0  0  0  0  0  0  0
   -5.6873    1.4298    1.0134 H   0  0  0  0  0  0  0  0  0  0  0  0
   -2.8993   -1.5636   -0.7625 H   0  0  0  0  0  0  0  0  0  0  0  0
   -1.2230   -0.1430   -1.8772 H   0  0  0  0  0  0  0  0  0  0  0  0
  1  2  1  0
  2  3  2  0
  3  4  1  0
  4  5  2  0
  5  6  1  0
  6  7  1  0
  6  8  2  0
  8  9  1  0
  9 10  1  0
 10 11  2  0
 10 12  1  0
 12 13  1  0
 13 14  1  0
 14 15  2  0
 14 16  1  0
 16 17  1  0
 17 18  1  0
 18 19  2  0
 19 20  1  0
 20 21  2  0
 21 22  1  0
 22 23  2  0
 22 24  2  0
 22 25  1  0
 25 26  1  0
 26 27  1  0
 27 28  1  0
 28 29  1  0
 29 30  1  0
 21 31  1  0
 31 32  2  0
  8  2  1  0
 32 18  1  0
 30 25  1  0
  1 33  1  0
  1 34  1  0
  1 35  1  0
  3 36  1  0
  4 37  1  0
  5 38  1  0
  7 39  1  0
  7 40  1  0
  7 41  1  0
  9 42  1  0
 12 43  1  0
 12 44  1  0
 16 45  1  0
 16 46  1  0
 17 47  1  0
 17 48  1  0
 19 49  1  0
 20 50  1  0
 26 51  1  0
 26 52  1  0
 27 53  1  0
 27 54  1  0
 28 55  1  0
 28 56  1  0
 29 57  1  0
 29 58  1  0
 30 59  1  0
 30 60  1  0
 31 61  1  0
 32 62  1  0
M  END
$$$$
