
     RDKit          3D

 50 50  0  0  0  0  0  0  0  0999 V2000
    8.4965   -0.2687    2.1457 C   0  0  0  0  0  0  0  0  0  0  0  0
    7.7175    0.6700    1.5748 C   0  0  0  0  0  0  0  0  0  0  0  0
    6.9019    1.6229    2.4064 C   0  0  0  0  0  0  0  0  0  0  0  0
    7.6682    0.8675    0.0797 C   0  0  0  0  0  0  0  0  0  0  0  0
    6.5175   -0.2898   -0.7007 S   0  0  0  0  0  0  0  0  0  0  0  0
    5.0069    0.5338   -0.5011 C   0  0  0  0  0  0  0  0  0  0  0  0
    4.8581    1.8288   -0.3119 N   0  0  0  0  0  0  0  0  0  0  0  0
    3.5034    2.0665   -0.1949 N   0  0  0  0  0  0  0  0  0  0  0  0
    2.9179    0.8975   -0.3340 C   0  0  0  0  0  0  0  0  0  0  0  0
    1.4790    0.5479   -0.2957 C   0  0  0  0  0  0  0  0  0  0  0  0
    0.7529    1.0412   -1.5452 C   0  0  0  0  0  0  0  0  0  0  0  0
   -0.7615    0.8009   -1.5243 C   0  0  0  0  0  0  0  0  0  0  0  0
   -1.1670   -0.6797   -1.5577 C   0  0  0  0  0  0  0  0  0  0  0  0
   -1.4985   -1.2647   -0.1839 C   0  0  0  0  0  0  0  0  0  0  0  0
   -2.7189   -0.7255    0.3661 N   0  0  0  0  0  0  0  0  0  0  0  0
   -3.9511   -1.2145    0.0473 C   0  0  0  0  0  0  0  0  0  0  0  0
   -4.1560   -2.1682   -0.6852 O   0  0  0  0  0  0  0  0  0  0  0  0
   -4.8886   -0.4667    0.6717 O   0  0  0  0  0  0  0  0  0  0  0  0
   -6.2974   -0.7722    0.5162 C   0  0  0  0  0  0  0  0  0  0  0  0
   -7.0233    0.2843    1.3626 C   0  0  0  0  0  0  0  0  0  0  0  0
   -6.7436   -0.6200   -0.9424 C   0  0  0  0  0  0  0  0  0  0  0  0
   -6.6287   -2.1600    1.0770 C   0  0  0  0  0  0  0  0  0  0  0  0
    3.8045   -0.1233   -0.5313 O   0  0  0  0  0  0  0  0  0  0  0  0
    9.0978   -0.9494    1.5511 H   0  0  0  0  0  0  0  0  0  0  0  0
    8.5405   -0.3960    3.2220 H   0  0  0  0  0  0  0  0  0  0  0  0
    5.8318    1.4843    2.2254 H   0  0  0  0  0  0  0  0  0  0  0  0
    7.1664    2.6604    2.1681 H   0  0  0  0  0  0  0  0  0  0  0  0
    7.0748    1.4802    3.4772 H   0  0  0  0  0  0  0  0  0  0  0  0
    8.6598    0.6642   -0.3438 H   0  0  0  0  0  0  0  0  0  0  0  0
    7.4415    1.9065   -0.1826 H   0  0  0  0  0  0  0  0  0  0  0  0
    1.0290    0.9914    0.5981 H   0  0  0  0  0  0  0  0  0  0  0  0
    1.3786   -0.5389   -0.2052 H   0  0  0  0  0  0  0  0  0  0  0  0
    1.1852    0.5682   -2.4356 H   0  0  0  0  0  0  0  0  0  0  0  0
    0.9223    2.1209   -1.6617 H   0  0  0  0  0  0  0  0  0  0  0  0
   -1.2099    1.3178   -0.6685 H   0  0  0  0  0  0  0  0  0  0  0  0
   -1.1723    1.2807   -2.4220 H   0  0  0  0  0  0  0  0  0  0  0  0
   -2.0488   -0.7824   -2.2036 H   0  0  0  0  0  0  0  0  0  0  0  0
   -0.3725   -1.2746   -2.0232 H   0  0  0  0  0  0  0  0  0  0  0  0
   -0.7051   -1.0722    0.5421 H   0  0  0  0  0  0  0  0  0  0  0  0
   -1.6105   -2.3507   -0.2756 H   0  0  0  0  0  0  0  0  0  0  0  0
   -2.7090    0.1031    0.9433 H   0  0  0  0  0  0  0  0  0  0  0  0
   -6.6970    0.2370    2.4097 H   0  0  0  0  0  0  0  0  0  0  0  0
   -6.7891    1.2964    1.0107 H   0  0  0  0  0  0  0  0  0  0  0  0
   -8.1105    0.1496    1.3325 H   0  0  0  0  0  0  0  0  0  0  0  0
   -7.8326   -0.6710   -1.0340 H   0  0  0  0  0  0  0  0  0  0  0  0
   -6.4044    0.3370   -1.3540 H   0  0  0  0  0  0  0  0  0  0  0  0
   -6.3249   -1.4026   -1.5822 H   0  0  0  0  0  0  0  0  0  0  0  0
   -7.7118   -2.3278    1.1160 H   0  0  0  0  0  0  0  0  0  0  0  0
   -6.2214   -2.2795    2.0872 H   0  0  0  0  0  0  0  0  0  0  0  0
   -6.1977   -2.9606    0.4693 H   0  0  0  0  0  0  0  0  0  0  0  0
  1  2  2  0
  2  3  1  0
  2  4  1  0
  4  5  1  0
  5  6  1  0
  6  7  2  0
  7  8  1  0
  8  9  2  0
  9 10  1  0
 10 11  1  0
 11 12  1  0
 12 13  1  0
 13 14  1  0
 14 15  1  0
 15 16  1  0
 16 17  2  0
 16 18  1  0
 18 19  1  0
 19 20  1  0
 19 21  1  0
 19 22  1  0
  9 23  1  0
 23  6  1  0
  1 24  1  0
  1 25  1  0
  3 26  1  0
  3 27  1  0
  3 28  1  0
  4 29  1  0
  4 30  1  0
 10 31  1  0
 10 32  1  0
 11 33  1  0
 11 34  1  0
 12 35  1  0
 12 36  1  0
 13 37  1  0
 13 38  1  0
 14 39  1  0
 14 40  1  0
 15 41  1  0
 20 42  1  0
 20 43  1  0
 20 44  1  0
 21 45  1  0
 21 46  1  0
 21 47  1  0
 22 48  1  0
 22 49  1  0
 22 50  1  0
M  END
$$$$
