
     RDKit          3D

 39 41  0  0  0  0  0  0  0  0999 V2000
    0.3050   -1.9210   -0.2690 O   0  0  0  0  0  0  0  0  0  0  0  0
    0.0733   -0.7156   -0.2873 C   0  0  0  0  0  0  0  0  0  0  0  0
    1.0687    0.2317   -0.3311 N   0  0  0  0  0  0  0  0  0  0  0  0
    2.4804   -0.1052   -0.3989 C   0  0  0  0  0  0  0  0  0  0  0  0
    2.9740   -0.7404    0.9140 C   0  0  0  0  0  0  0  0  0  0  0  0
    4.4714   -0.5467    1.1663 C   0  0  0  0  0  0  0  0  0  0  0  0
    5.2538   -0.4144   -0.1333 C   0  0  0  0  0  0  0  0  0  0  0  0
    4.7888    0.7887   -0.9544 C   0  0  0  0  0  0  0  0  0  0  0  0
    3.3104    1.1293   -0.7549 C   0  0  0  0  0  0  0  0  0  0  0  0
   -1.3405   -0.2187   -0.2529 C   0  0  0  0  0  0  0  0  0  0  0  0
   -2.3484   -1.1830   -0.0862 C   0  0  0  0  0  0  0  0  0  0  0  0
   -3.7054   -0.8246   -0.0359 C   0  0  0  0  0  0  0  0  0  0  0  0
   -4.7095   -1.7904    0.1183 C   0  0  0  0  0  0  0  0  0  0  0  0
   -6.0542   -1.4211    0.1631 C   0  0  0  0  0  0  0  0  0  0  0  0
   -6.4101   -0.0802    0.0699 C   0  0  0  0  0  0  0  0  0  0  0  0
   -5.4233    0.8933   -0.0841 C   0  0  0  0  0  0  0  0  0  0  0  0
   -4.0664    0.5362   -0.1461 C   0  0  0  0  0  0  0  0  0  0  0  0
   -3.0624    1.5021   -0.3248 C   0  0  0  0  0  0  0  0  0  0  0  0
   -1.7150    1.1270   -0.3784 C   0  0  0  0  0  0  0  0  0  0  0  0
   -0.7755    2.1105   -0.5628 O   0  0  0  0  0  0  0  0  0  0  0  0
    0.7803    1.2045   -0.3779 H   0  0  0  0  0  0  0  0  0  0  0  0
    2.5893   -0.8410   -1.2046 H   0  0  0  0  0  0  0  0  0  0  0  0
    2.7505   -1.8150    0.8877 H   0  0  0  0  0  0  0  0  0  0  0  0
    2.4215   -0.3401    1.7755 H   0  0  0  0  0  0  0  0  0  0  0  0
    4.8559   -1.3869    1.7565 H   0  0  0  0  0  0  0  0  0  0  0  0
    4.6236    0.3558    1.7717 H   0  0  0  0  0  0  0  0  0  0  0  0
    5.1258   -1.3309   -0.7263 H   0  0  0  0  0  0  0  0  0  0  0  0
    6.3267   -0.3246    0.0745 H   0  0  0  0  0  0  0  0  0  0  0  0
    5.3904    1.6703   -0.6992 H   0  0  0  0  0  0  0  0  0  0  0  0
    4.9822    0.5844   -2.0162 H   0  0  0  0  0  0  0  0  0  0  0  0
    2.9239    1.6117   -1.6605 H   0  0  0  0  0  0  0  0  0  0  0  0
    3.2147    1.8758    0.0458 H   0  0  0  0  0  0  0  0  0  0  0  0
   -2.0671   -2.2319    0.0046 H   0  0  0  0  0  0  0  0  0  0  0  0
   -4.4486   -2.8443    0.2036 H   0  0  0  0  0  0  0  0  0  0  0  0
   -6.8215   -2.1819    0.2717 H   0  0  0  0  0  0  0  0  0  0  0  0
   -7.4571    0.2087    0.1114 H   0  0  0  0  0  0  0  0  0  0  0  0
   -5.7246    1.9357   -0.1581 H   0  0  0  0  0  0  0  0  0  0  0  0
   -3.3472    2.5468   -0.4271 H   0  0  0  0  0  0  0  0  0  0  0  0
   -1.2336    2.9456   -0.7663 H   0  0  0  0  0  0  0  0  0  0  0  0
  1  2  2  0
  2  3  1  0
  3  4  1  0
  4  5  1  0
  5  6  1  0
  6  7  1  0
  7  8  1  0
  8  9  1  0
  2 10  1  0
 10 11  2  0
 11 12  1  0
 12 13  2  0
 13 14  1  0
 14 15  2  0
 15 16  1  0
 16 17  2  0
 17 18  1  0
 18 19  2  0
 19 20  1  0
  9  4  1  0
 19 10  1  0
 17 12  1  0
  3 21  1  0
  4 22  1  0
  5 23  1  0
  5 24  1  0
  6 25  1  0
  6 26  1  0
  7 27  1  0
  7 28  1  0
  8 29  1  0
  8 30  1  0
  9 31  1  0
  9 32  1  0
 11 33  1  0
 13 34  1  0
 14 35  1  0
 15 36  1  0
 16 37  1  0
 18 38  1  0
 20 39  1  0
M  END
$$$$
