
     RDKit          3D

 43 45  0  0  0  0  0  0  0  0999 V2000
   -6.4961   -1.8414    0.9270 C   0  0  0  0  0  0  0  0  0  0  0  0
   -7.0082   -0.8017    0.2523 C   0  0  0  0  0  0  0  0  0  0  0  0
   -6.3176    0.4561   -0.2147 C   0  0  0  0  0  0  0  0  0  0  0  0
   -4.9062    0.4832    0.1345 N   0  0  0  0  0  0  0  0  0  0  0  0
   -4.5487    1.0600    1.3446 C   0  0  0  0  0  0  0  0  0  0  0  0
   -5.3419    1.5695    2.1332 O   0  0  0  0  0  0  0  0  0  0  0  0
   -3.2219    1.0542    1.6495 N   0  0  0  0  0  0  0  0  0  0  0  0
   -2.2428    0.5282    0.8280 C   0  0  0  0  0  0  0  0  0  0  0  0
   -0.9693    0.5867    1.2668 N   0  0  0  0  0  0  0  0  0  0  0  0
   -0.0265    0.0696    0.4483 C   0  0  0  0  0  0  0  0  0  0  0  0
    1.3049    0.0947    0.8347 C   0  0  0  0  0  0  0  0  0  0  0  0
    2.3179   -0.4170    0.0175 C   0  0  0  0  0  0  0  0  0  0  0  0
    3.6460   -0.3813    0.4657 N   0  0  0  0  0  0  0  0  0  0  0  0
    4.3036    0.7032    0.2140 C   0  0  0  0  0  0  0  0  0  0  0  0
    5.6110    0.9575    0.5611 N   0  0  0  0  0  0  0  0  0  0  0  0
    6.4346   -0.1294    1.0740 C   0  0  0  0  0  0  0  0  0  0  0  0
    6.3250    2.0671   -0.0492 C   0  0  0  0  0  0  0  0  0  0  0  0
    1.9829   -0.9997   -1.2112 C   0  0  0  0  0  0  0  0  0  0  0  0
    3.0408   -1.5858   -2.1024 C   0  0  0  0  0  0  0  0  0  0  0  0
    0.6379   -1.0209   -1.6085 C   0  0  0  0  0  0  0  0  0  0  0  0
   -0.3672   -0.4989   -0.8063 C   0  0  0  0  0  0  0  0  0  0  0  0
   -1.6419   -0.5447   -1.2333 N   0  0  0  0  0  0  0  0  0  0  0  0
   -2.5708   -0.0234   -0.3930 C   0  0  0  0  0  0  0  0  0  0  0  0
   -3.9949   -0.0352   -0.7930 C   0  0  0  0  0  0  0  0  0  0  0  0
   -4.3202   -0.4754   -1.8937 O   0  0  0  0  0  0  0  0  0  0  0  0
   -5.4569   -1.8932    1.2306 H   0  0  0  0  0  0  0  0  0  0  0  0
   -7.1260   -2.6855    1.1936 H   0  0  0  0  0  0  0  0  0  0  0  0
   -8.0651   -0.8465   -0.0083 H   0  0  0  0  0  0  0  0  0  0  0  0
   -6.4338    0.5373   -1.3013 H   0  0  0  0  0  0  0  0  0  0  0  0
   -6.8267    1.3203    0.2273 H   0  0  0  0  0  0  0  0  0  0  0  0
   -2.9344    1.4582    2.5300 H   0  0  0  0  0  0  0  0  0  0  0  0
    1.5694    0.5198    1.7998 H   0  0  0  0  0  0  0  0  0  0  0  0
    3.8377    1.5488   -0.3282 H   0  0  0  0  0  0  0  0  0  0  0  0
    7.3601    0.2522    1.5182 H   0  0  0  0  0  0  0  0  0  0  0  0
    6.6990   -0.8208    0.2671 H   0  0  0  0  0  0  0  0  0  0  0  0
    5.9086   -0.6859    1.8571 H   0  0  0  0  0  0  0  0  0  0  0  0
    7.2056    2.3420    0.5409 H   0  0  0  0  0  0  0  0  0  0  0  0
    6.6520    1.7997   -1.0592 H   0  0  0  0  0  0  0  0  0  0  0  0
    5.6874    2.9554   -0.1132 H   0  0  0  0  0  0  0  0  0  0  0  0
    3.6977   -0.7957   -2.4798 H   0  0  0  0  0  0  0  0  0  0  0  0
    2.5996   -2.0961   -2.9651 H   0  0  0  0  0  0  0  0  0  0  0  0
    3.6363   -2.3243   -1.5559 H   0  0  0  0  0  0  0  0  0  0  0  0
    0.3590   -1.4606   -2.5645 H   0  0  0  0  0  0  0  0  0  0  0  0
  1  2  2  0
  2  3  1  0
  3  4  1  0
  4  5  1  0
  5  6  2  0
  5  7  1  0
  7  8  1  0
  8  9  2  0
  9 10  1  0
 10 11  2  0
 11 12  1  0
 12 13  1  0
 13 14  2  3
 14 15  1  0
 15 16  1  0
 15 17  1  0
 12 18  2  0
 18 19  1  0
 18 20  1  0
 20 21  2  0
 21 22  1  0
 22 23  2  0
 23 24  1  0
 24 25  2  0
 24  4  1  0
 23  8  1  0
 21 10  1  0
  1 26  1  0
  1 27  1  0
  2 28  1  0
  3 29  1  0
  3 30  1  0
  7 31  1  0
 11 32  1  0
 14 33  1  0
 16 34  1  0
 16 35  1  0
 16 36  1  0
 17 37  1  0
 17 38  1  0
 17 39  1  0
 19 40  1  0
 19 41  1  0
 19 42  1  0
 20 43  1  0
M  END
$$$$
