
     RDKit          3D

 49 52  0  0  0  0  0  0  0  0999 V2000
    7.7675   -0.7584   -1.4234 C   0  0  0  0  0  0  0  0  0  0  0  0
    7.0602    0.5224   -1.0078 C   0  0  0  0  0  0  0  0  0  0  0  0
    5.6099    0.2802   -0.6787 C   0  0  0  0  0  0  0  0  0  0  0  0
    4.6286    0.3589   -1.6734 C   0  0  0  0  0  0  0  0  0  0  0  0
    3.2805    0.1178   -1.3731 C   0  0  0  0  0  0  0  0  0  0  0  0
    2.8778   -0.2092   -0.0715 C   0  0  0  0  0  0  0  0  0  0  0  0
    1.4786   -0.4724    0.3156 C   0  0  0  0  0  0  0  0  0  0  0  0
    0.3826   -0.3475   -0.7279 C   0  0  0  0  0  0  0  0  0  0  0  0
   -0.9929   -0.3753   -0.2042 N   0  0  0  0  0  0  0  0  0  0  0  0
   -1.9371   -0.7854   -1.2566 C   0  0  0  0  0  0  0  0  0  0  0  0
   -3.3813   -0.6153   -0.8745 C   0  0  0  0  0  0  0  0  0  0  0  0
   -3.7871    0.1169    0.1802 C   0  0  0  0  0  0  0  0  0  0  0  0
   -5.2149    0.2483    0.5362 C   0  0  0  0  0  0  0  0  0  0  0  0
   -5.6298    0.1640    1.8728 C   0  0  0  0  0  0  0  0  0  0  0  0
   -6.9779    0.3043    2.2153 C   0  0  0  0  0  0  0  0  0  0  0  0
   -7.9294    0.5368    1.2256 C   0  0  0  0  0  0  0  0  0  0  0  0
   -7.5341    0.6301   -0.1062 C   0  0  0  0  0  0  0  0  0  0  0  0
   -6.1862    0.4884   -0.4479 C   0  0  0  0  0  0  0  0  0  0  0  0
   -2.7653    0.8238    1.0388 C   0  0  0  0  0  0  0  0  0  0  0  0
   -1.3962    0.9322    0.3446 C   0  0  0  0  0  0  0  0  0  0  0  0
    1.2450   -0.8287    1.5902 C   0  0  0  0  0  0  0  0  0  0  0  0
    2.2850   -0.9358    2.6210 C   0  0  0  0  0  0  0  0  0  0  0  0
    2.0023   -1.2589    3.7692 O   0  0  0  0  0  0  0  0  0  0  0  0
    3.5791   -0.6449    2.2336 O   0  0  0  0  0  0  0  0  0  0  0  0
    3.8749   -0.2977    0.9021 C   0  0  0  0  0  0  0  0  0  0  0  0
    5.2223   -0.0594    0.6194 C   0  0  0  0  0  0  0  0  0  0  0  0
    7.7376   -1.5063   -0.6237 H   0  0  0  0  0  0  0  0  0  0  0  0
    8.8171   -0.5526   -1.6561 H   0  0  0  0  0  0  0  0  0  0  0  0
    7.3028   -1.1985   -2.3122 H   0  0  0  0  0  0  0  0  0  0  0  0
    7.1369    1.2655   -1.8108 H   0  0  0  0  0  0  0  0  0  0  0  0
    7.5672    0.9609   -0.1396 H   0  0  0  0  0  0  0  0  0  0  0  0
    4.9070    0.6072   -2.6961 H   0  0  0  0  0  0  0  0  0  0  0  0
    2.5660    0.1879   -2.1884 H   0  0  0  0  0  0  0  0  0  0  0  0
    0.5224   -1.1936   -1.4155 H   0  0  0  0  0  0  0  0  0  0  0  0
    0.5179    0.5680   -1.3184 H   0  0  0  0  0  0  0  0  0  0  0  0
   -1.7649   -0.2223   -2.1833 H   0  0  0  0  0  0  0  0  0  0  0  0
   -1.7708   -1.8463   -1.4796 H   0  0  0  0  0  0  0  0  0  0  0  0
   -4.1001   -1.1364   -1.5010 H   0  0  0  0  0  0  0  0  0  0  0  0
   -4.9102   -0.0296    2.6645 H   0  0  0  0  0  0  0  0  0  0  0  0
   -7.2824    0.2285    3.2559 H   0  0  0  0  0  0  0  0  0  0  0  0
   -8.9773    0.6459    1.4923 H   0  0  0  0  0  0  0  0  0  0  0  0
   -8.2729    0.8167   -0.8810 H   0  0  0  0  0  0  0  0  0  0  0  0
   -5.9005    0.5822   -1.4928 H   0  0  0  0  0  0  0  0  0  0  0  0
   -3.1088    1.8367    1.2823 H   0  0  0  0  0  0  0  0  0  0  0  0
   -2.6450    0.2778    1.9831 H   0  0  0  0  0  0  0  0  0  0  0  0
   -1.4384    1.6910   -0.4490 H   0  0  0  0  0  0  0  0  0  0  0  0
   -0.6722    1.2891    1.0861 H   0  0  0  0  0  0  0  0  0  0  0  0
    0.2468   -1.0624    1.9446 H   0  0  0  0  0  0  0  0  0  0  0  0
    5.9598   -0.1446    1.4138 H   0  0  0  0  0  0  0  0  0  0  0  0
  1  2  1  0
  2  3  1  0
  3  4  2  0
  4  5  1  0
  5  6  2  0
  6  7  1  0
  7  8  1  0
  8  9  1  0
  9 10  1  0
 10 11  1  0
 11 12  2  0
 12 13  1  0
 13 14  2  0
 14 15  1  0
 15 16  2  0
 16 17  1  0
 17 18  2  0
 12 19  1  0
 19 20  1  0
  7 21  2  0
 21 22  1  0
 22 23  2  0
 22 24  1  0
 24 25  1  0
 25 26  2  0
 26  3  1  0
 25  6  1  0
 20  9  1  0
 18 13  1  0
  1 27  1  0
  1 28  1  0
  1 29  1  0
  2 30  1  0
  2 31  1  0
  4 32  1  0
  5 33  1  0
  8 34  1  0
  8 35  1  0
 10 36  1  0
 10 37  1  0
 11 38  1  0
 14 39  1  0
 15 40  1  0
 16 41  1  0
 17 42  1  0
 18 43  1  0
 19 44  1  0
 19 45  1  0
 20 46  1  0
 20 47  1  0
 21 48  1  0
 26 49  1  0
M  END
$$$$
