
     RDKit          3D

 52 55  0  0  0  0  0  0  0  0999 V2000
    3.2990    2.4355    0.3072 O   0  0  0  0  0  0  0  0  0  0  0  0
    3.2444    1.2587    0.6581 C   0  0  0  0  0  0  0  0  0  0  0  0
    2.3189    0.7918    1.5781 N   0  0  0  0  0  0  0  0  0  0  0  0
    1.2481    1.6843    1.8673 N   0  0  0  0  0  0  0  0  0  0  0  0
    0.0170    1.1732    1.3645 C   0  0  0  0  0  0  0  0  0  0  0  0
   -1.0995    1.9782    1.4199 C   0  0  0  0  0  0  0  0  0  0  0  0
   -2.2852    1.4536    0.9579 C   0  0  0  0  0  0  0  0  0  0  0  0
   -3.4544    2.1784    0.9799 N   0  0  0  0  0  0  0  0  0  0  0  0
   -3.5201    3.6335    1.0187 C   0  0  0  0  0  0  0  0  0  0  0  0
   -4.8642    3.9645    0.3686 C   0  0  0  0  0  0  0  0  0  0  0  0
   -5.6974    2.7165    0.6147 C   0  0  0  0  0  0  0  0  0  0  0  0
   -4.6777    1.5948    0.4429 C   0  0  0  0  0  0  0  0  0  0  0  0
   -2.3302    0.1917    0.4974 N   0  0  0  0  0  0  0  0  0  0  0  0
   -1.2124   -0.5482    0.4796 C   0  0  0  0  0  0  0  0  0  0  0  0
   -1.2833   -1.8353    0.0140 N   0  0  0  0  0  0  0  0  0  0  0  0
   -2.4355   -2.2812   -0.7520 C   0  0  0  0  0  0  0  0  0  0  0  0
   -1.8691   -3.3728   -1.6639 C   0  0  0  0  0  0  0  0  0  0  0  0
   -0.6348   -3.8622   -0.9197 C   0  0  0  0  0  0  0  0  0  0  0  0
   -0.0821   -2.5784   -0.3076 C   0  0  0  0  0  0  0  0  0  0  0  0
   -0.0304   -0.0926    0.9097 N   0  0  0  0  0  0  0  0  0  0  0  0
    4.1566    0.2415    0.0632 C   0  0  0  0  0  0  0  0  0  0  0  0
    4.7800    0.5420   -1.1575 C   0  0  0  0  0  0  0  0  0  0  0  0
    5.6436   -0.3784   -1.7596 C   0  0  0  0  0  0  0  0  0  0  0  0
    5.8900   -1.6052   -1.1303 C   0  0  0  0  0  0  0  0  0  0  0  0
    6.7940   -2.5781   -1.7580 N   0  0  0  0  0  4  0  0  0  0  0  0
    7.3300   -2.2599   -2.8286 O   0  0  0  0  0  0  0  0  0  0  0  0
    6.9627   -3.6614   -1.1806 O   0  0  0  0  0  1  0  0  0  0  0  0
    5.2830   -1.9108    0.0961 C   0  0  0  0  0  0  0  0  0  0  0  0
    4.4195   -0.9846    0.6924 C   0  0  0  0  0  0  0  0  0  0  0  0
    1.9983   -0.1755    1.5082 H   0  0  0  0  0  0  0  0  0  0  0  0
    1.4364    2.6000    1.4415 H   0  0  0  0  0  0  0  0  0  0  0  0
   -1.0387    2.9741    1.8340 H   0  0  0  0  0  0  0  0  0  0  0  0
   -3.4980    3.9774    2.0587 H   0  0  0  0  0  0  0  0  0  0  0  0
   -2.7080    4.1165    0.4642 H   0  0  0  0  0  0  0  0  0  0  0  0
   -5.3179    4.8688    0.7836 H   0  0  0  0  0  0  0  0  0  0  0  0
   -4.7298    4.1147   -0.7096 H   0  0  0  0  0  0  0  0  0  0  0  0
   -6.0855    2.7220    1.6404 H   0  0  0  0  0  0  0  0  0  0  0  0
   -6.5419    2.6255   -0.0738 H   0  0  0  0  0  0  0  0  0  0  0  0
   -4.5591    1.3521   -0.6203 H   0  0  0  0  0  0  0  0  0  0  0  0
   -4.9877    0.6970    0.9882 H   0  0  0  0  0  0  0  0  0  0  0  0
   -2.8954   -1.4937   -1.3600 H   0  0  0  0  0  0  0  0  0  0  0  0
   -3.1915   -2.6950   -0.0756 H   0  0  0  0  0  0  0  0  0  0  0  0
   -1.5730   -2.9368   -2.6258 H   0  0  0  0  0  0  0  0  0  0  0  0
   -2.5918   -4.1697   -1.8607 H   0  0  0  0  0  0  0  0  0  0  0  0
   -0.9288   -4.5630   -0.1289 H   0  0  0  0  0  0  0  0  0  0  0  0
    0.0864   -4.3608   -1.5729 H   0  0  0  0  0  0  0  0  0  0  0  0
    0.5277   -2.7937    0.5761 H   0  0  0  0  0  0  0  0  0  0  0  0
    0.5271   -2.0405   -1.0445 H   0  0  0  0  0  0  0  0  0  0  0  0
    4.5910    1.4977   -1.6459 H   0  0  0  0  0  0  0  0  0  0  0  0
    6.1116   -0.1226   -2.7084 H   0  0  0  0  0  0  0  0  0  0  0  0
    5.4769   -2.8555    0.6017 H   0  0  0  0  0  0  0  0  0  0  0  0
    3.9809   -1.2282    1.6575 H   0  0  0  0  0  0  0  0  0  0  0  0
  1  2  2  0
  2  3  1  0
  3  4  1  0
  4  5  1  0
  5  6  2  0
  6  7  1  0
  7  8  1  0
  8  9  1  0
  9 10  1  0
 10 11  1  0
 11 12  1  0
  7 13  2  0
 13 14  1  0
 14 15  1  0
 15 16  1  0
 16 17  1  0
 17 18  1  0
 18 19  1  0
 14 20  2  0
  2 21  1  0
 21 22  2  0
 22 23  1  0
 23 24  2  0
 24 25  1  0
 25 26  2  0
 25 27  1  0
 24 28  1  0
 28 29  2  0
 20  5  1  0
 29 21  1  0
 12  8  1  0
 19 15  1  0
  3 30  1  0
  4 31  1  0
  6 32  1  0
  9 33  1  0
  9 34  1  0
 10 35  1  0
 10 36  1  0
 11 37  1  0
 11 38  1  0
 12 39  1  0
 12 40  1  0
 16 41  1  0
 16 42  1  0
 17 43  1  0
 17 44  1  0
 18 45  1  0
 18 46  1  0
 19 47  1  0
 19 48  1  0
 22 49  1  0
 23 50  1  0
 28 51  1  0
 29 52  1  0
M  CHG  2  25   1  27  -1
M  END
$$$$
