
     RDKit          3D

 53 56  0  0  0  0  0  0  0  0999 V2000
   -2.8499    5.4125    0.5526 C   0  0  0  0  0  0  0  0  0  0  0  0
   -2.6334    4.6462    1.7312 O   0  0  0  0  0  0  0  0  0  0  0  0
   -2.0598    3.4156    1.5677 C   0  0  0  0  0  0  0  0  0  0  0  0
   -1.8018    2.7289    2.7551 C   0  0  0  0  0  0  0  0  0  0  0  0
   -1.2157    1.4605    2.7347 C   0  0  0  0  0  0  0  0  0  0  0  0
   -0.8720    0.8520    1.5179 C   0  0  0  0  0  0  0  0  0  0  0  0
   -0.2599   -0.5413    1.5288 C   0  0  0  0  0  0  0  0  0  0  0  0
   -1.3398   -1.6132    1.3631 C   0  0  0  0  0  0  0  0  0  0  0  0
   -1.0777   -2.0275   -0.0600 C   0  0  0  0  0  0  0  0  0  0  0  0
   -2.0252   -2.8815   -0.8106 C   0  0  0  0  0  0  0  0  0  0  0  0
   -2.7921   -3.8115   -0.0887 C   0  0  0  0  0  0  0  0  0  0  0  0
   -3.6775   -4.6657   -0.7464 C   0  0  0  0  0  0  0  0  0  0  0  0
   -3.8042   -4.6019   -2.1286 C   0  0  0  0  0  0  0  0  0  0  0  0
   -3.0512   -3.6778   -2.8531 C   0  0  0  0  0  0  0  0  0  0  0  0
   -2.1570   -2.7959   -2.2099 C   0  0  0  0  0  0  0  0  0  0  0  0
   -1.4048   -1.7869   -3.0486 C   0  0  0  0  0  0  0  0  0  0  0  0
   -0.0932   -2.0938   -3.2327 F   0  0  0  0  0  0  0  0  0  0  0  0
   -1.4690   -0.5169   -2.5626 F   0  0  0  0  0  0  0  0  0  0  0  0
   -1.9187   -1.6905   -4.3153 F   0  0  0  0  0  0  0  0  0  0  0  0
    0.0460   -1.6114   -0.5516 N   0  0  0  0  0  0  0  0  0  0  0  0
    0.6268   -0.8147    0.3939 N   0  0  0  0  0  0  0  0  0  0  0  0
    1.8766   -0.2407    0.1701 C   0  0  0  0  0  0  0  0  0  0  0  0
    2.4992    0.5992    1.1089 C   0  0  0  0  0  0  0  0  0  0  0  0
    3.7584    1.1637    0.8705 C   0  0  0  0  0  0  0  0  0  0  0  0
    4.4225    0.8855   -0.3228 C   0  0  0  0  0  0  0  0  0  0  0  0
    6.0170    1.5934   -0.6261 S   0  0  0  0  0  6  0  0  0  0  0  0
    7.0335    0.3896   -0.0261 N   0  0  0  0  0  0  0  0  0  0  0  0
    6.2478    1.6222   -2.0521 O   0  0  0  0  0  0  0  0  0  0  0  0
    6.1738    2.7592    0.2105 O   0  0  0  0  0  0  0  0  0  0  0  0
    3.8325    0.0688   -1.2833 C   0  0  0  0  0  0  0  0  0  0  0  0
    2.5757   -0.4890   -1.0272 C   0  0  0  0  0  0  0  0  0  0  0  0
   -1.1467    1.5457    0.3292 C   0  0  0  0  0  0  0  0  0  0  0  0
   -1.7312    2.8173    0.3532 C   0  0  0  0  0  0  0  0  0  0  0  0
   -3.2798    6.3729    0.8531 H   0  0  0  0  0  0  0  0  0  0  0  0
   -1.9071    5.6174    0.0345 H   0  0  0  0  0  0  0  0  0  0  0  0
   -3.5679    4.9197   -0.1111 H   0  0  0  0  0  0  0  0  0  0  0  0
   -2.0581    3.1895    3.7064 H   0  0  0  0  0  0  0  0  0  0  0  0
   -1.0295    0.9558    3.6801 H   0  0  0  0  0  0  0  0  0  0  0  0
    0.2727   -0.7036    2.4745 H   0  0  0  0  0  0  0  0  0  0  0  0
   -1.1362   -2.4655    2.0202 H   0  0  0  0  0  0  0  0  0  0  0  0
   -2.3645   -1.2615    1.5097 H   0  0  0  0  0  0  0  0  0  0  0  0
   -2.6992   -3.9038    0.9903 H   0  0  0  0  0  0  0  0  0  0  0  0
   -4.2616   -5.3875   -0.1798 H   0  0  0  0  0  0  0  0  0  0  0  0
   -4.4898   -5.2700   -2.6453 H   0  0  0  0  0  0  0  0  0  0  0  0
   -3.1720   -3.6411   -3.9362 H   0  0  0  0  0  0  0  0  0  0  0  0
    2.0100    0.8418    2.0480 H   0  0  0  0  0  0  0  0  0  0  0  0
    4.2037    1.8189    1.6166 H   0  0  0  0  0  0  0  0  0  0  0  0
    6.5303   -0.3381    0.4805 H   0  0  0  0  0  0  0  0  0  0  0  0
    7.5763    0.0061   -0.8018 H   0  0  0  0  0  0  0  0  0  0  0  0
    4.3272   -0.1387   -2.2291 H   0  0  0  0  0  0  0  0  0  0  0  0
    2.1254   -1.1254   -1.7882 H   0  0  0  0  0  0  0  0  0  0  0  0
   -0.8963    1.1050   -0.6355 H   0  0  0  0  0  0  0  0  0  0  0  0
   -1.9126    3.3081   -0.5973 H   0  0  0  0  0  0  0  0  0  0  0  0
  1  2  1  0
  2  3  1  0
  3  4  2  0
  4  5  1  0
  5  6  2  0
  6  7  1  0
  7  8  1  0
  8  9  1  0
  9 10  1  0
 10 11  2  0
 11 12  1  0
 12 13  2  0
 13 14  1  0
 14 15  2  0
 15 16  1  0
 16 17  1  0
 16 18  1  0
 16 19  1  0
  9 20  2  0
 20 21  1  0
 21 22  1  0
 22 23  2  0
 23 24  1  0
 24 25  2  0
 25 26  1  0
 26 27  1  0
 26 28  2  0
 26 29  2  0
 25 30  1  0
 30 31  2  0
  6 32  1  0
 32 33  2  0
 33  3  1  0
 21  7  1  0
 31 22  1  0
 15 10  1  0
  1 34  1  0
  1 35  1  0
  1 36  1  0
  4 37  1  0
  5 38  1  0
  7 39  1  0
  8 40  1  0
  8 41  1  0
 11 42  1  0
 12 43  1  0
 13 44  1  0
 14 45  1  0
 23 46  1  0
 24 47  1  0
 27 48  1  0
 27 49  1  0
 30 50  1  0
 31 51  1  0
 32 52  1  0
 33 53  1  0
M  END
$$$$
