
     RDKit          3D

 41 42  0  0  0  0  0  0  0  0999 V2000
   -6.0881   -2.0345   -0.6315 C   0  0  0  0  0  0  0  0  0  0  0  0
   -5.2780   -2.0530    0.5373 O   0  0  0  0  0  0  0  0  0  0  0  0
   -4.5848   -0.9116    0.8264 C   0  0  0  0  0  0  0  0  0  0  0  0
   -4.5411    0.2440    0.0480 C   0  0  0  0  0  0  0  0  0  0  0  0
   -3.7856    1.3486    0.4637 C   0  0  0  0  0  0  0  0  0  0  0  0
   -3.0700    1.3098    1.6672 C   0  0  0  0  0  0  0  0  0  0  0  0
   -2.2311    2.4868    2.1105 C   0  0  0  0  0  0  0  0  0  0  0  0
   -0.7395    2.2674    1.9934 C   0  0  0  0  0  0  0  0  0  0  0  0
    0.0645    2.7208    2.8021 O   0  0  0  0  0  0  0  0  0  0  0  0
   -0.4563    1.5566    0.8540 O   0  0  0  0  0  0  0  0  0  0  0  0
    0.9273    1.3339    0.7372 N   0  0  0  0  0  0  0  0  0  0  0  0
    1.1844    0.5461   -0.2661 C   0  0  0  0  0  0  0  0  0  0  0  0
    0.2047    0.0089   -1.0751 N   0  0  0  0  0  0  0  0  0  0  0  0
    2.6143    0.1919   -0.5342 C   0  0  0  0  0  0  0  0  0  0  0  0
    3.5632    0.2953    0.4877 C   0  0  0  0  0  0  0  0  0  0  0  0
    4.8930   -0.0599    0.2450 C   0  0  0  0  0  0  0  0  0  0  0  0
    5.2930   -0.5095   -1.0160 C   0  0  0  0  0  0  0  0  0  0  0  0
    6.6182   -0.8334   -1.1137 O   0  0  0  0  0  0  0  0  0  0  0  0
    7.0765   -1.3051   -2.3744 C   0  0  0  0  0  0  0  0  0  0  0  0
    4.3502   -0.5910   -2.0428 C   0  0  0  0  0  0  0  0  0  0  0  0
    3.0150   -0.2416   -1.8042 C   0  0  0  0  0  0  0  0  0  0  0  0
   -3.1161    0.1467    2.4447 C   0  0  0  0  0  0  0  0  0  0  0  0
   -3.8660   -0.9535    2.0220 C   0  0  0  0  0  0  0  0  0  0  0  0
   -5.4786   -1.9030   -1.5314 H   0  0  0  0  0  0  0  0  0  0  0  0
   -6.8625   -1.2641   -0.5635 H   0  0  0  0  0  0  0  0  0  0  0  0
   -6.5887   -3.0041   -0.7068 H   0  0  0  0  0  0  0  0  0  0  0  0
   -5.0834    0.3200   -0.8889 H   0  0  0  0  0  0  0  0  0  0  0  0
   -3.7640    2.2385   -0.1631 H   0  0  0  0  0  0  0  0  0  0  0  0
   -2.4863    3.3836    1.5358 H   0  0  0  0  0  0  0  0  0  0  0  0
   -2.4642    2.6982    3.1606 H   0  0  0  0  0  0  0  0  0  0  0  0
    0.3705   -0.9486   -1.3622 H   0  0  0  0  0  0  0  0  0  0  0  0
   -0.7175    0.1124   -0.6615 H   0  0  0  0  0  0  0  0  0  0  0  0
    3.2753    0.6440    1.4767 H   0  0  0  0  0  0  0  0  0  0  0  0
    5.6225    0.0127    1.0489 H   0  0  0  0  0  0  0  0  0  0  0  0
    6.9696   -0.5358   -3.1467 H   0  0  0  0  0  0  0  0  0  0  0  0
    8.1420   -1.5343   -2.2759 H   0  0  0  0  0  0  0  0  0  0  0  0
    6.5625   -2.2295   -2.6615 H   0  0  0  0  0  0  0  0  0  0  0  0
    4.6163   -0.9258   -3.0393 H   0  0  0  0  0  0  0  0  0  0  0  0
    2.3011   -0.2938   -2.6225 H   0  0  0  0  0  0  0  0  0  0  0  0
   -2.5672    0.0821    3.3844 H   0  0  0  0  0  0  0  0  0  0  0  0
   -3.8949   -1.8517    2.6355 H   0  0  0  0  0  0  0  0  0  0  0  0
  1  2  1  0
  2  3  1  0
  3  4  2  0
  4  5  1  0
  5  6  2  0
  6  7  1  0
  7  8  1  0
  8  9  2  0
  8 10  1  0
 10 11  1  0
 11 12  2  3
 12 13  1  0
 12 14  1  0
 14 15  2  0
 15 16  1  0
 16 17  2  0
 17 18  1  0
 18 19  1  0
 17 20  1  0
 20 21  2  0
  6 22  1  0
 22 23  2  0
 23  3  1  0
 21 14  1  0
  1 24  1  0
  1 25  1  0
  1 26  1  0
  4 27  1  0
  5 28  1  0
  7 29  1  0
  7 30  1  0
 13 31  1  0
 13 32  1  0
 15 33  1  0
 16 34  1  0
 19 35  1  0
 19 36  1  0
 19 37  1  0
 20 38  1  0
 21 39  1  0
 22 40  1  0
 23 41  1  0
M  END
$$$$
