
     RDKit          3D

 58 61  0  0  0  0  0  0  0  0999 V2000
   -0.3444   -1.3134   -1.5457 O   0  0  0  0  0  0  0  0  0  0  0  0
   -0.7732   -0.5200   -0.7143 C   0  0  0  0  0  0  0  0  0  0  0  0
    0.0712    0.6200   -0.1084 C   0  0  0  0  0  0  0  0  0  0  0  0
    1.5358    0.4327   -0.1077 N   0  0  0  0  0  0  0  0  0  0  0  0
    1.9653   -0.7854    0.6071 C   0  0  0  0  0  0  0  0  0  0  0  0
    3.5042   -0.8609    0.7181 C   0  0  0  0  0  0  0  0  0  0  0  0
    4.1246   -0.7926   -0.6346 N   0  0  0  0  0  0  0  0  0  0  0  0
    5.7612   -1.2135   -0.7594 S   0  0  0  0  0  6  0  0  0  0  0  0
    6.0004   -2.4103    0.0185 O   0  0  0  0  0  0  0  0  0  0  0  0
    6.1068   -1.1816   -2.1683 O   0  0  0  0  0  0  0  0  0  0  0  0
    6.6197    0.1292    0.0063 C   0  0  0  0  0  0  0  0  0  0  0  0
    7.2259    1.1121   -0.7883 C   0  0  0  0  0  0  0  0  0  0  0  0
    7.9392    2.1495   -0.1838 C   0  0  0  0  0  0  0  0  0  0  0  0
    8.0562    2.1988    1.2062 C   0  0  0  0  0  0  0  0  0  0  0  0
    7.4631    1.2091    1.9919 C   0  0  0  0  0  0  0  0  0  0  0  0
    6.7518    0.1737    1.3884 C   0  0  0  0  0  0  0  0  0  0  0  0
    6.1807   -0.7440    2.1800 F   0  0  0  0  0  0  0  0  0  0  0  0
    3.6770    0.4092   -1.3933 C   0  0  0  0  0  0  0  0  0  0  0  0
    2.1345    0.4652   -1.4559 C   0  0  0  0  0  0  0  0  0  0  0  0
   -2.0750   -0.4911   -0.2348 N   0  0  0  0  0  0  0  0  0  0  0  0
   -3.1405   -1.3873   -0.4985 C   0  0  0  0  0  0  0  0  0  0  0  0
   -2.9715   -2.5534   -1.2526 C   0  0  0  0  0  0  0  0  0  0  0  0
   -4.0364   -3.4376   -1.4544 C   0  0  0  0  0  0  0  0  0  0  0  0
   -5.2843   -3.1759   -0.8973 C   0  0  0  0  0  0  0  0  0  0  0  0
   -5.4784   -2.0170   -0.1486 C   0  0  0  0  0  0  0  0  0  0  0  0
   -4.4223   -1.1074    0.0346 C   0  0  0  0  0  0  0  0  0  0  0  0
   -4.6587    0.1472    0.8100 C   0  0  0  0  0  0  0  0  0  0  0  0
   -3.7324    0.6518    1.4455 O   0  0  0  0  0  0  0  0  0  0  0  0
   -5.9751    0.8324    0.8123 C   0  0  0  0  0  0  0  0  0  0  0  0
   -6.7433    0.9467   -0.3540 C   0  0  0  0  0  0  0  0  0  0  0  0
   -7.9671    1.6185   -0.3164 C   0  0  0  0  0  0  0  0  0  0  0  0
   -8.4160    2.1869    0.8765 C   0  0  0  0  0  0  0  0  0  0  0  0
   -7.6410    2.0934    2.0340 C   0  0  0  0  0  0  0  0  0  0  0  0
   -6.4175    1.4223    2.0019 C   0  0  0  0  0  0  0  0  0  0  0  0
   -0.2443    0.7739    0.9319 H   0  0  0  0  0  0  0  0  0  0  0  0
   -0.1827    1.5419   -0.6471 H   0  0  0  0  0  0  0  0  0  0  0  0
    1.6033   -1.6897    0.1033 H   0  0  0  0  0  0  0  0  0  0  0  0
    1.5500   -0.7839    1.6225 H   0  0  0  0  0  0  0  0  0  0  0  0
    3.8622   -0.0288    1.3340 H   0  0  0  0  0  0  0  0  0  0  0  0
    3.7691   -1.8025    1.2098 H   0  0  0  0  0  0  0  0  0  0  0  0
    7.1544    1.0733   -1.8740 H   0  0  0  0  0  0  0  0  0  0  0  0
    8.4108    2.9142   -0.7983 H   0  0  0  0  0  0  0  0  0  0  0  0
    8.6149    3.0040    1.6785 H   0  0  0  0  0  0  0  0  0  0  0  0
    7.5525    1.2364    3.0743 H   0  0  0  0  0  0  0  0  0  0  0  0
    4.0595    1.3152   -0.9097 H   0  0  0  0  0  0  0  0  0  0  0  0
    4.0611    0.3747   -2.4183 H   0  0  0  0  0  0  0  0  0  0  0  0
    1.7868   -0.3692   -2.0745 H   0  0  0  0  0  0  0  0  0  0  0  0
    1.8477    1.3942   -1.9641 H   0  0  0  0  0  0  0  0  0  0  0  0
   -2.3092    0.2505    0.4306 H   0  0  0  0  0  0  0  0  0  0  0  0
   -2.0122   -2.8184   -1.6876 H   0  0  0  0  0  0  0  0  0  0  0  0
   -3.8780   -4.3416   -2.0386 H   0  0  0  0  0  0  0  0  0  0  0  0
   -6.1026   -3.8776   -1.0423 H   0  0  0  0  0  0  0  0  0  0  0  0
   -6.4568   -1.8433    0.2944 H   0  0  0  0  0  0  0  0  0  0  0  0
   -6.3968    0.5358   -1.2992 H   0  0  0  0  0  0  0  0  0  0  0  0
   -8.5666    1.7086   -1.2201 H   0  0  0  0  0  0  0  0  0  0  0  0
   -9.3672    2.7143    0.9014 H   0  0  0  0  0  0  0  0  0  0  0  0
   -7.9858    2.5492    2.9594 H   0  0  0  0  0  0  0  0  0  0  0  0
   -5.8106    1.3616    2.9037 H   0  0  0  0  0  0  0  0  0  0  0  0
  1  2  2  0
  2  3  1  0
  3  4  1  0
  4  5  1  0
  5  6  1  0
  6  7  1  0
  7  8  1  0
  8  9  2  0
  8 10  2  0
  8 11  1  0
 11 12  2  0
 12 13  1  0
 13 14  2  0
 14 15  1  0
 15 16  2  0
 16 17  1  0
  7 18  1  0
 18 19  1  0
  2 20  1  0
 20 21  1  0
 21 22  2  0
 22 23  1  0
 23 24  2  0
 24 25  1  0
 25 26  2  0
 26 27  1  0
 27 28  2  0
 27 29  1  0
 29 30  2  0
 30 31  1  0
 31 32  2  0
 32 33  1  0
 33 34  2  0
 19  4  1  0
 26 21  1  0
 34 29  1  0
 16 11  1  0
  3 35  1  0
  3 36  1  0
  5 37  1  0
  5 38  1  0
  6 39  1  0
  6 40  1  0
 12 41  1  0
 13 42  1  0
 14 43  1  0
 15 44  1  0
 18 45  1  0
 18 46  1  0
 19 47  1  0
 19 48  1  0
 20 49  1  0
 22 50  1  0
 23 51  1  0
 24 52  1  0
 25 53  1  0
 30 54  1  0
 31 55  1  0
 32 56  1  0
 33 57  1  0
 34 58  1  0
M  END
$$$$
