
     RDKit          3D

 64 68  0  0  0  0  0  0  0  0999 V2000
    0.9828   -2.1220    0.6082 O   0  0  0  0  0  0  0  0  0  0  0  0
    1.4726   -1.0687    0.1947 C   0  0  0  0  0  0  0  0  0  0  0  0
    0.5733    0.0386   -0.3728 C   0  0  0  0  0  0  0  0  0  0  0  0
   -0.7034   -0.5540   -1.0066 C   0  0  0  0  0  0  0  0  0  0  0  0
   -1.8678   -0.6374   -0.0208 C   0  0  0  0  0  0  0  0  0  0  0  0
   -2.2589    0.7404    0.5536 C   0  0  0  0  0  0  0  0  0  0  0  0
   -3.4809    1.3443   -0.1648 C   0  0  0  0  0  0  0  0  0  0  0  0
   -4.6905    0.5976    0.1533 N   0  0  0  0  0  0  0  0  0  0  0  0
   -5.9667    0.8860   -0.3152 C   0  0  0  0  0  0  0  0  0  0  0  0
   -6.0979    1.6535   -1.4429 N   0  0  0  0  0  0  0  0  0  0  0  0
   -7.2775    2.0271   -2.0291 C   0  0  0  0  0  0  0  0  0  0  0  0
   -7.1939    2.9461   -3.4304 S   0  0  0  0  0  0  0  0  0  0  0  0
   -8.4498    1.6380   -1.4460 N   0  0  0  0  0  0  0  0  0  0  0  0
   -8.3723    0.9019   -0.3840 C   0  0  0  0  0  0  0  0  0  0  0  0
   -9.6392    0.4605    0.2652 C   0  0  0  0  0  0  0  0  0  0  0  0
   -9.6189   -0.3101    1.3612 C   0  0  0  0  0  0  0  0  0  0  0  0
   -8.3858   -0.7621    1.9562 C   0  0  0  0  0  0  0  0  0  0  0  0
   -7.1958   -0.4098    1.4481 C   0  0  0  0  0  0  0  0  0  0  0  0
   -7.1018    0.4444    0.2747 C   0  0  0  0  0  0  0  0  0  0  0  0
   -1.0898    1.7399    0.5072 C   0  0  0  0  0  0  0  0  0  0  0  0
    0.2511    1.0543    0.7381 C   0  0  0  0  0  0  0  0  0  0  0  0
    2.8356   -0.8197    0.2818 N   0  0  0  0  0  0  0  0  0  0  0  0
    3.5181    0.3465   -0.2916 C   0  0  0  0  0  0  0  0  0  0  0  0
    4.9864    0.4871    0.1540 C   0  0  0  0  0  0  0  0  0  0  0  0
    5.7456   -0.7421   -0.1169 N   0  0  0  0  0  0  0  0  0  0  0  0
    7.1245   -0.7299   -0.2624 C   0  0  0  0  0  0  0  0  0  0  0  0
    7.9114    0.3535    0.1703 C   0  0  0  0  0  0  0  0  0  0  0  0
    9.3026    0.3659    0.0146 C   0  0  0  0  0  0  0  0  0  0  0  0
    9.9327   -0.7113   -0.5867 C   0  0  0  0  0  0  0  0  0  0  0  0
   11.2628   -0.7009   -0.7403 F   0  0  0  0  0  0  0  0  0  0  0  0
    9.1973   -1.7973   -1.0322 C   0  0  0  0  0  0  0  0  0  0  0  0
    7.8069   -1.8016   -0.8688 C   0  0  0  0  0  0  0  0  0  0  0  0
    5.0149   -2.0210   -0.0083 C   0  0  0  0  0  0  0  0  0  0  0  0
    3.7150   -1.8727    0.8041 C   0  0  0  0  0  0  0  0  0  0  0  0
    1.1085    0.5385   -1.1881 H   0  0  0  0  0  0  0  0  0  0  0  0
   -0.5049   -1.5456   -1.4318 H   0  0  0  0  0  0  0  0  0  0  0  0
   -1.0085    0.0806   -1.8496 H   0  0  0  0  0  0  0  0  0  0  0  0
   -1.5819   -1.2970    0.8093 H   0  0  0  0  0  0  0  0  0  0  0  0
   -2.7231   -1.1220   -0.5061 H   0  0  0  0  0  0  0  0  0  0  0  0
   -2.5252    0.5850    1.6091 H   0  0  0  0  0  0  0  0  0  0  0  0
   -3.3067    1.3409   -1.2465 H   0  0  0  0  0  0  0  0  0  0  0  0
   -3.6168    2.3848    0.1510 H   0  0  0  0  0  0  0  0  0  0  0  0
   -4.6862    0.2075    1.0904 H   0  0  0  0  0  0  0  0  0  0  0  0
   -5.2640    1.9483   -1.9272 H   0  0  0  0  0  0  0  0  0  0  0  0
  -10.5643    0.7939   -0.1906 H   0  0  0  0  0  0  0  0  0  0  0  0
  -10.5487   -0.6272    1.8243 H   0  0  0  0  0  0  0  0  0  0  0  0
   -8.4495   -1.4110    2.8247 H   0  0  0  0  0  0  0  0  0  0  0  0
   -6.2926   -0.7862    1.9129 H   0  0  0  0  0  0  0  0  0  0  0  0
   -1.0629    2.2582   -0.4604 H   0  0  0  0  0  0  0  0  0  0  0  0
   -1.2453    2.5153    1.2676 H   0  0  0  0  0  0  0  0  0  0  0  0
    1.0349    1.8178    0.7873 H   0  0  0  0  0  0  0  0  0  0  0  0
    0.2434    0.5649    1.7208 H   0  0  0  0  0  0  0  0  0  0  0  0
    3.4721    0.2347   -1.3821 H   0  0  0  0  0  0  0  0  0  0  0  0
    2.9750    1.2566   -0.0285 H   0  0  0  0  0  0  0  0  0  0  0  0
    5.4120    1.3393   -0.3893 H   0  0  0  0  0  0  0  0  0  0  0  0
    5.0280    0.7094    1.2271 H   0  0  0  0  0  0  0  0  0  0  0  0
    7.4574    1.2081    0.6648 H   0  0  0  0  0  0  0  0  0  0  0  0
    9.8911    1.2086    0.3626 H   0  0  0  0  0  0  0  0  0  0  0  0
    9.7008   -2.6317   -1.5103 H   0  0  0  0  0  0  0  0  0  0  0  0
    7.2583   -2.6578   -1.2534 H   0  0  0  0  0  0  0  0  0  0  0  0
    5.6284   -2.7833    0.4874 H   0  0  0  0  0  0  0  0  0  0  0  0
    4.7747   -2.3750   -1.0183 H   0  0  0  0  0  0  0  0  0  0  0  0
    3.1985   -2.8374    0.8404 H   0  0  0  0  0  0  0  0  0  0  0  0
    3.9545   -1.5915    1.8370 H   0  0  0  0  0  0  0  0  0  0  0  0
  1  2  2  0
  2  3  1  0
  3  4  1  0
  4  5  1  0
  5  6  1  0
  6  7  1  0
  7  8  1  0
  8  9  1  0
  9 10  1  0
 10 11  1  0
 11 12  2  0
 11 13  1  0
 13 14  2  0
 14 15  1  0
 15 16  2  0
 16 17  1  0
 17 18  2  0
 18 19  1  0
  6 20  1  0
 20 21  1  0
  2 22  1  0
 22 23  1  0
 23 24  1  0
 24 25  1  0
 25 26  1  0
 26 27  2  0
 27 28  1  0
 28 29  2  0
 29 30  1  0
 29 31  1  0
 31 32  2  0
 25 33  1  0
 33 34  1  0
 21  3  1  0
 34 22  1  0
 19  9  2  0
 32 26  1  0
 19 14  1  0
  3 35  1  0
  4 36  1  0
  4 37  1  0
  5 38  1  0
  5 39  1  0
  6 40  1  0
  7 41  1  0
  7 42  1  0
  8 43  1  0
 10 44  1  0
 15 45  1  0
 16 46  1  0
 17 47  1  0
 18 48  1  0
 20 49  1  0
 20 50  1  0
 21 51  1  0
 21 52  1  0
 23 53  1  0
 23 54  1  0
 24 55  1  0
 24 56  1  0
 27 57  1  0
 28 58  1  0
 31 59  1  0
 32 60  1  0
 33 61  1  0
 33 62  1  0
 34 63  1  0
 34 64  1  0
M  END
$$$$
