
     RDKit          3D

 42 44  0  0  0  0  0  0  0  0999 V2000
    5.1928   -0.4690   -2.8956 C   0  0  0  0  0  0  0  0  0  0  0  0
    5.1144   -0.2797   -1.3865 C   0  0  0  0  0  0  0  0  0  0  0  0
    3.6998   -0.0133   -0.8698 C   0  0  0  0  0  0  0  0  0  0  0  0
    2.6230   -1.4782   -1.0387 S   0  0  0  0  0  0  0  0  0  0  0  0
    1.0962   -0.8512   -0.3486 C   0  0  0  0  0  0  0  0  0  0  0  0
    0.0130   -1.7004   -0.2732 C   0  0  0  0  0  0  0  0  0  0  0  0
   -1.1563   -1.1973    0.2565 C   0  0  0  0  0  0  0  0  0  0  0  0
   -2.2854   -1.9724    0.3849 N   0  0  0  0  0  0  0  0  0  0  0  0
   -3.5140   -1.3814    0.9027 C   0  0  0  0  0  0  0  0  0  0  0  0
   -4.5106   -2.5333    0.8200 C   0  0  0  0  0  0  0  0  0  0  0  0
   -4.0820   -3.2522   -0.4492 C   0  0  0  0  0  0  0  0  0  0  0  0
   -2.5558   -3.1590   -0.4186 C   0  0  0  0  0  0  0  0  0  0  0  0
   -1.2068    0.0717    0.6959 N   0  0  0  0  0  0  0  0  0  0  0  0
   -0.1056    0.8378    0.5870 C   0  0  0  0  0  0  0  0  0  0  0  0
   -0.1864    2.2330    1.0685 C   0  0  0  0  0  0  0  0  0  0  0  0
    0.9120    3.1104    0.9743 C   0  0  0  0  0  0  0  0  0  0  0  0
    0.8366    4.4312    1.4294 C   0  0  0  0  0  0  0  0  0  0  0  0
   -0.3434    4.9078    1.9918 C   0  0  0  0  0  0  0  0  0  0  0  0
   -1.4459    4.0660    2.0993 C   0  0  0  0  0  0  0  0  0  0  0  0
   -1.3662    2.7461    1.6429 C   0  0  0  0  0  0  0  0  0  0  0  0
    1.0589    0.4204    0.0692 N   0  0  0  0  0  0  0  0  0  0  0  0
    4.6716   -1.3745   -3.2194 H   0  0  0  0  0  0  0  0  0  0  0  0
    4.7577    0.3871   -3.4211 H   0  0  0  0  0  0  0  0  0  0  0  0
    6.2384   -0.5600   -3.2073 H   0  0  0  0  0  0  0  0  0  0  0  0
    5.7411    0.5805   -1.1205 H   0  0  0  0  0  0  0  0  0  0  0  0
    5.5515   -1.1493   -0.8812 H   0  0  0  0  0  0  0  0  0  0  0  0
    3.2603    0.8302   -1.4132 H   0  0  0  0  0  0  0  0  0  0  0  0
    3.7589    0.2544    0.1908 H   0  0  0  0  0  0  0  0  0  0  0  0
    0.0907   -2.7259   -0.6063 H   0  0  0  0  0  0  0  0  0  0  0  0
   -3.8447   -0.5504    0.2676 H   0  0  0  0  0  0  0  0  0  0  0  0
   -3.4061   -1.0297    1.9343 H   0  0  0  0  0  0  0  0  0  0  0  0
   -5.5480   -2.1895    0.7852 H   0  0  0  0  0  0  0  0  0  0  0  0
   -4.3944   -3.1981    1.6844 H   0  0  0  0  0  0  0  0  0  0  0  0
   -4.4368   -4.2857   -0.4944 H   0  0  0  0  0  0  0  0  0  0  0  0
   -4.4702   -2.7204   -1.3265 H   0  0  0  0  0  0  0  0  0  0  0  0
   -2.1664   -3.0863   -1.4401 H   0  0  0  0  0  0  0  0  0  0  0  0
   -2.1238   -4.0406    0.0676 H   0  0  0  0  0  0  0  0  0  0  0  0
    1.8480    2.7644    0.5387 H   0  0  0  0  0  0  0  0  0  0  0  0
    1.7015    5.0837    1.3429 H   0  0  0  0  0  0  0  0  0  0  0  0
   -0.4035    5.9333    2.3461 H   0  0  0  0  0  0  0  0  0  0  0  0
   -2.3705    4.4317    2.5382 H   0  0  0  0  0  0  0  0  0  0  0  0
   -2.2437    2.1082    1.7401 H   0  0  0  0  0  0  0  0  0  0  0  0
  1  2  1  0
  2  3  1  0
  3  4  1  0
  4  5  1  0
  5  6  2  0
  6  7  1  0
  7  8  1  0
  8  9  1  0
  9 10  1  0
 10 11  1  0
 11 12  1  0
  7 13  2  0
 13 14  1  0
 14 15  1  0
 15 16  2  0
 16 17  1  0
 17 18  2  0
 18 19  1  0
 19 20  2  0
 14 21  2  0
 21  5  1  0
 12  8  1  0
 20 15  1  0
  1 22  1  0
  1 23  1  0
  1 24  1  0
  2 25  1  0
  2 26  1  0
  3 27  1  0
  3 28  1  0
  6 29  1  0
  9 30  1  0
  9 31  1  0
 10 32  1  0
 10 33  1  0
 11 34  1  0
 11 35  1  0
 12 36  1  0
 12 37  1  0
 16 38  1  0
 17 39  1  0
 18 40  1  0
 19 41  1  0
 20 42  1  0
M  END
$$$$
