
     RDKit          3D

 58 60  0  0  0  0  0  0  0  0999 V2000
    1.9906   -3.6333   -3.6340 C   0  0  0  0  0  0  0  0  0  0  0  0
    2.2819   -3.1037   -2.2381 C   0  0  0  0  0  0  0  0  0  0  0  0
    2.4077   -1.5784   -2.2360 C   0  0  0  0  0  0  0  0  0  0  0  0
    2.6669   -1.0421   -0.8562 C   0  0  0  0  0  0  0  0  0  0  0  0
    3.9728   -1.0071   -0.3770 N   0  0  0  0  0  0  0  0  0  0  0  0
    3.9003   -0.5197    0.9371 N   0  0  0  0  0  0  0  0  0  0  0  0
    5.0710   -0.3477    1.7081 C   0  0  0  0  0  0  0  0  0  0  0  0
    6.3378   -0.6041    1.1540 C   0  0  0  0  0  0  0  0  0  0  0  0
    7.5070   -0.4491    1.9096 C   0  0  0  0  0  0  0  0  0  0  0  0
    7.4176   -0.0288    3.2396 C   0  0  0  0  0  0  0  0  0  0  0  0
    8.6387    0.1260    4.0397 N   0  0  0  0  0  4  0  0  0  0  0  0
    8.5173    0.5161    5.2091 O   0  0  0  0  0  0  0  0  0  0  0  0
    9.7193   -0.1505    3.4987 O   0  0  0  0  0  1  0  0  0  0  0  0
    6.1703    0.2389    3.8100 C   0  0  0  0  0  0  0  0  0  0  0  0
    5.0086    0.0793    3.0425 C   0  0  0  0  0  0  0  0  0  0  0  0
    2.5700   -0.2041    1.2436 C   0  0  0  0  0  0  0  0  0  0  0  0
    2.1104    0.2457    2.2786 O   0  0  0  0  0  0  0  0  0  0  0  0
    1.7778   -0.5489    0.0268 C   0  0  0  0  0  0  0  0  0  0  0  0
    0.3251   -0.4461   -0.1611 C   0  0  0  0  0  0  0  0  0  0  0  0
   -0.4842    0.0609    0.6998 N   0  0  0  0  0  0  0  0  0  0  0  0
   -1.9010    0.0562    0.3186 C   0  0  0  0  0  0  0  0  0  0  0  0
   -2.3139    1.4630   -0.1191 C   0  0  0  0  0  0  0  0  0  0  0  0
   -3.7718    1.5252   -0.5027 C   0  0  0  0  0  0  0  0  0  0  0  0
   -4.1727    1.2583   -1.8155 C   0  0  0  0  0  0  0  0  0  0  0  0
   -5.5254    1.2916   -2.1636 C   0  0  0  0  0  0  0  0  0  0  0  0
   -6.4983    1.5885   -1.2017 C   0  0  0  0  0  0  0  0  0  0  0  0
   -7.8473    1.6432   -1.4543 O   0  0  0  0  0  0  0  0  0  0  0  0
   -8.2881    1.2618   -2.7506 C   0  0  0  0  0  0  0  0  0  0  0  0
   -6.1047    1.8606    0.1239 C   0  0  0  0  0  0  0  0  0  0  0  0
   -7.1175    2.1457    1.0080 O   0  0  0  0  0  0  0  0  0  0  0  0
   -6.7583    2.4357    2.3514 C   0  0  0  0  0  0  0  0  0  0  0  0
   -4.7461    1.8225    0.4627 C   0  0  0  0  0  0  0  0  0  0  0  0
    1.0471   -3.2297   -4.0164 H   0  0  0  0  0  0  0  0  0  0  0  0
    1.9107   -4.7253   -3.6152 H   0  0  0  0  0  0  0  0  0  0  0  0
    2.7895   -3.3624   -4.3322 H   0  0  0  0  0  0  0  0  0  0  0  0
    3.2082   -3.5606   -1.8679 H   0  0  0  0  0  0  0  0  0  0  0  0
    1.4772   -3.4173   -1.5623 H   0  0  0  0  0  0  0  0  0  0  0  0
    3.2262   -1.2712   -2.9000 H   0  0  0  0  0  0  0  0  0  0  0  0
    1.5022   -1.1297   -2.6616 H   0  0  0  0  0  0  0  0  0  0  0  0
    4.4183   -1.9258   -0.4343 H   0  0  0  0  0  0  0  0  0  0  0  0
    6.4416   -0.9125    0.1171 H   0  0  0  0  0  0  0  0  0  0  0  0
    8.4690   -0.6566    1.4453 H   0  0  0  0  0  0  0  0  0  0  0  0
    6.0769    0.5687    4.8430 H   0  0  0  0  0  0  0  0  0  0  0  0
    4.0561    0.2918    3.5227 H   0  0  0  0  0  0  0  0  0  0  0  0
   -0.0521   -0.8400   -1.1205 H   0  0  0  0  0  0  0  0  0  0  0  0
   -2.1200   -0.6771   -0.4692 H   0  0  0  0  0  0  0  0  0  0  0  0
   -2.4869   -0.2544    1.1923 H   0  0  0  0  0  0  0  0  0  0  0  0
   -2.1114    2.1828    0.6846 H   0  0  0  0  0  0  0  0  0  0  0  0
   -1.6977    1.7896   -0.9671 H   0  0  0  0  0  0  0  0  0  0  0  0
   -3.4343    1.0237   -2.5800 H   0  0  0  0  0  0  0  0  0  0  0  0
   -5.7872    1.0852   -3.1951 H   0  0  0  0  0  0  0  0  0  0  0  0
   -9.3818    1.3078   -2.7571 H   0  0  0  0  0  0  0  0  0  0  0  0
   -7.9983    0.2293   -2.9823 H   0  0  0  0  0  0  0  0  0  0  0  0
   -7.9206    1.9585   -3.5138 H   0  0  0  0  0  0  0  0  0  0  0  0
   -6.1278    3.3294    2.4077 H   0  0  0  0  0  0  0  0  0  0  0  0
   -6.2725    1.5758    2.8258 H   0  0  0  0  0  0  0  0  0  0  0  0
   -7.6778    2.6446    2.9067 H   0  0  0  0  0  0  0  0  0  0  0  0
   -4.4163    2.0199    1.4780 H   0  0  0  0  0  0  0  0  0  0  0  0
  1  2  1  0
  2  3  1  0
  3  4  1  0
  4  5  1  0
  5  6  1  0
  6  7  1  0
  7  8  2  0
  8  9  1  0
  9 10  2  0
 10 11  1  0
 11 12  2  0
 11 13  1  0
 10 14  1  0
 14 15  2  0
  6 16  1  0
 16 17  2  0
 16 18  1  0
 18 19  1  0
 19 20  2  3
 20 21  1  0
 21 22  1  0
 22 23  1  0
 23 24  2  0
 24 25  1  0
 25 26  2  0
 26 27  1  0
 27 28  1  0
 26 29  1  0
 29 30  1  0
 30 31  1  0
 29 32  2  0
 18  4  2  0
 32 23  1  0
 15  7  1  0
  1 33  1  0
  1 34  1  0
  1 35  1  0
  2 36  1  0
  2 37  1  0
  3 38  1  0
  3 39  1  0
  5 40  1  0
  8 41  1  0
  9 42  1  0
 14 43  1  0
 15 44  1  0
 19 45  1  0
 21 46  1  0
 21 47  1  0
 22 48  1  0
 22 49  1  0
 24 50  1  0
 25 51  1  0
 28 52  1  0
 28 53  1  0
 28 54  1  0
 31 55  1  0
 31 56  1  0
 31 57  1  0
 32 58  1  0
M  CHG  2  11   1  13  -1
M  END
$$$$
