
     RDKit          3D

 46 47  0  0  0  0  0  0  0  0999 V2000
    5.6948   -2.9274    1.5803 O   0  0  0  0  0  0  0  0  0  0  0  0
    6.3797   -2.0907    2.1466 C   0  0  0  0  0  0  0  0  0  0  0  0
    6.7766   -2.2756    3.4217 O   0  0  0  0  0  0  0  0  0  0  0  0
    6.9250   -0.8219    1.5530 C   0  0  0  0  0  0  0  0  0  0  0  0
    6.1488   -0.4208    0.3032 C   0  0  0  0  0  0  0  0  0  0  0  0
    4.7421    0.0601    0.6278 C   0  0  0  0  0  0  0  0  0  0  0  0
    4.3716    0.2400    1.7832 O   0  0  0  0  0  0  0  0  0  0  0  0
    4.0072    0.2915   -0.5229 N   0  0  0  0  0  0  0  0  0  0  0  0
    2.6858    0.7730   -0.6163 C   0  0  0  0  0  0  0  0  0  0  0  0
    2.1760    0.9855   -1.9067 C   0  0  0  0  0  0  0  0  0  0  0  0
    0.8789    1.4732   -2.0938 C   0  0  0  0  0  0  0  0  0  0  0  0
    0.0815    1.7434   -0.9821 C   0  0  0  0  0  0  0  0  0  0  0  0
   -1.5582    2.3822   -1.1970 S   0  0  0  0  0  6  0  0  0  0  0  0
   -1.7626    3.4115   -0.2037 O   0  0  0  0  0  0  0  0  0  0  0  0
   -1.7829    2.6174   -2.6047 O   0  0  0  0  0  0  0  0  0  0  0  0
   -2.5029    1.0709   -0.7309 N   0  0  0  0  0  0  0  0  0  0  0  0
   -2.8672    0.0908   -1.7671 C   0  0  0  0  0  0  0  0  0  0  0  0
   -3.5056   -1.1502   -1.1332 C   0  0  0  0  0  0  0  0  0  0  0  0
   -4.7895   -0.8718   -0.3808 C   0  0  0  0  0  0  0  0  0  0  0  0
   -4.8909   -1.1870    0.9822 C   0  0  0  0  0  0  0  0  0  0  0  0
   -6.0723   -0.9396    1.6844 C   0  0  0  0  0  0  0  0  0  0  0  0
   -7.1654   -0.3746    1.0307 C   0  0  0  0  0  0  0  0  0  0  0  0
   -7.0788   -0.0612   -0.3252 C   0  0  0  0  0  0  0  0  0  0  0  0
   -5.8999   -0.3134   -1.0292 C   0  0  0  0  0  0  0  0  0  0  0  0
    0.5739    1.5372    0.3083 C   0  0  0  0  0  0  0  0  0  0  0  0
    1.8742    1.0506    0.4867 C   0  0  0  0  0  0  0  0  0  0  0  0
    6.3364   -3.1109    3.6828 H   0  0  0  0  0  0  0  0  0  0  0  0
    7.9738   -1.0002    1.2934 H   0  0  0  0  0  0  0  0  0  0  0  0
    6.8823   -0.0231    2.3032 H   0  0  0  0  0  0  0  0  0  0  0  0
    6.0915   -1.2508   -0.4098 H   0  0  0  0  0  0  0  0  0  0  0  0
    6.6743    0.4114   -0.1808 H   0  0  0  0  0  0  0  0  0  0  0  0
    4.4781    0.1157   -1.4018 H   0  0  0  0  0  0  0  0  0  0  0  0
    2.7838    0.7844   -2.7857 H   0  0  0  0  0  0  0  0  0  0  0  0
    0.5064    1.6409   -3.1019 H   0  0  0  0  0  0  0  0  0  0  0  0
   -3.2414    1.3534   -0.0826 H   0  0  0  0  0  0  0  0  0  0  0  0
   -1.9719   -0.2192   -2.3172 H   0  0  0  0  0  0  0  0  0  0  0  0
   -3.5613    0.5573   -2.4728 H   0  0  0  0  0  0  0  0  0  0  0  0
   -2.7783   -1.6255   -0.4623 H   0  0  0  0  0  0  0  0  0  0  0  0
   -3.7259   -1.8852   -1.9174 H   0  0  0  0  0  0  0  0  0  0  0  0
   -4.0514   -1.6329    1.5092 H   0  0  0  0  0  0  0  0  0  0  0  0
   -6.1423   -1.1903    2.7420 H   0  0  0  0  0  0  0  0  0  0  0  0
   -8.0839   -0.1805    1.5774 H   0  0  0  0  0  0  0  0  0  0  0  0
   -7.9304    0.3803   -0.8346 H   0  0  0  0  0  0  0  0  0  0  0  0
   -5.8585   -0.0713   -2.0876 H   0  0  0  0  0  0  0  0  0  0  0  0
   -0.0436    1.7532    1.1782 H   0  0  0  0  0  0  0  0  0  0  0  0
    2.2223    0.9000    1.5046 H   0  0  0  0  0  0  0  0  0  0  0  0
  1  2  2  0
  2  3  1  0
  2  4  1  0
  4  5  1  0
  5  6  1  0
  6  7  2  0
  6  8  1  0
  8  9  1  0
  9 10  2  0
 10 11  1  0
 11 12  2  0
 12 13  1  0
 13 14  2  0
 13 15  2  0
 13 16  1  0
 16 17  1  0
 17 18  1  0
 18 19  1  0
 19 20  2  0
 20 21  1  0
 21 22  2  0
 22 23  1  0
 23 24  2  0
 12 25  1  0
 25 26  2  0
 26  9  1  0
 24 19  1  0
  3 27  1  0
  4 28  1  0
  4 29  1  0
  5 30  1  0
  5 31  1  0
  8 32  1  0
 10 33  1  0
 11 34  1  0
 16 35  1  0
 17 36  1  0
 17 37  1  0
 18 38  1  0
 18 39  1  0
 20 40  1  0
 21 41  1  0
 22 42  1  0
 23 43  1  0
 24 44  1  0
 25 45  1  0
 26 46  1  0
M  END
$$$$
