
     RDKit          3D

 50 53  0  0  0  0  0  0  0  0999 V2000
   -8.1032    2.4434    0.1303 C   0  0  0  0  0  0  0  0  0  0  0  0
   -6.8422    1.6681    0.3679 C   0  0  0  0  0  0  0  0  0  0  0  0
   -6.8621    0.4649    1.0753 C   0  0  0  0  0  0  0  0  0  0  0  0
   -5.6814   -0.2574    1.2725 C   0  0  0  0  0  0  0  0  0  0  0  0
   -4.4635    0.2000    0.7512 C   0  0  0  0  0  0  0  0  0  0  0  0
   -3.3207   -0.5950    0.9918 N   0  0  0  0  0  0  0  0  0  0  0  0
   -2.0416   -0.3914    0.4995 C   0  0  0  0  0  0  0  0  0  0  0  0
   -1.6856    0.5104   -0.2560 O   0  0  0  0  0  0  0  0  0  0  0  0
   -1.0468   -1.4701    0.9631 C   0  0  0  0  0  0  0  0  0  0  0  0
    0.2997   -1.2432    0.4192 N   0  0  0  0  0  4  0  0  0  0  0  0
    1.4372   -0.8557    1.1252 C   0  0  0  0  0  0  0  0  0  0  0  0
    2.4902   -0.6877    0.2327 C   0  0  0  0  0  0  0  0  0  0  0  0
    3.9663   -0.2946    0.5977 C   0  0  0  0  0  0  0  0  0  0  0  0
    4.9543   -0.2375   -0.3861 C   0  0  0  0  0  0  0  0  0  0  0  0
    6.2670    0.1026   -0.0452 C   0  0  0  0  0  0  0  0  0  0  0  0
    6.6088    0.3846    1.2818 C   0  0  0  0  0  0  0  0  0  0  0  0
    8.0244    0.7411    1.6332 C   0  0  0  0  0  0  0  0  0  0  0  0
    5.6173    0.3244    2.2656 C   0  0  0  0  0  0  0  0  0  0  0  0
    4.3035   -0.0137    1.9273 C   0  0  0  0  0  0  0  0  0  0  0  0
    1.9103   -0.9501   -0.9956 N   0  0  0  0  0  0  0  0  0  0  0  0
    0.6234   -1.2631   -0.8710 C   0  0  0  0  0  0  0  0  0  0  0  0
   -0.0361   -1.5396   -2.1692 C   0  0  0  0  0  0  0  0  0  0  0  0
    0.9888   -0.9764   -3.1741 C   0  0  0  0  0  0  0  0  0  0  0  0
    2.3270   -0.9155   -2.3908 C   0  0  0  0  0  0  0  0  0  0  0  0
   -4.4469    1.3985    0.0359 C   0  0  0  0  0  0  0  0  0  0  0  0
   -5.6276    2.1243   -0.1554 C   0  0  0  0  0  0  0  0  0  0  0  0
   -8.4612    2.2701   -0.8898 H   0  0  0  0  0  0  0  0  0  0  0  0
   -7.9273    3.5157    0.2719 H   0  0  0  0  0  0  0  0  0  0  0  0
   -8.8896    2.1468    0.8328 H   0  0  0  0  0  0  0  0  0  0  0  0
   -7.7965    0.0809    1.4782 H   0  0  0  0  0  0  0  0  0  0  0  0
   -5.7425   -1.1857    1.8320 H   0  0  0  0  0  0  0  0  0  0  0  0
   -3.4915   -1.4112    1.5722 H   0  0  0  0  0  0  0  0  0  0  0  0
   -0.9966   -1.4672    2.0573 H   0  0  0  0  0  0  0  0  0  0  0  0
   -1.3898   -2.4510    0.6156 H   0  0  0  0  0  0  0  0  0  0  0  0
    1.3572   -0.7517    2.1930 H   0  0  0  0  0  0  0  0  0  0  0  0
    4.7494   -0.4623   -1.4235 H   0  0  0  0  0  0  0  0  0  0  0  0
    7.0288    0.1427   -0.8235 H   0  0  0  0  0  0  0  0  0  0  0  0
    8.1323    0.9489    2.7030 H   0  0  0  0  0  0  0  0  0  0  0  0
    8.3342    1.6385    1.0866 H   0  0  0  0  0  0  0  0  0  0  0  0
    8.6947   -0.0867    1.3832 H   0  0  0  0  0  0  0  0  0  0  0  0
    5.8625    0.5408    3.3054 H   0  0  0  0  0  0  0  0  0  0  0  0
    3.5713   -0.0430    2.7291 H   0  0  0  0  0  0  0  0  0  0  0  0
   -1.0011   -1.0367   -2.2138 H   0  0  0  0  0  0  0  0  0  0  0  0
   -0.1384   -2.6253   -2.2366 H   0  0  0  0  0  0  0  0  0  0  0  0
    0.6952    0.0428   -3.4432 H   0  0  0  0  0  0  0  0  0  0  0  0
    1.0582   -1.5573   -4.0944 H   0  0  0  0  0  0  0  0  0  0  0  0
    2.8701    0.0064   -2.6157 H   0  0  0  0  0  0  0  0  0  0  0  0
    2.9429   -1.7973   -2.5974 H   0  0  0  0  0  0  0  0  0  0  0  0
   -3.5338    1.8132   -0.3826 H   0  0  0  0  0  0  0  0  0  0  0  0
   -5.5888    3.0571   -0.7167 H   0  0  0  0  0  0  0  0  0  0  0  0
  1  2  1  0
  2  3  2  0
  3  4  1  0
  4  5  2  0
  5  6  1  0
  6  7  1  0
  7  8  2  0
  7  9  1  0
  9 10  1  0
 10 11  1  0
 11 12  2  0
 12 13  1  0
 13 14  2  0
 14 15  1  0
 15 16  2  0
 16 17  1  0
 16 18  1  0
 18 19  2  0
 12 20  1  0
 20 21  1  0
 21 22  1  0
 22 23  1  0
 23 24  1  0
  5 25  1  0
 25 26  2  0
 26  2  1  0
 21 10  2  0
 19 13  1  0
 24 20  1  0
  1 27  1  0
  1 28  1  0
  1 29  1  0
  3 30  1  0
  4 31  1  0
  6 32  1  0
  9 33  1  0
  9 34  1  0
 11 35  1  0
 14 36  1  0
 15 37  1  0
 17 38  1  0
 17 39  1  0
 17 40  1  0
 18 41  1  0
 19 42  1  0
 22 43  1  0
 22 44  1  0
 23 45  1  0
 23 46  1  0
 24 47  1  0
 24 48  1  0
 25 49  1  0
 26 50  1  0
M  CHG  1  10   1
M  END
$$$$
