
     RDKit          3D

 59 62  0  0  0  0  0  0  0  0999 V2000
   -8.1556    0.0744   -1.4795 C   0  0  0  0  0  0  0  0  0  0  0  0
   -6.9365    0.9808   -1.6119 C   0  0  0  0  0  0  0  0  0  0  0  0
   -5.7373    0.4164   -0.9842 N   0  0  0  0  0  0  0  0  0  0  0  0
   -4.6411    1.3938   -0.9393 C   0  0  0  0  0  0  0  0  0  0  0  0
   -3.3944    0.8628   -0.1797 C   0  0  0  0  0  0  0  0  0  0  0  0
   -3.2918   -0.6172   -0.1128 N   0  0  0  0  0  0  0  0  0  0  0  0
   -1.9137   -1.0575    0.1697 C   0  0  0  0  0  0  0  0  0  0  0  0
   -1.4898   -0.8032    1.5953 C   0  0  0  0  0  0  0  0  0  0  0  0
   -2.3509   -0.9580    2.6979 C   0  0  0  0  0  0  0  0  0  0  0  0
   -3.6736   -1.2713    2.5309 O   0  0  0  0  0  0  0  0  0  0  0  0
   -1.9164   -0.7908    4.0258 C   0  0  0  0  0  0  0  0  0  0  0  0
   -0.5904   -0.4587    4.2994 C   0  0  0  0  0  0  0  0  0  0  0  0
    0.2523   -0.3148    3.2162 C   0  0  0  0  0  0  0  0  0  0  0  0
   -0.1744   -0.4869    1.9000 C   0  0  0  0  0  0  0  0  0  0  0  0
    0.8424   -0.3144    0.9862 O   0  0  0  0  0  0  0  0  0  0  0  0
    1.9912   -0.0092    1.7246 C   0  0  0  0  0  0  0  0  0  0  0  0
    3.1685    0.2205    1.1274 C   0  0  0  0  0  0  0  0  0  0  0  0
    4.4225    0.5336    1.7793 C   0  0  0  0  0  0  0  0  0  0  0  0
    5.5895    0.8096    1.1731 C   0  0  0  0  0  0  0  0  0  0  0  0
    5.8444    0.8928   -0.2748 C   0  0  0  0  0  0  0  0  0  0  0  0
    5.2054    1.8896   -1.0291 C   0  0  0  0  0  0  0  0  0  0  0  0
    5.4439    2.0049   -2.3975 C   0  0  0  0  0  0  0  0  0  0  0  0
    6.3285    1.1302   -3.0213 C   0  0  0  0  0  0  0  0  0  0  0  0
    6.9823    0.1424   -2.2792 C   0  0  0  0  0  0  0  0  0  0  0  0
    6.7535    0.0183   -0.9035 C   0  0  0  0  0  0  0  0  0  0  0  0
    7.3590   -0.9119   -0.0957 O   0  0  0  0  0  0  0  0  0  0  0  0
    8.3119   -1.7803   -0.6927 C   0  0  0  0  0  0  0  0  0  0  0  0
    1.6723    0.0105    3.1822 C   0  0  0  0  0  0  0  0  0  0  0  0
    2.3825    0.2379    4.1368 O   0  0  0  0  0  0  0  0  0  0  0  0
   -3.7956   -1.1955   -1.3690 C   0  0  0  0  0  0  0  0  0  0  0  0
   -5.2827   -0.8306   -1.6313 C   0  0  0  0  0  0  0  0  0  0  0  0
   -9.0425    0.5838   -1.8714 H   0  0  0  0  0  0  0  0  0  0  0  0
   -8.3488   -0.1764   -0.4313 H   0  0  0  0  0  0  0  0  0  0  0  0
   -8.0347   -0.8566   -2.0422 H   0  0  0  0  0  0  0  0  0  0  0  0
   -7.1856    1.9302   -1.1213 H   0  0  0  0  0  0  0  0  0  0  0  0
   -6.7585    1.2067   -2.6707 H   0  0  0  0  0  0  0  0  0  0  0  0
   -4.3458    1.6641   -1.9618 H   0  0  0  0  0  0  0  0  0  0  0  0
   -4.9717    2.3150   -0.4446 H   0  0  0  0  0  0  0  0  0  0  0  0
   -2.5071    1.2979   -0.6580 H   0  0  0  0  0  0  0  0  0  0  0  0
   -3.4295    1.2474    0.8467 H   0  0  0  0  0  0  0  0  0  0  0  0
   -1.8387   -2.1434    0.0238 H   0  0  0  0  0  0  0  0  0  0  0  0
   -1.2160   -0.5954   -0.5399 H   0  0  0  0  0  0  0  0  0  0  0  0
   -3.8885   -1.1209    1.5814 H   0  0  0  0  0  0  0  0  0  0  0  0
   -2.6263   -0.9203    4.8396 H   0  0  0  0  0  0  0  0  0  0  0  0
   -0.2336   -0.3242    5.3146 H   0  0  0  0  0  0  0  0  0  0  0  0
    3.1912    0.1490    0.0422 H   0  0  0  0  0  0  0  0  0  0  0  0
    4.4310    0.5165    2.8686 H   0  0  0  0  0  0  0  0  0  0  0  0
    6.4723    0.9736    1.7886 H   0  0  0  0  0  0  0  0  0  0  0  0
    4.5218    2.5857   -0.5476 H   0  0  0  0  0  0  0  0  0  0  0  0
    4.9440    2.7793   -2.9732 H   0  0  0  0  0  0  0  0  0  0  0  0
    6.5173    1.2193   -4.0882 H   0  0  0  0  0  0  0  0  0  0  0  0
    7.6687   -0.5125   -2.8058 H   0  0  0  0  0  0  0  0  0  0  0  0
    9.1511   -1.2167   -1.1141 H   0  0  0  0  0  0  0  0  0  0  0  0
    8.7099   -2.4304    0.0926 H   0  0  0  0  0  0  0  0  0  0  0  0
    7.8439   -2.4201   -1.4483 H   0  0  0  0  0  0  0  0  0  0  0  0
   -3.1848   -0.8443   -2.2115 H   0  0  0  0  0  0  0  0  0  0  0  0
   -3.7149   -2.2891   -1.3440 H   0  0  0  0  0  0  0  0  0  0  0  0
   -5.9047   -1.6507   -1.2528 H   0  0  0  0  0  0  0  0  0  0  0  0
   -5.4254   -0.7856   -2.7187 H   0  0  0  0  0  0  0  0  0  0  0  0
  1  2  1  0
  2  3  1  0
  3  4  1  0
  4  5  1  0
  5  6  1  0
  6  7  1  0
  7  8  1  0
  8  9  2  0
  9 10  1  0
  9 11  1  0
 11 12  2  0
 12 13  1  0
 13 14  2  0
 14 15  1  0
 15 16  1  0
 16 17  2  3
 17 18  1  0
 18 19  2  3
 19 20  1  0
 20 21  2  0
 21 22  1  0
 22 23  2  0
 23 24  1  0
 24 25  2  0
 25 26  1  0
 26 27  1  0
 16 28  1  0
 28 29  2  0
  6 30  1  0
 30 31  1  0
 31  3  1  0
 14  8  1  0
 25 20  1  0
 28 13  1  0
  1 32  1  0
  1 33  1  0
  1 34  1  0
  2 35  1  0
  2 36  1  0
  4 37  1  0
  4 38  1  0
  5 39  1  0
  5 40  1  0
  7 41  1  0
  7 42  1  0
 10 43  1  0
 11 44  1  0
 12 45  1  0
 17 46  1  0
 18 47  1  0
 19 48  1  0
 21 49  1  0
 22 50  1  0
 23 51  1  0
 24 52  1  0
 27 53  1  0
 27 54  1  0
 27 55  1  0
 30 56  1  0
 30 57  1  0
 31 58  1  0
 31 59  1  0
M  END
$$$$
