
     RDKit          3D

 47 50  0  0  0  0  0  0  0  0999 V2000
   -3.8103    2.6039    1.5253 C   0  0  0  0  0  0  0  0  0  0  0  0
   -4.2209    1.2340    1.2276 N   0  0  0  0  0  0  0  0  0  0  0  0
   -3.2229    0.2531    1.7004 C   0  0  0  0  0  0  0  0  0  0  0  0
   -1.9297    0.1746    0.8535 C   0  0  0  0  0  0  0  0  0  0  0  0
   -2.2048   -0.0535   -0.5826 N   0  0  0  0  0  0  0  0  0  0  0  0
   -0.9731   -0.0292   -1.3869 C   0  0  0  0  0  0  0  0  0  0  0  0
   -0.0601   -1.2023   -1.1095 C   0  0  0  0  0  0  0  0  0  0  0  0
   -0.5402   -2.5075   -1.2456 C   0  0  0  0  0  0  0  0  0  0  0  0
    0.2939   -3.6005   -0.9956 C   0  0  0  0  0  0  0  0  0  0  0  0
   -0.4031   -5.1761   -1.1872 Cl  0  0  0  0  0  0  0  0  0  0  0  0
    1.6478   -3.4227   -0.6146 C   0  0  0  0  0  0  0  0  0  0  0  0
    2.5480   -4.4814   -0.3568 C   0  0  0  0  0  0  0  0  0  0  0  0
    3.8649   -4.2242    0.0038 C   0  0  0  0  0  0  0  0  0  0  0  0
    4.2596   -2.9081    0.0953 C   0  0  0  0  0  0  0  0  0  0  0  0
    3.4390   -1.8646   -0.1441 N   0  0  0  0  0  0  0  0  0  0  0  0
    2.1524   -2.1122   -0.4822 C   0  0  0  0  0  0  0  0  0  0  0  0
    1.2776   -1.0423   -0.7184 C   0  0  0  0  0  0  0  0  0  0  0  0
    1.7984    0.2609   -0.6053 O   0  0  0  0  0  0  0  0  0  0  0  0
    1.8910    0.6898    0.7183 C   0  0  0  0  0  0  0  0  0  0  0  0
    1.3614    0.1309    1.6745 O   0  0  0  0  0  0  0  0  0  0  0  0
    2.6449    1.9312    0.7611 C   0  0  0  0  0  0  0  0  0  0  0  0
    3.3232    2.5889   -0.2512 C   0  0  0  0  0  0  0  0  0  0  0  0
    3.9413    3.7937    0.1952 C   0  0  0  0  0  0  0  0  0  0  0  0
    3.7183    4.0197    1.5341 C   0  0  0  0  0  0  0  0  0  0  0  0
    2.7723    2.7859    2.2436 S   0  0  0  0  0  0  0  0  0  0  0  0
   -3.1602    0.9592   -1.0729 C   0  0  0  0  0  0  0  0  0  0  0  0
   -4.4460    1.0297   -0.2158 C   0  0  0  0  0  0  0  0  0  0  0  0
   -3.6950    2.7399    2.6065 H   0  0  0  0  0  0  0  0  0  0  0  0
   -4.5843    3.3105    1.2052 H   0  0  0  0  0  0  0  0  0  0  0  0
   -2.8696    2.8916    1.0453 H   0  0  0  0  0  0  0  0  0  0  0  0
   -3.6987   -0.7369    1.6998 H   0  0  0  0  0  0  0  0  0  0  0  0
   -2.9642    0.4529    2.7477 H   0  0  0  0  0  0  0  0  0  0  0  0
   -1.3297   -0.6507    1.2533 H   0  0  0  0  0  0  0  0  0  0  0  0
   -1.3497    1.0961    0.9913 H   0  0  0  0  0  0  0  0  0  0  0  0
   -0.4522    0.9269   -1.2561 H   0  0  0  0  0  0  0  0  0  0  0  0
   -1.2299   -0.0878   -2.4535 H   0  0  0  0  0  0  0  0  0  0  0  0
   -1.5777   -2.6690   -1.5350 H   0  0  0  0  0  0  0  0  0  0  0  0
    2.2281   -5.5181   -0.4337 H   0  0  0  0  0  0  0  0  0  0  0  0
    4.5598   -5.0310    0.2067 H   0  0  0  0  0  0  0  0  0  0  0  0
    5.2763   -2.6445    0.3728 H   0  0  0  0  0  0  0  0  0  0  0  0
    3.3824    2.2208   -1.2692 H   0  0  0  0  0  0  0  0  0  0  0  0
    4.5230    4.4574   -0.4332 H   0  0  0  0  0  0  0  0  0  0  0  0
    4.0679    4.8490    2.1341 H   0  0  0  0  0  0  0  0  0  0  0  0
   -3.4540    0.7102   -2.1000 H   0  0  0  0  0  0  0  0  0  0  0  0
   -2.6888    1.9501   -1.1045 H   0  0  0  0  0  0  0  0  0  0  0  0
   -5.1066    1.8124   -0.6091 H   0  0  0  0  0  0  0  0  0  0  0  0
   -4.9994    0.0893   -0.3410 H   0  0  0  0  0  0  0  0  0  0  0  0
  1  2  1  0
  2  3  1  0
  3  4  1  0
  4  5  1  0
  5  6  1  0
  6  7  1  0
  7  8  2  0
  8  9  1  0
  9 10  1  0
  9 11  2  0
 11 12  1  0
 12 13  2  0
 13 14  1  0
 14 15  2  0
 15 16  1  0
 16 17  2  0
 17 18  1  0
 18 19  1  0
 19 20  2  0
 19 21  1  0
 21 22  2  0
 22 23  1  0
 23 24  2  0
 24 25  1  0
  5 26  1  0
 26 27  1  0
 27  2  1  0
 17  7  1  0
 25 21  1  0
 16 11  1  0
  1 28  1  0
  1 29  1  0
  1 30  1  0
  3 31  1  0
  3 32  1  0
  4 33  1  0
  4 34  1  0
  6 35  1  0
  6 36  1  0
  8 37  1  0
 12 38  1  0
 13 39  1  0
 14 40  1  0
 22 41  1  0
 23 42  1  0
 24 43  1  0
 26 44  1  0
 26 45  1  0
 27 46  1  0
 27 47  1  0
M  END
$$$$
