
     RDKit          3D

 37 38  0  0  0  0  0  0  0  0999 V2000
   -5.5736    1.2211   -1.1886 C   0  0  0  0  0  0  0  0  0  0  0  0
   -4.3427    0.4359   -1.2071 N   0  0  0  0  0  0  0  0  0  0  0  0
   -3.1592    1.3128   -1.1735 C   0  0  0  0  0  0  0  0  0  0  0  0
   -1.8597    0.5542   -0.8462 C   0  0  0  0  0  0  0  0  0  0  0  0
   -1.9328   -0.1540    0.4372 N   0  0  0  0  0  0  0  0  0  0  0  0
   -0.8506   -0.5553    1.1981 C   0  0  0  0  0  0  0  0  0  0  0  0
   -0.9639   -0.9936    2.3409 O   0  0  0  0  0  0  0  0  0  0  0  0
    0.4918   -0.4490    0.5629 C   0  0  0  0  0  0  0  0  0  0  0  0
    1.5933   -0.5206    1.3272 C   0  0  0  0  0  0  0  0  0  0  0  0
    2.9637   -0.4703    0.8027 C   0  0  0  0  0  0  0  0  0  0  0  0
    3.3319    0.3807   -0.2496 C   0  0  0  0  0  0  0  0  0  0  0  0
    4.6541    0.4219   -0.7047 C   0  0  0  0  0  0  0  0  0  0  0  0
    5.6200   -0.3880   -0.0952 C   0  0  0  0  0  0  0  0  0  0  0  0
    7.0089   -0.3479   -0.5694 N   0  0  0  0  0  4  0  0  0  0  0  0
    7.2726    0.4066   -1.5168 O   0  0  0  0  0  0  0  0  0  0  0  0
    7.8358   -1.0709    0.0044 O   0  0  0  0  0  1  0  0  0  0  0  0
    5.2717   -1.2308    0.9663 C   0  0  0  0  0  0  0  0  0  0  0  0
    3.9468   -1.2629    1.4131 C   0  0  0  0  0  0  0  0  0  0  0  0
   -3.2793   -0.3570    0.9753 C   0  0  0  0  0  0  0  0  0  0  0  0
   -4.3218   -0.5831   -0.1363 C   0  0  0  0  0  0  0  0  0  0  0  0
   -6.4455    0.5718   -1.3245 H   0  0  0  0  0  0  0  0  0  0  0  0
   -5.6957    1.7728   -0.2496 H   0  0  0  0  0  0  0  0  0  0  0  0
   -5.5857    1.9394   -2.0160 H   0  0  0  0  0  0  0  0  0  0  0  0
   -3.0477    1.8041   -2.1471 H   0  0  0  0  0  0  0  0  0  0  0  0
   -3.2922    2.1041   -0.4230 H   0  0  0  0  0  0  0  0  0  0  0  0
   -1.6502   -0.1933   -1.6206 H   0  0  0  0  0  0  0  0  0  0  0  0
   -1.0249    1.2627   -0.8217 H   0  0  0  0  0  0  0  0  0  0  0  0
    0.5496   -0.3704   -0.5129 H   0  0  0  0  0  0  0  0  0  0  0  0
    1.5004   -0.6511    2.4049 H   0  0  0  0  0  0  0  0  0  0  0  0
    2.5979    1.0319   -0.7194 H   0  0  0  0  0  0  0  0  0  0  0  0
    4.9116    1.0902   -1.5239 H   0  0  0  0  0  0  0  0  0  0  0  0
    6.0105   -1.8630    1.4549 H   0  0  0  0  0  0  0  0  0  0  0  0
    3.6855   -1.9217    2.2404 H   0  0  0  0  0  0  0  0  0  0  0  0
   -3.5340    0.5356    1.5595 H   0  0  0  0  0  0  0  0  0  0  0  0
   -3.2855   -1.2112    1.6615 H   0  0  0  0  0  0  0  0  0  0  0  0
   -5.3111   -0.7128    0.3201 H   0  0  0  0  0  0  0  0  0  0  0  0
   -4.0900   -1.5391   -0.6234 H   0  0  0  0  0  0  0  0  0  0  0  0
  1  2  1  0
  2  3  1  0
  3  4  1  0
  4  5  1  0
  5  6  1  0
  6  7  2  0
  6  8  1  0
  8  9  2  3
  9 10  1  0
 10 11  2  0
 11 12  1  0
 12 13  2  0
 13 14  1  0
 14 15  2  0
 14 16  1  0
 13 17  1  0
 17 18  2  0
  5 19  1  0
 19 20  1  0
 20  2  1  0
 18 10  1  0
  1 21  1  0
  1 22  1  0
  1 23  1  0
  3 24  1  0
  3 25  1  0
  4 26  1  0
  4 27  1  0
  8 28  1  0
  9 29  1  0
 11 30  1  0
 12 31  1  0
 17 32  1  0
 18 33  1  0
 19 34  1  0
 19 35  1  0
 20 36  1  0
 20 37  1  0
M  CHG  2  14   1  16  -1
M  END
$$$$
