
     RDKit          3D

 64 67  0  0  0  0  0  0  0  0999 V2000
   10.4422   -1.3420    0.3653 C   0  0  0  0  0  0  0  0  0  0  0  0
    9.2973   -2.2919    0.6794 C   0  0  0  0  0  0  0  0  0  0  0  0
    7.9552   -1.6713    0.3879 C   0  0  0  0  0  0  0  0  0  0  0  0
    7.2854   -0.9344    1.3703 C   0  0  0  0  0  0  0  0  0  0  0  0
    6.0467   -0.3452    1.0947 C   0  0  0  0  0  0  0  0  0  0  0  0
    5.4496   -0.4754   -0.1683 C   0  0  0  0  0  0  0  0  0  0  0  0
    4.1498    0.1502   -0.4479 C   0  0  0  0  0  0  0  0  0  0  0  0
    3.3586    0.0445   -1.6293 C   0  0  0  0  0  0  0  0  0  0  0  0
    2.2499    0.8229   -1.3975 C   0  0  0  0  0  0  0  0  0  0  0  0
    1.0910    1.1475   -2.1698 C   0  0  0  0  0  0  0  0  0  0  0  0
    0.8995    0.6995   -3.2951 O   0  0  0  0  0  0  0  0  0  0  0  0
    0.1995    2.0262   -1.5217 N   0  0  0  0  0  0  0  0  0  0  0  0
   -1.0147    2.4382   -2.2282 C   0  0  0  0  0  0  0  0  0  0  0  0
   -2.1766    1.4823   -1.9597 C   0  0  0  0  0  0  0  0  0  0  0  0
   -3.0918    1.3234   -2.7637 O   0  0  0  0  0  0  0  0  0  0  0  0
   -2.1939    0.9421   -0.6913 N   0  0  0  0  0  0  0  0  0  0  0  0
   -3.1831   -0.0235   -0.2522 C   0  0  0  0  0  0  0  0  0  0  0  0
   -4.6088    0.5585   -0.1320 C   0  0  0  0  0  0  0  0  0  0  0  0
   -5.5833   -0.2923    0.5996 N   0  0  0  0  0  0  0  0  0  0  0  0
   -5.6295   -1.6527    0.0257 C   0  0  0  0  0  0  0  0  0  0  0  0
   -6.5889   -2.5707    0.7825 C   0  0  0  0  0  0  0  0  0  0  0  0
   -7.9880   -1.9846    0.8305 C   0  0  0  0  0  0  0  0  0  0  0  0
   -7.9389   -0.5647    1.3760 C   0  0  0  0  0  0  0  0  0  0  0  0
   -6.9431    0.3171    0.5954 C   0  0  0  0  0  0  0  0  0  0  0  0
   -6.9749    1.7259    1.2123 C   0  0  0  0  0  0  0  0  0  0  0  0
    0.3685    2.5112   -0.2156 N   0  0  0  0  0  0  0  0  0  0  0  0
    1.4525    2.1730    0.4244 C   0  0  0  0  0  0  0  0  0  0  0  0
    1.7559    2.6378    1.8129 C   0  0  0  0  0  0  0  0  0  0  0  0
    2.4023    1.3366   -0.1524 N   0  0  0  0  0  0  0  0  0  0  0  0
    3.5390    0.9440    0.4548 N   0  0  0  0  0  0  0  0  0  0  0  0
    6.1298   -1.2096   -1.1501 C   0  0  0  0  0  0  0  0  0  0  0  0
    7.3700   -1.7987   -0.8762 C   0  0  0  0  0  0  0  0  0  0  0  0
   11.3990   -1.8088    0.6144 H   0  0  0  0  0  0  0  0  0  0  0  0
   10.3581   -0.4133    0.9400 H   0  0  0  0  0  0  0  0  0  0  0  0
   10.4612   -1.0782   -0.6965 H   0  0  0  0  0  0  0  0  0  0  0  0
    9.4123   -3.2163    0.0991 H   0  0  0  0  0  0  0  0  0  0  0  0
    9.3427   -2.5881    1.7340 H   0  0  0  0  0  0  0  0  0  0  0  0
    7.7217   -0.8113    2.3596 H   0  0  0  0  0  0  0  0  0  0  0  0
    5.5508    0.2202    1.8813 H   0  0  0  0  0  0  0  0  0  0  0  0
    3.5614   -0.5170   -2.5318 H   0  0  0  0  0  0  0  0  0  0  0  0
   -0.8218    2.4592   -3.3052 H   0  0  0  0  0  0  0  0  0  0  0  0
   -1.2977    3.4426   -1.8974 H   0  0  0  0  0  0  0  0  0  0  0  0
   -1.4449    1.2154   -0.0616 H   0  0  0  0  0  0  0  0  0  0  0  0
   -3.1648   -0.8504   -0.9699 H   0  0  0  0  0  0  0  0  0  0  0  0
   -2.8425   -0.3983    0.7194 H   0  0  0  0  0  0  0  0  0  0  0  0
   -4.9933    0.7890   -1.1342 H   0  0  0  0  0  0  0  0  0  0  0  0
   -4.5062    1.5127    0.3982 H   0  0  0  0  0  0  0  0  0  0  0  0
   -5.9107   -1.6168   -1.0357 H   0  0  0  0  0  0  0  0  0  0  0  0
   -4.6429   -2.1244    0.0885 H   0  0  0  0  0  0  0  0  0  0  0  0
   -6.2172   -2.7266    1.8037 H   0  0  0  0  0  0  0  0  0  0  0  0
   -6.6182   -3.5545    0.3000 H   0  0  0  0  0  0  0  0  0  0  0  0
   -8.4214   -1.9772   -0.1778 H   0  0  0  0  0  0  0  0  0  0  0  0
   -8.6373   -2.6060    1.4574 H   0  0  0  0  0  0  0  0  0  0  0  0
   -7.6641   -0.5919    2.4398 H   0  0  0  0  0  0  0  0  0  0  0  0
   -8.9466   -0.1340    1.3199 H   0  0  0  0  0  0  0  0  0  0  0  0
   -7.2988    0.3966   -0.4433 H   0  0  0  0  0  0  0  0  0  0  0  0
   -6.4698    2.4604    0.5760 H   0  0  0  0  0  0  0  0  0  0  0  0
   -8.0062    2.0740    1.3332 H   0  0  0  0  0  0  0  0  0  0  0  0
   -6.4996    1.7389    2.2005 H   0  0  0  0  0  0  0  0  0  0  0  0
    0.9653    3.3098    2.1596 H   0  0  0  0  0  0  0  0  0  0  0  0
    2.7054    3.1806    1.8350 H   0  0  0  0  0  0  0  0  0  0  0  0
    1.8075    1.7836    2.4939 H   0  0  0  0  0  0  0  0  0  0  0  0
    5.7163   -1.3358   -2.1470 H   0  0  0  0  0  0  0  0  0  0  0  0
    7.8750   -2.3580   -1.6609 H   0  0  0  0  0  0  0  0  0  0  0  0
  1  2  1  0
  2  3  1  0
  3  4  2  0
  4  5  1  0
  5  6  2  0
  6  7  1  0
  7  8  1  0
  8  9  2  0
  9 10  1  0
 10 11  2  0
 10 12  1  0
 12 13  1  0
 13 14  1  0
 14 15  2  0
 14 16  1  0
 16 17  1  0
 17 18  1  0
 18 19  1  0
 19 20  1  0
 20 21  1  0
 21 22  1  0
 22 23  1  0
 23 24  1  0
 24 25  1  0
 12 26  1  0
 26 27  2  0
 27 28  1  0
 27 29  1  0
 29 30  1  0
  6 31  1  0
 31 32  2  0
 32  3  1  0
 30  7  2  0
 29  9  1  0
 24 19  1  0
  1 33  1  0
  1 34  1  0
  1 35  1  0
  2 36  1  0
  2 37  1  0
  4 38  1  0
  5 39  1  0
  8 40  1  0
 13 41  1  0
 13 42  1  0
 16 43  1  0
 17 44  1  0
 17 45  1  0
 18 46  1  0
 18 47  1  0
 20 48  1  0
 20 49  1  0
 21 50  1  0
 21 51  1  0
 22 52  1  0
 22 53  1  0
 23 54  1  0
 23 55  1  0
 24 56  1  0
 25 57  1  0
 25 58  1  0
 25 59  1  0
 28 60  1  0
 28 61  1  0
 28 62  1  0
 31 63  1  0
 32 64  1  0
M  END
$$$$
