
     RDKit          3D

 61 66  0  0  0  0  0  0  0  0999 V2000
   -2.1833    4.4792    2.4920 C   0  0  0  0  0  0  0  0  0  0  0  0
   -2.7067    4.5141    1.0520 C   0  0  0  0  0  0  0  0  0  0  0  0
   -3.4612    3.2181    0.6872 C   0  0  0  0  0  0  0  0  0  0  0  0
   -2.5556    1.9748    0.6628 C   0  0  0  0  0  0  0  0  0  0  0  0
   -1.2554    2.2440   -0.0384 C   0  0  0  0  0  0  0  0  0  0  0  0
   -0.8255    3.5330   -0.2990 C   0  0  0  0  0  0  0  0  0  0  0  0
    0.6593    3.5716   -1.1243 S   0  0  0  0  0  0  0  0  0  0  0  0
    0.7627    1.8702   -1.1367 C   0  0  0  0  0  0  0  0  0  0  0  0
    1.8103    1.2668   -1.7176 N   0  0  0  0  0  0  0  0  0  0  0  0
    1.7546   -0.0706   -1.6357 C   0  0  0  0  0  0  0  0  0  0  0  0
    2.9083   -0.8521   -2.2574 C   0  0  0  0  0  0  0  0  0  0  0  0
    4.0781   -1.0613   -1.3702 N   0  0  0  0  0  0  0  0  0  0  0  0
    4.7238    0.2278   -1.0249 C   0  0  0  0  0  0  0  0  0  0  0  0
    6.1979    0.0421   -0.6363 C   0  0  0  0  0  0  0  0  0  0  0  0
    6.9950   -0.4643   -1.7175 O   0  0  0  0  0  0  0  0  0  0  0  0
    6.2510   -1.2788   -2.6326 C   0  0  0  0  0  0  0  0  0  0  0  0
    5.0578   -1.9883   -1.9740 C   0  0  0  0  0  0  0  0  0  0  0  0
    0.7764   -0.7868   -1.0431 N   0  0  0  0  0  0  0  0  0  0  0  0
   -0.2653   -0.1541   -0.4547 C   0  0  0  0  0  0  0  0  0  0  0  0
   -1.2637   -0.9026    0.1983 N   0  0  0  0  0  0  0  0  0  0  0  0
   -0.8784   -1.1284    1.6006 C   0  0  0  0  0  0  0  0  0  0  0  0
   -2.0911   -1.6680    2.3682 C   0  0  0  0  0  0  0  0  0  0  0  0
   -2.7871   -2.7927    1.6400 C   0  0  0  0  0  0  0  0  0  0  0  0
   -3.7095   -3.5992    2.3213 C   0  0  0  0  0  0  0  0  0  0  0  0
   -4.3874   -4.6166    1.6502 C   0  0  0  0  0  0  0  0  0  0  0  0
   -4.1546   -4.8331    0.2938 C   0  0  0  0  0  0  0  0  0  0  0  0
   -3.2454   -4.0302   -0.3955 C   0  0  0  0  0  0  0  0  0  0  0  0
   -2.5634   -2.9958    0.2638 C   0  0  0  0  0  0  0  0  0  0  0  0
   -1.5419   -2.1696   -0.4986 C   0  0  0  0  0  0  0  0  0  0  0  0
   -0.3066    1.2568   -0.5034 C   0  0  0  0  0  0  0  0  0  0  0  0
   -1.5691    4.7899    0.0427 C   0  0  0  0  0  0  0  0  0  0  0  0
   -1.4100    3.7183    2.6340 H   0  0  0  0  0  0  0  0  0  0  0  0
   -2.9982    4.2715    3.1943 H   0  0  0  0  0  0  0  0  0  0  0  0
   -1.7493    5.4474    2.7644 H   0  0  0  0  0  0  0  0  0  0  0  0
   -3.4168    5.3495    0.9927 H   0  0  0  0  0  0  0  0  0  0  0  0
   -4.2920    3.0517    1.3839 H   0  0  0  0  0  0  0  0  0  0  0  0
   -3.9096    3.3465   -0.3081 H   0  0  0  0  0  0  0  0  0  0  0  0
   -3.0954    1.1605    0.1676 H   0  0  0  0  0  0  0  0  0  0  0  0
   -2.3455    1.6550    1.6900 H   0  0  0  0  0  0  0  0  0  0  0  0
    3.2096   -0.3585   -3.1904 H   0  0  0  0  0  0  0  0  0  0  0  0
    2.4994   -1.8305   -2.5420 H   0  0  0  0  0  0  0  0  0  0  0  0
    4.6913    0.9139   -1.8812 H   0  0  0  0  0  0  0  0  0  0  0  0
    4.1865    0.6925   -0.1917 H   0  0  0  0  0  0  0  0  0  0  0  0
    6.6300    1.0009   -0.3334 H   0  0  0  0  0  0  0  0  0  0  0  0
    6.2962   -0.6420    0.2140 H   0  0  0  0  0  0  0  0  0  0  0  0
    6.9431   -2.0169   -3.0504 H   0  0  0  0  0  0  0  0  0  0  0  0
    5.9162   -0.6441   -3.4611 H   0  0  0  0  0  0  0  0  0  0  0  0
    5.4405   -2.6164   -1.1594 H   0  0  0  0  0  0  0  0  0  0  0  0
    4.5850   -2.6722   -2.6888 H   0  0  0  0  0  0  0  0  0  0  0  0
   -0.5490   -0.1999    2.0848 H   0  0  0  0  0  0  0  0  0  0  0  0
   -0.0454   -1.8431    1.6614 H   0  0  0  0  0  0  0  0  0  0  0  0
   -1.7638   -2.0056    3.3587 H   0  0  0  0  0  0  0  0  0  0  0  0
   -2.8195   -0.8593    2.5105 H   0  0  0  0  0  0  0  0  0  0  0  0
   -3.9042   -3.4368    3.3792 H   0  0  0  0  0  0  0  0  0  0  0  0
   -5.0980   -5.2408    2.1861 H   0  0  0  0  0  0  0  0  0  0  0  0
   -4.6801   -5.6286   -0.2280 H   0  0  0  0  0  0  0  0  0  0  0  0
   -3.0696   -4.2157   -1.4527 H   0  0  0  0  0  0  0  0  0  0  0  0
   -1.9383   -1.9493   -1.4981 H   0  0  0  0  0  0  0  0  0  0  0  0
   -0.6402   -2.7885   -0.6018 H   0  0  0  0  0  0  0  0  0  0  0  0
   -0.8890    5.5556    0.4351 H   0  0  0  0  0  0  0  0  0  0  0  0
   -2.0077    5.1885   -0.8822 H   0  0  0  0  0  0  0  0  0  0  0  0
  1  2  1  0
  2  3  1  0
  3  4  1  0
  4  5  1  0
  5  6  2  0
  6  7  1  0
  7  8  1  0
  8  9  2  0
  9 10  1  0
 10 11  1  0
 11 12  1  0
 12 13  1  0
 13 14  1  0
 14 15  1  0
 15 16  1  0
 16 17  1  0
 10 18  2  0
 18 19  1  0
 19 20  1  0
 20 21  1  0
 21 22  1  0
 22 23  1  0
 23 24  2  0
 24 25  1  0
 25 26  2  0
 26 27  1  0
 27 28  2  0
 28 29  1  0
 19 30  2  0
  6 31  1  0
 31  2  1  0
 30  5  1  0
 30  8  1  0
 17 12  1  0
 29 20  1  0
 28 23  1  0
  1 32  1  0
  1 33  1  0
  1 34  1  0
  2 35  1  0
  3 36  1  0
  3 37  1  0
  4 38  1  0
  4 39  1  0
 11 40  1  0
 11 41  1  0
 13 42  1  0
 13 43  1  0
 14 44  1  0
 14 45  1  0
 16 46  1  0
 16 47  1  0
 17 48  1  0
 17 49  1  0
 21 50  1  0
 21 51  1  0
 22 52  1  0
 22 53  1  0
 24 54  1  0
 25 55  1  0
 26 56  1  0
 27 57  1  0
 29 58  1  0
 29 59  1  0
 31 60  1  0
 31 61  1  0
M  END
$$$$
