
     RDKit          3D

 55 58  0  0  0  0  0  0  0  0999 V2000
    4.3813   -1.7289    3.0087 C   0  0  0  0  0  0  0  0  0  0  0  0
    3.6755   -2.6658    2.0461 C   0  0  0  0  0  0  0  0  0  0  0  0
    3.9514   -2.3213    0.6900 O   0  0  0  0  0  0  0  0  0  0  0  0
    3.2649   -1.2989    0.0943 C   0  0  0  0  0  0  0  0  0  0  0  0
    2.1836   -0.6185    0.6647 C   0  0  0  0  0  0  0  0  0  0  0  0
    1.5468    0.4266   -0.0238 C   0  0  0  0  0  0  0  0  0  0  0  0
    0.4085    1.1059    0.6125 C   0  0  0  0  0  0  0  0  0  0  0  0
   -0.7986    1.3423    0.0605 C   0  0  0  0  0  0  0  0  0  0  0  0
   -1.1416    0.8855   -1.3223 C   0  0  0  0  0  0  0  0  0  0  0  0
   -1.3522    1.7277   -2.1955 O   0  0  0  0  0  0  0  0  0  0  0  0
   -1.2391   -0.4751   -1.5408 N   0  0  0  0  0  0  0  0  0  0  0  0
   -1.4308   -0.9587   -2.9071 C   0  0  0  0  0  0  0  0  0  0  0  0
   -1.0410   -2.4365   -3.0192 C   0  0  0  0  0  0  0  0  0  0  0  0
   -1.7800   -3.2965   -2.1357 O   0  0  0  0  0  0  0  0  0  0  0  0
   -2.2851   -2.6353   -0.9645 C   0  0  0  0  0  0  0  0  0  0  0  0
   -1.3864   -1.4900   -0.4869 C   0  0  0  0  0  0  0  0  0  0  0  0
   -1.7603    2.0847    0.8003 C   0  0  0  0  0  0  0  0  0  0  0  0
   -1.9196    2.2232    2.1046 N   0  0  0  0  0  0  0  0  0  0  0  0
   -3.0029    3.0536    2.2649 C   0  0  0  0  0  0  0  0  0  0  0  0
   -3.6091    3.5212    3.4405 C   0  0  0  0  0  0  0  0  0  0  0  0
   -4.7176    4.3712    3.3325 C   0  0  0  0  0  0  0  0  0  0  0  0
   -5.2089    4.7494    2.0802 C   0  0  0  0  0  0  0  0  0  0  0  0
   -4.6164    4.2931    0.8958 C   0  0  0  0  0  0  0  0  0  0  0  0
   -3.5161    3.4441    1.0335 C   0  0  0  0  0  0  0  0  0  0  0  0
   -2.7066    2.8219    0.1178 N   0  0  0  0  0  0  0  0  0  0  0  0
    2.0297    0.8245   -1.2747 C   0  0  0  0  0  0  0  0  0  0  0  0
    3.0974    0.1447   -1.8586 C   0  0  0  0  0  0  0  0  0  0  0  0
    3.6326    0.6521   -3.4201 Cl  0  0  0  0  0  0  0  0  0  0  0  0
    3.6975   -0.9309   -1.1921 C   0  0  0  0  0  0  0  0  0  0  0  0
    4.7582   -1.5726   -1.7879 O   0  0  0  0  0  0  0  0  0  0  0  0
    4.3485   -2.8384   -2.3092 C   0  0  0  0  0  0  0  0  0  0  0  0
    5.4593   -1.7205    2.8146 H   0  0  0  0  0  0  0  0  0  0  0  0
    4.0327   -0.6988    2.8971 H   0  0  0  0  0  0  0  0  0  0  0  0
    4.2107   -2.0373    4.0441 H   0  0  0  0  0  0  0  0  0  0  0  0
    2.6016   -2.7447    2.2445 H   0  0  0  0  0  0  0  0  0  0  0  0
    4.0756   -3.6746    2.1957 H   0  0  0  0  0  0  0  0  0  0  0  0
    1.8078   -0.8873    1.6460 H   0  0  0  0  0  0  0  0  0  0  0  0
    0.6011    1.4467    1.6295 H   0  0  0  0  0  0  0  0  0  0  0  0
   -0.8418   -0.3501   -3.6004 H   0  0  0  0  0  0  0  0  0  0  0  0
   -2.4921   -0.8244   -3.1453 H   0  0  0  0  0  0  0  0  0  0  0  0
    0.0234   -2.5672   -2.7852 H   0  0  0  0  0  0  0  0  0  0  0  0
   -1.1997   -2.7965   -4.0399 H   0  0  0  0  0  0  0  0  0  0  0  0
   -3.2892   -2.2603   -1.2040 H   0  0  0  0  0  0  0  0  0  0  0  0
   -2.3958   -3.3883   -0.1775 H   0  0  0  0  0  0  0  0  0  0  0  0
   -0.3841   -1.8769   -0.2741 H   0  0  0  0  0  0  0  0  0  0  0  0
   -1.7984   -1.0414    0.4216 H   0  0  0  0  0  0  0  0  0  0  0  0
   -3.2190    3.2271    4.4100 H   0  0  0  0  0  0  0  0  0  0  0  0
   -5.1990    4.7435    4.2350 H   0  0  0  0  0  0  0  0  0  0  0  0
   -6.0702    5.4123    2.0237 H   0  0  0  0  0  0  0  0  0  0  0  0
   -4.9969    4.5896   -0.0760 H   0  0  0  0  0  0  0  0  0  0  0  0
   -2.7564    2.9122   -0.8900 H   0  0  0  0  0  0  0  0  0  0  0  0
    1.5768    1.6626   -1.8018 H   0  0  0  0  0  0  0  0  0  0  0  0
    5.0801   -3.1386   -3.0648 H   0  0  0  0  0  0  0  0  0  0  0  0
    3.3633   -2.7934   -2.7904 H   0  0  0  0  0  0  0  0  0  0  0  0
    4.3464   -3.5984   -1.5207 H   0  0  0  0  0  0  0  0  0  0  0  0
  1  2  1  0
  2  3  1  0
  3  4  1  0
  4  5  2  0
  5  6  1  0
  6  7  1  0
  7  8  2  3
  8  9  1  0
  9 10  2  0
  9 11  1  0
 11 12  1  0
 12 13  1  0
 13 14  1  0
 14 15  1  0
 15 16  1  0
  8 17  1  0
 17 18  2  0
 18 19  1  0
 19 20  2  0
 20 21  1  0
 21 22  2  0
 22 23  1  0
 23 24  2  0
 24 25  1  0
  6 26  2  0
 26 27  1  0
 27 28  1  0
 27 29  2  0
 29 30  1  0
 30 31  1  0
 29  4  1  0
 16 11  1  0
 25 17  1  0
 24 19  1  0
  1 32  1  0
  1 33  1  0
  1 34  1  0
  2 35  1  0
  2 36  1  0
  5 37  1  0
  7 38  1  0
 12 39  1  0
 12 40  1  0
 13 41  1  0
 13 42  1  0
 15 43  1  0
 15 44  1  0
 16 45  1  0
 16 46  1  0
 20 47  1  0
 21 48  1  0
 22 49  1  0
 23 50  1  0
 25 51  1  0
 26 52  1  0
 31 53  1  0
 31 54  1  0
 31 55  1  0
M  END
$$$$
