
     RDKit          3D

 59 62  0  0  0  0  0  0  0  0999 V2000
    9.4263    1.4447    1.6143 C   0  0  0  0  0  0  0  0  0  0  0  0
    8.0992    1.8619    2.2263 C   0  0  0  0  0  0  0  0  0  0  0  0
    7.2710    2.4834    1.2436 O   0  0  0  0  0  0  0  0  0  0  0  0
    6.3821    1.7114    0.5509 C   0  0  0  0  0  0  0  0  0  0  0  0
    6.3183    0.3207    0.5483 C   0  0  0  0  0  0  0  0  0  0  0  0
    5.3394   -0.3404   -0.2059 C   0  0  0  0  0  0  0  0  0  0  0  0
    4.4172    0.3810   -0.9750 C   0  0  0  0  0  0  0  0  0  0  0  0
    3.3477   -0.3267   -1.7730 C   0  0  0  0  0  0  0  0  0  0  0  0
    2.3396   -1.0905   -0.9083 C   0  0  0  0  0  0  0  0  0  0  0  0
    1.6130   -0.2134   -0.0107 N   0  0  0  0  0  0  0  0  0  0  0  0
    1.4396   -0.5079    1.3245 C   0  0  0  0  0  0  0  0  0  0  0  0
    1.8764   -1.5188    1.8636 O   0  0  0  0  0  0  0  0  0  0  0  0
    0.6647    0.5488    2.0889 C   0  0  0  0  0  0  0  0  0  0  0  0
   -0.8185    0.4991    1.8132 C   0  0  0  0  0  0  0  0  0  0  0  0
   -1.5902   -0.5573    2.3140 C   0  0  0  0  0  0  0  0  0  0  0  0
   -2.9638   -0.6080    2.0650 C   0  0  0  0  0  0  0  0  0  0  0  0
   -3.5848    0.3838    1.3028 C   0  0  0  0  0  0  0  0  0  0  0  0
   -4.9689    0.3600    1.0938 N   0  0  0  0  0  0  0  0  0  0  0  0
   -5.4747   -0.3304    0.1257 C   0  0  0  0  0  0  0  0  0  0  0  0
   -6.8264   -0.4153   -0.0812 N   0  0  0  0  0  0  0  0  0  0  0  0
   -7.2518   -1.5834   -0.8357 C   0  0  0  0  0  0  0  0  0  0  0  0
   -8.5925   -1.3774   -1.5209 C   0  0  0  0  0  0  0  0  0  0  0  0
   -8.2359   -1.0500   -3.2295 S   0  0  0  0  0  6  0  0  0  0  0  0
   -8.8000    0.2297   -3.5926 O   0  0  0  0  0  0  0  0  0  0  0  0
   -8.5236   -2.2596   -3.9725 O   0  0  0  0  0  0  0  0  0  0  0  0
   -6.4728   -0.9034   -3.0706 C   0  0  0  0  0  0  0  0  0  0  0  0
   -6.1591   -1.8086   -1.8927 C   0  0  0  0  0  0  0  0  0  0  0  0
   -4.6138   -1.3133   -1.0597 S   0  0  0  0  0  0  0  0  0  0  0  0
   -2.8202    1.4459    0.8186 C   0  0  0  0  0  0  0  0  0  0  0  0
   -1.4455    1.5041    1.0655 C   0  0  0  0  0  0  0  0  0  0  0  0
    4.5013    1.7780   -0.9862 C   0  0  0  0  0  0  0  0  0  0  0  0
    5.4759    2.4340   -0.2290 C   0  0  0  0  0  0  0  0  0  0  0  0
   10.0928    1.0387    2.3802 H   0  0  0  0  0  0  0  0  0  0  0  0
    9.2889    0.6900    0.8354 H   0  0  0  0  0  0  0  0  0  0  0  0
    9.9181    2.3030    1.1425 H   0  0  0  0  0  0  0  0  0  0  0  0
    8.2946    2.6233    2.9949 H   0  0  0  0  0  0  0  0  0  0  0  0
    7.5988    1.0327    2.7439 H   0  0  0  0  0  0  0  0  0  0  0  0
    7.0131   -0.2860    1.1174 H   0  0  0  0  0  0  0  0  0  0  0  0
    5.2994   -1.4297   -0.1768 H   0  0  0  0  0  0  0  0  0  0  0  0
    2.8086    0.4006   -2.3919 H   0  0  0  0  0  0  0  0  0  0  0  0
    3.8348   -1.0200   -2.4682 H   0  0  0  0  0  0  0  0  0  0  0  0
    1.5936   -1.5655   -1.5549 H   0  0  0  0  0  0  0  0  0  0  0  0
    2.8376   -1.8865   -0.3433 H   0  0  0  0  0  0  0  0  0  0  0  0
    1.0506    0.5263   -0.4101 H   0  0  0  0  0  0  0  0  0  0  0  0
    0.8434    0.4050    3.1591 H   0  0  0  0  0  0  0  0  0  0  0  0
    1.0799    1.5345    1.8445 H   0  0  0  0  0  0  0  0  0  0  0  0
   -1.1271   -1.3457    2.9046 H   0  0  0  0  0  0  0  0  0  0  0  0
   -3.5531   -1.4235    2.4734 H   0  0  0  0  0  0  0  0  0  0  0  0
   -7.3598   -0.1414    0.7392 H   0  0  0  0  0  0  0  0  0  0  0  0
   -7.3099   -2.4345   -0.1469 H   0  0  0  0  0  0  0  0  0  0  0  0
   -9.1927   -2.2897   -1.4911 H   0  0  0  0  0  0  0  0  0  0  0  0
   -9.1692   -0.5498   -1.1039 H   0  0  0  0  0  0  0  0  0  0  0  0
   -5.9972   -1.2314   -3.9963 H   0  0  0  0  0  0  0  0  0  0  0  0
   -6.2493    0.1522   -2.8877 H   0  0  0  0  0  0  0  0  0  0  0  0
   -6.1202   -2.8583   -2.2028 H   0  0  0  0  0  0  0  0  0  0  0  0
   -3.3025    2.2415    0.2583 H   0  0  0  0  0  0  0  0  0  0  0  0
   -0.8777    2.3516    0.6852 H   0  0  0  0  0  0  0  0  0  0  0  0
    3.8065    2.3697   -1.5769 H   0  0  0  0  0  0  0  0  0  0  0  0
    5.5284    3.5218   -0.2435 H   0  0  0  0  0  0  0  0  0  0  0  0
  1  2  1  0
  2  3  1  0
  3  4  1  0
  4  5  2  0
  5  6  1  0
  6  7  2  0
  7  8  1  0
  8  9  1  0
  9 10  1  0
 10 11  1  0
 11 12  2  0
 11 13  1  0
 13 14  1  0
 14 15  2  0
 15 16  1  0
 16 17  2  0
 17 18  1  0
 18 19  2  3
 19 20  1  0
 20 21  1  0
 21 22  1  0
 22 23  1  0
 23 24  2  0
 23 25  2  0
 23 26  1  0
 26 27  1  0
 27 28  1  0
 17 29  1  0
 29 30  2  0
  7 31  1  0
 31 32  2  0
 32  4  1  0
 30 14  1  0
 28 19  1  0
 27 21  1  0
  1 33  1  0
  1 34  1  0
  1 35  1  0
  2 36  1  0
  2 37  1  0
  5 38  1  0
  6 39  1  0
  8 40  1  0
  8 41  1  0
  9 42  1  0
  9 43  1  0
 10 44  1  0
 13 45  1  0
 13 46  1  0
 15 47  1  0
 16 48  1  0
 20 49  1  0
 21 50  1  0
 22 51  1  0
 22 52  1  0
 26 53  1  0
 26 54  1  0
 27 55  1  0
 29 56  1  0
 30 57  1  0
 31 58  1  0
 32 59  1  0
M  END
$$$$
