
     RDKit          3D

 42 43  0  0  0  0  0  0  0  0999 V2000
    3.4285   -0.7908    2.1524 C   0  0  0  0  0  0  0  0  0  0  0  0
    3.7137    0.3958    1.2502 C   0  0  0  0  0  0  0  0  0  0  0  0
    2.8024    1.1950    0.7675 N   0  0  0  0  0  0  0  0  0  0  0  0
    1.4813    0.8821    0.9528 N   0  0  0  0  0  0  0  0  0  0  0  0
    0.9256   -0.2398    0.3285 C   0  0  0  0  0  0  0  0  0  0  0  0
    1.5585   -1.1489   -0.2001 O   0  0  0  0  0  0  0  0  0  0  0  0
   -0.5900   -0.2185    0.3983 C   0  0  0  0  0  0  0  0  0  0  0  0
   -1.2127   -1.4412   -0.2768 C   0  0  0  0  0  0  0  0  0  0  0  0
   -2.7364   -1.4514   -0.1583 C   0  0  0  0  0  0  0  0  0  0  0  0
   -3.3001   -0.3263   -0.8970 N   0  0  0  0  0  0  0  0  0  0  0  0
   -4.6902   -0.1512   -0.9327 C   0  0  0  0  0  0  0  0  0  0  0  0
   -5.5703   -0.6860    0.0149 C   0  0  0  0  0  0  0  0  0  0  0  0
   -6.9427   -0.4138   -0.0354 C   0  0  0  0  0  0  0  0  0  0  0  0
   -7.4551    0.4242   -1.0207 C   0  0  0  0  0  0  0  0  0  0  0  0
   -6.5931    0.9999   -1.9474 C   0  0  0  0  0  0  0  0  0  0  0  0
   -5.2237    0.7233   -1.8922 C   0  0  0  0  0  0  0  0  0  0  0  0
    5.1464    0.6849    0.9263 C   0  0  0  0  0  0  0  0  0  0  0  0
    6.1204   -0.3117    0.9825 C   0  0  0  0  0  0  0  0  0  0  0  0
    7.4232    0.0331    0.6652 C   0  0  0  0  0  0  0  0  0  0  0  0
    7.8054    1.2760    0.3037 N   0  0  0  0  0  0  0  0  0  0  0  0
    6.8402    2.2176    0.2417 C   0  0  0  0  0  0  0  0  0  0  0  0
    5.5112    1.9750    0.5376 C   0  0  0  0  0  0  0  0  0  0  0  0
    4.2173   -0.8991    2.9032 H   0  0  0  0  0  0  0  0  0  0  0  0
    2.4922   -0.6572    2.7001 H   0  0  0  0  0  0  0  0  0  0  0  0
    3.3762   -1.7065    1.5580 H   0  0  0  0  0  0  0  0  0  0  0  0
    0.8851    1.7057    0.9416 H   0  0  0  0  0  0  0  0  0  0  0  0
   -0.9385    0.7008   -0.0860 H   0  0  0  0  0  0  0  0  0  0  0  0
   -0.8828   -0.1850    1.4543 H   0  0  0  0  0  0  0  0  0  0  0  0
   -0.9171   -1.4723   -1.3332 H   0  0  0  0  0  0  0  0  0  0  0  0
   -0.8186   -2.3540    0.1870 H   0  0  0  0  0  0  0  0  0  0  0  0
   -3.1195   -2.3940   -0.5668 H   0  0  0  0  0  0  0  0  0  0  0  0
   -3.0055   -1.3987    0.9027 H   0  0  0  0  0  0  0  0  0  0  0  0
   -2.9092   -0.2395   -1.8339 H   0  0  0  0  0  0  0  0  0  0  0  0
   -5.2132   -1.3272    0.8139 H   0  0  0  0  0  0  0  0  0  0  0  0
   -7.6075   -0.8521    0.7043 H   0  0  0  0  0  0  0  0  0  0  0  0
   -8.5196    0.6384   -1.0572 H   0  0  0  0  0  0  0  0  0  0  0  0
   -6.9800    1.6717   -2.7087 H   0  0  0  0  0  0  0  0  0  0  0  0
   -4.5674    1.2043   -2.6133 H   0  0  0  0  0  0  0  0  0  0  0  0
    5.8890   -1.3371    1.2439 H   0  0  0  0  0  0  0  0  0  0  0  0
    8.2195   -0.7058    0.6894 H   0  0  0  0  0  0  0  0  0  0  0  0
    7.1743    3.2052   -0.0631 H   0  0  0  0  0  0  0  0  0  0  0  0
    4.7826    2.7752    0.4671 H   0  0  0  0  0  0  0  0  0  0  0  0
  1  2  1  0
  2  3  2  3
  3  4  1  0
  4  5  1  0
  5  6  2  0
  5  7  1  0
  7  8  1  0
  8  9  1  0
  9 10  1  0
 10 11  1  0
 11 12  2  0
 12 13  1  0
 13 14  2  0
 14 15  1  0
 15 16  2  0
  2 17  1  0
 17 18  2  0
 18 19  1  0
 19 20  2  0
 20 21  1  0
 21 22  2  0
 16 11  1  0
 22 17  1  0
  1 23  1  0
  1 24  1  0
  1 25  1  0
  4 26  1  0
  7 27  1  0
  7 28  1  0
  8 29  1  0
  8 30  1  0
  9 31  1  0
  9 32  1  0
 10 33  1  0
 12 34  1  0
 13 35  1  0
 14 36  1  0
 15 37  1  0
 16 38  1  0
 18 39  1  0
 19 40  1  0
 21 41  1  0
 22 42  1  0
M  END
$$$$
