
     RDKit          3D

 43 45  0  0  0  0  0  0  0  0999 V2000
   -6.0239   -0.6925    3.0510 C   0  0  0  0  0  0  0  0  0  0  0  0
   -6.0276    0.0682    1.9482 C   0  0  0  0  0  0  0  0  0  0  0  0
   -5.8621   -0.4609    0.5499 C   0  0  0  0  0  0  0  0  0  0  0  0
   -4.5311   -0.1235    0.0724 N   0  0  0  0  0  0  0  0  0  0  0  0
   -4.3492    1.1183   -0.5173 C   0  0  0  0  0  0  0  0  0  0  0  0
   -5.2440    1.9466   -0.6739 O   0  0  0  0  0  0  0  0  0  0  0  0
   -3.0885    1.4120   -0.9375 N   0  0  0  0  0  0  0  0  0  0  0  0
   -2.0118    0.5555   -0.8043 C   0  0  0  0  0  0  0  0  0  0  0  0
   -0.8180    0.9868   -1.2587 N   0  0  0  0  0  0  0  0  0  0  0  0
    0.2209    0.1327   -1.1258 C   0  0  0  0  0  0  0  0  0  0  0  0
    1.4791    0.5088   -1.5702 C   0  0  0  0  0  0  0  0  0  0  0  0
    2.5899   -0.3311   -1.4350 C   0  0  0  0  0  0  0  0  0  0  0  0
    3.8259    0.0765   -1.9398 N   0  0  0  0  0  0  0  0  0  0  0  0
    4.5927    0.8929   -1.2978 C   0  0  0  0  0  0  0  0  0  0  0  0
    4.5635    1.5321   -0.0692 N   0  0  0  0  0  0  0  0  0  0  0  0
    5.6877    2.3842    0.3070 C   0  0  0  0  0  0  0  0  0  0  0  0
    3.7581    1.0527    1.0442 C   0  0  0  0  0  0  0  0  0  0  0  0
    2.4231   -1.6066   -0.8809 C   0  0  0  0  0  0  0  0  0  0  0  0
    3.5783   -2.5623   -0.7852 C   0  0  0  0  0  0  0  0  0  0  0  0
    1.1521   -1.9910   -0.4297 C   0  0  0  0  0  0  0  0  0  0  0  0
    0.0554   -1.1471   -0.5361 C   0  0  0  0  0  0  0  0  0  0  0  0
   -1.1409   -1.5616   -0.0822 N   0  0  0  0  0  0  0  0  0  0  0  0
   -2.1688   -0.6881   -0.2283 C   0  0  0  0  0  0  0  0  0  0  0  0
   -3.5173   -1.0739    0.2419 C   0  0  0  0  0  0  0  0  0  0  0  0
   -3.6993   -2.1820    0.7426 O   0  0  0  0  0  0  0  0  0  0  0  0
   -5.8718   -1.7676    2.9987 H   0  0  0  0  0  0  0  0  0  0  0  0
   -6.1590   -0.2518    4.0338 H   0  0  0  0  0  0  0  0  0  0  0  0
   -6.1813    1.1413    2.0447 H   0  0  0  0  0  0  0  0  0  0  0  0
   -6.0148   -1.5457    0.5183 H   0  0  0  0  0  0  0  0  0  0  0  0
   -6.6233   -0.0116   -0.0980 H   0  0  0  0  0  0  0  0  0  0  0  0
   -2.9264    2.3116   -1.3683 H   0  0  0  0  0  0  0  0  0  0  0  0
    1.6095    1.4836   -2.0334 H   0  0  0  0  0  0  0  0  0  0  0  0
    5.5087    1.1683   -1.8520 H   0  0  0  0  0  0  0  0  0  0  0  0
    5.3923    3.1123    1.0700 H   0  0  0  0  0  0  0  0  0  0  0  0
    6.0547    2.9547   -0.5532 H   0  0  0  0  0  0  0  0  0  0  0  0
    6.5094    1.7768    0.6999 H   0  0  0  0  0  0  0  0  0  0  0  0
    3.9315   -0.0132    1.2202 H   0  0  0  0  0  0  0  0  0  0  0  0
    4.0034    1.5751    1.9760 H   0  0  0  0  0  0  0  0  0  0  0  0
    2.6954    1.2298    0.8629 H   0  0  0  0  0  0  0  0  0  0  0  0
    4.3893   -2.1259   -0.1937 H   0  0  0  0  0  0  0  0  0  0  0  0
    3.2843   -3.4987   -0.2994 H   0  0  0  0  0  0  0  0  0  0  0  0
    3.9496   -2.8086   -1.7852 H   0  0  0  0  0  0  0  0  0  0  0  0
    1.0044   -2.9766    0.0083 H   0  0  0  0  0  0  0  0  0  0  0  0
  1  2  2  0
  2  3  1  0
  3  4  1  0
  4  5  1  0
  5  6  2  0
  5  7  1  0
  7  8  1  0
  8  9  2  0
  9 10  1  0
 10 11  2  0
 11 12  1  0
 12 13  1  0
 13 14  2  3
 14 15  1  0
 15 16  1  0
 15 17  1  0
 12 18  2  0
 18 19  1  0
 18 20  1  0
 20 21  2  0
 21 22  1  0
 22 23  2  0
 23 24  1  0
 24 25  2  0
 24  4  1  0
 23  8  1  0
 21 10  1  0
  1 26  1  0
  1 27  1  0
  2 28  1  0
  3 29  1  0
  3 30  1  0
  7 31  1  0
 11 32  1  0
 14 33  1  0
 16 34  1  0
 16 35  1  0
 16 36  1  0
 17 37  1  0
 17 38  1  0
 17 39  1  0
 19 40  1  0
 19 41  1  0
 19 42  1  0
 20 43  1  0
M  END
$$$$
