
     RDKit          3D

 39 41  0  0  0  0  0  0  0  0999 V2000
   -7.4279    1.0872   -0.7503 C   0  0  0  0  0  0  0  0  0  0  0  0
   -6.5006    0.1806   -1.3342 O   0  0  0  0  0  0  0  0  0  0  0  0
   -5.1914    0.3064   -0.9618 C   0  0  0  0  0  0  0  0  0  0  0  0
   -4.3252   -0.6150   -1.5561 C   0  0  0  0  0  0  0  0  0  0  0  0
   -2.9587   -0.6056   -1.2651 C   0  0  0  0  0  0  0  0  0  0  0  0
   -2.4463    0.3404   -0.3711 C   0  0  0  0  0  0  0  0  0  0  0  0
   -1.0532    0.3600   -0.0674 N   0  0  0  0  0  0  0  0  0  0  0  0
   -0.2650    1.5029    0.1005 C   0  0  0  0  0  0  0  0  0  0  0  0
   -0.6944    2.7525   -0.0835 O   0  0  0  0  0  0  0  0  0  0  0  0
    1.0168    1.1004    0.4080 C   0  0  0  0  0  0  0  0  0  0  0  0
    1.0409   -0.3049    0.3785 C   0  0  0  0  0  0  0  0  0  0  0  0
    2.0923   -1.1245    0.6073 N   0  0  0  0  0  0  0  0  0  0  0  0
    3.4152   -0.6791    0.5022 N   0  0  0  0  0  0  0  0  0  0  0  0
    4.3851   -1.5931    0.1201 C   0  0  0  0  0  0  0  0  0  0  0  0
    4.1056   -2.7122   -0.3103 O   0  0  0  0  0  0  0  0  0  0  0  0
    5.7397   -1.1132    0.2925 C   0  0  0  0  0  0  0  0  0  0  0  0
    6.9564   -1.7082    0.0155 C   0  0  0  0  0  0  0  0  0  0  0  0
    7.9590   -0.7812    0.3873 C   0  0  0  0  0  0  0  0  0  0  0  0
    7.2984    0.3233    0.8701 C   0  0  0  0  0  0  0  0  0  0  0  0
    5.9543    0.1356    0.8203 O   0  0  0  0  0  0  0  0  0  0  0  0
   -0.2345   -0.7579    0.1157 C   0  0  0  0  0  0  0  0  0  0  0  0
   -0.6640   -2.0242    0.0994 O   0  0  0  0  0  0  0  0  0  0  0  0
   -3.3096    1.2688    0.2248 C   0  0  0  0  0  0  0  0  0  0  0  0
   -4.6782    1.2480   -0.0695 C   0  0  0  0  0  0  0  0  0  0  0  0
   -7.1972    2.1206   -1.0293 H   0  0  0  0  0  0  0  0  0  0  0  0
   -7.4637    0.9698    0.3379 H   0  0  0  0  0  0  0  0  0  0  0  0
   -8.4211    0.8497   -1.1435 H   0  0  0  0  0  0  0  0  0  0  0  0
   -4.7194   -1.3431   -2.2623 H   0  0  0  0  0  0  0  0  0  0  0  0
   -2.3118   -1.3126   -1.7819 H   0  0  0  0  0  0  0  0  0  0  0  0
   -1.4724    2.7377   -0.6691 H   0  0  0  0  0  0  0  0  0  0  0  0
    1.8448    1.7707    0.5877 H   0  0  0  0  0  0  0  0  0  0  0  0
    1.9848   -2.1140    0.3464 H   0  0  0  0  0  0  0  0  0  0  0  0
    3.6799    0.1319    1.0519 H   0  0  0  0  0  0  0  0  0  0  0  0
    7.0888   -2.6956   -0.4068 H   0  0  0  0  0  0  0  0  0  0  0  0
    9.0307   -0.9025    0.3121 H   0  0  0  0  0  0  0  0  0  0  0  0
    7.6237    1.2757    1.2659 H   0  0  0  0  0  0  0  0  0  0  0  0
   -1.6176   -2.0381    0.2940 H   0  0  0  0  0  0  0  0  0  0  0  0
   -2.9477    1.9882    0.9582 H   0  0  0  0  0  0  0  0  0  0  0  0
   -5.3164    1.9749    0.4230 H   0  0  0  0  0  0  0  0  0  0  0  0
  1  2  1  0
  2  3  1  0
  3  4  2  0
  4  5  1  0
  5  6  2  0
  6  7  1  0
  7  8  1  0
  8  9  1  0
  8 10  2  0
 10 11  1  0
 11 12  1  0
 12 13  1  0
 13 14  1  0
 14 15  2  0
 14 16  1  0
 16 17  2  0
 17 18  1  0
 18 19  2  0
 19 20  1  0
 11 21  2  0
 21 22  1  0
  6 23  1  0
 23 24  2  0
 24  3  1  0
 21  7  1  0
 20 16  1  0
  1 25  1  0
  1 26  1  0
  1 27  1  0
  4 28  1  0
  5 29  1  0
  9 30  1  0
 10 31  1  0
 12 32  1  0
 13 33  1  0
 17 34  1  0
 18 35  1  0
 19 36  1  0
 22 37  1  0
 23 38  1  0
 24 39  1  0
M  END
$$$$
