
     RDKit          3D

 59 62  0  0  0  0  0  0  0  0999 V2000
   -6.1546   -1.7202   -2.1079 C   0  0  0  0  0  0  0  0  0  0  0  0
   -6.1124   -0.4605   -1.2600 C   0  0  0  0  0  0  0  0  0  0  0  0
   -5.2512   -0.6005   -0.1015 N   0  0  0  0  0  0  0  0  0  0  0  0
   -3.9254   -0.2290    0.0208 C   0  0  0  0  0  0  0  0  0  0  0  0
   -3.1260    0.3506   -1.0522 C   0  0  0  0  0  0  0  0  0  0  0  0
   -3.2874    0.0214   -2.2271 O   0  0  0  0  0  0  0  0  0  0  0  0
   -2.1456    1.2882   -0.6878 N   0  0  0  0  0  0  0  0  0  0  0  0
   -2.4453    2.3250    0.2979 C   0  0  0  0  0  0  0  0  0  0  0  0
   -1.1751    2.9037    0.9065 C   0  0  0  0  0  0  0  0  0  0  0  0
   -0.2339    3.4169   -0.1809 C   0  0  0  0  0  0  0  0  0  0  0  0
    0.0825    2.3260   -1.2123 C   0  0  0  0  0  0  0  0  0  0  0  0
    1.0670    1.2940   -0.6619 C   0  0  0  0  0  0  0  0  0  0  0  0
    0.7976    0.1096   -0.4973 O   0  0  0  0  0  0  0  0  0  0  0  0
    2.3129    1.8166   -0.3717 N   0  0  0  0  0  0  0  0  0  0  0  0
    3.3906    0.9767    0.1202 C   0  0  0  0  0  0  0  0  0  0  0  0
    4.0594    0.1780   -1.0008 C   0  0  0  0  0  0  0  0  0  0  0  0
    5.2145   -0.6436   -0.4869 C   0  0  0  0  0  0  0  0  0  0  0  0
    6.5247   -0.1549   -0.5510 C   0  0  0  0  0  0  0  0  0  0  0  0
    7.5883   -0.9141   -0.0566 C   0  0  0  0  0  0  0  0  0  0  0  0
    7.3584   -2.1669    0.5228 C   0  0  0  0  0  0  0  0  0  0  0  0
    8.5038   -2.9971    1.0207 C   0  0  0  0  0  0  0  0  0  0  0  0
    6.0498   -2.6595    0.5782 C   0  0  0  0  0  0  0  0  0  0  0  0
    4.9859   -1.9016    0.0840 C   0  0  0  0  0  0  0  0  0  0  0  0
   -1.1989    1.6662   -1.7365 C   0  0  0  0  0  0  0  0  0  0  0  0
   -3.4998   -0.5876    1.2952 C   0  0  0  0  0  0  0  0  0  0  0  0
   -4.6284   -1.1300    1.9649 C   0  0  0  0  0  0  0  0  0  0  0  0
   -5.0456   -1.7870    3.5113 S   0  0  0  0  0  0  0  0  0  0  0  0
   -6.6567   -2.0409    2.9636 C   0  0  0  0  0  0  0  0  0  0  0  0
   -6.8779   -1.6538    1.6591 C   0  0  0  0  0  0  0  0  0  0  0  0
   -5.6801   -1.1261    1.0999 C   0  0  0  0  0  0  0  0  0  0  0  0
   -6.5340   -2.5713   -1.5330 H   0  0  0  0  0  0  0  0  0  0  0  0
   -5.1589   -1.9876   -2.4759 H   0  0  0  0  0  0  0  0  0  0  0  0
   -6.8102   -1.5753   -2.9716 H   0  0  0  0  0  0  0  0  0  0  0  0
   -7.1172   -0.2108   -0.9012 H   0  0  0  0  0  0  0  0  0  0  0  0
   -5.7692    0.3962   -1.8477 H   0  0  0  0  0  0  0  0  0  0  0  0
   -3.0089    3.1094   -0.2234 H   0  0  0  0  0  0  0  0  0  0  0  0
   -3.0981    1.9605    1.0930 H   0  0  0  0  0  0  0  0  0  0  0  0
   -0.6672    2.1352    1.5018 H   0  0  0  0  0  0  0  0  0  0  0  0
   -1.4321    3.7223    1.5880 H   0  0  0  0  0  0  0  0  0  0  0  0
    0.6771    3.8078    0.2854 H   0  0  0  0  0  0  0  0  0  0  0  0
   -0.7106    4.2626   -0.6935 H   0  0  0  0  0  0  0  0  0  0  0  0
    0.5890    2.7899   -2.0701 H   0  0  0  0  0  0  0  0  0  0  0  0
    2.5356    2.7605   -0.6573 H   0  0  0  0  0  0  0  0  0  0  0  0
    2.9869    0.3039    0.8862 H   0  0  0  0  0  0  0  0  0  0  0  0
    4.1132    1.6405    0.6080 H   0  0  0  0  0  0  0  0  0  0  0  0
    3.3334   -0.4832   -1.4912 H   0  0  0  0  0  0  0  0  0  0  0  0
    4.4102    0.8595   -1.7869 H   0  0  0  0  0  0  0  0  0  0  0  0
    6.7295    0.8180   -0.9913 H   0  0  0  0  0  0  0  0  0  0  0  0
    8.5996   -0.5202   -0.1270 H   0  0  0  0  0  0  0  0  0  0  0  0
    8.1942   -3.6238    1.8638 H   0  0  0  0  0  0  0  0  0  0  0  0
    8.8758   -3.6409    0.2178 H   0  0  0  0  0  0  0  0  0  0  0  0
    9.3236   -2.3618    1.3726 H   0  0  0  0  0  0  0  0  0  0  0  0
    5.8483   -3.6386    1.0073 H   0  0  0  0  0  0  0  0  0  0  0  0
    3.9749   -2.3015    0.1432 H   0  0  0  0  0  0  0  0  0  0  0  0
   -0.9528    0.7833   -2.3393 H   0  0  0  0  0  0  0  0  0  0  0  0
   -1.7249    2.3659   -2.3993 H   0  0  0  0  0  0  0  0  0  0  0  0
   -2.4974   -0.4765    1.6890 H   0  0  0  0  0  0  0  0  0  0  0  0
   -7.3736   -2.4775    3.6455 H   0  0  0  0  0  0  0  0  0  0  0  0
   -7.8277   -1.7460    1.1493 H   0  0  0  0  0  0  0  0  0  0  0  0
  1  2  1  0
  2  3  1  0
  3  4  1  0
  4  5  1  0
  5  6  2  0
  5  7  1  0
  7  8  1  0
  8  9  1  0
  9 10  1  0
 10 11  1  0
 11 12  1  0
 12 13  2  0
 12 14  1  0
 14 15  1  0
 15 16  1  0
 16 17  1  0
 17 18  2  0
 18 19  1  0
 19 20  2  0
 20 21  1  0
 20 22  1  0
 22 23  2  0
 11 24  1  0
  4 25  2  0
 25 26  1  0
 26 27  1  0
 27 28  1  0
 28 29  2  0
 29 30  1  0
 30  3  1  0
 24  7  1  0
 30 26  2  0
 23 17  1  0
  1 31  1  0
  1 32  1  0
  1 33  1  0
  2 34  1  0
  2 35  1  0
  8 36  1  0
  8 37  1  0
  9 38  1  0
  9 39  1  0
 10 40  1  0
 10 41  1  0
 11 42  1  0
 14 43  1  0
 15 44  1  0
 15 45  1  0
 16 46  1  0
 16 47  1  0
 18 48  1  0
 19 49  1  0
 21 50  1  0
 21 51  1  0
 21 52  1  0
 22 53  1  0
 23 54  1  0
 24 55  1  0
 24 56  1  0
 25 57  1  0
 28 58  1  0
 29 59  1  0
M  END
$$$$
