
     RDKit          3D

 56 58  0  0  0  0  0  0  0  0999 V2000
   -6.5809    2.2958   -3.4186 C   0  0  0  0  0  0  0  0  0  0  0  0
   -6.4707    2.1147   -1.9167 C   0  0  0  0  0  0  0  0  0  0  0  0
   -5.0938    1.9870   -1.5347 O   0  0  0  0  0  0  0  0  0  0  0  0
   -4.5748    0.7281   -1.5524 C   0  0  0  0  0  0  0  0  0  0  0  0
   -5.1736   -0.2490   -1.9857 O   0  0  0  0  0  0  0  0  0  0  0  0
   -3.1208    0.7298   -1.1443 C   0  0  0  0  0  0  0  0  0  0  0  0
   -2.7540    1.5759    0.0506 C   0  0  0  0  0  0  0  0  0  0  0  0
   -3.5285    2.2819    0.6878 O   0  0  0  0  0  0  0  0  0  0  0  0
   -1.3177    1.5835    0.4381 C   0  0  0  0  0  0  0  0  0  0  0  0
   -0.4842    0.6174    0.0116 C   0  0  0  0  0  0  0  0  0  0  0  0
    0.9252    0.6856    0.3865 C   0  0  0  0  0  0  0  0  0  0  0  0
    1.8911   -0.1650    0.0015 C   0  0  0  0  0  0  0  0  0  0  0  0
    3.2943   -0.0395    0.4195 C   0  0  0  0  0  0  0  0  0  0  0  0
    4.0131   -1.1873    0.7483 C   0  0  0  0  0  0  0  0  0  0  0  0
    5.3628   -1.1048    1.1267 C   0  0  0  0  0  0  0  0  0  0  0  0
    6.0595    0.1153    1.1728 C   0  0  0  0  0  0  0  0  0  0  0  0
    7.3996    0.1938    1.5690 N   0  0  0  0  0  0  0  0  0  0  0  0
    8.1425    1.4287    1.3245 C   0  0  0  0  0  0  0  0  0  0  0  0
    8.2004   -1.0284    1.6102 C   0  0  0  0  0  0  0  0  0  0  0  0
    5.3103    1.2556    0.8344 C   0  0  0  0  0  0  0  0  0  0  0  0
    3.9599    1.1847    0.4554 C   0  0  0  0  0  0  0  0  0  0  0  0
   -0.9716   -0.5557   -0.8248 C   0  0  0  0  0  0  0  0  0  0  0  0
   -2.5127   -0.6761   -0.9657 C   0  0  0  0  0  0  0  0  0  0  0  0
   -3.1505   -1.5295    0.1340 C   0  0  0  0  0  0  0  0  0  0  0  0
   -2.8381   -1.3984    1.4952 C   0  0  0  0  0  0  0  0  0  0  0  0
   -3.4519   -2.2075    2.4570 C   0  0  0  0  0  0  0  0  0  0  0  0
   -4.3878   -3.1637    2.0769 C   0  0  0  0  0  0  0  0  0  0  0  0
   -4.7097   -3.3138    0.7331 C   0  0  0  0  0  0  0  0  0  0  0  0
   -4.0953   -2.5067   -0.2271 C   0  0  0  0  0  0  0  0  0  0  0  0
   -6.1991    1.4175   -3.9493 H   0  0  0  0  0  0  0  0  0  0  0  0
   -7.6217    2.4570   -3.7140 H   0  0  0  0  0  0  0  0  0  0  0  0
   -5.9825    3.1519   -3.7483 H   0  0  0  0  0  0  0  0  0  0  0  0
   -6.8625    3.0023   -1.4092 H   0  0  0  0  0  0  0  0  0  0  0  0
   -7.0615    1.2588   -1.5707 H   0  0  0  0  0  0  0  0  0  0  0  0
   -2.6178    1.2005   -2.0045 H   0  0  0  0  0  0  0  0  0  0  0  0
   -1.0123    2.4055    1.0762 H   0  0  0  0  0  0  0  0  0  0  0  0
    1.1976    1.5105    1.0462 H   0  0  0  0  0  0  0  0  0  0  0  0
    1.6813   -1.0180   -0.6371 H   0  0  0  0  0  0  0  0  0  0  0  0
    3.5337   -2.1634    0.7313 H   0  0  0  0  0  0  0  0  0  0  0  0
    5.8516   -2.0377    1.3905 H   0  0  0  0  0  0  0  0  0  0  0  0
    9.1757    1.3487    1.6812 H   0  0  0  0  0  0  0  0  0  0  0  0
    7.7023    2.2705    1.8697 H   0  0  0  0  0  0  0  0  0  0  0  0
    8.1797    1.6609    0.2544 H   0  0  0  0  0  0  0  0  0  0  0  0
    9.2289   -0.8198    1.9259 H   0  0  0  0  0  0  0  0  0  0  0  0
    7.8015   -1.7395    2.3416 H   0  0  0  0  0  0  0  0  0  0  0  0
    8.2479   -1.5018    0.6232 H   0  0  0  0  0  0  0  0  0  0  0  0
    5.7583    2.2444    0.8541 H   0  0  0  0  0  0  0  0  0  0  0  0
    3.4476    2.1044    0.1844 H   0  0  0  0  0  0  0  0  0  0  0  0
   -0.5494   -0.4321   -1.8321 H   0  0  0  0  0  0  0  0  0  0  0  0
   -0.5763   -1.4997   -0.4284 H   0  0  0  0  0  0  0  0  0  0  0  0
   -2.6705   -1.2272   -1.9051 H   0  0  0  0  0  0  0  0  0  0  0  0
   -2.1114   -0.6741    1.8486 H   0  0  0  0  0  0  0  0  0  0  0  0
   -3.1971   -2.0865    3.5069 H   0  0  0  0  0  0  0  0  0  0  0  0
   -4.8665   -3.7879    2.8262 H   0  0  0  0  0  0  0  0  0  0  0  0
   -5.4436   -4.0546    0.4275 H   0  0  0  0  0  0  0  0  0  0  0  0
   -4.3763   -2.6431   -1.2707 H   0  0  0  0  0  0  0  0  0  0  0  0
  1  2  1  0
  2  3  1  0
  3  4  1  0
  4  5  2  0
  4  6  1  0
  6  7  1  0
  7  8  2  0
  7  9  1  0
  9 10  2  0
 10 11  1  0
 11 12  2  3
 12 13  1  0
 13 14  2  0
 14 15  1  0
 15 16  2  0
 16 17  1  0
 17 18  1  0
 17 19  1  0
 16 20  1  0
 20 21  2  0
 10 22  1  0
 22 23  1  0
 23 24  1  0
 24 25  2  0
 25 26  1  0
 26 27  2  0
 27 28  1  0
 28 29  2  0
 23  6  1  0
 29 24  1  0
 21 13  1  0
  1 30  1  0
  1 31  1  0
  1 32  1  0
  2 33  1  0
  2 34  1  0
  6 35  1  0
  9 36  1  0
 11 37  1  0
 12 38  1  0
 14 39  1  0
 15 40  1  0
 18 41  1  0
 18 42  1  0
 18 43  1  0
 19 44  1  0
 19 45  1  0
 19 46  1  0
 20 47  1  0
 21 48  1  0
 22 49  1  0
 22 50  1  0
 23 51  1  0
 25 52  1  0
 26 53  1  0
 27 54  1  0
 28 55  1  0
 29 56  1  0
M  END
$$$$
